=
 OpenBabel11052416053D

 43 49  0  0  1  0  0  0  0  0999 V2000
  191.2160  176.3420  147.0410 C   0  0  1  0  0  3  0  0  0  0  0  0
  187.0920  177.8850  144.3800 C   0  0  0  0  0  0  0  0  0  0  0  0
  187.9870  178.3030  141.8030 C   0  0  0  0  0  0  0  0  0  0  0  0
  188.9350  177.1770  146.3700 C   0  0  0  0  0  0  0  0  0  0  0  0
  191.6810  176.8510  145.7010 C   0  0  0  0  0  3  0  0  0  0  0  0
  192.1270  176.7020  148.0320 O   0  0  0  0  0  1  0  0  0  0  0  0
  189.3790  177.3830  145.0540 C   0  0  0  0  0  0  0  0  0  0  0  0
  189.8820  176.8370  147.3850 N   0  0  0  0  0  2  0  0  0  0  0  0
  190.8250  177.2890  144.7740 C   0  0  0  0  0  3  0  0  0  0  0  0
  188.8700  177.9550  142.7760 N   0  0  0  0  0  0  0  0  0  0  0  0
  188.4590  177.7410  144.0530 C   0  0  0  0  0  0  0  0  0  0  0  0
  186.6640  177.6840  145.7000 C   0  0  0  0  0  3  0  0  0  0  0  0
  186.1950  178.2390  143.3620 C   0  0  0  0  0  0  0  0  0  0  0  0
  186.6660  178.4340  142.0990 N   0  0  0  0  0  0  0  0  0  0  0  0
  187.5840  177.3360  146.6920 C   0  0  0  0  0  3  0  0  0  0  0  0
  188.4680  178.5000  140.4050 C   0  0  2  0  0  3  0  0  0  0  0  0
  188.8050  177.1920  139.7990 C   0  0  2  0  0  3  0  0  0  0  0  0
  189.8000  178.0580  140.2850 O   0  0  0  0  0  0  0  0  0  0  0  0
  188.7410  177.2950  138.2890 C   0  0  1  0  0  3  0  0  0  0  0  0
  190.0190  177.1130  137.7570 O   0  0  0  0  0  1  0  0  0  0  0  0
  187.8070  176.2250  137.7510 C   0  0  0  0  0  2  0  0  0  0  0  0
  186.9520  176.7840  136.7030 N   0  0  0  0  0  0  0  0  0  0  0  0
  184.7280  176.7410  137.6170 C   0  0  0  0  0  2  0  0  0  0  0  0
  186.6350  178.1440  137.1350 C   0  0  0  0  0  2  0  0  0  0  0  0
  185.6540  176.0890  136.6080 C   0  0  1  0  0  0  0  0  0  0  0  0
  185.0910  176.3120  135.2090 C   0  0  0  0  0  1  0  0  0  0  0  0
  185.2750  178.1340  137.8110 C   0  0  0  0  0  2  0  0  0  0  0  0
  185.7650  174.5700  136.8470 C   0  0  0  0  0  2  0  0  0  0  0  0
  184.7430  173.8340  136.1160 N   0  0  0  0  0  0  0  0  0  0  0  0
  184.9290  170.3890  135.4500 O   0  0  0  0  0  0  0  0  0  0  0  0
  183.6180  171.7920  136.8400 C   0  0  0  0  0  2  0  0  0  0  0  0
  184.6770  171.5060  135.8680 C   0  0  0  0  0  0  0  0  0  0  0  0
  183.8230  173.2730  137.1150 C   0  0  0  0  0  2  0  0  0  0  0  0
  185.4120  172.7140  135.4580 C   0  0  0  0  0  2  0  0  0  0  0  0
  184.7970  178.3950  143.6580 N   0  0  0  0  0  2  0  0  0  0  0  0
  182.7510  178.0140  140.5280 C   0  0  0  0  0  3  0  0  0  0  0  0
  181.5230  178.5230  140.9620 C   0  0  0  0  0  0  0  0  0  0  0  0
  182.4760  178.9420  143.1490 C   0  0  0  0  0  3  0  0  0  0  0  0
  183.8360  177.9630  141.4080 C   0  0  0  0  0  3  0  0  0  0  0  0
  183.7050  178.4240  142.7270 C   0  0  0  0  0  0  0  0  0  0  0  0
  181.3880  178.9940  142.2720 C   0  0  0  0  0  3  0  0  0  0  0  0
  180.7730  179.2340  138.8420 O   0  0  0  0  0  1  0  0  0  0  0  0
  180.3740  178.6020  140.0200 C   0  0  0  0  0  2  0  0  0  0  0  0
  1  8  1  0  0  0  0
  1  6  1  1  0  0  0
  2 12  1  0  0  0  0
  3 14  1  0  0  0  0
  3 10  2  0  0  0  0
  4 15  1  0  0  0  0
  4  8  1  0  0  0  0
  5  1  1  0  0  0  0
  7  4  2  0  0  0  0
  9  7  1  0  0  0  0
  9  5  2  0  0  0  0
 10 11  1  0  0  0  0
 11  2  2  0  0  0  0
 11  7  1  0  0  0  0
 12 15  2  0  0  0  0
 13 35  1  0  0  0  0
 13  2  1  0  0  0  0
 14 13  2  0  0  0  0
 16  3  1  1  0  0  0
 17 19  1  6  0  0  0
 17 18  1  0  0  0  0
 17 16  1  0  0  0  0
 18 16  1  0  0  0  0
 19 20  1  6  0  0  0
 21 19  1  0  0  0  0
 22 24  1  0  0  0  0
 22 21  1  0  0  0  0
 23 27  1  0  0  0  0
 24 27  1  0  0  0  0
 25 26  1  6  0  0  0
 25 22  1  0  0  0  0
 25 28  1  0  0  0  0
 25 23  1  0  0  0  0
 29 28  1  0  0  0  0
 29 33  1  0  0  0  0
 30 32  2  0  0  0  0
 31 33  1  0  0  0  0
 32 31  1  0  0  0  0
 34 32  1  0  0  0  0
 34 29  1  0  0  0  0
 36 37  2  0  0  0  0
 36 39  1  0  0  0  0
 37 41  1  0  0  0  0
 39 40  2  0  0  0  0
 40 38  1  0  0  0  0
 40 35  1  0  0  0  0
 41 38  2  0  0  0  0
 42 43  1  0  0  0  0
 43 37  1  0  0  0  0
M  END
>  <MODEL>
1

>  <REMARK>
 VINA RESULT:      -9.6      0.000      0.000
  Name = 
  9 active torsions:
  status: ('A' for Active; 'I' for Inactive)
    1  A    between atoms: N_1  and  C_34
    2  A    between atoms: N_1  and  C_35
    3  A    between atoms: C_2  and  C_13
    4  A    between atoms: C_3  and  N_4
    5  A    between atoms: C_3  and  C_12
    6  A    between atoms: C_6  and  C_12
    7  A    between atoms: N_11  and  C_14
    8  A    between atoms: C_14  and  C_22
    9  A    between atoms: C_19  and  C_37
                            x       y       z     vdW  Elec       q    Type
                         _______ _______ _______ _____ _____    ______ ____

>  <TORSDO>
F 9

$$$$
=
 OpenBabel11052416053D

 43 49  0  0  1  0  0  0  0  0999 V2000
  191.2870  176.2300  146.9780 C   0  0  1  0  0  3  0  0  0  0  0  0
  187.1110  177.9020  144.4810 C   0  0  0  0  0  0  0  0  0  0  0  0
  187.9320  178.3530  141.8850 C   0  0  0  0  0  0  0  0  0  0  0  0
  189.0020  177.1210  146.3970 C   0  0  0  0  0  0  0  0  0  0  0  0
  191.7190  176.7550  145.6340 C   0  0  0  0  0  3  0  0  0  0  0  0
  192.2360  176.5530  147.9460 O   0  0  0  0  0  1  0  0  0  0  0  0
  189.4080  177.3440  145.0720 C   0  0  0  0  0  0  0  0  0  0  0  0
  189.9750  176.7430  147.3740 N   0  0  0  0  0  2  0  0  0  0  0  0
  190.8430  177.2280  144.7440 C   0  0  0  0  0  3  0  0  0  0  0  0
  188.8380  177.9690  142.8220 N   0  0  0  0  0  0  0  0  0  0  0  0
  188.4640  177.7390  144.1080 C   0  0  0  0  0  0  0  0  0  0  0  0
  186.7220  177.6830  145.8100 C   0  0  0  0  0  3  0  0  0  0  0  0
  186.1900  178.2930  143.4990 C   0  0  0  0  0  0  0  0  0  0  0  0
  186.6240  178.5030  142.2250 N   0  0  0  0  0  0  0  0  0  0  0  0
  187.6660  177.2990  146.7660 C   0  0  0  0  0  3  0  0  0  0  0  0
  188.3720  178.5670  140.4760 C   0  0  2  0  0  3  0  0  0  0  0  0
  188.4350  177.2710  139.7650 C   0  0  2  0  0  3  0  0  0  0  0  0
  189.5940  177.9070  140.2450 O   0  0  0  0  0  0  0  0  0  0  0  0
  188.3180  177.4990  138.2710 C   0  0  1  0  0  3  0  0  0  0  0  0
  189.4930  178.0850  137.7980 O   0  0  0  0  0  1  0  0  0  0  0  0
  188.0960  176.1670  137.5760 C   0  0  0  0  0  2  0  0  0  0  0  0
  188.5170  176.2540  136.1760 N   0  0  0  0  0  0  0  0  0  0  0  0
  188.6480  173.9770  135.4170 C   0  0  0  0  0  2  0  0  0  0  0  0
  187.3160  175.9920  135.3860 C   0  0  0  0  0  2  0  0  0  0  0  0
  189.4700  175.1890  135.8100 C   0  0  1  0  0  0  0  0  0  0  0  0
  190.2680  175.6550  134.5970 C   0  0  0  0  0  1  0  0  0  0  0  0
  187.3160  174.5290  134.9740 C   0  0  0  0  0  2  0  0  0  0  0  0
  190.4620  174.8520  136.9410 C   0  0  0  0  0  2  0  0  0  0  0  0
  191.8430  175.0490  136.5220 N   0  0  0  0  0  0  0  0  0  0  0  0
  194.4410  175.9050  138.7270 O   0  0  0  0  0  0  0  0  0  0  0  0
  193.8210  173.9870  137.4790 C   0  0  0  0  0  2  0  0  0  0  0  0
  193.6580  175.3580  137.9690 C   0  0  0  0  0  0  0  0  0  0  0  0
  192.5320  173.7640  136.7050 C   0  0  0  0  0  2  0  0  0  0  0  0
  192.4400  176.0040  137.4520 C   0  0  0  0  0  2  0  0  0  0  0  0
  184.8050  178.4700  143.8430 N   0  0  0  0  0  2  0  0  0  0  0  0
  182.6770  178.2380  140.7530 C   0  0  0  0  0  3  0  0  0  0  0  0
  181.4410  178.6480  141.2640 C   0  0  0  0  0  0  0  0  0  0  0  0
  182.4440  178.9370  143.4490 C   0  0  0  0  0  3  0  0  0  0  0  0
  183.7920  178.1710  141.5940 C   0  0  0  0  0  3  0  0  0  0  0  0
  183.6830  178.5180  142.9500 C   0  0  0  0  0  0  0  0  0  0  0  0
  181.3270  179.0050  142.6110 C   0  0  0  0  0  3  0  0  0  0  0  0
  179.7820  177.4660  140.0750 O   0  0  0  0  0  1  0  0  0  0  0  0
  180.2590  178.7440  140.3650 C   0  0  0  0  0  2  0  0  0  0  0  0
  1  8  1  0  0  0  0
  1  6  1  1  0  0  0
  2 12  1  0  0  0  0
  3 14  1  0  0  0  0
  3 10  2  0  0  0  0
  4 15  1  0  0  0  0
  4  8  1  0  0  0  0
  5  1  1  0  0  0  0
  7  4  2  0  0  0  0
  9  7  1  0  0  0  0
  9  5  2  0  0  0  0
 10 11  1  0  0  0  0
 11  2  2  0  0  0  0
 11  7  1  0  0  0  0
 12 15  2  0  0  0  0
 13 35  1  0  0  0  0
 13  2  1  0  0  0  0
 14 13  2  0  0  0  0
 16  3  1  1  0  0  0
 17 19  1  6  0  0  0
 17 18  1  0  0  0  0
 17 16  1  0  0  0  0
 18 16  1  0  0  0  0
 19 20  1  6  0  0  0
 21 19  1  0  0  0  0
 22 21  1  0  0  0  0
 23 25  1  0  0  0  0
 24 22  1  0  0  0  0
 25 26  1  6  0  0  0
 25 22  1  0  0  0  0
 25 28  1  0  0  0  0
 27 24  1  0  0  0  0
 27 23  1  0  0  0  0
 29 33  1  0  0  0  0
 29 28  1  0  0  0  0
 29 34  1  0  0  0  0
 31 32  1  0  0  0  0
 32 30  2  0  0  0  0
 33 31  1  0  0  0  0
 34 32  1  0  0  0  0
 36 37  2  0  0  0  0
 36 39  1  0  0  0  0
 37 41  1  0  0  0  0
 39 40  2  0  0  0  0
 40 38  1  0  0  0  0
 40 35  1  0  0  0  0
 41 38  2  0  0  0  0
 42 43  1  0  0  0  0
 43 37  1  0  0  0  0
M  END
>  <MODEL>
2

>  <REMARK>
 VINA RESULT:      -9.2      2.290      3.953
  Name = 
  9 active torsions:
  status: ('A' for Active; 'I' for Inactive)
    1  A    between atoms: N_1  and  C_34
    2  A    between atoms: N_1  and  C_35
    3  A    between atoms: C_2  and  C_13
    4  A    between atoms: C_3  and  N_4
    5  A    between atoms: C_3  and  C_12
    6  A    between atoms: C_6  and  C_12
    7  A    between atoms: N_11  and  C_14
    8  A    between atoms: C_14  and  C_22
    9  A    between atoms: C_19  and  C_37
                            x       y       z     vdW  Elec       q    Type
                         _______ _______ _______ _____ _____    ______ ____

>  <TORSDO>
F 9

$$$$
=
 OpenBabel11052416053D

 43 49  0  0  1  0  0  0  0  0999 V2000
  187.7910  177.0640  146.8260 C   0  0  1  0  0  3  0  0  0  0  0  0
  185.8020  178.6050  142.3390 C   0  0  0  0  0  0  0  0  0  0  0  0
  187.8380  178.3420  140.4960 C   0  0  0  0  0  0  0  0  0  0  0  0
  186.3220  178.0660  145.0400 C   0  0  0  0  0  0  0  0  0  0  0  0
  188.9170  177.2080  145.8350 C   0  0  0  0  0  3  0  0  0  0  0  0
  188.2070  177.4850  148.0880 O   0  0  0  0  0  1  0  0  0  0  0  0
  187.3500  177.9260  144.0940 C   0  0  0  0  0  0  0  0  0  0  0  0
  186.6000  177.8090  146.4190 N   0  0  0  0  0  2  0  0  0  0  0  0
  188.7010  177.5650  144.5660 C   0  0  0  0  0  3  0  0  0  0  0  0
  188.0770  178.0780  141.8080 N   0  0  0  0  0  0  0  0  0  0  0  0
  187.0940  178.1980  142.7390 C   0  0  0  0  0  0  0  0  0  0  0  0
  184.7880  178.7480  143.2970 C   0  0  0  0  0  3  0  0  0  0  0  0
  185.5730  178.8670  140.9810 C   0  0  0  0  0  0  0  0  0  0  0  0
  186.5970  178.7230  140.0940 N   0  0  0  0  0  0  0  0  0  0  0  0
  185.0500  178.4840  144.6440 C   0  0  0  0  0  3  0  0  0  0  0  0
  188.9330  178.1700  139.4970 C   0  0  2  0  0  3  0  0  0  0  0  0
  188.6550  176.9950  138.6420 C   0  0  2  0  0  3  0  0  0  0  0  0
  189.5810  176.9360  139.6980 O   0  0  0  0  0  0  0  0  0  0  0  0
  189.3970  177.1300  137.3280 C   0  0  1  0  0  3  0  0  0  0  0  0
  190.7560  176.8900  137.5350 O   0  0  0  0  0  1  0  0  0  0  0  0
  188.8470  176.1210  136.3340 C   0  0  0  0  0  2  0  0  0  0  0  0
  188.3380  174.9440  137.0420 N   0  0  0  0  0  0  0  0  0  0  0  0
  187.7200  173.3920  135.3130 C   0  0  0  0  0  2  0  0  0  0  0  0
  189.4000  173.9440  136.9590 C   0  0  0  0  0  2  0  0  0  0  0  0
  187.1750  174.3420  136.3620 C   0  0  1  0  0  0  0  0  0  0  0  0
  186.3830  173.5380  137.3880 C   0  0  0  0  0  1  0  0  0  0  0  0
  189.0920  173.0030  135.8060 C   0  0  0  0  0  2  0  0  0  0  0  0
  186.2330  175.3890  135.7360 C   0  0  0  0  0  2  0  0  0  0  0  0
  184.8690  175.2470  136.2260 N   0  0  0  0  0  0  0  0  0  0  0  0
  182.5850  177.9100  136.4210 O   0  0  0  0  0  0  0  0  0  0  0  0
  182.8310  175.9630  135.0900 C   0  0  0  0  0  2  0  0  0  0  0  0
  183.2250  176.9130  136.1350 C   0  0  0  0  0  0  0  0  0  0  0  0
  184.0160  175.0120  135.0530 C   0  0  0  0  0  2  0  0  0  0  0  0
  184.4840  176.5350  136.7980 C   0  0  0  0  0  2  0  0  0  0  0  0
  184.2700  179.2850  140.5390 N   0  0  0  0  0  2  0  0  0  0  0  0
  180.6930  178.1380  140.6650 C   0  0  0  0  0  3  0  0  0  0  0  0
  180.8250  176.8360  140.1710 C   0  0  0  0  0  0  0  0  0  0  0  0
  183.2130  177.1710  139.9380 C   0  0  0  0  0  3  0  0  0  0  0  0
  181.8200  178.9560  140.7870 C   0  0  0  0  0  3  0  0  0  0  0  0
  183.0890  178.4790  140.4220 C   0  0  0  0  0  0  0  0  0  0  0  0
  182.0870  176.3510  139.8150 C   0  0  0  0  0  3  0  0  0  0  0  0
  179.1140  175.7050  141.3350 O   0  0  0  0  0  1  0  0  0  0  0  0
  179.6310  175.9550  140.0640 C   0  0  0  0  0  2  0  0  0  0  0  0
  1  6  1  1  0  0  0
  2 11  2  0  0  0  0
  2 12  1  0  0  0  0
  3 10  2  0  0  0  0
  4  8  1  0  0  0  0
  5  1  1  0  0  0  0
  7  9  1  0  0  0  0
  7  4  2  0  0  0  0
  8  1  1  0  0  0  0
  9  5  2  0  0  0  0
 10 11  1  0  0  0  0
 11  7  1  0  0  0  0
 12 15  2  0  0  0  0
 13  2  1  0  0  0  0
 14  3  1  0  0  0  0
 14 13  2  0  0  0  0
 15  4  1  0  0  0  0
 16 18  1  0  0  0  0
 16  3  1  1  0  0  0
 17 19  1  6  0  0  0
 17 16  1  0  0  0  0
 17 18  1  0  0  0  0
 19 20  1  1  0  0  0
 21 22  1  0  0  0  0
 21 19  1  0  0  0  0
 23 27  1  0  0  0  0
 23 25  1  0  0  0  0
 24 22  1  0  0  0  0
 25 22  1  0  0  0  0
 25 26  1  1  0  0  0
 27 24  1  0  0  0  0
 28 29  1  0  0  0  0
 28 25  1  0  0  0  0
 29 34  1  0  0  0  0
 31 32  1  0  0  0  0
 32 30  2  0  0  0  0
 32 34  1  0  0  0  0
 33 31  1  0  0  0  0
 33 29  1  0  0  0  0
 35 13  1  0  0  0  0
 36 39  1  0  0  0  0
 37 36  2  0  0  0  0
 38 40  1  0  0  0  0
 40 35  1  0  0  0  0
 40 39  2  0  0  0  0
 41 38  2  0  0  0  0
 41 37  1  0  0  0  0
 43 37  1  0  0  0  0
 43 42  1  0  0  0  0
M  END
>  <MODEL>
3

>  <REMARK>
 VINA RESULT:      -8.8      2.256      3.325
  Name = 
  9 active torsions:
  status: ('A' for Active; 'I' for Inactive)
    1  A    between atoms: N_1  and  C_34
    2  A    between atoms: N_1  and  C_35
    3  A    between atoms: C_2  and  C_13
    4  A    between atoms: C_3  and  N_4
    5  A    between atoms: C_3  and  C_12
    6  A    between atoms: C_6  and  C_12
    7  A    between atoms: N_11  and  C_14
    8  A    between atoms: C_14  and  C_22
    9  A    between atoms: C_19  and  C_37
                            x       y       z     vdW  Elec       q    Type
                         _______ _______ _______ _____ _____    ______ ____

>  <TORSDO>
F 9

$$$$
=
 OpenBabel11052416053D

 43 49  0  0  1  0  0  0  0  0999 V2000
  191.2220  176.4000  146.9560 C   0  0  1  0  0  3  0  0  0  0  0  0
  187.0980  177.8030  144.2190 C   0  0  0  0  0  0  0  0  0  0  0  0
  188.0330  178.3000  141.6710 C   0  0  0  0  0  0  0  0  0  0  0  0
  188.9230  177.1460  146.2430 C   0  0  0  0  0  0  0  0  0  0  0  0
  191.6960  176.9490  145.6360 C   0  0  0  0  0  3  0  0  0  0  0  0
  192.0930  176.7840  147.9740 O   0  0  0  0  0  1  0  0  0  0  0  0
  189.3880  177.3910  144.9420 C   0  0  0  0  0  0  0  0  0  0  0  0
  189.8600  176.8320  147.2750 N   0  0  0  0  0  2  0  0  0  0  0  0
  190.8430  177.3640  144.6950 C   0  0  0  0  0  3  0  0  0  0  0  0
  188.9080  177.9750  142.6600 N   0  0  0  0  0  0  0  0  0  0  0  0
  188.4770  177.7240  143.9240 C   0  0  0  0  0  0  0  0  0  0  0  0
  186.6490  177.5640  145.5260 C   0  0  0  0  0  3  0  0  0  0  0  0
  186.2100  178.1340  143.1850 C   0  0  0  0  0  0  0  0  0  0  0  0
  186.7020  178.3680  141.9370 N   0  0  0  0  0  0  0  0  0  0  0  0
  187.5600  177.2410  146.5350 C   0  0  0  0  0  3  0  0  0  0  0  0
  188.5380  178.5380  140.2880 C   0  0  2  0  0  3  0  0  0  0  0  0
  188.0810  177.4550  139.3910 C   0  0  2  0  0  3  0  0  0  0  0  0
  189.3920  177.4890  139.8970 O   0  0  0  0  0  0  0  0  0  0  0  0
  188.0820  177.9410  137.9560 C   0  0  1  0  0  3  0  0  0  0  0  0
  189.2970  177.6110  137.3540 O   0  0  0  0  0  1  0  0  0  0  0  0
  186.9420  177.2810  137.2000 C   0  0  0  0  0  2  0  0  0  0  0  0
  187.1190  175.8280  137.1920 N   0  0  0  0  0  0  0  0  0  0  0  0
  185.7640  175.0410  135.3680 C   0  0  0  0  0  2  0  0  0  0  0  0
  188.0190  175.5450  136.0760 C   0  0  0  0  0  2  0  0  0  0  0  0
  185.8670  175.1130  136.8800 C   0  0  1  0  0  0  0  0  0  0  0  0
  185.9720  173.6960  137.4340 C   0  0  0  0  0  1  0  0  0  0  0  0
  187.1850  175.1410  134.8710 C   0  0  0  0  0  2  0  0  0  0  0  0
  184.6210  175.7810  137.4950 C   0  0  0  0  0  2  0  0  0  0  0  0
  183.5270  175.8670  136.5370 N   0  0  0  0  0  0  0  0  0  0  0  0
  180.1460  176.1100  137.4620 O   0  0  0  0  0  0  0  0  0  0  0  0
  181.7600  177.5500  136.4910 C   0  0  0  0  0  2  0  0  0  0  0  0
  181.2900  176.2940  137.0820 C   0  0  0  0  0  0  0  0  0  0  0  0
  183.2500  177.2960  136.3320 C   0  0  0  0  0  2  0  0  0  0  0  0
  182.3520  175.2790  137.1760 C   0  0  0  0  0  2  0  0  0  0  0  0
  184.8000  178.2250  143.4500 N   0  0  0  0  0  2  0  0  0  0  0  0
  182.8290  178.1060  140.2520 C   0  0  0  0  0  3  0  0  0  0  0  0
  181.6170  178.6590  140.6790 C   0  0  0  0  0  0  0  0  0  0  0  0
  182.5270  178.9200  142.9080 C   0  0  0  0  0  3  0  0  0  0  0  0
  183.8840  177.9530  141.1570 C   0  0  0  0  0  3  0  0  0  0  0  0
  183.7390  178.3580  142.4930 C   0  0  0  0  0  0  0  0  0  0  0  0
  181.4700  179.0730  142.0060 C   0  0  0  0  0  3  0  0  0  0  0  0
  180.1590  180.1950  139.6410 O   0  0  0  0  0  1  0  0  0  0  0  0
  180.5020  178.8450  139.7110 C   0  0  0  0  0  2  0  0  0  0  0  0
  1  8  1  0  0  0  0
  1  6  1  1  0  0  0
  2 12  1  0  0  0  0
  3 14  1  0  0  0  0
  3 10  2  0  0  0  0
  4 15  1  0  0  0  0
  4  8  1  0  0  0  0
  5  1  1  0  0  0  0
  7  4  2  0  0  0  0
  9  7  1  0  0  0  0
  9  5  2  0  0  0  0
 10 11  1  0  0  0  0
 11  2  2  0  0  0  0
 11  7  1  0  0  0  0
 12 15  2  0  0  0  0
 13 35  1  0  0  0  0
 13  2  1  0  0  0  0
 14 13  2  0  0  0  0
 16  3  1  1  0  0  0
 17 19  1  6  0  0  0
 17 18  1  0  0  0  0
 17 16  1  0  0  0  0
 18 16  1  0  0  0  0
 19 20  1  6  0  0  0
 21 19  1  0  0  0  0
 22 21  1  0  0  0  0
 23 25  1  0  0  0  0
 24 22  1  0  0  0  0
 25 22  1  0  0  0  0
 25 26  1  1  0  0  0
 25 28  1  0  0  0  0
 27 23  1  0  0  0  0
 27 24  1  0  0  0  0
 29 34  1  0  0  0  0
 29 28  1  0  0  0  0
 31 32  1  0  0  0  0
 32 34  1  0  0  0  0
 32 30  2  0  0  0  0
 33 31  1  0  0  0  0
 33 29  1  0  0  0  0
 36 37  2  0  0  0  0
 36 39  1  0  0  0  0
 37 41  1  0  0  0  0
 39 40  2  0  0  0  0
 40 38  1  0  0  0  0
 40 35  1  0  0  0  0
 41 38  2  0  0  0  0
 42 43  1  0  0  0  0
 43 37  1  0  0  0  0
M  END
>  <MODEL>
4

>  <REMARK>
 VINA RESULT:      -8.8      1.619      2.365
  Name = 
  9 active torsions:
  status: ('A' for Active; 'I' for Inactive)
    1  A    between atoms: N_1  and  C_34
    2  A    between atoms: N_1  and  C_35
    3  A    between atoms: C_2  and  C_13
    4  A    between atoms: C_3  and  N_4
    5  A    between atoms: C_3  and  C_12
    6  A    between atoms: C_6  and  C_12
    7  A    between atoms: N_11  and  C_14
    8  A    between atoms: C_14  and  C_22
    9  A    between atoms: C_19  and  C_37
                            x       y       z     vdW  Elec       q    Type
                         _______ _______ _______ _____ _____    ______ ____

>  <TORSDO>
F 9

$$$$
=
 OpenBabel11052416053D

 43 49  0  0  1  0  0  0  0  0999 V2000
  191.2630  177.0760  147.2560 C   0  0  1  0  0  3  0  0  0  0  0  0
  189.1370  177.9650  142.6570 C   0  0  0  0  0  0  0  0  0  0  0  0
  186.4110  177.9530  143.0860 C   0  0  0  0  0  0  0  0  0  0  0  0
  190.8600  177.3680  144.7860 C   0  0  0  0  0  0  0  0  0  0  0  0
  189.7830  176.8120  147.3610 C   0  0  0  0  0  3  0  0  0  0  0  0
  191.9700  176.1490  148.0200 O   0  0  0  0  0  1  0  0  0  0  0  0
  189.4710  177.3740  144.9970 C   0  0  0  0  0  0  0  0  0  0  0  0
  191.7320  177.0430  145.8710 N   0  0  0  0  0  2  0  0  0  0  0  0
  188.9570  176.9910  146.3270 C   0  0  0  0  0  3  0  0  0  0  0  0
  187.2570  177.6700  144.1110 N   0  0  0  0  0  0  0  0  0  0  0  0
  188.6030  177.6690  143.9310 C   0  0  0  0  0  0  0  0  0  0  0  0
  190.5250  177.9480  142.4600 C   0  0  0  0  0  3  0  0  0  0  0  0
  188.2490  178.2600  141.6120 C   0  0  0  0  0  0  0  0  0  0  0  0
  186.9090  178.2510  141.8560 N   0  0  0  0  0  0  0  0  0  0  0  0
  191.3830  177.6460  143.5210 C   0  0  0  0  0  3  0  0  0  0  0  0
  184.9390  177.9750  143.3270 C   0  0  2  0  0  3  0  0  0  0  0  0
  184.2980  178.9750  142.4440 C   0  0  2  0  0  3  0  0  0  0  0  0
  184.5460  179.2410  143.8020 O   0  0  0  0  0  0  0  0  0  0  0  0
  182.8340  178.6310  142.2570 C   0  0  1  0  0  3  0  0  0  0  0  0
  182.0720  179.3140  143.2050 O   0  0  0  0  0  1  0  0  0  0  0  0
  182.3970  179.0370  140.8600 C   0  0  0  0  0  2  0  0  0  0  0  0
  181.8020  177.8930  140.1670 N   0  0  0  0  0  0  0  0  0  0  0  0
  182.4570  178.1440  137.8670 C   0  0  0  0  0  2  0  0  0  0  0  0
  182.9010  176.9610  139.9260 C   0  0  0  0  0  2  0  0  0  0  0  0
  181.2910  178.2530  138.8300 C   0  0  1  0  0  0  0  0  0  0  0  0
  180.2280  177.2340  138.4320 C   0  0  0  0  0  1  0  0  0  0  0  0
  183.4090  177.1640  138.5090 C   0  0  0  0  0  2  0  0  0  0  0  0
  180.6550  179.6570  138.7850 C   0  0  0  0  0  2  0  0  0  0  0  0
  181.2360  180.4770  137.7300 N   0  0  0  0  0  0  0  0  0  0  0  0
  179.4210  182.8700  135.9070 O   0  0  0  0  0  0  0  0  0  0  0  0
  181.1300  182.9080  137.5500 C   0  0  0  0  0  2  0  0  0  0  0  0
  180.1570  182.2620  136.6640 C   0  0  0  0  0  0  0  0  0  0  0  0
  181.6650  181.7360  138.3550 C   0  0  0  0  0  2  0  0  0  0  0  0
  180.1590  180.7950  136.7950 C   0  0  0  0  0  2  0  0  0  0  0  0
  188.7560  178.5650  140.3020 N   0  0  0  0  0  2  0  0  0  0  0  0
  189.6130  176.1090  137.5890 C   0  0  0  0  0  3  0  0  0  0  0  0
  188.4600  176.1870  136.8010 C   0  0  0  0  0  0  0  0  0  0  0  0
  187.5350  177.8270  138.3250 C   0  0  0  0  0  3  0  0  0  0  0  0
  189.7210  176.8850  138.7470 C   0  0  0  0  0  3  0  0  0  0  0  0
  188.6810  177.7470  139.1250 C   0  0  0  0  0  0  0  0  0  0  0  0
  187.4240  177.0520  137.1660 C   0  0  0  0  0  3  0  0  0  0  0  0
  187.0330  175.3770  135.1070 O   0  0  0  0  0  1  0  0  0  0  0  0
  188.3540  175.3810  135.5540 C   0  0  0  0  0  2  0  0  0  0  0  0
  1  5  1  0  0  0  0
  1  6  1  1  0  0  0
  2 11  1  0  0  0  0
  3 10  2  0  0  0  0
  4  7  1  0  0  0  0
  4  8  1  0  0  0  0
  7  9  1  0  0  0  0
  8  1  1  0  0  0  0
  9  5  2  0  0  0  0
 11 10  1  0  0  0  0
 11  7  2  0  0  0  0
 12  2  2  0  0  0  0
 12 15  1  0  0  0  0
 13 14  2  0  0  0  0
 13  2  1  0  0  0  0
 14  3  1  0  0  0  0
 15  4  2  0  0  0  0
 16  3  1  6  0  0  0
 16 18  1  0  0  0  0
 17 19  1  1  0  0  0
 17 16  1  0  0  0  0
 17 18  1  0  0  0  0
 19 20  1  1  0  0  0
 21 19  1  0  0  0  0
 22 21  1  0  0  0  0
 23 27  1  0  0  0  0
 23 25  1  0  0  0  0
 24 22  1  0  0  0  0
 25 26  1  6  0  0  0
 25 22  1  0  0  0  0
 27 24  1  0  0  0  0
 28 25  1  0  0  0  0
 29 33  1  0  0  0  0
 29 28  1  0  0  0  0
 30 32  2  0  0  0  0
 31 33  1  0  0  0  0
 32 34  1  0  0  0  0
 32 31  1  0  0  0  0
 34 29  1  0  0  0  0
 35 13  1  0  0  0  0
 36 39  1  0  0  0  0
 37 41  1  0  0  0  0
 37 36  2  0  0  0  0
 38 40  1  0  0  0  0
 39 40  2  0  0  0  0
 40 35  1  0  0  0  0
 41 38  2  0  0  0  0
 42 43  1  0  0  0  0
 43 37  1  0  0  0  0
M  END
>  <MODEL>
5

>  <REMARK>
 VINA RESULT:      -8.7      2.826      6.442
  Name = 
  9 active torsions:
  status: ('A' for Active; 'I' for Inactive)
    1  A    between atoms: N_1  and  C_34
    2  A    between atoms: N_1  and  C_35
    3  A    between atoms: C_2  and  C_13
    4  A    between atoms: C_3  and  N_4
    5  A    between atoms: C_3  and  C_12
    6  A    between atoms: C_6  and  C_12
    7  A    between atoms: N_11  and  C_14
    8  A    between atoms: C_14  and  C_22
    9  A    between atoms: C_19  and  C_37
                            x       y       z     vdW  Elec       q    Type
                         _______ _______ _______ _____ _____    ______ ____

>  <TORSDO>
F 9

$$$$
=
 OpenBabel11052416053D

 43 49  0  0  1  0  0  0  0  0999 V2000
  181.0190  179.9460  140.0000 C   0  0  1  0  0  3  0  0  0  0  0  0
  185.1040  178.3720  142.7010 C   0  0  0  0  0  0  0  0  0  0  0  0
  187.2230  178.4160  140.9340 C   0  0  0  0  0  0  0  0  0  0  0  0
  182.5310  178.9800  141.7690 C   0  0  0  0  0  0  0  0  0  0  0  0
  182.1480  179.6830  139.0380 C   0  0  0  0  0  3  0  0  0  0  0  0
  179.8080  179.5470  139.4370 O   0  0  0  0  0  1  0  0  0  0  0  0
  183.6170  179.0090  140.8790 C   0  0  0  0  0  0  0  0  0  0  0  0
  181.2190  179.2710  141.2830 N   0  0  0  0  0  2  0  0  0  0  0  0
  183.3550  179.2920  139.4540 C   0  0  0  0  0  3  0  0  0  0  0  0
  185.9720  178.7140  140.4950 N   0  0  0  0  0  0  0  0  0  0  0  0
  184.9090  178.7020  141.3420 C   0  0  0  0  0  0  0  0  0  0  0  0
  184.0090  178.3390  143.5760 C   0  0  0  0  0  3  0  0  0  0  0  0
  186.4030  178.0730  143.1370 C   0  0  0  0  0  0  0  0  0  0  0  0
  187.4290  178.1080  142.2420 N   0  0  0  0  0  0  0  0  0  0  0  0
  182.7260  178.6380  143.1090 C   0  0  0  0  0  3  0  0  0  0  0  0
  188.3710  178.4700  139.9830 C   0  0  2  0  0  3  0  0  0  0  0  0
  188.3170  177.3140  139.0610 C   0  0  2  0  0  3  0  0  0  0  0  0
  189.1960  177.3430  140.1570 O   0  0  0  0  0  0  0  0  0  0  0  0
  189.0820  177.6340  137.7930 C   0  0  1  0  0  3  0  0  0  0  0  0
  190.3710  177.1060  137.8830 O   0  0  0  0  0  1  0  0  0  0  0  0
  188.3620  177.0220  136.6040 C   0  0  0  0  0  2  0  0  0  0  0  0
  188.2090  175.5790  136.7960 N   0  0  0  0  0  0  0  0  0  0  0  0
  186.8940  174.8320  134.9270 C   0  0  0  0  0  2  0  0  0  0  0  0
  189.1250  174.9540  135.8450 C   0  0  0  0  0  2  0  0  0  0  0  0
  186.8640  175.1030  136.4190 C   0  0  1  0  0  0  0  0  0  0  0  0
  186.5960  173.7920  137.1500 C   0  0  0  0  0  1  0  0  0  0  0  0
  188.3420  174.5600  134.6030 C   0  0  0  0  0  2  0  0  0  0  0  0
  185.7470  176.0990  136.7870 C   0  0  0  0  0  2  0  0  0  0  0  0
  184.4240  175.5230  136.5840 N   0  0  0  0  0  0  0  0  0  0  0  0
  181.6550  176.2460  138.6230 O   0  0  0  0  0  0  0  0  0  0  0  0
  182.3170  176.7410  136.4000 C   0  0  0  0  0  2  0  0  0  0  0  0
  182.4870  176.1600  137.7350 C   0  0  0  0  0  0  0  0  0  0  0  0
  183.6670  176.4720  135.7560 C   0  0  0  0  0  2  0  0  0  0  0  0
  183.7770  175.4680  137.8920 C   0  0  0  0  0  2  0  0  0  0  0  0
  186.6390  177.7320  144.5140 N   0  0  0  0  0  2  0  0  0  0  0  0
  190.2560  176.8870  145.0860 C   0  0  0  0  0  3  0  0  0  0  0  0
  190.3390  177.0480  146.4730 C   0  0  0  0  0  0  0  0  0  0  0  0
  187.9930  177.6450  146.5400 C   0  0  0  0  0  3  0  0  0  0  0  0
  189.0430  177.1130  144.4280 C   0  0  0  0  0  3  0  0  0  0  0  0
  187.9030  177.4970  145.1510 C   0  0  0  0  0  0  0  0  0  0  0  0
  189.2040  177.4190  147.2000 C   0  0  0  0  0  3  0  0  0  0  0  0
  192.1750  175.5880  146.7180 O   0  0  0  0  0  1  0  0  0  0  0  0
  191.6220  176.7820  147.1780 C   0  0  0  0  0  2  0  0  0  0  0  0
  1  6  1  6  0  0  0
  1  8  1  0  0  0  0
  2 13  1  0  0  0  0
  2 12  1  0  0  0  0
  3 14  1  0  0  0  0
  4 15  1  0  0  0  0
  5  9  2  0  0  0  0
  5  1  1  0  0  0  0
  7 11  1  0  0  0  0
  7  4  2  0  0  0  0
  8  4  1  0  0  0  0
  9  7  1  0  0  0  0
 10  3  2  0  0  0  0
 10 11  1  0  0  0  0
 11  2  2  0  0  0  0
 13 35  1  0  0  0  0
 14 13  2  0  0  0  0
 15 12  2  0  0  0  0
 16 18  1  0  0  0  0
 16  3  1  1  0  0  0
 17 19  1  6  0  0  0
 17 16  1  0  0  0  0
 17 18  1  0  0  0  0
 19 20  1  1  0  0  0
 21 22  1  0  0  0  0
 21 19  1  0  0  0  0
 23 25  1  0  0  0  0
 24 22  1  0  0  0  0
 25 28  1  0  0  0  0
 25 22  1  0  0  0  0
 25 26  1  1  0  0  0
 27 23  1  0  0  0  0
 27 24  1  0  0  0  0
 29 28  1  0  0  0  0
 29 34  1  0  0  0  0
 31 32  1  0  0  0  0
 32 34  1  0  0  0  0
 32 30  2  0  0  0  0
 33 31  1  0  0  0  0
 33 29  1  0  0  0  0
 35 40  1  0  0  0  0
 36 37  1  0  0  0  0
 37 43  1  0  0  0  0
 37 41  2  0  0  0  0
 38 41  1  0  0  0  0
 39 36  2  0  0  0  0
 39 40  1  0  0  0  0
 40 38  2  0  0  0  0
 42 43  1  0  0  0  0
M  END
>  <MODEL>
6

>  <REMARK>
 VINA RESULT:      -8.6      1.978      6.767
  Name = 
  9 active torsions:
  status: ('A' for Active; 'I' for Inactive)
    1  A    between atoms: N_1  and  C_34
    2  A    between atoms: N_1  and  C_35
    3  A    between atoms: C_2  and  C_13
    4  A    between atoms: C_3  and  N_4
    5  A    between atoms: C_3  and  C_12
    6  A    between atoms: C_6  and  C_12
    7  A    between atoms: N_11  and  C_14
    8  A    between atoms: C_14  and  C_22
    9  A    between atoms: C_19  and  C_37
                            x       y       z     vdW  Elec       q    Type
                         _______ _______ _______ _____ _____    ______ ____

>  <TORSDO>
F 9

$$$$
=
 OpenBabel11052416053D

 43 49  0  0  1  0  0  0  0  0999 V2000
  187.9540  177.2200  147.5170 C   0  0  1  0  0  3  0  0  0  0  0  0
  185.9170  178.5000  142.9700 C   0  0  0  0  0  0  0  0  0  0  0  0
  187.9760  178.2750  141.1460 C   0  0  0  0  0  0  0  0  0  0  0  0
  186.4480  178.0830  145.6910 C   0  0  0  0  0  0  0  0  0  0  0  0
  189.0770  177.3860  146.5270 C   0  0  0  0  0  3  0  0  0  0  0  0
  188.3410  177.7060  148.7650 O   0  0  0  0  0  1  0  0  0  0  0  0
  187.4870  177.9620  144.7540 C   0  0  0  0  0  0  0  0  0  0  0  0
  186.7290  177.8900  147.0790 N   0  0  0  0  0  2  0  0  0  0  0  0
  188.8510  177.6870  145.2450 C   0  0  0  0  0  3  0  0  0  0  0  0
  188.2190  178.0700  142.4670 N   0  0  0  0  0  0  0  0  0  0  0  0
  187.2260  178.1730  143.3890 C   0  0  0  0  0  0  0  0  0  0  0  0
  184.8910  178.6250  143.9180 C   0  0  0  0  0  3  0  0  0  0  0  0
  185.6840  178.7020  141.6020 C   0  0  0  0  0  0  0  0  0  0  0  0
  186.7190  178.5790  140.7260 N   0  0  0  0  0  0  0  0  0  0  0  0
  185.1580  178.4220  145.2740 C   0  0  0  0  0  3  0  0  0  0  0  0
  189.0840  178.1240  140.1590 C   0  0  2  0  0  3  0  0  0  0  0  0
  189.4030  176.6910  139.9750 C   0  0  2  0  0  3  0  0  0  0  0  0
  190.2010  177.5290  140.7740 O   0  0  0  0  0  0  0  0  0  0  0  0
  190.0760  176.4830  138.6340 C   0  0  1  0  0  3  0  0  0  0  0  0
  191.1470  175.6000  138.7830 O   0  0  0  0  0  1  0  0  0  0  0  0
  189.0720  175.9050  137.6520 C   0  0  0  0  0  2  0  0  0  0  0  0
  189.7580  175.4410  136.4450 N   0  0  0  0  0  0  0  0  0  0  0  0
  188.1010  175.5340  134.7050 C   0  0  0  0  0  2  0  0  0  0  0  0
  190.0260  176.6420  135.6560 C   0  0  0  0  0  2  0  0  0  0  0  0
  188.8930  174.5980  135.5970 C   0  0  1  0  0  0  0  0  0  0  0  0
  189.7840  173.7220  134.7230 C   0  0  0  0  0  1  0  0  0  0  0  0
  188.9350  176.7870  134.6080 C   0  0  0  0  0  2  0  0  0  0  0  0
  187.9630  173.6780  136.4130 C   0  0  0  0  0  2  0  0  0  0  0  0
  186.5710  173.8190  136.0030 N   0  0  0  0  0  0  0  0  0  0  0  0
  184.2330  171.2000  136.1260 O   0  0  0  0  0  0  0  0  0  0  0  0
  184.6000  173.2210  137.3100 C   0  0  0  0  0  2  0  0  0  0  0  0
  184.9070  172.1990  136.3050 C   0  0  0  0  0  0  0  0  0  0  0  0
  185.8010  174.1460  137.2110 C   0  0  0  0  0  2  0  0  0  0  0  0
  186.1270  172.5070  135.5410 C   0  0  0  0  0  2  0  0  0  0  0  0
  184.3640  179.0370  141.1390 N   0  0  0  0  0  2  0  0  0  0  0  0
  182.6220  176.4030  139.1020 C   0  0  0  0  0  3  0  0  0  0  0  0
  182.1270  177.1800  138.0500 C   0  0  0  0  0  0  0  0  0  0  0  0
  183.1190  179.1520  139.0460 C   0  0  0  0  0  3  0  0  0  0  0  0
  183.3560  177.0030  140.1290 C   0  0  0  0  0  3  0  0  0  0  0  0
  183.6080  178.3840  140.1090 C   0  0  0  0  0  0  0  0  0  0  0  0
  182.3830  178.5540  138.0180 C   0  0  0  0  0  3  0  0  0  0  0  0
  180.7650  177.5180  136.1540 O   0  0  0  0  0  1  0  0  0  0  0  0
  181.3670  176.5380  136.9430 C   0  0  0  0  0  2  0  0  0  0  0  0
  1  6  1  1  0  0  0
  2 11  2  0  0  0  0
  2 12  1  0  0  0  0
  3 10  2  0  0  0  0
  4  8  1  0  0  0  0
  5  1  1  0  0  0  0
  7  9  1  0  0  0  0
  7  4  2  0  0  0  0
  8  1  1  0  0  0  0
  9  5  2  0  0  0  0
 10 11  1  0  0  0  0
 11  7  1  0  0  0  0
 12 15  2  0  0  0  0
 13  2  1  0  0  0  0
 14  3  1  0  0  0  0
 14 13  2  0  0  0  0
 15  4  1  0  0  0  0
 16 18  1  0  0  0  0
 16  3  1  1  0  0  0
 17 19  1  6  0  0  0
 17 16  1  0  0  0  0
 17 18  1  0  0  0  0
 19 20  1  1  0  0  0
 21 19  1  0  0  0  0
 22 21  1  0  0  0  0
 23 25  1  0  0  0  0
 24 22  1  0  0  0  0
 25 26  1  6  0  0  0
 25 28  1  0  0  0  0
 25 22  1  0  0  0  0
 27 23  1  0  0  0  0
 27 24  1  0  0  0  0
 29 28  1  0  0  0  0
 29 33  1  0  0  0  0
 30 32  2  0  0  0  0
 32 31  1  0  0  0  0
 33 31  1  0  0  0  0
 34 29  1  0  0  0  0
 34 32  1  0  0  0  0
 35 13  1  0  0  0  0
 36 39  1  0  0  0  0
 37 36  2  0  0  0  0
 38 40  1  0  0  0  0
 40 39  2  0  0  0  0
 40 35  1  0  0  0  0
 41 37  1  0  0  0  0
 41 38  2  0  0  0  0
 42 43  1  0  0  0  0
 43 37  1  0  0  0  0
M  END
>  <MODEL>
7

>  <REMARK>
 VINA RESULT:      -8.6      2.084      2.771
  Name = 
  9 active torsions:
  status: ('A' for Active; 'I' for Inactive)
    1  A    between atoms: N_1  and  C_34
    2  A    between atoms: N_1  and  C_35
    3  A    between atoms: C_2  and  C_13
    4  A    between atoms: C_3  and  N_4
    5  A    between atoms: C_3  and  C_12
    6  A    between atoms: C_6  and  C_12
    7  A    between atoms: N_11  and  C_14
    8  A    between atoms: C_14  and  C_22
    9  A    between atoms: C_19  and  C_37
                            x       y       z     vdW  Elec       q    Type
                         _______ _______ _______ _____ _____    ______ ____

>  <TORSDO>
F 9

$$$$
=
 OpenBabel11052416053D

 43 49  0  0  1  0  0  0  0  0999 V2000
  188.2340  177.5040  147.0410 C   0  0  1  0  0  3  0  0  0  0  0  0
  188.4790  178.0310  141.9300 C   0  0  0  0  0  0  0  0  0  0  0  0
  185.9120  178.6450  141.1240 C   0  0  0  0  0  0  0  0  0  0  0  0
  188.9660  177.4580  144.6310 C   0  0  0  0  0  0  0  0  0  0  0  0
  186.8280  177.5660  146.5050 C   0  0  0  0  0  3  0  0  0  0  0  0
  188.3050  176.5920  148.0930 O   0  0  0  0  0  1  0  0  0  0  0  0
  187.6650  177.7800  144.2130 C   0  0  0  0  0  0  0  0  0  0  0  0
  189.2030  177.1460  146.0050 N   0  0  0  0  0  2  0  0  0  0  0  0
  186.5730  177.7370  145.2050 C   0  0  0  0  0  3  0  0  0  0  0  0
  186.1620  178.3700  142.4320 N   0  0  0  0  0  0  0  0  0  0  0  0
  187.4150  178.0650  142.8590 C   0  0  0  0  0  0  0  0  0  0  0  0
  189.7720  177.7000  142.3610 C   0  0  0  0  0  3  0  0  0  0  0  0
  188.2040  178.3230  140.5860 C   0  0  0  0  0  0  0  0  0  0  0  0
  186.9280  178.6280  140.2210 N   0  0  0  0  0  0  0  0  0  0  0  0
  190.0120  177.4100  143.7060 C   0  0  0  0  0  3  0  0  0  0  0  0
  184.5290  179.0060  140.6960 C   0  0  2  0  0  3  0  0  0  0  0  0
  184.2310  178.3900  139.3840 C   0  0  2  0  0  3  0  0  0  0  0  0
  184.5720  179.7490  139.5020 O   0  0  0  0  0  0  0  0  0  0  0  0
  182.7320  178.2600  139.2080 C   0  0  1  0  0  3  0  0  0  0  0  0
  182.3380  178.9480  138.0590 O   0  0  0  0  0  1  0  0  0  0  0  0
  182.3680  176.7910  139.0730 C   0  0  0  0  0  2  0  0  0  0  0  0
  181.5450  176.5850  137.8800 N   0  0  0  0  0  0  0  0  0  0  0  0
  181.4370  174.1990  137.5990 C   0  0  0  0  0  2  0  0  0  0  0  0
  180.2390  176.1500  138.3710 C   0  0  0  0  0  2  0  0  0  0  0  0
  182.0400  175.4750  137.0430 C   0  0  1  0  0  0  0  0  0  0  0  0
  181.5310  175.6810  135.6210 C   0  0  0  0  0  1  0  0  0  0  0  0
  180.1750  174.6330  138.3020 C   0  0  0  0  0  2  0  0  0  0  0  0
  183.5790  175.3940  136.9980 C   0  0  0  0  0  2  0  0  0  0  0  0
  184.0370  174.0850  136.5530 N   0  0  0  0  0  0  0  0  0  0  0  0
  187.0050  173.5750  134.7420 O   0  0  0  0  0  0  0  0  0  0  0  0
  186.2390  173.1040  136.9360 C   0  0  0  0  0  2  0  0  0  0  0  0
  186.1220  173.6470  135.5800 C   0  0  0  0  0  0  0  0  0  0  0  0
  184.9500  173.5780  137.5870 C   0  0  0  0  0  2  0  0  0  0  0  0
  184.8230  174.2970  135.3400 C   0  0  0  0  0  2  0  0  0  0  0  0
  189.2620  178.2970  139.6130 N   0  0  0  0  0  2  0  0  0  0  0  0
  188.9180  176.0390  136.6280 C   0  0  0  0  0  3  0  0  0  0  0  0
  190.0850  175.2780  136.7490 C   0  0  0  0  0  0  0  0  0  0  0  0
  190.6770  176.5100  138.7480 C   0  0  0  0  0  3  0  0  0  0  0  0
  188.6380  177.0400  137.5630 C   0  0  0  0  0  3  0  0  0  0  0  0
  189.5170  177.2850  138.6290 C   0  0  0  0  0  0  0  0  0  0  0  0
  190.9610  175.5090  137.8140 C   0  0  0  0  0  3  0  0  0  0  0  0
  189.8620  172.9860  136.2390 O   0  0  0  0  0  1  0  0  0  0  0  0
  190.3730  174.1950  135.7690 C   0  0  0  0  0  2  0  0  0  0  0  0
  1  6  1  1  0  0  0
  2 12  2  0  0  0  0
  2 11  1  0  0  0  0
  3 10  2  0  0  0  0
  4  8  1  0  0  0  0
  5  1  1  0  0  0  0
  7  4  1  0  0  0  0
  7  9  1  0  0  0  0
  8  1  1  0  0  0  0
  9  5  2  0  0  0  0
 10 11  1  0  0  0  0
 11  7  2  0  0  0  0
 12 15  1  0  0  0  0
 13  2  1  0  0  0  0
 14 13  2  0  0  0  0
 14  3  1  0  0  0  0
 15  4  2  0  0  0  0
 16  3  1  6  0  0  0
 17 19  1  1  0  0  0
 17 18  1  0  0  0  0
 17 16  1  0  0  0  0
 18 16  1  0  0  0  0
 19 20  1  6  0  0  0
 21 19  1  0  0  0  0
 22 24  1  0  0  0  0
 22 21  1  0  0  0  0
 23 27  1  0  0  0  0
 25 26  1  6  0  0  0
 25 23  1  0  0  0  0
 25 22  1  0  0  0  0
 27 24  1  0  0  0  0
 28 25  1  0  0  0  0
 29 28  1  0  0  0  0
 29 33  1  0  0  0  0
 30 32  2  0  0  0  0
 31 33  1  0  0  0  0
 32 31  1  0  0  0  0
 34 32  1  0  0  0  0
 34 29  1  0  0  0  0
 35 13  1  0  0  0  0
 36 37  2  0  0  0  0
 36 39  1  0  0  0  0
 37 41  1  0  0  0  0
 39 40  2  0  0  0  0
 40 38  1  0  0  0  0
 40 35  1  0  0  0  0
 41 38  2  0  0  0  0
 43 42  1  0  0  0  0
 43 37  1  0  0  0  0
M  END
>  <MODEL>
8

>  <REMARK>
 VINA RESULT:      -8.5      2.339      5.543
  Name = 
  9 active torsions:
  status: ('A' for Active; 'I' for Inactive)
    1  A    between atoms: N_1  and  C_34
    2  A    between atoms: N_1  and  C_35
    3  A    between atoms: C_2  and  C_13
    4  A    between atoms: C_3  and  N_4
    5  A    between atoms: C_3  and  C_12
    6  A    between atoms: C_6  and  C_12
    7  A    between atoms: N_11  and  C_14
    8  A    between atoms: C_14  and  C_22
    9  A    between atoms: C_19  and  C_37
                            x       y       z     vdW  Elec       q    Type
                         _______ _______ _______ _____ _____    ______ ____

>  <TORSDO>
F 9

$$$$
=
 OpenBabel11052416053D

 43 49  0  0  1  0  0  0  0  0999 V2000
  189.0960  176.8990  146.6310 C   0  0  1  0  0  3  0  0  0  0  0  0
  186.1200  178.4370  142.7260 C   0  0  0  0  0  0  0  0  0  0  0  0
  187.7370  178.3700  140.4910 C   0  0  0  0  0  0  0  0  0  0  0  0
  187.2280  177.8520  145.2340 C   0  0  0  0  0  0  0  0  0  0  0  0
  189.9780  177.1500  145.4350 C   0  0  0  0  0  3  0  0  0  0  0  0
  189.7420  177.3090  147.7960 O   0  0  0  0  0  1  0  0  0  0  0  0
  188.0400  177.8120  144.0900 C   0  0  0  0  0  0  0  0  0  0  0  0
  187.8030  177.5740  146.5130 N   0  0  0  0  0  2  0  0  0  0  0  0
  189.4800  177.5300  144.2560 C   0  0  0  0  0  3  0  0  0  0  0  0
  188.2610  178.0830  141.7120 N   0  0  0  0  0  0  0  0  0  0  0  0
  187.4900  178.1070  142.8310 C   0  0  0  0  0  0  0  0  0  0  0  0
  185.3230  178.4820  143.8790 C   0  0  0  0  0  3  0  0  0  0  0  0
  185.5960  178.7240  141.4580 C   0  0  0  0  0  0  0  0  0  0  0  0
  186.4180  178.6770  140.3730 N   0  0  0  0  0  0  0  0  0  0  0  0
  185.8770  178.1950  145.1290 C   0  0  0  0  0  3  0  0  0  0  0  0
  188.6060  178.3030  139.2800 C   0  0  2  0  0  3  0  0  0  0  0  0
  188.8980  176.8920  138.9460 C   0  0  2  0  0  3  0  0  0  0  0  0
  189.8390  177.7050  139.6020 O   0  0  0  0  0  0  0  0  0  0  0  0
  189.2660  176.7770  137.4810 C   0  0  1  0  0  3  0  0  0  0  0  0
  190.4350  177.5000  137.2380 O   0  0  0  0  0  1  0  0  0  0  0  0
  189.4890  175.3160  137.1320 C   0  0  0  0  0  2  0  0  0  0  0  0
  190.1330  175.2040  135.8220 N   0  0  0  0  0  0  0  0  0  0  0  0
  190.5840  172.8590  135.5430 C   0  0  0  0  0  2  0  0  0  0  0  0
  189.1110  174.6710  134.9230 C   0  0  0  0  0  2  0  0  0  0  0  0
  191.2210  174.2080  135.8160 C   0  0  1  0  0  0  0  0  0  0  0  0
  192.1720  174.5430  134.6720 C   0  0  0  0  0  1  0  0  0  0  0  0
  189.3060  173.1680  134.8040 C   0  0  0  0  0  2  0  0  0  0  0  0
  192.0310  174.1910  137.1270 C   0  0  0  0  0  2  0  0  0  0  0  0
  193.4640  174.2600  136.8770 N   0  0  0  0  0  0  0  0  0  0  0  0
  195.8380  175.0090  139.3560 O   0  0  0  0  0  0  0  0  0  0  0  0
  195.2160  173.0900  138.1100 C   0  0  0  0  0  2  0  0  0  0  0  0
  195.1100  174.4920  138.5270 C   0  0  0  0  0  0  0  0  0  0  0  0
  194.0160  172.9340  137.1910 C   0  0  0  0  0  2  0  0  0  0  0  0
  194.0210  175.2060  137.8400 C   0  0  0  0  0  2  0  0  0  0  0  0
  184.2070  179.0650  141.3140 N   0  0  0  0  0  2  0  0  0  0  0  0
  182.3140  176.2890  139.6300 C   0  0  0  0  0  3  0  0  0  0  0  0
  181.0040  176.6150  139.9960 C   0  0  0  0  0  0  0  0  0  0  0  0
  181.8270  178.5430  141.2100 C   0  0  0  0  0  3  0  0  0  0  0  0
  183.3780  177.0860  140.0620 C   0  0  0  0  0  3  0  0  0  0  0  0
  183.1430  178.2180  140.8570 C   0  0  0  0  0  0  0  0  0  0  0  0
  180.7610  177.7470  140.7800 C   0  0  0  0  0  3  0  0  0  0  0  0
  180.3530  174.7000  138.7820 O   0  0  0  0  0  1  0  0  0  0  0  0
  179.8680  175.7820  139.5160 C   0  0  0  0  0  2  0  0  0  0  0  0
  1  6  1  1  0  0  0
  2 11  2  0  0  0  0
  2 12  1  0  0  0  0
  3 10  2  0  0  0  0
  4  8  1  0  0  0  0
  5  1  1  0  0  0  0
  7  9  1  0  0  0  0
  7  4  2  0  0  0  0
  8  1  1  0  0  0  0
  9  5  2  0  0  0  0
 10 11  1  0  0  0  0
 11  7  1  0  0  0  0
 12 15  2  0  0  0  0
 13  2  1  0  0  0  0
 14  3  1  0  0  0  0
 14 13  2  0  0  0  0
 15  4  1  0  0  0  0
 16 18  1  0  0  0  0
 16  3  1  1  0  0  0
 17 19  1  6  0  0  0
 17 16  1  0  0  0  0
 17 18  1  0  0  0  0
 19 20  1  1  0  0  0
 21 19  1  0  0  0  0
 22 21  1  0  0  0  0
 23 25  1  0  0  0  0
 24 22  1  0  0  0  0
 25 26  1  6  0  0  0
 25 22  1  0  0  0  0
 25 28  1  0  0  0  0
 27 24  1  0  0  0  0
 27 23  1  0  0  0  0
 29 28  1  0  0  0  0
 29 33  1  0  0  0  0
 29 34  1  0  0  0  0
 31 32  1  0  0  0  0
 32 30  2  0  0  0  0
 33 31  1  0  0  0  0
 34 32  1  0  0  0  0
 35 13  1  0  0  0  0
 36 37  2  0  0  0  0
 36 39  1  0  0  0  0
 37 41  1  0  0  0  0
 39 40  2  0  0  0  0
 40 38  1  0  0  0  0
 40 35  1  0  0  0  0
 41 38  2  0  0  0  0
 42 43  1  0  0  0  0
 43 37  1  0  0  0  0
M  END
>  <MODEL>
9

>  <REMARK>
 VINA RESULT:      -8.5      3.404      5.011
  Name = 
  9 active torsions:
  status: ('A' for Active; 'I' for Inactive)
    1  A    between atoms: N_1  and  C_34
    2  A    between atoms: N_1  and  C_35
    3  A    between atoms: C_2  and  C_13
    4  A    between atoms: C_3  and  N_4
    5  A    between atoms: C_3  and  C_12
    6  A    between atoms: C_6  and  C_12
    7  A    between atoms: N_11  and  C_14
    8  A    between atoms: C_14  and  C_22
    9  A    between atoms: C_19  and  C_37
                            x       y       z     vdW  Elec       q    Type
                         _______ _______ _______ _____ _____    ______ ____

>  <TORSDO>
F 9

$$$$
