=
 OpenBabel11052414143D

 34 38  0  0  1  0  0  0  0  0999 V2000
  188.6500  177.6700  137.2110 C   0  0  0  0  0  0  0  0  0  0  0  0
  186.2440  177.7980  136.8930 C   0  0  0  0  0  3  0  0  0  0  0  0
  187.2870  178.5020  139.1250 C   0  0  2  0  0  3  0  0  0  0  0  0
  186.0220  178.5200  141.2870 N   0  0  0  0  0  0  0  0  0  0  0  0
  187.6800  177.1000  135.0680 C   0  0  0  0  0  3  0  0  0  0  0  0
  185.2120  177.2100  134.6960 C   0  0  0  0  0  1  0  0  0  0  0  0
  184.8850  178.7230  139.2430 O   0  0  0  0  0  0  0  0  0  0  0  0
  187.3620  177.9370  137.7250 C   0  0  0  0  0  0  0  0  0  0  0  0
  188.8050  177.2560  135.8850 C   0  0  0  0  0  3  0  0  0  0  0  0
  188.3480  177.8090  139.9820 C   0  0  2  0  0  3  0  0  0  0  0  0
  189.8290  177.8510  138.0900 C   0  0  0  0  0  3  0  0  0  0  0  0
  186.4020  177.3670  135.5720 C   0  0  0  0  0  0  0  0  0  0  0  0
  187.0020  177.8290  141.9420 O   0  0  0  0  0  0  0  0  0  0  0  0
  188.2420  178.2820  141.4380 C   0  0  1  0  0  3  0  0  0  0  0  0
  185.9700  178.5160  139.8500 C   0  0  0  0  0  0  0  0  0  0  0  0
  189.6740  177.9730  139.3790 N   0  0  0  0  0  0  0  0  0  0  0  0
  191.2860  178.0480  143.7510 C   0  0  0  0  0  0  0  0  0  0  0  0
  191.4610  176.5680  143.9480 C   0  0  0  0  0  2  0  0  0  0  0  0
  189.3610  177.7480  142.2800 C   0  0  0  0  0  0  0  0  0  0  0  0
  190.4570  175.7450  143.1840 C   0  0  0  0  0  3  0  0  0  0  0  0
  190.2030  178.5760  142.9100 C   0  0  0  0  0  3  0  0  0  0  0  0
  189.5000  176.2880  142.4260 C   0  0  0  0  0  3  0  0  0  0  0  0
  192.0760  178.8480  144.3170 O   0  0  0  0  0  0  0  0  0  0  0  0
  185.0420  179.2760  142.0560 C   0  0  0  0  0  2  0  0  0  0  0  0
  184.6350  178.5060  143.3060 C   0  0  0  0  0  2  0  0  0  0  0  0
  185.3820  179.0090  144.5310 C   0  0  0  0  0  2  0  0  0  0  0  0
  184.9420  178.2930  145.7160 N   0  0  0  0  0  2  0  0  0  0  0  0
  186.0650  179.9120  147.5990 O   0  0  0  0  0  1  0  0  0  0  0  0
  186.1390  177.8160  146.3920 C   0  0  2  0  0  3  0  0  0  0  0  0
  186.3590  178.5530  147.7270 C   0  0  1  0  0  3  0  0  0  0  0  0
  188.5170  177.2070  147.6550 C   0  0  0  0  0  2  0  0  0  0  0  0
  188.6160  177.3480  146.1300 C   0  0  0  0  0  2  0  0  0  0  0  0
  187.3580  177.9460  145.4820 C   0  0  0  0  0  2  0  0  0  0  0  0
  187.7910  178.4030  148.2660 C   0  0  0  0  0  2  0  0  0  0  0  0
  1  8  1  0  0  0  0
  1 11  1  0  0  0  0
  2  8  2  0  0  0  0
  3  8  1  6  0  0  0
  3 15  1  0  0  0  0
  3 10  1  0  0  0  0
  4 13  1  0  0  0  0
  4 24  1  0  0  0  0
  5 12  2  0  0  0  0
  5  9  1  0  0  0  0
  6 12  1  0  0  0  0
  7 15  2  0  0  0  0
  9  1  2  0  0  0  0
 10 16  1  6  0  0  0
 10 14  1  0  0  0  0
 11 16  2  0  0  0  0
 12  2  1  0  0  0  0
 14 13  1  0  0  0  0
 14 19  1  1  0  0  0
 15  4  1  0  0  0  0
 17 18  1  0  0  0  0
 17 23  2  0  0  0  0
 19 22  1  0  0  0  0
 19 21  2  0  0  0  0
 20 18  1  0  0  0  0
 21 17  1  0  0  0  0
 22 20  2  0  0  0  0
 24 25  1  0  0  0  0
 25 26  1  0  0  0  0
 26 27  1  0  0  0  0
 29 27  1  6  0  0  0
 29 30  1  0  0  0  0
 30 28  1  6  0  0  0
 30 34  1  0  0  0  0
 31 34  1  0  0  0  0
 32 31  1  0  0  0  0
 33 32  1  0  0  0  0
 33 29  1  0  0  0  0
M  END
>  <MODEL>
1

>  <REMARK>
 VINA RESULT:      -9.1      0.000      0.000
  Name = 
  6 active torsions:
  status: ('A' for Active; 'I' for Inactive)
    1  A    between atoms: N_3  and  C_13
    2  A    between atoms: N_3  and  C_17
    3  A    between atoms: N_5  and  C_18
    4  A    between atoms: C_12  and  C_28
    5  A    between atoms: C_17  and  C_29
    6  A    between atoms: C_18  and  C_29
                            x       y       z     vdW  Elec       q    Type
                         _______ _______ _______ _____ _____    ______ ____

>  <TORSDO>
F 6

$$$$
=
 OpenBabel11052414143D

 34 38  0  0  1  0  0  0  0  0999 V2000
  183.0430  178.9490  141.8520 C   0  0  0  0  0  0  0  0  0  0  0  0
  181.9280  178.6870  143.9950 C   0  0  0  0  0  3  0  0  0  0  0  0
  184.4790  178.9020  143.8880 C   0  0  2  0  0  3  0  0  0  0  0  0
  186.0060  178.0400  145.6780 N   0  0  0  0  0  0  0  0  0  0  0  0
  180.6270  178.8480  141.9560 C   0  0  0  0  0  3  0  0  0  0  0  0
  179.4370  178.5710  144.1350 C   0  0  0  0  0  1  0  0  0  0  0  0
  183.7820  178.6010  146.1810 O   0  0  0  0  0  0  0  0  0  0  0  0
  183.1110  178.7950  143.2540 C   0  0  0  0  0  0  0  0  0  0  0  0
  181.8020  178.9780  141.2080 C   0  0  0  0  0  3  0  0  0  0  0  0
  185.4910  178.2140  142.9710 C   0  0  2  0  0  3  0  0  0  0  0  0
  184.2990  179.0960  141.0800 C   0  0  0  0  0  3  0  0  0  0  0  0
  180.6900  178.6990  143.3460 C   0  0  0  0  0  0  0  0  0  0  0  0
  186.8060  177.3960  144.7760 O   0  0  0  0  0  0  0  0  0  0  0  0
  186.8800  178.2120  143.6250 C   0  0  1  0  0  3  0  0  0  0  0  0
  184.6760  178.4450  145.3070 C   0  0  0  0  0  0  0  0  0  0  0  0
  185.4450  178.8050  141.6310 N   0  0  0  0  0  0  0  0  0  0  0  0
  189.2230  177.7840  140.6260 C   0  0  0  0  0  0  0  0  0  0  0  0
  190.0650  176.5970  141.0070 C   0  0  0  0  0  2  0  0  0  0  0  0
  187.9320  177.6880  142.6950 C   0  0  0  0  0  0  0  0  0  0  0  0
  189.6890  176.0080  142.3420 C   0  0  0  0  0  3  0  0  0  0  0  0
  188.1770  178.2890  141.5250 C   0  0  0  0  0  3  0  0  0  0  0  0
  188.7170  176.5110  143.1080 C   0  0  0  0  0  3  0  0  0  0  0  0
  189.4200  178.3550  139.5220 O   0  0  0  0  0  0  0  0  0  0  0  0
  186.5180  178.3310  147.0100 C   0  0  0  0  0  2  0  0  0  0  0  0
  187.7500  177.4850  147.3050 C   0  0  0  0  0  2  0  0  0  0  0  0
  188.9950  178.3480  147.4310 C   0  0  0  0  0  2  0  0  0  0  0  0
  190.0560  177.6060  148.0900 N   0  0  0  0  0  2  0  0  0  0  0  0
  192.5490  176.6200  148.5800 O   0  0  0  0  0  1  0  0  0  0  0  0
  190.6450  176.7300  147.0890 C   0  0  2  0  0  3  0  0  0  0  0  0
  191.7730  175.8700  147.6920 C   0  0  1  0  0  3  0  0  0  0  0  0
  192.0370  175.2150  145.2490 C   0  0  0  0  0  2  0  0  0  0  0  0
  191.6750  176.6290  144.7750 C   0  0  0  0  0  2  0  0  0  0  0  0
  191.1470  177.5390  145.8950 C   0  0  0  0  0  2  0  0  0  0  0  0
  192.6940  175.2540  146.6270 C   0  0  0  0  0  2  0  0  0  0  0  0
  1  8  1  0  0  0  0
  3  8  1  6  0  0  0
  3 15  1  0  0  0  0
  4 24  1  0  0  0  0
  5 12  2  0  0  0  0
  8  2  2  0  0  0  0
  9  1  2  0  0  0  0
  9  5  1  0  0  0  0
 10 16  1  6  0  0  0
 10 14  1  0  0  0  0
 10  3  1  0  0  0  0
 11 16  2  0  0  0  0
 11  1  1  0  0  0  0
 12  2  1  0  0  0  0
 12  6  1  0  0  0  0
 13  4  1  0  0  0  0
 14 19  1  6  0  0  0
 14 13  1  0  0  0  0
 15  4  1  0  0  0  0
 15  7  2  0  0  0  0
 17 18  1  0  0  0  0
 17 21  1  0  0  0  0
 18 20  1  0  0  0  0
 19 22  1  0  0  0  0
 20 22  2  0  0  0  0
 21 19  2  0  0  0  0
 23 17  2  0  0  0  0
 24 25  1  0  0  0  0
 25 26  1  0  0  0  0
 26 27  1  0  0  0  0
 29 30  1  0  0  0  0
 29 27  1  1  0  0  0
 30 28  1  1  0  0  0
 31 34  1  0  0  0  0
 32 31  1  0  0  0  0
 32 33  1  0  0  0  0
 33 29  1  0  0  0  0
 34 30  1  0  0  0  0
M  END
>  <MODEL>
2

>  <REMARK>
 VINA RESULT:      -8.7      3.040      5.875
  Name = 
  6 active torsions:
  status: ('A' for Active; 'I' for Inactive)
    1  A    between atoms: N_3  and  C_13
    2  A    between atoms: N_3  and  C_17
    3  A    between atoms: N_5  and  C_18
    4  A    between atoms: C_12  and  C_28
    5  A    between atoms: C_17  and  C_29
    6  A    between atoms: C_18  and  C_29
                            x       y       z     vdW  Elec       q    Type
                         _______ _______ _______ _____ _____    ______ ____

>  <TORSDO>
F 6

$$$$
=
 OpenBabel11052414143D

 34 38  0  0  1  0  0  0  0  0999 V2000
  190.8240  177.3030  140.1210 C   0  0  0  0  0  0  0  0  0  0  0  0
  188.8630  177.4440  138.6930 C   0  0  0  0  0  3  0  0  0  0  0  0
  188.7450  178.2420  141.1250 C   0  0  2  0  0  3  0  0  0  0  0  0
  186.6060  178.3790  142.4230 N   0  0  0  0  0  0  0  0  0  0  0  0
  190.9680  176.6430  137.7970 C   0  0  0  0  0  3  0  0  0  0  0  0
  188.9780  176.7630  136.2930 C   0  0  0  0  0  1  0  0  0  0  0  0
  186.5830  178.4970  140.0780 O   0  0  0  0  0  0  0  0  0  0  0  0
  189.4560  177.6100  139.9500 C   0  0  0  0  0  0  0  0  0  0  0  0
  191.5760  176.8240  139.0440 C   0  0  0  0  0  3  0  0  0  0  0  0
  189.2490  177.5790  142.4080 C   0  0  2  0  0  3  0  0  0  0  0  0
  191.4510  177.5130  141.4470 C   0  0  0  0  0  3  0  0  0  0  0  0
  189.6140  176.9480  137.6230 C   0  0  0  0  0  0  0  0  0  0  0  0
  187.1350  177.7090  143.4900 O   0  0  0  0  0  0  0  0  0  0  0  0
  188.4800  178.1230  143.6200 C   0  0  1  0  0  3  0  0  0  0  0  0
  187.2430  178.3070  141.1350 C   0  0  0  0  0  0  0  0  0  0  0  0
  190.7070  177.6990  142.5020 N   0  0  0  0  0  0  0  0  0  0  0  0
  190.9050  176.8530  146.2990 C   0  0  0  0  0  0  0  0  0  0  0  0
  190.0330  176.7020  147.5150 C   0  0  0  0  0  2  0  0  0  0  0  0
  189.0470  177.6170  144.9120 C   0  0  0  0  0  0  0  0  0  0  0  0
  188.5900  177.0510  147.2570 C   0  0  0  0  0  3  0  0  0  0  0  0
  190.3500  177.3300  145.0250 C   0  0  0  0  0  3  0  0  0  0  0  0
  188.1470  177.4690  146.0690 C   0  0  0  0  0  3  0  0  0  0  0  0
  192.1290  176.5710  146.3750 O   0  0  0  0  0  0  0  0  0  0  0  0
  185.4050  179.1830  142.6060 C   0  0  0  0  0  2  0  0  0  0  0  0
  184.7270  178.8370  143.9250 C   0  0  0  0  0  2  0  0  0  0  0  0
  183.4600  179.6540  144.1240 C   0  0  0  0  0  2  0  0  0  0  0  0
  182.2990  178.7800  144.1480 N   0  0  0  0  0  2  0  0  0  0  0  0
  179.7890  177.7190  144.1040 O   0  0  0  0  0  1  0  0  0  0  0  0
  181.3700  179.2830  143.1480 C   0  0  2  0  0  3  0  0  0  0  0  0
  179.9100  178.9940  143.5460 C   0  0  1  0  0  3  0  0  0  0  0  0
  179.5080  179.9380  141.2180 C   0  0  0  0  0  2  0  0  0  0  0  0
  180.7950  179.3000  140.6790 C   0  0  0  0  0  2  0  0  0  0  0  0
  181.6930  178.7010  141.7740 C   0  0  0  0  0  2  0  0  0  0  0  0
  178.9310  179.1130  142.3670 C   0  0  0  0  0  2  0  0  0  0  0  0
  1 11  1  0  0  0  0
  2  8  2  0  0  0  0
  3  8  1  6  0  0  0
  3 15  1  0  0  0  0
  3 10  1  0  0  0  0
  4 24  1  0  0  0  0
  4 13  1  0  0  0  0
  5  9  1  0  0  0  0
  6 12  1  0  0  0  0
  7 15  2  0  0  0  0
  8  1  1  0  0  0  0
  9  1  2  0  0  0  0
 10 16  1  1  0  0  0
 10 14  1  0  0  0  0
 11 16  2  0  0  0  0
 12  5  2  0  0  0  0
 12  2  1  0  0  0  0
 13 14  1  0  0  0  0
 14 19  1  1  0  0  0
 15  4  1  0  0  0  0
 17 23  2  0  0  0  0
 17 18  1  0  0  0  0
 19 21  2  0  0  0  0
 19 22  1  0  0  0  0
 20 18  1  0  0  0  0
 21 17  1  0  0  0  0
 22 20  2  0  0  0  0
 24 25  1  0  0  0  0
 25 26  1  0  0  0  0
 26 27  1  0  0  0  0
 29 30  1  0  0  0  0
 29 27  1  1  0  0  0
 30 28  1  6  0  0  0
 31 34  1  0  0  0  0
 32 31  1  0  0  0  0
 32 33  1  0  0  0  0
 33 29  1  0  0  0  0
 34 30  1  0  0  0  0
M  END
>  <MODEL>
3

>  <REMARK>
 VINA RESULT:      -8.6      2.781      4.818
  Name = 
  6 active torsions:
  status: ('A' for Active; 'I' for Inactive)
    1  A    between atoms: N_3  and  C_13
    2  A    between atoms: N_3  and  C_17
    3  A    between atoms: N_5  and  C_18
    4  A    between atoms: C_12  and  C_28
    5  A    between atoms: C_17  and  C_29
    6  A    between atoms: C_18  and  C_29
                            x       y       z     vdW  Elec       q    Type
                         _______ _______ _______ _____ _____    ______ ____

>  <TORSDO>
F 6

$$$$
=
 OpenBabel11052414143D

 34 38  0  0  1  0  0  0  0  0999 V2000
  191.1640  177.2180  139.9590 C   0  0  0  0  0  0  0  0  0  0  0  0
  189.3070  177.3780  138.4000 C   0  0  0  0  0  3  0  0  0  0  0  0
  189.0500  178.2360  140.8010 C   0  0  2  0  0  3  0  0  0  0  0  0
  186.8350  178.4610  141.9500 N   0  0  0  0  0  0  0  0  0  0  0  0
  191.4430  176.4990  137.6650 C   0  0  0  0  0  3  0  0  0  0  0  0
  189.5610  176.6360  136.0290 C   0  0  0  0  0  1  0  0  0  0  0  0
  186.9700  178.5230  139.6070 O   0  0  0  0  0  0  0  0  0  0  0  0
  189.8190  177.5570  139.6910 C   0  0  0  0  0  0  0  0  0  0  0  0
  191.9710  176.6940  138.9460 C   0  0  0  0  0  3  0  0  0  0  0  0
  189.4490  177.5910  142.1290 C   0  0  2  0  0  3  0  0  0  0  0  0
  191.7070  177.4430  141.3200 C   0  0  0  0  0  3  0  0  0  0  0  0
  190.1130  176.8360  137.3940 C   0  0  0  0  0  0  0  0  0  0  0  0
  187.2720  177.8020  143.0640 O   0  0  0  0  0  0  0  0  0  0  0  0
  188.6170  178.1830  143.2750 C   0  0  1  0  0  3  0  0  0  0  0  0
  187.5530  178.3410  140.7090 C   0  0  0  0  0  0  0  0  0  0  0  0
  190.9000  177.6730  142.3180 N   0  0  0  0  0  0  0  0  0  0  0  0
  190.8300  176.9620  146.1530 C   0  0  0  0  0  0  0  0  0  0  0  0
  189.8630  176.8090  147.2950 C   0  0  0  0  0  2  0  0  0  0  0  0
  189.0830  177.6930  144.6130 C   0  0  0  0  0  0  0  0  0  0  0  0
  188.4420  177.1370  146.9170 C   0  0  0  0  0  3  0  0  0  0  0  0
  190.3750  177.4230  144.8340 C   0  0  0  0  0  3  0  0  0  0  0  0
  188.0920  177.5420  145.6930 C   0  0  0  0  0  3  0  0  0  0  0  0
  192.0470  176.6960  146.3300 O   0  0  0  0  0  0  0  0  0  0  0  0
  185.6470  179.3000  142.0340 C   0  0  0  0  0  2  0  0  0  0  0  0
  184.5560  178.6030  142.8370 C   0  0  0  0  0  2  0  0  0  0  0  0
  183.2680  178.4930  142.0360 C   0  0  0  0  0  2  0  0  0  0  0  0
  183.5570  178.0520  140.6820 N   0  0  0  0  0  2  0  0  0  0  0  0
  184.0110  180.2560  139.1440 O   0  0  0  0  0  1  0  0  0  0  0  0
  182.4680  178.5270  139.8410 C   0  0  2  0  0  3  0  0  0  0  0  0
  182.9920  179.4130  138.6950 C   0  0  1  0  0  3  0  0  0  0  0  0
  180.4940  179.7190  138.3240 C   0  0  0  0  0  2  0  0  0  0  0  0
  180.2120  179.6820  139.8320 C   0  0  0  0  0  2  0  0  0  0  0  0
  181.4260  179.2650  140.6770 C   0  0  0  0  0  2  0  0  0  0  0  0
  181.8920  180.2680  138.0450 C   0  0  0  0  0  2  0  0  0  0  0  0
  1 11  1  0  0  0  0
  2  8  2  0  0  0  0
  3  8  1  6  0  0  0
  3 10  1  0  0  0  0
  4 24  1  0  0  0  0
  4 13  1  0  0  0  0
  5  9  1  0  0  0  0
  6 12  1  0  0  0  0
  7 15  2  0  0  0  0
  8  1  1  0  0  0  0
  9  1  2  0  0  0  0
 10 16  1  1  0  0  0
 10 14  1  0  0  0  0
 11 16  2  0  0  0  0
 12  5  2  0  0  0  0
 12  2  1  0  0  0  0
 13 14  1  0  0  0  0
 14 19  1  1  0  0  0
 15  3  1  0  0  0  0
 15  4  1  0  0  0  0
 17 23  2  0  0  0  0
 17 18  1  0  0  0  0
 19 21  2  0  0  0  0
 19 22  1  0  0  0  0
 20 18  1  0  0  0  0
 21 17  1  0  0  0  0
 22 20  2  0  0  0  0
 24 25  1  0  0  0  0
 26 25  1  0  0  0  0
 27 26  1  0  0  0  0
 29 33  1  0  0  0  0
 29 27  1  1  0  0  0
 30 28  1  1  0  0  0
 30 29  1  0  0  0  0
 31 32  1  0  0  0  0
 32 33  1  0  0  0  0
 34 31  1  0  0  0  0
 34 30  1  0  0  0  0
M  END
>  <MODEL>
4

>  <REMARK>
 VINA RESULT:      -8.6      2.477      5.372
  Name = 
  6 active torsions:
  status: ('A' for Active; 'I' for Inactive)
    1  A    between atoms: N_3  and  C_13
    2  A    between atoms: N_3  and  C_17
    3  A    between atoms: N_5  and  C_18
    4  A    between atoms: C_12  and  C_28
    5  A    between atoms: C_17  and  C_29
    6  A    between atoms: C_18  and  C_29
                            x       y       z     vdW  Elec       q    Type
                         _______ _______ _______ _____ _____    ______ ____

>  <TORSDO>
F 6

$$$$
=
 OpenBabel11052414143D

 34 38  0  0  1  0  0  0  0  0999 V2000
  190.0050  176.7960  145.1160 C   0  0  0  0  0  0  0  0  0  0  0  0
  188.2020  177.7130  146.4630 C   0  0  0  0  0  3  0  0  0  0  0  0
  187.8050  177.1410  143.9970 C   0  0  2  0  0  3  0  0  0  0  0  0
  186.0020  178.1990  142.6150 N   0  0  0  0  0  0  0  0  0  0  0  0
  190.3560  177.2390  147.4690 C   0  0  0  0  0  3  0  0  0  0  0  0
  188.5360  178.1890  148.8910 C   0  0  0  0  0  1  0  0  0  0  0  0
  185.7930  178.0770  144.9500 O   0  0  0  0  0  0  0  0  0  0  0  0
  188.6800  177.2730  145.2220 C   0  0  0  0  0  0  0  0  0  0  0  0
  190.8370  176.7780  146.2390 C   0  0  0  0  0  3  0  0  0  0  0  0
  188.6550  177.4470  142.7620 C   0  0  2  0  0  3  0  0  0  0  0  0
  190.4910  176.3010  143.8060 C   0  0  0  0  0  3  0  0  0  0  0  0
  189.0430  177.7090  147.5800 C   0  0  0  0  0  0  0  0  0  0  0  0
  186.8650  178.4940  141.5970 O   0  0  0  0  0  0  0  0  0  0  0  0
  187.7810  177.4220  141.5010 C   0  0  1  0  0  3  0  0  0  0  0  0
  186.5070  177.8970  143.9280 C   0  0  0  0  0  0  0  0  0  0  0  0
  189.8220  176.5620  142.7170 N   0  0  0  0  0  0  0  0  0  0  0  0
  189.1890  178.7010  138.1760 C   0  0  0  0  0  0  0  0  0  0  0  0
  190.3220  177.7540  137.8900 C   0  0  0  0  0  2  0  0  0  0  0  0
  188.6000  177.5620  140.2530 C   0  0  0  0  0  0  0  0  0  0  0  0
  190.4730  176.6780  138.9330 C   0  0  0  0  0  3  0  0  0  0  0  0
  188.3710  178.5560  139.3880 C   0  0  0  0  0  3  0  0  0  0  0  0
  189.6860  176.5960  140.0100 C   0  0  0  0  0  3  0  0  0  0  0  0
  188.9400  179.6330  137.3680 O   0  0  0  0  0  0  0  0  0  0  0  0
  184.5690  178.1720  142.3540 C   0  0  0  0  0  2  0  0  0  0  0  0
  184.2800  178.5890  140.9170 C   0  0  0  0  0  2  0  0  0  0  0  0
  183.4020  177.5660  140.2140 C   0  0  0  0  0  2  0  0  0  0  0  0
  181.9990  177.8820  140.4230 N   0  0  0  0  0  2  0  0  0  0  0  0
  179.5510  179.0210  140.7950 O   0  0  0  0  0  1  0  0  0  0  0  0
  181.7700  179.1970  139.8430 C   0  0  2  0  0  3  0  0  0  0  0  0
  180.5930  179.9140  140.5320 C   0  0  1  0  0  3  0  0  0  0  0  0
  181.0440  181.5880  138.6700 C   0  0  0  0  0  2  0  0  0  0  0  0
  181.4090  180.4720  137.6830 C   0  0  0  0  0  2  0  0  0  0  0  0
  181.5440  179.0880  138.3370 C   0  0  0  0  0  2  0  0  0  0  0  0
  180.0420  181.0900  139.7100 C   0  0  0  0  0  2  0  0  0  0  0  0
  1  8  2  0  0  0  0
  1  9  1  0  0  0  0
  2 12  2  0  0  0  0
  3 15  1  1  0  0  0
  3  8  1  0  0  0  0
  4 15  1  0  0  0  0
  5 12  1  0  0  0  0
  8  2  1  0  0  0  0
  9  5  2  0  0  0  0
 10 16  1  6  0  0  0
 10  3  1  0  0  0  0
 11  1  1  0  0  0  0
 12  6  1  0  0  0  0
 13  4  1  0  0  0  0
 14 19  1  6  0  0  0
 14 13  1  0  0  0  0
 14 10  1  0  0  0  0
 15  7  2  0  0  0  0
 16 11  2  0  0  0  0
 17 21  1  0  0  0  0
 18 17  1  0  0  0  0
 18 20  1  0  0  0  0
 20 22  2  0  0  0  0
 21 19  2  0  0  0  0
 22 19  1  0  0  0  0
 23 17  2  0  0  0  0
 24  4  1  0  0  0  0
 25 24  1  0  0  0  0
 26 27  1  0  0  0  0
 26 25  1  0  0  0  0
 29 27  1  1  0  0  0
 29 30  1  0  0  0  0
 30 28  1  6  0  0  0
 31 34  1  0  0  0  0
 32 33  1  0  0  0  0
 32 31  1  0  0  0  0
 33 29  1  0  0  0  0
 34 30  1  0  0  0  0
M  END
>  <MODEL>
5

>  <REMARK>
 VINA RESULT:      -8.3      2.940      7.664
  Name = 
  6 active torsions:
  status: ('A' for Active; 'I' for Inactive)
    1  A    between atoms: N_3  and  C_13
    2  A    between atoms: N_3  and  C_17
    3  A    between atoms: N_5  and  C_18
    4  A    between atoms: C_12  and  C_28
    5  A    between atoms: C_17  and  C_29
    6  A    between atoms: C_18  and  C_29
                            x       y       z     vdW  Elec       q    Type
                         _______ _______ _______ _____ _____    ______ ____

>  <TORSDO>
F 6

$$$$
=
 OpenBabel11052414143D

 34 38  0  0  1  0  0  0  0  0999 V2000
  181.8450  179.2650  141.0710 C   0  0  0  0  0  0  0  0  0  0  0  0
  182.6090  179.9850  138.8800 C   0  0  0  0  0  3  0  0  0  0  0  0
  184.1510  178.6050  140.3910 C   0  0  2  0  0  3  0  0  0  0  0  0
  186.6480  178.6270  140.1930 N   0  0  0  0  0  0  0  0  0  0  0  0
  180.3510  180.4810  139.6070 C   0  0  0  0  0  3  0  0  0  0  0  0
  181.0940  181.2490  137.3500 C   0  0  0  0  0  1  0  0  0  0  0  0
  185.3040  179.1630  138.3440 O   0  0  0  0  0  0  0  0  0  0  0  0
  182.8670  179.3480  140.1000 C   0  0  0  0  0  0  0  0  0  0  0  0
  180.5910  179.8280  140.8210 C   0  0  0  0  0  3  0  0  0  0  0  0
  184.4670  178.7540  141.8800 C   0  0  2  0  0  3  0  0  0  0  0  0
  182.1170  178.5590  142.3460 C   0  0  0  0  0  3  0  0  0  0  0  0
  181.3580  180.5630  138.6410 C   0  0  0  0  0  0  0  0  0  0  0  0
  186.8180  178.8360  141.5330 O   0  0  0  0  0  0  0  0  0  0  0  0
  185.8160  178.0980  142.2020 C   0  0  1  0  0  3  0  0  0  0  0  0
  185.3780  178.8960  139.5730 C   0  0  0  0  0  0  0  0  0  0  0  0
  183.3430  178.2730  142.6890 N   0  0  0  0  0  0  0  0  0  0  0  0
  185.4620  178.5280  145.9910 C   0  0  0  0  0  0  0  0  0  0  0  0
  186.7320  177.9280  146.5300 C   0  0  0  0  0  2  0  0  0  0  0  0
  186.0920  178.0830  143.6750 C   0  0  0  0  0  0  0  0  0  0  0  0
  187.6570  177.4300  145.4510 C   0  0  0  0  0  3  0  0  0  0  0  0
  185.1960  178.5620  144.5470 C   0  0  0  0  0  3  0  0  0  0  0  0
  187.3590  177.5010  144.1510 C   0  0  0  0  0  3  0  0  0  0  0  0
  184.6120  179.0030  146.7890 O   0  0  0  0  0  0  0  0  0  0  0  0
  187.7580  178.1110  139.4020 C   0  0  0  0  0  2  0  0  0  0  0  0
  188.6720  177.2490  140.2630 C   0  0  0  0  0  2  0  0  0  0  0  0
  190.0180  177.9200  140.4820 C   0  0  0  0  0  2  0  0  0  0  0  0
  191.0000  176.9430  140.9190 N   0  0  0  0  0  2  0  0  0  0  0  0
  190.1180  175.2540  142.8680 O   0  0  0  0  0  1  0  0  0  0  0  0
  191.3360  177.2670  142.2970 C   0  0  2  0  0  3  0  0  0  0  0  0
  191.2330  176.0250  143.2050 C   0  0  1  0  0  3  0  0  0  0  0  0
  191.6800  177.7850  144.9870 C   0  0  0  0  0  2  0  0  0  0  0  0
  190.8600  178.8370  144.2290 C   0  0  0  0  0  2  0  0  0  0  0  0
  190.4530  178.4010  142.8130 C   0  0  0  0  0  2  0  0  0  0  0  0
  191.1600  176.3780  144.6990 C   0  0  0  0  0  2  0  0  0  0  0  0
  1 11  1  0  0  0  0
  2  8  1  0  0  0  0
  3 15  1  6  0  0  0
  3 10  1  0  0  0  0
  4 13  1  0  0  0  0
  5  9  2  0  0  0  0
  6 12  1  0  0  0  0
  7 15  2  0  0  0  0
  8  3  1  0  0  0  0
  8  1  2  0  0  0  0
  9  1  1  0  0  0  0
 10 14  1  0  0  0  0
 10 16  1  1  0  0  0
 11 16  2  0  0  0  0
 12  2  2  0  0  0  0
 12  5  1  0  0  0  0
 13 14  1  0  0  0  0
 14 19  1  1  0  0  0
 15  4  1  0  0  0  0
 17 18  1  0  0  0  0
 17 23  2  0  0  0  0
 19 22  1  0  0  0  0
 19 21  2  0  0  0  0
 20 18  1  0  0  0  0
 21 17  1  0  0  0  0
 22 20  2  0  0  0  0
 24  4  1  0  0  0  0
 24 25  1  0  0  0  0
 25 26  1  0  0  0  0
 26 27  1  0  0  0  0
 29 27  1  6  0  0  0
 29 33  1  0  0  0  0
 29 30  1  0  0  0  0
 30 28  1  6  0  0  0
 30 34  1  0  0  0  0
 32 31  1  0  0  0  0
 33 32  1  0  0  0  0
 34 31  1  0  0  0  0
M  END
>  <MODEL>
6

>  <REMARK>
 VINA RESULT:      -8.3      2.544      5.749
  Name = 
  6 active torsions:
  status: ('A' for Active; 'I' for Inactive)
    1  A    between atoms: N_3  and  C_13
    2  A    between atoms: N_3  and  C_17
    3  A    between atoms: N_5  and  C_18
    4  A    between atoms: C_12  and  C_28
    5  A    between atoms: C_17  and  C_29
    6  A    between atoms: C_18  and  C_29
                            x       y       z     vdW  Elec       q    Type
                         _______ _______ _______ _____ _____    ______ ____

>  <TORSDO>
F 6

$$$$
=
 OpenBabel11052414143D

 34 38  0  0  1  0  0  0  0  0999 V2000
  190.3380  176.7560  144.9840 C   0  0  0  0  0  0  0  0  0  0  0  0
  188.6480  177.7160  146.4420 C   0  0  0  0  0  3  0  0  0  0  0  0
  188.0790  177.1490  144.0090 C   0  0  2  0  0  3  0  0  0  0  0  0
  186.2140  178.2440  142.7430 N   0  0  0  0  0  0  0  0  0  0  0  0
  190.8510  177.1960  147.3080 C   0  0  0  0  0  3  0  0  0  0  0  0
  189.1480  178.1890  148.8420 C   0  0  0  0  0  1  0  0  0  0  0  0
  186.1540  178.1310  145.0870 O   0  0  0  0  0  0  0  0  0  0  0  0
  189.0340  177.2630  145.1740 C   0  0  0  0  0  0  0  0  0  0  0  0
  191.2410  176.7210  146.0510 C   0  0  0  0  0  3  0  0  0  0  0  0
  188.8530  177.4330  142.7210 C   0  0  2  0  0  3  0  0  0  0  0  0
  190.7270  176.2480  143.6470 C   0  0  0  0  0  3  0  0  0  0  0  0
  189.5590  177.6960  147.5020 C   0  0  0  0  0  0  0  0  0  0  0  0
  187.0150  178.5180  141.6710 O   0  0  0  0  0  0  0  0  0  0  0  0
  187.8990  177.4250  141.5190 C   0  0  1  0  0  3  0  0  0  0  0  0
  186.7960  177.9330  144.0220 C   0  0  0  0  0  0  0  0  0  0  0  0
  189.9950  176.5210  142.6030 N   0  0  0  0  0  0  0  0  0  0  0  0
  189.2270  178.7400  138.1760 C   0  0  0  0  0  0  0  0  0  0  0  0
  190.1970  177.6750  137.7430 C   0  0  0  0  0  2  0  0  0  0  0  0
  188.6380  177.5440  140.2200 C   0  0  0  0  0  0  0  0  0  0  0  0
  190.2740  176.5180  138.7030 C   0  0  0  0  0  3  0  0  0  0  0  0
  188.4860  178.6190  139.4380 C   0  0  0  0  0  3  0  0  0  0  0  0
  189.5630  176.4640  139.8330 C   0  0  0  0  0  3  0  0  0  0  0  0
  189.0510  179.7520  137.4480 O   0  0  0  0  0  0  0  0  0  0  0  0
  184.7670  178.2490  142.5760 C   0  0  0  0  0  2  0  0  0  0  0  0
  184.3880  178.8280  141.2180 C   0  0  0  0  0  2  0  0  0  0  0  0
  183.4780  177.8830  140.4510 C   0  0  0  0  0  2  0  0  0  0  0  0
  183.2410  178.3930  139.1110 N   0  0  0  0  0  2  0  0  0  0  0  0
  185.6300  179.0280  137.9630 O   0  0  0  0  0  1  0  0  0  0  0  0
  183.8220  177.4330  138.1840 C   0  0  2  0  0  3  0  0  0  0  0  0
  185.3370  177.6630  138.0180 C   0  0  1  0  0  3  0  0  0  0  0  0
  185.0120  175.8620  136.2510 C   0  0  0  0  0  2  0  0  0  0  0  0
  183.6270  176.4070  135.8750 C   0  0  0  0  0  2  0  0  0  0  0  0
  183.1060  177.4850  136.8370 C   0  0  0  0  0  2  0  0  0  0  0  0
  185.9150  176.9810  136.7680 C   0  0  0  0  0  2  0  0  0  0  0  0
  1  8  2  0  0  0  0
  1  9  1  0  0  0  0
  2 12  2  0  0  0  0
  3 15  1  1  0  0  0
  3  8  1  0  0  0  0
  4 15  1  0  0  0  0
  5 12  1  0  0  0  0
  8  2  1  0  0  0  0
  9  5  2  0  0  0  0
 10 16  1  6  0  0  0
 10  3  1  0  0  0  0
 11  1  1  0  0  0  0
 12  6  1  0  0  0  0
 13  4  1  0  0  0  0
 14 19  1  6  0  0  0
 14 13  1  0  0  0  0
 14 10  1  0  0  0  0
 15  7  2  0  0  0  0
 16 11  2  0  0  0  0
 17 21  1  0  0  0  0
 18 17  1  0  0  0  0
 18 20  1  0  0  0  0
 20 22  2  0  0  0  0
 21 19  2  0  0  0  0
 22 19  1  0  0  0  0
 23 17  2  0  0  0  0
 24  4  1  0  0  0  0
 25 24  1  0  0  0  0
 26 25  1  0  0  0  0
 27 26  1  0  0  0  0
 29 27  1  1  0  0  0
 30 28  1  6  0  0  0
 30 29  1  0  0  0  0
 31 34  1  0  0  0  0
 32 31  1  0  0  0  0
 32 33  1  0  0  0  0
 33 29  1  0  0  0  0
 34 30  1  0  0  0  0
M  END
>  <MODEL>
7

>  <REMARK>
 VINA RESULT:      -8.3      2.016      7.711
  Name = 
  6 active torsions:
  status: ('A' for Active; 'I' for Inactive)
    1  A    between atoms: N_3  and  C_13
    2  A    between atoms: N_3  and  C_17
    3  A    between atoms: N_5  and  C_18
    4  A    between atoms: C_12  and  C_28
    5  A    between atoms: C_17  and  C_29
    6  A    between atoms: C_18  and  C_29
                            x       y       z     vdW  Elec       q    Type
                         _______ _______ _______ _____ _____    ______ ____

>  <TORSDO>
F 6

$$$$
=
 OpenBabel11052414143D

 34 38  0  0  1  0  0  0  0  0999 V2000
  188.7240  176.9970  144.9200 C   0  0  0  0  0  0  0  0  0  0  0  0
  187.6870  178.0460  146.8520 C   0  0  0  0  0  3  0  0  0  0  0  0
  186.3620  177.7550  144.6780 C   0  0  2  0  0  3  0  0  0  0  0  0
  184.3930  179.1790  144.0680 N   0  0  0  0  0  0  0  0  0  0  0  0
  189.9460  177.1780  147.0010 C   0  0  0  0  0  3  0  0  0  0  0  0
  188.9240  178.2550  149.0110 C   0  0  0  0  0  1  0  0  0  0  0  0
  184.9970  178.8860  146.3180 O   0  0  0  0  0  0  0  0  0  0  0  0
  187.6200  177.6510  145.5100 C   0  0  0  0  0  0  0  0  0  0  0  0
  189.8810  176.7610  145.6680 C   0  0  0  0  0  3  0  0  0  0  0  0
  186.7640  178.0400  143.2300 C   0  0  2  0  0  3  0  0  0  0  0  0
  188.6310  176.5530  143.5090 C   0  0  0  0  0  3  0  0  0  0  0  0
  188.8530  177.8230  147.5910 C   0  0  0  0  0  0  0  0  0  0  0  0
  184.8810  179.4330  142.8180 O   0  0  0  0  0  0  0  0  0  0  0  0
  185.5130  178.2520  142.3670 C   0  0  1  0  0  3  0  0  0  0  0  0
  185.2680  178.6940  145.1020 C   0  0  0  0  0  0  0  0  0  0  0  0
  187.6760  177.0020  142.7420 N   0  0  0  0  0  0  0  0  0  0  0  0
  187.4530  178.4270  139.0690 C   0  0  0  0  0  0  0  0  0  0  0  0
  186.3700  178.5730  138.0350 C   0  0  0  0  0  2  0  0  0  0  0  0
  185.8540  178.3790  140.9130 C   0  0  0  0  0  0  0  0  0  0  0  0
  184.9870  178.6300  138.6280 C   0  0  0  0  0  3  0  0  0  0  0  0
  187.1250  178.3220  140.4970 C   0  0  0  0  0  3  0  0  0  0  0  0
  184.7570  178.5390  139.9410 C   0  0  0  0  0  3  0  0  0  0  0  0
  188.6570  178.3900  138.7060 O   0  0  0  0  0  0  0  0  0  0  0  0
  182.9760  179.3840  144.3400 C   0  0  0  0  0  2  0  0  0  0  0  0
  182.1260  178.7740  143.2320 C   0  0  0  0  0  2  0  0  0  0  0  0
  180.7070  179.3170  143.2650 C   0  0  0  0  0  2  0  0  0  0  0  0
  180.4300  180.0690  142.0530 N   0  0  0  0  0  2  0  0  0  0  0  0
  180.1870  181.1040  139.5430 O   0  0  0  0  0  1  0  0  0  0  0  0
  180.8230  179.2270  140.9320 C   0  0  2  0  0  3  0  0  0  0  0  0
  181.1160  180.0680  139.6750 C   0  0  1  0  0  3  0  0  0  0  0  0
  181.3170  177.7470  138.6550 C   0  0  0  0  0  2  0  0  0  0  0  0
  180.1940  177.2000  139.5470 C   0  0  0  0  0  2  0  0  0  0  0  0
  179.7550  178.1710  140.6530 C   0  0  0  0  0  2  0  0  0  0  0  0
  181.1200  179.2370  138.3830 C   0  0  0  0  0  2  0  0  0  0  0  0
  1  8  2  0  0  0  0
  1  9  1  0  0  0  0
  2 12  2  0  0  0  0
  3 15  1  1  0  0  0
  3  8  1  0  0  0  0
  4 24  1  0  0  0  0
  4 15  1  0  0  0  0
  5 12  1  0  0  0  0
  8  2  1  0  0  0  0
  9  5  2  0  0  0  0
 10 16  1  6  0  0  0
 10  3  1  0  0  0  0
 11  1  1  0  0  0  0
 12  6  1  0  0  0  0
 13  4  1  0  0  0  0
 14 19  1  6  0  0  0
 14 13  1  0  0  0  0
 14 10  1  0  0  0  0
 15  7  2  0  0  0  0
 16 11  2  0  0  0  0
 17 21  1  0  0  0  0
 18 20  1  0  0  0  0
 18 17  1  0  0  0  0
 20 22  2  0  0  0  0
 21 19  2  0  0  0  0
 22 19  1  0  0  0  0
 23 17  2  0  0  0  0
 25 26  1  0  0  0  0
 25 24  1  0  0  0  0
 27 26  1  0  0  0  0
 29 27  1  1  0  0  0
 30 28  1  6  0  0  0
 30 29  1  0  0  0  0
 31 32  1  0  0  0  0
 32 33  1  0  0  0  0
 33 29  1  0  0  0  0
 34 31  1  0  0  0  0
 34 30  1  0  0  0  0
M  END
>  <MODEL>
8

>  <REMARK>
 VINA RESULT:      -8.3      3.020      7.873
  Name = 
  6 active torsions:
  status: ('A' for Active; 'I' for Inactive)
    1  A    between atoms: N_3  and  C_13
    2  A    between atoms: N_3  and  C_17
    3  A    between atoms: N_5  and  C_18
    4  A    between atoms: C_12  and  C_28
    5  A    between atoms: C_17  and  C_29
    6  A    between atoms: C_18  and  C_29
                            x       y       z     vdW  Elec       q    Type
                         _______ _______ _______ _____ _____    ______ ____

>  <TORSDO>
F 6

$$$$
=
 OpenBabel11052414143D

 34 38  0  0  1  0  0  0  0  0999 V2000
  184.0500  178.9790  141.0200 C   0  0  0  0  0  0  0  0  0  0  0  0
  185.2050  178.6620  143.1340 C   0  0  0  0  0  3  0  0  0  0  0  0
  186.5340  178.7870  140.9470 C   0  0  2  0  0  3  0  0  0  0  0  0
  188.8150  177.7890  140.6670 N   0  0  0  0  0  0  0  0  0  0  0  0
  182.8000  178.9630  143.0920 C   0  0  0  0  0  3  0  0  0  0  0  0
  183.9420  178.6320  145.2890 C   0  0  0  0  0  1  0  0  0  0  0  0
  188.0420  178.4080  142.7960 O   0  0  0  0  0  0  0  0  0  0  0  0
  185.2460  178.7590  141.7380 C   0  0  0  0  0  0  0  0  0  0  0  0
  182.8320  179.0830  141.6980 C   0  0  0  0  0  3  0  0  0  0  0  0
  186.2880  178.1040  139.6010 C   0  0  2  0  0  3  0  0  0  0  0  0
  184.1080  179.1140  139.5450 C   0  0  0  0  0  3  0  0  0  0  0  0
  183.9820  178.7490  143.8080 C   0  0  0  0  0  0  0  0  0  0  0  0
  188.4670  177.1570  139.5060 O   0  0  0  0  0  0  0  0  0  0  0  0
  187.5970  178.0210  138.8040 C   0  0  1  0  0  3  0  0  0  0  0  0
  187.7970  178.2590  141.5680 C   0  0  0  0  0  0  0  0  0  0  0  0
  185.1810  178.7560  138.8950 N   0  0  0  0  0  0  0  0  0  0  0  0
  186.8800  175.7030  135.8400 C   0  0  0  0  0  0  0  0  0  0  0  0
  186.8850  176.6350  134.6600 C   0  0  0  0  0  2  0  0  0  0  0  0
  187.3720  177.5010  137.4160 C   0  0  0  0  0  0  0  0  0  0  0  0
  187.1860  178.0630  135.0330 C   0  0  0  0  0  3  0  0  0  0  0  0
  187.1190  176.2040  137.2000 C   0  0  0  0  0  3  0  0  0  0  0  0
  187.4050  178.4520  136.2920 C   0  0  0  0  0  3  0  0  0  0  0  0
  186.6630  174.4760  135.6620 O   0  0  0  0  0  0  0  0  0  0  0  0
  190.2230  178.0000  140.9740 C   0  0  0  0  0  2  0  0  0  0  0  0
  190.8970  176.6800  141.3270 C   0  0  0  0  0  2  0  0  0  0  0  0
  190.6000  176.2760  142.7620 C   0  0  0  0  0  2  0  0  0  0  0  0
  191.5900  176.8490  143.6580 N   0  0  0  0  0  2  0  0  0  0  0  0
  192.1270  175.4740  145.9490 O   0  0  0  0  0  1  0  0  0  0  0  0
  190.8860  177.2480  144.8680 C   0  0  2  0  0  3  0  0  0  0  0  0
  191.6250  176.7650  146.1300 C   0  0  1  0  0  3  0  0  0  0  0  0
  189.5280  177.6970  147.2290 C   0  0  0  0  0  2  0  0  0  0  0  0
  188.6470  177.2410  146.0570 C   0  0  0  0  0  2  0  0  0  0  0  0
  189.4460  176.7410  144.8430 C   0  0  0  0  0  2  0  0  0  0  0  0
  190.7400  176.7820  147.3870 C   0  0  0  0  0  2  0  0  0  0  0  0
  1  9  2  0  0  0  0
  1  8  1  0  0  0  0
  2 12  1  0  0  0  0
  3 15  1  1  0  0  0
  3  8  1  0  0  0  0
  4 24  1  0  0  0  0
  4 15  1  0  0  0  0
  5 12  2  0  0  0  0
  8  2  2  0  0  0  0
  9  5  1  0  0  0  0
 10 16  1  6  0  0  0
 10  3  1  0  0  0  0
 11  1  1  0  0  0  0
 12  6  1  0  0  0  0
 13  4  1  0  0  0  0
 14 19  1  6  0  0  0
 14 13  1  0  0  0  0
 14 10  1  0  0  0  0
 15  7  2  0  0  0  0
 16 11  2  0  0  0  0
 17 21  1  0  0  0  0
 18 20  1  0  0  0  0
 18 17  1  0  0  0  0
 20 22  2  0  0  0  0
 21 19  2  0  0  0  0
 22 19  1  0  0  0  0
 23 17  2  0  0  0  0
 24 25  1  0  0  0  0
 25 26  1  0  0  0  0
 26 27  1  0  0  0  0
 29 27  1  6  0  0  0
 29 30  1  0  0  0  0
 30 28  1  6  0  0  0
 30 34  1  0  0  0  0
 31 34  1  0  0  0  0
 32 31  1  0  0  0  0
 33 29  1  0  0  0  0
 33 32  1  0  0  0  0
M  END
>  <MODEL>
9

>  <REMARK>
 VINA RESULT:      -8.2      2.247      6.416
  Name = 
  6 active torsions:
  status: ('A' for Active; 'I' for Inactive)
    1  A    between atoms: N_3  and  C_13
    2  A    between atoms: N_3  and  C_17
    3  A    between atoms: N_5  and  C_18
    4  A    between atoms: C_12  and  C_28
    5  A    between atoms: C_17  and  C_29
    6  A    between atoms: C_18  and  C_29
                            x       y       z     vdW  Elec       q    Type
                         _______ _______ _______ _____ _____    ______ ____

>  <TORSDO>
F 6

$$$$
