=
 OpenBabel11052415543D

 34 39  0  0  1  0  0  0  0  0999 V2000
  186.9560  177.8880  143.6050 N   0  0  0  0  0  0  0  0  0  0  0  0
  190.9100  177.7170  145.2600 C   0  0  0  0  0  2  0  0  0  0  0  0
  186.0110  177.7900  145.7820 N   0  0  0  0  0  2  0  0  0  0  0  0
  188.2680  177.4530  144.0960 C   0  0  2  0  0  3  0  0  0  0  0  0
  187.3000  177.7150  146.3930 C   0  0  0  0  0  0  0  0  0  0  0  0
  188.7140  177.7870  148.3570 C   0  0  0  0  0  3  0  0  0  0  0  0
  187.4370  177.7710  147.7830 C   0  0  0  0  0  3  0  0  0  0  0  0
  185.8970  177.9720  144.3620 C   0  0  0  0  0  0  0  0  0  0  0  0
  189.7130  177.7120  146.1510 C   0  0  0  0  0  0  0  0  0  0  0  0
  188.4350  177.6670  145.5800 C   0  0  0  0  0  0  0  0  0  0  0  0
  189.8530  177.7630  147.5420 C   0  0  0  0  0  3  0  0  0  0  0  0
  190.6000  178.5640  144.0270 C   0  0  0  0  0  2  0  0  0  0  0  0
  189.4180  177.9930  143.2040 C   0  0  1  0  0  3  0  0  0  0  0  0
  182.2760  179.0770  144.0470 C   0  0  0  0  0  3  0  0  0  0  0  0
  184.4100  178.2590  142.3770 C   0  0  0  0  0  3  0  0  0  0  0  0
  181.5020  178.9820  140.2590 C   0  0  0  0  0  0  0  0  0  0  0  0
  180.7670  179.3380  141.7440 S   0  0  0  0  0  0  0  0  0  0  0  0
  182.1310  178.9990  142.6670 C   0  0  0  0  0  0  0  0  0  0  0  0
  182.8190  178.5850  140.4850 C   0  0  0  0  0  0  0  0  0  0  0  0
  183.1690  178.6000  141.8370 C   0  0  0  0  0  0  0  0  0  0  0  0
  183.6930  178.2120  139.4700 O   0  0  0  0  0  1  0  0  0  0  0  0
  184.5930  178.3260  143.7720 C   0  0  0  0  0  0  0  0  0  0  0  0
  183.5210  178.7370  144.5980 C   0  0  0  0  0  3  0  0  0  0  0  0
  180.8360  179.0360  138.9240 C   0  0  1  0  0  3  0  0  0  0  0  0
  179.3310  179.1180  139.0920 C   0  0  0  0  0  1  0  0  0  0  0  0
  181.2900  180.1430  138.2060 O   0  0  0  0  0  1  0  0  0  0  0  0
  189.8840  176.9570  142.2670 N   0  0  2  0  0  0  0  0  0  0  0  0
  191.3040  177.1630  141.9970 C   0  0  0  0  0  2  0  0  0  0  0  0
  191.5730  176.7290  140.5730 C   0  0  1  0  0  3  0  0  0  0  0  0
  190.2220  176.7230  139.9000 C   0  0  0  0  0  2  0  0  0  0  0  0
  189.2440  177.1570  140.9690 C   0  0  0  0  0  2  0  0  0  0  0  0
  192.4980  177.7300  139.9050 C   0  0  0  0  0  2  0  0  0  0  0  0
  193.6620  177.0910  139.4780 O   0  0  0  0  0  0  0  0  0  0  0  0
  193.2730  176.3780  138.3440 C   0  0  0  0  0  1  0  0  0  0  0  0
  1  8  2  0  0  0  0
  2  9  1  0  0  0  0
  3  5  1  0  0  0  0
  4  1  1  6  0  0  0
  4 10  1  0  0  0  0
  5  7  1  0  0  0  0
  7  6  2  0  0  0  0
  8  3  1  0  0  0  0
  9 11  2  0  0  0  0
 10  9  1  0  0  0  0
 10  5  2  0  0  0  0
 11  6  1  0  0  0  0
 12  2  1  0  0  0  0
 13 12  1  1  0  0  0
 13  4  1  0  0  0  0
 14 23  1  0  0  0  0
 15 22  1  0  0  0  0
 16 19  2  0  0  0  0
 16 17  1  0  0  0  0
 17 18  1  0  0  0  0
 18 14  2  0  0  0  0
 19 20  1  0  0  0  0
 20 15  2  0  0  0  0
 20 18  1  0  0  0  0
 21 19  1  0  0  0  0
 22  8  1  0  0  0  0
 22 23  2  0  0  0  0
 24 25  1  1  0  0  0
 24 16  1  0  0  0  0
 26 24  1  0  0  0  0
 27 31  1  6  0  0  0
 27 13  1  0  0  0  0
 28 27  1  0  0  0  0
 29 32  1  6  0  0  0
 29 28  1  0  0  0  0
 30 29  1  0  0  0  0
 30 31  1  0  0  0  0
 33 32  1  0  0  0  0
 34 33  1  0  0  0  0
M  END
>  <MODEL>
1

>  <REMARK>
 VINA RESULT:     -10.1      0.000      0.000
  Name = 
  5 active torsions:
  status: ('A' for Active; 'I' for Inactive)
    1  A    between atoms: N_2  and  C_34
    2  A    between atoms: C_3  and  O_13
    3  A    between atoms: C_3  and  C_25
    4  A    between atoms: C_7  and  C_11
    5  A    between atoms: C_18  and  C_30
                            x       y       z     vdW  Elec       q    Type
                         _______ _______ _______ _____ _____    ______ ____

>  <TORSDO>
F 5

$$$$
=
 OpenBabel11052415543D

 34 39  0  0  1  0  0  0  0  0999 V2000
  184.6010  178.2240  142.5580 N   0  0  0  0  0  0  0  0  0  0  0  0
  181.2140  177.9980  139.9360 C   0  0  0  0  0  2  0  0  0  0  0  0
  183.2050  178.9330  144.3450 N   0  0  0  0  0  2  0  0  0  0  0  0
  183.5600  178.5010  141.5630 C   0  0  2  0  0  3  0  0  0  0  0  0
  182.0420  178.8920  143.5180 C   0  0  0  0  0  0  0  0  0  0  0  0
  179.6360  178.9620  143.2530 C   0  0  0  0  0  3  0  0  0  0  0  0
  180.7700  179.0950  144.0630 C   0  0  0  0  0  3  0  0  0  0  0  0
  184.4700  178.4910  143.8280 C   0  0  0  0  0  0  0  0  0  0  0  0
  181.0440  178.4030  141.3620 C   0  0  0  0  0  0  0  0  0  0  0  0
  182.1790  178.5650  142.1670 C   0  0  0  0  0  0  0  0  0  0  0  0
  179.7710  178.6100  141.9040 C   0  0  0  0  0  3  0  0  0  0  0  0
  182.3590  176.9900  139.8450 C   0  0  0  0  0  2  0  0  0  0  0  0
  183.7070  177.5900  140.3140 C   0  0  1  0  0  3  0  0  0  0  0  0
  186.5030  178.2460  147.0280 C   0  0  0  0  0  3  0  0  0  0  0  0
  186.8530  177.8720  144.2440 C   0  0  0  0  0  3  0  0  0  0  0  0
  190.0410  177.1500  145.9130 C   0  0  0  0  0  0  0  0  0  0  0  0
  189.1620  177.5400  147.3090 S   0  0  0  0  0  0  0  0  0  0  0  0
  187.7250  177.8530  146.4950 C   0  0  0  0  0  0  0  0  0  0  0  0
  189.2090  177.2750  144.8020 C   0  0  0  0  0  0  0  0  0  0  0  0
  187.9100  177.6650  145.1330 C   0  0  0  0  0  0  0  0  0  0  0  0
  189.6310  177.0370  143.4980 O   0  0  0  0  0  1  0  0  0  0  0  0
  185.6010  178.2700  144.7500 C   0  0  0  0  0  0  0  0  0  0  0  0
  185.4350  178.4540  146.1420 C   0  0  0  0  0  3  0  0  0  0  0  0
  191.4860  176.7790  145.8710 C   0  0  1  0  0  3  0  0  0  0  0  0
  191.8800  176.0580  147.1450 C   0  0  0  0  0  1  0  0  0  0  0  0
  191.7390  175.9600  144.7700 O   0  0  0  0  0  1  0  0  0  0  0  0
  184.3710  178.3110  139.2160 N   0  0  2  0  0  0  0  0  0  0  0  0
  184.2040  177.5530  137.9790 C   0  0  0  0  0  2  0  0  0  0  0  0
  185.4370  177.7710  137.1310 C   0  0  1  0  0  3  0  0  0  0  0  0
  186.4920  178.2690  138.0880 C   0  0  0  0  0  2  0  0  0  0  0  0
  185.8150  178.3080  139.4400 C   0  0  0  0  0  2  0  0  0  0  0  0
  185.8610  176.4550  136.5050 C   0  0  0  0  0  2  0  0  0  0  0  0
  185.2010  175.3960  137.1290 O   0  0  0  0  0  0  0  0  0  0  0  0
  186.1260  174.3520  137.1180 C   0  0  0  0  0  1  0  0  0  0  0  0
  1  8  2  0  0  0  0
  2  9  1  0  0  0  0
  4 10  1  1  0  0  0
  4  1  1  0  0  0  0
  5  7  1  0  0  0  0
  5  3  1  0  0  0  0
  6  7  2  0  0  0  0
  8  3  1  0  0  0  0
  8 22  1  0  0  0  0
  9 11  2  0  0  0  0
  9 10  1  0  0  0  0
 10  5  2  0  0  0  0
 11  6  1  0  0  0  0
 12  2  1  0  0  0  0
 13 12  1  6  0  0  0
 13  4  1  0  0  0  0
 15 22  2  0  0  0  0
 15 20  1  0  0  0  0
 16 17  1  0  0  0  0
 18 14  1  0  0  0  0
 18 17  1  0  0  0  0
 19 20  1  0  0  0  0
 19 16  2  0  0  0  0
 20 18  2  0  0  0  0
 21 19  1  0  0  0  0
 22 23  1  0  0  0  0
 23 14  2  0  0  0  0
 24 16  1  0  0  0  0
 24 25  1  1  0  0  0
 26 24  1  0  0  0  0
 27 28  1  6  0  0  0
 27 31  1  0  0  0  0
 27 13  1  0  0  0  0
 29 32  1  1  0  0  0
 29 28  1  0  0  0  0
 29 30  1  0  0  0  0
 30 31  1  0  0  0  0
 32 33  1  0  0  0  0
 34 33  1  0  0  0  0
M  END
>  <MODEL>
2

>  <REMARK>
 VINA RESULT:      -9.6      3.555      8.049
  Name = 
  5 active torsions:
  status: ('A' for Active; 'I' for Inactive)
    1  A    between atoms: N_2  and  C_34
    2  A    between atoms: C_3  and  O_13
    3  A    between atoms: C_3  and  C_25
    4  A    between atoms: C_7  and  C_11
    5  A    between atoms: C_18  and  C_30
                            x       y       z     vdW  Elec       q    Type
                         _______ _______ _______ _____ _____    ______ ____

>  <TORSDO>
F 5

$$$$
=
 OpenBabel11052415543D

 34 39  0  0  1  0  0  0  0  0999 V2000
  187.3240  177.7700  143.0950 N   0  0  0  0  0  0  0  0  0  0  0  0
  191.5350  177.3260  143.7840 C   0  0  0  0  0  2  0  0  0  0  0  0
  186.8800  177.3920  145.3980 N   0  0  0  0  0  2  0  0  0  0  0  0
  188.6920  177.2560  143.2190 C   0  0  2  0  0  3  0  0  0  0  0  0
  188.2680  177.2190  145.6890 C   0  0  0  0  0  0  0  0  0  0  0  0
  190.0820  177.0060  147.2780 C   0  0  0  0  0  3  0  0  0  0  0  0
  188.7110  177.0850  147.0080 C   0  0  0  0  0  3  0  0  0  0  0  0
  186.4640  177.7660  144.0760 C   0  0  0  0  0  0  0  0  0  0  0  0
  190.5660  177.2160  144.9130 C   0  0  0  0  0  0  0  0  0  0  0  0
  189.1920  177.2660  144.6420 C   0  0  0  0  0  0  0  0  0  0  0  0
  191.0110  177.0780  146.2320 C   0  0  0  0  0  3  0  0  0  0  0  0
  190.9970  178.3350  142.7710 C   0  0  0  0  0  2  0  0  0  0  0  0
  189.6400  177.8960  142.1690 C   0  0  1  0  0  3  0  0  0  0  0  0
  182.9780  179.1380  144.7050 C   0  0  0  0  0  3  0  0  0  0  0  0
  184.5240  178.1490  142.5500 C   0  0  0  0  0  3  0  0  0  0  0  0
  181.2150  179.0740  141.2620 C   0  0  0  0  0  0  0  0  0  0  0  0
  180.9310  179.4960  142.8790 S   0  0  0  0  0  0  0  0  0  0  0  0
  182.4640  179.0620  143.4150 C   0  0  0  0  0  0  0  0  0  0  0  0
  182.5130  178.5800  141.1410 C   0  0  0  0  0  0  0  0  0  0  0  0
  183.2120  178.5790  142.3510 C   0  0  0  0  0  0  0  0  0  0  0  0
  183.0550  178.1340  139.9410 O   0  0  0  0  0  1  0  0  0  0  0  0
  185.0770  178.2130  143.8440 C   0  0  0  0  0  0  0  0  0  0  0  0
  184.2970  178.7100  144.9130 C   0  0  0  0  0  3  0  0  0  0  0  0
  180.2220  179.1690  140.1520 C   0  0  1  0  0  3  0  0  0  0  0  0
  179.5590  177.8250  139.9250 C   0  0  0  0  0  1  0  0  0  0  0  0
  179.2540  180.1260  140.4550 O   0  0  0  0  0  1  0  0  0  0  0  0
  189.8420  176.9900  141.0260 N   0  0  2  0  0  0  0  0  0  0  0  0
  191.2670  176.7000  140.8940 C   0  0  0  0  0  2  0  0  0  0  0  0
  191.5690  176.5170  139.4230 C   0  0  1  0  0  3  0  0  0  0  0  0
  190.4140  177.1640  138.6990 C   0  0  0  0  0  2  0  0  0  0  0  0
  189.5070  177.6910  139.7880 C   0  0  0  0  0  2  0  0  0  0  0  0
  192.8720  177.2150  139.0830 C   0  0  0  0  0  2  0  0  0  0  0  0
  193.3130  176.8120  137.8220 O   0  0  0  0  0  0  0  0  0  0  0  0
  193.6810  175.4770  137.9910 C   0  0  0  0  0  1  0  0  0  0  0  0
  1  8  2  0  0  0  0
  2  9  1  0  0  0  0
  3  5  1  0  0  0  0
  4  1  1  1  0  0  0
  4 10  1  0  0  0  0
  5  7  1  0  0  0  0
  7  6  2  0  0  0  0
  8  3  1  0  0  0  0
  9 11  2  0  0  0  0
 10  9  1  0  0  0  0
 10  5  2  0  0  0  0
 11  6  1  0  0  0  0
 12  2  1  0  0  0  0
 13 12  1  1  0  0  0
 13  4  1  0  0  0  0
 14 23  1  0  0  0  0
 15 22  1  0  0  0  0
 16 17  1  0  0  0  0
 17 18  1  0  0  0  0
 18 14  2  0  0  0  0
 19 16  2  0  0  0  0
 19 20  1  0  0  0  0
 20 15  2  0  0  0  0
 20 18  1  0  0  0  0
 21 19  1  0  0  0  0
 22  8  1  0  0  0  0
 22 23  2  0  0  0  0
 24 25  1  1  0  0  0
 24 26  1  0  0  0  0
 24 16  1  0  0  0  0
 27 31  1  6  0  0  0
 27 13  1  0  0  0  0
 28 27  1  0  0  0  0
 29 32  1  6  0  0  0
 29 28  1  0  0  0  0
 30 29  1  0  0  0  0
 30 31  1  0  0  0  0
 33 34  1  0  0  0  0
 33 32  1  0  0  0  0
M  END
>  <MODEL>
3

>  <REMARK>
 VINA RESULT:      -9.6      1.164      1.296
  Name = 
  5 active torsions:
  status: ('A' for Active; 'I' for Inactive)
    1  A    between atoms: N_2  and  C_34
    2  A    between atoms: C_3  and  O_13
    3  A    between atoms: C_3  and  C_25
    4  A    between atoms: C_7  and  C_11
    5  A    between atoms: C_18  and  C_30
                            x       y       z     vdW  Elec       q    Type
                         _______ _______ _______ _____ _____    ______ ____

>  <TORSDO>
F 5

$$$$
=
 OpenBabel11052415543D

 34 39  0  0  1  0  0  0  0  0999 V2000
  188.5720  177.6270  142.6890 N   0  0  0  0  0  0  0  0  0  0  0  0
  187.5530  177.4980  146.8540 C   0  0  0  0  0  2  0  0  0  0  0  0
  190.8600  177.2570  143.2090 N   0  0  0  0  0  2  0  0  0  0  0  0
  188.2540  177.9650  144.0800 C   0  0  2  0  0  3  0  0  0  0  0  0
  190.5870  177.2180  144.6100 C   0  0  0  0  0  0  0  0  0  0  0  0
  191.2770  176.7550  146.8840 C   0  0  0  0  0  3  0  0  0  0  0  0
  191.5870  176.8750  145.5250 C   0  0  0  0  0  3  0  0  0  0  0  0
  189.7800  177.3730  142.2690 C   0  0  0  0  0  0  0  0  0  0  0  0
  188.9640  177.3020  146.4110 C   0  0  0  0  0  0  0  0  0  0  0  0
  189.2830  177.4490  145.0550 C   0  0  0  0  0  0  0  0  0  0  0  0
  189.9650  176.9630  147.3280 C   0  0  0  0  0  3  0  0  0  0  0  0
  186.6210  176.9230  145.7890 C   0  0  0  0  0  2  0  0  0  0  0  0
  186.7760  177.6380  144.4240 C   0  0  1  0  0  3  0  0  0  0  0  0
  189.1820  176.9050  138.5470 C   0  0  0  0  0  3  0  0  0  0  0  0
  191.3420  176.9120  140.3760 C   0  0  0  0  0  3  0  0  0  0  0  0
  192.6780  176.2700  137.0200 C   0  0  0  0  0  0  0  0  0  0  0  0
  191.0480  176.3920  136.5710 S   0  0  0  0  0  0  0  0  0  0  0  0
  190.4900  176.6890  138.1290 C   0  0  0  0  0  0  0  0  0  0  0  0
  192.7870  176.4520  138.3970 C   0  0  0  0  0  0  0  0  0  0  0  0
  191.5570  176.6910  139.0150 C   0  0  0  0  0  0  0  0  0  0  0  0
  193.9940  176.3990  139.0840 O   0  0  0  0  0  1  0  0  0  0  0  0
  190.0290  177.1340  140.8350 C   0  0  0  0  0  0  0  0  0  0  0  0
  188.9570  177.1300  139.9130 C   0  0  0  0  0  3  0  0  0  0  0  0
  193.8130  175.9680  136.0980 C   0  0  1  0  0  3  0  0  0  0  0  0
  193.2920  175.6530  134.7090 C   0  0  0  0  0  1  0  0  0  0  0  0
  194.6840  177.0560  136.0370 O   0  0  0  0  0  1  0  0  0  0  0  0
  185.9450  178.8530  144.3710 N   0  0  2  0  0  0  0  0  0  0  0  0
  184.7240  178.6280  145.1400 C   0  0  0  0  0  2  0  0  0  0  0  0
  183.6100  179.4080  144.4780 C   0  0  1  0  0  3  0  0  0  0  0  0
  184.1000  179.6890  143.0790 C   0  0  0  0  0  2  0  0  0  0  0  0
  185.4710  179.0540  143.0040 C   0  0  0  0  0  2  0  0  0  0  0  0
  182.3500  178.5610  144.4430 C   0  0  0  0  0  2  0  0  0  0  0  0
  181.4770  179.0480  143.4700 O   0  0  0  0  0  0  0  0  0  0  0  0
  180.2160  178.6280  143.8910 C   0  0  0  0  0  1  0  0  0  0  0  0
  3  5  1  0  0  0  0
  4  1  1  6  0  0  0
  4 13  1  0  0  0  0
  4 10  1  0  0  0  0
  5 10  2  0  0  0  0
  5  7  1  0  0  0  0
  6 11  1  0  0  0  0
  7  6  2  0  0  0  0
  8  1  2  0  0  0  0
  8  3  1  0  0  0  0
  9  2  1  0  0  0  0
  9 11  2  0  0  0  0
 10  9  1  0  0  0  0
 12  2  1  0  0  0  0
 13 12  1  1  0  0  0
 14 23  1  0  0  0  0
 15 22  1  0  0  0  0
 16 19  2  0  0  0  0
 17 16  1  0  0  0  0
 17 18  1  0  0  0  0
 18 14  2  0  0  0  0
 18 20  1  0  0  0  0
 19 20  1  0  0  0  0
 19 21  1  0  0  0  0
 20 15  2  0  0  0  0
 22  8  1  0  0  0  0
 23 22  2  0  0  0  0
 24 25  1  6  0  0  0
 24 16  1  0  0  0  0
 26 24  1  0  0  0  0
 27 31  1  6  0  0  0
 27 13  1  0  0  0  0
 27 28  1  0  0  0  0
 29 32  1  6  0  0  0
 29 28  1  0  0  0  0
 30 29  1  0  0  0  0
 31 30  1  0  0  0  0
 33 34  1  0  0  0  0
 33 32  1  0  0  0  0
M  END
>  <MODEL>
4

>  <REMARK>
 VINA RESULT:      -9.5      2.996      8.410
  Name = 
  5 active torsions:
  status: ('A' for Active; 'I' for Inactive)
    1  A    between atoms: N_2  and  C_34
    2  A    between atoms: C_3  and  O_13
    3  A    between atoms: C_3  and  C_25
    4  A    between atoms: C_7  and  C_11
    5  A    between atoms: C_18  and  C_30
                            x       y       z     vdW  Elec       q    Type
                         _______ _______ _______ _____ _____    ______ ____

>  <TORSDO>
F 5

$$$$
=
 OpenBabel11052415543D

 34 39  0  0  1  0  0  0  0  0999 V2000
  188.6490  177.5250  141.6070 N   0  0  0  0  0  0  0  0  0  0  0  0
  187.5280  177.6610  145.7460 C   0  0  0  0  0  2  0  0  0  0  0  0
  190.9370  177.3000  142.2070 N   0  0  0  0  0  2  0  0  0  0  0  0
  188.2810  177.9520  142.9610 C   0  0  2  0  0  3  0  0  0  0  0  0
  190.6290  177.3540  143.6000 C   0  0  0  0  0  0  0  0  0  0  0  0
  191.2790  177.0960  145.9180 C   0  0  0  0  0  3  0  0  0  0  0  0
  191.6200  177.1270  144.5610 C   0  0  0  0  0  3  0  0  0  0  0  0
  189.8780  177.2960  141.2360 C   0  0  0  0  0  0  0  0  0  0  0  0
  188.9580  177.4980  145.3520 C   0  0  0  0  0  0  0  0  0  0  0  0
  189.3050  177.5580  143.9960 C   0  0  0  0  0  0  0  0  0  0  0  0
  189.9480  177.2750  146.3150 C   0  0  0  0  0  3  0  0  0  0  0  0
  186.6500  176.9660  144.7060 C   0  0  0  0  0  2  0  0  0  0  0  0
  186.8100  177.5840  143.2950 C   0  0  1  0  0  3  0  0  0  0  0  0
  189.4060  176.5800  137.5350 C   0  0  0  0  0  3  0  0  0  0  0  0
  191.5030  176.7100  139.4320 C   0  0  0  0  0  3  0  0  0  0  0  0
  192.9510  175.8450  136.1730 C   0  0  0  0  0  0  0  0  0  0  0  0
  191.3360  175.9370  135.6630 S   0  0  0  0  0  0  0  0  0  0  0  0
  190.7270  176.3380  137.1770 C   0  0  0  0  0  0  0  0  0  0  0  0
  193.0130  176.1190  137.5390 C   0  0  0  0  0  0  0  0  0  0  0  0
  191.7630  176.3980  138.0970 C   0  0  0  0  0  0  0  0  0  0  0  0
  194.1960  176.1120  138.2680 O   0  0  0  0  0  1  0  0  0  0  0  0
  190.1750  176.9620  139.8300 C   0  0  0  0  0  0  0  0  0  0  0  0
  189.1350  176.8960  138.8750 C   0  0  0  0  0  3  0  0  0  0  0  0
  194.1150  175.4830  135.3130 C   0  0  1  0  0  3  0  0  0  0  0  0
  195.0460  176.6700  135.1610 C   0  0  0  0  0  1  0  0  0  0  0  0
  194.8090  174.4090  135.8710 O   0  0  0  0  0  1  0  0  0  0  0  0
  185.9280  178.7520  143.1310 N   0  0  2  0  0  0  0  0  0  0  0  0
  184.9540  178.7690  144.2190 C   0  0  0  0  0  2  0  0  0  0  0  0
  183.6680  179.3570  143.6800 C   0  0  1  0  0  3  0  0  0  0  0  0
  183.7750  179.2330  142.1800 C   0  0  0  0  0  2  0  0  0  0  0  0
  185.1150  178.5770  141.9300 C   0  0  0  0  0  2  0  0  0  0  0  0
  182.4880  178.5560  144.1990 C   0  0  0  0  0  2  0  0  0  0  0  0
  181.2940  179.1550  143.8010 O   0  0  0  0  0  0  0  0  0  0  0  0
  180.3430  178.1390  143.9000 C   0  0  0  0  0  1  0  0  0  0  0  0
  3  5  1  0  0  0  0
  4  1  1  6  0  0  0
  4 13  1  0  0  0  0
  4 10  1  0  0  0  0
  5 10  2  0  0  0  0
  5  7  1  0  0  0  0
  6 11  1  0  0  0  0
  7  6  2  0  0  0  0
  8  1  2  0  0  0  0
  8  3  1  0  0  0  0
  9  2  1  0  0  0  0
  9 11  2  0  0  0  0
 10  9  1  0  0  0  0
 12  2  1  0  0  0  0
 13 12  1  1  0  0  0
 14 23  1  0  0  0  0
 15 22  1  0  0  0  0
 16 19  2  0  0  0  0
 17 16  1  0  0  0  0
 17 18  1  0  0  0  0
 18 14  2  0  0  0  0
 18 20  1  0  0  0  0
 19 20  1  0  0  0  0
 19 21  1  0  0  0  0
 20 15  2  0  0  0  0
 22  8  1  0  0  0  0
 23 22  2  0  0  0  0
 24 25  1  1  0  0  0
 24 26  1  0  0  0  0
 24 16  1  0  0  0  0
 27 31  1  6  0  0  0
 27 13  1  0  0  0  0
 27 28  1  0  0  0  0
 29 32  1  1  0  0  0
 29 28  1  0  0  0  0
 30 29  1  0  0  0  0
 31 30  1  0  0  0  0
 33 34  1  0  0  0  0
 33 32  1  0  0  0  0
M  END
>  <MODEL>
5

>  <REMARK>
 VINA RESULT:      -9.0      3.079      8.773
  Name = 
  5 active torsions:
  status: ('A' for Active; 'I' for Inactive)
    1  A    between atoms: N_2  and  C_34
    2  A    between atoms: C_3  and  O_13
    3  A    between atoms: C_3  and  C_25
    4  A    between atoms: C_7  and  C_11
    5  A    between atoms: C_18  and  C_30
                            x       y       z     vdW  Elec       q    Type
                         _______ _______ _______ _____ _____    ______ ____

>  <TORSDO>
F 5

$$$$
=
 OpenBabel11052415543D

 34 39  0  0  1  0  0  0  0  0999 V2000
  188.4430  177.6420  142.5410 N   0  0  0  0  0  0  0  0  0  0  0  0
  187.6830  177.4990  146.7610 C   0  0  0  0  0  2  0  0  0  0  0  0
  190.7580  177.2600  142.9180 N   0  0  0  0  0  2  0  0  0  0  0  0
  188.2140  177.9750  143.9510 C   0  0  2  0  0  3  0  0  0  0  0  0
  190.5720  177.2160  144.3330 C   0  0  0  0  0  0  0  0  0  0  0  0
  191.3990  176.7410  146.5580 C   0  0  0  0  0  3  0  0  0  0  0  0
  191.6250  176.8650  145.1820 C   0  0  0  0  0  3  0  0  0  0  0  0
  189.6230  177.3850  142.0460 C   0  0  0  0  0  0  0  0  0  0  0  0
  189.0640  177.2990  146.2310 C   0  0  0  0  0  0  0  0  0  0  0  0
  189.2980  177.4510  144.8590 C   0  0  0  0  0  0  0  0  0  0  0  0
  190.1180  176.9520  147.0830 C   0  0  0  0  0  3  0  0  0  0  0  0
  186.6840  176.9320  145.7530 C   0  0  0  0  0  2  0  0  0  0  0  0
  186.7590  177.6530  144.3840 C   0  0  1  0  0  3  0  0  0  0  0  0
  191.1920  176.5180  138.6970 C   0  0  0  0  0  3  0  0  0  0  0  0
  188.6860  177.3300  139.7330 C   0  0  0  0  0  3  0  0  0  0  0  0
  188.3560  176.9330  136.1000 C   0  0  0  0  0  0  0  0  0  0  0  0
  189.9950  176.5130  136.2040 S   0  0  0  0  0  0  0  0  0  0  0  0
  190.0890  176.7040  137.8710 C   0  0  0  0  0  0  0  0  0  0  0  0
  187.8810  177.2350  137.3750 C   0  0  0  0  0  0  0  0  0  0  0  0
  188.8560  177.1010  138.3660 C   0  0  0  0  0  0  0  0  0  0  0  0
  186.5730  177.6300  137.6310 O   0  0  0  0  0  1  0  0  0  0  0  0
  189.7810  177.1510  140.5990 C   0  0  0  0  0  0  0  0  0  0  0  0
  191.0290  176.7440  140.0720 C   0  0  0  0  0  3  0  0  0  0  0  0
  187.5580  177.0140  134.8410 C   0  0  1  0  0  3  0  0  0  0  0  0
  186.5200  175.9110  134.8050 C   0  0  0  0  0  1  0  0  0  0  0  0
  186.9290  178.2560  134.7510 O   0  0  0  0  0  1  0  0  0  0  0  0
  185.9310  178.8710  144.3870 N   0  0  2  0  0  0  0  0  0  0  0  0
  184.7310  178.6300  145.1840 C   0  0  0  0  0  2  0  0  0  0  0  0
  183.6020  179.4310  144.5750 C   0  0  1  0  0  3  0  0  0  0  0  0
  184.0540  179.7480  143.1710 C   0  0  0  0  0  2  0  0  0  0  0  0
  185.4200  179.1110  143.0400 C   0  0  0  0  0  2  0  0  0  0  0  0
  182.3390  178.5890  144.5520 C   0  0  0  0  0  2  0  0  0  0  0  0
  181.5160  178.9940  143.5010 O   0  0  0  0  0  0  0  0  0  0  0  0
  180.2290  178.6520  143.9130 C   0  0  0  0  0  1  0  0  0  0  0  0
  3  5  1  0  0  0  0
  4  1  1  6  0  0  0
  4 13  1  0  0  0  0
  4 10  1  0  0  0  0
  5 10  2  0  0  0  0
  5  7  1  0  0  0  0
  6 11  1  0  0  0  0
  7  6  2  0  0  0  0
  8  1  2  0  0  0  0
  8  3  1  0  0  0  0
  9  2  1  0  0  0  0
  9 11  2  0  0  0  0
 10  9  1  0  0  0  0
 12  2  1  0  0  0  0
 13 27  1  0  0  0  0
 13 12  1  1  0  0  0
 14 23  1  0  0  0  0
 15 22  1  0  0  0  0
 16 17  1  0  0  0  0
 16 19  2  0  0  0  0
 17 18  1  0  0  0  0
 18 20  1  0  0  0  0
 18 14  2  0  0  0  0
 19 21  1  0  0  0  0
 19 20  1  0  0  0  0
 20 15  2  0  0  0  0
 22  8  1  0  0  0  0
 23 22  2  0  0  0  0
 24 25  1  1  0  0  0
 24 16  1  0  0  0  0
 26 24  1  0  0  0  0
 27 31  1  6  0  0  0
 27 28  1  0  0  0  0
 29 32  1  6  0  0  0
 29 28  1  0  0  0  0
 30 29  1  0  0  0  0
 31 30  1  0  0  0  0
 33 34  1  0  0  0  0
 33 32  1  0  0  0  0
M  END
>  <MODEL>
6

>  <REMARK>
 VINA RESULT:      -9.0      3.160      7.134
  Name = 
  5 active torsions:
  status: ('A' for Active; 'I' for Inactive)
    1  A    between atoms: N_2  and  C_34
    2  A    between atoms: C_3  and  O_13
    3  A    between atoms: C_3  and  C_25
    4  A    between atoms: C_7  and  C_11
    5  A    between atoms: C_18  and  C_30
                            x       y       z     vdW  Elec       q    Type
                         _______ _______ _______ _____ _____    ______ ____

>  <TORSDO>
F 5

$$$$
=
 OpenBabel11052415543D

 34 39  0  0  1  0  0  0  0  0999 V2000
  186.9850  178.1860  141.9300 N   0  0  0  0  0  0  0  0  0  0  0  0
  191.0000  176.7080  142.2440 C   0  0  0  0  0  2  0  0  0  0  0  0
  187.2980  178.6230  139.6160 N   0  0  0  0  0  2  0  0  0  0  0  0
  188.4270  178.0410  142.1530 C   0  0  2  0  0  3  0  0  0  0  0  0
  188.6470  178.1570  139.6590 C   0  0  0  0  0  0  0  0  0  0  0  0
  190.6860  177.4850  138.5400 C   0  0  0  0  0  3  0  0  0  0  0  0
  189.3970  178.0270  138.4860 C   0  0  0  0  0  3  0  0  0  0  0  0
  186.4660  178.5260  140.7830 C   0  0  0  0  0  0  0  0  0  0  0  0
  190.4660  177.1840  140.9340 C   0  0  0  0  0  0  0  0  0  0  0  0
  189.1880  177.7530  140.8820 C   0  0  0  0  0  0  0  0  0  0  0  0
  191.2200  177.0570  139.7620 C   0  0  0  0  0  3  0  0  0  0  0  0
  189.8570  176.0800  143.0400 C   0  0  0  0  0  2  0  0  0  0  0  0
  188.7290  177.0960  143.3470 C   0  0  1  0  0  3  0  0  0  0  0  0
  183.0470  179.2250  139.2820 C   0  0  0  0  0  3  0  0  0  0  0  0
  184.1950  178.6730  141.8100 C   0  0  0  0  0  3  0  0  0  0  0  0
  180.5760  179.0900  142.2550 C   0  0  0  0  0  0  0  0  0  0  0  0
  180.6090  179.3550  140.5810 S   0  0  0  0  0  0  0  0  0  0  0  0
  182.2700  179.1480  140.4330 C   0  0  0  0  0  0  0  0  0  0  0  0
  181.8740  178.8490  142.7030 C   0  0  0  0  0  0  0  0  0  0  0  0
  182.8200  178.8780  141.6770 C   0  0  0  0  0  0  0  0  0  0  0  0
  182.1920  178.6050  144.0350 O   0  0  0  0  0  1  0  0  0  0  0  0
  185.0120  178.7430  140.6650 C   0  0  0  0  0  0  0  0  0  0  0  0
  184.4290  179.0180  139.4060 C   0  0  0  0  0  3  0  0  0  0  0  0
  179.3620  179.1510  143.1210 C   0  0  1  0  0  3  0  0  0  0  0  0
  179.5270  178.2400  144.3220 C   0  0  0  0  0  1  0  0  0  0  0  0
  179.1450  180.4610  143.5510 O   0  0  0  0  0  1  0  0  0  0  0  0
  189.0340  177.8690  144.5620 N   0  0  2  0  0  0  0  0  0  0  0  0
  190.3020  177.4010  145.1170 C   0  0  0  0  0  2  0  0  0  0  0  0
  190.2260  177.5340  146.6220 C   0  0  1  0  0  3  0  0  0  0  0  0
  188.7530  177.6330  146.9360 C   0  0  0  0  0  2  0  0  0  0  0  0
  188.0550  177.5480  145.5980 C   0  0  0  0  0  2  0  0  0  0  0  0
  190.8290  176.3010  147.2700 C   0  0  0  0  0  2  0  0  0  0  0  0
  192.1910  176.2270  146.9770 O   0  0  0  0  0  0  0  0  0  0  0  0
  192.7630  175.6590  148.1150 C   0  0  0  0  0  1  0  0  0  0  0  0
  1  4  1  0  0  0  0
  2 12  1  0  0  0  0
  3  5  1  0  0  0  0
  3  8  1  0  0  0  0
  4 10  1  6  0  0  0
  4 13  1  0  0  0  0
  5 10  1  0  0  0  0
  6 11  2  0  0  0  0
  7  6  1  0  0  0  0
  7  5  2  0  0  0  0
  8  1  2  0  0  0  0
  9  2  1  0  0  0  0
 10  9  2  0  0  0  0
 11  9  1  0  0  0  0
 13 12  1  6  0  0  0
 13 27  1  0  0  0  0
 14 23  2  0  0  0  0
 14 18  1  0  0  0  0
 16 19  2  0  0  0  0
 16 24  1  0  0  0  0
 17 16  1  0  0  0  0
 18 17  1  0  0  0  0
 18 20  2  0  0  0  0
 19 21  1  0  0  0  0
 20 15  1  0  0  0  0
 20 19  1  0  0  0  0
 22  8  1  0  0  0  0
 22 15  2  0  0  0  0
 23 22  1  0  0  0  0
 24 26  1  0  0  0  0
 24 25  1  1  0  0  0
 27 28  1  1  0  0  0
 27 31  1  0  0  0  0
 28 29  1  0  0  0  0
 29 30  1  0  0  0  0
 29 32  1  1  0  0  0
 31 30  1  0  0  0  0
 33 32  1  0  0  0  0
 33 34  1  0  0  0  0
M  END
>  <MODEL>
7

>  <REMARK>
 VINA RESULT:      -9.0      2.528      5.319
  Name = 
  5 active torsions:
  status: ('A' for Active; 'I' for Inactive)
    1  A    between atoms: N_2  and  C_34
    2  A    between atoms: C_3  and  O_13
    3  A    between atoms: C_3  and  C_25
    4  A    between atoms: C_7  and  C_11
    5  A    between atoms: C_18  and  C_30
                            x       y       z     vdW  Elec       q    Type
                         _______ _______ _______ _____ _____    ______ ____

>  <TORSDO>
F 5

$$$$
=
 OpenBabel11052415543D

 34 39  0  0  1  0  0  0  0  0999 V2000
  187.5320  178.1410  143.3950 N   0  0  0  0  0  0  0  0  0  0  0  0
  191.6850  177.8680  144.4340 C   0  0  0  0  0  2  0  0  0  0  0  0
  186.9170  177.2570  145.5120 N   0  0  0  0  0  2  0  0  0  0  0  0
  188.9250  177.7130  143.5610 C   0  0  2  0  0  3  0  0  0  0  0  0
  188.2810  177.1280  145.9110 C   0  0  0  0  0  0  0  0  0  0  0  0
  189.9550  176.7180  147.6130 C   0  0  0  0  0  3  0  0  0  0  0  0
  188.6120  176.7520  147.2170 C   0  0  0  0  0  3  0  0  0  0  0  0
  186.5900  177.8690  144.2540 C   0  0  0  0  0  0  0  0  0  0  0  0
  190.6310  177.4540  145.4050 C   0  0  0  0  0  0  0  0  0  0  0  0
  189.2900  177.4600  145.0030 C   0  0  0  0  0  0  0  0  0  0  0  0
  190.9640  177.0740  146.7100 C   0  0  0  0  0  3  0  0  0  0  0  0
  191.1500  179.0260  143.5930 C   0  0  0  0  0  2  0  0  0  0  0  0
  189.9010  178.6260  142.7710 C   0  0  1  0  0  3  0  0  0  0  0  0
  183.0010  179.0100  144.7560 C   0  0  0  0  0  3  0  0  0  0  0  0
  184.7190  178.2400  142.6420 C   0  0  0  0  0  3  0  0  0  0  0  0
  181.4390  179.0610  141.2180 C   0  0  0  0  0  0  0  0  0  0  0  0
  181.0410  179.3670  142.8380 S   0  0  0  0  0  0  0  0  0  0  0  0
  182.5650  178.9850  143.4360 C   0  0  0  0  0  0  0  0  0  0  0  0
  182.7680  178.6470  141.1450 C   0  0  0  0  0  0  0  0  0  0  0  0
  183.3970  178.6100  142.3920 C   0  0  0  0  0  0  0  0  0  0  0  0
  183.4000  178.3060  139.9550 O   0  0  0  0  0  1  0  0  0  0  0  0
  185.1950  178.2540  143.9680 C   0  0  0  0  0  0  0  0  0  0  0  0
  184.3290  178.6410  145.0170 C   0  0  0  0  0  3  0  0  0  0  0  0
  180.5050  179.1700  140.0590 C   0  0  1  0  0  3  0  0  0  0  0  0
  179.4630  178.0710  140.1190 C   0  0  0  0  0  1  0  0  0  0  0  0
  179.8760  180.4150  140.0650 O   0  0  0  0  0  1  0  0  0  0  0  0
  190.2910  177.9970  141.4970 N   0  0  2  0  0  0  0  0  0  0  0  0
  189.6120  178.6820  140.4010 C   0  0  0  0  0  2  0  0  0  0  0  0
  189.3320  177.6620  139.3200 C   0  0  1  0  0  3  0  0  0  0  0  0
  189.4300  176.3220  140.0060 C   0  0  0  0  0  2  0  0  0  0  0  0
  189.7590  176.6370  141.4480 C   0  0  0  0  0  2  0  0  0  0  0  0
  187.9340  177.8790  138.7690 C   0  0  0  0  0  2  0  0  0  0  0  0
  187.9600  178.8580  137.7760 O   0  0  0  0  0  0  0  0  0  0  0  0
  188.5220  178.2190  136.6710 C   0  0  0  0  0  1  0  0  0  0  0  0
  1  8  2  0  0  0  0
  2  9  1  0  0  0  0
  3  5  1  0  0  0  0
  4  1  1  1  0  0  0
  4 10  1  0  0  0  0
  5  7  1  0  0  0  0
  7  6  2  0  0  0  0
  8  3  1  0  0  0  0
  9 11  2  0  0  0  0
 10  9  1  0  0  0  0
 10  5  2  0  0  0  0
 11  6  1  0  0  0  0
 12  2  1  0  0  0  0
 13  4  1  0  0  0  0
 13 12  1  1  0  0  0
 14 23  1  0  0  0  0
 15 22  1  0  0  0  0
 16 17  1  0  0  0  0
 17 18  1  0  0  0  0
 18 14  2  0  0  0  0
 19 16  2  0  0  0  0
 19 20  1  0  0  0  0
 20 15  2  0  0  0  0
 20 18  1  0  0  0  0
 21 19  1  0  0  0  0
 22  8  1  0  0  0  0
 22 23  2  0  0  0  0
 24 26  1  0  0  0  0
 24 25  1  1  0  0  0
 24 16  1  0  0  0  0
 27 28  1  6  0  0  0
 27 13  1  0  0  0  0
 29 32  1  1  0  0  0
 29 30  1  0  0  0  0
 29 28  1  0  0  0  0
 30 31  1  0  0  0  0
 31 27  1  0  0  0  0
 33 32  1  0  0  0  0
 34 33  1  0  0  0  0
M  END
>  <MODEL>
8

>  <REMARK>
 VINA RESULT:      -9.0      1.753      2.043
  Name = 
  5 active torsions:
  status: ('A' for Active; 'I' for Inactive)
    1  A    between atoms: N_2  and  C_34
    2  A    between atoms: C_3  and  O_13
    3  A    between atoms: C_3  and  C_25
    4  A    between atoms: C_7  and  C_11
    5  A    between atoms: C_18  and  C_30
                            x       y       z     vdW  Elec       q    Type
                         _______ _______ _______ _____ _____    ______ ____

>  <TORSDO>
F 5

$$$$
=
 OpenBabel11052415543D

 34 39  0  0  1  0  0  0  0  0999 V2000
  185.8610  178.2460  141.6540 N   0  0  0  0  0  0  0  0  0  0  0  0
  183.1670  178.3250  138.3160 C   0  0  0  0  0  2  0  0  0  0  0  0
  184.0780  178.7590  143.1390 N   0  0  0  0  0  2  0  0  0  0  0  0
  185.0680  178.6350  140.4830 C   0  0  2  0  0  3  0  0  0  0  0  0
  183.1360  178.8140  142.0680 C   0  0  0  0  0  0  0  0  0  0  0  0
  180.8530  178.9230  141.2670 C   0  0  0  0  0  3  0  0  0  0  0  0
  181.7690  178.9610  142.3250 C   0  0  0  0  0  3  0  0  0  0  0  0
  185.4370  178.3710  142.8810 C   0  0  0  0  0  0  0  0  0  0  0  0
  182.6680  178.5710  139.7000 C   0  0  0  0  0  0  0  0  0  0  0  0
  183.5850  178.6380  140.7560 C   0  0  0  0  0  0  0  0  0  0  0  0
  181.3000  178.7220  139.9550 C   0  0  0  0  0  3  0  0  0  0  0  0
  184.3230  177.3290  138.3820 C   0  0  0  0  0  2  0  0  0  0  0  0
  185.5160  177.8670  139.2100 C   0  0  1  0  0  3  0  0  0  0  0  0
  186.6910  177.7710  146.4160 C   0  0  0  0  0  3  0  0  0  0  0  0
  187.6740  177.6950  143.7630 C   0  0  0  0  0  3  0  0  0  0  0  0
  190.4100  176.7780  146.0290 C   0  0  0  0  0  0  0  0  0  0  0  0
  189.2290  177.0220  147.2210 S   0  0  0  0  0  0  0  0  0  0  0  0
  188.0100  177.4290  146.1380 C   0  0  0  0  0  0  0  0  0  0  0  0
  189.8510  177.0270  144.7770 C   0  0  0  0  0  0  0  0  0  0  0  0
  188.5030  177.3880  144.8420 C   0  0  0  0  0  0  0  0  0  0  0  0
  190.5630  176.9270  143.5870 O   0  0  0  0  0  1  0  0  0  0  0  0
  186.3320  178.0460  144.0080 C   0  0  0  0  0  0  0  0  0  0  0  0
  185.8500  178.0800  145.3370 C   0  0  0  0  0  3  0  0  0  0  0  0
  191.8330  176.4040  146.2800 C   0  0  1  0  0  3  0  0  0  0  0  0
  192.0490  176.1180  147.7530 C   0  0  0  0  0  1  0  0  0  0  0  0
  192.1720  175.2790  145.5270 O   0  0  0  0  0  1  0  0  0  0  0  0
  186.3980  178.7020  138.3780 N   0  0  2  0  0  0  0  0  0  0  0  0
  186.3680  178.2050  137.0040 C   0  0  0  0  0  2  0  0  0  0  0  0
  187.7320  178.4430  136.3960 C   0  0  1  0  0  3  0  0  0  0  0  0
  188.6590  178.6420  137.5690 C   0  0  0  0  0  2  0  0  0  0  0  0
  187.7840  178.5050  138.7940 C   0  0  0  0  0  2  0  0  0  0  0  0
  188.1450  177.2260  135.5880 C   0  0  0  0  0  2  0  0  0  0  0  0
  187.2150  176.2010  135.7620 O   0  0  0  0  0  0  0  0  0  0  0  0
  187.8370  175.0710  135.2330 C   0  0  0  0  0  1  0  0  0  0  0  0
  1  8  2  0  0  0  0
  2 12  1  0  0  0  0
  2  9  1  0  0  0  0
  4 10  1  1  0  0  0
  4  1  1  0  0  0  0
  5  7  1  0  0  0  0
  5  3  1  0  0  0  0
  6  7  2  0  0  0  0
  8  3  1  0  0  0  0
  8 22  1  0  0  0  0
  9 11  2  0  0  0  0
  9 10  1  0  0  0  0
 10  5  2  0  0  0  0
 11  6  1  0  0  0  0
 13 12  1  6  0  0  0
 13  4  1  0  0  0  0
 15 22  2  0  0  0  0
 15 20  1  0  0  0  0
 16 24  1  0  0  0  0
 16 17  1  0  0  0  0
 18 14  1  0  0  0  0
 18 17  1  0  0  0  0
 19 20  1  0  0  0  0
 19 16  2  0  0  0  0
 20 18  2  0  0  0  0
 21 19  1  0  0  0  0
 22 23  1  0  0  0  0
 23 14  2  0  0  0  0
 24 25  1  1  0  0  0
 26 24  1  0  0  0  0
 27 28  1  6  0  0  0
 27 31  1  0  0  0  0
 27 13  1  0  0  0  0
 29 32  1  1  0  0  0
 29 28  1  0  0  0  0
 29 30  1  0  0  0  0
 30 31  1  0  0  0  0
 32 33  1  0  0  0  0
 34 33  1  0  0  0  0
M  END
>  <MODEL>
9

>  <REMARK>
 VINA RESULT:      -8.9      3.504      7.923
  Name = 
  5 active torsions:
  status: ('A' for Active; 'I' for Inactive)
    1  A    between atoms: N_2  and  C_34
    2  A    between atoms: C_3  and  O_13
    3  A    between atoms: C_3  and  C_25
    4  A    between atoms: C_7  and  C_11
    5  A    between atoms: C_18  and  C_30
                            x       y       z     vdW  Elec       q    Type
                         _______ _______ _______ _____ _____    ______ ____

>  <TORSDO>
F 5

$$$$
