=
 OpenBabel11052416253D

 43 48  0  0  1  0  0  0  0  0999 V2000
  184.8580  178.4000  146.0610 C   0  0  1  0  0  3  0  0  0  0  0  0
  183.0490  178.7680  141.2480 C   0  0  0  0  0  0  0  0  0  0  0  0
  185.2820  178.7250  139.4440 C   0  0  2  0  0  3  0  0  0  0  0  0
  183.4070  178.7350  144.0300 C   0  0  0  0  0  0  0  0  0  0  0  0
  186.0050  178.8910  145.1840 C   0  0  0  0  0  2  0  0  0  0  0  0
  184.9470  178.9820  147.3240 O   0  0  0  0  0  1  0  0  0  0  0  0
  184.5190  178.5540  143.1840 C   0  0  0  0  0  0  0  0  0  0  0  0
  183.5790  178.7460  145.4510 N   0  0  0  0  0  2  0  0  0  0  0  0
  185.8750  178.2820  143.7890 C   0  0  0  0  0  2  0  0  0  0  0  0
  185.5120  178.2610  140.8840 C   0  0  0  0  0  2  0  0  0  0  0  0
  184.3430  178.5670  141.7860 C   0  0  0  0  0  0  0  0  0  0  0  0
  181.9630  178.9700  142.1060 C   0  0  0  0  0  3  0  0  0  0  0  0
  182.8090  178.8730  139.7640 C   0  0  2  0  0  3  0  0  0  0  0  0
  183.9310  178.2270  138.9480 C   0  0  0  0  0  2  0  0  0  0  0  0
  182.1400  178.9510  143.4880 C   0  0  0  0  0  3  0  0  0  0  0  0
  186.4160  178.2970  138.5100 C   0  0  2  0  0  3  0  0  0  0  0  0
  185.8970  177.5760  137.2690 C   0  0  0  0  0  1  0  0  0  0  0  0
  187.3470  177.4440  139.2340 N   0  0  0  0  0  2  0  0  0  0  0  0
  188.6820  177.8350  139.5630 C   0  0  0  0  0  0  0  0  0  0  0  0
  189.1010  178.9890  139.2800 O   0  0  0  0  0  0  0  0  0  0  0  0
  189.5940  176.8550  140.2210 C   0  0  0  0  0  2  0  0  0  0  0  0
  190.0520  177.3580  141.5910 C   0  0  2  0  0  0  0  0  0  0  0  0
  189.3400  176.8570  142.7970 C   0  0  1  0  0  0  0  0  0  0  0  0
  189.0460  178.1140  142.2270 O   0  0  0  0  0  0  0  0  0  0  0  0
  188.2830  175.9640  142.6070 O   0  0  0  0  0  1  0  0  0  0  0  0
  189.9090  176.9830  144.1800 C   0  0  0  0  0  0  0  0  0  0  0  0
  191.7570  176.5920  145.8750 C   0  0  0  0  0  2  0  0  0  0  0  0
  189.6930  177.7900  146.5390 C   0  0  0  0  0  2  0  0  0  0  0  0
  190.6580  176.6750  146.9250 C   0  0  0  0  0  2  0  0  0  0  0  0
  189.2020  177.6310  145.1240 C   0  0  0  0  0  3  0  0  0  0  0  0
  191.1550  176.1980  144.5260 C   0  0  0  0  0  2  0  0  0  0  0  0
  191.4200  178.0220  141.7450 C   0  0  0  0  0  2  0  0  0  0  0  0
  192.8580  177.6740  139.8680 O   0  0  0  0  0  1  0  0  0  0  0  0
  192.5230  177.1770  141.1270 C   0  0  0  0  0  2  0  0  0  0  0  0
  182.6660  180.2440  139.4010 O   0  0  0  0  0  0  0  0  0  0  0  0
  180.4440  180.2470  136.4200 C   0  0  0  0  0  3  0  0  0  0  0  0
  180.1800  181.6190  136.2940 C   0  0  0  0  0  0  0  0  0  0  0  0
  181.5740  182.0460  138.2340 C   0  0  0  0  0  3  0  0  0  0  0  0
  181.2690  179.7790  137.4470 C   0  0  0  0  0  3  0  0  0  0  0  0
  181.8400  180.6790  138.3610 C   0  0  0  0  0  0  0  0  0  0  0  0
  180.7500  182.5140  137.2060 C   0  0  0  0  0  3  0  0  0  0  0  0
  179.3600  182.1200  135.2800 O   0  0  0  0  0  0  0  0  0  0  0  0
  179.3470  183.4940  134.9130 C   0  0  0  0  0  1  0  0  0  0  0  0
  1  6  1  1  0  0  0
  2 11  2  0  0  0  0
  2 12  1  0  0  0  0
  3 16  1  6  0  0  0
  3 10  1  0  0  0  0
  4  8  1  0  0  0  0
  5  1  1  0  0  0  0
  7  9  1  0  0  0  0
  7  4  2  0  0  0  0
  8  1  1  0  0  0  0
  9  5  1  0  0  0  0
 10 11  1  0  0  0  0
 11  7  1  0  0  0  0
 12 15  2  0  0  0  0
 13 35  1  6  0  0  0
 13  2  1  0  0  0  0
 14  3  1  0  0  0  0
 14 13  1  0  0  0  0
 15  4  1  0  0  0  0
 16 17  1  6  0  0  0
 16 18  1  0  0  0  0
 18 19  1  0  0  0  0
 19 21  1  0  0  0  0
 20 19  2  0  0  0  0
 22 21  1  6  0  0  0
 22 32  1  0  0  0  0
 22 24  1  0  0  0  0
 22 23  1  0  0  0  0
 23 25  1  6  0  0  0
 23 26  1  0  0  0  0
 24 23  1  0  0  0  0
 26 31  1  0  0  0  0
 26 30  2  0  0  0  0
 27 29  1  0  0  0  0
 28 29  1  0  0  0  0
 30 28  1  0  0  0  0
 31 27  1  0  0  0  0
 33 34  1  0  0  0  0
 34 32  1  0  0  0  0
 36 39  1  0  0  0  0
 37 36  2  0  0  0  0
 37 41  1  0  0  0  0
 38 40  1  0  0  0  0
 39 40  2  0  0  0  0
 40 35  1  0  0  0  0
 41 38  2  0  0  0  0
 42 37  1  0  0  0  0
 43 42  1  0  0  0  0
M  END
>  <MODEL>
1

>  <REMARK>
 VINA RESULT:      -8.8      0.000      0.000
  Name = 
  10 active torsions:
  status: ('A' for Active; 'I' for Inactive)
    1  A    between atoms: O_1  and  C_34
    2  A    between atoms: O_1  and  C_35
    3  A    between atoms: C_2  and  N_6
    4  A    between atoms: C_2  and  C_13
    5  A    between atoms: C_3  and  C_4
    6  A    between atoms: C_3  and  C_12
    7  A    between atoms: C_4  and  C_15
    8  A    between atoms: C_11  and  C_14
    9  A    between atoms: C_15  and  C_42
   10  A    between atoms: C_19  and  O_25
                            x       y       z     vdW  Elec       q    Type
                         _______ _______ _______ _____ _____    ______ ____

>  <TORSDO>
F 10

$$$$
=
 OpenBabel11052416253D

 43 48  0  0  1  0  0  0  0  0999 V2000
  190.5190  177.8080  144.3380 C   0  0  1  0  0  3  0  0  0  0  0  0
  190.9340  177.2580  139.2290 C   0  0  0  0  0  0  0  0  0  0  0  0
  188.2930  177.3020  138.1040 C   0  0  2  0  0  3  0  0  0  0  0  0
  191.3520  177.3810  142.0000 C   0  0  0  0  0  0  0  0  0  0  0  0
  189.1690  177.3190  143.8250 C   0  0  0  0  0  2  0  0  0  0  0  0
  190.7700  177.2650  145.5960 O   0  0  0  0  0  1  0  0  0  0  0  0
  190.0540  177.5630  141.4840 C   0  0  0  0  0  0  0  0  0  0  0  0
  191.5770  177.4140  143.4130 N   0  0  0  0  0  2  0  0  0  0  0  0
  188.9200  177.8850  142.4270 C   0  0  0  0  0  2  0  0  0  0  0  0
  188.4730  177.8140  139.5350 C   0  0  0  0  0  2  0  0  0  0  0  0
  189.8400  177.5050  140.0930 C   0  0  0  0  0  0  0  0  0  0  0  0
  192.2100  177.0560  139.7630 C   0  0  0  0  0  3  0  0  0  0  0  0
  190.7570  177.1060  137.7400 C   0  0  2  0  0  3  0  0  0  0  0  0
  189.4640  177.7540  137.2400 C   0  0  0  0  0  2  0  0  0  0  0  0
  192.4190  177.1180  141.1400 C   0  0  0  0  0  3  0  0  0  0  0  0
  186.9530  177.7300  137.5010 C   0  0  2  0  0  3  0  0  0  0  0  0
  187.1310  178.5310  136.2150 C   0  0  0  0  0  1  0  0  0  0  0  0
  186.2070  178.5110  138.4780 N   0  0  0  0  0  2  0  0  0  0  0  0
  184.7880  178.4330  138.6310 C   0  0  0  0  0  0  0  0  0  0  0  0
  184.1110  177.6230  137.9430 O   0  0  0  0  0  0  0  0  0  0  0  0
  184.1010  179.3430  139.5920 C   0  0  0  0  0  2  0  0  0  0  0  0
  183.9940  178.7060  140.9780 C   0  0  2  0  0  0  0  0  0  0  0  0
  185.0570  179.0080  141.9740 C   0  0  1  0  0  0  0  0  0  0  0  0
  185.0600  177.8150  141.2210 O   0  0  0  0  0  0  0  0  0  0  0  0
  186.1000  179.8490  141.5800 O   0  0  0  0  0  1  0  0  0  0  0  0
  184.8840  178.7490  143.4430 C   0  0  0  0  0  0  0  0  0  0  0  0
  183.5950  179.0000  145.6140 C   0  0  0  0  0  2  0  0  0  0  0  0
  185.7000  177.6950  145.5600 C   0  0  0  0  0  2  0  0  0  0  0  0
  184.9340  178.7830  146.3030 C   0  0  0  0  0  2  0  0  0  0  0  0
  185.7900  177.9920  144.0870 C   0  0  0  0  0  3  0  0  0  0  0  0
  183.8210  179.5200  144.1940 C   0  0  0  0  0  2  0  0  0  0  0  0
  182.6650  178.1160  141.4510 C   0  0  0  0  0  2  0  0  0  0  0  0
  180.7630  179.5630  141.4960 O   0  0  0  0  0  1  0  0  0  0  0  0
  181.4910  178.6980  140.6800 C   0  0  0  0  0  2  0  0  0  0  0  0
  190.7740  175.7220  137.3990 O   0  0  0  0  0  0  0  0  0  0  0  0
  193.0600  173.0930  136.1000 C   0  0  0  0  0  3  0  0  0  0  0  0
  194.1150  173.8820  135.6160 C   0  0  0  0  0  0  0  0  0  0  0  0
  192.9260  175.8750  136.3290 C   0  0  0  0  0  3  0  0  0  0  0  0
  191.9460  173.6930  136.6950 C   0  0  0  0  0  3  0  0  0  0  0  0
  191.8750  175.0900  136.8120 C   0  0  0  0  0  0  0  0  0  0  0  0
  194.0410  175.2740  135.7350 C   0  0  0  0  0  3  0  0  0  0  0  0
  195.2420  173.3150  135.0160 O   0  0  0  0  0  0  0  0  0  0  0  0
  196.5630  173.5660  135.4750 C   0  0  0  0  0  1  0  0  0  0  0  0
  1  6  1  1  0  0  0
  2 12  2  0  0  0  0
  2 11  1  0  0  0  0
  3 16  1  6  0  0  0
  3 10  1  0  0  0  0
  4  8  1  0  0  0  0
  5  1  1  0  0  0  0
  7  4  1  0  0  0  0
  7  9  1  0  0  0  0
  8  1  1  0  0  0  0
  9  5  1  0  0  0  0
 10 11  1  0  0  0  0
 11  7  2  0  0  0  0
 12 15  1  0  0  0  0
 13 35  1  1  0  0  0
 13  2  1  0  0  0  0
 14 13  1  0  0  0  0
 14  3  1  0  0  0  0
 15  4  2  0  0  0  0
 16 17  1  6  0  0  0
 16 18  1  0  0  0  0
 18 19  1  0  0  0  0
 19 21  1  0  0  0  0
 20 19  2  0  0  0  0
 22 21  1  6  0  0  0
 22 24  1  0  0  0  0
 22 32  1  0  0  0  0
 22 23  1  0  0  0  0
 23 25  1  6  0  0  0
 23 26  1  0  0  0  0
 24 23  1  0  0  0  0
 26 30  2  0  0  0  0
 26 31  1  0  0  0  0
 27 29  1  0  0  0  0
 28 29  1  0  0  0  0
 30 28  1  0  0  0  0
 31 27  1  0  0  0  0
 34 32  1  0  0  0  0
 34 33  1  0  0  0  0
 36 39  1  0  0  0  0
 37 41  1  0  0  0  0
 37 36  2  0  0  0  0
 38 40  1  0  0  0  0
 39 40  2  0  0  0  0
 40 35  1  0  0  0  0
 41 38  2  0  0  0  0
 42 43  1  0  0  0  0
 42 37  1  0  0  0  0
M  END
>  <MODEL>
2

>  <REMARK>
 VINA RESULT:      -8.5      3.270      8.995
  Name = 
  10 active torsions:
  status: ('A' for Active; 'I' for Inactive)
    1  A    between atoms: O_1  and  C_34
    2  A    between atoms: O_1  and  C_35
    3  A    between atoms: C_2  and  N_6
    4  A    between atoms: C_2  and  C_13
    5  A    between atoms: C_3  and  C_4
    6  A    between atoms: C_3  and  C_12
    7  A    between atoms: C_4  and  C_15
    8  A    between atoms: C_11  and  C_14
    9  A    between atoms: C_15  and  C_42
   10  A    between atoms: C_19  and  O_25
                            x       y       z     vdW  Elec       q    Type
                         _______ _______ _______ _____ _____    ______ ____

>  <TORSDO>
F 10

$$$$
=
 OpenBabel11052416253D

 43 48  0  0  1  0  0  0  0  0999 V2000
  180.0190  178.8550  143.5690 C   0  0  1  0  0  3  0  0  0  0  0  0
  185.1210  178.7820  142.8310 C   0  0  0  0  0  0  0  0  0  0  0  0
  185.6190  178.1380  140.0770 C   0  0  2  0  0  3  0  0  0  0  0  0
  182.5180  178.8380  143.8780 C   0  0  0  0  0  0  0  0  0  0  0  0
  180.2820  178.0330  142.3120 C   0  0  0  0  0  2  0  0  0  0  0  0
  178.9310  178.3270  144.2600 O   0  0  0  0  0  1  0  0  0  0  0  0
  182.7070  178.6730  142.4910 C   0  0  0  0  0  0  0  0  0  0  0  0
  181.1980  178.8430  144.4290 N   0  0  0  0  0  2  0  0  0  0  0  0
  181.5020  178.5940  141.5840 C   0  0  0  0  0  2  0  0  0  0  0  0
  184.2090  178.5850  140.4670 C   0  0  0  0  0  2  0  0  0  0  0  0
  184.0120  178.6470  141.9600 C   0  0  0  0  0  0  0  0  0  0  0  0
  184.9120  178.9200  144.2060 C   0  0  0  0  0  3  0  0  0  0  0  0
  186.5400  178.6810  142.3350 C   0  0  2  0  0  3  0  0  0  0  0  0
  186.6520  178.9620  140.8350 C   0  0  0  0  0  2  0  0  0  0  0  0
  183.6190  178.9500  144.7270 C   0  0  0  0  0  3  0  0  0  0  0  0
  185.8500  178.2010  138.5660 C   0  0  2  0  0  3  0  0  0  0  0  0
  184.5400  178.1790  137.7830 C   0  0  0  0  0  1  0  0  0  0  0  0
  186.6980  177.0900  138.1560 N   0  0  0  0  0  2  0  0  0  0  0  0
  187.5240  177.1170  136.9900 C   0  0  0  0  0  0  0  0  0  0  0  0
  187.5960  178.1540  136.2780 O   0  0  0  0  0  0  0  0  0  0  0  0
  188.2830  175.8940  136.5980 C   0  0  0  0  0  2  0  0  0  0  0  0
  189.7260  175.9540  137.1000 C   0  0  2  0  0  0  0  0  0  0  0  0
  190.7240  175.0430  136.4780 C   0  0  1  0  0  0  0  0  0  0  0  0
  190.1110  174.7440  137.7140 O   0  0  0  0  0  0  0  0  0  0  0  0
  190.2800  174.1730  135.4790 O   0  0  0  0  0  1  0  0  0  0  0  0
  192.2040  175.2500  136.6170 C   0  0  0  0  0  0  0  0  0  0  0  0
  194.3910  176.2850  135.8530 C   0  0  0  0  0  2  0  0  0  0  0  0
  194.3410  174.8120  137.8440 C   0  0  0  0  0  2  0  0  0  0  0  0
  195.0600  175.0980  136.5310 C   0  0  0  0  0  2  0  0  0  0  0  0
  192.8560  174.6660  137.6390 C   0  0  0  0  0  3  0  0  0  0  0  0
  192.9500  175.9290  135.4890 C   0  0  0  0  0  2  0  0  0  0  0  0
  190.2090  177.1590  137.9070 C   0  0  0  0  0  2  0  0  0  0  0  0
  191.4350  177.0960  139.9590 O   0  0  0  0  0  1  0  0  0  0  0  0
  190.1750  176.8790  139.4010 C   0  0  0  0  0  2  0  0  0  0  0  0
  187.0560  177.3860  142.6310 O   0  0  0  0  0  0  0  0  0  0  0  0
  189.6100  177.4810  145.3310 C   0  0  0  0  0  3  0  0  0  0  0  0
  190.6310  176.7140  144.7490 C   0  0  0  0  0  0  0  0  0  0  0  0
  189.2540  176.4110  142.7740 C   0  0  0  0  0  3  0  0  0  0  0  0
  188.4190  177.7120  144.6360 C   0  0  0  0  0  3  0  0  0  0  0  0
  188.2360  177.1770  143.3510 C   0  0  0  0  0  0  0  0  0  0  0  0
  190.4460  176.1820  143.4690 C   0  0  0  0  0  3  0  0  0  0  0  0
  191.8330  176.4640  145.4170 O   0  0  0  0  0  0  0  0  0  0  0  0
  191.8850  176.0570  146.7780 C   0  0  0  0  0  1  0  0  0  0  0  0
  1  6  1  1  0  0  0
  1  8  1  0  0  0  0
  2 12  1  0  0  0  0
  3 16  1  6  0  0  0
  3 10  1  0  0  0  0
  3 14  1  0  0  0  0
  4  8  1  0  0  0  0
  4 15  1  0  0  0  0
  5  1  1  0  0  0  0
  7  4  2  0  0  0  0
  9  5  1  0  0  0  0
  9  7  1  0  0  0  0
 10 11  1  0  0  0  0
 11  7  1  0  0  0  0
 11  2  2  0  0  0  0
 12 15  2  0  0  0  0
 13 35  1  6  0  0  0
 13  2  1  0  0  0  0
 14 13  1  0  0  0  0
 16 17  1  6  0  0  0
 18 16  1  0  0  0  0
 19 18  1  0  0  0  0
 20 19  2  0  0  0  0
 21 19  1  0  0  0  0
 22 21  1  6  0  0  0
 22 24  1  0  0  0  0
 22 32  1  0  0  0  0
 23 25  1  6  0  0  0
 23 26  1  0  0  0  0
 23 22  1  0  0  0  0
 23 24  1  0  0  0  0
 26 30  2  0  0  0  0
 27 29  1  0  0  0  0
 29 28  1  0  0  0  0
 30 28  1  0  0  0  0
 31 27  1  0  0  0  0
 31 26  1  0  0  0  0
 32 34  1  0  0  0  0
 34 33  1  0  0  0  0
 35 40  1  0  0  0  0
 37 36  1  0  0  0  0
 37 42  1  0  0  0  0
 38 40  2  0  0  0  0
 38 41  1  0  0  0  0
 39 36  2  0  0  0  0
 40 39  1  0  0  0  0
 41 37  2  0  0  0  0
 42 43  1  0  0  0  0
M  END
>  <MODEL>
3

>  <REMARK>
 VINA RESULT:      -8.4      3.169      7.682
  Name = 
  10 active torsions:
  status: ('A' for Active; 'I' for Inactive)
    1  A    between atoms: O_1  and  C_34
    2  A    between atoms: O_1  and  C_35
    3  A    between atoms: C_2  and  N_6
    4  A    between atoms: C_2  and  C_13
    5  A    between atoms: C_3  and  C_4
    6  A    between atoms: C_3  and  C_12
    7  A    between atoms: C_4  and  C_15
    8  A    between atoms: C_11  and  C_14
    9  A    between atoms: C_15  and  C_42
   10  A    between atoms: C_19  and  O_25
                            x       y       z     vdW  Elec       q    Type
                         _______ _______ _______ _____ _____    ______ ____

>  <TORSDO>
F 10

$$$$
=
 OpenBabel11052416253D

 43 48  0  0  1  0  0  0  0  0999 V2000
  179.8730  175.9920  135.2500 C   0  0  1  0  0  3  0  0  0  0  0  0
  182.2450  178.3100  139.1970 C   0  0  0  0  0  0  0  0  0  0  0  0
  185.0800  178.0890  138.7950 C   0  0  2  0  0  3  0  0  0  0  0  0
  180.4150  177.1160  137.4380 C   0  0  0  0  0  0  0  0  0  0  0  0
  181.2930  175.4400  135.3110 C   0  0  0  0  0  2  0  0  0  0  0  0
  178.9950  174.9920  134.8390 O   0  0  0  0  0  1  0  0  0  0  0  0
  181.7870  177.1170  137.1190 C   0  0  0  0  0  0  0  0  0  0  0  0
  179.4730  176.4880  136.5630 N   0  0  0  0  0  2  0  0  0  0  0  0
  182.2430  176.5310  135.8040 C   0  0  0  0  0  2  0  0  0  0  0  0
  184.1610  177.8190  137.6020 C   0  0  0  0  0  2  0  0  0  0  0  0
  182.7100  177.7180  137.9980 C   0  0  0  0  0  0  0  0  0  0  0  0
  180.8820  178.2770  139.5060 C   0  0  0  0  0  3  0  0  0  0  0  0
  183.1890  178.8970  140.2150 C   0  0  2  0  0  3  0  0  0  0  0  0
  184.5440  179.2630  139.6060 C   0  0  0  0  0  2  0  0  0  0  0  0
  179.9720  177.6850  138.6310 C   0  0  0  0  0  3  0  0  0  0  0  0
  186.5310  178.3170  138.3690 C   0  0  2  0  0  3  0  0  0  0  0  0
  186.7410  178.0540  136.8810 C   0  0  0  0  0  1  0  0  0  0  0  0
  187.4100  177.4650  139.1590 N   0  0  0  0  0  2  0  0  0  0  0  0
  188.7030  177.8700  139.6100 C   0  0  0  0  0  0  0  0  0  0  0  0
  189.1270  179.0350  139.3840 O   0  0  0  0  0  0  0  0  0  0  0  0
  189.5710  176.8930  140.3300 C   0  0  0  0  0  2  0  0  0  0  0  0
  189.9700  177.4180  141.7090 C   0  0  2  0  0  0  0  0  0  0  0  0
  189.2380  176.9020  142.8970 C   0  0  1  0  0  0  0  0  0  0  0  0
  188.9210  178.1460  142.3090 O   0  0  0  0  0  0  0  0  0  0  0  0
  188.2160  175.9740  142.6810 O   0  0  0  0  0  1  0  0  0  0  0  0
  189.7600  177.0540  144.2960 C   0  0  0  0  0  0  0  0  0  0  0  0
  191.5720  176.7450  146.0450 C   0  0  0  0  0  2  0  0  0  0  0  0
  189.4390  177.8530  146.6450 C   0  0  0  0  0  2  0  0  0  0  0  0
  190.4400  176.7810  147.0620 C   0  0  0  0  0  2  0  0  0  0  0  0
  188.9980  177.6710  145.2170 C   0  0  0  0  0  3  0  0  0  0  0  0
  191.0280  176.3240  144.6800 C   0  0  0  0  0  2  0  0  0  0  0  0
  191.3110  178.1260  141.9010 C   0  0  0  0  0  2  0  0  0  0  0  0
  192.4080  177.9640  139.7830 O   0  0  0  0  0  1  0  0  0  0  0  0
  192.4120  177.4660  141.0860 C   0  0  0  0  0  2  0  0  0  0  0  0
  183.3660  177.9740  141.2860 O   0  0  0  0  0  0  0  0  0  0  0  0
  183.5810  179.3360  144.7390 C   0  0  0  0  0  3  0  0  0  0  0  0
  184.9190  179.0480  145.0490 C   0  0  0  0  0  0  0  0  0  0  0  0
  185.1950  178.0550  142.8520 C   0  0  0  0  0  3  0  0  0  0  0  0
  183.0550  178.9850  143.4920 C   0  0  0  0  0  3  0  0  0  0  0  0
  183.8630  178.3410  142.5400 C   0  0  0  0  0  0  0  0  0  0  0  0
  185.7210  178.4080  144.0990 C   0  0  0  0  0  3  0  0  0  0  0  0
  185.4760  179.3850  146.2850 O   0  0  0  0  0  0  0  0  0  0  0  0
  185.7650  178.4170  147.2850 C   0  0  0  0  0  1  0  0  0  0  0  0
  1  6  1  1  0  0  0
  1  5  1  0  0  0  0
  1  8  1  0  0  0  0
  2 12  1  0  0  0  0
  2 13  1  0  0  0  0
  3 16  1  6  0  0  0
  3 14  1  0  0  0  0
  4 15  1  0  0  0  0
  5  9  1  0  0  0  0
  7  4  2  0  0  0  0
  7 11  1  0  0  0  0
  8  4  1  0  0  0  0
  9  7  1  0  0  0  0
 10 11  1  0  0  0  0
 10  3  1  0  0  0  0
 11  2  2  0  0  0  0
 13 35  1  1  0  0  0
 14 13  1  0  0  0  0
 15 12  2  0  0  0  0
 16 17  1  6  0  0  0
 16 18  1  0  0  0  0
 18 19  1  0  0  0  0
 19 21  1  0  0  0  0
 20 19  2  0  0  0  0
 22 21  1  6  0  0  0
 22 32  1  0  0  0  0
 22 24  1  0  0  0  0
 22 23  1  0  0  0  0
 23 25  1  6  0  0  0
 23 26  1  0  0  0  0
 24 23  1  0  0  0  0
 26 31  1  0  0  0  0
 26 30  2  0  0  0  0
 27 29  1  0  0  0  0
 28 29  1  0  0  0  0
 30 28  1  0  0  0  0
 31 27  1  0  0  0  0
 33 34  1  0  0  0  0
 34 32  1  0  0  0  0
 35 40  1  0  0  0  0
 36 37  1  0  0  0  0
 37 42  1  0  0  0  0
 38 41  1  0  0  0  0
 39 36  2  0  0  0  0
 40 38  2  0  0  0  0
 40 39  1  0  0  0  0
 41 37  2  0  0  0  0
 42 43  1  0  0  0  0
M  END
>  <MODEL>
4

>  <REMARK>
 VINA RESULT:      -8.0      2.492      6.167
  Name = 
  10 active torsions:
  status: ('A' for Active; 'I' for Inactive)
    1  A    between atoms: O_1  and  C_34
    2  A    between atoms: O_1  and  C_35
    3  A    between atoms: C_2  and  N_6
    4  A    between atoms: C_2  and  C_13
    5  A    between atoms: C_3  and  C_4
    6  A    between atoms: C_3  and  C_12
    7  A    between atoms: C_4  and  C_15
    8  A    between atoms: C_11  and  C_14
    9  A    between atoms: C_15  and  C_42
   10  A    between atoms: C_19  and  O_25
                            x       y       z     vdW  Elec       q    Type
                         _______ _______ _______ _____ _____    ______ ____

>  <TORSDO>
F 10

$$$$
=
 OpenBabel11052416253D

 43 48  0  0  1  0  0  0  0  0999 V2000
  187.8010  178.1560  144.7180 C   0  0  1  0  0  3  0  0  0  0  0  0
  190.5330  177.3510  140.4210 C   0  0  0  0  0  0  0  0  0  0  0  0
  188.6950  176.9210  138.2570 C   0  0  2  0  0  3  0  0  0  0  0  0
  189.6400  177.7120  143.0560 C   0  0  0  0  0  0  0  0  0  0  0  0
  186.8890  177.4350  143.7310 C   0  0  0  0  0  2  0  0  0  0  0  0
  187.5150  177.7390  146.0160 O   0  0  0  0  0  1  0  0  0  0  0  0
  188.7030  177.6620  142.0050 C   0  0  0  0  0  0  0  0  0  0  0  0
  189.1980  177.8700  144.4070 N   0  0  0  0  0  2  0  0  0  0  0  0
  187.2380  177.8670  142.3070 C   0  0  0  0  0  2  0  0  0  0  0  0
  188.1550  177.5440  139.5460 C   0  0  0  0  0  2  0  0  0  0  0  0
  189.1470  177.4830  140.6800 C   0  0  0  0  0  0  0  0  0  0  0  0
  191.4440  177.3800  141.4810 C   0  0  0  0  0  3  0  0  0  0  0  0
  191.0640  177.0790  139.0370 C   0  0  2  0  0  3  0  0  0  0  0  0
  190.0740  177.4900  137.9450 C   0  0  0  0  0  2  0  0  0  0  0  0
  191.0010  177.5610  142.7900 C   0  0  0  0  0  3  0  0  0  0  0  0
  187.7350  177.1000  137.0800 C   0  0  2  0  0  3  0  0  0  0  0  0
  188.3670  177.8880  135.9370 C   0  0  0  0  0  1  0  0  0  0  0  0
  186.5230  177.7660  137.5380 N   0  0  0  0  0  2  0  0  0  0  0  0
  185.2060  177.2990  137.2370 C   0  0  0  0  0  0  0  0  0  0  0  0
  185.0340  176.2320  136.5910 O   0  0  0  0  0  0  0  0  0  0  0  0
  184.0250  178.1030  137.6680 C   0  0  0  0  0  2  0  0  0  0  0  0
  183.6290  177.7760  139.1080 C   0  0  2  0  0  0  0  0  0  0  0  0
  183.7050  178.8630  140.1210 C   0  0  1  0  0  0  0  0  0  0  0  0
  184.7260  177.8990  139.9870 O   0  0  0  0  0  0  0  0  0  0  0  0
  184.1470  180.1190  139.6990 O   0  0  0  0  0  1  0  0  0  0  0  0
  183.0170  178.7760  141.4520 C   0  0  0  0  0  0  0  0  0  0  0  0
  180.9180  178.6450  142.8720 C   0  0  0  0  0  2  0  0  0  0  0  0
  183.1500  178.6270  143.9470 C   0  0  0  0  0  2  0  0  0  0  0  0
  181.7630  179.2590  143.9790 C   0  0  0  0  0  2  0  0  0  0  0  0
  183.7590  178.7030  142.5720 C   0  0  0  0  0  3  0  0  0  0  0  0
  181.5200  178.9880  141.5090 C   0  0  0  0  0  2  0  0  0  0  0  0
  182.8160  176.5190  139.4140 C   0  0  0  0  0  2  0  0  0  0  0  0
  181.4190  174.8720  138.3880 O   0  0  0  0  0  1  0  0  0  0  0  0
  181.8420  176.1980  138.2920 C   0  0  0  0  0  2  0  0  0  0  0  0
  191.3810  175.6950  138.9140 O   0  0  0  0  0  0  0  0  0  0  0  0
  194.4250  175.2060  136.8350 C   0  0  0  0  0  3  0  0  0  0  0  0
  194.0150  174.1380  136.0220 C   0  0  0  0  0  0  0  0  0  0  0  0
  191.8660  174.1290  137.1490 C   0  0  0  0  0  3  0  0  0  0  0  0
  193.5580  175.7320  137.7970 C   0  0  0  0  0  3  0  0  0  0  0  0
  192.2710  175.1940  137.9590 C   0  0  0  0  0  0  0  0  0  0  0  0
  192.7330  173.6040  136.1850 C   0  0  0  0  0  3  0  0  0  0  0  0
  194.8560  173.5890  135.0510 O   0  0  0  0  0  0  0  0  0  0  0  0
  195.5220  172.3450  135.2270 C   0  0  0  0  0  1  0  0  0  0  0  0
  1  6  1  1  0  0  0
  2 11  2  0  0  0  0
  2 12  1  0  0  0  0
  3 16  1  6  0  0  0
  3 10  1  0  0  0  0
  4  8  1  0  0  0  0
  5  1  1  0  0  0  0
  7  9  1  0  0  0  0
  7  4  2  0  0  0  0
  8  1  1  0  0  0  0
  9  5  1  0  0  0  0
 10 11  1  0  0  0  0
 11  7  1  0  0  0  0
 12 15  2  0  0  0  0
 13 35  1  1  0  0  0
 13  2  1  0  0  0  0
 14  3  1  0  0  0  0
 14 13  1  0  0  0  0
 15  4  1  0  0  0  0
 16 17  1  6  0  0  0
 16 18  1  0  0  0  0
 19 18  1  0  0  0  0
 19 21  1  0  0  0  0
 20 19  2  0  0  0  0
 22 21  1  6  0  0  0
 22 32  1  0  0  0  0
 22 24  1  0  0  0  0
 22 23  1  0  0  0  0
 23 25  1  6  0  0  0
 23 26  1  0  0  0  0
 24 23  1  0  0  0  0
 26 31  1  0  0  0  0
 26 30  2  0  0  0  0
 27 29  1  0  0  0  0
 28 29  1  0  0  0  0
 30 28  1  0  0  0  0
 31 27  1  0  0  0  0
 34 33  1  0  0  0  0
 34 32  1  0  0  0  0
 36 39  1  0  0  0  0
 37 41  1  0  0  0  0
 37 36  2  0  0  0  0
 38 40  1  0  0  0  0
 39 40  2  0  0  0  0
 40 35  1  0  0  0  0
 41 38  2  0  0  0  0
 42 43  1  0  0  0  0
 42 37  1  0  0  0  0
M  END
>  <MODEL>
5

>  <REMARK>
 VINA RESULT:      -8.0      3.214      9.114
  Name = 
  10 active torsions:
  status: ('A' for Active; 'I' for Inactive)
    1  A    between atoms: O_1  and  C_34
    2  A    between atoms: O_1  and  C_35
    3  A    between atoms: C_2  and  N_6
    4  A    between atoms: C_2  and  C_13
    5  A    between atoms: C_3  and  C_4
    6  A    between atoms: C_3  and  C_12
    7  A    between atoms: C_4  and  C_15
    8  A    between atoms: C_11  and  C_14
    9  A    between atoms: C_15  and  C_42
   10  A    between atoms: C_19  and  O_25
                            x       y       z     vdW  Elec       q    Type
                         _______ _______ _______ _____ _____    ______ ____

>  <TORSDO>
F 10

$$$$
=
 OpenBabel11052416253D

 43 48  0  0  1  0  0  0  0  0999 V2000
  188.9390  177.7620  145.4490 C   0  0  1  0  0  3  0  0  0  0  0  0
  190.8690  177.2320  140.6980 C   0  0  0  0  0  0  0  0  0  0  0  0
  188.6940  177.3650  138.8260 C   0  0  2  0  0  3  0  0  0  0  0  0
  190.4300  177.3230  143.4670 C   0  0  0  0  0  0  0  0  0  0  0  0
  187.7950  177.3200  144.5440 C   0  0  0  0  0  2  0  0  0  0  0  0
  188.7820  177.2040  146.7160 O   0  0  0  0  0  1  0  0  0  0  0  0
  189.3550  177.5500  142.5850 C   0  0  0  0  0  0  0  0  0  0  0  0
  190.2160  177.3420  144.8820 N   0  0  0  0  0  2  0  0  0  0  0  0
  187.9980  177.9020  143.1460 C   0  0  0  0  0  2  0  0  0  0  0  0
  188.4470  177.8620  140.2530 C   0  0  0  0  0  2  0  0  0  0  0  0
  189.5710  177.5080  141.1930 C   0  0  0  0  0  0  0  0  0  0  0  0
  191.9160  176.9860  141.5910 C   0  0  0  0  0  3  0  0  0  0  0  0
  191.1460  177.0940  139.2230 C   0  0  2  0  0  3  0  0  0  0  0  0
  190.0850  177.7860  138.3650 C   0  0  0  0  0  2  0  0  0  0  0  0
  191.6990  177.0330  142.9670 C   0  0  0  0  0  3  0  0  0  0  0  0
  187.6140  177.8390  137.8530 C   0  0  2  0  0  3  0  0  0  0  0  0
  188.1910  178.6770  136.7160 C   0  0  0  0  0  1  0  0  0  0  0  0
  186.6060  178.6020  138.5780 N   0  0  0  0  0  2  0  0  0  0  0  0
  185.2010  178.4580  138.3600 C   0  0  0  0  0  0  0  0  0  0  0  0
  184.7610  177.6020  137.5480 O   0  0  0  0  0  0  0  0  0  0  0  0
  184.2510  179.3540  139.0810 C   0  0  0  0  0  2  0  0  0  0  0  0
  183.1870  178.5470  139.8260 C   0  0  2  0  0  0  0  0  0  0  0  0
  181.8930  178.2880  139.1410 C   0  0  1  0  0  0  0  0  0  0  0  0
  182.0390  179.3230  140.0890 O   0  0  0  0  0  0  0  0  0  0  0  0
  181.7190  178.8090  137.8560 O   0  0  0  0  0  1  0  0  0  0  0  0
  180.9320  177.2300  139.6020 C   0  0  0  0  0  0  0  0  0  0  0  0
  178.9310  176.4800  140.9690 C   0  0  0  0  0  2  0  0  0  0  0  0
  180.1360  174.8590  139.5350 C   0  0  0  0  0  2  0  0  0  0  0  0
  179.5620  175.0960  140.9270 C   0  0  0  0  0  2  0  0  0  0  0  0
  181.0490  175.9810  139.1150 C   0  0  0  0  0  3  0  0  0  0  0  0
  180.0050  177.5470  140.7540 C   0  0  0  0  0  2  0  0  0  0  0  0
  183.5740  177.7080  141.0440 C   0  0  0  0  0  2  0  0  0  0  0  0
  184.6090  179.3130  142.4830 O   0  0  0  0  0  1  0  0  0  0  0  0
  183.4770  178.5130  142.3300 C   0  0  0  0  0  2  0  0  0  0  0  0
  191.2270  175.7120  138.8820 O   0  0  0  0  0  0  0  0  0  0  0  0
  192.5710  173.6710  136.0800 C   0  0  0  0  0  3  0  0  0  0  0  0
  193.8280  174.2700  135.9020 C   0  0  0  0  0  0  0  0  0  0  0  0
  193.3280  175.8110  137.7080 C   0  0  0  0  0  3  0  0  0  0  0  0
  191.7000  174.1410  137.0670 C   0  0  0  0  0  3  0  0  0  0  0  0
  192.0760  175.2160  137.8880 C   0  0  0  0  0  0  0  0  0  0  0  0
  194.2000  175.3400  136.7210 C   0  0  0  0  0  3  0  0  0  0  0  0
  194.7220  173.8250  134.9250 O   0  0  0  0  0  0  0  0  0  0  0  0
  196.0790  174.2450  134.8800 C   0  0  0  0  0  1  0  0  0  0  0  0
  1  6  1  1  0  0  0
  2 11  2  0  0  0  0
  2 12  1  0  0  0  0
  3 16  1  6  0  0  0
  3 10  1  0  0  0  0
  4  8  1  0  0  0  0
  5  1  1  0  0  0  0
  7  9  1  0  0  0  0
  7  4  2  0  0  0  0
  8  1  1  0  0  0  0
  9  5  1  0  0  0  0
 10 11  1  0  0  0  0
 11  7  1  0  0  0  0
 12 15  2  0  0  0  0
 13 35  1  6  0  0  0
 13  2  1  0  0  0  0
 14  3  1  0  0  0  0
 14 13  1  0  0  0  0
 15  4  1  0  0  0  0
 16 17  1  6  0  0  0
 16 18  1  0  0  0  0
 19 18  1  0  0  0  0
 19 21  1  0  0  0  0
 20 19  2  0  0  0  0
 22 21  1  6  0  0  0
 22 24  1  0  0  0  0
 22 32  1  0  0  0  0
 23 25  1  6  0  0  0
 23 26  1  0  0  0  0
 23 22  1  0  0  0  0
 23 24  1  0  0  0  0
 26 31  1  0  0  0  0
 28 29  1  0  0  0  0
 29 27  1  0  0  0  0
 30 28  1  0  0  0  0
 30 26  2  0  0  0  0
 31 27  1  0  0  0  0
 32 34  1  0  0  0  0
 34 33  1  0  0  0  0
 36 39  1  0  0  0  0
 37 36  2  0  0  0  0
 37 41  1  0  0  0  0
 38 40  1  0  0  0  0
 39 40  2  0  0  0  0
 40 35  1  0  0  0  0
 41 38  2  0  0  0  0
 42 37  1  0  0  0  0
 43 42  1  0  0  0  0
M  END
>  <MODEL>
6

>  <REMARK>
 VINA RESULT:      -7.9      3.342      9.504
  Name = 
  10 active torsions:
  status: ('A' for Active; 'I' for Inactive)
    1  A    between atoms: O_1  and  C_34
    2  A    between atoms: O_1  and  C_35
    3  A    between atoms: C_2  and  N_6
    4  A    between atoms: C_2  and  C_13
    5  A    between atoms: C_3  and  C_4
    6  A    between atoms: C_3  and  C_12
    7  A    between atoms: C_4  and  C_15
    8  A    between atoms: C_11  and  C_14
    9  A    between atoms: C_15  and  C_42
   10  A    between atoms: C_19  and  O_25
                            x       y       z     vdW  Elec       q    Type
                         _______ _______ _______ _____ _____    ______ ____

>  <TORSDO>
F 10

$$$$
=
 OpenBabel11052416253D

 43 48  0  0  1  0  0  0  0  0999 V2000
  181.3150  178.6660  140.9370 C   0  0  1  0  0  3  0  0  0  0  0  0
  186.3900  178.6160  141.8370 C   0  0  0  0  0  0  0  0  0  0  0  0
  187.7200  177.7820  139.4320 C   0  0  2  0  0  3  0  0  0  0  0  0
  183.5920  178.7100  142.0110 C   0  0  0  0  0  0  0  0  0  0  0  0
  181.9510  177.7600  139.8890 C   0  0  0  0  0  2  0  0  0  0  0  0
  180.0600  178.1730  141.2890 O   0  0  0  0  0  1  0  0  0  0  0  0
  184.2030  178.4470  140.7690 C   0  0  0  0  0  0  0  0  0  0  0  0
  182.1660  178.7350  142.1200 N   0  0  0  0  0  2  0  0  0  0  0  0
  183.3430  178.2840  139.5390 C   0  0  0  0  0  2  0  0  0  0  0  0
  186.2620  178.2350  139.3280 C   0  0  0  0  0  2  0  0  0  0  0  0
  185.6080  178.4020  140.6760 C   0  0  0  0  0  0  0  0  0  0  0  0
  185.7630  178.8510  143.0640 C   0  0  0  0  0  3  0  0  0  0  0  0
  187.8930  178.5020  141.8190 C   0  0  2  0  0  3  0  0  0  0  0  0
  188.4710  178.6750  140.4130 C   0  0  0  0  0  2  0  0  0  0  0  0
  184.3730  178.8990  143.1510 C   0  0  0  0  0  3  0  0  0  0  0  0
  188.4120  177.7390  138.0690 C   0  0  2  0  0  3  0  0  0  0  0  0
  188.9900  179.0950  137.6750 C   0  0  0  0  0  1  0  0  0  0  0  0
  187.4680  177.2830  137.0580 N   0  0  0  0  0  2  0  0  0  0  0  0
  187.3790  175.9260  136.6180 C   0  0  0  0  0  0  0  0  0  0  0  0
  188.0970  175.0330  137.1410 O   0  0  0  0  0  0  0  0  0  0  0  0
  186.4480  175.5730  135.5080 C   0  0  0  0  0  2  0  0  0  0  0  0
  185.1660  174.9330  136.0420 C   0  0  2  0  0  0  0  0  0  0  0  0
  183.9420  175.7750  136.1230 C   0  0  1  0  0  0  0  0  0  0  0  0
  184.7540  175.5330  137.2510 O   0  0  0  0  0  0  0  0  0  0  0  0
  184.0390  177.1080  135.7150 O   0  0  0  0  0  1  0  0  0  0  0  0
  182.5690  175.1900  136.2790 C   0  0  0  0  0  0  0  0  0  0  0  0
  180.5750  174.5290  137.7030 C   0  0  0  0  0  2  0  0  0  0  0  0
  180.5350  174.1520  135.2550 C   0  0  0  0  0  2  0  0  0  0  0  0
  180.2760  173.5100  136.6130 C   0  0  0  0  0  2  0  0  0  0  0  0
  181.9090  174.7640  135.1860 C   0  0  0  0  0  3  0  0  0  0  0  0
  182.0580  174.9000  137.6730 C   0  0  0  0  0  2  0  0  0  0  0  0
  185.0390  173.4120  136.1120 C   0  0  0  0  0  2  0  0  0  0  0  0
  186.5030  172.6670  137.8480 O   0  0  0  0  0  1  0  0  0  0  0  0
  185.1650  172.9060  137.5400 C   0  0  0  0  0  2  0  0  0  0  0  0
  188.2800  177.2390  142.3550 O   0  0  0  0  0  0  0  0  0  0  0  0
  191.3920  176.2930  144.1550 C   0  0  0  0  0  3  0  0  0  0  0  0
  191.1390  176.8460  145.4200 C   0  0  0  0  0  0  0  0  0  0  0  0
  188.9920  177.6460  144.6200 C   0  0  0  0  0  3  0  0  0  0  0  0
  190.4500  176.4160  143.1310 C   0  0  0  0  0  3  0  0  0  0  0  0
  189.2420  177.0950  143.3600 C   0  0  0  0  0  0  0  0  0  0  0  0
  189.9360  177.5220  145.6450 C   0  0  0  0  0  3  0  0  0  0  0  0
  192.0600  176.7410  146.4660 O   0  0  0  0  0  0  0  0  0  0  0  0
  192.0950  175.6270  147.3480 C   0  0  0  0  0  1  0  0  0  0  0  0
  1  6  1  1  0  0  0
  1  8  1  0  0  0  0
  2 12  1  0  0  0  0
  3 16  1  6  0  0  0
  3 14  1  0  0  0  0
  4  8  1  0  0  0  0
  4 15  1  0  0  0  0
  5  1  1  0  0  0  0
  7  4  2  0  0  0  0
  9  5  1  0  0  0  0
  9  7  1  0  0  0  0
 10  3  1  0  0  0  0
 10 11  1  0  0  0  0
 11  7  1  0  0  0  0
 11  2  2  0  0  0  0
 12 15  2  0  0  0  0
 13  2  1  0  0  0  0
 13 35  1  6  0  0  0
 14 13  1  0  0  0  0
 16 17  1  6  0  0  0
 18 16  1  0  0  0  0
 19 18  1  0  0  0  0
 19 20  2  0  0  0  0
 21 19  1  0  0  0  0
 22 21  1  6  0  0  0
 22 32  1  0  0  0  0
 22 23  1  0  0  0  0
 22 24  1  0  0  0  0
 23 25  1  6  0  0  0
 23 26  1  0  0  0  0
 23 24  1  0  0  0  0
 26 31  1  0  0  0  0
 28 29  1  0  0  0  0
 29 27  1  0  0  0  0
 30 28  1  0  0  0  0
 30 26  2  0  0  0  0
 31 27  1  0  0  0  0
 32 34  1  0  0  0  0
 34 33  1  0  0  0  0
 35 40  1  0  0  0  0
 36 37  1  0  0  0  0
 37 41  2  0  0  0  0
 37 42  1  0  0  0  0
 38 41  1  0  0  0  0
 39 40  1  0  0  0  0
 39 36  2  0  0  0  0
 40 38  2  0  0  0  0
 42 43  1  0  0  0  0
M  END
>  <MODEL>
7

>  <REMARK>
 VINA RESULT:      -7.9      3.229      9.174
  Name = 
  10 active torsions:
  status: ('A' for Active; 'I' for Inactive)
    1  A    between atoms: O_1  and  C_34
    2  A    between atoms: O_1  and  C_35
    3  A    between atoms: C_2  and  N_6
    4  A    between atoms: C_2  and  C_13
    5  A    between atoms: C_3  and  C_4
    6  A    between atoms: C_3  and  C_12
    7  A    between atoms: C_4  and  C_15
    8  A    between atoms: C_11  and  C_14
    9  A    between atoms: C_15  and  C_42
   10  A    between atoms: C_19  and  O_25
                            x       y       z     vdW  Elec       q    Type
                         _______ _______ _______ _____ _____    ______ ____

>  <TORSDO>
F 10

$$$$
=
 OpenBabel11052416253D

 43 48  0  0  1  0  0  0  0  0999 V2000
  183.6650  172.2930  135.8290 C   0  0  1  0  0  3  0  0  0  0  0  0
  185.3270  177.0150  137.0620 C   0  0  0  0  0  0  0  0  0  0  0  0
  188.0230  176.7940  138.0250 C   0  0  2  0  0  3  0  0  0  0  0  0
  183.8280  174.7500  136.3580 C   0  0  0  0  0  0  0  0  0  0  0  0
  184.8370  172.1230  136.7890 C   0  0  0  0  0  2  0  0  0  0  0  0
  182.7230  171.2910  136.0510 O   0  0  0  0  0  1  0  0  0  0  0  0
  185.1940  174.6090  136.6750 C   0  0  0  0  0  0  0  0  0  0  0  0
  183.0460  173.6000  136.0230 N   0  0  0  0  0  2  0  0  0  0  0  0
  185.8440  173.2510  136.5680 C   0  0  0  0  0  2  0  0  0  0  0  0
  187.4360  175.6100  137.2530 C   0  0  0  0  0  2  0  0  0  0  0  0
  185.9510  175.7440  137.0260 C   0  0  0  0  0  0  0  0  0  0  0  0
  183.9650  177.1280  136.7680 C   0  0  0  0  0  3  0  0  0  0  0  0
  186.0620  178.2530  137.5070 C   0  0  2  0  0  3  0  0  0  0  0  0
  187.5800  178.1030  137.3820 C   0  0  0  0  0  2  0  0  0  0  0  0
  183.2200  176.0040  136.4170 C   0  0  0  0  0  3  0  0  0  0  0  0
  189.5460  176.7130  138.1380 C   0  0  2  0  0  3  0  0  0  0  0  0
  190.1410  175.6900  137.1750 C   0  0  0  0  0  1  0  0  0  0  0  0
  189.9150  176.3850  139.5090 N   0  0  0  0  0  2  0  0  0  0  0  0
  189.9500  177.3450  140.5670 C   0  0  0  0  0  0  0  0  0  0  0  0
  189.5990  178.5380  140.3630 O   0  0  0  0  0  0  0  0  0  0  0  0
  190.4340  176.9350  141.9160 C   0  0  0  0  0  2  0  0  0  0  0  0
  189.6240  177.6090  143.0240 C   0  0  2  0  0  0  0  0  0  0  0  0
  188.5340  176.8300  143.6710 C   0  0  1  0  0  0  0  0  0  0  0  0
  188.2730  177.7700  142.6520 O   0  0  0  0  0  0  0  0  0  0  0  0
  188.3050  175.5280  143.2180 O   0  0  0  0  0  1  0  0  0  0  0  0
  187.9220  177.2320  144.9810 C   0  0  0  0  0  0  0  0  0  0  0  0
  185.9700  178.0780  146.3640 C   0  0  0  0  0  2  0  0  0  0  0  0
  188.1230  177.5260  147.4580 C   0  0  0  0  0  2  0  0  0  0  0  0
  187.0240  178.5760  147.3420 C   0  0  0  0  0  2  0  0  0  0  0  0
  188.6550  177.1320  146.1050 C   0  0  0  0  0  3  0  0  0  0  0  0
  186.5830  177.9350  144.9700 C   0  0  0  0  0  2  0  0  0  0  0  0
  190.1600  178.8650  143.7110 C   0  0  0  0  0  2  0  0  0  0  0  0
  191.9030  177.8480  144.9920 O   0  0  0  0  0  1  0  0  0  0  0  0
  191.6550  178.7640  143.9700 C   0  0  0  0  0  2  0  0  0  0  0  0
  185.7090  178.5560  138.8540 O   0  0  0  0  0  0  0  0  0  0  0  0
  182.4920  177.9220  140.6070 C   0  0  0  0  0  3  0  0  0  0  0  0
  181.7220  178.9950  140.1330 C   0  0  0  0  0  0  0  0  0  0  0  0
  183.6170  179.7500  138.8190 C   0  0  0  0  0  3  0  0  0  0  0  0
  183.8170  177.7660  140.1890 C   0  0  0  0  0  3  0  0  0  0  0  0
  184.3860  178.6820  139.2900 C   0  0  0  0  0  0  0  0  0  0  0  0
  182.2910  179.9050  139.2370 C   0  0  0  0  0  3  0  0  0  0  0  0
  180.3950  179.1800  140.5310 O   0  0  0  0  0  0  0  0  0  0  0  0
  180.0170  180.1320  141.5170 C   0  0  0  0  0  1  0  0  0  0  0  0
  1  8  1  0  0  0  0
  1  6  1  1  0  0  0
  1  5  1  0  0  0  0
  2 13  1  0  0  0  0
  3 16  1  6  0  0  0
  4 15  2  0  0  0  0
  4  7  1  0  0  0  0
  7 11  2  0  0  0  0
  8  4  1  0  0  0  0
  9  7  1  0  0  0  0
  9  5  1  0  0  0  0
 10  3  1  0  0  0  0
 11  2  1  0  0  0  0
 11 10  1  0  0  0  0
 12  2  2  0  0  0  0
 13 35  1  1  0  0  0
 14 13  1  0  0  0  0
 14  3  1  0  0  0  0
 15 12  1  0  0  0  0
 16 17  1  6  0  0  0
 16 18  1  0  0  0  0
 18 19  1  0  0  0  0
 19 21  1  0  0  0  0
 20 19  2  0  0  0  0
 22 21  1  6  0  0  0
 22 23  1  0  0  0  0
 22 32  1  0  0  0  0
 23 25  1  6  0  0  0
 23 26  1  0  0  0  0
 24 22  1  0  0  0  0
 24 23  1  0  0  0  0
 26 30  2  0  0  0  0
 27 29  1  0  0  0  0
 29 28  1  0  0  0  0
 30 28  1  0  0  0  0
 31 26  1  0  0  0  0
 31 27  1  0  0  0  0
 32 34  1  0  0  0  0
 34 33  1  0  0  0  0
 35 40  1  0  0  0  0
 37 42  1  0  0  0  0
 37 36  2  0  0  0  0
 38 41  2  0  0  0  0
 38 40  1  0  0  0  0
 39 36  1  0  0  0  0
 40 39  2  0  0  0  0
 41 37  1  0  0  0  0
 42 43  1  0  0  0  0
M  END
>  <MODEL>
8

>  <REMARK>
 VINA RESULT:      -7.9      2.966      5.701
  Name = 
  10 active torsions:
  status: ('A' for Active; 'I' for Inactive)
    1  A    between atoms: O_1  and  C_34
    2  A    between atoms: O_1  and  C_35
    3  A    between atoms: C_2  and  N_6
    4  A    between atoms: C_2  and  C_13
    5  A    between atoms: C_3  and  C_4
    6  A    between atoms: C_3  and  C_12
    7  A    between atoms: C_4  and  C_15
    8  A    between atoms: C_11  and  C_14
    9  A    between atoms: C_15  and  C_42
   10  A    between atoms: C_19  and  O_25
                            x       y       z     vdW  Elec       q    Type
                         _______ _______ _______ _____ _____    ______ ____

>  <TORSDO>
F 10

$$$$
=
 OpenBabel11052416253D

 43 48  0  0  1  0  0  0  0  0999 V2000
  195.1860  174.5070  137.4340 C   0  0  1  0  0  3  0  0  0  0  0  0
  190.1530  174.1700  136.3690 C   0  0  0  0  0  0  0  0  0  0  0  0
  188.7840  176.2160  137.8480 C   0  0  2  0  0  3  0  0  0  0  0  0
  192.9150  173.7620  136.6400 C   0  0  0  0  0  0  0  0  0  0  0  0
  194.4370  175.2030  138.5650 C   0  0  0  0  0  2  0  0  0  0  0  0
  196.3190  173.8720  137.9380 O   0  0  0  0  0  1  0  0  0  0  0  0
  192.3120  174.8730  137.2620 C   0  0  0  0  0  0  0  0  0  0  0  0
  194.3180  173.5260  136.7900 N   0  0  0  0  0  2  0  0  0  0  0  0
  193.1740  175.8610  138.0100 C   0  0  0  0  0  2  0  0  0  0  0  0
  190.3020  176.3330  137.6950 C   0  0  0  0  0  2  0  0  0  0  0  0
  190.9260  175.0840  137.1260 C   0  0  0  0  0  0  0  0  0  0  0  0
  190.7670  173.0610  135.7810 C   0  0  0  0  0  3  0  0  0  0  0  0
  188.6550  174.2970  136.2540 C   0  0  2  0  0  3  0  0  0  0  0  0
  188.1690  175.7180  136.5460 C   0  0  0  0  0  2  0  0  0  0  0  0
  192.1400  172.8580  135.9130 C   0  0  0  0  0  3  0  0  0  0  0  0
  188.1450  177.5290  138.3050 C   0  0  2  0  0  3  0  0  0  0  0  0
  188.2240  178.6100  137.2310 C   0  0  0  0  0  1  0  0  0  0  0  0
  188.7920  177.9860  139.5270 N   0  0  0  0  0  2  0  0  0  0  0  0
  188.0760  178.4690  140.6650 C   0  0  0  0  0  0  0  0  0  0  0  0
  186.8160  178.4670  140.6790 O   0  0  0  0  0  0  0  0  0  0  0  0
  188.8290  179.0070  141.8340 C   0  0  0  0  0  2  0  0  0  0  0  0
  189.2300  177.8900  142.7970 C   0  0  2  0  0  0  0  0  0  0  0  0
  190.4040  178.1130  143.6830 C   0  0  1  0  0  0  0  0  0  0  0  0
  190.5040  177.3720  142.4870 O   0  0  0  0  0  0  0  0  0  0  0  0
  191.0820  179.3300  143.5740 O   0  0  0  0  0  1  0  0  0  0  0  0
  190.6730  177.2700  144.8950 C   0  0  0  0  0  0  0  0  0  0  0  0
  190.1320  176.5320  147.2620 C   0  0  0  0  0  2  0  0  0  0  0  0
  192.0250  175.5020  146.0390 C   0  0  0  0  0  2  0  0  0  0  0  0
  191.6010  176.1420  147.3560 C   0  0  0  0  0  2  0  0  0  0  0  0
  191.6790  176.3770  144.8630 C   0  0  0  0  0  3  0  0  0  0  0  0
  189.9470  177.5970  146.1820 C   0  0  0  0  0  2  0  0  0  0  0  0
  188.2440  176.7680  143.1230 C   0  0  0  0  0  2  0  0  0  0  0  0
  186.8720  176.8830  145.0780 O   0  0  0  0  0  1  0  0  0  0  0  0
  186.9710  177.3100  143.7540 C   0  0  0  0  0  2  0  0  0  0  0  0
  188.0310  173.3730  137.1410 O   0  0  0  0  0  0  0  0  0  0  0  0
  184.4400  172.4230  137.2900 C   0  0  0  0  0  3  0  0  0  0  0  0
  184.3800  171.4720  136.2590 C   0  0  0  0  0  0  0  0  0  0  0  0
  186.7460  171.8060  135.8390 C   0  0  0  0  0  3  0  0  0  0  0  0
  185.6470  173.0590  137.5930 C   0  0  0  0  0  3  0  0  0  0  0  0
  186.8090  172.7520  136.8660 C   0  0  0  0  0  0  0  0  0  0  0  0
  185.5380  171.1690  135.5370 C   0  0  0  0  0  3  0  0  0  0  0  0
  183.1890  170.8180  135.9310 O   0  0  0  0  0  0  0  0  0  0  0  0
  181.9410  171.4940  135.8450 C   0  0  0  0  0  1  0  0  0  0  0  0
  1  6  1  1  0  0  0
  1  5  1  0  0  0  0
  2 11  1  0  0  0  0
  3 16  1  6  0  0  0
  4  8  1  0  0  0  0
  4  7  1  0  0  0  0
  7  9  1  0  0  0  0
  8  1  1  0  0  0  0
  9  5  1  0  0  0  0
 10  3  1  0  0  0  0
 11  7  2  0  0  0  0
 11 10  1  0  0  0  0
 12 15  1  0  0  0  0
 12  2  2  0  0  0  0
 13  2  1  0  0  0  0
 13 14  1  0  0  0  0
 13 35  1  1  0  0  0
 14  3  1  0  0  0  0
 15  4  2  0  0  0  0
 16 17  1  6  0  0  0
 16 18  1  0  0  0  0
 18 19  1  0  0  0  0
 19 20  2  0  0  0  0
 19 21  1  0  0  0  0
 22 21  1  6  0  0  0
 22 32  1  0  0  0  0
 22 23  1  0  0  0  0
 23 25  1  6  0  0  0
 23 26  1  0  0  0  0
 24 22  1  0  0  0  0
 24 23  1  0  0  0  0
 26 31  1  0  0  0  0
 27 29  1  0  0  0  0
 28 29  1  0  0  0  0
 30 26  2  0  0  0  0
 30 28  1  0  0  0  0
 31 27  1  0  0  0  0
 32 34  1  0  0  0  0
 34 33  1  0  0  0  0
 36 39  1  0  0  0  0
 37 36  2  0  0  0  0
 38 40  1  0  0  0  0
 40 35  1  0  0  0  0
 40 39  2  0  0  0  0
 41 38  2  0  0  0  0
 41 37  1  0  0  0  0
 42 37  1  0  0  0  0
 43 42  1  0  0  0  0
M  END
>  <MODEL>
9

>  <REMARK>
 VINA RESULT:      -7.8      4.672      8.433
  Name = 
  10 active torsions:
  status: ('A' for Active; 'I' for Inactive)
    1  A    between atoms: O_1  and  C_34
    2  A    between atoms: O_1  and  C_35
    3  A    between atoms: C_2  and  N_6
    4  A    between atoms: C_2  and  C_13
    5  A    between atoms: C_3  and  C_4
    6  A    between atoms: C_3  and  C_12
    7  A    between atoms: C_4  and  C_15
    8  A    between atoms: C_11  and  C_14
    9  A    between atoms: C_15  and  C_42
   10  A    between atoms: C_19  and  O_25
                            x       y       z     vdW  Elec       q    Type
                         _______ _______ _______ _____ _____    ______ ____

>  <TORSDO>
F 10

$$$$
