=
 OpenBabel11052415113D

 55 59  0  0  1  0  0  0  0  0999 V2000
  186.1030  177.6930  136.3560 O   0  0  0  0  0  0  0  0  0  0  0  0
  187.1800  175.8230  135.4510 N   0  0  0  0  0  0  0  0  0  0  0  0
  187.2100  178.1790  135.6550 C   0  0  0  0  0  2  0  0  0  0  0  0
  186.3740  176.3290  136.5540 C   0  0  2  0  0  3  0  0  0  0  0  0
  187.8400  177.0110  134.9440 C   0  0  0  0  0  2  0  0  0  0  0  0
  188.1960  174.9510  136.0250 C   0  0  0  0  0  2  0  0  0  0  0  0
  189.5700  175.2840  135.4540 C   0  0  0  0  0  2  0  0  0  0  0  0
  191.1290  173.6040  136.5320 C   0  0  0  0  0  1  0  0  0  0  0  0
  190.6770  175.0600  136.4820 C   0  0  2  0  0  3  0  0  0  0  0  0
  190.2270  175.5370  137.8630 C   0  0  0  0  0  2  0  0  0  0  0  0
  190.4620  177.0290  138.0620 C   0  0  0  0  0  2  0  0  0  0  0  0
  189.0230  179.1540  138.8650 O   0  0  0  0  0  0  0  0  0  0  0  0
  189.2620  177.7050  139.1880 S   0  0  0  0  0  0  0  0  0  0  0  0
  187.9710  176.9510  139.0570 O   0  0  0  0  0  0  0  0  0  0  0  0
  189.0410  177.9470  141.9410 C   0  0  0  0  0  0  0  0  0  0  0  0
  187.9140  178.4780  141.7570 O   0  0  0  0  0  0  0  0  0  0  0  0
  189.8380  177.5660  140.8150 N   0  0  0  0  0  2  0  0  0  0  0  0
  189.6010  177.8220  143.3500 C   0  0  2  0  0  0  0  0  0  0  0  0
  189.5210  176.5660  145.8040 O   0  0  0  0  0  1  0  0  0  0  0  0
  187.5620  176.9240  144.3940 C   0  0  1  0  0  3  0  0  0  0  0  0
  187.8350  178.1850  146.6750 C   0  0  0  0  0  1  0  0  0  0  0  0
  188.3940  177.3500  145.5310 C   0  0  1  0  0  0  0  0  0  0  0  0
  186.1190  177.3980  144.4780 C   0  0  0  0  0  1  0  0  0  0  0  0
  188.4530  178.1040  144.2530 N   0  0  0  0  0  0  0  0  0  0  0  0
  191.9820  178.4550  144.0430 C   0  0  0  0  0  2  0  0  0  0  0  0
  191.0560  178.9770  144.9640 O   0  0  0  0  0  0  0  0  0  0  0  0
  190.6480  178.9450  143.6150 C   0  0  2  0  0  3  0  0  0  0  0  0
  190.1420  176.5150  143.5710 O   0  0  0  0  0  0  0  0  0  0  0  0
  189.5540  175.6660  142.7470 O   0  0  0  0  0  1  0  0  0  0  0  0
  185.0760  175.5330  136.7170 C   0  0  1  0  0  3  0  0  0  0  0  0
  183.9890  176.4100  136.6550 O   0  0  0  0  0  0  0  0  0  0  0  0
  179.4040  176.8550  136.5630 C   0  0  0  0  0  1  0  0  0  0  0  0
  180.2830  175.6270  138.4520 C   0  0  2  0  0  3  0  0  0  0  0  0
  180.5920  176.5700  137.3570 N   0  0  0  0  0  0  0  0  0  0  0  0
  182.8150  175.9780  138.7640 C   0  0  1  0  0  3  0  0  0  0  0  0
  181.5340  175.2830  139.2800 C   0  0  0  0  0  2  0  0  0  0  0  0
  181.6220  176.0250  136.4730 C   0  0  0  0  0  2  0  0  0  0  0  0
  182.9200  175.7210  137.2390 C   0  0  1  0  0  3  0  0  0  0  0  0
  182.3070  177.6650  140.4200 C   0  0  0  0  0  2  0  0  0  0  0  0
  184.2400  177.8330  139.1940 C   0  0  0  0  0  2  0  0  0  0  0  0
  184.2990  178.9790  140.1770 C   0  0  0  0  0  2  0  0  0  0  0  0
  183.0570  178.8320  141.0230 C   0  0  2  0  0  3  0  0  0  0  0  0
  182.8440  177.4220  139.0820 N   0  0  1  0  0  0  0  0  0  0  0  0
  183.4020  178.5240  142.3670 O   0  0  0  0  0  0  0  0  0  0  0  0
  182.7120  179.0550  143.4600 C   0  0  0  0  0  0  0  0  0  0  0  0
  181.2930  178.9750  143.4930 N   0  0  0  0  0  1  0  0  0  0  0  0
  183.3300  179.6070  144.4110 O   0  0  0  0  0  0  0  0  0  0  0  0
  179.6320  173.3410  138.7320 O   0  0  0  0  0  1  0  0  0  0  0  0
  179.6040  174.3630  137.9960 C   0  0  0  0  0  0  0  0  0  0  0  0
  178.9310  174.3160  136.7810 O   0  0  0  0  0  0  0  0  0  0  0  0
  184.9240  174.4590  135.6420 C   0  0  0  0  0  2  0  0  0  0  0  0
  185.4310  173.0430  137.6010 C   0  0  0  0  0  1  0  0  0  0  0  0
  184.7010  173.0940  136.2720 C   0  0  2  0  0  3  0  0  0  0  0  0
  185.2290  172.0040  135.3510 C   0  0  0  0  0  2  0  0  0  0  0  0
  186.6700  171.6740  135.6870 C   0  0  0  0  0  1  0  0  0  0  0  0
  1  4  1  0  0  0  0
  2  6  1  0  0  0  0
  2  4  1  0  0  0  0
  3  1  1  0  0  0  0
  4 30  1  6  0  0  0
  5  2  1  0  0  0  0
  5  3  1  0  0  0  0
  7  6  1  0  0  0  0
  7  9  1  0  0  0  0
  9  8  1  1  0  0  0
  9 10  1  0  0  0  0
 10 11  1  0  0  0  0
 11 13  1  0  0  0  0
 12 13  2  0  0  0  0
 13 17  1  0  0  0  0
 14 13  2  0  0  0  0
 16 15  2  0  0  0  0
 17 15  1  0  0  0  0
 18 15  1  6  0  0  0
 18 28  1  0  0  0  0
 18 24  1  0  0  0  0
 20 23  1  1  0  0  0
 20 22  1  0  0  0  0
 22 19  1  0  0  0  0
 22 21  1  1  0  0  0
 24 20  1  0  0  0  0
 24 22  1  0  0  0  0
 25 26  1  0  0  0  0
 27 18  1  1  0  0  0
 27 25  1  0  0  0  0
 27 26  1  0  0  0  0
 29 28  1  0  0  0  0
 30 51  1  6  0  0  0
 31 30  1  0  0  0  0
 32 34  1  0  0  0  0
 33 49  1  6  0  0  0
 33 36  1  0  0  0  0
 34 33  1  0  0  0  0
 35 43  1  0  0  0  0
 35 36  1  6  0  0  0
 37 38  1  0  0  0  0
 37 34  1  0  0  0  0
 38 31  1  6  0  0  0
 38 35  1  0  0  0  0
 39 42  1  0  0  0  0
 40 41  1  0  0  0  0
 41 42  1  0  0  0  0
 42 44  1  1  0  0  0
 43 40  1  1  0  0  0
 43 39  1  0  0  0  0
 44 45  1  0  0  0  0
 45 46  1  0  0  0  0
 45 47  2  0  0  0  0
 49 48  1  0  0  0  0
 50 49  2  0  0  0  0
 51 53  1  0  0  0  0
 53 52  1  1  0  0  0
 54 55  1  0  0  0  0
 54 53  1  0  0  0  0
M  END
>  <MODEL>
1

>  <REMARK>
 VINA RESULT:      -6.1      0.000      0.000
  Name = 
  21 active torsions:
  status: ('A' for Active; 'I' for Inactive)
    1  A    between atoms: C_1  and  C_21
    2  A    between atoms: C_1  and  O_29
    3  A    between atoms: C_1  and  C_38
    4  A    between atoms: C_1  and  N_53
    5  A    between atoms: C_2  and  C_19
    6  A    between atoms: C_2  and  O_28
    7  A    between atoms: C_2  and  C_44
    8  A    between atoms: C_4  and  C_40
    9  A    between atoms: C_8  and  S_20
   10  A    between atoms: C_8  and  C_43
   11  A    between atoms: C_10  and  O_32
   12  A    between atoms: C_16  and  C_17
   13  A    between atoms: C_19  and  C_40
   14  A    between atoms: S_20  and  N_42
   15  A    between atoms: N_27  and  C_31
   16  A    between atoms: O_28  and  C_49
   17  A    between atoms: C_31  and  C_54
   18  A    between atoms: O_32  and  C_48
   19  A    between atoms: C_33  and  N_52
   20  A    between atoms: C_43  and  C_51
   21  A    between atoms: C_51  and  C_54
                            x       y       z     vdW  Elec       q    Type
                         _______ _______ _______ _____ _____    ______ ____

>  <TORSDO>
F 21

$$$$
=
 OpenBabel11052415113D

 55 59  0  0  1  0  0  0  0  0999 V2000
  184.4050  179.5700  144.3910 O   0  0  0  0  0  0  0  0  0  0  0  0
  184.1270  178.1280  142.5680 N   0  0  0  0  0  0  0  0  0  0  0  0
  183.0620  179.6640  144.0170 C   0  0  0  0  0  2  0  0  0  0  0  0
  185.0490  179.0060  143.2770 C   0  0  2  0  0  3  0  0  0  0  0  0
  182.8230  178.6410  142.9380 C   0  0  0  0  0  2  0  0  0  0  0  0
  184.3200  178.3620  141.1430 C   0  0  0  0  0  2  0  0  0  0  0  0
  183.0380  178.8950  140.5130 C   0  0  0  0  0  2  0  0  0  0  0  0
  182.2840  176.6020  139.7440 C   0  0  0  0  0  1  0  0  0  0  0  0
  182.5930  178.0380  139.3310 C   0  0  2  0  0  3  0  0  0  0  0  0
  183.6450  178.0690  138.2230 C   0  0  0  0  0  2  0  0  0  0  0  0
  183.8890  176.6920  137.6200 C   0  0  0  0  0  2  0  0  0  0  0  0
  181.6250  177.0160  136.2050 O   0  0  0  0  0  0  0  0  0  0  0  0
  183.0410  176.5320  136.0640 S   0  0  0  0  0  0  0  0  0  0  0  0
  183.7420  177.3560  135.0240 O   0  0  0  0  0  0  0  0  0  0  0  0
  182.4870  173.8340  136.3820 C   0  0  0  0  0  0  0  0  0  0  0  0
  182.0660  174.1040  137.5370 O   0  0  0  0  0  0  0  0  0  0  0  0
  183.0350  174.8740  135.5650 N   0  0  0  0  0  2  0  0  0  0  0  0
  182.5240  172.3900  135.9040 C   0  0  2  0  0  0  0  0  0  0  0  0
  183.5110  169.8210  136.0900 O   0  0  0  0  0  1  0  0  0  0  0  0
  184.7840  171.8140  136.6910 C   0  0  1  0  0  3  0  0  0  0  0  0
  185.4440  170.3630  134.6110 C   0  0  0  0  0  1  0  0  0  0  0  0
  184.4650  170.7690  135.7040 C   0  0  1  0  0  0  0  0  0  0  0  0
  186.1600  172.4360  136.5040 C   0  0  0  0  0  1  0  0  0  0  0  0
  183.9390  172.1440  135.5140 N   0  0  0  0  0  0  0  0  0  0  0  0
  180.2470  172.5810  134.7520 C   0  0  0  0  0  2  0  0  0  0  0  0
  180.6840  171.2450  134.7400 O   0  0  0  0  0  0  0  0  0  0  0  0
  181.6810  172.2310  134.6030 C   0  0  2  0  0  3  0  0  0  0  0  0
  182.0960  171.4980  136.9390 O   0  0  0  0  0  0  0  0  0  0  0  0
  180.9750  171.9600  137.4640 O   0  0  0  0  0  1  0  0  0  0  0  0
  186.3220  178.2670  143.7000 C   0  0  1  0  0  3  0  0  0  0  0  0
  187.3440  178.5530  142.7900 O   0  0  0  0  0  0  0  0  0  0  0  0
  191.7690  178.9920  143.9950 C   0  0  0  0  0  1  0  0  0  0  0  0
  191.1640  176.8470  143.0550 C   0  0  2  0  0  3  0  0  0  0  0  0
  190.7780  178.2650  143.2120 N   0  0  0  0  0  0  0  0  0  0  0  0
  188.8940  176.9080  141.8400 C   0  0  1  0  0  3  0  0  0  0  0  0
  190.1100  176.0520  142.2630 C   0  0  0  0  0  2  0  0  0  0  0  0
  189.4820  178.3830  143.8780 C   0  0  0  0  0  2  0  0  0  0  0  0
  188.3750  177.6580  143.0930 C   0  0  1  0  0  3  0  0  0  0  0  0
  190.1010  177.1990  139.7650 C   0  0  0  0  0  2  0  0  0  0  0  0
  187.9880  178.0720  139.9740 C   0  0  0  0  0  2  0  0  0  0  0  0
  188.3870  178.3540  138.5450 C   0  0  0  0  0  2  0  0  0  0  0  0
  189.7520  177.7260  138.3900 C   0  0  2  0  0  3  0  0  0  0  0  0
  189.2110  177.8380  140.7350 N   0  0  1  0  0  0  0  0  0  0  0  0
  189.7030  176.6430  137.4710 O   0  0  0  0  0  0  0  0  0  0  0  0
  188.9060  176.6680  136.3240 C   0  0  0  0  0  0  0  0  0  0  0  0
  189.2420  177.5510  135.2610 N   0  0  0  0  0  1  0  0  0  0  0  0
  187.8930  175.9230  136.2210 O   0  0  0  0  0  0  0  0  0  0  0  0
  192.1580  175.0970  144.3490 O   0  0  0  0  0  0  0  0  0  0  0  0
  191.4650  176.1490  144.3550 C   0  0  0  0  0  0  0  0  0  0  0  0
  191.0030  176.6610  145.5610 O   0  0  0  0  0  1  0  0  0  0  0  0
  186.7700  178.6570  145.1070 C   0  0  0  0  0  2  0  0  0  0  0  0
  185.3430  178.0200  147.0190 C   0  0  0  0  0  1  0  0  0  0  0  0
  186.4540  177.5500  146.0990 C   0  0  2  0  0  3  0  0  0  0  0  0
  187.6940  177.2160  146.9150 C   0  0  0  0  0  2  0  0  0  0  0  0
  187.7710  178.0910  148.1510 C   0  0  0  0  0  1  0  0  0  0  0  0
  2  5  1  0  0  0  0
  2  4  1  0  0  0  0
  3  1  1  0  0  0  0
  4 30  1  1  0  0  0
  4  1  1  0  0  0  0
  5  3  1  0  0  0  0
  6  2  1  0  0  0  0
  7  6  1  0  0  0  0
  9  8  1  1  0  0  0
  9  7  1  0  0  0  0
 10  9  1  0  0  0  0
 11 10  1  0  0  0  0
 13 12  2  0  0  0  0
 13 11  1  0  0  0  0
 14 13  2  0  0  0  0
 15 16  2  0  0  0  0
 17 13  1  0  0  0  0
 17 15  1  0  0  0  0
 18 15  1  1  0  0  0
 18 28  1  0  0  0  0
 20 23  1  6  0  0  0
 22 21  1  6  0  0  0
 22 19  1  0  0  0  0
 22 20  1  0  0  0  0
 24 22  1  0  0  0  0
 24 18  1  0  0  0  0
 24 20  1  0  0  0  0
 26 25  1  0  0  0  0
 27 26  1  0  0  0  0
 27 25  1  0  0  0  0
 27 18  1  1  0  0  0
 28 29  1  0  0  0  0
 30 51  1  1  0  0  0
 31 30  1  0  0  0  0
 33 34  1  0  0  0  0
 33 49  1  1  0  0  0
 34 37  1  0  0  0  0
 34 32  1  0  0  0  0
 35 36  1  1  0  0  0
 35 38  1  0  0  0  0
 36 33  1  0  0  0  0
 38 31  1  6  0  0  0
 38 37  1  0  0  0  0
 40 43  1  0  0  0  0
 41 40  1  0  0  0  0
 42 44  1  6  0  0  0
 42 41  1  0  0  0  0
 42 39  1  0  0  0  0
 43 39  1  6  0  0  0
 43 35  1  0  0  0  0
 45 44  1  0  0  0  0
 46 45  1  0  0  0  0
 47 45  2  0  0  0  0
 48 49  2  0  0  0  0
 49 50  1  0  0  0  0
 51 53  1  0  0  0  0
 53 54  1  0  0  0  0
 53 52  1  1  0  0  0
 54 55  1  0  0  0  0
M  END
>  <MODEL>
2

>  <REMARK>
 VINA RESULT:      -6.0      2.457     10.426
  Name = 
  21 active torsions:
  status: ('A' for Active; 'I' for Inactive)
    1  A    between atoms: C_1  and  C_21
    2  A    between atoms: C_1  and  O_29
    3  A    between atoms: C_1  and  C_38
    4  A    between atoms: C_1  and  N_53
    5  A    between atoms: C_2  and  C_19
    6  A    between atoms: C_2  and  O_28
    7  A    between atoms: C_2  and  C_44
    8  A    between atoms: C_4  and  C_40
    9  A    between atoms: C_8  and  S_20
   10  A    between atoms: C_8  and  C_43
   11  A    between atoms: C_10  and  O_32
   12  A    between atoms: C_16  and  C_17
   13  A    between atoms: C_19  and  C_40
   14  A    between atoms: S_20  and  N_42
   15  A    between atoms: N_27  and  C_31
   16  A    between atoms: O_28  and  C_49
   17  A    between atoms: C_31  and  C_54
   18  A    between atoms: O_32  and  C_48
   19  A    between atoms: C_33  and  N_52
   20  A    between atoms: C_43  and  C_51
   21  A    between atoms: C_51  and  C_54
                            x       y       z     vdW  Elec       q    Type
                         _______ _______ _______ _____ _____    ______ ____

>  <TORSDO>
F 21

$$$$
=
 OpenBabel11052415113D

 55 59  0  0  1  0  0  0  0  0999 V2000
  187.3440  178.4810  139.8340 O   0  0  0  0  0  0  0  0  0  0  0  0
  187.0040  178.5190  137.5180 N   0  0  0  0  0  0  0  0  0  0  0  0
  188.6110  178.4020  139.2500 C   0  0  0  0  0  2  0  0  0  0  0  0
  186.4520  178.1240  138.8080 C   0  0  2  0  0  3  0  0  0  0  0  0
  188.4320  178.5680  137.7640 C   0  0  0  0  0  2  0  0  0  0  0  0
  186.7410  177.4300  136.5870 C   0  0  0  0  0  2  0  0  0  0  0  0
  188.0200  177.0340  135.8560 C   0  0  0  0  0  2  0  0  0  0  0  0
  187.4910  174.7770  136.8780 C   0  0  0  0  0  1  0  0  0  0  0  0
  188.1390  175.5180  135.7130 C   0  0  2  0  0  3  0  0  0  0  0  0
  189.6040  175.1100  135.5580 C   0  0  0  0  0  2  0  0  0  0  0  0
  190.5550  176.1430  136.1490 C   0  0  0  0  0  2  0  0  0  0  0  0
  191.7100  176.4950  138.5530 O   0  0  0  0  0  0  0  0  0  0  0  0
  191.4720  175.4440  137.5040 S   0  0  0  0  0  0  0  0  0  0  0  0
  190.6910  174.3140  138.1080 O   0  0  0  0  0  0  0  0  0  0  0  0
  194.1270  175.6960  136.7470 C   0  0  0  0  0  0  0  0  0  0  0  0
  194.0080  176.9380  136.9140 O   0  0  0  0  0  0  0  0  0  0  0  0
  192.9930  174.8430  136.9380 N   0  0  0  0  0  2  0  0  0  0  0  0
  195.4360  175.1200  136.2280 C   0  0  2  0  0  0  0  0  0  0  0  0
  197.1640  173.0070  136.6240 O   0  0  0  0  0  1  0  0  0  0  0  0
  196.0150  174.1800  138.4290 C   0  0  1  0  0  3  0  0  0  0  0  0
  198.6130  174.3610  138.1360 C   0  0  0  0  0  1  0  0  0  0  0  0
  197.2300  173.9870  137.6200 C   0  0  1  0  0  0  0  0  0  0  0  0
  196.2790  174.7830  139.8000 C   0  0  0  0  0  1  0  0  0  0  0  0
  196.3710  175.1750  137.3850 N   0  0  0  0  0  0  0  0  0  0  0  0
  197.3850  175.6480  134.6570 C   0  0  0  0  0  2  0  0  0  0  0  0
  197.2140  176.6930  135.5820 O   0  0  0  0  0  0  0  0  0  0  0  0
  196.0400  176.0520  135.1360 C   0  0  2  0  0  3  0  0  0  0  0  0
  195.2550  173.7800  135.7570 O   0  0  0  0  0  0  0  0  0  0  0  0
  194.6030  173.8170  134.6080 O   0  0  0  0  0  1  0  0  0  0  0  0
  185.0720  178.7420  139.0450 C   0  0  1  0  0  3  0  0  0  0  0  0
  184.0920  177.7610  138.8680 O   0  0  0  0  0  0  0  0  0  0  0  0
  179.5050  178.1760  138.7470 C   0  0  0  0  0  1  0  0  0  0  0  0
  180.6110  178.3200  136.6010 C   0  0  2  0  0  3  0  0  0  0  0  0
  180.7300  177.8930  138.0100 N   0  0  0  0  0  0  0  0  0  0  0  0
  183.0330  177.4490  136.6790 C   0  0  1  0  0  3  0  0  0  0  0  0
  181.9090  178.0650  135.8150 C   0  0  0  0  0  2  0  0  0  0  0  0
  181.8390  178.5790  138.6720 C   0  0  0  0  0  2  0  0  0  0  0  0
  183.1760  178.3060  137.9630 C   0  0  1  0  0  3  0  0  0  0  0  0
  182.9540  175.1990  135.7970 C   0  0  0  0  0  2  0  0  0  0  0  0
  183.8620  175.5660  137.8730 C   0  0  0  0  0  2  0  0  0  0  0  0
  184.0660  174.0920  137.6120 C   0  0  0  0  0  2  0  0  0  0  0  0
  183.5230  173.8620  136.2220 C   0  0  2  0  0  3  0  0  0  0  0  0
  182.7910  176.0240  136.9940 N   0  0  1  0  0  0  0  0  0  0  0  0
  184.5680  173.4940  135.3320 O   0  0  0  0  0  0  0  0  0  0  0  0
  185.0440  172.1850  135.2350 C   0  0  0  0  0  0  0  0  0  0  0  0
  184.2060  171.1770  134.6830 N   0  0  0  0  0  1  0  0  0  0  0  0
  186.2030  171.8850  135.6340 O   0  0  0  0  0  0  0  0  0  0  0  0
  179.5550  180.0950  135.3920 O   0  0  0  0  0  0  0  0  0  0  0  0
  180.1800  179.7530  136.4310 C   0  0  0  0  0  0  0  0  0  0  0  0
  180.4470  180.6970  137.4150 O   0  0  0  0  0  1  0  0  0  0  0  0
  184.9450  179.3410  140.4450 C   0  0  0  0  0  2  0  0  0  0  0  0
  183.1780  178.6760  142.0370 C   0  0  0  0  0  1  0  0  0  0  0  0
  184.5190  178.2810  141.4470 C   0  0  2  0  0  3  0  0  0  0  0  0
  185.5560  178.1670  142.5540 C   0  0  0  0  0  2  0  0  0  0  0  0
  184.9150  178.3910  143.9100 C   0  0  0  0  0  1  0  0  0  0  0  0
  2  5  1  0  0  0  0
  2  4  1  0  0  0  0
  3  1  1  0  0  0  0
  4 30  1  1  0  0  0
  4  1  1  0  0  0  0
  5  3  1  0  0  0  0
  6  2  1  0  0  0  0
  7  6  1  0  0  0  0
  9  7  1  0  0  0  0
  9  8  1  1  0  0  0
 10  9  1  0  0  0  0
 10 11  1  0  0  0  0
 11 13  1  0  0  0  0
 13 14  2  0  0  0  0
 13 12  2  0  0  0  0
 15 16  2  0  0  0  0
 15 17  1  0  0  0  0
 17 13  1  0  0  0  0
 18 28  1  6  0  0  0
 18 15  1  0  0  0  0
 18 24  1  0  0  0  0
 19 22  1  0  0  0  0
 20 23  1  1  0  0  0
 22 21  1  1  0  0  0
 22 20  1  0  0  0  0
 24 22  1  0  0  0  0
 24 20  1  0  0  0  0
 25 27  1  0  0  0  0
 25 26  1  0  0  0  0
 27 26  1  0  0  0  0
 27 18  1  1  0  0  0
 29 28  1  0  0  0  0
 30 51  1  1  0  0  0
 31 30  1  0  0  0  0
 33 49  1  1  0  0  0
 33 34  1  0  0  0  0
 34 37  1  0  0  0  0
 34 32  1  0  0  0  0
 35 36  1  6  0  0  0
 35 43  1  0  0  0  0
 35 38  1  0  0  0  0
 36 33  1  0  0  0  0
 38 37  1  0  0  0  0
 38 31  1  1  0  0  0
 39 42  1  0  0  0  0
 41 40  1  0  0  0  0
 42 44  1  6  0  0  0
 42 41  1  0  0  0  0
 43 39  1  6  0  0  0
 43 40  1  0  0  0  0
 45 44  1  0  0  0  0
 45 47  2  0  0  0  0
 46 45  1  0  0  0  0
 48 49  2  0  0  0  0
 49 50  1  0  0  0  0
 51 53  1  0  0  0  0
 53 52  1  1  0  0  0
 53 54  1  0  0  0  0
 54 55  1  0  0  0  0
M  END
>  <MODEL>
3

>  <REMARK>
 VINA RESULT:      -5.7      4.308      7.405
  Name = 
  21 active torsions:
  status: ('A' for Active; 'I' for Inactive)
    1  A    between atoms: C_1  and  C_21
    2  A    between atoms: C_1  and  O_29
    3  A    between atoms: C_1  and  C_38
    4  A    between atoms: C_1  and  N_53
    5  A    between atoms: C_2  and  C_19
    6  A    between atoms: C_2  and  O_28
    7  A    between atoms: C_2  and  C_44
    8  A    between atoms: C_4  and  C_40
    9  A    between atoms: C_8  and  S_20
   10  A    between atoms: C_8  and  C_43
   11  A    between atoms: C_10  and  O_32
   12  A    between atoms: C_16  and  C_17
   13  A    between atoms: C_19  and  C_40
   14  A    between atoms: S_20  and  N_42
   15  A    between atoms: N_27  and  C_31
   16  A    between atoms: O_28  and  C_49
   17  A    between atoms: C_31  and  C_54
   18  A    between atoms: O_32  and  C_48
   19  A    between atoms: C_33  and  N_52
   20  A    between atoms: C_43  and  C_51
   21  A    between atoms: C_51  and  C_54
                            x       y       z     vdW  Elec       q    Type
                         _______ _______ _______ _____ _____    ______ ____

>  <TORSDO>
F 21

$$$$
=
 OpenBabel11052415113D

 55 59  0  0  1  0  0  0  0  0999 V2000
  187.6070  178.4280  139.6900 O   0  0  0  0  0  0  0  0  0  0  0  0
  187.2040  178.6350  137.3940 N   0  0  0  0  0  0  0  0  0  0  0  0
  188.8600  178.4740  139.0740 C   0  0  0  0  0  2  0  0  0  0  0  0
  186.7110  178.1030  138.6580 C   0  0  2  0  0  3  0  0  0  0  0  0
  188.6320  178.7490  137.6120 C   0  0  0  0  0  2  0  0  0  0  0  0
  186.9800  177.6120  136.3810 C   0  0  0  0  0  2  0  0  0  0  0  0
  188.2630  177.3440  135.6020 C   0  0  0  0  0  2  0  0  0  0  0  0
  187.7540  175.0050  136.4340 C   0  0  0  0  0  1  0  0  0  0  0  0
  188.4980  175.8480  135.4020 C   0  0  2  0  0  3  0  0  0  0  0  0
  189.9930  175.5350  135.4220 C   0  0  0  0  0  2  0  0  0  0  0  0
  190.7990  176.6150  136.1320 C   0  0  0  0  0  2  0  0  0  0  0  0
  192.2660  177.0610  138.3420 O   0  0  0  0  0  0  0  0  0  0  0  0
  191.5820  175.9550  137.5870 S   0  0  0  0  0  0  0  0  0  0  0  0
  190.5470  175.3220  138.4700 O   0  0  0  0  0  0  0  0  0  0  0  0
  194.0340  175.1100  136.6070 C   0  0  0  0  0  0  0  0  0  0  0  0
  194.3080  176.3180  136.3820 O   0  0  0  0  0  0  0  0  0  0  0  0
  192.7510  174.7600  137.1350 N   0  0  0  0  0  2  0  0  0  0  0  0
  195.0180  174.0200  136.2090 C   0  0  2  0  0  0  0  0  0  0  0  0
  196.1620  171.8030  135.0320 O   0  0  0  0  0  1  0  0  0  0  0  0
  193.8530  172.5000  134.6620 C   0  0  1  0  0  3  0  0  0  0  0  0
  194.4070  170.2950  135.9650 C   0  0  0  0  0  1  0  0  0  0  0  0
  194.8130  171.6350  135.3670 C   0  0  1  0  0  0  0  0  0  0  0  0
  192.4440  171.9300  134.5990 C   0  0  0  0  0  1  0  0  0  0  0  0
  194.1990  172.7840  136.0790 N   0  0  0  0  0  0  0  0  0  0  0  0
  195.3940  173.4430  138.6730 C   0  0  0  0  0  2  0  0  0  0  0  0
  195.9190  174.7170  138.3900 O   0  0  0  0  0  0  0  0  0  0  0  0
  196.0250  173.7530  137.3670 C   0  0  2  0  0  3  0  0  0  0  0  0
  195.6770  174.3500  134.9820 O   0  0  0  0  0  0  0  0  0  0  0  0
  196.7790  175.0260  135.2590 O   0  0  0  0  0  1  0  0  0  0  0  0
  185.3040  178.6140  138.9760 C   0  0  1  0  0  3  0  0  0  0  0  0
  184.3930  177.5600  138.8560 O   0  0  0  0  0  0  0  0  0  0  0  0
  179.8850  178.4380  138.4950 C   0  0  0  0  0  1  0  0  0  0  0  0
  180.9850  177.8300  136.4290 C   0  0  2  0  0  3  0  0  0  0  0  0
  181.0630  177.8180  137.9050 N   0  0  0  0  0  0  0  0  0  0  0  0
  183.2910  176.7510  136.8210 C   0  0  1  0  0  3  0  0  0  0  0  0
  182.2400  177.2140  135.7860 C   0  0  0  0  0  2  0  0  0  0  0  0
  182.2490  178.5360  138.3720 C   0  0  0  0  0  2  0  0  0  0  0  0
  183.5400  177.9210  137.8080 C   0  0  1  0  0  3  0  0  0  0  0  0
  181.6670  174.9640  136.9370 C   0  0  0  0  0  2  0  0  0  0  0  0
  183.8900  174.4910  137.2540 C   0  0  0  0  0  2  0  0  0  0  0  0
  183.1950  173.1500  137.2970 C   0  0  0  0  0  2  0  0  0  0  0  0
  181.7410  173.4550  137.0290 C   0  0  2  0  0  3  0  0  0  0  0  0
  182.8870  175.5150  137.5260 N   0  0  1  0  0  0  0  0  0  0  0  0
  181.3320  172.8900  135.7910 O   0  0  0  0  0  0  0  0  0  0  0  0
  180.2180  172.0540  135.6790 C   0  0  0  0  0  0  0  0  0  0  0  0
  179.3150  172.2370  134.5960 N   0  0  0  0  0  1  0  0  0  0  0  0
  180.0020  171.1450  136.5260 O   0  0  0  0  0  0  0  0  0  0  0  0
  181.3640  180.1880  136.2710 O   0  0  0  0  0  1  0  0  0  0  0  0
  180.7220  179.1920  135.8430 C   0  0  0  0  0  0  0  0  0  0  0  0
  179.7930  179.3590  134.8230 O   0  0  0  0  0  0  0  0  0  0  0  0
  185.2130  179.2060  140.3820 C   0  0  0  0  0  2  0  0  0  0  0  0
  183.3060  178.1810  141.5700 C   0  0  0  0  0  1  0  0  0  0  0  0
  184.8120  178.1430  141.3900 C   0  0  2  0  0  3  0  0  0  0  0  0
  185.4990  178.4050  142.7220 C   0  0  0  0  0  2  0  0  0  0  0  0
  184.4800  178.7690  143.7840 C   0  0  0  0  0  1  0  0  0  0  0  0
  2  5  1  0  0  0  0
  2  4  1  0  0  0  0
  3  1  1  0  0  0  0
  4 30  1  1  0  0  0
  4  1  1  0  0  0  0
  5  3  1  0  0  0  0
  6  2  1  0  0  0  0
  7  6  1  0  0  0  0
  9 10  1  0  0  0  0
  9  7  1  0  0  0  0
  9  8  1  1  0  0  0
 10 11  1  0  0  0  0
 11 13  1  0  0  0  0
 13 12  2  0  0  0  0
 13 14  2  0  0  0  0
 15 17  1  0  0  0  0
 16 15  2  0  0  0  0
 17 13  1  0  0  0  0
 18 28  1  6  0  0  0
 18 15  1  0  0  0  0
 19 22  1  0  0  0  0
 20 23  1  1  0  0  0
 20 22  1  0  0  0  0
 20 24  1  0  0  0  0
 22 21  1  1  0  0  0
 22 24  1  0  0  0  0
 24 18  1  0  0  0  0
 26 25  1  0  0  0  0
 27 18  1  6  0  0  0
 27 26  1  0  0  0  0
 27 25  1  0  0  0  0
 28 29  1  0  0  0  0
 30 51  1  1  0  0  0
 31 30  1  0  0  0  0
 33 49  1  6  0  0  0
 33 34  1  0  0  0  0
 34 37  1  0  0  0  0
 34 32  1  0  0  0  0
 35 36  1  6  0  0  0
 35 43  1  0  0  0  0
 35 38  1  0  0  0  0
 36 33  1  0  0  0  0
 38 37  1  0  0  0  0
 38 31  1  1  0  0  0
 39 42  1  0  0  0  0
 40 41  1  0  0  0  0
 40 43  1  0  0  0  0
 42 44  1  6  0  0  0
 42 41  1  0  0  0  0
 43 39  1  6  0  0  0
 45 44  1  0  0  0  0
 45 47  2  0  0  0  0
 46 45  1  0  0  0  0
 49 48  1  0  0  0  0
 50 49  2  0  0  0  0
 51 53  1  0  0  0  0
 53 52  1  1  0  0  0
 53 54  1  0  0  0  0
 54 55  1  0  0  0  0
M  END
>  <MODEL>
4

>  <REMARK>
 VINA RESULT:      -5.1      3.959      7.438
  Name = 
  21 active torsions:
  status: ('A' for Active; 'I' for Inactive)
    1  A    between atoms: C_1  and  C_21
    2  A    between atoms: C_1  and  O_29
    3  A    between atoms: C_1  and  C_38
    4  A    between atoms: C_1  and  N_53
    5  A    between atoms: C_2  and  C_19
    6  A    between atoms: C_2  and  O_28
    7  A    between atoms: C_2  and  C_44
    8  A    between atoms: C_4  and  C_40
    9  A    between atoms: C_8  and  S_20
   10  A    between atoms: C_8  and  C_43
   11  A    between atoms: C_10  and  O_32
   12  A    between atoms: C_16  and  C_17
   13  A    between atoms: C_19  and  C_40
   14  A    between atoms: S_20  and  N_42
   15  A    between atoms: N_27  and  C_31
   16  A    between atoms: O_28  and  C_49
   17  A    between atoms: C_31  and  C_54
   18  A    between atoms: O_32  and  C_48
   19  A    between atoms: C_33  and  N_52
   20  A    between atoms: C_43  and  C_51
   21  A    between atoms: C_51  and  C_54
                            x       y       z     vdW  Elec       q    Type
                         _______ _______ _______ _____ _____    ______ ____

>  <TORSDO>
F 21

$$$$
=
 OpenBabel11052415113D

 55 59  0  0  1  0  0  0  0  0999 V2000
  186.4880  178.9820  143.3120 O   0  0  0  0  0  0  0  0  0  0  0  0
  185.0110  177.9900  141.7910 N   0  0  0  0  0  0  0  0  0  0  0  0
  185.2000  179.2920  143.7560 C   0  0  0  0  0  2  0  0  0  0  0  0
  186.3230  178.5990  141.9700 C   0  0  2  0  0  3  0  0  0  0  0  0
  184.2300  178.5480  142.8770 C   0  0  0  0  0  2  0  0  0  0  0  0
  184.4710  178.4960  140.5360 C   0  0  0  0  0  2  0  0  0  0  0  0
  182.9680  178.7260  140.6580 C   0  0  0  0  0  2  0  0  0  0  0  0
  182.7050  176.3670  139.7720 C   0  0  0  0  0  1  0  0  0  0  0  0
  182.1800  177.7990  139.7340 C   0  0  2  0  0  3  0  0  0  0  0  0
  182.1830  178.3410  138.3060 C   0  0  0  0  0  2  0  0  0  0  0  0
  180.9610  177.8900  137.5150 C   0  0  0  0  0  2  0  0  0  0  0  0
  180.5440  178.1500  134.8710 O   0  0  0  0  0  0  0  0  0  0  0  0
  181.4220  177.4330  135.8590 S   0  0  0  0  0  0  0  0  0  0  0  0
  182.8530  177.8150  135.6140 O   0  0  0  0  0  0  0  0  0  0  0  0
  182.1940  174.7900  136.1780 C   0  0  0  0  0  0  0  0  0  0  0  0
  183.2350  175.2110  136.7460 O   0  0  0  0  0  0  0  0  0  0  0  0
  181.2470  175.7240  135.6490 N   0  0  0  0  0  2  0  0  0  0  0  0
  182.0030  173.2980  135.9500 C   0  0  2  0  0  0  0  0  0  0  0  0
  182.3710  170.5780  136.2240 O   0  0  0  0  0  1  0  0  0  0  0  0
  183.9240  172.2540  137.0800 C   0  0  1  0  0  3  0  0  0  0  0  0
  184.5940  170.6770  135.0970 C   0  0  0  0  0  1  0  0  0  0  0  0
  183.5570  171.2940  136.0260 C   0  0  1  0  0  0  0  0  0  0  0  0
  185.4130  172.5620  137.1390 C   0  0  0  0  0  1  0  0  0  0  0  0
  183.3770  172.7490  135.7910 N   0  0  0  0  0  0  0  0  0  0  0  0
  179.7960  173.0090  134.6870 C   0  0  0  0  0  2  0  0  0  0  0  0
  180.5630  171.8340  134.5950 O   0  0  0  0  0  0  0  0  0  0  0  0
  181.2760  173.0490  134.5940 C   0  0  2  0  0  3  0  0  0  0  0  0
  181.3150  172.6960  137.0510 O   0  0  0  0  0  0  0  0  0  0  0  0
  180.8570  173.6510  137.8410 O   0  0  0  0  0  1  0  0  0  0  0  0
  187.4480  177.6590  141.5300 C   0  0  1  0  0  3  0  0  0  0  0  0
  188.5330  178.4180  141.0830 O   0  0  0  0  0  0  0  0  0  0  0  0
  186.7520  175.8180  137.7230 C   0  0  0  0  0  1  0  0  0  0  0  0
  188.2350  177.5800  136.9860 C   0  0  2  0  0  3  0  0  0  0  0  0
  187.7940  176.7520  138.1280 N   0  0  0  0  0  0  0  0  0  0  0  0
  189.6570  178.5390  138.9070 C   0  0  1  0  0  3  0  0  0  0  0  0
  189.3090  178.6000  137.4020 C   0  0  0  0  0  2  0  0  0  0  0  0
  187.2740  177.5870  139.2100 C   0  0  0  0  0  2  0  0  0  0  0  0
  188.3310  178.5860  139.7090 C   0  0  1  0  0  3  0  0  0  0  0  0
  191.0890  176.7850  138.0570 C   0  0  0  0  0  2  0  0  0  0  0  0
  191.6040  177.7950  140.0530 C   0  0  0  0  0  2  0  0  0  0  0  0
  192.7450  176.8390  139.7920 C   0  0  0  0  0  2  0  0  0  0  0  0
  192.4360  176.2190  138.4500 C   0  0  2  0  0  3  0  0  0  0  0  0
  190.4670  177.3510  139.2540 N   0  0  1  0  0  0  0  0  0  0  0  0
  193.4060  176.6060  137.4860 O   0  0  0  0  0  0  0  0  0  0  0  0
  194.3980  175.7350  137.0280 C   0  0  0  0  0  0  0  0  0  0  0  0
  194.4050  174.3870  137.4820 N   0  0  0  0  0  1  0  0  0  0  0  0
  195.2860  176.1290  136.2250 O   0  0  0  0  0  0  0  0  0  0  0  0
  186.8140  177.9370  135.0940 O   0  0  0  0  0  0  0  0  0  0  0  0
  187.1110  178.2800  136.2690 C   0  0  0  0  0  0  0  0  0  0  0  0
  186.3860  179.2860  136.8950 O   0  0  0  0  0  1  0  0  0  0  0  0
  187.9030  176.7390  142.6610 C   0  0  0  0  0  2  0  0  0  0  0  0
  190.1060  175.6430  142.8660 C   0  0  0  0  0  1  0  0  0  0  0  0
  189.3710  176.9650  142.9820 C   0  0  2  0  0  3  0  0  0  0  0  0
  189.5150  177.5140  144.3940 C   0  0  0  0  0  2  0  0  0  0  0  0
  188.3330  177.1010  145.2490 C   0  0  0  0  0  1  0  0  0  0  0  0
  1  3  1  0  0  0  0
  2  4  1  0  0  0  0
  2  5  1  0  0  0  0
  4 30  1  1  0  0  0
  4  1  1  0  0  0  0
  5  3  1  0  0  0  0
  6  7  1  0  0  0  0
  6  2  1  0  0  0  0
  9  8  1  6  0  0  0
  9  7  1  0  0  0  0
 10  9  1  0  0  0  0
 11 10  1  0  0  0  0
 12 13  2  0  0  0  0
 13 11  1  0  0  0  0
 14 13  2  0  0  0  0
 15 16  2  0  0  0  0
 17 13  1  0  0  0  0
 17 15  1  0  0  0  0
 18 15  1  1  0  0  0
 18 28  1  0  0  0  0
 20 23  1  6  0  0  0
 22 21  1  6  0  0  0
 22 19  1  0  0  0  0
 22 20  1  0  0  0  0
 24 18  1  0  0  0  0
 24 22  1  0  0  0  0
 24 20  1  0  0  0  0
 26 25  1  0  0  0  0
 27 26  1  0  0  0  0
 27 25  1  0  0  0  0
 27 18  1  1  0  0  0
 28 29  1  0  0  0  0
 30 51  1  1  0  0  0
 31 30  1  0  0  0  0
 32 34  1  0  0  0  0
 33 49  1  1  0  0  0
 33 36  1  0  0  0  0
 33 34  1  0  0  0  0
 34 37  1  0  0  0  0
 35 36  1  6  0  0  0
 35 43  1  0  0  0  0
 35 38  1  0  0  0  0
 37 38  1  0  0  0  0
 38 31  1  1  0  0  0
 39 42  1  0  0  0  0
 41 40  1  0  0  0  0
 42 44  1  6  0  0  0
 42 41  1  0  0  0  0
 43 39  1  6  0  0  0
 43 40  1  0  0  0  0
 45 46  1  0  0  0  0
 45 44  1  0  0  0  0
 47 45  2  0  0  0  0
 48 49  2  0  0  0  0
 49 50  1  0  0  0  0
 51 53  1  0  0  0  0
 53 52  1  1  0  0  0
 53 54  1  0  0  0  0
 54 55  1  0  0  0  0
M  END
>  <MODEL>
5

>  <REMARK>
 VINA RESULT:      -5.0      2.934      9.953
  Name = 
  21 active torsions:
  status: ('A' for Active; 'I' for Inactive)
    1  A    between atoms: C_1  and  C_21
    2  A    between atoms: C_1  and  O_29
    3  A    between atoms: C_1  and  C_38
    4  A    between atoms: C_1  and  N_53
    5  A    between atoms: C_2  and  C_19
    6  A    between atoms: C_2  and  O_28
    7  A    between atoms: C_2  and  C_44
    8  A    between atoms: C_4  and  C_40
    9  A    between atoms: C_8  and  S_20
   10  A    between atoms: C_8  and  C_43
   11  A    between atoms: C_10  and  O_32
   12  A    between atoms: C_16  and  C_17
   13  A    between atoms: C_19  and  C_40
   14  A    between atoms: S_20  and  N_42
   15  A    between atoms: N_27  and  C_31
   16  A    between atoms: O_28  and  C_49
   17  A    between atoms: C_31  and  C_54
   18  A    between atoms: O_32  and  C_48
   19  A    between atoms: C_33  and  N_52
   20  A    between atoms: C_43  and  C_51
   21  A    between atoms: C_51  and  C_54
                            x       y       z     vdW  Elec       q    Type
                         _______ _______ _______ _____ _____    ______ ____

>  <TORSDO>
F 21

$$$$
=
 OpenBabel11052415113D

 55 59  0  0  1  0  0  0  0  0999 V2000
  186.0660  178.2140  135.6980 O   0  0  0  0  0  0  0  0  0  0  0  0
  186.5560  175.9470  136.0180 N   0  0  0  0  0  0  0  0  0  0  0  0
  187.0020  177.8720  134.7180 C   0  0  0  0  0  2  0  0  0  0  0  0
  186.1670  177.1960  136.6610 C   0  0  2  0  0  3  0  0  0  0  0  0
  187.2280  176.3870  134.8110 C   0  0  0  0  0  2  0  0  0  0  0  0
  187.5420  175.3100  136.8800 C   0  0  0  0  0  2  0  0  0  0  0  0
  187.9970  176.2720  137.9720 C   0  0  0  0  0  2  0  0  0  0  0  0
  189.5910  178.1580  137.4060 C   0  0  0  0  0  1  0  0  0  0  0  0
  189.4550  176.6870  137.7850 C   0  0  2  0  0  3  0  0  0  0  0  0
  190.1350  175.7940  136.7490 C   0  0  0  0  0  2  0  0  0  0  0  0
  191.5130  176.3130  136.3550 C   0  0  0  0  0  2  0  0  0  0  0  0
  193.1960  176.8580  138.3810 O   0  0  0  0  0  0  0  0  0  0  0  0
  192.7490  175.7290  137.4930 S   0  0  0  0  0  0  0  0  0  0  0  0
  192.1730  174.6330  138.3410 O   0  0  0  0  0  0  0  0  0  0  0  0
  195.0890  174.2650  137.2280 C   0  0  0  0  0  0  0  0  0  0  0  0
  195.0160  174.0150  138.4600 O   0  0  0  0  0  0  0  0  0  0  0  0
  194.1100  175.1140  136.6180 N   0  0  0  0  0  2  0  0  0  0  0  0
  196.2760  173.7660  136.4190 C   0  0  2  0  0  0  0  0  0  0  0  0
  197.5880  171.8230  134.9670 O   0  0  0  0  0  1  0  0  0  0  0  0
  195.9730  171.3440  136.7330 C   0  0  1  0  0  3  0  0  0  0  0  0
  198.5150  170.7800  137.0350 C   0  0  0  0  0  1  0  0  0  0  0  0
  197.3760  171.4830  136.3080 C   0  0  1  0  0  0  0  0  0  0  0  0
  195.7860  170.4500  137.9490 C   0  0  0  0  0  1  0  0  0  0  0  0
  196.7480  172.5480  137.1300 N   0  0  0  0  0  0  0  0  0  0  0  0
  197.4020  175.8510  135.4530 C   0  0  0  0  0  2  0  0  0  0  0  0
  198.2610  174.7430  135.3420 O   0  0  0  0  0  0  0  0  0  0  0  0
  197.4470  174.7920  136.4910 C   0  0  2  0  0  3  0  0  0  0  0  0
  195.8920  173.4780  135.0710 O   0  0  0  0  0  0  0  0  0  0  0  0
  194.5960  173.7020  134.9400 O   0  0  0  0  0  1  0  0  0  0  0  0
  184.8550  177.0470  137.4360 C   0  0  1  0  0  3  0  0  0  0  0  0
  184.4430  178.3040  137.8890 O   0  0  0  0  0  0  0  0  0  0  0  0
  180.8450  181.0020  138.8880 C   0  0  0  0  0  1  0  0  0  0  0  0
  180.9650  178.9380  140.1430 C   0  0  2  0  0  3  0  0  0  0  0  0
  181.7070  179.9050  139.3060 N   0  0  0  0  0  0  0  0  0  0  0  0
  183.2860  177.8310  139.9990 C   0  0  1  0  0  3  0  0  0  0  0  0
  181.8500  177.7510  140.5630 C   0  0  0  0  0  2  0  0  0  0  0  0
  182.2460  179.2560  138.1110 C   0  0  0  0  0  2  0  0  0  0  0  0
  183.1890  178.0980  138.4740 C   0  0  1  0  0  3  0  0  0  0  0  0
  183.8110  178.8770  142.1150 C   0  0  0  0  0  2  0  0  0  0  0  0
  185.5020  178.4210  140.6320 C   0  0  0  0  0  2  0  0  0  0  0  0
  186.1940  178.9700  141.8570 C   0  0  0  0  0  2  0  0  0  0  0  0
  185.0870  179.2130  142.8550 C   0  0  2  0  0  3  0  0  0  0  0  0
  184.1090  178.8520  140.6830 N   0  0  1  0  0  0  0  0  0  0  0  0
  185.2230  178.3450  143.9730 O   0  0  0  0  0  0  0  0  0  0  0  0
  184.8800  178.7340  145.2700 C   0  0  0  0  0  0  0  0  0  0  0  0
  185.8870  178.7780  146.2740 N   0  0  0  0  0  1  0  0  0  0  0  0
  183.6920  179.0400  145.5630 O   0  0  0  0  0  0  0  0  0  0  0  0
  178.9310  177.6790  140.1720 O   0  0  0  0  0  1  0  0  0  0  0  0
  179.6930  178.4360  139.5140 C   0  0  0  0  0  0  0  0  0  0  0  0
  179.3420  178.8110  138.2230 O   0  0  0  0  0  0  0  0  0  0  0  0
  183.7510  176.4280  136.5810 C   0  0  0  0  0  2  0  0  0  0  0  0
  183.5020  174.1080  135.7700 C   0  0  0  0  0  1  0  0  0  0  0  0
  183.4830  174.9930  137.0030 C   0  0  2  0  0  3  0  0  0  0  0  0
  182.1280  174.8970  137.6870 C   0  0  0  0  0  2  0  0  0  0  0  0
  181.2340  173.9080  136.9640 C   0  0  0  0  0  1  0  0  0  0  0  0
  1  4  1  0  0  0  0
  2  4  1  0  0  0  0
  2  6  1  0  0  0  0
  3  5  1  0  0  0  0
  3  1  1  0  0  0  0
  4 30  1  6  0  0  0
  5  2  1  0  0  0  0
  6  7  1  0  0  0  0
  9  8  1  6  0  0  0
  9  7  1  0  0  0  0
 10  9  1  0  0  0  0
 11 10  1  0  0  0  0
 11 13  1  0  0  0  0
 13 14  2  0  0  0  0
 13 12  2  0  0  0  0
 15 16  2  0  0  0  0
 17 15  1  0  0  0  0
 17 13  1  0  0  0  0
 18 28  1  6  0  0  0
 18 24  1  0  0  0  0
 18 15  1  0  0  0  0
 19 22  1  0  0  0  0
 20 24  1  0  0  0  0
 20 23  1  1  0  0  0
 22 20  1  0  0  0  0
 22 21  1  1  0  0  0
 22 24  1  0  0  0  0
 25 27  1  0  0  0  0
 26 25  1  0  0  0  0
 26 27  1  0  0  0  0
 27 18  1  6  0  0  0
 29 28  1  0  0  0  0
 30 51  1  6  0  0  0
 30 31  1  0  0  0  0
 32 34  1  0  0  0  0
 33 49  1  6  0  0  0
 33 36  1  0  0  0  0
 34 33  1  0  0  0  0
 35 36  1  1  0  0  0
 35 43  1  0  0  0  0
 37 38  1  0  0  0  0
 37 34  1  0  0  0  0
 38 31  1  1  0  0  0
 38 35  1  0  0  0  0
 39 42  1  0  0  0  0
 40 41  1  0  0  0  0
 41 42  1  0  0  0  0
 42 44  1  1  0  0  0
 43 40  1  1  0  0  0
 43 39  1  0  0  0  0
 44 45  1  0  0  0  0
 45 47  2  0  0  0  0
 45 46  1  0  0  0  0
 49 48  1  0  0  0  0
 50 49  2  0  0  0  0
 51 53  1  0  0  0  0
 53 52  1  6  0  0  0
 53 54  1  0  0  0  0
 55 54  1  0  0  0  0
M  END
>  <MODEL>
6

>  <REMARK>
 VINA RESULT:      -4.7      4.524      6.727
  Name = 
  21 active torsions:
  status: ('A' for Active; 'I' for Inactive)
    1  A    between atoms: C_1  and  C_21
    2  A    between atoms: C_1  and  O_29
    3  A    between atoms: C_1  and  C_38
    4  A    between atoms: C_1  and  N_53
    5  A    between atoms: C_2  and  C_19
    6  A    between atoms: C_2  and  O_28
    7  A    between atoms: C_2  and  C_44
    8  A    between atoms: C_4  and  C_40
    9  A    between atoms: C_8  and  S_20
   10  A    between atoms: C_8  and  C_43
   11  A    between atoms: C_10  and  O_32
   12  A    between atoms: C_16  and  C_17
   13  A    between atoms: C_19  and  C_40
   14  A    between atoms: S_20  and  N_42
   15  A    between atoms: N_27  and  C_31
   16  A    between atoms: O_28  and  C_49
   17  A    between atoms: C_31  and  C_54
   18  A    between atoms: O_32  and  C_48
   19  A    between atoms: C_33  and  N_52
   20  A    between atoms: C_43  and  C_51
   21  A    between atoms: C_51  and  C_54
                            x       y       z     vdW  Elec       q    Type
                         _______ _______ _______ _____ _____    ______ ____

>  <TORSDO>
F 21

$$$$
=
 OpenBabel11052415113D

 55 59  0  0  1  0  0  0  0  0999 V2000
  190.0090  176.9060  140.5330 O   0  0  0  0  0  0  0  0  0  0  0  0
  188.3650  178.4620  139.9380 N   0  0  0  0  0  0  0  0  0  0  0  0
  190.2840  177.2830  139.2160 C   0  0  0  0  0  2  0  0  0  0  0  0
  188.6740  177.2890  140.7450 C   0  0  2  0  0  3  0  0  0  0  0  0
  189.3270  178.3880  138.8560 C   0  0  0  0  0  2  0  0  0  0  0  0
  187.0360  178.2600  139.3770 C   0  0  0  0  0  2  0  0  0  0  0  0
  187.1210  178.0330  137.8720 C   0  0  0  0  0  2  0  0  0  0  0  0
  187.4740  175.6380  137.1240 C   0  0  0  0  0  1  0  0  0  0  0  0
  186.4540  176.7220  137.4610 C   0  0  2  0  0  3  0  0  0  0  0  0
  185.4990  176.9520  136.2910 C   0  0  0  0  0  2  0  0  0  0  0  0
  185.2510  175.6790  135.4910 C   0  0  0  0  0  2  0  0  0  0  0  0
  183.2170  173.9820  135.0270 O   0  0  0  0  0  0  0  0  0  0  0  0
  183.8300  174.8130  136.1200 S   0  0  0  0  0  0  0  0  0  0  0  0
  184.2480  173.9150  137.2470 O   0  0  0  0  0  0  0  0  0  0  0  0
  181.3740  175.5400  137.1820 C   0  0  0  0  0  0  0  0  0  0  0  0
  181.0370  174.3290  137.1090 O   0  0  0  0  0  0  0  0  0  0  0  0
  182.6600  175.9480  136.7030 N   0  0  0  0  0  2  0  0  0  0  0  0
  180.3760  176.5800  137.6670 C   0  0  2  0  0  0  0  0  0  0  0  0
  179.1300  178.8690  138.5710 O   0  0  0  0  0  1  0  0  0  0  0  0
  180.2170  178.6810  136.3940 C   0  0  1  0  0  3  0  0  0  0  0  0
  181.2040  180.2210  138.2710 C   0  0  0  0  0  1  0  0  0  0  0  0
  180.2730  179.1120  137.8010 C   0  0  1  0  0  0  0  0  0  0  0  0
  181.1680  179.4400  135.4820 C   0  0  0  0  0  1  0  0  0  0  0  0
  181.0090  177.8950  137.3750 N   0  0  0  0  0  0  0  0  0  0  0  0
  181.0650  175.4660  139.8640 C   0  0  0  0  0  2  0  0  0  0  0  0
  179.6920  175.2690  139.6330 O   0  0  0  0  0  0  0  0  0  0  0  0
  180.2270  176.5040  139.2160 C   0  0  2  0  0  3  0  0  0  0  0  0
  179.1200  176.4360  136.9950 O   0  0  0  0  0  0  0  0  0  0  0  0
  179.3260  175.8540  135.8260 O   0  0  0  0  0  1  0  0  0  0  0  0
  188.4080  177.5410  142.2320 C   0  0  1  0  0  3  0  0  0  0  0  0
  187.0340  177.4580  142.4740 O   0  0  0  0  0  0  0  0  0  0  0  0
  185.6030  176.5900  146.7660 C   0  0  0  0  0  1  0  0  0  0  0  0
  185.3360  178.8790  146.0340 C   0  0  2  0  0  3  0  0  0  0  0  0
  185.5500  177.4790  145.6130 N   0  0  0  0  0  0  0  0  0  0  0  0
  185.5450  179.1270  143.4790 C   0  0  1  0  0  3  0  0  0  0  0  0
  185.3160  179.8400  144.8320 C   0  0  0  0  0  2  0  0  0  0  0  0
  186.7990  177.3430  144.8650 C   0  0  0  0  0  2  0  0  0  0  0  0
  186.8070  178.2370  143.6140 C   0  0  1  0  0  3  0  0  0  0  0  0
  183.1600  178.8170  143.7180 C   0  0  0  0  0  2  0  0  0  0  0  0
  184.1150  178.6590  141.6380 C   0  0  0  0  0  2  0  0  0  0  0  0
  182.6310  178.5110  141.3980 C   0  0  0  0  0  2  0  0  0  0  0  0
  181.9980  178.6760  142.7590 C   0  0  2  0  0  3  0  0  0  0  0  0
  184.3680  178.3480  143.0410 N   0  0  1  0  0  0  0  0  0  0  0  0
  181.2070  179.8570  142.8030 O   0  0  0  0  0  0  0  0  0  0  0  0
  179.8120  179.8280  142.7380 C   0  0  0  0  0  0  0  0  0  0  0  0
  179.0630  179.6130  143.9280 N   0  0  0  0  0  1  0  0  0  0  0  0
  179.2110  179.9850  141.6410 O   0  0  0  0  0  0  0  0  0  0  0  0
  186.0620  180.4020  147.7310 O   0  0  0  0  0  1  0  0  0  0  0  0
  186.3200  179.3650  147.0640 C   0  0  0  0  0  0  0  0  0  0  0  0
  187.5010  178.6720  147.3010 O   0  0  0  0  0  0  0  0  0  0  0  0
  189.1420  176.5400  143.1230 C   0  0  0  0  0  2  0  0  0  0  0  0
  191.3770  175.8460  143.9120 C   0  0  0  0  0  1  0  0  0  0  0  0
  190.5500  177.0230  143.4300 C   0  0  2  0  0  3  0  0  0  0  0  0
  190.5060  178.0990  144.5060 C   0  0  0  0  0  2  0  0  0  0  0  0
  190.9820  179.4270  143.9500 C   0  0  0  0  0  1  0  0  0  0  0  0
  1  4  1  0  0  0  0
  2  4  1  0  0  0  0
  3  1  1  0  0  0  0
  4 30  1  1  0  0  0
  5  3  1  0  0  0  0
  5  2  1  0  0  0  0
  6  2  1  0  0  0  0
  7  6  1  0  0  0  0
  9  8  1  6  0  0  0
  9  7  1  0  0  0  0
 10  9  1  0  0  0  0
 11 13  1  0  0  0  0
 11 10  1  0  0  0  0
 12 13  2  0  0  0  0
 13 17  1  0  0  0  0
 13 14  2  0  0  0  0
 15 18  1  0  0  0  0
 16 15  2  0  0  0  0
 17 15  1  0  0  0  0
 18 28  1  6  0  0  0
 20 23  1  6  0  0  0
 20 24  1  0  0  0  0
 20 22  1  0  0  0  0
 22 21  1  1  0  0  0
 22 19  1  0  0  0  0
 24 18  1  0  0  0  0
 24 22  1  0  0  0  0
 26 25  1  0  0  0  0
 27 18  1  6  0  0  0
 27 26  1  0  0  0  0
 27 25  1  0  0  0  0
 29 28  1  0  0  0  0
 30 31  1  0  0  0  0
 30 51  1  1  0  0  0
 33 49  1  1  0  0  0
 34 33  1  0  0  0  0
 34 32  1  0  0  0  0
 35 38  1  0  0  0  0
 35 36  1  1  0  0  0
 36 33  1  0  0  0  0
 37 34  1  0  0  0  0
 38 31  1  6  0  0  0
 38 37  1  0  0  0  0
 41 40  1  0  0  0  0
 41 42  1  0  0  0  0
 42 44  1  6  0  0  0
 42 39  1  0  0  0  0
 43 40  1  6  0  0  0
 43 35  1  0  0  0  0
 43 39  1  0  0  0  0
 45 44  1  0  0  0  0
 45 46  1  0  0  0  0
 47 45  2  0  0  0  0
 49 50  2  0  0  0  0
 49 48  1  0  0  0  0
 51 53  1  0  0  0  0
 53 52  1  1  0  0  0
 53 54  1  0  0  0  0
 55 54  1  0  0  0  0
M  END
>  <MODEL>
7

>  <REMARK>
 VINA RESULT:      -4.5      2.557      8.702
  Name = 
  21 active torsions:
  status: ('A' for Active; 'I' for Inactive)
    1  A    between atoms: C_1  and  C_21
    2  A    between atoms: C_1  and  O_29
    3  A    between atoms: C_1  and  C_38
    4  A    between atoms: C_1  and  N_53
    5  A    between atoms: C_2  and  C_19
    6  A    between atoms: C_2  and  O_28
    7  A    between atoms: C_2  and  C_44
    8  A    between atoms: C_4  and  C_40
    9  A    between atoms: C_8  and  S_20
   10  A    between atoms: C_8  and  C_43
   11  A    between atoms: C_10  and  O_32
   12  A    between atoms: C_16  and  C_17
   13  A    between atoms: C_19  and  C_40
   14  A    between atoms: S_20  and  N_42
   15  A    between atoms: N_27  and  C_31
   16  A    between atoms: O_28  and  C_49
   17  A    between atoms: C_31  and  C_54
   18  A    between atoms: O_32  and  C_48
   19  A    between atoms: C_33  and  N_52
   20  A    between atoms: C_43  and  C_51
   21  A    between atoms: C_51  and  C_54
                            x       y       z     vdW  Elec       q    Type
                         _______ _______ _______ _____ _____    ______ ____

>  <TORSDO>
F 21

$$$$
=
 OpenBabel11052415113D

 55 59  0  0  1  0  0  0  0  0999 V2000
  186.0600  177.8490  135.6000 O   0  0  0  0  0  0  0  0  0  0  0  0
  186.7960  175.7190  136.2300 N   0  0  0  0  0  0  0  0  0  0  0  0
  186.9700  177.4430  134.6200 C   0  0  0  0  0  2  0  0  0  0  0  0
  186.3180  177.0130  136.6990 C   0  0  2  0  0  3  0  0  0  0  0  0
  187.3520  176.0190  134.9250 C   0  0  0  0  0  2  0  0  0  0  0  0
  187.8890  175.3210  137.1070 C   0  0  0  0  0  2  0  0  0  0  0  0
  188.3570  176.5060  137.9460 C   0  0  0  0  0  2  0  0  0  0  0  0
  189.9380  177.8400  136.4840 C   0  0  0  0  0  1  0  0  0  0  0  0
  189.8120  176.8650  137.6500 C   0  0  2  0  0  3  0  0  0  0  0  0
  190.6320  175.6020  137.3940 C   0  0  0  0  0  2  0  0  0  0  0  0
  191.1190  175.5130  135.9530 C   0  0  0  0  0  2  0  0  0  0  0  0
  193.1570  176.6250  134.5940 O   0  0  0  0  0  0  0  0  0  0  0  0
  192.8600  175.8690  135.8590 S   0  0  0  0  0  0  0  0  0  0  0  0
  193.2650  176.7040  137.0390 O   0  0  0  0  0  0  0  0  0  0  0  0
  194.1170  173.7250  137.0880 C   0  0  0  0  0  0  0  0  0  0  0  0
  193.8390  174.2570  138.1950 O   0  0  0  0  0  0  0  0  0  0  0  0
  193.7640  174.3930  135.8720 N   0  0  0  0  0  2  0  0  0  0  0  0
  194.9280  172.4390  137.0440 C   0  0  2  0  0  0  0  0  0  0  0  0
  197.3350  171.1280  137.3500 O   0  0  0  0  0  1  0  0  0  0  0  0
  197.1340  173.4540  136.6390 C   0  0  1  0  0  3  0  0  0  0  0  0
  197.9950  171.6050  134.9930 C   0  0  0  0  0  1  0  0  0  0  0  0
  197.3150  172.0360  136.2860 C   0  0  1  0  0  0  0  0  0  0  0  0
  197.6790  174.4200  135.5990 C   0  0  0  0  0  1  0  0  0  0  0  0
  196.0040  172.6910  136.0480 N   0  0  0  0  0  0  0  0  0  0  0  0
  194.6000  170.6740  135.2220 C   0  0  0  0  0  2  0  0  0  0  0  0
  193.5360  171.5930  135.2000 O   0  0  0  0  0  0  0  0  0  0  0  0
  194.0660  171.2770  136.4680 C   0  0  2  0  0  3  0  0  0  0  0  0
  195.4630  172.1280  138.3350 O   0  0  0  0  0  0  0  0  0  0  0  0
  195.0380  170.9300  138.6950 O   0  0  0  0  0  1  0  0  0  0  0  0
  185.0730  176.8700  137.5790 C   0  0  1  0  0  3  0  0  0  0  0  0
  184.9570  177.9970  138.3980 O   0  0  0  0  0  0  0  0  0  0  0  0
  181.6130  181.1520  138.6860 C   0  0  0  0  0  1  0  0  0  0  0  0
  181.3640  179.2500  140.1580 C   0  0  2  0  0  3  0  0  0  0  0  0
  182.2950  180.0290  139.3140 N   0  0  0  0  0  0  0  0  0  0  0  0
  183.5440  177.8990  140.3990 C   0  0  1  0  0  3  0  0  0  0  0  0
  182.0570  178.0350  140.8000 C   0  0  0  0  0  2  0  0  0  0  0  0
  182.8740  179.1920  138.2640 C   0  0  0  0  0  2  0  0  0  0  0  0
  183.6350  177.9920  138.8540 C   0  0  1  0  0  3  0  0  0  0  0  0
  184.1830  178.8960  142.5070 C   0  0  0  0  0  2  0  0  0  0  0  0
  185.7920  178.4700  140.9260 C   0  0  0  0  0  2  0  0  0  0  0  0
  186.5500  178.9900  142.1250 C   0  0  0  0  0  2  0  0  0  0  0  0
  185.4980  179.2130  143.1860 C   0  0  2  0  0  3  0  0  0  0  0  0
  184.4050  178.9030  141.0610 N   0  0  1  0  0  0  0  0  0  0  0  0
  185.6900  178.3200  144.2750 O   0  0  0  0  0  0  0  0  0  0  0  0
  185.3050  178.6360  145.5800 C   0  0  0  0  0  0  0  0  0  0  0  0
  183.9590  179.0190  145.8370 N   0  0  0  0  0  1  0  0  0  0  0  0
  186.1330  178.5900  146.5300 O   0  0  0  0  0  0  0  0  0  0  0  0
  180.1310  177.7620  138.7480 O   0  0  0  0  0  0  0  0  0  0  0  0
  180.1130  178.8110  139.4440 C   0  0  0  0  0  0  0  0  0  0  0  0
  178.9360  179.5410  139.5580 O   0  0  0  0  0  1  0  0  0  0  0  0
  183.8000  176.7100  136.7500 C   0  0  0  0  0  2  0  0  0  0  0  0
  181.7680  175.3560  137.1160 C   0  0  0  0  0  1  0  0  0  0  0  0
  183.2620  175.2930  136.8560 C   0  0  2  0  0  3  0  0  0  0  0  0
  183.9540  174.5590  137.9950 C   0  0  0  0  0  2  0  0  0  0  0  0
  184.6070  173.2870  137.4890 C   0  0  0  0  0  1  0  0  0  0  0  0
  1  4  1  0  0  0  0
  2  4  1  0  0  0  0
  2  6  1  0  0  0  0
  3  5  1  0  0  0  0
  3  1  1  0  0  0  0
  4 30  1  6  0  0  0
  5  2  1  0  0  0  0
  6  7  1  0  0  0  0
  9  8  1  6  0  0  0
  9  7  1  0  0  0  0
 10  9  1  0  0  0  0
 11 10  1  0  0  0  0
 12 13  2  0  0  0  0
 13 17  1  0  0  0  0
 13 11  1  0  0  0  0
 13 14  2  0  0  0  0
 15 16  2  0  0  0  0
 17 15  1  0  0  0  0
 18 15  1  1  0  0  0
 18 28  1  0  0  0  0
 20 23  1  6  0  0  0
 22 21  1  6  0  0  0
 22 20  1  0  0  0  0
 22 19  1  0  0  0  0
 24 22  1  0  0  0  0
 24 20  1  0  0  0  0
 24 18  1  0  0  0  0
 25 27  1  0  0  0  0
 26 25  1  0  0  0  0
 26 27  1  0  0  0  0
 27 18  1  6  0  0  0
 28 29  1  0  0  0  0
 30 51  1  6  0  0  0
 30 31  1  0  0  0  0
 32 34  1  0  0  0  0
 33 49  1  6  0  0  0
 33 36  1  0  0  0  0
 34 33  1  0  0  0  0
 35 36  1  6  0  0  0
 35 43  1  0  0  0  0
 37 38  1  0  0  0  0
 37 34  1  0  0  0  0
 38 31  1  1  0  0  0
 38 35  1  0  0  0  0
 39 42  1  0  0  0  0
 40 41  1  0  0  0  0
 41 42  1  0  0  0  0
 42 44  1  1  0  0  0
 43 40  1  1  0  0  0
 43 39  1  0  0  0  0
 44 45  1  0  0  0  0
 45 46  1  0  0  0  0
 45 47  2  0  0  0  0
 48 49  2  0  0  0  0
 49 50  1  0  0  0  0
 51 53  1  0  0  0  0
 53 52  1  1  0  0  0
 53 54  1  0  0  0  0
 55 54  1  0  0  0  0
M  END
>  <MODEL>
8

>  <REMARK>
 VINA RESULT:      -4.5      4.270      6.757
  Name = 
  21 active torsions:
  status: ('A' for Active; 'I' for Inactive)
    1  A    between atoms: C_1  and  C_21
    2  A    between atoms: C_1  and  O_29
    3  A    between atoms: C_1  and  C_38
    4  A    between atoms: C_1  and  N_53
    5  A    between atoms: C_2  and  C_19
    6  A    between atoms: C_2  and  O_28
    7  A    between atoms: C_2  and  C_44
    8  A    between atoms: C_4  and  C_40
    9  A    between atoms: C_8  and  S_20
   10  A    between atoms: C_8  and  C_43
   11  A    between atoms: C_10  and  O_32
   12  A    between atoms: C_16  and  C_17
   13  A    between atoms: C_19  and  C_40
   14  A    between atoms: S_20  and  N_42
   15  A    between atoms: N_27  and  C_31
   16  A    between atoms: O_28  and  C_49
   17  A    between atoms: C_31  and  C_54
   18  A    between atoms: O_32  and  C_48
   19  A    between atoms: C_33  and  N_52
   20  A    between atoms: C_43  and  C_51
   21  A    between atoms: C_51  and  C_54
                            x       y       z     vdW  Elec       q    Type
                         _______ _______ _______ _____ _____    ______ ____

>  <TORSDO>
F 21

$$$$
=
 OpenBabel11052415113D

 55 59  0  0  1  0  0  0  0  0999 V2000
  184.9390  178.8190  140.3230 O   0  0  0  0  0  0  0  0  0  0  0  0
  187.1970  178.6050  139.7440 N   0  0  0  0  0  0  0  0  0  0  0  0
  185.6700  179.3350  141.3960 C   0  0  0  0  0  2  0  0  0  0  0  0
  185.8610  178.0410  139.6020 C   0  0  2  0  0  3  0  0  0  0  0  0
  187.1200  179.3410  140.9910 C   0  0  0  0  0  2  0  0  0  0  0  0
  188.1160  177.4900  139.9300 C   0  0  0  0  0  2  0  0  0  0  0  0
  189.4320  177.7590  139.2070 C   0  0  0  0  0  2  0  0  0  0  0  0
  191.8160  177.1030  139.7590 C   0  0  0  0  0  1  0  0  0  0  0  0
  190.5930  177.9080  140.1880 C   0  0  2  0  0  3  0  0  0  0  0  0
  190.1530  177.5170  141.5980 C   0  0  0  0  0  2  0  0  0  0  0  0
  190.9070  176.3010  142.1220 C   0  0  0  0  0  2  0  0  0  0  0  0
  192.0180  175.2830  144.3500 O   0  0  0  0  0  0  0  0  0  0  0  0
  191.3090  176.5080  143.8430 S   0  0  0  0  0  0  0  0  0  0  0  0
  192.2060  177.7000  144.0070 O   0  0  0  0  0  0  0  0  0  0  0  0
  189.8630  177.4360  146.0190 C   0  0  0  0  0  0  0  0  0  0  0  0
  190.9550  177.8000  146.5300 O   0  0  0  0  0  0  0  0  0  0  0  0
  189.8620  176.7560  144.7590 N   0  0  0  0  0  2  0  0  0  0  0  0
  188.5660  177.6110  146.7930 C   0  0  2  0  0  0  0  0  0  0  0  0
  185.9290  177.8630  147.5630 O   0  0  0  0  0  1  0  0  0  0  0  0
  186.6350  177.0410  145.3760 C   0  0  1  0  0  3  0  0  0  0  0  0
  185.4150  179.3470  145.6240 C   0  0  0  0  0  1  0  0  0  0  0  0
  186.1560  178.1540  146.2130 C   0  0  1  0  0  0  0  0  0  0  0  0
  186.3230  177.2060  143.8970 C   0  0  0  0  0  1  0  0  0  0  0  0
  187.5800  178.1080  145.7950 N   0  0  0  0  0  0  0  0  0  0  0  0
  189.6830  178.4410  148.9400 C   0  0  0  0  0  2  0  0  0  0  0  0
  188.2940  178.3280  149.1310 O   0  0  0  0  0  0  0  0  0  0  0  0
  188.7190  178.7430  147.8530 C   0  0  2  0  0  3  0  0  0  0  0  0
  188.1490  176.3730  147.3790 O   0  0  0  0  0  0  0  0  0  0  0  0
  189.2110  175.6090  147.5620 O   0  0  0  0  0  1  0  0  0  0  0  0
  185.4470  177.9310  138.1320 C   0  0  1  0  0  3  0  0  0  0  0  0
  184.2190  178.5740  137.9500 O   0  0  0  0  0  0  0  0  0  0  0  0
  181.6680  176.4980  134.7240 C   0  0  0  0  0  1  0  0  0  0  0  0
  180.8180  176.3220  136.9810 C   0  0  2  0  0  3  0  0  0  0  0  0
  181.7290  177.0480  136.0710 N   0  0  0  0  0  0  0  0  0  0  0  0
  181.9170  178.0130  138.5820 C   0  0  1  0  0  3  0  0  0  0  0  0
  180.8970  176.8630  138.4190 C   0  0  0  0  0  2  0  0  0  0  0  0
  183.1110  176.9680  136.5430 C   0  0  0  0  0  2  0  0  0  0  0  0
  183.2600  177.5560  137.9570 C   0  0  1  0  0  3  0  0  0  0  0  0
  180.0170  179.4740  138.2670 C   0  0  0  0  0  2  0  0  0  0  0  0
  182.0770  180.3820  138.7110 C   0  0  0  0  0  2  0  0  0  0  0  0
  181.1310  181.5590  138.6730 C   0  0  0  0  0  2  0  0  0  0  0  0
  179.7670  180.9560  138.4410 C   0  0  2  0  0  3  0  0  0  0  0  0
  181.4410  179.2830  137.9930 N   0  0  1  0  0  0  0  0  0  0  0  0
  178.9310  181.1610  139.5720 O   0  0  0  0  0  0  0  0  0  0  0  0
  179.1930  180.5780  140.8140 C   0  0  0  0  0  0  0  0  0  0  0  0
  179.2690  179.1610  140.9170 N   0  0  0  0  0  1  0  0  0  0  0  0
  179.3570  181.2890  141.8430 O   0  0  0  0  0  0  0  0  0  0  0  0
  181.9560  174.3270  137.6520 O   0  0  0  0  0  1  0  0  0  0  0  0
  181.0160  174.8290  136.9810 C   0  0  0  0  0  0  0  0  0  0  0  0
  180.1630  173.9990  136.2640 O   0  0  0  0  0  0  0  0  0  0  0  0
  186.4860  178.5470  137.1960 C   0  0  0  0  0  2  0  0  0  0  0  0
  187.5650  177.8870  135.0750 C   0  0  0  0  0  1  0  0  0  0  0  0
  187.3010  177.4650  136.5090 C   0  0  2  0  0  3  0  0  0  0  0  0
  186.5380  176.1490  136.5280 C   0  0  0  0  0  2  0  0  0  0  0  0
  186.2330  175.6890  135.1150 C   0  0  0  0  0  1  0  0  0  0  0  0
  1  3  1  0  0  0  0
  2  6  1  0  0  0  0
  2  5  1  0  0  0  0
  4 30  1  6  0  0  0
  4  2  1  0  0  0  0
  4  1  1  0  0  0  0
  5  3  1  0  0  0  0
  7  6  1  0  0  0  0
  7  9  1  0  0  0  0
  9  8  1  6  0  0  0
  9 10  1  0  0  0  0
 10 11  1  0  0  0  0
 11 13  1  0  0  0  0
 13 14  2  0  0  0  0
 13 12  2  0  0  0  0
 13 17  1  0  0  0  0
 15 16  2  0  0  0  0
 17 15  1  0  0  0  0
 18 15  1  6  0  0  0
 18 28  1  0  0  0  0
 20 23  1  6  0  0  0
 20 24  1  0  0  0  0
 20 22  1  0  0  0  0
 22 21  1  6  0  0  0
 22 19  1  0  0  0  0
 24 22  1  0  0  0  0
 24 18  1  0  0  0  0
 25 26  1  0  0  0  0
 27 18  1  6  0  0  0
 27 25  1  0  0  0  0
 27 26  1  0  0  0  0
 28 29  1  0  0  0  0
 30 51  1  6  0  0  0
 31 30  1  0  0  0  0
 32 34  1  0  0  0  0
 33 49  1  1  0  0  0
 33 36  1  0  0  0  0
 34 37  1  0  0  0  0
 34 33  1  0  0  0  0
 35 36  1  6  0  0  0
 37 38  1  0  0  0  0
 38 31  1  6  0  0  0
 38 35  1  0  0  0  0
 39 42  1  0  0  0  0
 41 40  1  0  0  0  0
 42 41  1  0  0  0  0
 42 44  1  1  0  0  0
 43 39  1  1  0  0  0
 43 35  1  0  0  0  0
 43 40  1  0  0  0  0
 44 45  1  0  0  0  0
 45 46  1  0  0  0  0
 45 47  2  0  0  0  0
 49 48  1  0  0  0  0
 50 49  2  0  0  0  0
 53 52  1  6  0  0  0
 53 54  1  0  0  0  0
 53 51  1  0  0  0  0
 55 54  1  0  0  0  0
M  END
>  <MODEL>
9

>  <REMARK>
 VINA RESULT:      -4.4      2.696      4.174
  Name = 
  21 active torsions:
  status: ('A' for Active; 'I' for Inactive)
    1  A    between atoms: C_1  and  C_21
    2  A    between atoms: C_1  and  O_29
    3  A    between atoms: C_1  and  C_38
    4  A    between atoms: C_1  and  N_53
    5  A    between atoms: C_2  and  C_19
    6  A    between atoms: C_2  and  O_28
    7  A    between atoms: C_2  and  C_44
    8  A    between atoms: C_4  and  C_40
    9  A    between atoms: C_8  and  S_20
   10  A    between atoms: C_8  and  C_43
   11  A    between atoms: C_10  and  O_32
   12  A    between atoms: C_16  and  C_17
   13  A    between atoms: C_19  and  C_40
   14  A    between atoms: S_20  and  N_42
   15  A    between atoms: N_27  and  C_31
   16  A    between atoms: O_28  and  C_49
   17  A    between atoms: C_31  and  C_54
   18  A    between atoms: O_32  and  C_48
   19  A    between atoms: C_33  and  N_52
   20  A    between atoms: C_43  and  C_51
   21  A    between atoms: C_51  and  C_54
                            x       y       z     vdW  Elec       q    Type
                         _______ _______ _______ _____ _____    ______ ____

>  <TORSDO>
F 21

$$$$
