=
 OpenBabel11052413303D

 28 31  0  0  1  0  0  0  0  0999 V2000
  190.6530  176.6760  144.5480 C   0  0  0  0  0  0  0  0  0  0  0  0
  185.9070  177.9190  143.2110 C   0  0  0  0  0  2  0  0  0  0  0  0
  188.6060  177.6880  148.8010 F   0  0  0  0  0  0  0  0  0  0  0  0
  185.0800  178.9270  145.3420 C   0  0  0  0  0  0  0  0  0  0  0  0
  187.2970  177.8860  145.3810 C   0  0  0  0  0  0  0  0  0  0  0  0
  183.7480  179.1430  143.2130 C   0  0  2  0  0  3  0  0  0  0  0  0
  186.0450  178.2510  144.6770 C   0  0  0  0  0  0  0  0  0  0  0  0
  186.1310  178.3730  147.5530 C   0  0  0  0  0  2  0  0  0  0  0  0
  183.7240  179.1820  144.7380 C   0  0  0  0  0  2  0  0  0  0  0  0
  189.6450  177.1930  146.7020 C   0  0  0  0  0  0  0  0  0  0  0  0
  188.3830  177.4570  144.6810 N   0  0  0  0  0  0  0  0  0  0  0  0
  185.3100  179.3890  146.7570 C   0  0  0  0  0  2  0  0  0  0  0  0
  191.9030  176.4260  146.5800 N   0  0  0  0  0  0  0  0  0  0  0  0
  188.5380  177.6220  147.4460 C   0  0  0  0  0  0  0  0  0  0  0  0
  190.8440  176.8380  147.3250 C   0  0  0  0  0  3  0  0  0  0  0  0
  182.4540  179.1550  142.7320 F   0  0  0  0  0  0  0  0  0  0  0  0
  184.4530  177.8770  142.7540 C   0  0  0  0  0  2  0  0  0  0  0  0
  187.3600  177.9800  146.7830 C   0  0  0  0  0  0  0  0  0  0  0  0
  191.8350  176.3430  145.2250 C   0  0  0  0  0  3  0  0  0  0  0  0
  189.5480  177.1130  145.2960 C   0  0  0  0  0  0  0  0  0  0  0  0
  190.5880  176.6090  143.0460 C   0  0  2  0  0  3  0  0  0  0  0  0
  190.7740  175.3050  142.5800 O   0  0  0  0  0  1  0  0  0  0  0  0
  191.5550  177.5850  142.3690 C   0  0  0  0  0  2  0  0  0  0  0  0
  190.2990  177.5780  140.1430 N   0  0  0  0  0  0  0  0  0  0  0  0
  192.6200  177.3170  140.2570 O   0  0  0  0  0  0  0  0  0  0  0  0
  191.5330  177.4890  140.8730 C   0  0  0  0  0  0  0  0  0  0  0  0
  189.0440  177.8680  140.8160 C   0  0  0  0  0  1  0  0  0  0  0  0
  190.2820  177.4120  138.6990 C   0  0  0  0  0  1  0  0  0  0  0  0
  1 19  2  0  0  0  0
  1 20  1  0  0  0  0
  2  7  1  0  0  0  0
  4 12  1  0  0  0  0
  5 18  1  0  0  0  0
  6 16  1  6  0  0  0
  6  9  1  0  0  0  0
  7  4  2  0  0  0  0
  7  5  1  0  0  0  0
  9  4  1  0  0  0  0
 10 15  1  0  0  0  0
 10 14  1  0  0  0  0
 11 20  1  0  0  0  0
 11  5  2  0  0  0  0
 12  8  1  0  0  0  0
 13 15  2  0  0  0  0
 14  3  1  0  0  0  0
 17  2  1  0  0  0  0
 17  6  1  0  0  0  0
 18 14  2  0  0  0  0
 18  8  1  0  0  0  0
 19 13  1  0  0  0  0
 20 10  2  0  0  0  0
 21 22  1  1  0  0  0
 21  1  1  0  0  0  0
 23 21  1  0  0  0  0
 24 27  1  0  0  0  0
 24 26  1  0  0  0  0
 25 26  2  0  0  0  0
 26 23  1  0  0  0  0
 28 24  1  0  0  0  0
M  END
>  <MODEL>
1

>  <REMARK>
 VINA RESULT:     -10.6      0.000      0.000
  Name = 
  3 active torsions:
  status: ('A' for Active; 'I' for Inactive)
    1  A    between atoms: C_1  and  C_2
    2  A    between atoms: C_2  and  C_3
    3  A    between atoms: C_3  and  C_11
                            x       y       z     vdW  Elec       q    Type
                         _______ _______ _______ _____ _____    ______ ____

>  <TORSDO>
F 3

$$$$
=
 OpenBabel11052413303D

 28 31  0  0  1  0  0  0  0  0999 V2000
  184.7200  178.7170  144.3110 C   0  0  0  0  0  0  0  0  0  0  0  0
  187.9950  178.1880  140.4570 C   0  0  0  0  0  2  0  0  0  0  0  0
  188.6600  177.0150  146.5200 F   0  0  0  0  0  0  0  0  0  0  0  0
  189.7810  176.8310  141.5570 C   0  0  0  0  0  0  0  0  0  0  0  0
  187.9600  177.6490  142.9760 C   0  0  0  0  0  0  0  0  0  0  0  0
  189.7810  177.1780  139.0600 C   0  0  2  0  0  3  0  0  0  0  0  0
  188.6370  177.5470  141.6630 C   0  0  0  0  0  0  0  0  0  0  0  0
  190.0760  176.8190  144.0490 C   0  0  0  0  0  2  0  0  0  0  0  0
  190.6030  176.8230  140.2950 C   0  0  0  0  0  2  0  0  0  0  0  0
  186.6910  177.8490  145.4440 C   0  0  0  0  0  0  0  0  0  0  0  0
  186.6860  178.1210  143.0620 N   0  0  0  0  0  0  0  0  0  0  0  0
  190.3130  176.0650  142.7400 C   0  0  0  0  0  2  0  0  0  0  0  0
  184.7390  178.4300  146.6920 N   0  0  0  0  0  0  0  0  0  0  0  0
  188.0050  177.3690  145.3840 C   0  0  0  0  0  0  0  0  0  0  0  0
  186.0150  177.9620  146.6610 C   0  0  0  0  0  3  0  0  0  0  0  0
  190.6260  177.3770  137.9860 F   0  0  0  0  0  0  0  0  0  0  0  0
  188.9910  178.4480  139.3310 C   0  0  0  0  0  2  0  0  0  0  0  0
  188.6420  177.2590  144.1440 C   0  0  0  0  0  0  0  0  0  0  0  0
  184.0870  178.8010  145.5590 C   0  0  0  0  0  3  0  0  0  0  0  0
  186.0350  178.2290  144.2530 C   0  0  0  0  0  0  0  0  0  0  0  0
  183.9860  179.1020  143.0540 C   0  0  2  0  0  3  0  0  0  0  0  0
  182.6180  179.2670  143.2860 O   0  0  0  0  0  1  0  0  0  0  0  0
  184.2410  178.1290  141.9000 C   0  0  0  0  0  2  0  0  0  0  0  0
  182.9450  178.3550  139.7080 N   0  0  0  0  0  0  0  0  0  0  0  0
  184.8520  179.6320  140.1570 O   0  0  0  0  0  0  0  0  0  0  0  0
  184.0380  178.7530  140.5510 C   0  0  0  0  0  0  0  0  0  0  0  0
  181.9400  177.4130  140.1710 C   0  0  0  0  0  1  0  0  0  0  0  0
  182.8010  178.9140  138.3740 C   0  0  0  0  0  1  0  0  0  0  0  0
  1 19  1  0  0  0  0
  2  7  1  0  0  0  0
  4  7  2  0  0  0  0
  4 12  1  0  0  0  0
  5 11  2  0  0  0  0
  5 18  1  0  0  0  0
  6 16  1  6  0  0  0
  6 17  1  0  0  0  0
  6  9  1  0  0  0  0
  7  5  1  0  0  0  0
  8 18  1  0  0  0  0
  9  4  1  0  0  0  0
 10 15  2  0  0  0  0
 11 20  1  0  0  0  0
 12  8  1  0  0  0  0
 14 10  1  0  0  0  0
 14  3  1  0  0  0  0
 15 13  1  0  0  0  0
 17  2  1  0  0  0  0
 18 14  2  0  0  0  0
 19 13  2  0  0  0  0
 20  1  2  0  0  0  0
 20 10  1  0  0  0  0
 21 22  1  1  0  0  0
 21  1  1  0  0  0  0
 23 21  1  0  0  0  0
 24 27  1  0  0  0  0
 24 26  1  0  0  0  0
 25 26  2  0  0  0  0
 26 23  1  0  0  0  0
 28 24  1  0  0  0  0
M  END
>  <MODEL>
2

>  <REMARK>
 VINA RESULT:     -10.2      3.702      6.337
  Name = 
  3 active torsions:
  status: ('A' for Active; 'I' for Inactive)
    1  A    between atoms: C_1  and  C_2
    2  A    between atoms: C_2  and  C_3
    3  A    between atoms: C_3  and  C_11
                            x       y       z     vdW  Elec       q    Type
                         _______ _______ _______ _____ _____    ______ ____

>  <TORSDO>
F 3

$$$$
=
 OpenBabel11052413303D

 28 31  0  0  1  0  0  0  0  0999 V2000
  189.7250  177.5620  141.5260 C   0  0  0  0  0  0  0  0  0  0  0  0
  184.8070  178.4990  142.4160 C   0  0  0  0  0  2  0  0  0  0  0  0
  189.3780  176.8620  146.2900 F   0  0  0  0  0  0  0  0  0  0  0  0
  184.8120  178.6440  144.9100 C   0  0  0  0  0  0  0  0  0  0  0  0
  186.8990  177.9640  143.8220 C   0  0  0  0  0  0  0  0  0  0  0  0
  182.7880  179.3460  143.5830 C   0  0  2  0  0  3  0  0  0  0  0  0
  185.4720  178.3580  143.7630 C   0  0  0  0  0  0  0  0  0  0  0  0
  186.6110  177.5620  146.2860 C   0  0  0  0  0  2  0  0  0  0  0  0
  183.3260  178.8900  144.9350 C   0  0  0  0  0  2  0  0  0  0  0  0
  189.5760  177.2150  143.9300 C   0  0  0  0  0  0  0  0  0  0  0  0
  187.6560  177.9370  142.6900 N   0  0  0  0  0  0  0  0  0  0  0  0
  185.5430  178.6550  146.2270 C   0  0  0  0  0  2  0  0  0  0  0  0
  191.6390  176.8490  142.7840 N   0  0  0  0  0  0  0  0  0  0  0  0
  188.8170  177.2250  145.1080 C   0  0  0  0  0  0  0  0  0  0  0  0
  190.9240  176.8490  143.9400 C   0  0  0  0  0  3  0  0  0  0  0  0
  181.4070  179.3330  143.6100 F   0  0  0  0  0  0  0  0  0  0  0  0
  183.2880  178.4050  142.5000 C   0  0  0  0  0  2  0  0  0  0  0  0
  187.4730  177.6100  145.0570 C   0  0  0  0  0  0  0  0  0  0  0  0
  191.0770  177.1950  141.5960 C   0  0  0  0  0  3  0  0  0  0  0  0
  188.9690  177.5780  142.7090 C   0  0  0  0  0  0  0  0  0  0  0  0
  189.1120  177.9730  140.2140 C   0  0  2  0  0  3  0  0  0  0  0  0
  187.9910  177.1970  139.9040 O   0  0  0  0  0  1  0  0  0  0  0  0
  190.1230  177.9730  139.0640 C   0  0  0  0  0  2  0  0  0  0  0  0
  189.4740  177.2860  136.6900 N   0  0  0  0  0  0  0  0  0  0  0  0
  189.0000  179.4130  137.5370 O   0  0  0  0  0  0  0  0  0  0  0  0
  189.4980  178.2720  137.7340 C   0  0  0  0  0  0  0  0  0  0  0  0
  189.9570  175.9350  136.9170 C   0  0  0  0  0  1  0  0  0  0  0  0
  188.9310  177.6110  135.3810 C   0  0  0  0  0  1  0  0  0  0  0  0
  1 19  2  0  0  0  0
  1 20  1  0  0  0  0
  2 17  1  0  0  0  0
  2  7  1  0  0  0  0
  4  9  1  0  0  0  0
  4 12  1  0  0  0  0
  5 18  1  0  0  0  0
  6 16  1  1  0  0  0
  6  9  1  0  0  0  0
  7  5  1  0  0  0  0
  7  4  2  0  0  0  0
 10 15  1  0  0  0  0
 10 14  1  0  0  0  0
 11 20  1  0  0  0  0
 11  5  2  0  0  0  0
 12  8  1  0  0  0  0
 13 15  2  0  0  0  0
 14  3  1  0  0  0  0
 17  6  1  0  0  0  0
 18 14  2  0  0  0  0
 18  8  1  0  0  0  0
 19 13  1  0  0  0  0
 20 10  2  0  0  0  0
 21 22  1  6  0  0  0
 21  1  1  0  0  0  0
 23 21  1  0  0  0  0
 24 27  1  0  0  0  0
 24 26  1  0  0  0  0
 25 26  2  0  0  0  0
 26 23  1  0  0  0  0
 28 24  1  0  0  0  0
M  END
>  <MODEL>
3

>  <REMARK>
 VINA RESULT:     -10.1      2.046      2.870
  Name = 
  3 active torsions:
  status: ('A' for Active; 'I' for Inactive)
    1  A    between atoms: C_1  and  C_2
    2  A    between atoms: C_2  and  C_3
    3  A    between atoms: C_3  and  C_11
                            x       y       z     vdW  Elec       q    Type
                         _______ _______ _______ _____ _____    ______ ____

>  <TORSDO>
F 3

$$$$
=
 OpenBabel11052413303D

 28 31  0  0  1  0  0  0  0  0999 V2000
  188.9320  177.0950  143.8040 C   0  0  0  0  0  0  0  0  0  0  0  0
  184.5400  177.7310  141.3200 C   0  0  0  0  0  2  0  0  0  0  0  0
  185.9720  178.6200  147.2990 F   0  0  0  0  0  0  0  0  0  0  0  0
  183.2290  179.0030  143.0250 C   0  0  0  0  0  0  0  0  0  0  0  0
  185.4270  178.1590  143.7010 C   0  0  0  0  0  0  0  0  0  0  0  0
  182.3830  178.7660  140.6630 C   0  0  2  0  0  3  0  0  0  0  0  0
  184.3440  178.3050  142.7020 C   0  0  0  0  0  0  0  0  0  0  0  0
  183.8000  178.8990  145.4670 C   0  0  0  0  0  2  0  0  0  0  0  0
  182.0270  179.0500  142.1190 C   0  0  0  0  0  2  0  0  0  0  0  0
  187.4600  177.8740  145.5790 C   0  0  0  0  0  0  0  0  0  0  0  0
  186.6560  177.7080  143.3270 N   0  0  0  0  0  0  0  0  0  0  0  0
  183.1290  179.7050  144.3540 C   0  0  0  0  0  2  0  0  0  0  0  0
  189.7220  177.2760  146.0610 N   0  0  0  0  0  0  0  0  0  0  0  0
  186.2020  178.3300  145.9920 C   0  0  0  0  0  0  0  0  0  0  0  0
  188.5100  177.7200  146.4880 C   0  0  0  0  0  3  0  0  0  0  0  0
  181.2240  178.5990  139.9310 F   0  0  0  0  0  0  0  0  0  0  0  0
  183.2220  177.5020  140.5880 C   0  0  0  0  0  2  0  0  0  0  0  0
  185.1810  178.4830  145.0480 C   0  0  0  0  0  0  0  0  0  0  0  0
  189.9520  176.9690  144.7580 C   0  0  0  0  0  3  0  0  0  0  0  0
  187.6740  177.5600  144.2200 C   0  0  0  0  0  0  0  0  0  0  0  0
  189.1960  176.7810  142.3560 C   0  0  2  0  0  3  0  0  0  0  0  0
  190.1200  175.7420  142.2140 O   0  0  0  0  0  1  0  0  0  0  0  0
  189.6190  178.0140  141.5510 C   0  0  0  0  0  2  0  0  0  0  0  0
  189.5280  177.6940  139.0170 N   0  0  0  0  0  0  0  0  0  0  0  0
  187.7480  178.6270  140.2120 O   0  0  0  0  0  0  0  0  0  0  0  0
  188.9070  178.1280  140.2370 C   0  0  0  0  0  0  0  0  0  0  0  0
  190.8230  177.0330  139.0250 C   0  0  0  0  0  1  0  0  0  0  0  0
  188.8580  177.8770  137.7410 C   0  0  0  0  0  1  0  0  0  0  0  0
  1 20  2  0  0  0  0
  1 19  1  0  0  0  0
  2  7  1  0  0  0  0
  4 12  1  0  0  0  0
  5 18  1  0  0  0  0
  6 16  1  6  0  0  0
  6  9  1  0  0  0  0
  7  4  2  0  0  0  0
  7  5  1  0  0  0  0
  9  4  1  0  0  0  0
 10 14  1  0  0  0  0
 10 15  2  0  0  0  0
 11  5  2  0  0  0  0
 11 20  1  0  0  0  0
 12  8  1  0  0  0  0
 13 15  1  0  0  0  0
 14  3  1  0  0  0  0
 17  6  1  0  0  0  0
 17  2  1  0  0  0  0
 18  8  1  0  0  0  0
 18 14  2  0  0  0  0
 19 13  2  0  0  0  0
 20 10  1  0  0  0  0
 21 22  1  1  0  0  0
 21  1  1  0  0  0  0
 23 21  1  0  0  0  0
 24 27  1  0  0  0  0
 24 26  1  0  0  0  0
 25 26  2  0  0  0  0
 26 23  1  0  0  0  0
 28 24  1  0  0  0  0
M  END
>  <MODEL>
4

>  <REMARK>
 VINA RESULT:      -9.9      1.844      2.662
  Name = 
  3 active torsions:
  status: ('A' for Active; 'I' for Inactive)
    1  A    between atoms: C_1  and  C_2
    2  A    between atoms: C_2  and  C_3
    3  A    between atoms: C_3  and  C_11
                            x       y       z     vdW  Elec       q    Type
                         _______ _______ _______ _____ _____    ______ ____

>  <TORSDO>
F 3

$$$$
=
 OpenBabel11052413303D

 28 31  0  0  1  0  0  0  0  0999 V2000
  183.6010  178.5960  141.7880 C   0  0  0  0  0  0  0  0  0  0  0  0
  188.5780  177.7310  142.3740 C   0  0  0  0  0  2  0  0  0  0  0  0
  184.1080  178.6530  146.5890 F   0  0  0  0  0  0  0  0  0  0  0  0
  188.6730  177.2470  144.8240 C   0  0  0  0  0  0  0  0  0  0  0  0
  186.5250  177.9910  143.9100 C   0  0  0  0  0  0  0  0  0  0  0  0
  190.6670  176.8090  143.3450 C   0  0  2  0  0  3  0  0  0  0  0  0
  187.9600  177.6620  143.7500 C   0  0  0  0  0  0  0  0  0  0  0  0
  186.8950  178.0640  146.3950 C   0  0  0  0  0  2  0  0  0  0  0  0
  190.1660  177.0560  144.7640 C   0  0  0  0  0  2  0  0  0  0  0  0
  183.8310  178.6170  144.2110 C   0  0  0  0  0  0  0  0  0  0  0  0
  185.7250  178.1440  142.8190 N   0  0  0  0  0  0  0  0  0  0  0  0
  187.9940  177.0290  146.1500 C   0  0  0  0  0  2  0  0  0  0  0  0
  181.7150  179.0590  143.1960 N   0  0  0  0  0  0  0  0  0  0  0  0
  184.6350  178.4750  145.3490 C   0  0  0  0  0  0  0  0  0  0  0  0
  182.4730  178.9280  144.3160 C   0  0  0  0  0  3  0  0  0  0  0  0
  192.0470  176.8700  143.3270 F   0  0  0  0  0  0  0  0  0  0  0  0
  190.0950  177.8700  142.4190 C   0  0  0  0  0  2  0  0  0  0  0  0
  185.9880  178.1510  145.2010 C   0  0  0  0  0  0  0  0  0  0  0  0
  182.2420  178.8990  141.9540 C   0  0  0  0  0  3  0  0  0  0  0  0
  184.4020  178.4480  142.9310 C   0  0  0  0  0  0  0  0  0  0  0  0
  184.1770  178.3920  140.4120 C   0  0  2  0  0  3  0  0  0  0  0  0
  184.9330  179.4930  140.0010 O   0  0  0  0  0  1  0  0  0  0  0  0
  183.1100  178.0300  139.3740 C   0  0  0  0  0  2  0  0  0  0  0  0
  183.8680  176.0810  137.9060 N   0  0  0  0  0  0  0  0  0  0  0  0
  182.4130  175.7800  139.7110 O   0  0  0  0  0  0  0  0  0  0  0  0
  183.1070  176.5730  139.0200 C   0  0  0  0  0  0  0  0  0  0  0  0
  184.7490  176.9550  137.1490 C   0  0  0  0  0  1  0  0  0  0  0  0
  183.8000  174.6790  137.5280 C   0  0  0  0  0  1  0  0  0  0  0  0
  1 19  2  0  0  0  0
  1 20  1  0  0  0  0
  2 17  1  0  0  0  0
  2  7  1  0  0  0  0
  4 12  1  0  0  0  0
  5 18  1  0  0  0  0
  6 16  1  1  0  0  0
  6  9  1  0  0  0  0
  7  5  1  0  0  0  0
  7  4  2  0  0  0  0
  9  4  1  0  0  0  0
 10 15  1  0  0  0  0
 10 14  1  0  0  0  0
 11 20  1  0  0  0  0
 11  5  2  0  0  0  0
 12  8  1  0  0  0  0
 13 15  2  0  0  0  0
 14  3  1  0  0  0  0
 17  6  1  0  0  0  0
 18 14  2  0  0  0  0
 18  8  1  0  0  0  0
 19 13  1  0  0  0  0
 20 10  2  0  0  0  0
 21 22  1  6  0  0  0
 21  1  1  0  0  0  0
 23 21  1  0  0  0  0
 24 26  1  0  0  0  0
 26 23  1  0  0  0  0
 26 25  2  0  0  0  0
 27 24  1  0  0  0  0
 28 24  1  0  0  0  0
M  END
>  <MODEL>
5

>  <REMARK>
 VINA RESULT:      -9.9      3.941      6.797
  Name = 
  3 active torsions:
  status: ('A' for Active; 'I' for Inactive)
    1  A    between atoms: C_1  and  C_2
    2  A    between atoms: C_2  and  C_3
    3  A    between atoms: C_3  and  C_11
                            x       y       z     vdW  Elec       q    Type
                         _______ _______ _______ _____ _____    ______ ____

>  <TORSDO>
F 3

$$$$
=
 OpenBabel11052413303D

 28 31  0  0  1  0  0  0  0  0999 V2000
  187.1410  178.3130  140.1770 C   0  0  0  0  0  0  0  0  0  0  0  0
  190.2650  177.5160  144.1090 C   0  0  0  0  0  2  0  0  0  0  0  0
  184.1830  178.7700  143.9650 F   0  0  0  0  0  0  0  0  0  0  0  0
  188.6100  177.2370  145.9600 C   0  0  0  0  0  0  0  0  0  0  0  0
  187.7400  177.8960  143.7670 C   0  0  0  0  0  0  0  0  0  0  0  0
  191.0440  176.6850  146.3140 C   0  0  2  0  0  3  0  0  0  0  0  0
  188.8650  177.5600  144.6700 C   0  0  0  0  0  0  0  0  0  0  0  0
  186.2880  178.1760  145.7990 C   0  0  0  0  0  2  0  0  0  0  0  0
  189.7140  177.0470  146.9670 C   0  0  0  0  0  2  0  0  0  0  0  0
  185.6300  178.5360  142.0710 C   0  0  0  0  0  0  0  0  0  0  0  0
  187.9290  177.9550  142.4200 N   0  0  0  0  0  0  0  0  0  0  0  0
  187.1910  177.1280  146.4520 C   0  0  0  0  0  2  0  0  0  0  0  0
  184.8350  178.8850  139.8460 N   0  0  0  0  0  0  0  0  0  0  0  0
  185.4110  178.4920  143.4540 C   0  0  0  0  0  0  0  0  0  0  0  0
  184.5970  178.8500  141.1830 C   0  0  0  0  0  3  0  0  0  0  0  0
  192.0520  176.7490  147.2560 F   0  0  0  0  0  0  0  0  0  0  0  0
  191.3330  177.6630  145.1870 C   0  0  0  0  0  2  0  0  0  0  0  0
  186.4680  178.1620  144.3080 C   0  0  0  0  0  0  0  0  0  0  0  0
  186.0660  178.6240  139.3320 C   0  0  0  0  0  3  0  0  0  0  0  0
  186.9170  178.2630  141.5620 C   0  0  0  0  0  0  0  0  0  0  0  0
  188.4970  177.9970  139.6040 C   0  0  2  0  0  3  0  0  0  0  0  0
  189.0520  179.1030  138.9540 O   0  0  0  0  0  1  0  0  0  0  0  0
  188.4800  176.7670  138.6930 C   0  0  0  0  0  2  0  0  0  0  0  0
  190.2550  176.4800  136.8760 N   0  0  0  0  0  0  0  0  0  0  0  0
  190.6440  175.8630  139.0970 O   0  0  0  0  0  0  0  0  0  0  0  0
  189.8490  176.3480  138.2470 C   0  0  0  0  0  0  0  0  0  0  0  0
  189.3950  177.1190  135.8940 C   0  0  0  0  0  1  0  0  0  0  0  0
  191.5580  176.0040  136.4430 C   0  0  0  0  0  1  0  0  0  0  0  0
  1 20  1  0  0  0  0
  2  7  1  0  0  0  0
  2 17  1  0  0  0  0
  4 12  1  0  0  0  0
  4  9  1  0  0  0  0
  5 18  1  0  0  0  0
  5  7  1  0  0  0  0
  6  9  1  0  0  0  0
  6 16  1  1  0  0  0
  7  4  2  0  0  0  0
  8 12  1  0  0  0  0
 10 14  1  0  0  0  0
 11  5  2  0  0  0  0
 13 15  2  0  0  0  0
 14  3  1  0  0  0  0
 14 18  2  0  0  0  0
 15 10  1  0  0  0  0
 17  6  1  0  0  0  0
 18  8  1  0  0  0  0
 19 13  1  0  0  0  0
 19  1  2  0  0  0  0
 20 10  2  0  0  0  0
 20 11  1  0  0  0  0
 21 22  1  6  0  0  0
 21  1  1  0  0  0  0
 23 21  1  0  0  0  0
 24 26  1  0  0  0  0
 26 23  1  0  0  0  0
 26 25  2  0  0  0  0
 27 24  1  0  0  0  0
 28 24  1  0  0  0  0
M  END
>  <MODEL>
6

>  <REMARK>
 VINA RESULT:      -9.8      2.357      5.717
  Name = 
  3 active torsions:
  status: ('A' for Active; 'I' for Inactive)
    1  A    between atoms: C_1  and  C_2
    2  A    between atoms: C_2  and  C_3
    3  A    between atoms: C_3  and  C_11
                            x       y       z     vdW  Elec       q    Type
                         _______ _______ _______ _____ _____    ______ ____

>  <TORSDO>
F 3

$$$$
=
 OpenBabel11052413303D

 28 31  0  0  1  0  0  0  0  0999 V2000
  184.7190  178.5650  144.1950 C   0  0  0  0  0  0  0  0  0  0  0  0
  188.3120  177.8710  140.6650 C   0  0  0  0  0  2  0  0  0  0  0  0
  188.6180  177.5700  146.8610 F   0  0  0  0  0  0  0  0  0  0  0  0
  190.1260  176.8550  142.0510 C   0  0  0  0  0  0  0  0  0  0  0  0
  188.1350  177.6630  143.2270 C   0  0  0  0  0  0  0  0  0  0  0  0
  190.2840  176.8730  139.5350 C   0  0  2  0  0  3  0  0  0  0  0  0
  188.9170  177.4600  141.9850 C   0  0  0  0  0  0  0  0  0  0  0  0
  190.2300  177.1970  144.5350 C   0  0  0  0  0  2  0  0  0  0  0  0
  191.0390  176.7670  140.8560 C   0  0  0  0  0  2  0  0  0  0  0  0
  186.6680  178.0540  145.5580 C   0  0  0  0  0  0  0  0  0  0  0  0
  186.8200  178.0120  143.1660 N   0  0  0  0  0  0  0  0  0  0  0  0
  190.6340  176.3070  143.3590 C   0  0  0  0  0  2  0  0  0  0  0  0
  184.5830  178.5930  146.5890 N   0  0  0  0  0  0  0  0  0  0  0  0
  188.0220  177.7050  145.6480 C   0  0  0  0  0  0  0  0  0  0  0  0
  185.8940  178.2560  146.7040 C   0  0  0  0  0  3  0  0  0  0  0  0
  191.1870  177.0140  138.5000 F   0  0  0  0  0  0  0  0  0  0  0  0
  189.3630  178.0810  139.5790 C   0  0  0  0  0  2  0  0  0  0  0  0
  188.7590  177.5000  144.4780 C   0  0  0  0  0  0  0  0  0  0  0  0
  183.9870  178.7460  145.3770 C   0  0  0  0  0  3  0  0  0  0  0  0
  186.0730  178.2080  144.2880 C   0  0  0  0  0  0  0  0  0  0  0  0
  184.0500  178.7070  142.8530 C   0  0  2  0  0  3  0  0  0  0  0  0
  184.7010  179.6470  142.0500 O   0  0  0  0  0  1  0  0  0  0  0  0
  182.5550  179.0140  142.9690 C   0  0  0  0  0  2  0  0  0  0  0  0
  180.4590  179.1590  141.5120 N   0  0  0  0  0  0  0  0  0  0  0  0
  182.3150  177.8800  140.8890 O   0  0  0  0  0  0  0  0  0  0  0  0
  181.7840  178.6520  141.7340 C   0  0  0  0  0  0  0  0  0  0  0  0
  179.8580  180.1210  142.4210 C   0  0  0  0  0  1  0  0  0  0  0  0
  179.6950  178.7430  140.3480 C   0  0  0  0  0  1  0  0  0  0  0  0
  1 20  2  0  0  0  0
  1 19  1  0  0  0  0
  2  7  1  0  0  0  0
  4 12  1  0  0  0  0
  5 18  1  0  0  0  0
  6 16  1  6  0  0  0
  6 17  1  0  0  0  0
  6  9  1  0  0  0  0
  7  4  2  0  0  0  0
  7  5  1  0  0  0  0
  9  4  1  0  0  0  0
 10 14  1  0  0  0  0
 10 15  2  0  0  0  0
 11  5  2  0  0  0  0
 11 20  1  0  0  0  0
 12  8  1  0  0  0  0
 13 15  1  0  0  0  0
 14  3  1  0  0  0  0
 17  2  1  0  0  0  0
 18  8  1  0  0  0  0
 18 14  2  0  0  0  0
 19 13  2  0  0  0  0
 20 10  1  0  0  0  0
 21 22  1  1  0  0  0
 21 23  1  0  0  0  0
 21  1  1  0  0  0  0
 24 26  1  0  0  0  0
 24 27  1  0  0  0  0
 25 26  2  0  0  0  0
 26 23  1  0  0  0  0
 28 24  1  0  0  0  0
M  END
>  <MODEL>
7

>  <REMARK>
 VINA RESULT:      -9.6      3.816      6.961
  Name = 
  3 active torsions:
  status: ('A' for Active; 'I' for Inactive)
    1  A    between atoms: C_1  and  C_2
    2  A    between atoms: C_2  and  C_3
    3  A    between atoms: C_3  and  C_11
                            x       y       z     vdW  Elec       q    Type
                         _______ _______ _______ _____ _____    ______ ____

>  <TORSDO>
F 3

$$$$
=
 OpenBabel11052413303D

 28 31  0  0  1  0  0  0  0  0999 V2000
  186.4950  178.5320  140.6280 C   0  0  0  0  0  0  0  0  0  0  0  0
  187.1630  178.0430  145.6450 C   0  0  0  0  0  2  0  0  0  0  0  0
  190.8460  176.4600  140.9000 F   0  0  0  0  0  0  0  0  0  0  0  0
  189.5960  177.4780  145.7300 C   0  0  0  0  0  0  0  0  0  0  0  0
  188.5550  177.6220  143.5170 C   0  0  0  0  0  0  0  0  0  0  0  0
  188.3310  178.0470  147.8350 C   0  0  2  0  0  3  0  0  0  0  0  0
  188.4770  177.6830  144.9950 C   0  0  0  0  0  0  0  0  0  0  0  0
  190.7850  176.4880  143.7540 C   0  0  0  0  0  2  0  0  0  0  0  0
  189.5540  177.3640  147.2310 C   0  0  0  0  0  2  0  0  0  0  0  0
  188.6940  177.4990  140.7420 C   0  0  0  0  0  0  0  0  0  0  0  0
  187.5280  178.0860  142.7520 N   0  0  0  0  0  0  0  0  0  0  0  0
  190.9270  177.2830  145.0530 C   0  0  0  0  0  2  0  0  0  0  0  0
  187.6800  177.9460  138.6270 N   0  0  0  0  0  0  0  0  0  0  0  0
  189.7600  177.0050  141.5060 C   0  0  0  0  0  0  0  0  0  0  0  0
  188.7250  177.4600  139.3450 C   0  0  0  0  0  3  0  0  0  0  0  0
  188.2310  177.7150  149.1720 F   0  0  0  0  0  0  0  0  0  0  0  0
  187.0840  177.5880  147.0980 C   0  0  0  0  0  2  0  0  0  0  0  0
  189.6950  177.0740  142.9020 C   0  0  0  0  0  0  0  0  0  0  0  0
  186.5830  178.4760  139.2300 C   0  0  0  0  0  3  0  0  0  0  0  0
  187.5660  178.0430  141.3910 C   0  0  0  0  0  0  0  0  0  0  0  0
  185.2910  179.1450  141.2940 C   0  0  2  0  0  3  0  0  0  0  0  0
  185.6580  179.9800  142.3530 O   0  0  0  0  0  1  0  0  0  0  0  0
  184.2660  178.0990  141.7390 C   0  0  0  0  0  2  0  0  0  0  0  0
  182.2240  178.9340  143.0290 N   0  0  0  0  0  0  0  0  0  0  0  0
  182.2460  178.8010  140.6950 O   0  0  0  0  0  0  0  0  0  0  0  0
  182.8650  178.6310  141.7810 C   0  0  0  0  0  0  0  0  0  0  0  0
  182.9420  178.8350  144.2890 C   0  0  0  0  0  1  0  0  0  0  0  0
  180.8410  179.3800  143.0600 C   0  0  0  0  0  1  0  0  0  0  0  0
  1 21  1  0  0  0  0
  1 20  1  0  0  0  0
  2 17  1  0  0  0  0
  3 14  1  0  0  0  0
  4  9  1  0  0  0  0
  5  7  1  0  0  0  0
  6 16  1  1  0  0  0
  7  2  1  0  0  0  0
  7  4  2  0  0  0  0
  8 12  1  0  0  0  0
  9  6  1  0  0  0  0
 10 20  2  0  0  0  0
 10 14  1  0  0  0  0
 11  5  2  0  0  0  0
 12  4  1  0  0  0  0
 13 19  1  0  0  0  0
 13 15  2  0  0  0  0
 14 18  2  0  0  0  0
 15 10  1  0  0  0  0
 17  6  1  0  0  0  0
 18  5  1  0  0  0  0
 18  8  1  0  0  0  0
 19  1  2  0  0  0  0
 20 11  1  0  0  0  0
 21 23  1  0  0  0  0
 21 22  1  1  0  0  0
 23 26  1  0  0  0  0
 24 28  1  0  0  0  0
 24 27  1  0  0  0  0
 25 26  2  0  0  0  0
 26 24  1  0  0  0  0
M  END
>  <MODEL>
8

>  <REMARK>
 VINA RESULT:      -9.6      3.346      6.864
  Name = 
  3 active torsions:
  status: ('A' for Active; 'I' for Inactive)
    1  A    between atoms: C_1  and  C_2
    2  A    between atoms: C_2  and  C_3
    3  A    between atoms: C_3  and  C_11
                            x       y       z     vdW  Elec       q    Type
                         _______ _______ _______ _____ _____    ______ ____

>  <TORSDO>
F 3

$$$$
=
 OpenBabel11052413303D

 28 31  0  0  1  0  0  0  0  0999 V2000
  183.5410  178.5770  140.4500 C   0  0  0  0  0  0  0  0  0  0  0  0
  188.1730  177.8680  142.4250 C   0  0  0  0  0  2  0  0  0  0  0  0
  182.7250  178.9900  145.1890 F   0  0  0  0  0  0  0  0  0  0  0  0
  187.6000  177.5630  144.8380 C   0  0  0  0  0  0  0  0  0  0  0  0
  185.7800  178.1910  143.3240 C   0  0  0  0  0  0  0  0  0  0  0  0
  189.9220  177.0650  143.9920 C   0  0  2  0  0  3  0  0  0  0  0  0
  187.2050  177.8840  143.5840 C   0  0  0  0  0  0  0  0  0  0  0  0
  185.4600  178.4510  145.8030 C   0  0  0  0  0  2  0  0  0  0  0  0
  189.0530  177.4020  145.2000 C   0  0  0  0  0  2  0  0  0  0  0  0
  183.1050  178.7770  142.8350 C   0  0  0  0  0  0  0  0  0  0  0  0
  185.3060  178.2470  142.0490 N   0  0  0  0  0  0  0  0  0  0  0  0
  186.5870  177.4260  145.9440 C   0  0  0  0  0  2  0  0  0  0  0  0
  181.3430  179.0970  141.2550 N   0  0  0  0  0  0  0  0  0  0  0  0
  183.5690  178.7350  144.1560 C   0  0  0  0  0  0  0  0  0  0  0  0
  181.7680  179.0640  142.5450 C   0  0  0  0  0  3  0  0  0  0  0  0
  191.2540  177.1550  144.3450 F   0  0  0  0  0  0  0  0  0  0  0  0
  189.6210  178.0430  142.8690 C   0  0  0  0  0  2  0  0  0  0  0  0
  184.9110  178.4320  144.4050 C   0  0  0  0  0  0  0  0  0  0  0  0
  182.1880  178.8600  140.2170 C   0  0  0  0  0  3  0  0  0  0  0  0
  184.0020  178.5290  141.7750 C   0  0  0  0  0  0  0  0  0  0  0  0
  184.4700  178.2870  139.3010 C   0  0  2  0  0  3  0  0  0  0  0  0
  185.2450  179.4020  138.9710 O   0  0  0  0  0  1  0  0  0  0  0  0
  183.7370  177.7370  138.0740 C   0  0  0  0  0  2  0  0  0  0  0  0
  183.4710  175.2040  137.8610 N   0  0  0  0  0  0  0  0  0  0  0  0
  185.3740  176.3190  137.0860 O   0  0  0  0  0  0  0  0  0  0  0  0
  184.2440  176.3930  137.6410 C   0  0  0  0  0  0  0  0  0  0  0  0
  182.1280  175.2690  138.4140 C   0  0  0  0  0  1  0  0  0  0  0  0
  184.0040  173.9000  137.5030 C   0  0  0  0  0  1  0  0  0  0  0  0
  1 20  1  0  0  0  0
  2 17  1  0  0  0  0
  2  7  1  0  0  0  0
  4  9  1  0  0  0  0
  4 12  1  0  0  0  0
  5  7  1  0  0  0  0
  5 18  1  0  0  0  0
  6 16  1  1  0  0  0
  6  9  1  0  0  0  0
  7  4  2  0  0  0  0
  8 12  1  0  0  0  0
 10 14  1  0  0  0  0
 11  5  2  0  0  0  0
 13 15  2  0  0  0  0
 14 18  2  0  0  0  0
 14  3  1  0  0  0  0
 15 10  1  0  0  0  0
 17  6  1  0  0  0  0
 18  8  1  0  0  0  0
 19  1  2  0  0  0  0
 19 13  1  0  0  0  0
 20 11  1  0  0  0  0
 20 10  2  0  0  0  0
 21 22  1  6  0  0  0
 21  1  1  0  0  0  0
 23 21  1  0  0  0  0
 24 27  1  0  0  0  0
 25 26  2  0  0  0  0
 26 24  1  0  0  0  0
 26 23  1  0  0  0  0
 28 24  1  0  0  0  0
M  END
>  <MODEL>
9

>  <REMARK>
 VINA RESULT:      -9.6      4.090      7.034
  Name = 
  3 active torsions:
  status: ('A' for Active; 'I' for Inactive)
    1  A    between atoms: C_1  and  C_2
    2  A    between atoms: C_2  and  C_3
    3  A    between atoms: C_3  and  C_11
                            x       y       z     vdW  Elec       q    Type
                         _______ _______ _______ _____ _____    ______ ____

>  <TORSDO>
F 3

$$$$
