=
 OpenBabel11052416573D

 32 35  0  0  1  0  0  0  0  0999 V2000
  186.4560  178.3990  142.1550 C   0  0  0  0  0  0  0  0  0  0  0  0
  181.9620  178.4240  144.1020 C   0  0  0  0  0  2  0  0  0  0  0  0
  181.4280  179.1320  142.8640 C   0  0  0  0  0  2  0  0  0  0  0  0
  188.2370  177.4230  143.5300 C   0  0  0  0  0  0  0  0  0  0  0  0
  186.1010  177.9260  144.6390 C   0  0  0  0  0  3  0  0  0  0  0  0
  183.3850  178.8830  144.3930 C   0  0  0  0  0  2  0  0  0  0  0  0
  185.5540  178.3490  143.3270 C   0  0  0  0  0  0  0  0  0  0  0  0
  184.2680  178.7160  143.1830 C   0  0  0  0  0  0  0  0  0  0  0  0
  184.5450  178.6820  140.7040 N   0  0  0  0  0  0  0  0  0  0  0  0
  188.9280  176.0910  143.3390 C   0  0  0  0  0  2  0  0  0  0  0  0
  187.3620  177.4960  144.7590 C   0  0  0  0  0  0  0  0  0  0  0  0
  189.7390  177.3310  143.6950 C   0  0  0  0  0  2  0  0  0  0  0  0
  182.2770  178.7460  141.6610 C   0  0  0  0  0  2  0  0  0  0  0  0
  183.7380  179.1930  141.8310 C   0  0  1  0  0  3  0  0  0  0  0  0
  187.7260  178.0020  142.2470 C   0  0  0  0  0  3  0  0  0  0  0  0
  185.9540  179.0240  140.9010 C   0  0  0  0  0  2  0  0  0  0  0  0
  187.8850  177.1350  146.1120 C   0  0  0  0  0  2  0  0  0  0  0  0
  188.4030  178.2680  146.7420 O   0  0  0  0  0  0  0  0  0  0  0  0
  189.2100  177.7640  147.7590 C   0  0  0  0  0  2  0  0  0  0  0  0
  189.9240  176.5200  147.2670 C   0  0  0  0  0  2  0  0  0  0  0  0
  191.3910  176.7620  147.2250 C   0  0  0  0  0  0  0  0  0  0  0  0
  192.0100  176.6810  146.1330 O   0  0  0  0  0  0  0  0  0  0  0  0
  192.0730  177.1070  148.3840 O   0  0  0  0  0  1  0  0  0  0  0  0
  184.1360  179.3880  139.4910 C   0  0  0  0  0  2  0  0  0  0  0  0
  184.1810  178.4700  138.2660 C   0  0  1  0  0  3  0  0  0  0  0  0
  186.5860  177.8360  137.7610 C   0  0  0  0  0  0  0  0  0  0  0  0
  187.6980  176.8620  137.9230 C   0  0  0  0  0  1  0  0  0  0  0  0
  185.3120  177.5530  138.3430 N   0  0  0  0  0  2  0  0  0  0  0  0
  186.7790  178.9180  137.0830 N   0  0  0  0  0  2  0  0  0  0  0  0
  182.8890  177.6750  138.1170 C   0  0  0  0  0  2  0  0  0  0  0  0
  183.1090  176.1990  138.4160 C   0  0  0  0  0  2  0  0  0  0  0  0
  182.2360  175.7570  139.5750 C   0  0  0  0  0  1  0  0  0  0  0  0
  1 15  2  0  0  0  0
  1  7  1  0  0  0  0
  2  6  1  0  0  0  0
  3  2  1  0  0  0  0
  4 12  1  0  0  0  0
  4 11  1  0  0  0  0
  5 11  2  0  0  0  0
  7  5  1  0  0  0  0
  8  7  2  0  0  0  0
  8  6  1  0  0  0  0
  9 16  1  0  0  0  0
  9 14  1  0  0  0  0
 10  4  1  0  0  0  0
 10 12  1  0  0  0  0
 11 17  1  0  0  0  0
 13  3  1  0  0  0  0
 14 13  1  6  0  0  0
 14  8  1  0  0  0  0
 15  4  1  0  0  0  0
 16  1  1  0  0  0  0
 17 18  1  0  0  0  0
 18 19  1  0  0  0  0
 20 19  1  0  0  0  0
 21 20  1  0  0  0  0
 21 23  1  0  0  0  0
 22 21  2  0  0  0  0
 24  9  1  0  0  0  0
 25 30  1  1  0  0  0
 25 28  1  0  0  0  0
 25 24  1  0  0  0  0
 26 27  1  0  0  0  0
 26 28  1  0  0  0  0
 29 26  2  0  0  0  0
 30 31  1  0  0  0  0
 31 32  1  0  0  0  0
M  END
>  <MODEL>
1

>  <REMARK>
 VINA RESULT:      -8.0      0.000      0.000
  Name = 
  10 active torsions:
  status: ('A' for Active; 'I' for Inactive)
    1  A    between atoms: C_1  and  C_10
    2  A    between atoms: O_2  and  C_12
    3  A    between atoms: O_2  and  C_24
    4  A    between atoms: C_6  and  C_7
    5  A    between atoms: C_7  and  C_32
    6  A    between atoms: C_10  and  C_24
    7  A    between atoms: C_12  and  C_21
    8  A    between atoms: N_16  and  C_27
    9  A    between atoms: N_22  and  C_32
   10  A    between atoms: C_27  and  C_32
                            x       y       z     vdW  Elec       q    Type
                         _______ _______ _______ _____ _____    ______ ____

>  <TORSDO>
F 10

$$$$
=
 OpenBabel11052416573D

 32 35  0  0  1  0  0  0  0  0999 V2000
  186.2680  178.3460  142.1940 C   0  0  0  0  0  0  0  0  0  0  0  0
  181.8770  178.4620  144.3610 C   0  0  0  0  0  2  0  0  0  0  0  0
  181.2860  179.1350  143.1300 C   0  0  0  0  0  2  0  0  0  0  0  0
  188.1100  177.4010  143.5080 C   0  0  0  0  0  0  0  0  0  0  0  0
  186.0350  177.9530  144.7060 C   0  0  0  0  0  3  0  0  0  0  0  0
  183.3160  178.9200  144.5660 C   0  0  0  0  0  2  0  0  0  0  0  0
  185.4250  178.3380  143.4100 C   0  0  0  0  0  0  0  0  0  0  0  0
  184.1350  178.7100  143.3190 C   0  0  0  0  0  0  0  0  0  0  0  0
  184.2880  178.5980  140.8320 N   0  0  0  0  0  0  0  0  0  0  0  0
  188.7840  176.0600  143.3250 C   0  0  0  0  0  2  0  0  0  0  0  0
  187.2980  177.5180  144.7760 C   0  0  0  0  0  0  0  0  0  0  0  0
  189.6180  177.3050  143.6010 C   0  0  0  0  0  2  0  0  0  0  0  0
  182.0720  178.7060  141.8990 C   0  0  0  0  0  2  0  0  0  0  0  0
  183.5410  179.1480  141.9810 C   0  0  1  0  0  3  0  0  0  0  0  0
  187.5390  177.9440  142.2340 C   0  0  0  0  0  3  0  0  0  0  0  0
  185.7070  178.9360  140.9470 C   0  0  0  0  0  2  0  0  0  0  0  0
  187.8860  177.1960  146.1130 C   0  0  0  0  0  2  0  0  0  0  0  0
  188.5620  178.3070  146.6170 O   0  0  0  0  0  0  0  0  0  0  0  0
  189.3400  177.8010  147.6570 C   0  0  0  0  0  2  0  0  0  0  0  0
  189.9300  176.4670  147.2430 C   0  0  0  0  0  2  0  0  0  0  0  0
  191.4130  176.5640  147.1950 C   0  0  0  0  0  0  0  0  0  0  0  0
  192.0410  176.1060  146.2060 O   0  0  0  0  0  0  0  0  0  0  0  0
  192.1040  177.1860  148.2270 O   0  0  0  0  0  1  0  0  0  0  0  0
  183.8220  179.2680  139.6200 C   0  0  0  0  0  2  0  0  0  0  0  0
  183.0310  178.3130  138.7200 C   0  0  1  0  0  3  0  0  0  0  0  0
  181.0320  179.5310  137.7360 C   0  0  0  0  0  0  0  0  0  0  0  0
  180.4520  180.2990  136.6030 C   0  0  0  0  0  1  0  0  0  0  0  0
  182.3720  179.0400  137.6410 N   0  0  0  0  0  2  0  0  0  0  0  0
  180.3160  179.3030  138.7870 N   0  0  0  0  0  2  0  0  0  0  0  0
  183.9280  177.2300  138.1320 C   0  0  0  0  0  2  0  0  0  0  0  0
  183.3460  175.8440  138.3660 C   0  0  0  0  0  2  0  0  0  0  0  0
  182.3060  175.8850  139.4700 C   0  0  0  0  0  1  0  0  0  0  0  0
  1 15  2  0  0  0  0
  1  7  1  0  0  0  0
  2  6  1  0  0  0  0
  3  2  1  0  0  0  0
  4 12  1  0  0  0  0
  4 11  1  0  0  0  0
  5 11  2  0  0  0  0
  7  5  1  0  0  0  0
  8  7  2  0  0  0  0
  8  6  1  0  0  0  0
  9 16  1  0  0  0  0
  9 14  1  0  0  0  0
 10  4  1  0  0  0  0
 10 12  1  0  0  0  0
 11 17  1  0  0  0  0
 13  3  1  0  0  0  0
 14 13  1  6  0  0  0
 14  8  1  0  0  0  0
 15  4  1  0  0  0  0
 16  1  1  0  0  0  0
 17 18  1  0  0  0  0
 18 19  1  0  0  0  0
 20 19  1  0  0  0  0
 21 20  1  0  0  0  0
 21 23  1  0  0  0  0
 22 21  2  0  0  0  0
 24  9  1  0  0  0  0
 25 30  1  6  0  0  0
 25 24  1  0  0  0  0
 26 29  2  0  0  0  0
 27 26  1  0  0  0  0
 28 26  1  0  0  0  0
 28 25  1  0  0  0  0
 30 31  1  0  0  0  0
 31 32  1  0  0  0  0
M  END
>  <MODEL>
2

>  <REMARK>
 VINA RESULT:      -7.8      1.359      2.239
  Name = 
  10 active torsions:
  status: ('A' for Active; 'I' for Inactive)
    1  A    between atoms: C_1  and  C_10
    2  A    between atoms: O_2  and  C_12
    3  A    between atoms: O_2  and  C_24
    4  A    between atoms: C_6  and  C_7
    5  A    between atoms: C_7  and  C_32
    6  A    between atoms: C_10  and  C_24
    7  A    between atoms: C_12  and  C_21
    8  A    between atoms: N_16  and  C_27
    9  A    between atoms: N_22  and  C_32
   10  A    between atoms: C_27  and  C_32
                            x       y       z     vdW  Elec       q    Type
                         _______ _______ _______ _____ _____    ______ ____

>  <TORSDO>
F 10

$$$$
=
 OpenBabel11052416573D

 32 35  0  0  1  0  0  0  0  0999 V2000
  185.8140  178.3070  143.0020 C   0  0  0  0  0  0  0  0  0  0  0  0
  190.1350  177.4600  140.8590 C   0  0  0  0  0  2  0  0  0  0  0  0
  189.4790  177.5680  139.4900 C   0  0  0  0  0  2  0  0  0  0  0  0
  185.7870  178.2850  145.4540 C   0  0  0  0  0  0  0  0  0  0  0  0
  187.7780  177.3710  144.3380 C   0  0  0  0  0  3  0  0  0  0  0  0
  189.1630  176.8430  141.8570 C   0  0  0  0  0  2  0  0  0  0  0  0
  187.1880  177.7590  143.0340 C   0  0  0  0  0  0  0  0  0  0  0  0
  187.8580  177.5960  141.8790 C   0  0  0  0  0  0  0  0  0  0  0  0
  186.1330  178.9570  140.6970 N   0  0  0  0  0  0  0  0  0  0  0  0
  185.6700  179.4680  146.3890 C   0  0  0  0  0  2  0  0  0  0  0  0
  187.1330  177.6010  145.4870 C   0  0  0  0  0  0  0  0  0  0  0  0
  184.8810  178.1940  146.6630 C   0  0  0  0  0  2  0  0  0  0  0  0
  188.2800  178.5010  139.5810 C   0  0  0  0  0  2  0  0  0  0  0  0
  187.2110  177.9590  140.5420 C   0  0  1  0  0  3  0  0  0  0  0  0
  185.1330  178.5240  144.1280 C   0  0  0  0  0  3  0  0  0  0  0  0
  185.1550  178.4910  141.6800 C   0  0  0  0  0  2  0  0  0  0  0  0
  187.7440  177.1400  146.7720 C   0  0  0  0  0  2  0  0  0  0  0  0
  188.8440  177.9370  147.0900 O   0  0  0  0  0  0  0  0  0  0  0  0
  189.8150  177.0360  147.5230 C   0  0  0  0  0  2  0  0  0  0  0  0
  190.9050  176.9270  146.4740 C   0  0  0  0  0  2  0  0  0  0  0  0
  191.9990  176.0500  146.9720 C   0  0  0  0  0  0  0  0  0  0  0  0
  192.4020  175.0880  146.2690 O   0  0  0  0  0  0  0  0  0  0  0  0
  192.5970  176.3110  148.1980 O   0  0  0  0  0  1  0  0  0  0  0  0
  185.4070  179.0470  139.4320 C   0  0  0  0  0  2  0  0  0  0  0  0
  184.0800  178.2840  139.4920 C   0  0  1  0  0  3  0  0  0  0  0  0
  181.7850  179.1880  140.0900 C   0  0  0  0  0  0  0  0  0  0  0  0
  180.7000  180.1660  139.8130 C   0  0  0  0  0  1  0  0  0  0  0  0
  182.9530  179.1800  139.2660 N   0  0  0  0  0  2  0  0  0  0  0  0
  181.6550  178.3480  141.0630 N   0  0  0  0  0  2  0  0  0  0  0  0
  184.0420  177.1490  138.4740 C   0  0  0  0  0  2  0  0  0  0  0  0
  185.0760  177.3560  137.3770 C   0  0  0  0  0  2  0  0  0  0  0  0
  185.7730  176.0480  137.0520 C   0  0  0  0  0  1  0  0  0  0  0  0
  1  7  1  0  0  0  0
  1 15  2  0  0  0  0
  2  6  1  0  0  0  0
  3 13  1  0  0  0  0
  3  2  1  0  0  0  0
  4 11  1  0  0  0  0
  4 10  1  0  0  0  0
  4 12  1  0  0  0  0
  5 11  2  0  0  0  0
  6  8  1  0  0  0  0
  7  5  1  0  0  0  0
  8  7  2  0  0  0  0
  9 16  1  0  0  0  0
 10 12  1  0  0  0  0
 11 17  1  0  0  0  0
 14 13  1  6  0  0  0
 14  9  1  0  0  0  0
 14  8  1  0  0  0  0
 15  4  1  0  0  0  0
 16  1  1  0  0  0  0
 17 18  1  0  0  0  0
 18 19  1  0  0  0  0
 20 21  1  0  0  0  0
 20 19  1  0  0  0  0
 21 23  1  0  0  0  0
 22 21  2  0  0  0  0
 24 25  1  0  0  0  0
 24  9  1  0  0  0  0
 25 30  1  6  0  0  0
 26 29  2  0  0  0  0
 27 26  1  0  0  0  0
 28 25  1  0  0  0  0
 28 26  1  0  0  0  0
 31 30  1  0  0  0  0
 32 31  1  0  0  0  0
M  END
>  <MODEL>
3

>  <REMARK>
 VINA RESULT:      -7.8      1.693      4.160
  Name = 
  10 active torsions:
  status: ('A' for Active; 'I' for Inactive)
    1  A    between atoms: C_1  and  C_10
    2  A    between atoms: O_2  and  C_12
    3  A    between atoms: O_2  and  C_24
    4  A    between atoms: C_6  and  C_7
    5  A    between atoms: C_7  and  C_32
    6  A    between atoms: C_10  and  C_24
    7  A    between atoms: C_12  and  C_21
    8  A    between atoms: N_16  and  C_27
    9  A    between atoms: N_22  and  C_32
   10  A    between atoms: C_27  and  C_32
                            x       y       z     vdW  Elec       q    Type
                         _______ _______ _______ _____ _____    ______ ____

>  <TORSDO>
F 10

$$$$
=
 OpenBabel11052416573D

 32 35  0  0  1  0  0  0  0  0999 V2000
  186.2580  178.3460  142.1940 C   0  0  0  0  0  0  0  0  0  0  0  0
  181.8710  178.4490  144.3680 C   0  0  0  0  0  2  0  0  0  0  0  0
  181.2760  179.1200  143.1380 C   0  0  0  0  0  2  0  0  0  0  0  0
  188.1060  177.4060  143.5050 C   0  0  0  0  0  0  0  0  0  0  0  0
  186.0310  177.9520  144.7070 C   0  0  0  0  0  3  0  0  0  0  0  0
  183.3080  178.9110  144.5710 C   0  0  0  0  0  2  0  0  0  0  0  0
  185.4180  178.3350  143.4120 C   0  0  0  0  0  0  0  0  0  0  0  0
  184.1270  178.7030  143.3230 C   0  0  0  0  0  0  0  0  0  0  0  0
  184.2760  178.5910  140.8350 N   0  0  0  0  0  0  0  0  0  0  0  0
  188.7830  176.0660  143.3210 C   0  0  0  0  0  2  0  0  0  0  0  0
  187.2950  177.5200  144.7740 C   0  0  0  0  0  0  0  0  0  0  0  0
  189.6140  177.3130  143.5960 C   0  0  0  0  0  2  0  0  0  0  0  0
  182.0610  178.6930  141.9050 C   0  0  0  0  0  2  0  0  0  0  0  0
  183.5290  179.1400  141.9860 C   0  0  1  0  0  3  0  0  0  0  0  0
  187.5310  177.9470  142.2320 C   0  0  0  0  0  3  0  0  0  0  0  0
  185.6940  178.9340  140.9480 C   0  0  0  0  0  2  0  0  0  0  0  0
  187.8860  177.1990  146.1100 C   0  0  0  0  0  2  0  0  0  0  0  0
  188.3760  178.3620  146.7070 O   0  0  0  0  0  0  0  0  0  0  0  0
  189.2550  177.9070  147.6890 C   0  0  0  0  0  2  0  0  0  0  0  0
  189.9030  176.6170  147.2270 C   0  0  0  0  0  2  0  0  0  0  0  0
  191.3790  176.7880  147.1640 C   0  0  0  0  0  0  0  0  0  0  0  0
  191.9760  176.6980  146.0600 O   0  0  0  0  0  0  0  0  0  0  0  0
  192.0960  177.0750  148.3180 O   0  0  0  0  0  1  0  0  0  0  0  0
  183.8060  179.2610  139.6240 C   0  0  0  0  0  2  0  0  0  0  0  0
  183.1840  178.2660  138.6390 C   0  0  1  0  0  3  0  0  0  0  0  0
  180.6830  177.8600  138.4910 C   0  0  0  0  0  0  0  0  0  0  0  0
  179.3380  178.3740  138.1180 C   0  0  0  0  0  1  0  0  0  0  0  0
  181.8350  178.6750  138.2670 N   0  0  0  0  0  2  0  0  0  0  0  0
  180.7960  176.6780  139.0010 N   0  0  0  0  0  2  0  0  0  0  0  0
  184.0370  178.1160  137.3840 C   0  0  0  0  0  2  0  0  0  0  0  0
  185.2380  177.2160  137.6360 C   0  0  0  0  0  2  0  0  0  0  0  0
  186.5290  177.9780  137.4020 C   0  0  0  0  0  1  0  0  0  0  0  0
  1 15  2  0  0  0  0
  1  7  1  0  0  0  0
  2  6  1  0  0  0  0
  3  2  1  0  0  0  0
  4 12  1  0  0  0  0
  4 11  1  0  0  0  0
  5 11  2  0  0  0  0
  7  5  1  0  0  0  0
  8  7  2  0  0  0  0
  8  6  1  0  0  0  0
  9 16  1  0  0  0  0
  9 14  1  0  0  0  0
 10  4  1  0  0  0  0
 10 12  1  0  0  0  0
 11 17  1  0  0  0  0
 13  3  1  0  0  0  0
 14 13  1  1  0  0  0
 14  8  1  0  0  0  0
 15  4  1  0  0  0  0
 16  1  1  0  0  0  0
 17 18  1  0  0  0  0
 18 19  1  0  0  0  0
 20 19  1  0  0  0  0
 21 20  1  0  0  0  0
 21 23  1  0  0  0  0
 22 21  2  0  0  0  0
 24  9  1  0  0  0  0
 25 30  1  6  0  0  0
 25 24  1  0  0  0  0
 26 29  2  0  0  0  0
 27 26  1  0  0  0  0
 28 26  1  0  0  0  0
 28 25  1  0  0  0  0
 30 31  1  0  0  0  0
 32 31  1  0  0  0  0
M  END
>  <MODEL>
4

>  <REMARK>
 VINA RESULT:      -7.7      1.339      2.525
  Name = 
  10 active torsions:
  status: ('A' for Active; 'I' for Inactive)
    1  A    between atoms: C_1  and  C_10
    2  A    between atoms: O_2  and  C_12
    3  A    between atoms: O_2  and  C_24
    4  A    between atoms: C_6  and  C_7
    5  A    between atoms: C_7  and  C_32
    6  A    between atoms: C_10  and  C_24
    7  A    between atoms: C_12  and  C_21
    8  A    between atoms: N_16  and  C_27
    9  A    between atoms: N_22  and  C_32
   10  A    between atoms: C_27  and  C_32
                            x       y       z     vdW  Elec       q    Type
                         _______ _______ _______ _____ _____    ______ ____

>  <TORSDO>
F 10

$$$$
=
 OpenBabel11052416573D

 32 35  0  0  1  0  0  0  0  0999 V2000
  186.8490  178.2530  141.7220 C   0  0  0  0  0  0  0  0  0  0  0  0
  191.4600  177.0040  142.8020 C   0  0  0  0  0  2  0  0  0  0  0  0
  191.7860  176.9190  141.3180 C   0  0  0  0  0  2  0  0  0  0  0  0
  185.3360  178.5990  143.6210 C   0  0  0  0  0  0  0  0  0  0  0  0
  187.4820  177.4870  144.0740 C   0  0  0  0  0  3  0  0  0  0  0  0
  190.0210  176.5650  143.0470 C   0  0  0  0  0  2  0  0  0  0  0  0
  187.8510  177.6870  142.6510 C   0  0  0  0  0  0  0  0  0  0  0  0
  189.0620  177.3390  142.1800 C   0  0  0  0  0  0  0  0  0  0  0  0
  188.5700  178.5440  140.0510 N   0  0  0  0  0  0  0  0  0  0  0  0
  184.8050  179.9120  144.1530 C   0  0  0  0  0  2  0  0  0  0  0  0
  186.3020  177.9000  144.5480 C   0  0  0  0  0  0  0  0  0  0  0  0
  183.8790  178.7090  144.0160 C   0  0  0  0  0  2  0  0  0  0  0  0
  190.8880  177.8810  140.5510 C   0  0  0  0  0  2  0  0  0  0  0  0
  189.4040  177.5110  140.7000 C   0  0  1  0  0  3  0  0  0  0  0  0
  185.6530  178.6500  142.1580 C   0  0  0  0  0  3  0  0  0  0  0  0
  187.1520  178.2500  140.2640 C   0  0  0  0  0  2  0  0  0  0  0  0
  185.9530  177.6240  145.9760 C   0  0  0  0  0  2  0  0  0  0  0  0
  186.6480  178.4970  146.8140 O   0  0  0  0  0  0  0  0  0  0  0  0
  187.2030  177.6750  147.7930 C   0  0  0  0  0  2  0  0  0  0  0  0
  188.6140  178.1380  148.0990 C   0  0  0  0  0  2  0  0  0  0  0  0
  189.5660  177.5370  147.1260 C   0  0  0  0  0  0  0  0  0  0  0  0
  190.0490  176.3960  147.3420 O   0  0  0  0  0  1  0  0  0  0  0  0
  189.8980  178.2220  145.9650 O   0  0  0  0  0  0  0  0  0  0  0  0
  188.7760  178.4570  138.6070 C   0  0  0  0  0  2  0  0  0  0  0  0
  188.1530  177.1830  138.0270 C   0  0  1  0  0  3  0  0  0  0  0  0
  186.1650  176.8340  136.4870 C   0  0  0  0  0  0  0  0  0  0  0  0
  185.4410  177.2260  135.2490 C   0  0  0  0  0  1  0  0  0  0  0  0
  187.3990  177.4780  136.8140 N   0  0  0  0  0  2  0  0  0  0  0  0
  185.6800  175.9070  137.2440 N   0  0  0  0  0  2  0  0  0  0  0  0
  189.2130  176.1300  137.7260 C   0  0  0  0  0  2  0  0  0  0  0  0
  190.4710  176.7620  137.1500 C   0  0  0  0  0  2  0  0  0  0  0  0
  191.6460  175.8090  137.2710 C   0  0  0  0  0  1  0  0  0  0  0  0
  1 15  2  0  0  0  0
  1  7  1  0  0  0  0
  2  6  1  0  0  0  0
  3  2  1  0  0  0  0
  4 12  1  0  0  0  0
  4 10  1  0  0  0  0
  4 11  1  0  0  0  0
  5 11  2  0  0  0  0
  7  5  1  0  0  0  0
  8  7  2  0  0  0  0
  8  6  1  0  0  0  0
  9 16  1  0  0  0  0
  9 14  1  0  0  0  0
 11 17  1  0  0  0  0
 12 10  1  0  0  0  0
 13  3  1  0  0  0  0
 14 13  1  1  0  0  0
 14  8  1  0  0  0  0
 15  4  1  0  0  0  0
 16  1  1  0  0  0  0
 17 18  1  0  0  0  0
 18 19  1  0  0  0  0
 19 20  1  0  0  0  0
 21 22  1  0  0  0  0
 21 20  1  0  0  0  0
 23 21  2  0  0  0  0
 24  9  1  0  0  0  0
 25 30  1  6  0  0  0
 25 24  1  0  0  0  0
 26 28  1  0  0  0  0
 26 29  2  0  0  0  0
 27 26  1  0  0  0  0
 28 25  1  0  0  0  0
 31 32  1  0  0  0  0
 31 30  1  0  0  0  0
M  END
>  <MODEL>
5

>  <REMARK>
 VINA RESULT:      -7.3      2.196      5.041
  Name = 
  10 active torsions:
  status: ('A' for Active; 'I' for Inactive)
    1  A    between atoms: C_1  and  C_10
    2  A    between atoms: O_2  and  C_12
    3  A    between atoms: O_2  and  C_24
    4  A    between atoms: C_6  and  C_7
    5  A    between atoms: C_7  and  C_32
    6  A    between atoms: C_10  and  C_24
    7  A    between atoms: C_12  and  C_21
    8  A    between atoms: N_16  and  C_27
    9  A    between atoms: N_22  and  C_32
   10  A    between atoms: C_27  and  C_32
                            x       y       z     vdW  Elec       q    Type
                         _______ _______ _______ _____ _____    ______ ____

>  <TORSDO>
F 10

$$$$
=
 OpenBabel11052416573D

 32 35  0  0  1  0  0  0  0  0999 V2000
  188.9160  177.3900  141.4130 C   0  0  0  0  0  0  0  0  0  0  0  0
  191.4520  177.0100  145.5850 C   0  0  0  0  0  2  0  0  0  0  0  0
  190.1790  177.2540  146.3830 C   0  0  0  0  0  2  0  0  0  0  0  0
  190.1960  177.1780  139.3320 C   0  0  0  0  0  0  0  0  0  0  0  0
  191.4660  177.5100  141.4120 C   0  0  0  0  0  3  0  0  0  0  0  0
  191.4150  177.8050  144.2860 C   0  0  0  0  0  2  0  0  0  0  0  0
  190.1890  177.4620  142.1640 C   0  0  0  0  0  0  0  0  0  0  0  0
  190.1580  177.5140  143.5080 C   0  0  0  0  0  0  0  0  0  0  0  0
  187.7400  176.9010  143.4660 N   0  0  0  0  0  0  0  0  0  0  0  0
  190.2150  176.0100  138.3720 C   0  0  0  0  0  2  0  0  0  0  0  0
  191.4920  177.3870  140.0800 C   0  0  0  0  0  0  0  0  0  0  0  0
  190.1520  177.4370  137.8410 C   0  0  0  0  0  2  0  0  0  0  0  0
  188.9840  176.7510  145.5860 C   0  0  0  0  0  2  0  0  0  0  0  0
  188.8270  177.5110  144.2600 C   0  0  1  0  0  3  0  0  0  0  0  0
  188.9050  177.2930  140.0830 C   0  0  0  0  0  3  0  0  0  0  0  0
  187.6400  177.5580  142.1630 C   0  0  0  0  0  2  0  0  0  0  0  0
  192.7990  177.4990  139.3620 C   0  0  0  0  0  2  0  0  0  0  0  0
  193.4200  176.2500  139.3040 O   0  0  0  0  0  0  0  0  0  0  0  0
  193.6460  176.0350  137.9460 C   0  0  0  0  0  2  0  0  0  0  0  0
  193.9070  174.5610  137.7050 C   0  0  0  0  0  2  0  0  0  0  0  0
  195.2690  174.2050  138.1840 C   0  0  0  0  0  0  0  0  0  0  0  0
  196.2650  174.8690  137.7970 O   0  0  0  0  0  0  0  0  0  0  0  0
  195.4400  173.1590  139.0800 O   0  0  0  0  0  1  0  0  0  0  0  0
  186.4730  177.1740  144.1420 C   0  0  0  0  0  2  0  0  0  0  0  0
  185.7470  178.3670  143.5100 C   0  0  1  0  0  3  0  0  0  0  0  0
  184.2900  178.4410  141.4330 C   0  0  0  0  0  0  0  0  0  0  0  0
  183.1210  177.9020  140.6890 C   0  0  0  0  0  1  0  0  0  0  0  0
  184.5980  177.9240  142.7300 N   0  0  0  0  0  2  0  0  0  0  0  0
  185.0040  179.3800  140.9070 N   0  0  0  0  0  2  0  0  0  0  0  0
  185.2920  179.3660  144.5670 C   0  0  0  0  0  2  0  0  0  0  0  0
  185.7750  178.9650  145.9530 C   0  0  0  0  0  2  0  0  0  0  0  0
  184.6660  178.2710  146.7210 C   0  0  0  0  0  1  0  0  0  0  0  0
  1 16  1  0  0  0  0
  1  7  1  0  0  0  0
  2  3  1  0  0  0  0
  4 11  1  0  0  0  0
  4 15  1  0  0  0  0
  5  7  1  0  0  0  0
  6  2  1  0  0  0  0
  7  8  2  0  0  0  0
  8 14  1  0  0  0  0
  8  6  1  0  0  0  0
  9 24  1  0  0  0  0
  9 14  1  0  0  0  0
 10  4  1  0  0  0  0
 11  5  2  0  0  0  0
 12 10  1  0  0  0  0
 12  4  1  0  0  0  0
 13  3  1  0  0  0  0
 14 13  1  1  0  0  0
 15  1  2  0  0  0  0
 16  9  1  0  0  0  0
 17 11  1  0  0  0  0
 18 17  1  0  0  0  0
 19 18  1  0  0  0  0
 20 19  1  0  0  0  0
 20 21  1  0  0  0  0
 21 23  1  0  0  0  0
 22 21  2  0  0  0  0
 25 24  1  1  0  0  0
 25 30  1  0  0  0  0
 26 28  1  0  0  0  0
 27 26  1  0  0  0  0
 28 25  1  0  0  0  0
 29 26  2  0  0  0  0
 30 31  1  0  0  0  0
 31 32  1  0  0  0  0
M  END
>  <MODEL>
6

>  <REMARK>
 VINA RESULT:      -7.2      3.942      7.158
  Name = 
  10 active torsions:
  status: ('A' for Active; 'I' for Inactive)
    1  A    between atoms: C_1  and  C_10
    2  A    between atoms: O_2  and  C_12
    3  A    between atoms: O_2  and  C_24
    4  A    between atoms: C_6  and  C_7
    5  A    between atoms: C_7  and  C_32
    6  A    between atoms: C_10  and  C_24
    7  A    between atoms: C_12  and  C_21
    8  A    between atoms: N_16  and  C_27
    9  A    between atoms: N_22  and  C_32
   10  A    between atoms: C_27  and  C_32
                            x       y       z     vdW  Elec       q    Type
                         _______ _______ _______ _____ _____    ______ ____

>  <TORSDO>
F 10

$$$$
=
 OpenBabel11052416573D

 32 35  0  0  1  0  0  0  0  0999 V2000
  187.7180  177.5070  142.2180 C   0  0  0  0  0  0  0  0  0  0  0  0
  183.6810  179.5560  144.0850 C   0  0  0  0  0  2  0  0  0  0  0  0
  184.0130  178.9710  145.4500 C   0  0  0  0  0  2  0  0  0  0  0  0
  188.1090  177.8470  139.8210 C   0  0  0  0  0  0  0  0  0  0  0  0
  185.8770  178.4000  140.6920 C   0  0  0  0  0  3  0  0  0  0  0  0
  184.1290  178.6020  142.9850 C   0  0  0  0  0  2  0  0  0  0  0  0
  186.3590  178.0690  142.0550 C   0  0  0  0  0  0  0  0  0  0  0  0
  185.5830  178.2390  143.1400 C   0  0  0  0  0  0  0  0  0  0  0  0
  187.5610  177.8350  144.6070 N   0  0  0  0  0  0  0  0  0  0  0  0
  189.1340  178.7470  139.1700 C   0  0  0  0  0  2  0  0  0  0  0  0
  186.6790  178.2950  139.6280 C   0  0  0  0  0  0  0  0  0  0  0  0
  188.8940  177.3430  138.6300 C   0  0  0  0  0  2  0  0  0  0  0  0
  185.5230  178.8210  145.5770 C   0  0  0  0  0  2  0  0  0  0  0  0
  186.0850  177.8460  144.5300 C   0  0  1  0  0  3  0  0  0  0  0  0
  188.5340  177.3630  141.1730 C   0  0  0  0  0  3  0  0  0  0  0  0
  188.1110  176.9810  143.5550 C   0  0  0  0  0  2  0  0  0  0  0  0
  186.1290  178.5850  138.2680 C   0  0  0  0  0  2  0  0  0  0  0  0
  185.0100  177.7890  138.0250 O   0  0  0  0  0  0  0  0  0  0  0  0
  185.2340  177.2440  136.7620 C   0  0  0  0  0  2  0  0  0  0  0  0
  185.8720  175.8770  136.9090 C   0  0  0  0  0  2  0  0  0  0  0  0
  184.8160  174.8300  136.9580 C   0  0  0  0  0  0  0  0  0  0  0  0
  183.7700  174.9600  136.2720 O   0  0  0  0  0  0  0  0  0  0  0  0
  184.9980  173.6940  137.7360 O   0  0  0  0  0  1  0  0  0  0  0  0
  187.9470  177.2050  145.8680 C   0  0  0  0  0  2  0  0  0  0  0  0
  189.4670  177.0360  145.9660 C   0  0  1  0  0  3  0  0  0  0  0  0
  191.1560  178.2270  144.4910 C   0  0  0  0  0  0  0  0  0  0  0  0
  191.7780  179.5070  144.0600 C   0  0  0  0  0  1  0  0  0  0  0  0
  190.1550  178.2390  145.5130 N   0  0  0  0  0  2  0  0  0  0  0  0
  191.5350  177.1180  143.9490 N   0  0  0  0  0  2  0  0  0  0  0  0
  189.9000  176.7060  147.3900 C   0  0  0  0  0  2  0  0  0  0  0  0
  191.4060  176.8420  147.5550 C   0  0  0  0  0  2  0  0  0  0  0  0
  192.1020  175.5530  147.1610 C   0  0  0  0  0  1  0  0  0  0  0  0
  1 16  1  0  0  0  0
  2  3  1  0  0  0  0
  3 13  1  0  0  0  0
  4 15  1  0  0  0  0
  5  7  1  0  0  0  0
  6  8  1  0  0  0  0
  6  2  1  0  0  0  0
  7  1  1  0  0  0  0
  7  8  2  0  0  0  0
  8 14  1  0  0  0  0
  9 24  1  0  0  0  0
 10  4  1  0  0  0  0
 11  4  1  0  0  0  0
 11  5  2  0  0  0  0
 12 10  1  0  0  0  0
 12  4  1  0  0  0  0
 14  9  1  0  0  0  0
 14 13  1  1  0  0  0
 15  1  2  0  0  0  0
 16  9  1  0  0  0  0
 17 11  1  0  0  0  0
 18 17  1  0  0  0  0
 19 20  1  0  0  0  0
 19 18  1  0  0  0  0
 20 21  1  0  0  0  0
 21 23  1  0  0  0  0
 22 21  2  0  0  0  0
 25 24  1  1  0  0  0
 25 30  1  0  0  0  0
 26 28  1  0  0  0  0
 27 26  1  0  0  0  0
 28 25  1  0  0  0  0
 29 26  2  0  0  0  0
 30 31  1  0  0  0  0
 32 31  1  0  0  0  0
M  END
>  <MODEL>
7

>  <REMARK>
 VINA RESULT:      -7.2      4.176      7.903
  Name = 
  10 active torsions:
  status: ('A' for Active; 'I' for Inactive)
    1  A    between atoms: C_1  and  C_10
    2  A    between atoms: O_2  and  C_12
    3  A    between atoms: O_2  and  C_24
    4  A    between atoms: C_6  and  C_7
    5  A    between atoms: C_7  and  C_32
    6  A    between atoms: C_10  and  C_24
    7  A    between atoms: C_12  and  C_21
    8  A    between atoms: N_16  and  C_27
    9  A    between atoms: N_22  and  C_32
   10  A    between atoms: C_27  and  C_32
                            x       y       z     vdW  Elec       q    Type
                         _______ _______ _______ _____ _____    ______ ____

>  <TORSDO>
F 10

$$$$
=
 OpenBabel11052416573D

 32 35  0  0  1  0  0  0  0  0999 V2000
  187.5040  178.1120  142.2390 C   0  0  0  0  0  0  0  0  0  0  0  0
  183.8050  178.5040  145.4240 C   0  0  0  0  0  2  0  0  0  0  0  0
  182.9820  179.2460  144.3800 C   0  0  0  0  0  2  0  0  0  0  0  0
  189.5350  177.0040  143.0530 C   0  0  0  0  0  0  0  0  0  0  0  0
  187.8680  177.6810  144.7290 C   0  0  0  0  0  3  0  0  0  0  0  0
  185.2800  178.8500  145.2690 C   0  0  0  0  0  2  0  0  0  0  0  0
  186.9890  178.1390  143.6260 C   0  0  0  0  0  0  0  0  0  0  0  0
  185.7490  178.6070  143.8580 C   0  0  0  0  0  0  0  0  0  0  0  0
  185.2760  178.5410  141.4090 N   0  0  0  0  0  0  0  0  0  0  0  0
  190.0370  175.6210  142.7040 C   0  0  0  0  0  2  0  0  0  0  0  0
  189.0710  177.1520  144.4830 C   0  0  0  0  0  0  0  0  0  0  0  0
  191.0070  176.7940  142.7700 C   0  0  0  0  0  2  0  0  0  0  0  0
  183.4050  178.7890  142.9910 C   0  0  0  0  0  2  0  0  0  0  0  0
  184.8790  179.1190  142.7100 C   0  0  1  0  0  3  0  0  0  0  0  0
  188.7110  177.6160  141.9620 C   0  0  0  0  0  3  0  0  0  0  0  0
  186.7010  178.7700  141.1710 C   0  0  0  0  0  2  0  0  0  0  0  0
  189.9430  176.7570  145.6320 C   0  0  0  0  0  2  0  0  0  0  0  0
  190.2930  177.8840  146.3750 O   0  0  0  0  0  0  0  0  0  0  0  0
  190.2130  177.4660  147.7020 C   0  0  0  0  0  2  0  0  0  0  0  0
  189.3940  178.4650  148.4970 C   0  0  0  0  0  2  0  0  0  0  0  0
  187.9500  178.1190  148.4060 C   0  0  0  0  0  0  0  0  0  0  0  0
  187.1110  179.0030  148.0930 O   0  0  0  0  0  0  0  0  0  0  0  0
  187.5300  176.8160  148.6370 O   0  0  0  0  0  1  0  0  0  0  0  0
  184.5790  179.2710  140.3530 C   0  0  0  0  0  2  0  0  0  0  0  0
  184.0750  178.3270  139.2570 C   0  0  1  0  0  3  0  0  0  0  0  0
  184.9720  177.4960  137.0320 C   0  0  0  0  0  0  0  0  0  0  0  0
  186.1490  177.1230  136.2040 C   0  0  0  0  0  1  0  0  0  0  0  0
  185.1670  177.9070  138.3880 N   0  0  0  0  0  2  0  0  0  0  0  0
  183.7870  177.4310  136.5240 N   0  0  0  0  0  2  0  0  0  0  0  0
  183.3920  177.0990  139.8490 C   0  0  0  0  0  2  0  0  0  0  0  0
  181.8900  177.3050  139.9700 C   0  0  0  0  0  2  0  0  0  0  0  0
  181.1450  176.0780  139.4800 C   0  0  0  0  0  1  0  0  0  0  0  0
  1  7  1  0  0  0  0
  3  2  1  0  0  0  0
  4 11  1  0  0  0  0
  6  2  1  0  0  0  0
  7  8  2  0  0  0  0
  7  5  1  0  0  0  0
  8  6  1  0  0  0  0
  9 14  1  0  0  0  0
 10 12  1  0  0  0  0
 10  4  1  0  0  0  0
 11  5  2  0  0  0  0
 11 17  1  0  0  0  0
 12  4  1  0  0  0  0
 13  3  1  0  0  0  0
 14 13  1  1  0  0  0
 14  8  1  0  0  0  0
 15  1  2  0  0  0  0
 15  4  1  0  0  0  0
 16  9  1  0  0  0  0
 16  1  1  0  0  0  0
 17 18  1  0  0  0  0
 18 19  1  0  0  0  0
 19 20  1  0  0  0  0
 21 20  1  0  0  0  0
 21 23  1  0  0  0  0
 22 21  2  0  0  0  0
 24  9  1  0  0  0  0
 25 30  1  1  0  0  0
 25 24  1  0  0  0  0
 26 28  1  0  0  0  0
 27 26  1  0  0  0  0
 28 25  1  0  0  0  0
 29 26  2  0  0  0  0
 30 31  1  0  0  0  0
 32 31  1  0  0  0  0
M  END
>  <MODEL>
8

>  <REMARK>
 VINA RESULT:      -7.1      1.435      2.221
  Name = 
  10 active torsions:
  status: ('A' for Active; 'I' for Inactive)
    1  A    between atoms: C_1  and  C_10
    2  A    between atoms: O_2  and  C_12
    3  A    between atoms: O_2  and  C_24
    4  A    between atoms: C_6  and  C_7
    5  A    between atoms: C_7  and  C_32
    6  A    between atoms: C_10  and  C_24
    7  A    between atoms: C_12  and  C_21
    8  A    between atoms: N_16  and  C_27
    9  A    between atoms: N_22  and  C_32
   10  A    between atoms: C_27  and  C_32
                            x       y       z     vdW  Elec       q    Type
                         _______ _______ _______ _____ _____    ______ ____

>  <TORSDO>
F 10

$$$$
=
 OpenBabel11052416573D

 32 35  0  0  1  0  0  0  0  0999 V2000
  187.7420  177.4780  142.4670 C   0  0  0  0  0  0  0  0  0  0  0  0
  183.7360  179.5940  144.3280 C   0  0  0  0  0  2  0  0  0  0  0  0
  184.0470  178.9890  145.6890 C   0  0  0  0  0  2  0  0  0  0  0  0
  188.1560  177.8340  140.0760 C   0  0  0  0  0  0  0  0  0  0  0  0
  185.9300  178.4250  140.9380 C   0  0  0  0  0  3  0  0  0  0  0  0
  184.1720  178.6410  143.2210 C   0  0  0  0  0  2  0  0  0  0  0  0
  186.3970  178.0710  142.3000 C   0  0  0  0  0  0  0  0  0  0  0  0
  185.6170  178.2460  143.3820 C   0  0  0  0  0  0  0  0  0  0  0  0
  187.5760  177.7870  144.8580 N   0  0  0  0  0  0  0  0  0  0  0  0
  189.2050  178.7190  139.4400 C   0  0  0  0  0  2  0  0  0  0  0  0
  186.7380  178.3130  139.8770 C   0  0  0  0  0  0  0  0  0  0  0  0
  188.9390  177.3250  138.8850 C   0  0  0  0  0  2  0  0  0  0  0  0
  185.5520  178.8050  145.8240 C   0  0  0  0  0  2  0  0  0  0  0  0
  186.1010  177.8300  144.7710 C   0  0  1  0  0  3  0  0  0  0  0  0
  188.5630  177.3280  141.4260 C   0  0  0  0  0  3  0  0  0  0  0  0
  188.1160  176.9320  143.8010 C   0  0  0  0  0  2  0  0  0  0  0  0
  186.2030  178.6290  138.5170 C   0  0  0  0  0  2  0  0  0  0  0  0
  185.0200  179.3590  138.6270 O   0  0  0  0  0  0  0  0  0  0  0  0
  184.0190  178.4600  138.2640 C   0  0  0  0  0  2  0  0  0  0  0  0
  182.7130  178.8670  138.9190 C   0  0  0  0  0  2  0  0  0  0  0  0
  182.3440  177.8800  139.9680 C   0  0  0  0  0  0  0  0  0  0  0  0
  181.5910  178.2220  140.9160 O   0  0  0  0  0  1  0  0  0  0  0  0
  182.8060  176.5730  139.8870 O   0  0  0  0  0  0  0  0  0  0  0  0
  187.9410  177.1370  146.1150 C   0  0  0  0  0  2  0  0  0  0  0  0
  189.4610  177.0950  146.3030 C   0  0  1  0  0  3  0  0  0  0  0  0
  191.1920  177.9370  144.6480 C   0  0  0  0  0  0  0  0  0  0  0  0
  191.7660  179.0800  143.8910 C   0  0  0  0  0  1  0  0  0  0  0  0
  190.1080  178.1640  145.5520 N   0  0  0  0  0  2  0  0  0  0  0  0
  191.6870  176.7540  144.4920 N   0  0  0  0  0  2  0  0  0  0  0  0
  189.8440  177.2000  147.7750 C   0  0  0  0  0  2  0  0  0  0  0  0
  189.1330  178.3640  148.4490 C   0  0  0  0  0  2  0  0  0  0  0  0
  187.8930  177.8790  149.1770 C   0  0  0  0  0  1  0  0  0  0  0  0
  1 16  1  0  0  0  0
  2  3  1  0  0  0  0
  3 13  1  0  0  0  0
  4 15  1  0  0  0  0
  5  7  1  0  0  0  0
  6  8  1  0  0  0  0
  6  2  1  0  0  0  0
  7  1  1  0  0  0  0
  7  8  2  0  0  0  0
  8 14  1  0  0  0  0
  9 24  1  0  0  0  0
 10  4  1  0  0  0  0
 11  4  1  0  0  0  0
 11  5  2  0  0  0  0
 12 10  1  0  0  0  0
 12  4  1  0  0  0  0
 14  9  1  0  0  0  0
 14 13  1  1  0  0  0
 15  1  2  0  0  0  0
 16  9  1  0  0  0  0
 17 18  1  0  0  0  0
 17 11  1  0  0  0  0
 19 18  1  0  0  0  0
 19 20  1  0  0  0  0
 20 21  1  0  0  0  0
 21 22  1  0  0  0  0
 23 21  2  0  0  0  0
 25 24  1  1  0  0  0
 25 30  1  0  0  0  0
 26 28  1  0  0  0  0
 27 26  1  0  0  0  0
 28 25  1  0  0  0  0
 29 26  2  0  0  0  0
 30 31  1  0  0  0  0
 31 32  1  0  0  0  0
M  END
>  <MODEL>
9

>  <REMARK>
 VINA RESULT:      -7.1      4.060      7.682
  Name = 
  10 active torsions:
  status: ('A' for Active; 'I' for Inactive)
    1  A    between atoms: C_1  and  C_10
    2  A    between atoms: O_2  and  C_12
    3  A    between atoms: O_2  and  C_24
    4  A    between atoms: C_6  and  C_7
    5  A    between atoms: C_7  and  C_32
    6  A    between atoms: C_10  and  C_24
    7  A    between atoms: C_12  and  C_21
    8  A    between atoms: N_16  and  C_27
    9  A    between atoms: N_22  and  C_32
   10  A    between atoms: C_27  and  C_32
                            x       y       z     vdW  Elec       q    Type
                         _______ _______ _______ _____ _____    ______ ____

>  <TORSDO>
F 10

$$$$
