=
 OpenBabel11052413283D

 28 31  0  0  1  0  0  0  0  0999 V2000
  186.9070  177.8440  145.8230 C   0  0  0  0  0  0  0  0  0  0  0  0
  188.3990  178.1590  140.7230 C   0  0  0  0  0  2  0  0  0  0  0  0
  191.6620  177.3070  145.8390 O   0  0  0  0  0  0  0  0  0  0  0  0
  190.8230  177.6490  140.8870 C   0  0  2  0  0  3  0  0  0  0  0  0
  189.4280  177.9220  142.9980 C   0  0  1  0  0  3  0  0  0  0  0  0
  189.5920  177.3460  138.6870 C   0  0  0  0  0  0  0  0  0  0  0  0
  189.4570  177.4230  141.5450 C   0  0  1  0  0  3  0  0  0  0  0  0
  191.9430  177.6390  143.0930 C   0  0  0  0  0  2  0  0  0  0  0  0
  190.8390  177.0440  139.4820 C   0  0  0  0  0  2  0  0  0  0  0  0
  189.3210  177.6480  145.8800 C   0  0  0  0  0  0  0  0  0  0  0  0
  188.1610  177.3790  143.6690 C   0  0  0  0  0  2  0  0  0  0  0  0
  191.9170  177.0020  141.7160 C   0  0  0  0  0  2  0  0  0  0  0  0
  188.1300  178.0370  147.8970 C   0  0  0  0  0  3  0  0  0  0  0  0
  190.6010  177.4760  145.1780 C   0  0  0  0  0  0  0  0  0  0  0  0
  189.2950  177.8360  147.2270 N   0  0  0  0  0  0  0  0  0  0  0  0
  189.5650  177.0190  137.3700 F   0  0  0  0  0  0  0  0  0  0  0  0
  188.4620  177.7760  139.2690 C   0  0  0  0  0  3  0  0  0  0  0  0
  190.6380  177.5160  143.7400 N   0  0  0  0  0  0  0  0  0  0  0  0
  186.9190  178.0490  147.2070 C   0  0  0  0  0  3  0  0  0  0  0  0
  188.1250  177.6620  145.1430 C   0  0  0  0  0  0  0  0  0  0  0  0
  185.5870  177.8520  145.0890 C   0  0  0  0  0  2  0  0  0  0  0  0
  184.8650  179.1320  145.1720 N   0  0  0  0  0  0  0  0  0  0  0  0
  183.9290  179.0260  146.1500 O   0  0  0  0  0  1  0  0  0  0  0  0
  182.7790  178.9320  143.8990 C   0  0  0  0  0  1  0  0  0  0  0  0
  184.2120  179.4440  143.8890 C   0  0  2  0  0  3  0  0  0  0  0  0
  184.9210  178.8210  142.6790 C   0  0  1  0  0  3  0  0  0  0  0  0
  183.9350  178.1390  141.7490 C   0  0  0  0  0  1  0  0  0  0  0  0
  185.6700  179.7700  141.9800 O   0  0  0  0  0  1  0  0  0  0  0  0
  1 19  1  0  0  0  0
  4  9  1  6  0  0  0
  4  7  1  0  0  0  0
  4 12  1  0  0  0  0
  5 11  1  1  0  0  0
  5 18  1  0  0  0  0
  6 17  2  0  0  0  0
  6  9  1  0  0  0  0
  7  2  1  6  0  0  0
  7  5  1  0  0  0  0
  8 18  1  0  0  0  0
 10 15  2  0  0  0  0
 11 20  1  0  0  0  0
 12  8  1  0  0  0  0
 14  3  2  0  0  0  0
 14 10  1  0  0  0  0
 15 13  1  0  0  0  0
 16  6  1  0  0  0  0
 17  2  1  0  0  0  0
 18 14  1  0  0  0  0
 19 13  2  0  0  0  0
 20  1  2  0  0  0  0
 20 10  1  0  0  0  0
 21 22  1  0  0  0  0
 21  1  1  0  0  0  0
 22 23  1  0  0  0  0
 25 24  1  1  0  0  0
 25 22  1  0  0  0  0
 26 27  1  6  0  0  0
 26 25  1  0  0  0  0
 28 26  1  0  0  0  0
M  END
>  <MODEL>
1

>  <REMARK>
 VINA RESULT:     -10.0      0.000      0.000
  Name = 
  4 active torsions:
  status: ('A' for Active; 'I' for Inactive)
    1  A    between atoms: C_1  and  C_2
    2  A    between atoms: C_2  and  N_3
    3  A    between atoms: N_3  and  C_11
    4  A    between atoms: C_6  and  C_11
                            x       y       z     vdW  Elec       q    Type
                         _______ _______ _______ _____ _____    ______ ____

>  <TORSDO>
F 4

$$$$
=
 OpenBabel11052413283D

 28 31  0  0  1  0  0  0  0  0999 V2000
  185.9600  178.1390  142.1170 C   0  0  0  0  0  0  0  0  0  0  0  0
  190.4200  177.3440  144.9110 C   0  0  0  0  0  2  0  0  0  0  0  0
  184.7000  178.6010  146.7100 O   0  0  0  0  0  0  0  0  0  0  0  0
  189.5600  177.4000  147.2390 C   0  0  2  0  0  3  0  0  0  0  0  0
  188.0170  177.9510  145.2920 C   0  0  1  0  0  3  0  0  0  0  0  0
  191.7690  176.2650  146.7130 C   0  0  0  0  0  0  0  0  0  0  0  0
  189.1910  177.0910  145.7840 C   0  0  1  0  0  3  0  0  0  0  0  0
  187.2700  178.2200  147.6970 C   0  0  0  0  0  2  0  0  0  0  0  0
  190.6590  176.4510  147.7190 C   0  0  0  0  0  2  0  0  0  0  0  0
  185.3000  178.4590  144.4260 C   0  0  0  0  0  0  0  0  0  0  0  0
  187.5140  177.3670  143.9660 C   0  0  0  0  0  2  0  0  0  0  0  0
  188.3440  177.2400  148.1330 C   0  0  0  0  0  2  0  0  0  0  0  0
  183.8330  179.1350  142.6840 C   0  0  0  0  0  3  0  0  0  0  0  0
  185.6020  178.3640  145.8610 C   0  0  0  0  0  0  0  0  0  0  0  0
  184.1240  178.9990  144.0050 N   0  0  0  0  0  0  0  0  0  0  0  0
  192.8850  175.5920  147.0920 F   0  0  0  0  0  0  0  0  0  0  0  0
  191.6250  176.6000  145.4220 C   0  0  0  0  0  3  0  0  0  0  0  0
  186.9310  178.0170  146.2890 N   0  0  0  0  0  0  0  0  0  0  0  0
  184.7480  178.7120  141.7200 C   0  0  0  0  0  3  0  0  0  0  0  0
  186.2530  178.0290  143.4890 C   0  0  0  0  0  0  0  0  0  0  0  0
  186.9380  177.6790  141.0620 C   0  0  0  0  0  2  0  0  0  0  0  0
  187.3700  178.7450  140.1430 N   0  0  0  0  0  0  0  0  0  0  0  0
  186.6540  178.6300  138.9960 O   0  0  0  0  0  1  0  0  0  0  0  0
  189.0310  178.6420  138.3420 C   0  0  0  0  0  1  0  0  0  0  0  0
  188.8090  178.6220  139.8470 C   0  0  2  0  0  3  0  0  0  0  0  0
  189.4340  177.3320  140.3950 C   0  0  1  0  0  3  0  0  0  0  0  0
  190.1650  176.5660  139.3080 C   0  0  0  0  0  1  0  0  0  0  0  0
  190.2920  177.5940  141.4660 O   0  0  0  0  0  1  0  0  0  0  0  0
  1 20  1  0  0  0  0
  2 17  1  0  0  0  0
  4  9  1  1  0  0  0
  4 12  1  0  0  0  0
  5 11  1  6  0  0  0
  5  7  1  0  0  0  0
  5 18  1  0  0  0  0
  6 16  1  0  0  0  0
  6  9  1  0  0  0  0
  7  2  1  6  0  0  0
  7  4  1  0  0  0  0
  8 12  1  0  0  0  0
 10 14  1  0  0  0  0
 13 15  2  0  0  0  0
 14 18  1  0  0  0  0
 14  3  2  0  0  0  0
 15 10  1  0  0  0  0
 17  6  2  0  0  0  0
 18  8  1  0  0  0  0
 19  1  2  0  0  0  0
 19 13  1  0  0  0  0
 20 11  1  0  0  0  0
 20 10  2  0  0  0  0
 21  1  1  0  0  0  0
 22 21  1  0  0  0  0
 23 22  1  0  0  0  0
 25 24  1  6  0  0  0
 25 22  1  0  0  0  0
 25 26  1  0  0  0  0
 26 27  1  6  0  0  0
 26 28  1  0  0  0  0
M  END
>  <MODEL>
2

>  <REMARK>
 VINA RESULT:      -9.7      2.731      6.151
  Name = 
  4 active torsions:
  status: ('A' for Active; 'I' for Inactive)
    1  A    between atoms: C_1  and  C_2
    2  A    between atoms: C_2  and  N_3
    3  A    between atoms: N_3  and  C_11
    4  A    between atoms: C_6  and  C_11
                            x       y       z     vdW  Elec       q    Type
                         _______ _______ _______ _____ _____    ______ ____

>  <TORSDO>
F 4

$$$$
=
 OpenBabel11052413283D

 28 31  0  0  1  0  0  0  0  0999 V2000
  190.6490  177.2750  144.7150 C   0  0  0  0  0  0  0  0  0  0  0  0
  185.7120  177.7820  142.7910 C   0  0  0  0  0  2  0  0  0  0  0  0
  187.8170  177.7310  148.5440 O   0  0  0  0  0  0  0  0  0  0  0  0
  184.4180  178.2220  144.8630 C   0  0  2  0  0  3  0  0  0  0  0  0
  186.8890  177.6260  145.0000 C   0  0  1  0  0  3  0  0  0  0  0  0
  183.4890  178.9020  142.6000 C   0  0  0  0  0  0  0  0  0  0  0  0
  185.7960  178.3570  144.2050 C   0  0  1  0  0  3  0  0  0  0  0  0
  185.4590  177.8520  147.0780 C   0  0  0  0  0  2  0  0  0  0  0  0
  183.3840  179.0490  144.0990 C   0  0  0  0  0  2  0  0  0  0  0  0
  189.2400  177.4230  146.6790 C   0  0  0  0  0  0  0  0  0  0  0  0
  188.2540  178.0700  144.4620 C   0  0  0  0  0  2  0  0  0  0  0  0
  184.4750  178.7070  146.3000 C   0  0  0  0  0  2  0  0  0  0  0  0
  191.4990  176.7260  146.9080 C   0  0  0  0  0  3  0  0  0  0  0  0
  187.9290  177.6900  147.2890 C   0  0  0  0  0  0  0  0  0  0  0  0
  190.2860  177.0170  147.4490 N   0  0  0  0  0  0  0  0  0  0  0  0
  182.5160  179.4410  141.8230 F   0  0  0  0  0  0  0  0  0  0  0  0
  184.5830  178.3980  142.0090 C   0  0  0  0  0  3  0  0  0  0  0  0
  186.7780  177.8860  146.4480 N   0  0  0  0  0  0  0  0  0  0  0  0
  191.6980  176.8450  145.5330 C   0  0  0  0  0  3  0  0  0  0  0  0
  189.3940  177.5490  145.2900 C   0  0  0  0  0  0  0  0  0  0  0  0
  190.8820  177.4080  143.2280 C   0  0  0  0  0  2  0  0  0  0  0  0
  190.0460  176.5140  142.4100 N   0  0  0  0  0  0  0  0  0  0  0  0
  190.2330  175.2430  142.8490 O   0  0  0  0  0  1  0  0  0  0  0  0
  191.6570  177.4840  140.8370 C   0  0  0  0  0  1  0  0  0  0  0  0
  190.4200  176.6110  140.9890 C   0  0  2  0  0  3  0  0  0  0  0  0
  189.3150  177.2110  140.1090 C   0  0  1  0  0  3  0  0  0  0  0  0
  188.5850  178.3330  140.8230 C   0  0  0  0  0  1  0  0  0  0  0  0
  189.8210  177.6610  138.8870 O   0  0  0  0  0  1  0  0  0  0  0  0
  1 20  2  0  0  0  0
  1 19  1  0  0  0  0
  4  9  1  6  0  0  0
  4 12  1  0  0  0  0
  5 11  1  6  0  0  0
  5 18  1  0  0  0  0
  6  9  1  0  0  0  0
  7  2  1  6  0  0  0
  7  4  1  0  0  0  0
  7  5  1  0  0  0  0
 10 14  1  0  0  0  0
 10 15  2  0  0  0  0
 11 20  1  0  0  0  0
 12  8  1  0  0  0  0
 13 15  1  0  0  0  0
 14  3  2  0  0  0  0
 16  6  1  0  0  0  0
 17  6  2  0  0  0  0
 17  2  1  0  0  0  0
 18  8  1  0  0  0  0
 18 14  1  0  0  0  0
 19 13  2  0  0  0  0
 20 10  1  0  0  0  0
 21  1  1  0  0  0  0
 22 23  1  0  0  0  0
 22 21  1  0  0  0  0
 25 24  1  1  0  0  0
 25 22  1  0  0  0  0
 26 27  1  1  0  0  0
 26 25  1  0  0  0  0
 28 26  1  0  0  0  0
M  END
>  <MODEL>
3

>  <REMARK>
 VINA RESULT:      -9.6      2.554      5.843
  Name = 
  4 active torsions:
  status: ('A' for Active; 'I' for Inactive)
    1  A    between atoms: C_1  and  C_2
    2  A    between atoms: C_2  and  N_3
    3  A    between atoms: N_3  and  C_11
    4  A    between atoms: C_6  and  C_11
                            x       y       z     vdW  Elec       q    Type
                         _______ _______ _______ _____ _____    ______ ____

>  <TORSDO>
F 4

$$$$
=
 OpenBabel11052413283D

 28 31  0  0  1  0  0  0  0  0999 V2000
  189.0240  177.3210  140.4100 C   0  0  0  0  0  0  0  0  0  0  0  0
  188.3640  178.0060  145.6470 C   0  0  0  0  0  2  0  0  0  0  0  0
  184.6790  179.2590  140.9160 O   0  0  0  0  0  0  0  0  0  0  0  0
  186.0150  178.8020  145.7480 C   0  0  2  0  0  3  0  0  0  0  0  0
  187.1590  178.4730  143.4980 C   0  0  1  0  0  3  0  0  0  0  0  0
  187.1130  177.7730  147.7940 C   0  0  0  0  0  0  0  0  0  0  0  0
  187.0100  177.9610  144.9400 C   0  0  1  0  0  3  0  0  0  0  0  0
  184.8530  179.5050  143.6800 C   0  0  0  0  0  2  0  0  0  0  0  0
  185.8200  178.1960  147.1390 C   0  0  0  0  0  2  0  0  0  0  0  0
  186.8530  178.3740  140.6200 C   0  0  0  0  0  0  0  0  0  0  0  0
  187.9070  177.4100  142.6850 C   0  0  0  0  0  2  0  0  0  0  0  0
  184.6750  178.8520  145.0380 C   0  0  0  0  0  2  0  0  0  0  0  0
  187.8890  178.2410  138.4870 C   0  0  0  0  0  3  0  0  0  0  0  0
  185.7320  178.8250  141.4570 C   0  0  0  0  0  0  0  0  0  0  0  0
  186.8500  178.6120  139.2800 N   0  0  0  0  0  0  0  0  0  0  0  0
  187.0880  177.3900  149.0960 F   0  0  0  0  0  0  0  0  0  0  0  0
  188.2460  177.6120  147.0950 C   0  0  0  0  0  3  0  0  0  0  0  0
  185.8500  178.7830  142.8900 N   0  0  0  0  0  0  0  0  0  0  0  0
  188.9940  177.5950  139.0390 C   0  0  0  0  0  3  0  0  0  0  0  0
  187.9490  177.7340  141.2190 C   0  0  0  0  0  0  0  0  0  0  0  0
  190.2240  176.6130  140.9930 C   0  0  0  0  0  2  0  0  0  0  0  0
  191.2380  177.5200  141.5540 N   0  0  0  0  0  0  0  0  0  0  0  0
  192.2380  177.6510  140.6440 O   0  0  0  0  0  1  0  0  0  0  0  0
  190.8800  175.8600  143.3230 C   0  0  0  0  0  1  0  0  0  0  0  0
  191.7780  176.9780  142.8140 C   0  0  2  0  0  3  0  0  0  0  0  0
  191.8940  178.0280  143.9270 C   0  0  1  0  0  3  0  0  0  0  0  0
  190.9540  179.1940  143.6890 C   0  0  0  0  0  1  0  0  0  0  0  0
  191.6640  177.4660  145.1850 O   0  0  0  0  0  1  0  0  0  0  0  0
  1 21  1  0  0  0  0
  1 20  1  0  0  0  0
  2 17  1  0  0  0  0
  3 14  2  0  0  0  0
  4 12  1  6  0  0  0
  4  9  1  0  0  0  0
  5 11  1  6  0  0  0
  5  7  1  0  0  0  0
  6 16  1  0  0  0  0
  7  2  1  1  0  0  0
  7  4  1  0  0  0  0
  8 12  1  0  0  0  0
  9  6  1  0  0  0  0
 10 20  2  0  0  0  0
 10 14  1  0  0  0  0
 13 19  1  0  0  0  0
 13 15  2  0  0  0  0
 14 18  1  0  0  0  0
 15 10  1  0  0  0  0
 17  6  2  0  0  0  0
 18  5  1  0  0  0  0
 18  8  1  0  0  0  0
 19  1  2  0  0  0  0
 20 11  1  0  0  0  0
 21 22  1  0  0  0  0
 22 25  1  0  0  0  0
 23 22  1  0  0  0  0
 25 24  1  1  0  0  0
 25 26  1  0  0  0  0
 26 27  1  6  0  0  0
 26 28  1  0  0  0  0
M  END
>  <MODEL>
4

>  <REMARK>
 VINA RESULT:      -9.4      2.992      7.430
  Name = 
  4 active torsions:
  status: ('A' for Active; 'I' for Inactive)
    1  A    between atoms: C_1  and  C_2
    2  A    between atoms: C_2  and  N_3
    3  A    between atoms: N_3  and  C_11
    4  A    between atoms: C_6  and  C_11
                            x       y       z     vdW  Elec       q    Type
                         _______ _______ _______ _____ _____    ______ ____

>  <TORSDO>
F 4

$$$$
=
 OpenBabel11052413283D

 28 31  0  0  1  0  0  0  0  0999 V2000
  187.4910  178.4130  140.6870 C   0  0  0  0  0  0  0  0  0  0  0  0
  187.4860  177.5440  145.9390 C   0  0  0  0  0  2  0  0  0  0  0  0
  191.9130  176.9240  141.7490 O   0  0  0  0  0  0  0  0  0  0  0  0
  189.8730  176.9980  146.3500 C   0  0  2  0  0  3  0  0  0  0  0  0
  189.0250  177.3150  143.9720 C   0  0  1  0  0  3  0  0  0  0  0  0
  188.3920  177.8020  148.2500 C   0  0  0  0  0  0  0  0  0  0  0  0
  188.9120  177.7670  145.4360 C   0  0  1  0  0  3  0  0  0  0  0  0
  191.3840  176.5250  144.4480 C   0  0  0  0  0  2  0  0  0  0  0  0
  189.8030  177.5520  147.7740 C   0  0  0  0  0  2  0  0  0  0  0  0
  189.7160  177.5870  141.1720 C   0  0  0  0  0  0  0  0  0  0  0  0
  188.2830  178.3310  143.0950 C   0  0  0  0  0  2  0  0  0  0  0  0
  191.2960  177.1250  145.8400 C   0  0  0  0  0  2  0  0  0  0  0  0
  188.9800  177.7140  138.9180 C   0  0  0  0  0  3  0  0  0  0  0  0
  190.7520  177.2170  142.1470 C   0  0  0  0  0  0  0  0  0  0  0  0
  189.9330  177.4170  139.8400 N   0  0  0  0  0  0  0  0  0  0  0  0
  188.1920  178.1200  149.5550 F   0  0  0  0  0  0  0  0  0  0  0  0
  187.3560  177.8760  147.4010 C   0  0  0  0  0  3  0  0  0  0  0  0
  190.4310  177.1750  143.5490 N   0  0  0  0  0  0  0  0  0  0  0  0
  187.7430  178.2120  139.3270 C   0  0  0  0  0  3  0  0  0  0  0  0
  188.4820  178.0770  141.6280 C   0  0  0  0  0  0  0  0  0  0  0  0
  186.1490  178.9600  141.1150 C   0  0  0  0  0  2  0  0  0  0  0  0
  185.0450  178.6090  140.2090 N   0  0  0  0  0  0  0  0  0  0  0  0
  184.5510  179.7580  139.6800 O   0  0  0  0  0  1  0  0  0  0  0  0
  183.0370  177.2250  139.9540 C   0  0  0  0  0  1  0  0  0  0  0  0
  183.9810  177.8990  140.9400 C   0  0  2  0  0  3  0  0  0  0  0  0
  183.1410  178.8170  141.8370 C   0  0  1  0  0  3  0  0  0  0  0  0
  181.6560  178.6280  141.5900 C   0  0  0  0  0  1  0  0  0  0  0  0
  183.4370  178.6220  143.1880 O   0  0  0  0  0  1  0  0  0  0  0  0
  1 21  1  0  0  0  0
  1 20  1  0  0  0  0
  2 17  1  0  0  0  0
  3 14  2  0  0  0  0
  4 12  1  6  0  0  0
  4  9  1  0  0  0  0
  5 11  1  6  0  0  0
  5  7  1  0  0  0  0
  6 16  1  0  0  0  0
  7  2  1  1  0  0  0
  7  4  1  0  0  0  0
  8 12  1  0  0  0  0
  9  6  1  0  0  0  0
 10 20  2  0  0  0  0
 10 14  1  0  0  0  0
 13 19  1  0  0  0  0
 13 15  2  0  0  0  0
 14 18  1  0  0  0  0
 15 10  1  0  0  0  0
 17  6  2  0  0  0  0
 18  5  1  0  0  0  0
 18  8  1  0  0  0  0
 19  1  2  0  0  0  0
 20 11  1  0  0  0  0
 22 25  1  0  0  0  0
 22 21  1  0  0  0  0
 23 22  1  0  0  0  0
 25 24  1  6  0  0  0
 25 26  1  0  0  0  0
 26 27  1  1  0  0  0
 26 28  1  0  0  0  0
M  END
>  <MODEL>
5

>  <REMARK>
 VINA RESULT:      -9.3      3.052      5.671
  Name = 
  4 active torsions:
  status: ('A' for Active; 'I' for Inactive)
    1  A    between atoms: C_1  and  C_2
    2  A    between atoms: C_2  and  N_3
    3  A    between atoms: N_3  and  C_11
    4  A    between atoms: C_6  and  C_11
                            x       y       z     vdW  Elec       q    Type
                         _______ _______ _______ _____ _____    ______ ____

>  <TORSDO>
F 4

$$$$
=
 OpenBabel11052413283D

 28 31  0  0  1  0  0  0  0  0999 V2000
  189.9010  177.1820  142.7490 C   0  0  0  0  0  0  0  0  0  0  0  0
  185.0300  178.8190  144.1400 C   0  0  0  0  0  2  0  0  0  0  0  0
  187.6640  178.2000  138.6430 O   0  0  0  0  0  0  0  0  0  0  0  0
  183.9500  179.0920  141.9220 C   0  0  2  0  0  3  0  0  0  0  0  0
  186.4290  178.5410  142.0780 C   0  0  1  0  0  3  0  0  0  0  0  0
  182.5380  178.7890  144.0110 C   0  0  0  0  0  0  0  0  0  0  0  0
  185.0370  178.3320  142.6910 C   0  0  1  0  0  3  0  0  0  0  0  0
  185.3210  179.0660  139.8620 C   0  0  0  0  0  2  0  0  0  0  0  0
  182.5710  178.7720  142.5010 C   0  0  0  0  0  2  0  0  0  0  0  0
  188.8290  177.7620  140.6550 C   0  0  0  0  0  0  0  0  0  0  0  0
  187.3870  177.5150  142.6960 C   0  0  0  0  0  2  0  0  0  0  0  0
  183.9740  178.6980  140.4570 C   0  0  0  0  0  2  0  0  0  0  0  0
  191.1760  177.4000  140.7090 C   0  0  0  0  0  3  0  0  0  0  0  0
  187.6220  178.1300  139.9020 C   0  0  0  0  0  0  0  0  0  0  0  0
  190.0370  177.7000  140.0310 N   0  0  0  0  0  0  0  0  0  0  0  0
  181.3370  178.7000  144.6360 F   0  0  0  0  0  0  0  0  0  0  0  0
  183.6570  178.7310  144.7490 C   0  0  0  0  0  3  0  0  0  0  0  0
  186.4030  178.4240  140.6070 N   0  0  0  0  0  0  0  0  0  0  0  0
  191.1270  177.1420  142.0790 C   0  0  0  0  0  3  0  0  0  0  0  0
  188.7360  177.5170  142.0340 C   0  0  0  0  0  0  0  0  0  0  0  0
  189.8610  176.8920  144.2310 C   0  0  0  0  0  2  0  0  0  0  0  0
  189.6010  178.0770  145.0650 N   0  0  0  0  0  0  0  0  0  0  0  0
  190.4510  179.0620  144.6760 O   0  0  0  0  0  1  0  0  0  0  0  0
  190.8890  176.6950  146.6290 C   0  0  0  0  0  1  0  0  0  0  0  0
  189.8160  177.7660  146.4890 C   0  0  2  0  0  3  0  0  0  0  0  0
  188.5540  177.2570  147.1980 C   0  0  1  0  0  3  0  0  0  0  0  0
  188.4080  177.8710  148.5780 C   0  0  0  0  0  1  0  0  0  0  0  0
  187.4080  177.4970  146.4360 O   0  0  0  0  0  1  0  0  0  0  0  0
  1 21  1  0  0  0  0
  2 17  1  0  0  0  0
  3 14  2  0  0  0  0
  4 12  1  6  0  0  0
  4  9  1  0  0  0  0
  4  7  1  0  0  0  0
  5  7  1  0  0  0  0
  5 11  1  1  0  0  0
  6 16  1  0  0  0  0
  6 17  2  0  0  0  0
  7  2  1  1  0  0  0
  8 12  1  0  0  0  0
  8 18  1  0  0  0  0
  9  6  1  0  0  0  0
 10 20  1  0  0  0  0
 13 19  2  0  0  0  0
 14 18  1  0  0  0  0
 14 10  1  0  0  0  0
 15 10  2  0  0  0  0
 15 13  1  0  0  0  0
 18  5  1  0  0  0  0
 19  1  1  0  0  0  0
 20 11  1  0  0  0  0
 20  1  2  0  0  0  0
 21 22  1  0  0  0  0
 22 25  1  0  0  0  0
 23 22  1  0  0  0  0
 25 24  1  6  0  0  0
 25 26  1  0  0  0  0
 26 27  1  1  0  0  0
 28 26  1  0  0  0  0
M  END
>  <MODEL>
6

>  <REMARK>
 VINA RESULT:      -9.0      2.879      6.699
  Name = 
  4 active torsions:
  status: ('A' for Active; 'I' for Inactive)
    1  A    between atoms: C_1  and  C_2
    2  A    between atoms: C_2  and  N_3
    3  A    between atoms: N_3  and  C_11
    4  A    between atoms: C_6  and  C_11
                            x       y       z     vdW  Elec       q    Type
                         _______ _______ _______ _____ _____    ______ ____

>  <TORSDO>
F 4

$$$$
=
 OpenBabel11052413283D

 28 31  0  0  1  0  0  0  0  0999 V2000
  189.4310  177.4580  141.1270 C   0  0  0  0  0  0  0  0  0  0  0  0
  184.2670  178.0000  142.2980 C   0  0  0  0  0  2  0  0  0  0  0  0
  189.2300  177.8880  145.8880 O   0  0  0  0  0  0  0  0  0  0  0  0
  184.3570  178.4250  144.7420 C   0  0  2  0  0  3  0  0  0  0  0  0
  186.4770  177.8190  143.4700 C   0  0  1  0  0  3  0  0  0  0  0  0
  182.3270  179.1290  143.3900 C   0  0  0  0  0  0  0  0  0  0  0  0
  185.1320  178.5610  143.4260 C   0  0  1  0  0  3  0  0  0  0  0  0
  186.4560  178.0310  145.9930 C   0  0  0  0  0  2  0  0  0  0  0  0
  183.0790  179.2630  144.6920 C   0  0  0  0  0  2  0  0  0  0  0  0
  189.3630  177.5930  143.5450 C   0  0  0  0  0  0  0  0  0  0  0  0
  187.3110  178.2640  142.2620 C   0  0  0  0  0  2  0  0  0  0  0  0
  185.2130  178.8970  145.9040 C   0  0  0  0  0  2  0  0  0  0  0  0
  191.3580  176.8850  142.4670 C   0  0  0  0  0  3  0  0  0  0  0  0
  188.6200  177.8580  144.7850 C   0  0  0  0  0  0  0  0  0  0  0  0
  190.6580  177.1750  143.5950 N   0  0  0  0  0  0  0  0  0  0  0  0
  181.0900  179.6790  143.2930 F   0  0  0  0  0  0  0  0  0  0  0  0
  182.8990  178.6270  142.2850 C   0  0  0  0  0  3  0  0  0  0  0  0
  187.1970  178.0660  144.7330 N   0  0  0  0  0  0  0  0  0  0  0  0
  190.7550  177.0160  141.2160 C   0  0  0  0  0  3  0  0  0  0  0  0
  188.7150  177.7300  142.3070 C   0  0  0  0  0  0  0  0  0  0  0  0
  188.7930  177.6030  139.7650 C   0  0  0  0  0  2  0  0  0  0  0  0
  189.6620  178.2420  138.7640 N   0  0  0  0  0  0  0  0  0  0  0  0
  189.0550  179.3810  138.3430 O   0  0  0  0  0  1  0  0  0  0  0  0
  189.0540  177.8050  136.4290 C   0  0  0  0  0  1  0  0  0  0  0  0
  189.8820  177.3410  137.6190 C   0  0  2  0  0  3  0  0  0  0  0  0
  189.5050  175.8830  137.9100 C   0  0  1  0  0  3  0  0  0  0  0  0
  188.6840  175.2870  136.7830 C   0  0  0  0  0  1  0  0  0  0  0  0
  190.6360  175.1010  138.1540 O   0  0  0  0  0  1  0  0  0  0  0  0
  1 19  2  0  0  0  0
  1 20  1  0  0  0  0
  4  9  1  6  0  0  0
  4 12  1  0  0  0  0
  5 11  1  6  0  0  0
  5 18  1  0  0  0  0
  6  9  1  0  0  0  0
  7  2  1  6  0  0  0
  7  5  1  0  0  0  0
  7  4  1  0  0  0  0
 10 15  1  0  0  0  0
 10 14  1  0  0  0  0
 11 20  1  0  0  0  0
 12  8  1  0  0  0  0
 13 15  2  0  0  0  0
 14  3  2  0  0  0  0
 16  6  1  0  0  0  0
 17  2  1  0  0  0  0
 17  6  2  0  0  0  0
 18 14  1  0  0  0  0
 18  8  1  0  0  0  0
 19 13  1  0  0  0  0
 20 10  2  0  0  0  0
 21  1  1  0  0  0  0
 22 21  1  0  0  0  0
 23 22  1  0  0  0  0
 25 24  1  6  0  0  0
 25 26  1  0  0  0  0
 25 22  1  0  0  0  0
 26 27  1  6  0  0  0
 26 28  1  0  0  0  0
M  END
>  <MODEL>
7

>  <REMARK>
 VINA RESULT:      -9.0      3.139      6.679
  Name = 
  4 active torsions:
  status: ('A' for Active; 'I' for Inactive)
    1  A    between atoms: C_1  and  C_2
    2  A    between atoms: C_2  and  N_3
    3  A    between atoms: N_3  and  C_11
    4  A    between atoms: C_6  and  C_11
                            x       y       z     vdW  Elec       q    Type
                         _______ _______ _______ _____ _____    ______ ____

>  <TORSDO>
F 4

$$$$
=
 OpenBabel11052413283D

 28 31  0  0  1  0  0  0  0  0999 V2000
  187.4390  178.2560  139.7800 C   0  0  0  0  0  0  0  0  0  0  0  0
  187.2410  177.3640  145.0240 C   0  0  0  0  0  2  0  0  0  0  0  0
  191.9450  177.3300  141.0990 O   0  0  0  0  0  0  0  0  0  0  0  0
  189.6490  177.1210  145.5740 C   0  0  2  0  0  3  0  0  0  0  0  0
  188.9070  177.3420  143.1500 C   0  0  1  0  0  3  0  0  0  0  0  0
  187.9720  177.7220  147.3830 C   0  0  0  0  0  0  0  0  0  0  0  0
  188.6540  177.7680  144.6040 C   0  0  1  0  0  3  0  0  0  0  0  0
  191.3150  176.8530  143.7640 C   0  0  0  0  0  2  0  0  0  0  0  0
  189.4280  177.6540  146.9900 C   0  0  0  0  0  2  0  0  0  0  0  0
  189.7190  177.7140  140.3950 C   0  0  0  0  0  0  0  0  0  0  0  0
  188.0950  178.2610  142.2300 C   0  0  0  0  0  2  0  0  0  0  0  0
  191.0720  177.4300  145.1470 C   0  0  0  0  0  2  0  0  0  0  0  0
  189.1040  177.7600  138.1010 C   0  0  0  0  0  3  0  0  0  0  0  0
  190.7360  177.4720  141.4280 C   0  0  0  0  0  0  0  0  0  0  0  0
  190.0320  177.5800  139.0770 N   0  0  0  0  0  0  0  0  0  0  0  0
  187.6580  178.0050  148.6730 F   0  0  0  0  0  0  0  0  0  0  0  0
  186.9860  177.6690  146.4750 C   0  0  0  0  0  3  0  0  0  0  0  0
  190.3420  177.3830  142.8090 N   0  0  0  0  0  0  0  0  0  0  0  0
  187.7930  178.0950  138.4360 C   0  0  0  0  0  3  0  0  0  0  0  0
  188.4090  178.0420  140.7770 C   0  0  0  0  0  0  0  0  0  0  0  0
  186.0170  178.6270  140.1280 C   0  0  0  0  0  2  0  0  0  0  0  0
  185.1760  178.9300  138.9600 N   0  0  0  0  0  0  0  0  0  0  0  0
  184.5560  180.1180  139.1810 O   0  0  0  0  0  1  0  0  0  0  0  0
  184.0970  177.5030  137.2820 C   0  0  0  0  0  1  0  0  0  0  0  0
  184.1700  177.8730  138.7570 C   0  0  2  0  0  3  0  0  0  0  0  0
  182.7600  178.2790  139.2070 C   0  0  1  0  0  3  0  0  0  0  0  0
  181.7430  178.0670  138.1020 C   0  0  0  0  0  1  0  0  0  0  0  0
  182.3740  177.5940  140.3610 O   0  0  0  0  0  1  0  0  0  0  0  0
  1 21  1  0  0  0  0
  1 20  1  0  0  0  0
  2 17  1  0  0  0  0
  3 14  2  0  0  0  0
  4 12  1  6  0  0  0
  4  9  1  0  0  0  0
  5 11  1  6  0  0  0
  5  7  1  0  0  0  0
  6 16  1  0  0  0  0
  7  2  1  1  0  0  0
  7  4  1  0  0  0  0
  8 12  1  0  0  0  0
  9  6  1  0  0  0  0
 10 20  2  0  0  0  0
 10 14  1  0  0  0  0
 13 19  1  0  0  0  0
 13 15  2  0  0  0  0
 14 18  1  0  0  0  0
 15 10  1  0  0  0  0
 17  6  2  0  0  0  0
 18  5  1  0  0  0  0
 18  8  1  0  0  0  0
 19  1  2  0  0  0  0
 20 11  1  0  0  0  0
 22 23  1  0  0  0  0
 22 21  1  0  0  0  0
 25 24  1  6  0  0  0
 25 22  1  0  0  0  0
 25 26  1  0  0  0  0
 26 27  1  6  0  0  0
 26 28  1  0  0  0  0
M  END
>  <MODEL>
8

>  <REMARK>
 VINA RESULT:      -9.0      3.441      5.992
  Name = 
  4 active torsions:
  status: ('A' for Active; 'I' for Inactive)
    1  A    between atoms: C_1  and  C_2
    2  A    between atoms: C_2  and  N_3
    3  A    between atoms: N_3  and  C_11
    4  A    between atoms: C_6  and  C_11
                            x       y       z     vdW  Elec       q    Type
                         _______ _______ _______ _____ _____    ______ ____

>  <TORSDO>
F 4

$$$$
=
 OpenBabel11052413283D

 28 31  0  0  1  0  0  0  0  0999 V2000
  189.4630  177.8570  139.8600 C   0  0  0  0  0  0  0  0  0  0  0  0
  185.0700  177.9720  142.8640 C   0  0  0  0  0  2  0  0  0  0  0  0
  190.9650  177.2330  144.3590 O   0  0  0  0  0  0  0  0  0  0  0  0
  186.0330  177.8560  145.1490 C   0  0  2  0  0  3  0  0  0  0  0  0
  187.5390  177.6080  143.1130 C   0  0  1  0  0  3  0  0  0  0  0  0
  183.6940  178.7750  144.7850 C   0  0  0  0  0  0  0  0  0  0  0  0
  186.3020  178.3000  143.7070 C   0  0  1  0  0  3  0  0  0  0  0  0
  188.4150  177.2630  145.4640 C   0  0  0  0  0  2  0  0  0  0  0  0
  184.8610  178.6450  145.7340 C   0  0  0  0  0  2  0  0  0  0  0  0
  190.2540  177.4600  142.1150 C   0  0  0  0  0  0  0  0  0  0  0  0
  187.9180  178.3310  141.8140 C   0  0  0  0  0  2  0  0  0  0  0  0
  187.2630  178.0890  146.0070 C   0  0  0  0  0  2  0  0  0  0  0  0
  191.7070  177.0660  140.2770 C   0  0  0  0  0  3  0  0  0  0  0  0
  190.0060  177.4250  143.5630 C   0  0  0  0  0  0  0  0  0  0  0  0
  191.4610  177.0810  141.6140 N   0  0  0  0  0  0  0  0  0  0  0  0
  182.5300  179.2940  145.2520 F   0  0  0  0  0  0  0  0  0  0  0  0
  183.8170  178.5430  143.4690 C   0  0  0  0  0  3  0  0  0  0  0  0
  188.6680  177.5950  144.0630 N   0  0  0  0  0  0  0  0  0  0  0  0
  190.7110  177.4480  139.3790 C   0  0  0  0  0  3  0  0  0  0  0  0
  189.2200  177.8440  141.2460 C   0  0  0  0  0  0  0  0  0  0  0  0
  188.3960  178.2770  138.8760 C   0  0  0  0  0  2  0  0  0  0  0  0
  188.8990  178.5120  137.5130 N   0  0  0  0  0  0  0  0  0  0  0  0
  189.0180  179.8520  137.3320 O   0  0  0  0  0  1  0  0  0  0  0  0
  186.5790  177.8250  137.1150 C   0  0  0  0  0  1  0  0  0  0  0  0
  187.9710  177.9530  136.5140 C   0  0  2  0  0  3  0  0  0  0  0  0
  188.3900  176.5680  136.0030 C   0  0  1  0  0  3  0  0  0  0  0  0
  189.8980  176.4520  135.8870 C   0  0  0  0  0  1  0  0  0  0  0  0
  187.8850  175.5500  136.8160 O   0  0  0  0  0  1  0  0  0  0  0  0
  1 20  1  0  0  0  0
  2 17  1  0  0  0  0
  4  9  1  1  0  0  0
  4 12  1  0  0  0  0
  5 11  1  6  0  0  0
  5  7  1  0  0  0  0
  5 18  1  0  0  0  0
  6 16  1  0  0  0  0
  6  9  1  0  0  0  0
  7  2  1  6  0  0  0
  7  4  1  0  0  0  0
  8 12  1  0  0  0  0
 10 14  1  0  0  0  0
 13 15  2  0  0  0  0
 14 18  1  0  0  0  0
 14  3  2  0  0  0  0
 15 10  1  0  0  0  0
 17  6  2  0  0  0  0
 18  8  1  0  0  0  0
 19  1  2  0  0  0  0
 19 13  1  0  0  0  0
 20 11  1  0  0  0  0
 20 10  2  0  0  0  0
 21  1  1  0  0  0  0
 22 21  1  0  0  0  0
 23 22  1  0  0  0  0
 25 24  1  1  0  0  0
 25 22  1  0  0  0  0
 26 27  1  1  0  0  0
 26 25  1  0  0  0  0
 26 28  1  0  0  0  0
M  END
>  <MODEL>
9

>  <REMARK>
 VINA RESULT:      -8.9      3.294      6.703
  Name = 
  4 active torsions:
  status: ('A' for Active; 'I' for Inactive)
    1  A    between atoms: C_1  and  C_2
    2  A    between atoms: C_2  and  N_3
    3  A    between atoms: N_3  and  C_11
    4  A    between atoms: C_6  and  C_11
                            x       y       z     vdW  Elec       q    Type
                         _______ _______ _______ _____ _____    ______ ____

>  <TORSDO>
F 4

$$$$
