=
 OpenBabel11052412353D

 30 35  0  0  1  0  0  0  0  0999 V2000
  188.5060  178.3330  141.2490 C   0  0  1  0  0  3  0  0  0  0  0  0
  189.4880  178.1120  137.5760 C   0  0  0  0  0  2  0  0  0  0  0  0
  186.2120  179.1750  139.7050 N   0  0  0  0  0  2  0  0  0  0  0  0
  187.4550  177.7330  142.2360 C   0  0  1  0  0  3  0  0  0  0  0  0
  189.8090  177.9280  141.6090 O   0  0  0  0  0  0  0  0  0  0  0  0
  187.0530  179.0260  146.5960 C   0  0  0  0  0  2  0  0  0  0  0  0
  189.3560  177.7710  143.9500 C   0  0  1  0  0  3  0  0  0  0  0  0
  184.9860  177.6130  143.0790 C   0  0  0  0  0  2  0  0  0  0  0  0
  184.0300  179.0120  140.7500 O   0  0  0  0  0  1  0  0  0  0  0  0
  190.1250  178.4930  142.8540 C   0  0  0  0  0  2  0  0  0  0  0  0
  187.8650  178.0230  143.6980 C   0  0  2  0  0  3  0  0  0  0  0  0
  188.5230  178.5660  136.4790 C   0  0  0  0  0  2  0  0  0  0  0  0
  185.4600  177.8140  144.5180 C   0  0  2  0  0  3  0  0  0  0  0  0
  185.5870  179.3470  146.3330 C   0  0  0  0  0  2  0  0  0  0  0  0
  189.2150  178.7950  138.9060 C   0  0  0  0  0  2  0  0  0  0  0  0
  186.8520  177.9270  139.3220 C   0  0  2  0  0  3  0  0  0  0  0  0
  187.0670  178.7110  136.9240 C   0  0  0  0  0  2  0  0  0  0  0  0
  188.3160  177.9150  139.7790 C   0  0  2  0  0  3  0  0  0  0  0  0
  185.8800  179.6070  142.0040 O   0  0  0  0  0  0  0  0  0  0  0  0
  185.4140  178.8880  140.8860 C   0  0  2  0  0  0  0  0  0  0  0  0
  185.9830  178.1980  142.0790 C   0  0  1  0  0  0  0  0  0  0  0  0
  185.3000  179.2170  144.9070 N   0  0  0  0  0  2  0  0  0  0  0  0
  187.3410  177.5910  146.1660 C   0  0  0  0  0  2  0  0  0  0  0  0
  186.6240  177.5780  137.8440 C   0  0  2  0  0  3  0  0  0  0  0  0
  185.1590  177.2700  137.6020 C   0  0  0  0  0  1  0  0  0  0  0  0
  186.9190  177.3430  144.7120 C   0  0  2  0  0  3  0  0  0  0  0  0
  189.7050  176.2850  143.9460 C   0  0  0  0  0  2  0  0  0  0  0  0
  191.1180  176.0830  144.4520 C   0  0  0  0  0  2  0  0  0  0  0  0
  191.2840  176.7890  145.7790 C   0  0  0  0  0  2  0  0  0  0  0  0
  192.0470  175.8950  146.7330 C   0  0  0  0  0  1  0  0  0  0  0  0
  1  5  1  1  0  0  0
  1  4  1  0  0  0  0
  2 15  1  0  0  0  0
  3 20  1  0  0  0  0
  4 11  1  0  0  0  0
  5 10  1  0  0  0  0
  8 13  1  0  0  0  0
  9 20  1  0  0  0  0
 10  7  1  0  0  0  0
 11  7  1  0  0  0  0
 11 26  1  0  0  0  0
 12 17  1  0  0  0  0
 12  2  1  0  0  0  0
 13 26  1  0  0  0  0
 13 22  1  0  0  0  0
 14  6  1  0  0  0  0
 15 18  1  0  0  0  0
 16  3  1  0  0  0  0
 16 18  1  0  0  0  0
 17 24  1  0  0  0  0
 18  1  1  0  0  0  0
 19 21  1  0  0  0  0
 20 19  1  0  0  0  0
 20 21  1  0  0  0  0
 21  4  1  0  0  0  0
 21  8  1  0  0  0  0
 22 14  1  0  0  0  0
 23  6  1  0  0  0  0
 24 16  1  0  0  0  0
 25 24  1  0  0  0  0
 26 23  1  0  0  0  0
 27  7  1  0  0  0  0
 27 28  1  0  0  0  0
 28 29  1  0  0  0  0
 29 30  1  0  0  0  0
M  END
>  <MODEL>
1

>  <REMARK>
 VINA RESULT:      -8.1      0.000      0.000
  Name = 
  3 active torsions:
  status: ('A' for Active; 'I' for Inactive)
    1  A    between atoms: C_6  and  C_8
    2  A    between atoms: C_6  and  C_21
    3  A    between atoms: C_9  and  C_21
                            x       y       z     vdW  Elec       q    Type
                         _______ _______ _______ _____ _____    ______ ____

>  <TORSDO>
F 3

$$$$
=
 OpenBabel11052412353D

 30 35  0  0  1  0  0  0  0  0999 V2000
  184.6490  178.7170  143.7230 C   0  0  1  0  0  3  0  0  0  0  0  0
  187.0630  177.6170  146.4560 C   0  0  0  0  0  2  0  0  0  0  0  0
  187.3010  178.7430  142.5740 N   0  0  0  0  0  2  0  0  0  0  0  0
  184.1810  178.2720  142.3020 C   0  0  1  0  0  3  0  0  0  0  0  0
  183.5840  178.6250  144.6460 O   0  0  0  0  0  0  0  0  0  0  0  0
  181.2640  180.6670  139.7340 C   0  0  0  0  0  2  0  0  0  0  0  0
  181.8650  179.0700  143.0460 C   0  0  1  0  0  3  0  0  0  0  0  0
  184.6840  178.0320  139.7510 C   0  0  0  0  0  2  0  0  0  0  0  0
  187.4850  178.5620  140.1630 O   0  0  0  0  0  1  0  0  0  0  0  0
  182.6000  179.5590  144.2850 C   0  0  0  0  0  2  0  0  0  0  0  0
  182.8880  179.0190  141.9050 C   0  0  2  0  0  3  0  0  0  0  0  0
  188.5730  177.5960  146.2060 C   0  0  0  0  0  2  0  0  0  0  0  0
  183.3490  178.6980  139.4170 C   0  0  2  0  0  3  0  0  0  0  0  0
  182.3050  180.6820  138.6220 C   0  0  0  0  0  2  0  0  0  0  0  0
  186.3400  178.5990  145.5500 C   0  0  0  0  0  2  0  0  0  0  0  0
  186.8980  177.5460  143.2940 C   0  0  2  0  0  3  0  0  0  0  0  0
  188.9800  177.6440  144.7320 C   0  0  0  0  0  2  0  0  0  0  0  0
  185.8000  177.8780  144.3110 C   0  0  2  0  0  3  0  0  0  0  0  0
  185.7430  179.7510  141.1120 O   0  0  0  0  0  0  0  0  0  0  0  0
  186.6500  178.6860  141.2750 C   0  0  2  0  0  0  0  0  0  0  0  0
  185.1850  178.4510  141.1330 C   0  0  1  0  0  0  0  0  0  0  0  0
  183.5590  180.1140  139.1090 N   0  0  0  0  0  2  0  0  0  0  0  0
  181.0140  179.2280  140.1730 C   0  0  0  0  0  2  0  0  0  0  0  0
  188.0960  176.7650  143.8550 C   0  0  2  0  0  3  0  0  0  0  0  0
  188.9190  176.1890  142.7190 C   0  0  0  0  0  1  0  0  0  0  0  0
  182.3210  178.5210  140.5570 C   0  0  2  0  0  3  0  0  0  0  0  0
  181.2250  177.7110  143.3160 C   0  0  0  0  0  2  0  0  0  0  0  0
  180.0020  177.8800  144.1930 C   0  0  0  0  0  2  0  0  0  0  0  0
  179.1390  178.9950  143.6460 C   0  0  0  0  0  2  0  0  0  0  0  0
  178.9310  180.0430  144.7180 C   0  0  0  0  0  1  0  0  0  0  0  0
  1 18  1  0  0  0  0
  1  5  1  1  0  0  0
  3 16  1  0  0  0  0
  4  1  1  0  0  0  0
  6 23  1  0  0  0  0
  7 27  1  0  0  0  0
  7 10  1  0  0  0  0
  8 21  1  0  0  0  0
  9 20  1  0  0  0  0
 10  5  1  0  0  0  0
 11  4  1  0  0  0  0
 11  7  1  0  0  0  0
 12  2  1  0  0  0  0
 13  8  1  0  0  0  0
 13 26  1  0  0  0  0
 14 22  1  0  0  0  0
 14  6  1  0  0  0  0
 15  2  1  0  0  0  0
 16 24  1  0  0  0  0
 16 18  1  0  0  0  0
 17 12  1  0  0  0  0
 18 15  1  0  0  0  0
 19 21  1  0  0  0  0
 19 20  1  0  0  0  0
 20  3  1  0  0  0  0
 21 20  1  0  0  0  0
 21  4  1  0  0  0  0
 22 13  1  0  0  0  0
 23 26  1  0  0  0  0
 24 17  1  0  0  0  0
 25 24  1  0  0  0  0
 26 11  1  0  0  0  0
 27 28  1  0  0  0  0
 29 28  1  0  0  0  0
 29 30  1  0  0  0  0
M  END
>  <MODEL>
2

>  <REMARK>
 VINA RESULT:      -8.0      3.079      7.260
  Name = 
  3 active torsions:
  status: ('A' for Active; 'I' for Inactive)
    1  A    between atoms: C_6  and  C_8
    2  A    between atoms: C_6  and  C_21
    3  A    between atoms: C_9  and  C_21
                            x       y       z     vdW  Elec       q    Type
                         _______ _______ _______ _____ _____    ______ ____

>  <TORSDO>
F 3

$$$$
=
 OpenBabel11052412353D

 30 35  0  0  1  0  0  0  0  0999 V2000
  186.3950  178.4620  142.4000 C   0  0  1  0  0  3  0  0  0  0  0  0
  184.4470  178.8180  139.1470 C   0  0  0  0  0  2  0  0  0  0  0  0
  183.8160  179.5810  143.0730 N   0  0  0  0  0  2  0  0  0  0  0  0
  186.2880  177.7300  143.7750 C   0  0  1  0  0  3  0  0  0  0  0  0
  187.5030  177.9820  141.6690 O   0  0  0  0  0  0  0  0  0  0  0  0
  189.2620  178.3110  147.1890 C   0  0  0  0  0  2  0  0  0  0  0  0
  188.8270  177.4580  143.5880 C   0  0  1  0  0  3  0  0  0  0  0  0
  185.1550  177.5180  146.1180 C   0  0  0  0  0  2  0  0  0  0  0  0
  183.0200  179.2890  145.3440 O   0  0  0  0  0  1  0  0  0  0  0  0
  188.6760  178.3340  142.3540 C   0  0  0  0  0  2  0  0  0  0  0  0
  187.6450  177.7730  144.5130 C   0  0  2  0  0  3  0  0  0  0  0  0
  183.0580  179.4590  139.1320 C   0  0  0  0  0  2  0  0  0  0  0  0
  186.5290  177.4760  146.7870 C   0  0  2  0  0  3  0  0  0  0  0  0
  188.0980  178.6950  148.0950 C   0  0  0  0  0  2  0  0  0  0  0  0
  185.2860  179.2830  140.3250 C   0  0  0  0  0  2  0  0  0  0  0  0
  183.8300  178.4000  142.2250 C   0  0  2  0  0  3  0  0  0  0  0  0
  182.3800  179.5550  140.5000 C   0  0  0  0  0  2  0  0  0  0  0  0
  185.1680  178.2890  141.4840 C   0  0  2  0  0  3  0  0  0  0  0  0
  185.2690  179.6430  144.9350 O   0  0  0  0  0  0  0  0  0  0  0  0
  184.0620  179.1210  144.4300 C   0  0  2  0  0  0  0  0  0  0  0  0
  185.2140  178.2380  144.7710 C   0  0  1  0  0  0  0  0  0  0  0  0
  186.8720  178.8010  147.3080 N   0  0  0  0  0  2  0  0  0  0  0  0
  188.9740  176.9590  146.5440 C   0  0  0  0  0  2  0  0  0  0  0  0
  182.5800  178.2970  141.3380 C   0  0  2  0  0  3  0  0  0  0  0  0
  181.3520  178.0570  142.1950 C   0  0  0  0  0  1  0  0  0  0  0  0
  187.6190  176.9560  145.8230 C   0  0  2  0  0  3  0  0  0  0  0  0
  188.8760  175.9860  143.1870 C   0  0  0  0  0  2  0  0  0  0  0  0
  190.2920  175.5990  142.8170 C   0  0  0  0  0  2  0  0  0  0  0  0
  191.2610  176.2400  143.7860 C   0  0  0  0  0  2  0  0  0  0  0  0
  192.0220  175.1600  144.5240 C   0  0  0  0  0  1  0  0  0  0  0  0
  1  5  1  6  0  0  0
  1  4  1  0  0  0  0
  2 15  1  0  0  0  0
  3 20  1  0  0  0  0
  4 11  1  0  0  0  0
  4 21  1  0  0  0  0
  5 10  1  0  0  0  0
  6 14  1  0  0  0  0
  7 11  1  0  0  0  0
  8 13  1  0  0  0  0
 10  7  1  0  0  0  0
 11 26  1  0  0  0  0
 12  2  1  0  0  0  0
 12 17  1  0  0  0  0
 13 22  1  0  0  0  0
 15 18  1  0  0  0  0
 16  3  1  0  0  0  0
 17 24  1  0  0  0  0
 18 16  1  0  0  0  0
 18  1  1  0  0  0  0
 20 21  1  0  0  0  0
 20 19  1  0  0  0  0
 20  9  1  0  0  0  0
 21 19  1  0  0  0  0
 21  8  1  0  0  0  0
 22 14  1  0  0  0  0
 23  6  1  0  0  0  0
 24 25  1  0  0  0  0
 24 16  1  0  0  0  0
 26 23  1  0  0  0  0
 26 13  1  0  0  0  0
 27  7  1  0  0  0  0
 28 27  1  0  0  0  0
 28 29  1  0  0  0  0
 29 30  1  0  0  0  0
M  END
>  <MODEL>
3

>  <REMARK>
 VINA RESULT:      -7.8      2.406      3.483
  Name = 
  3 active torsions:
  status: ('A' for Active; 'I' for Inactive)
    1  A    between atoms: C_6  and  C_8
    2  A    between atoms: C_6  and  C_21
    3  A    between atoms: C_9  and  C_21
                            x       y       z     vdW  Elec       q    Type
                         _______ _______ _______ _____ _____    ______ ____

>  <TORSDO>
F 3

$$$$
=
 OpenBabel11052412353D

 30 35  0  0  1  0  0  0  0  0999 V2000
  189.9060  177.9390  142.5620 C   0  0  1  0  0  3  0  0  0  0  0  0
  192.8230  176.9180  140.3360 C   0  0  0  0  0  2  0  0  0  0  0  0
  189.0490  178.2950  139.8250 N   0  0  0  0  0  2  0  0  0  0  0  0
  188.4220  177.5370  142.8350 C   0  0  1  0  0  3  0  0  0  0  0  0
  190.7040  177.6880  143.7000 O   0  0  0  0  0  0  0  0  0  0  0  0
  185.6800  179.7850  145.7110 C   0  0  0  0  0  2  0  0  0  0  0  0
  188.9540  178.0570  145.2850 C   0  0  1  0  0  3  0  0  0  0  0  0
  185.9310  177.5030  142.0550 C   0  0  0  0  0  2  0  0  0  0  0  0
  186.6660  178.2790  139.3800 O   0  0  0  0  0  1  0  0  0  0  0  0
  190.2870  178.5400  144.7340 C   0  0  0  0  0  2  0  0  0  0  0  0
  187.9270  178.1760  144.1530 C   0  0  2  0  0  3  0  0  0  0  0  0
  192.7340  177.0600  138.8150 C   0  0  0  0  0  2  0  0  0  0  0  0
  185.4910  178.0530  143.4110 C   0  0  2  0  0  3  0  0  0  0  0  0
  184.6880  179.9690  144.5700 C   0  0  0  0  0  2  0  0  0  0  0  0
  191.8940  177.8770  141.0620 C   0  0  0  0  0  2  0  0  0  0  0  0
  189.6620  177.0230  140.1720 C   0  0  2  0  0  3  0  0  0  0  0  0
  191.3170  177.2380  138.2680 C   0  0  0  0  0  2  0  0  0  0  0  0
  190.5710  177.1830  141.3960 C   0  0  2  0  0  3  0  0  0  0  0  0
  187.4810  179.2320  141.3230 O   0  0  0  0  0  0  0  0  0  0  0  0
  187.6870  178.2530  140.3320 C   0  0  2  0  0  0  0  0  0  0  0  0
  187.3780  177.8840  141.7430 C   0  0  1  0  0  0  0  0  0  0  0  0
  185.2780  179.4990  143.3190 N   0  0  0  0  0  2  0  0  0  0  0  0
  186.0180  178.3050  145.8530 C   0  0  0  0  0  2  0  0  0  0  0  0
  190.3080  176.3300  138.9620 C   0  0  2  0  0  3  0  0  0  0  0  0
  189.2390  175.9080  137.9730 C   0  0  0  0  0  1  0  0  0  0  0  0
  186.5040  177.7070  144.5250 C   0  0  2  0  0  3  0  0  0  0  0  0
  189.0860  176.6280  145.8050 C   0  0  0  0  0  2  0  0  0  0  0  0
  189.3980  176.6440  147.2860 C   0  0  0  0  0  2  0  0  0  0  0  0
  189.0720  178.0060  147.8570 C   0  0  0  0  0  2  0  0  0  0  0  0
  187.9310  177.8780  148.8430 C   0  0  0  0  0  1  0  0  0  0  0  0
  1  4  1  0  0  0  0
  1  5  1  1  0  0  0
  2 15  1  0  0  0  0
  3 16  1  0  0  0  0
  3 20  1  0  0  0  0
  4 11  1  0  0  0  0
  5 10  1  0  0  0  0
  6 23  1  0  0  0  0
  7 27  1  0  0  0  0
  8 13  1  0  0  0  0
  9 20  1  0  0  0  0
 10  7  1  0  0  0  0
 11 26  1  0  0  0  0
 11  7  1  0  0  0  0
 12  2  1  0  0  0  0
 13 26  1  0  0  0  0
 14  6  1  0  0  0  0
 15 18  1  0  0  0  0
 16 18  1  0  0  0  0
 17 12  1  0  0  0  0
 17 24  1  0  0  0  0
 18  1  1  0  0  0  0
 19 21  1  0  0  0  0
 20 19  1  0  0  0  0
 20 21  1  0  0  0  0
 21  8  1  0  0  0  0
 21  4  1  0  0  0  0
 22 13  1  0  0  0  0
 22 14  1  0  0  0  0
 24 16  1  0  0  0  0
 25 24  1  0  0  0  0
 26 23  1  0  0  0  0
 27 28  1  0  0  0  0
 28 29  1  0  0  0  0
 29 30  1  0  0  0  0
M  END
>  <MODEL>
4

>  <REMARK>
 VINA RESULT:      -7.2      2.043      2.864
  Name = 
  3 active torsions:
  status: ('A' for Active; 'I' for Inactive)
    1  A    between atoms: C_6  and  C_8
    2  A    between atoms: C_6  and  C_21
    3  A    between atoms: C_9  and  C_21
                            x       y       z     vdW  Elec       q    Type
                         _______ _______ _______ _____ _____    ______ ____

>  <TORSDO>
F 3

$$$$
=
 OpenBabel11052412353D

 30 35  0  0  1  0  0  0  0  0999 V2000
  183.2620  178.8680  143.1700 C   0  0  1  0  0  3  0  0  0  0  0  0
  185.1120  178.2400  146.4400 C   0  0  0  0  0  2  0  0  0  0  0  0
  186.0890  179.0250  142.5890 N   0  0  0  0  0  2  0  0  0  0  0  0
  183.1360  178.2560  141.7400 C   0  0  1  0  0  3  0  0  0  0  0  0
  182.0350  178.7670  143.8610 O   0  0  0  0  0  0  0  0  0  0  0  0
  180.6730  180.1390  138.3890 C   0  0  0  0  0  2  0  0  0  0  0  0
  180.6670  178.9090  141.9070 C   0  0  1  0  0  3  0  0  0  0  0  0
  184.1830  177.8310  139.3860 C   0  0  0  0  0  2  0  0  0  0  0  0
  186.7900  178.6420  140.3000 O   0  0  0  0  0  1  0  0  0  0  0  0
  181.0880  179.5730  143.2090 C   0  0  0  0  0  2  0  0  0  0  0  0
  181.9080  178.8460  141.0100 C   0  0  2  0  0  3  0  0  0  0  0  0
  186.6380  178.3310  146.5050 C   0  0  0  0  0  2  0  0  0  0  0  0
  182.9060  178.3420  138.7180 C   0  0  2  0  0  3  0  0  0  0  0  0
  181.9220  180.1440  137.5170 C   0  0  0  0  0  2  0  0  0  0  0  0
  184.5310  179.0680  145.3050 C   0  0  0  0  0  2  0  0  0  0  0  0
  185.6250  177.8680  143.3370 C   0  0  2  0  0  3  0  0  0  0  0  0
  187.3440  178.2810  145.1490 C   0  0  0  0  0  2  0  0  0  0  0  0
  184.3160  178.1920  144.0670 C   0  0  2  0  0  3  0  0  0  0  0  0
  184.8100  179.7540  140.7400 O   0  0  0  0  0  0  0  0  0  0  0  0
  185.7330  178.7920  141.1990 C   0  0  2  0  0  0  0  0  0  0  0  0
  184.3500  178.4160  140.7870 C   0  0  1  0  0  0  0  0  0  0  0  0
  183.0800  179.7370  138.3080 N   0  0  0  0  0  2  0  0  0  0  0  0
  180.4340  178.7290  138.9200 C   0  0  0  0  0  2  0  0  0  0  0  0
  186.7270  177.2500  144.2100 C   0  0  2  0  0  3  0  0  0  0  0  0
  187.8090  176.6490  143.3340 C   0  0  0  0  0  1  0  0  0  0  0  0
  181.6750  178.1790  139.6360 C   0  0  2  0  0  3  0  0  0  0  0  0
  180.0770  177.5290  142.1850 C   0  0  0  0  0  2  0  0  0  0  0  0
  179.0180  177.2010  141.1530 C   0  0  0  0  0  2  0  0  0  0  0  0
  178.9390  175.7020  140.9700 C   0  0  0  0  0  2  0  0  0  0  0  0
  180.1560  175.2230  140.2080 C   0  0  0  0  0  1  0  0  0  0  0  0
  1  5  1  1  0  0  0
  1 18  1  0  0  0  0
  2 12  1  0  0  0  0
  3 16  1  0  0  0  0
  4  1  1  0  0  0  0
  6 23  1  0  0  0  0
  7 27  1  0  0  0  0
  7 10  1  0  0  0  0
  8 21  1  0  0  0  0
  9 20  1  0  0  0  0
 10  5  1  0  0  0  0
 11  4  1  0  0  0  0
 11  7  1  0  0  0  0
 13  8  1  0  0  0  0
 13 26  1  0  0  0  0
 14 22  1  0  0  0  0
 14  6  1  0  0  0  0
 15  2  1  0  0  0  0
 16 18  1  0  0  0  0
 16 24  1  0  0  0  0
 17 12  1  0  0  0  0
 18 15  1  0  0  0  0
 19 21  1  0  0  0  0
 19 20  1  0  0  0  0
 20  3  1  0  0  0  0
 21 20  1  0  0  0  0
 21  4  1  0  0  0  0
 22 13  1  0  0  0  0
 23 26  1  0  0  0  0
 24 17  1  0  0  0  0
 25 24  1  0  0  0  0
 26 11  1  0  0  0  0
 28 27  1  0  0  0  0
 29 28  1  0  0  0  0
 30 29  1  0  0  0  0
M  END
>  <MODEL>
5

>  <REMARK>
 VINA RESULT:      -7.1      3.462      7.939
  Name = 
  3 active torsions:
  status: ('A' for Active; 'I' for Inactive)
    1  A    between atoms: C_6  and  C_8
    2  A    between atoms: C_6  and  C_21
    3  A    between atoms: C_9  and  C_21
                            x       y       z     vdW  Elec       q    Type
                         _______ _______ _______ _____ _____    ______ ____

>  <TORSDO>
F 3

$$$$
=
 OpenBabel11052412353D

 30 35  0  0  1  0  0  0  0  0999 V2000
  185.2390  178.8230  141.3050 C   0  0  1  0  0  3  0  0  0  0  0  0
  183.7180  178.7720  144.7960 C   0  0  0  0  0  2  0  0  0  0  0  0
  187.4290  178.9510  143.1860 N   0  0  0  0  0  2  0  0  0  0  0  0
  186.2190  177.9860  140.4230 C   0  0  1  0  0  3  0  0  0  0  0  0
  183.9400  178.8050  140.7530 O   0  0  0  0  0  0  0  0  0  0  0  0
  187.5750  179.2480  136.2510 C   0  0  0  0  0  2  0  0  0  0  0  0
  184.6640  178.6000  138.4850 C   0  0  1  0  0  3  0  0  0  0  0  0
  188.6580  177.2130  139.9010 C   0  0  0  0  0  2  0  0  0  0  0  0
  189.6120  178.2220  142.4240 O   0  0  0  0  0  1  0  0  0  0  0  0
  183.9700  179.4730  139.5190 C   0  0  0  0  0  2  0  0  0  0  0  0
  186.1160  178.4220  138.9440 C   0  0  2  0  0  3  0  0  0  0  0  0
  184.6030  178.9070  146.0370 C   0  0  0  0  0  2  0  0  0  0  0  0
  188.4670  177.5800  138.4300 C   0  0  2  0  0  3  0  0  0  0  0  0
  189.0200  179.1420  136.7230 C   0  0  0  0  0  2  0  0  0  0  0  0
  184.3530  179.3920  143.5620 C   0  0  0  0  0  2  0  0  0  0  0  0
  186.4280  177.9180  143.3980 C   0  0  2  0  0  3  0  0  0  0  0  0
  186.0920  178.6570  145.7950 C   0  0  0  0  0  2  0  0  0  0  0  0
  185.0960  178.3240  142.7560 C   0  0  2  0  0  3  0  0  0  0  0  0
  188.1910  179.3430  140.9850 O   0  0  0  0  0  0  0  0  0  0  0  0
  188.2810  178.4890  142.1020 C   0  0  2  0  0  0  0  0  0  0  0  0
  187.7230  178.0200  140.8010 C   0  0  1  0  0  0  0  0  0  0  0  0
  189.0530  178.8950  138.1620 N   0  0  0  0  0  2  0  0  0  0  0  0
  186.8520  177.9370  136.5410 C   0  0  0  0  0  2  0  0  0  0  0  0
  186.3390  177.4750  144.8660 C   0  0  2  0  0  3  0  0  0  0  0  0
  187.6170  176.7660  145.2730 C   0  0  0  0  0  1  0  0  0  0  0  0
  186.9790  177.5370  138.0170 C   0  0  2  0  0  3  0  0  0  0  0  0
  183.9310  177.2690  138.3420 C   0  0  0  0  0  2  0  0  0  0  0  0
  183.2320  177.2040  137.0000 C   0  0  0  0  0  2  0  0  0  0  0  0
  183.6780  175.9630  136.2590 C   0  0  0  0  0  2  0  0  0  0  0  0
  184.3260  175.0010  137.2320 C   0  0  0  0  0  1  0  0  0  0  0  0
  1  5  1  6  0  0  0
  1 18  1  0  0  0  0
  2 12  1  0  0  0  0
  3 16  1  0  0  0  0
  4 21  1  0  0  0  0
  4  1  1  0  0  0  0
  6 23  1  0  0  0  0
  6 14  1  0  0  0  0
  7 11  1  0  0  0  0
  7 10  1  0  0  0  0
  8 21  1  0  0  0  0
 10  5  1  0  0  0  0
 11  4  1  0  0  0  0
 13  8  1  0  0  0  0
 14 22  1  0  0  0  0
 15  2  1  0  0  0  0
 16 24  1  0  0  0  0
 17 12  1  0  0  0  0
 18 16  1  0  0  0  0
 18 15  1  0  0  0  0
 19 20  1  0  0  0  0
 20  9  1  0  0  0  0
 20  3  1  0  0  0  0
 21 19  1  0  0  0  0
 21 20  1  0  0  0  0
 22 13  1  0  0  0  0
 23 26  1  0  0  0  0
 24 25  1  0  0  0  0
 24 17  1  0  0  0  0
 26 13  1  0  0  0  0
 26 11  1  0  0  0  0
 27  7  1  0  0  0  0
 28 27  1  0  0  0  0
 29 28  1  0  0  0  0
 29 30  1  0  0  0  0
M  END
>  <MODEL>
6

>  <REMARK>
 VINA RESULT:      -6.9      1.927      7.487
  Name = 
  3 active torsions:
  status: ('A' for Active; 'I' for Inactive)
    1  A    between atoms: C_6  and  C_8
    2  A    between atoms: C_6  and  C_21
    3  A    between atoms: C_9  and  C_21
                            x       y       z     vdW  Elec       q    Type
                         _______ _______ _______ _____ _____    ______ ____

>  <TORSDO>
F 3

$$$$
=
 OpenBabel11052412353D

 30 35  0  0  1  0  0  0  0  0999 V2000
  188.7430  177.1140  143.4410 C   0  0  1  0  0  3  0  0  0  0  0  0
  191.7610  176.3490  145.6340 C   0  0  0  0  0  2  0  0  0  0  0  0
  187.7840  176.9000  146.1590 N   0  0  0  0  0  2  0  0  0  0  0  0
  187.6390  178.2070  143.2780 C   0  0  1  0  0  3  0  0  0  0  0  0
  189.5780  177.0810  142.3030 O   0  0  0  0  0  0  0  0  0  0  0  0
  184.1920  177.8950  140.3010 C   0  0  0  0  0  2  0  0  0  0  0  0
  187.8870  177.7810  140.7660 C   0  0  1  0  0  3  0  0  0  0  0  0
  185.4610  179.3400  144.1660 C   0  0  0  0  0  2  0  0  0  0  0  0
  185.6960  178.0050  146.7070 O   0  0  0  0  0  1  0  0  0  0  0  0
  188.8160  176.6580  141.2020 C   0  0  0  0  0  2  0  0  0  0  0  0
  186.9150  178.0390  141.9220 C   0  0  2  0  0  3  0  0  0  0  0  0
  191.5940  176.0920  147.1330 C   0  0  0  0  0  2  0  0  0  0  0  0
  184.8280  179.2290  142.7790 C   0  0  2  0  0  3  0  0  0  0  0  0
  183.2180  178.0800  141.4580 C   0  0  0  0  0  2  0  0  0  0  0  0
  190.4950  176.0420  144.8500 C   0  0  0  0  0  2  0  0  0  0  0  0
  188.9370  177.7530  145.9240 C   0  0  2  0  0  3  0  0  0  0  0  0
  190.2590  176.5540  147.7200 C   0  0  0  0  0  2  0  0  0  0  0  0
  189.6740  177.3190  144.6510 C   0  0  2  0  0  3  0  0  0  0  0  0
  185.9780  177.0090  144.6390 O   0  0  0  0  0  0  0  0  0  0  0  0
  186.6170  177.6480  145.7200 C   0  0  2  0  0  0  0  0  0  0  0  0
  186.5420  178.2790  144.3710 C   0  0  1  0  0  0  0  0  0  0  0  0
  183.9450  178.0620  142.7240 N   0  0  0  0  0  2  0  0  0  0  0  0
  185.2020  179.0380  140.3030 C   0  0  0  0  0  2  0  0  0  0  0  0
  189.8200  177.9070  147.1720 C   0  0  2  0  0  3  0  0  0  0  0  0
  189.0730  178.6730  148.2470 C   0  0  0  0  0  1  0  0  0  0  0  0
  185.8970  179.1730  141.6650 C   0  0  2  0  0  3  0  0  0  0  0  0
  188.6970  179.0210  140.3970 C   0  0  0  0  0  2  0  0  0  0  0  0
  189.0390  178.9960  138.9220 C   0  0  0  0  0  2  0  0  0  0  0  0
  188.0770  178.0810  138.1970 C   0  0  0  0  0  2  0  0  0  0  0  0
  187.6360  178.7360  136.9050 C   0  0  0  0  0  1  0  0  0  0  0  0
  1  5  1  6  0  0  0
  1 18  1  0  0  0  0
  2 12  1  0  0  0  0
  4  1  1  0  0  0  0
  4 21  1  0  0  0  0
  6 23  1  0  0  0  0
  6 14  1  0  0  0  0
  7 10  1  0  0  0  0
  7 11  1  0  0  0  0
  8 21  1  0  0  0  0
 10  5  1  0  0  0  0
 11  4  1  0  0  0  0
 12 17  1  0  0  0  0
 13  8  1  0  0  0  0
 14 22  1  0  0  0  0
 15  2  1  0  0  0  0
 16  3  1  0  0  0  0
 16 24  1  0  0  0  0
 18 15  1  0  0  0  0
 18 16  1  0  0  0  0
 19 20  1  0  0  0  0
 20  3  1  0  0  0  0
 20  9  1  0  0  0  0
 21 19  1  0  0  0  0
 21 20  1  0  0  0  0
 22 13  1  0  0  0  0
 23 26  1  0  0  0  0
 24 17  1  0  0  0  0
 24 25  1  0  0  0  0
 26 11  1  0  0  0  0
 26 13  1  0  0  0  0
 27  7  1  0  0  0  0
 28 27  1  0  0  0  0
 29 28  1  0  0  0  0
 30 29  1  0  0  0  0
M  END
>  <MODEL>
7

>  <REMARK>
 VINA RESULT:      -6.7      1.906      6.476
  Name = 
  3 active torsions:
  status: ('A' for Active; 'I' for Inactive)
    1  A    between atoms: C_6  and  C_8
    2  A    between atoms: C_6  and  C_21
    3  A    between atoms: C_9  and  C_21
                            x       y       z     vdW  Elec       q    Type
                         _______ _______ _______ _____ _____    ______ ____

>  <TORSDO>
F 3

$$$$
=
 OpenBabel11052412353D

 30 35  0  0  1  0  0  0  0  0999 V2000
  185.1170  177.9890  137.9260 C   0  0  1  0  0  3  0  0  0  0  0  0
  188.7410  178.3010  136.7990 C   0  0  0  0  0  2  0  0  0  0  0  0
  185.3750  176.4830  135.4720 N   0  0  0  0  0  2  0  0  0  0  0  0
  184.0920  176.8850  138.3400 C   0  0  1  0  0  3  0  0  0  0  0  0
  185.3970  178.8370  139.0190 O   0  0  0  0  0  0  0  0  0  0  0  0
  179.7070  177.7320  139.2830 C   0  0  0  0  0  2  0  0  0  0  0  0
  183.2490  178.6040  140.0400 C   0  0  1  0  0  3  0  0  0  0  0  0
  182.5340  174.9050  137.6550 C   0  0  0  0  0  2  0  0  0  0  0  0
  183.7560  174.7280  135.0530 O   0  0  0  0  0  1  0  0  0  0  0  0
  184.2290  179.5410  139.3490 C   0  0  0  0  0  2  0  0  0  0  0  0
  182.8620  177.5250  139.0220 C   0  0  2  0  0  3  0  0  0  0  0  0
  189.2070  177.6830  135.4790 C   0  0  0  0  0  2  0  0  0  0  0  0
  181.3750  175.5420  138.4220 C   0  0  2  0  0  3  0  0  0  0  0  0
  179.3140  176.7130  138.2220 C   0  0  0  0  0  2  0  0  0  0  0  0
  187.2530  178.6060  136.8020 C   0  0  0  0  0  2  0  0  0  0  0  0
  186.3580  176.2340  136.5140 C   0  0  2  0  0  3  0  0  0  0  0  0
  188.2590  176.6360  134.8910 C   0  0  0  0  0  2  0  0  0  0  0  0
  186.4760  177.4510  137.4400 C   0  0  2  0  0  3  0  0  0  0  0  0
  183.1050  176.6870  136.0970 O   0  0  0  0  0  0  0  0  0  0  0  0
  184.1630  175.7850  135.8690 C   0  0  2  0  0  0  0  0  0  0  0  0
  183.5570  175.9550  137.2210 C   0  0  1  0  0  0  0  0  0  0  0  0
  180.5030  176.2690  137.4980 N   0  0  0  0  0  2  0  0  0  0  0  0
  180.6710  177.0860  140.2720 C   0  0  0  0  0  2  0  0  0  0  0  0
  187.6880  175.7050  135.9550 C   0  0  2  0  0  3  0  0  0  0  0  0
  187.4910  174.3210  135.3680 C   0  0  0  0  0  1  0  0  0  0  0  0
  181.8770  176.4620  139.5570 C   0  0  2  0  0  3  0  0  0  0  0  0
  183.8810  178.0170  141.2990 C   0  0  0  0  0  2  0  0  0  0  0  0
  183.3330  178.7150  142.5260 C   0  0  0  0  0  2  0  0  0  0  0  0
  184.3810  178.7170  143.6170 C   0  0  0  0  0  2  0  0  0  0  0  0
  183.7110  178.9160  144.9590 C   0  0  0  0  0  1  0  0  0  0  0  0
  1  4  1  0  0  0  0
  1  5  1  1  0  0  0
  2 15  1  0  0  0  0
  3 20  1  0  0  0  0
  3 16  1  0  0  0  0
  4 11  1  0  0  0  0
  5 10  1  0  0  0  0
  6 23  1  0  0  0  0
  7 27  1  0  0  0  0
  8 13  1  0  0  0  0
  9 20  1  0  0  0  0
 10  7  1  0  0  0  0
 11 26  1  0  0  0  0
 11  7  1  0  0  0  0
 12  2  1  0  0  0  0
 13 26  1  0  0  0  0
 14  6  1  0  0  0  0
 15 18  1  0  0  0  0
 16 18  1  0  0  0  0
 17 12  1  0  0  0  0
 17 24  1  0  0  0  0
 18  1  1  0  0  0  0
 19 21  1  0  0  0  0
 20 19  1  0  0  0  0
 20 21  1  0  0  0  0
 21  8  1  0  0  0  0
 21  4  1  0  0  0  0
 22 14  1  0  0  0  0
 22 13  1  0  0  0  0
 24 16  1  0  0  0  0
 25 24  1  0  0  0  0
 26 23  1  0  0  0  0
 27 28  1  0  0  0  0
 28 29  1  0  0  0  0
 29 30  1  0  0  0  0
M  END
>  <MODEL>
8

>  <REMARK>
 VINA RESULT:      -6.2      4.306      6.552
  Name = 
  3 active torsions:
  status: ('A' for Active; 'I' for Inactive)
    1  A    between atoms: C_6  and  C_8
    2  A    between atoms: C_6  and  C_21
    3  A    between atoms: C_9  and  C_21
                            x       y       z     vdW  Elec       q    Type
                         _______ _______ _______ _____ _____    ______ ____

>  <TORSDO>
F 3

$$$$
=
 OpenBabel11052412353D

 30 35  0  0  1  0  0  0  0  0999 V2000
  185.8580  176.2950  136.5880 C   0  0  1  0  0  3  0  0  0  0  0  0
  182.5140  177.7490  137.6850 C   0  0  0  0  0  2  0  0  0  0  0  0
  186.4240  178.7480  138.0090 N   0  0  0  0  0  2  0  0  0  0  0  0
  187.1930  175.7800  137.2140 C   0  0  1  0  0  3  0  0  0  0  0  0
  185.1740  175.2410  135.9450 O   0  0  0  0  0  0  0  0  0  0  0  0
  190.7980  174.4520  134.7480 C   0  0  0  0  0  2  0  0  0  0  0  0
  187.1450  174.0280  135.3480 C   0  0  1  0  0  3  0  0  0  0  0  0
  189.4540  176.3020  138.4100 C   0  0  0  0  0  2  0  0  0  0  0  0
  188.6310  179.0020  138.9810 O   0  0  0  0  0  1  0  0  0  0  0  0
  185.9410  174.8130  134.8500 C   0  0  0  0  0  2  0  0  0  0  0  0
  188.0110  174.9950  136.1630 C   0  0  2  0  0  3  0  0  0  0  0  0
  182.4440  179.1000  138.4010 C   0  0  0  0  0  2  0  0  0  0  0  0
  190.2000  175.4390  137.3920 C   0  0  2  0  0  3  0  0  0  0  0  0
  191.6480  175.4640  135.5050 C   0  0  0  0  0  2  0  0  0  0  0  0
  183.7580  177.6140  136.8230 C   0  0  0  0  0  2  0  0  0  0  0  0
  185.5300  177.7970  138.6490 C   0  0  2  0  0  3  0  0  0  0  0  0
  183.7730  179.5900  138.9790 C   0  0  0  0  0  2  0  0  0  0  0  0
  184.8650  176.8980  137.6000 C   0  0  2  0  0  3  0  0  0  0  0  0
  188.3700  177.9230  136.9520 O   0  0  0  0  0  0  0  0  0  0  0  0
  187.7730  178.2360  138.1890 C   0  0  2  0  0  0  0  0  0  0  0  0
  188.1440  176.8370  137.8320 C   0  0  1  0  0  0  0  0  0  0  0  0
  190.7960  176.2880  136.3580 N   0  0  0  0  0  2  0  0  0  0  0  0
  190.0800  173.5480  135.7450 C   0  0  0  0  0  2  0  0  0  0  0  0
  184.5670  178.4690  139.6400 C   0  0  2  0  0  3  0  0  0  0  0  0
  185.3400  179.0230  140.8220 C   0  0  0  0  0  1  0  0  0  0  0  0
  189.2820  174.3630  136.7710 C   0  0  2  0  0  3  0  0  0  0  0  0
  186.6860  172.8250  136.1680 C   0  0  0  0  0  2  0  0  0  0  0  0
  185.9350  171.8520  135.2840 C   0  0  0  0  0  2  0  0  0  0  0  0
  184.5480  171.6290  135.8430 C   0  0  0  0  0  2  0  0  0  0  0  0
  184.4540  172.2500  137.2200 C   0  0  0  0  0  1  0  0  0  0  0  0
  1  5  1  1  0  0  0
  1  4  1  0  0  0  0
  1 18  1  0  0  0  0
  2 12  1  0  0  0  0
  3 20  1  0  0  0  0
  3 16  1  0  0  0  0
  4 21  1  0  0  0  0
  6 14  1  0  0  0  0
  6 23  1  0  0  0  0
  7 11  1  0  0  0  0
  7 27  1  0  0  0  0
 10  7  1  0  0  0  0
 10  5  1  0  0  0  0
 11 26  1  0  0  0  0
 11  4  1  0  0  0  0
 12 17  1  0  0  0  0
 13  8  1  0  0  0  0
 14 22  1  0  0  0  0
 15 18  1  0  0  0  0
 15  2  1  0  0  0  0
 16 24  1  0  0  0  0
 17 24  1  0  0  0  0
 18 16  1  0  0  0  0
 19 21  1  0  0  0  0
 19 20  1  0  0  0  0
 20  9  1  0  0  0  0
 21 20  1  0  0  0  0
 21  8  1  0  0  0  0
 22 13  1  0  0  0  0
 23 26  1  0  0  0  0
 24 25  1  0  0  0  0
 26 13  1  0  0  0  0
 28 29  1  0  0  0  0
 28 27  1  0  0  0  0
 29 30  1  0  0  0  0
M  END
>  <MODEL>
9

>  <REMARK>
 VINA RESULT:      -5.8      4.319      8.145
  Name = 
  3 active torsions:
  status: ('A' for Active; 'I' for Inactive)
    1  A    between atoms: C_6  and  C_8
    2  A    between atoms: C_6  and  C_21
    3  A    between atoms: C_9  and  C_21
                            x       y       z     vdW  Elec       q    Type
                         _______ _______ _______ _____ _____    ______ ____

>  <TORSDO>
F 3

$$$$
