=
 OpenBabel11052414543D

 55 61  0  0  1  0  0  0  0  0999 V2000
  184.6990  178.8310  143.6720 C   0  0  0  0  0  3  0  0  0  0  0  0
  182.5420  178.7000  141.8960 C   0  0  0  0  0  0  0  0  0  0  0  0
  183.8060  178.2580  141.4960 C   0  0  0  0  0  3  0  0  0  0  0  0
  183.4370  179.2790  144.0720 C   0  0  0  0  0  3  0  0  0  0  0  0
  184.8890  178.3180  142.3790 C   0  0  0  0  0  0  0  0  0  0  0  0
  182.3580  179.2160  143.1830 C   0  0  0  0  0  3  0  0  0  0  0  0
  186.1940  177.8380  141.9140 C   0  0  0  0  0  3  0  0  0  0  0  0
  187.3130  178.5530  141.9950 C   0  0  0  0  0  3  0  0  0  0  0  0
  188.5730  178.0470  141.5290 N   0  0  0  0  0  0  0  0  0  0  0  0
  189.0870  178.8470  139.2270 C   0  0  0  0  0  2  0  0  0  0  0  0
  189.3100  176.9640  137.5700 N   0  0  0  0  0  0  0  0  0  0  0  0
  189.6020  176.4640  139.9580 C   0  0  0  0  0  2  0  0  0  0  0  0
  190.2280  176.3990  138.5670 C   0  0  0  0  0  2  0  0  0  0  0  0
  189.2920  178.4240  137.7610 C   0  0  0  0  0  2  0  0  0  0  0  0
  188.6710  177.6720  140.1210 C   0  0  0  0  0  3  0  0  0  0  0  0
  189.8380  176.6690  136.2240 C   0  0  0  0  0  3  0  0  0  0  0  0
  188.7770  176.8950  135.1550 C   0  0  0  0  0  1  0  0  0  0  0  0
  190.2810  175.2160  136.1130 C   0  0  0  0  0  1  0  0  0  0  0  0
  189.6470  177.7080  142.4700 C   0  0  0  0  0  2  0  0  0  0  0  0
  189.4540  178.4390  143.7950 C   0  0  0  0  0  2  0  0  0  0  0  0
  189.3070  177.0860  147.3890 C   0  0  0  0  0  2  0  0  0  0  0  0
  187.8570  177.4880  147.5930 C   0  0  0  0  0  2  0  0  0  0  0  0
  189.1340  177.4760  144.9280 C   0  0  2  0  0  3  0  0  0  0  0  0
  187.6400  177.4020  145.1140 C   0  0  0  0  0  3  0  0  0  0  0  0
  187.0620  177.3600  146.3220 C   0  0  0  0  0  3  0  0  0  0  0  0
  189.8700  177.8730  146.2130 C   0  0  2  0  0  3  0  0  0  0  0  0
  191.2620  177.6210  146.0810 O   0  0  0  0  0  0  0  0  0  0  0  0
  191.7820  176.3350  145.9210 C   0  0  0  0  0  0  0  0  0  0  0  0
  191.9570  175.8870  144.7590 O   0  0  0  0  0  0  0  0  0  0  0  0
  192.1830  175.4960  147.0920 C   0  0  0  0  0  2  0  0  0  0  0  0
  192.2580  176.3260  148.3630 C   0  0  0  0  0  2  0  0  0  0  0  0
  193.8580  176.8510  150.0040 C   0  0  0  0  0  2  0  0  0  0  0  0
  193.6110  176.3670  148.8450 N   0  0  0  0  0  0  0  0  0  0  0  0
  181.4030  178.6310  140.9410 C   0  0  0  0  0  2  0  0  0  0  0  0
  180.2700  177.8060  141.5250 C   0  0  0  0  0  2  0  0  0  0  0  0
  179.5070  177.1090  140.4100 C   0  0  0  0  0  2  0  0  0  0  0  0
  180.1960  177.2880  139.1410 N   0  0  0  0  0  2  0  0  0  0  0  0
  180.8550  176.0360  138.8170 C   0  0  0  0  0  2  0  0  0  0  0  0
  185.1070  177.9990  137.4670 C   0  0  0  0  0  0  0  0  0  0  0  0
  181.7270  176.7620  135.4170 C   0  0  0  0  0  1  0  0  0  0  0  0
  183.0020  176.5820  136.2180 C   0  0  2  0  0  0  0  0  0  0  0  0
  182.3660  176.2540  138.7250 C   0  0  2  0  0  3  0  0  0  0  0  0
  183.3140  175.0720  136.2540 C   0  0  2  0  0  3  0  0  0  0  0  0
  182.7690  177.2390  137.6250 C   0  0  1  0  0  3  0  0  0  0  0  0
  186.0810  178.6390  137.9380 O   0  0  0  0  0  0  0  0  0  0  0  0
  185.5800  175.8200  136.7130 O   0  0  0  0  0  0  0  0  0  0  0  0
  182.7470  174.3700  137.4900 C   0  0  0  0  0  2  0  0  0  0  0  0
  184.8160  174.8560  136.0230 C   0  0  1  0  0  3  0  0  0  0  0  0
  183.8610  178.0460  138.0810 O   0  0  0  0  0  0  0  0  0  0  0  0
  184.0500  177.2340  135.5200 O   0  0  0  0  0  0  0  0  0  0  0  0
  183.1010  175.0510  138.6670 O   0  0  0  0  0  0  0  0  0  0  0  0
  185.2580  177.1360  136.2710 C   0  0  1  0  0  3  0  0  0  0  0  0
  186.2060  173.2740  137.3800 C   0  0  0  0  0  2  0  0  0  0  0  0
  185.2700  173.4060  136.2650 C   0  0  2  0  0  3  0  0  0  0  0  0
  186.7100  173.2760  135.9970 N   0  0  0  0  0  2  0  0  0  0  0  0
  1  4  1  0  0  0  0
  2  6  1  0  0  0  0
  3  2  2  0  0  0  0
  3  5  1  0  0  0  0
  5  1  2  0  0  0  0
  6  4  2  0  0  0  0
  7  8  2  0  0  0  0
  7  5  1  0  0  0  0
  9  8  1  0  0  0  0
  9 19  1  0  0  0  0
 10 15  1  0  0  0  0
 11 14  1  0  0  0  0
 11 13  1  0  0  0  0
 12 15  1  0  0  0  0
 13 12  1  0  0  0  0
 14 10  1  0  0  0  0
 15  9  1  0  0  0  0
 16 11  1  0  0  0  0
 17 16  1  0  0  0  0
 18 16  1  0  0  0  0
 19 20  1  0  0  0  0
 21 22  1  0  0  0  0
 23 20  1  6  0  0  0
 23 24  1  0  0  0  0
 23 26  1  0  0  0  0
 24 25  2  0  0  0  0
 25 22  1  0  0  0  0
 26 27  1  6  0  0  0
 26 21  1  0  0  0  0
 28 27  1  0  0  0  0
 28 30  1  0  0  0  0
 29 28  2  0  0  0  0
 30 31  1  0  0  0  0
 31 33  1  0  0  0  0
 33 32  2  0  0  0  0
 34 35  1  0  0  0  0
 34  2  1  0  0  0  0
 36 35  1  0  0  0  0
 37 36  1  0  0  0  0
 38 37  1  0  0  0  0
 39 45  2  0  0  0  0
 39 49  1  0  0  0  0
 41 40  1  6  0  0  0
 41 43  1  0  0  0  0
 41 44  1  0  0  0  0
 42 38  1  6  0  0  0
 43 47  1  1  0  0  0
 44 49  1  1  0  0  0
 44 42  1  0  0  0  0
 47 51  1  0  0  0  0
 48 43  1  0  0  0  0
 48 54  1  0  0  0  0
 48 46  1  1  0  0  0
 50 41  1  0  0  0  0
 51 42  1  0  0  0  0
 52 50  1  1  0  0  0
 52 46  1  0  0  0  0
 52 39  1  0  0  0  0
 54 53  1  1  0  0  0
 55 54  1  0  0  0  0
 55 53  1  0  0  0  0
M  END
>  <MODEL>
1

>  <REMARK>
 VINA RESULT:      -7.5      0.000      0.000
  Name = 
  19 active torsions:
  status: ('A' for Active; 'I' for Inactive)
    1  A    between atoms: C_2  and  C_44
    2  A    between atoms: C_4  and  N_37
    3  A    between atoms: C_4  and  C_40
    4  A    between atoms: C_5  and  C_40
    5  A    between atoms: C_5  and  O_45
    6  A    between atoms: C_7  and  C_22
    7  A    between atoms: N_8  and  C_22
    8  A    between atoms: N_8  and  C_43
    9  A    between atoms: C_10  and  N_32
   10  A    between atoms: C_12  and  C_38
   11  A    between atoms: C_16  and  C_36
   12  A    between atoms: C_26  and  O_45
   13  A    between atoms: C_27  and  C_54
   14  A    between atoms: C_28  and  N_49
   15  A    between atoms: C_33  and  C_36
   16  A    between atoms: C_33  and  N_49
   17  A    between atoms: C_43  and  C_51
   18  A    between atoms: N_49  and  C_52
   19  A    between atoms: C_51  and  C_54
                            x       y       z     vdW  Elec       q    Type
                         _______ _______ _______ _____ _____    ______ ____

>  <TORSDO>
F 19

$$$$
=
 OpenBabel11052414543D

 55 61  0  0  1  0  0  0  0  0999 V2000
  183.3190  178.8970  143.9890 C   0  0  0  0  0  3  0  0  0  0  0  0
  182.1620  178.8570  141.4430 C   0  0  0  0  0  0  0  0  0  0  0  0
  183.5520  178.8060  141.5810 C   0  0  0  0  0  3  0  0  0  0  0  0
  181.9280  178.9540  143.8520 C   0  0  0  0  0  3  0  0  0  0  0  0
  184.1370  178.8240  142.8510 C   0  0  0  0  0  0  0  0  0  0  0  0
  181.3500  178.9360  142.5780 C   0  0  0  0  0  3  0  0  0  0  0  0
  185.5990  178.7640  142.9440 C   0  0  0  0  0  3  0  0  0  0  0  0
  186.3360  177.8180  142.3670 C   0  0  0  0  0  3  0  0  0  0  0  0
  187.7670  177.7930  142.4820 N   0  0  0  0  0  0  0  0  0  0  0  0
  188.5120  178.4000  140.1840 C   0  0  0  0  0  2  0  0  0  0  0  0
  190.2810  176.8450  139.2920 N   0  0  0  0  0  0  0  0  0  0  0  0
  189.9570  176.9790  141.7250 C   0  0  0  0  0  2  0  0  0  0  0  0
  190.9490  177.1170  140.5720 C   0  0  0  0  0  2  0  0  0  0  0  0
  189.4030  177.9910  138.9980 C   0  0  0  0  0  2  0  0  0  0  0  0
  188.5300  177.3610  141.3140 C   0  0  0  0  0  3  0  0  0  0  0  0
  191.3070  176.7510  138.2370 C   0  0  0  0  0  3  0  0  0  0  0  0
  191.1900  175.4400  137.4710 C   0  0  0  0  0  1  0  0  0  0  0  0
  192.7100  176.7980  138.8280 C   0  0  0  0  0  1  0  0  0  0  0  0
  188.4250  177.9720  143.7810 C   0  0  0  0  0  2  0  0  0  0  0  0
  188.3620  176.6860  144.5990 C   0  0  0  0  0  2  0  0  0  0  0  0
  188.1660  178.2200  148.1170 C   0  0  0  0  0  2  0  0  0  0  0  0
  187.0680  179.2000  147.7430 C   0  0  0  0  0  2  0  0  0  0  0  0
  187.8280  176.9370  146.0010 C   0  0  2  0  0  3  0  0  0  0  0  0
  186.4860  177.6180  145.9100 C   0  0  0  0  0  3  0  0  0  0  0  0
  186.1230  178.6130  146.7310 C   0  0  0  0  0  3  0  0  0  0  0  0
  188.8360  177.7300  146.8410 C   0  0  2  0  0  3  0  0  0  0  0  0
  189.9570  176.9170  147.1620 O   0  0  0  0  0  0  0  0  0  0  0  0
  191.1370  176.9360  146.4160 C   0  0  0  0  0  0  0  0  0  0  0  0
  191.3940  177.9390  145.7020 O   0  0  0  0  0  0  0  0  0  0  0  0
  192.1300  175.8190  146.4830 C   0  0  0  0  0  2  0  0  0  0  0  0
  192.4470  175.4520  147.9230 C   0  0  0  0  0  2  0  0  0  0  0  0
  193.6460  176.5750  149.6040 C   0  0  0  0  0  2  0  0  0  0  0  0
  192.7700  176.6330  148.6740 N   0  0  0  0  0  0  0  0  0  0  0  0
  181.5580  178.8410  140.0830 C   0  0  0  0  0  2  0  0  0  0  0  0
  180.2210  178.1210  140.1040 C   0  0  0  0  0  2  0  0  0  0  0  0
  179.5960  178.1440  138.7190 C   0  0  0  0  0  2  0  0  0  0  0  0
  180.0670  177.0130  137.9360 N   0  0  0  0  0  2  0  0  0  0  0  0
  180.8750  177.5350  136.8480 C   0  0  0  0  0  2  0  0  0  0  0  0
  182.6770  173.0850  136.0060 C   0  0  0  0  0  0  0  0  0  0  0  0
  183.0380  175.7960  139.1170 C   0  0  0  0  0  1  0  0  0  0  0  0
  183.2670  175.2590  137.7180 C   0  0  2  0  0  0  0  0  0  0  0  0
  181.5520  176.3820  136.1070 C   0  0  2  0  0  3  0  0  0  0  0  0
  184.2930  176.1830  137.0310 C   0  0  2  0  0  3  0  0  0  0  0  0
  181.8680  175.1860  137.0080 C   0  0  1  0  0  3  0  0  0  0  0  0
  182.4810  172.0710  135.2900 O   0  0  0  0  0  0  0  0  0  0  0  0
  184.6810  174.2530  135.6050 O   0  0  0  0  0  0  0  0  0  0  0  0
  183.6420  177.3000  136.2120 C   0  0  0  0  0  2  0  0  0  0  0  0
  185.3120  175.3310  136.2610 C   0  0  1  0  0  3  0  0  0  0  0  0
  181.6420  173.9690  136.2870 O   0  0  0  0  0  0  0  0  0  0  0  0
  183.8440  173.9680  137.8370 O   0  0  0  0  0  0  0  0  0  0  0  0
  182.6660  176.7880  135.3410 O   0  0  0  0  0  0  0  0  0  0  0  0
  184.0230  173.4030  136.5410 C   0  0  1  0  0  3  0  0  0  0  0  0
  187.5370  175.5220  135.1250 C   0  0  0  0  0  2  0  0  0  0  0  0
  186.2400  176.1570  135.3560 C   0  0  2  0  0  3  0  0  0  0  0  0
  187.4180  176.6050  136.1150 N   0  0  0  0  0  2  0  0  0  0  0  0
  2  3  2  0  0  0  0
  2  6  1  0  0  0  0
  3  5  1  0  0  0  0
  4  1  1  0  0  0  0
  5  7  1  0  0  0  0
  5  1  2  0  0  0  0
  6  4  2  0  0  0  0
  8  9  1  0  0  0  0
  8  7  2  0  0  0  0
  9 19  1  0  0  0  0
 10 15  1  0  0  0  0
 11 13  1  0  0  0  0
 13 12  1  0  0  0  0
 14 11  1  0  0  0  0
 14 10  1  0  0  0  0
 15 12  1  0  0  0  0
 15  9  1  0  0  0  0
 16 18  1  0  0  0  0
 16 11  1  0  0  0  0
 17 16  1  0  0  0  0
 19 20  1  0  0  0  0
 22 21  1  0  0  0  0
 23 20  1  6  0  0  0
 23 26  1  0  0  0  0
 24 23  1  0  0  0  0
 24 25  2  0  0  0  0
 25 22  1  0  0  0  0
 26 27  1  1  0  0  0
 26 21  1  0  0  0  0
 28 30  1  0  0  0  0
 28 27  1  0  0  0  0
 29 28  2  0  0  0  0
 30 31  1  0  0  0  0
 31 33  1  0  0  0  0
 33 32  2  0  0  0  0
 34 35  1  0  0  0  0
 34  2  1  0  0  0  0
 36 35  1  0  0  0  0
 37 36  1  0  0  0  0
 38 37  1  0  0  0  0
 39 49  1  0  0  0  0
 39 52  1  0  0  0  0
 41 50  1  0  0  0  0
 41 40  1  1  0  0  0
 42 38  1  1  0  0  0
 42 44  1  0  0  0  0
 43 47  1  6  0  0  0
 43 41  1  0  0  0  0
 44 49  1  6  0  0  0
 44 41  1  0  0  0  0
 45 39  2  0  0  0  0
 48 46  1  6  0  0  0
 48 43  1  0  0  0  0
 51 42  1  0  0  0  0
 51 47  1  0  0  0  0
 52 46  1  6  0  0  0
 52 50  1  0  0  0  0
 53 55  1  0  0  0  0
 54 53  1  6  0  0  0
 54 55  1  0  0  0  0
 54 48  1  0  0  0  0
M  END
>  <MODEL>
2

>  <REMARK>
 VINA RESULT:      -7.5      1.558      2.586
  Name = 
  19 active torsions:
  status: ('A' for Active; 'I' for Inactive)
    1  A    between atoms: C_2  and  C_44
    2  A    between atoms: C_4  and  N_37
    3  A    between atoms: C_4  and  C_40
    4  A    between atoms: C_5  and  C_40
    5  A    between atoms: C_5  and  O_45
    6  A    between atoms: C_7  and  C_22
    7  A    between atoms: N_8  and  C_22
    8  A    between atoms: N_8  and  C_43
    9  A    between atoms: C_10  and  N_32
   10  A    between atoms: C_12  and  C_38
   11  A    between atoms: C_16  and  C_36
   12  A    between atoms: C_26  and  O_45
   13  A    between atoms: C_27  and  C_54
   14  A    between atoms: C_28  and  N_49
   15  A    between atoms: C_33  and  C_36
   16  A    between atoms: C_33  and  N_49
   17  A    between atoms: C_43  and  C_51
   18  A    between atoms: N_49  and  C_52
   19  A    between atoms: C_51  and  C_54
                            x       y       z     vdW  Elec       q    Type
                         _______ _______ _______ _____ _____    ______ ____

>  <TORSDO>
F 19

$$$$
=
 OpenBabel11052414543D

 55 61  0  0  1  0  0  0  0  0999 V2000
  184.3570  179.0530  144.1020 C   0  0  0  0  0  3  0  0  0  0  0  0
  182.4730  178.6020  142.0840 C   0  0  0  0  0  0  0  0  0  0  0  0
  183.8380  178.5830  141.7840 C   0  0  0  0  0  3  0  0  0  0  0  0
  182.9910  179.0780  144.4020 C   0  0  0  0  0  3  0  0  0  0  0  0
  184.7860  178.8060  142.7880 C   0  0  0  0  0  0  0  0  0  0  0  0
  182.0490  178.8540  143.3920 C   0  0  0  0  0  3  0  0  0  0  0  0
  186.2060  178.7710  142.4250 C   0  0  0  0  0  3  0  0  0  0  0  0
  186.9440  177.6650  142.4440 C   0  0  0  0  0  3  0  0  0  0  0  0
  188.3330  177.6710  142.0820 N   0  0  0  0  0  0  0  0  0  0  0  0
  190.4120  178.3150  143.2920 C   0  0  0  0  0  2  0  0  0  0  0  0
  190.8770  176.8400  145.2800 N   0  0  0  0  0  0  0  0  0  0  0  0
  188.5790  176.9550  144.4190 C   0  0  0  0  0  2  0  0  0  0  0  0
  189.4840  177.1390  145.6350 C   0  0  0  0  0  2  0  0  0  0  0  0
  191.3680  177.9470  144.4410 C   0  0  0  0  0  2  0  0  0  0  0  0
  189.2990  177.2760  143.1030 C   0  0  0  0  0  3  0  0  0  0  0  0
  191.6780  176.7930  146.5180 C   0  0  0  0  0  3  0  0  0  0  0  0
  192.3020  175.4190  146.7180 C   0  0  0  0  0  1  0  0  0  0  0  0
  190.8160  177.0740  147.7420 C   0  0  0  0  0  1  0  0  0  0  0  0
  188.7820  178.2650  140.8180 C   0  0  0  0  0  2  0  0  0  0  0  0
  188.7110  177.2440  139.6860 C   0  0  0  0  0  2  0  0  0  0  0  0
  187.4800  177.3970  136.0490 C   0  0  0  0  0  2  0  0  0  0  0  0
  186.0130  177.3200  136.4320 C   0  0  0  0  0  2  0  0  0  0  0  0
  188.1380  177.8520  138.4150 C   0  0  2  0  0  3  0  0  0  0  0  0
  186.6960  178.2280  138.6470 C   0  0  0  0  0  3  0  0  0  0  0  0
  185.7400  178.0300  137.7290 C   0  0  0  0  0  3  0  0  0  0  0  0
  188.3160  176.9060  137.2220 C   0  0  2  0  0  3  0  0  0  0  0  0
  189.6850  176.8360  136.8490 O   0  0  0  0  0  0  0  0  0  0  0  0
  190.3760  175.6270  136.7460 C   0  0  0  0  0  0  0  0  0  0  0  0
  189.7290  174.5490  136.7740 O   0  0  0  0  0  0  0  0  0  0  0  0
  191.8580  175.5810  136.5530 C   0  0  0  0  0  2  0  0  0  0  0  0
  192.5460  174.9240  137.7390 C   0  0  0  0  0  2  0  0  0  0  0  0
  194.8590  174.5190  137.8400 C   0  0  0  0  0  2  0  0  0  0  0  0
  193.7310  174.2390  137.3040 N   0  0  0  0  0  0  0  0  0  0  0  0
  181.4800  178.3670  141.0010 C   0  0  0  0  0  2  0  0  0  0  0  0
  181.7730  179.2620  139.8100 C   0  0  0  0  0  2  0  0  0  0  0  0
  181.4050  178.5470  138.5200 C   0  0  0  0  0  2  0  0  0  0  0  0
  180.6790  177.3220  138.8140 N   0  0  0  0  0  2  0  0  0  0  0  0
  180.6020  176.5490  137.5870 C   0  0  0  0  0  2  0  0  0  0  0  0
  184.5070  173.6350  137.4920 C   0  0  0  0  0  0  0  0  0  0  0  0
  182.8900  176.3690  134.8340 C   0  0  0  0  0  1  0  0  0  0  0  0
  182.9570  175.0680  135.6090 C   0  0  2  0  0  0  0  0  0  0  0  0
  181.4440  175.2800  137.7210 C   0  0  2  0  0  3  0  0  0  0  0  0
  181.8330  174.1560  135.0780 C   0  0  2  0  0  3  0  0  0  0  0  0
  182.8510  175.4230  137.1340 C   0  0  1  0  0  3  0  0  0  0  0  0
  185.2540  172.9750  138.2590 O   0  0  0  0  0  0  0  0  0  0  0  0
  183.2090  172.3720  135.9890 O   0  0  0  0  0  0  0  0  0  0  0  0
  180.5380  174.2650  135.8850 C   0  0  0  0  0  2  0  0  0  0  0  0
  182.3700  172.7270  134.9120 C   0  0  1  0  0  3  0  0  0  0  0  0
  183.7890  174.7270  137.9640 O   0  0  0  0  0  0  0  0  0  0  0  0
  184.2020  174.4520  135.3160 O   0  0  0  0  0  0  0  0  0  0  0  0
  180.7840  174.1210  137.2610 O   0  0  0  0  0  0  0  0  0  0  0  0
  184.3290  173.2490  136.0720 C   0  0  1  0  0  3  0  0  0  0  0  0
  180.9930  170.7990  135.7290 C   0  0  0  0  0  2  0  0  0  0  0  0
  181.2730  171.6930  134.6060 C   0  0  2  0  0  3  0  0  0  0  0  0
  181.8400  170.3360  134.6170 N   0  0  0  0  0  2  0  0  0  0  0  0
  1  4  1  0  0  0  0
  2  6  1  0  0  0  0
  3  2  2  0  0  0  0
  3  5  1  0  0  0  0
  5  1  2  0  0  0  0
  6  4  2  0  0  0  0
  7  8  2  0  0  0  0
  7  5  1  0  0  0  0
  9  8  1  0  0  0  0
  9 15  1  0  0  0  0
 10 14  1  0  0  0  0
 11 13  1  0  0  0  0
 11 16  1  0  0  0  0
 12 13  1  0  0  0  0
 14 11  1  0  0  0  0
 15 10  1  0  0  0  0
 15 12  1  0  0  0  0
 16 17  1  0  0  0  0
 16 18  1  0  0  0  0
 19  9  1  0  0  0  0
 20 19  1  0  0  0  0
 21 22  1  0  0  0  0
 21 26  1  0  0  0  0
 22 25  1  0  0  0  0
 23 24  1  0  0  0  0
 23 20  1  1  0  0  0
 25 24  2  0  0  0  0
 26 27  1  6  0  0  0
 26 23  1  0  0  0  0
 28 29  2  0  0  0  0
 28 27  1  0  0  0  0
 30 28  1  0  0  0  0
 30 31  1  0  0  0  0
 33 31  1  0  0  0  0
 33 32  2  0  0  0  0
 34  2  1  0  0  0  0
 35 34  1  0  0  0  0
 36 37  1  0  0  0  0
 36 35  1  0  0  0  0
 38 37  1  0  0  0  0
 39 49  1  0  0  0  0
 39 45  2  0  0  0  0
 41 40  1  6  0  0  0
 41 44  1  0  0  0  0
 42 38  1  6  0  0  0
 43 41  1  0  0  0  0
 43 47  1  1  0  0  0
 44 42  1  0  0  0  0
 44 49  1  1  0  0  0
 46 52  1  0  0  0  0
 47 51  1  0  0  0  0
 48 43  1  0  0  0  0
 48 46  1  1  0  0  0
 50 41  1  0  0  0  0
 51 42  1  0  0  0  0
 52 50  1  6  0  0  0
 52 39  1  0  0  0  0
 54 55  1  0  0  0  0
 54 48  1  0  0  0  0
 54 53  1  1  0  0  0
 55 53  1  0  0  0  0
M  END
>  <MODEL>
3

>  <REMARK>
 VINA RESULT:      -7.4      2.574      6.273
  Name = 
  19 active torsions:
  status: ('A' for Active; 'I' for Inactive)
    1  A    between atoms: C_2  and  C_44
    2  A    between atoms: C_4  and  N_37
    3  A    between atoms: C_4  and  C_40
    4  A    between atoms: C_5  and  C_40
    5  A    between atoms: C_5  and  O_45
    6  A    between atoms: C_7  and  C_22
    7  A    between atoms: N_8  and  C_22
    8  A    between atoms: N_8  and  C_43
    9  A    between atoms: C_10  and  N_32
   10  A    between atoms: C_12  and  C_38
   11  A    between atoms: C_16  and  C_36
   12  A    between atoms: C_26  and  O_45
   13  A    between atoms: C_27  and  C_54
   14  A    between atoms: C_28  and  N_49
   15  A    between atoms: C_33  and  C_36
   16  A    between atoms: C_33  and  N_49
   17  A    between atoms: C_43  and  C_51
   18  A    between atoms: N_49  and  C_52
   19  A    between atoms: C_51  and  C_54
                            x       y       z     vdW  Elec       q    Type
                         _______ _______ _______ _____ _____    ______ ____

>  <TORSDO>
F 19

$$$$
=
 OpenBabel11052414543D

 55 61  0  0  1  0  0  0  0  0999 V2000
  184.7010  179.3590  143.5170 C   0  0  0  0  0  3  0  0  0  0  0  0
  182.6380  178.5270  141.8200 C   0  0  0  0  0  0  0  0  0  0  0  0
  183.9620  178.5170  141.3710 C   0  0  0  0  0  3  0  0  0  0  0  0
  183.3760  179.3750  143.9660 C   0  0  0  0  0  3  0  0  0  0  0  0
  184.9980  178.9300  142.2140 C   0  0  0  0  0  0  0  0  0  0  0  0
  182.3450  178.9610  143.1170 C   0  0  0  0  0  3  0  0  0  0  0  0
  186.3700  178.8980  141.6980 C   0  0  0  0  0  3  0  0  0  0  0  0
  187.3100  178.0750  142.1560 C   0  0  0  0  0  3  0  0  0  0  0  0
  188.6430  178.0730  141.6250 N   0  0  0  0  0  0  0  0  0  0  0  0
  189.0580  178.6990  139.2500 C   0  0  0  0  0  2  0  0  0  0  0  0
  189.6230  176.7150  137.8060 N   0  0  0  0  0  0  0  0  0  0  0  0
  189.9510  176.5270  140.2340 C   0  0  0  0  0  2  0  0  0  0  0  0
  190.6050  176.4220  138.8580 C   0  0  0  0  0  2  0  0  0  0  0  0
  189.3570  178.1630  137.8390 C   0  0  0  0  0  2  0  0  0  0  0  0
  188.8280  177.5710  140.2660 C   0  0  0  0  0  3  0  0  0  0  0  0
  190.2170  176.3720  136.5000 C   0  0  0  0  0  3  0  0  0  0  0  0
  189.5700  175.1260  135.9110 C   0  0  0  0  0  1  0  0  0  0  0  0
  191.7060  176.0800  136.6330 C   0  0  0  0  0  1  0  0  0  0  0  0
  189.8010  178.3470  142.4850 C   0  0  0  0  0  2  0  0  0  0  0  0
  189.5050  177.9510  143.9280 C   0  0  0  0  0  2  0  0  0  0  0  0
  191.6680  176.4380  146.7220 C   0  0  0  0  0  2  0  0  0  0  0  0
  191.9430  175.1550  145.9580 C   0  0  0  0  0  2  0  0  0  0  0  0
  190.7690  177.5410  144.6690 C   0  0  2  0  0  3  0  0  0  0  0  0
  191.4770  176.4610  143.8900 C   0  0  0  0  0  3  0  0  0  0  0  0
  192.0510  175.4030  144.4780 C   0  0  0  0  0  3  0  0  0  0  0  0
  190.4520  177.1190  146.1080 C   0  0  2  0  0  3  0  0  0  0  0  0
  190.0860  178.2510  146.8840 O   0  0  0  0  0  0  0  0  0  0  0  0
  189.3050  178.1520  148.0370 C   0  0  0  0  0  0  0  0  0  0  0  0
  189.8740  178.0430  149.1540 O   0  0  0  0  0  0  0  0  0  0  0  0
  187.8120  178.2210  147.9860 C   0  0  0  0  0  2  0  0  0  0  0  0
  187.2620  177.3830  146.8440 C   0  0  0  0  0  2  0  0  0  0  0  0
  185.5090  178.9440  146.9680 C   0  0  0  0  0  2  0  0  0  0  0  0
  185.9550  177.8520  146.4740 N   0  0  0  0  0  0  0  0  0  0  0  0
  181.5490  178.0870  140.9070 C   0  0  0  0  0  2  0  0  0  0  0  0
  180.5840  179.2300  140.6440 C   0  0  0  0  0  2  0  0  0  0  0  0
  180.1370  179.2090  139.1910 C   0  0  0  0  0  2  0  0  0  0  0  0
  179.4810  177.9460  138.8860 N   0  0  0  0  0  2  0  0  0  0  0  0
  180.1120  177.3970  137.6990 C   0  0  0  0  0  2  0  0  0  0  0  0
  184.9770  177.5560  137.4560 C   0  0  0  0  0  0  0  0  0  0  0  0
  181.9580  177.3630  134.6270 C   0  0  0  0  0  1  0  0  0  0  0  0
  182.8490  176.8390  135.7360 C   0  0  2  0  0  0  0  0  0  0  0  0
  181.5710  177.0540  137.9990 C   0  0  2  0  0  3  0  0  0  0  0  0
  182.5590  175.3320  135.8870 C   0  0  2  0  0  3  0  0  0  0  0  0
  182.5560  177.6970  137.0180 C   0  0  1  0  0  3  0  0  0  0  0  0
  185.9810  177.8610  138.1490 O   0  0  0  0  0  0  0  0  0  0  0  0
  184.7670  175.2780  136.9020 O   0  0  0  0  0  0  0  0  0  0  0  0
  181.5020  175.0270  136.9490 C   0  0  0  0  0  2  0  0  0  0  0  0
  183.8830  174.5730  136.0590 C   0  0  1  0  0  3  0  0  0  0  0  0
  183.7320  178.1130  137.7240 O   0  0  0  0  0  0  0  0  0  0  0  0
  184.1960  176.9920  135.3190 O   0  0  0  0  0  0  0  0  0  0  0  0
  181.7980  175.6720  138.1610 O   0  0  0  0  0  0  0  0  0  0  0  0
  185.0710  176.5620  136.3610 C   0  0  1  0  0  3  0  0  0  0  0  0
  184.6250  172.6470  137.4800 C   0  0  0  0  0  2  0  0  0  0  0  0
  183.6950  173.0960  136.4450 C   0  0  2  0  0  3  0  0  0  0  0  0
  184.8870  172.3200  136.0690 N   0  0  0  0  0  2  0  0  0  0  0  0
  1  4  1  0  0  0  0
  2  6  1  0  0  0  0
  3  2  2  0  0  0  0
  3  5  1  0  0  0  0
  5  1  2  0  0  0  0
  6  4  2  0  0  0  0
  7  8  2  0  0  0  0
  7  5  1  0  0  0  0
  9  8  1  0  0  0  0
  9 19  1  0  0  0  0
 10 15  1  0  0  0  0
 11 14  1  0  0  0  0
 11 13  1  0  0  0  0
 12 15  1  0  0  0  0
 13 12  1  0  0  0  0
 14 10  1  0  0  0  0
 15  9  1  0  0  0  0
 16 18  1  0  0  0  0
 16 11  1  0  0  0  0
 17 16  1  0  0  0  0
 19 20  1  0  0  0  0
 22 21  1  0  0  0  0
 23 20  1  6  0  0  0
 23 26  1  0  0  0  0
 24 25  2  0  0  0  0
 24 23  1  0  0  0  0
 25 22  1  0  0  0  0
 26 21  1  0  0  0  0
 26 27  1  1  0  0  0
 27 28  1  0  0  0  0
 28 29  2  0  0  0  0
 30 28  1  0  0  0  0
 31 30  1  0  0  0  0
 33 31  1  0  0  0  0
 33 32  2  0  0  0  0
 34  2  1  0  0  0  0
 35 34  1  0  0  0  0
 36 35  1  0  0  0  0
 37 36  1  0  0  0  0
 38 37  1  0  0  0  0
 39 49  1  0  0  0  0
 39 45  2  0  0  0  0
 41 40  1  6  0  0  0
 41 43  1  0  0  0  0
 41 44  1  0  0  0  0
 42 38  1  6  0  0  0
 42 51  1  0  0  0  0
 43 48  1  0  0  0  0
 43 47  1  1  0  0  0
 44 49  1  1  0  0  0
 44 42  1  0  0  0  0
 47 51  1  0  0  0  0
 48 54  1  0  0  0  0
 48 46  1  1  0  0  0
 50 41  1  0  0  0  0
 52 50  1  6  0  0  0
 52 46  1  0  0  0  0
 52 39  1  0  0  0  0
 54 53  1  1  0  0  0
 55 54  1  0  0  0  0
 55 53  1  0  0  0  0
M  END
>  <MODEL>
4

>  <REMARK>
 VINA RESULT:      -7.2      1.669      2.637
  Name = 
  19 active torsions:
  status: ('A' for Active; 'I' for Inactive)
    1  A    between atoms: C_2  and  C_44
    2  A    between atoms: C_4  and  N_37
    3  A    between atoms: C_4  and  C_40
    4  A    between atoms: C_5  and  C_40
    5  A    between atoms: C_5  and  O_45
    6  A    between atoms: C_7  and  C_22
    7  A    between atoms: N_8  and  C_22
    8  A    between atoms: N_8  and  C_43
    9  A    between atoms: C_10  and  N_32
   10  A    between atoms: C_12  and  C_38
   11  A    between atoms: C_16  and  C_36
   12  A    between atoms: C_26  and  O_45
   13  A    between atoms: C_27  and  C_54
   14  A    between atoms: C_28  and  N_49
   15  A    between atoms: C_33  and  C_36
   16  A    between atoms: C_33  and  N_49
   17  A    between atoms: C_43  and  C_51
   18  A    between atoms: N_49  and  C_52
   19  A    between atoms: C_51  and  C_54
                            x       y       z     vdW  Elec       q    Type
                         _______ _______ _______ _____ _____    ______ ____

>  <TORSDO>
F 19

$$$$
=
 OpenBabel11052414543D

 55 61  0  0  1  0  0  0  0  0999 V2000
  184.5300  179.5780  143.6800 C   0  0  0  0  0  3  0  0  0  0  0  0
  182.4400  178.5350  142.1400 C   0  0  0  0  0  0  0  0  0  0  0  0
  183.7290  178.6200  141.6050 C   0  0  0  0  0  3  0  0  0  0  0  0
  183.2400  179.4990  144.2140 C   0  0  0  0  0  3  0  0  0  0  0  0
  184.7790  179.1390  142.3700 C   0  0  0  0  0  0  0  0  0  0  0  0
  182.1940  178.9790  143.4430 C   0  0  0  0  0  3  0  0  0  0  0  0
  186.1140  179.2030  141.7670 C   0  0  0  0  0  3  0  0  0  0  0  0
  186.9390  178.1610  141.6910 C   0  0  0  0  0  3  0  0  0  0  0  0
  188.2390  178.2640  141.0930 N   0  0  0  0  0  0  0  0  0  0  0  0
  189.5990  177.6580  139.0960 C   0  0  0  0  0  2  0  0  0  0  0  0
  188.3240  177.9070  136.9390 N   0  0  0  0  0  0  0  0  0  0  0  0
  187.0540  177.6590  139.0280 C   0  0  0  0  0  2  0  0  0  0  0  0
  187.3030  177.1060  137.6270 C   0  0  0  0  0  2  0  0  0  0  0  0
  189.6240  177.5960  137.5580 C   0  0  0  0  0  2  0  0  0  0  0  0
  188.3110  178.2950  139.6340 C   0  0  0  0  0  3  0  0  0  0  0  0
  188.3650  177.4990  135.5220 C   0  0  0  0  0  3  0  0  0  0  0  0
  187.1680  178.0460  134.7560 C   0  0  0  0  0  1  0  0  0  0  0  0
  188.3270  175.9830  135.3840 C   0  0  0  0  0  1  0  0  0  0  0  0
  189.4570  178.1130  141.8980 C   0  0  0  0  0  2  0  0  0  0  0  0
  189.1080  177.9270  143.3720 C   0  0  0  0  0  2  0  0  0  0  0  0
  191.2470  176.5460  146.2510 C   0  0  0  0  0  2  0  0  0  0  0  0
  191.8510  175.4360  145.4090 C   0  0  0  0  0  2  0  0  0  0  0  0
  190.3490  177.6850  144.2170 C   0  0  2  0  0  3  0  0  0  0  0  0
  191.3360  176.8580  143.4310 C   0  0  0  0  0  3  0  0  0  0  0  0
  192.0520  175.8690  143.9830 C   0  0  0  0  0  3  0  0  0  0  0  0
  189.9850  177.0470  145.5630 C   0  0  2  0  0  3  0  0  0  0  0  0
  189.3200  177.9910  146.3910 O   0  0  0  0  0  0  0  0  0  0  0  0
  188.4590  177.6120  147.4220 C   0  0  0  0  0  0  0  0  0  0  0  0
  188.5160  176.4360  147.8650 O   0  0  0  0  0  0  0  0  0  0  0  0
  187.5050  178.5790  148.0480 C   0  0  0  0  0  2  0  0  0  0  0  0
  186.4270  179.0010  147.0640 C   0  0  0  0  0  2  0  0  0  0  0  0
  185.9950  177.3240  145.4750 C   0  0  0  0  0  2  0  0  0  0  0  0
  185.7010  177.8500  146.6040 N   0  0  0  0  0  0  0  0  0  0  0  0
  181.3360  177.9840  141.3090 C   0  0  0  0  0  2  0  0  0  0  0  0
  180.5690  179.1080  140.6330 C   0  0  0  0  0  2  0  0  0  0  0  0
  181.1100  179.3360  139.2310 C   0  0  0  0  0  2  0  0  0  0  0  0
  180.7910  178.2010  138.3790 N   0  0  0  0  0  2  0  0  0  0  0  0
  181.9940  177.8460  137.6470 C   0  0  0  0  0  2  0  0  0  0  0  0
  184.5530  173.6980  137.5960 C   0  0  0  0  0  0  0  0  0  0  0  0
  182.8960  176.0960  134.6530 C   0  0  0  0  0  1  0  0  0  0  0  0
  182.8800  175.1110  135.8060 C   0  0  2  0  0  0  0  0  0  0  0  0
  182.4210  176.4240  138.0110 C   0  0  2  0  0  3  0  0  0  0  0  0
  181.4270  174.6190  135.9720 C   0  0  2  0  0  3  0  0  0  0  0  0
  183.4730  175.8470  137.0590 C   0  0  1  0  0  3  0  0  0  0  0  0
  185.3130  173.0100  138.3230 O   0  0  0  0  0  0  0  0  0  0  0  0
  182.4750  172.7230  137.0750 O   0  0  0  0  0  0  0  0  0  0  0  0
  180.6320  175.4300  136.9960 C   0  0  0  0  0  2  0  0  0  0  0  0
  181.4270  173.1020  136.2100 C   0  0  1  0  0  3  0  0  0  0  0  0
  184.4150  175.0660  137.8040 O   0  0  0  0  0  0  0  0  0  0  0  0
  183.6840  174.0010  135.4400 O   0  0  0  0  0  0  0  0  0  0  0  0
  181.3340  175.5470  138.2070 O   0  0  0  0  0  0  0  0  0  0  0  0
  183.7410  173.0750  136.5230 C   0  0  1  0  0  3  0  0  0  0  0  0
  180.0750  171.1230  136.9400 C   0  0  0  0  0  2  0  0  0  0  0  0
  180.0500  172.5480  136.6150 C   0  0  2  0  0  3  0  0  0  0  0  0
  179.5900  171.5650  135.6220 N   0  0  0  0  0  2  0  0  0  0  0  0
  1  4  1  0  0  0  0
  2  6  1  0  0  0  0
  3  2  2  0  0  0  0
  3  5  1  0  0  0  0
  5  1  2  0  0  0  0
  6  4  2  0  0  0  0
  7  5  1  0  0  0  0
  8  7  2  0  0  0  0
  9  8  1  0  0  0  0
  9 19  1  0  0  0  0
 10 15  1  0  0  0  0
 11 14  1  0  0  0  0
 11 13  1  0  0  0  0
 12 15  1  0  0  0  0
 13 12  1  0  0  0  0
 14 10  1  0  0  0  0
 15  9  1  0  0  0  0
 16 11  1  0  0  0  0
 17 16  1  0  0  0  0
 18 16  1  0  0  0  0
 19 20  1  0  0  0  0
 22 21  1  0  0  0  0
 23 20  1  6  0  0  0
 23 26  1  0  0  0  0
 24 25  2  0  0  0  0
 24 23  1  0  0  0  0
 25 22  1  0  0  0  0
 26 21  1  0  0  0  0
 26 27  1  1  0  0  0
 27 28  1  0  0  0  0
 28 29  2  0  0  0  0
 28 30  1  0  0  0  0
 31 30  1  0  0  0  0
 32 33  2  0  0  0  0
 33 31  1  0  0  0  0
 34  2  1  0  0  0  0
 35 34  1  0  0  0  0
 36 35  1  0  0  0  0
 37 36  1  0  0  0  0
 38 37  1  0  0  0  0
 39 49  1  0  0  0  0
 39 45  2  0  0  0  0
 41 40  1  6  0  0  0
 41 43  1  0  0  0  0
 41 44  1  0  0  0  0
 42 38  1  6  0  0  0
 42 51  1  0  0  0  0
 43 48  1  0  0  0  0
 43 47  1  1  0  0  0
 44 49  1  1  0  0  0
 44 42  1  0  0  0  0
 47 51  1  0  0  0  0
 48 54  1  0  0  0  0
 48 46  1  1  0  0  0
 50 41  1  0  0  0  0
 52 50  1  6  0  0  0
 52 46  1  0  0  0  0
 52 39  1  0  0  0  0
 54 53  1  1  0  0  0
 55 54  1  0  0  0  0
 55 53  1  0  0  0  0
M  END
>  <MODEL>
5

>  <REMARK>
 VINA RESULT:      -6.7      2.149      3.522
  Name = 
  19 active torsions:
  status: ('A' for Active; 'I' for Inactive)
    1  A    between atoms: C_2  and  C_44
    2  A    between atoms: C_4  and  N_37
    3  A    between atoms: C_4  and  C_40
    4  A    between atoms: C_5  and  C_40
    5  A    between atoms: C_5  and  O_45
    6  A    between atoms: C_7  and  C_22
    7  A    between atoms: N_8  and  C_22
    8  A    between atoms: N_8  and  C_43
    9  A    between atoms: C_10  and  N_32
   10  A    between atoms: C_12  and  C_38
   11  A    between atoms: C_16  and  C_36
   12  A    between atoms: C_26  and  O_45
   13  A    between atoms: C_27  and  C_54
   14  A    between atoms: C_28  and  N_49
   15  A    between atoms: C_33  and  C_36
   16  A    between atoms: C_33  and  N_49
   17  A    between atoms: C_43  and  C_51
   18  A    between atoms: N_49  and  C_52
   19  A    between atoms: C_51  and  C_54
                            x       y       z     vdW  Elec       q    Type
                         _______ _______ _______ _____ _____    ______ ____

>  <TORSDO>
F 19

$$$$
=
 OpenBabel11052414543D

 55 61  0  0  1  0  0  0  0  0999 V2000
  188.4060  178.3810  136.7130 C   0  0  0  0  0  3  0  0  0  0  0  0
  189.0120  175.6700  136.3850 C   0  0  0  0  0  0  0  0  0  0  0  0
  188.3880  176.1110  137.5560 C   0  0  0  0  0  3  0  0  0  0  0  0
  189.0350  177.9410  135.5440 C   0  0  0  0  0  3  0  0  0  0  0  0
  188.0810  177.4650  137.7260 C   0  0  0  0  0  0  0  0  0  0  0  0
  189.3400  176.5850  135.3810 C   0  0  0  0  0  3  0  0  0  0  0  0
  187.4230  177.8790  138.9690 C   0  0  0  0  0  3  0  0  0  0  0  0
  186.1510  178.2620  139.0360 C   0  0  0  0  0  3  0  0  0  0  0  0
  185.5410  178.6610  140.2730 N   0  0  0  0  0  0  0  0  0  0  0  0
  183.7120  179.6730  138.9190 C   0  0  0  0  0  2  0  0  0  0  0  0
  181.4350  179.3030  139.9290 N   0  0  0  0  0  0  0  0  0  0  0  0
  183.2630  177.7940  140.5770 C   0  0  0  0  0  2  0  0  0  0  0  0
  181.8580  177.8980  139.9890 C   0  0  0  0  0  2  0  0  0  0  0  0
  182.2000  179.9500  138.8500 C   0  0  0  0  0  2  0  0  0  0  0  0
  184.1250  179.0180  140.2440 C   0  0  0  0  0  3  0  0  0  0  0  0
  180.0010  179.3480  139.5870 C   0  0  0  0  0  3  0  0  0  0  0  0
  179.5190  178.0040  139.0580 C   0  0  0  0  0  1  0  0  0  0  0  0
  179.7270  180.3790  138.4990 C   0  0  0  0  0  1  0  0  0  0  0  0
  186.3530  178.9200  141.4680 C   0  0  0  0  0  2  0  0  0  0  0  0
  185.4880  179.4640  142.6000 C   0  0  0  0  0  2  0  0  0  0  0  0
  186.2450  177.5460  145.8430 C   0  0  0  0  0  2  0  0  0  0  0  0
  185.2250  178.3170  146.6610 C   0  0  0  0  0  2  0  0  0  0  0  0
  185.3030  178.4400  143.7100 C   0  0  2  0  0  3  0  0  0  0  0  0
  184.0700  178.7840  144.5060 C   0  0  0  0  0  3  0  0  0  0  0  0
  184.0190  178.6830  145.8410 C   0  0  0  0  0  3  0  0  0  0  0  0
  186.5600  178.3400  144.5830 C   0  0  2  0  0  3  0  0  0  0  0  0
  187.6110  177.7130  143.8610 O   0  0  0  0  0  0  0  0  0  0  0  0
  188.9440  177.7720  144.2720 C   0  0  0  0  0  0  0  0  0  0  0  0
  189.2340  177.4670  145.4570 O   0  0  0  0  0  0  0  0  0  0  0  0
  190.0440  178.1410  143.3270 C   0  0  0  0  0  2  0  0  0  0  0  0
  189.6800  177.7850  141.8950 C   0  0  0  0  0  2  0  0  0  0  0  0
  190.9960  177.0040  140.1110 C   0  0  0  0  0  2  0  0  0  0  0  0
  190.6660  176.8980  141.3420 N   0  0  0  0  0  0  0  0  0  0  0  0
  189.3350  174.2260  136.2250 C   0  0  0  0  0  2  0  0  0  0  0  0
  190.5360  173.8540  137.0760 C   0  0  0  0  0  2  0  0  0  0  0  0
  191.7960  173.8560  136.2250 C   0  0  0  0  0  2  0  0  0  0  0  0
  192.1440  172.4980  135.8380 N   0  0  0  0  0  2  0  0  0  0  0  0
  193.5610  172.3150  136.0940 C   0  0  0  0  0  2  0  0  0  0  0  0
  196.1840  176.2780  135.0160 C   0  0  0  0  0  0  0  0  0  0  0  0
  196.8150  172.2060  134.5960 C   0  0  0  0  0  1  0  0  0  0  0  0
  196.6710  173.5130  135.3530 C   0  0  2  0  0  0  0  0  0  0  0  0
  194.2360  173.6750  136.2700 C   0  0  2  0  0  3  0  0  0  0  0  0
  197.0480  173.2380  136.8230 C   0  0  2  0  0  3  0  0  0  0  0  0
  195.2020  174.0220  135.1340 C   0  0  1  0  0  3  0  0  0  0  0  0
  196.0570  177.5170  134.8400 O   0  0  0  0  0  0  0  0  0  0  0  0
  197.4540  175.6340  136.8900 O   0  0  0  0  0  0  0  0  0  0  0  0
  195.8410  172.9000  137.6990 C   0  0  0  0  0  2  0  0  0  0  0  0
  197.9240  174.3850  137.3470 C   0  0  1  0  0  3  0  0  0  0  0  0
  195.1070  175.4190  134.8330 O   0  0  0  0  0  0  0  0  0  0  0  0
  197.6120  174.4300  134.8180 O   0  0  0  0  0  0  0  0  0  0  0  0
  194.8180  173.8500  137.5430 O   0  0  0  0  0  0  0  0  0  0  0  0
  197.4690  175.6930  135.4660 C   0  0  1  0  0  3  0  0  0  0  0  0
  197.2190  175.1330  139.6320 C   0  0  0  0  0  2  0  0  0  0  0  0
  198.1650  174.3250  138.8650 C   0  0  2  0  0  3  0  0  0  0  0  0
  198.5730  175.6470  139.3640 N   0  0  0  0  0  2  0  0  0  0  0  0
  1  5  1  0  0  0  0
  2  3  1  0  0  0  0
  3  5  2  0  0  0  0
  4  1  2  0  0  0  0
  5  7  1  0  0  0  0
  6  4  1  0  0  0  0
  6  2  2  0  0  0  0
  7  8  2  0  0  0  0
  8  9  1  0  0  0  0
  9 19  1  0  0  0  0
 10 15  1  0  0  0  0
 11 13  1  0  0  0  0
 13 12  1  0  0  0  0
 14 10  1  0  0  0  0
 14 11  1  0  0  0  0
 15  9  1  0  0  0  0
 15 12  1  0  0  0  0
 16 11  1  0  0  0  0
 17 16  1  0  0  0  0
 18 16  1  0  0  0  0
 19 20  1  0  0  0  0
 21 22  1  0  0  0  0
 23 20  1  6  0  0  0
 23 24  1  0  0  0  0
 23 26  1  0  0  0  0
 24 25  2  0  0  0  0
 25 22  1  0  0  0  0
 26 27  1  6  0  0  0
 26 21  1  0  0  0  0
 27 28  1  0  0  0  0
 28 29  2  0  0  0  0
 30 28  1  0  0  0  0
 31 30  1  0  0  0  0
 32 33  2  0  0  0  0
 33 31  1  0  0  0  0
 34  2  1  0  0  0  0
 34 35  1  0  0  0  0
 36 35  1  0  0  0  0
 37 38  1  0  0  0  0
 37 36  1  0  0  0  0
 39 52  1  0  0  0  0
 41 40  1  6  0  0  0
 41 43  1  0  0  0  0
 42 38  1  6  0  0  0
 42 51  1  0  0  0  0
 43 48  1  0  0  0  0
 43 47  1  1  0  0  0
 44 49  1  1  0  0  0
 44 41  1  0  0  0  0
 44 42  1  0  0  0  0
 45 39  2  0  0  0  0
 48 46  1  1  0  0  0
 48 54  1  0  0  0  0
 49 39  1  0  0  0  0
 50 41  1  0  0  0  0
 51 47  1  0  0  0  0
 52 50  1  6  0  0  0
 52 46  1  0  0  0  0
 54 55  1  0  0  0  0
 54 53  1  1  0  0  0
 55 53  1  0  0  0  0
M  END
>  <MODEL>
6

>  <REMARK>
 VINA RESULT:      -6.6      4.798      9.623
  Name = 
  19 active torsions:
  status: ('A' for Active; 'I' for Inactive)
    1  A    between atoms: C_2  and  C_44
    2  A    between atoms: C_4  and  N_37
    3  A    between atoms: C_4  and  C_40
    4  A    between atoms: C_5  and  C_40
    5  A    between atoms: C_5  and  O_45
    6  A    between atoms: C_7  and  C_22
    7  A    between atoms: N_8  and  C_22
    8  A    between atoms: N_8  and  C_43
    9  A    between atoms: C_10  and  N_32
   10  A    between atoms: C_12  and  C_38
   11  A    between atoms: C_16  and  C_36
   12  A    between atoms: C_26  and  O_45
   13  A    between atoms: C_27  and  C_54
   14  A    between atoms: C_28  and  N_49
   15  A    between atoms: C_33  and  C_36
   16  A    between atoms: C_33  and  N_49
   17  A    between atoms: C_43  and  C_51
   18  A    between atoms: N_49  and  C_52
   19  A    between atoms: C_51  and  C_54
                            x       y       z     vdW  Elec       q    Type
                         _______ _______ _______ _____ _____    ______ ____

>  <TORSDO>
F 19

$$$$
=
 OpenBabel11052414543D

 55 61  0  0  1  0  0  0  0  0999 V2000
  185.5200  172.1670  136.5290 C   0  0  0  0  0  3  0  0  0  0  0  0
  183.1650  173.5450  135.9110 C   0  0  0  0  0  0  0  0  0  0  0  0
  184.3850  174.2260  135.9500 C   0  0  0  0  0  3  0  0  0  0  0  0
  184.2990  171.4860  136.4960 C   0  0  0  0  0  3  0  0  0  0  0  0
  185.5670  173.5430  136.2560 C   0  0  0  0  0  0  0  0  0  0  0  0
  183.1210  172.1760  136.1890 C   0  0  0  0  0  3  0  0  0  0  0  0
  186.8220  174.3000  136.2800 C   0  0  0  0  0  3  0  0  0  0  0  0
  186.9620  175.4760  136.8870 C   0  0  0  0  0  3  0  0  0  0  0  0
  188.2090  176.1870  136.8880 N   0  0  0  0  0  0  0  0  0  0  0  0
  190.3420  176.4880  135.6380 C   0  0  0  0  0  2  0  0  0  0  0  0
  191.7650  174.4110  135.6260 N   0  0  0  0  0  0  0  0  0  0  0  0
  190.0660  174.6570  137.3840 C   0  0  0  0  0  2  0  0  0  0  0  0
  191.5450  174.4370  137.0780 C   0  0  0  0  0  2  0  0  0  0  0  0
  191.6160  175.7900  135.1310 C   0  0  0  0  0  2  0  0  0  0  0  0
  189.3720  175.5120  136.3170 C   0  0  0  0  0  3  0  0  0  0  0  0
  193.1460  173.9610  135.3680 C   0  0  0  0  0  3  0  0  0  0  0  0
  193.8300  173.5170  136.6530 C   0  0  0  0  0  1  0  0  0  0  0  0
  193.9890  175.0840  134.7790 C   0  0  0  0  0  1  0  0  0  0  0  0
  188.3630  177.4410  137.6340 C   0  0  0  0  0  2  0  0  0  0  0  0
  188.1390  177.2140  139.1250 C   0  0  0  0  0  2  0  0  0  0  0  0
  190.5220  177.7540  142.0910 C   0  0  0  0  0  2  0  0  0  0  0  0
  191.7250  177.1810  141.3640 C   0  0  0  0  0  2  0  0  0  0  0  0
  189.2180  177.8800  139.9650 C   0  0  2  0  0  3  0  0  0  0  0  0
  190.5430  177.7700  139.2530 C   0  0  0  0  0  3  0  0  0  0  0  0
  191.6880  177.5000  139.8950 C   0  0  0  0  0  3  0  0  0  0  0  0
  189.2580  177.2920  141.3800 C   0  0  2  0  0  3  0  0  0  0  0  0
  188.1100  177.6960  142.1140 O   0  0  0  0  0  0  0  0  0  0  0  0
  187.8250  177.2110  143.3910 C   0  0  0  0  0  0  0  0  0  0  0  0
  187.6090  175.9820  143.5450 O   0  0  0  0  0  0  0  0  0  0  0  0
  187.8200  178.1060  144.5900 C   0  0  0  0  0  2  0  0  0  0  0  0
  187.3590  177.3580  145.8310 C   0  0  0  0  0  2  0  0  0  0  0  0
  189.5590  176.9380  146.5460 C   0  0  0  0  0  2  0  0  0  0  0  0
  188.3910  177.3780  146.8300 N   0  0  0  0  0  0  0  0  0  0  0  0
  181.9180  174.2910  135.5880 C   0  0  0  0  0  2  0  0  0  0  0  0
  181.2300  174.7510  136.8610 C   0  0  0  0  0  2  0  0  0  0  0  0
  180.3890  173.6220  137.4340 C   0  0  0  0  0  2  0  0  0  0  0  0
  179.8310  174.0140  138.7190 N   0  0  0  0  0  2  0  0  0  0  0  0
  179.7510  175.4640  138.7410 C   0  0  0  0  0  2  0  0  0  0  0  0
  179.7910  178.2830  142.7160 C   0  0  0  0  0  0  0  0  0  0  0  0
  179.8870  179.0440  138.6460 C   0  0  0  0  0  1  0  0  0  0  0  0
  180.4360  178.5710  139.9780 C   0  0  2  0  0  0  0  0  0  0  0  0
  180.1500  175.9840  140.1220 C   0  0  2  0  0  3  0  0  0  0  0  0
  181.9300  178.2450  139.7700 C   0  0  2  0  0  3  0  0  0  0  0  0
  179.5570  177.3580  140.4450 C   0  0  1  0  0  3  0  0  0  0  0  0
  179.5210  178.2460  143.9430 O   0  0  0  0  0  0  0  0  0  0  0  0
  182.0630  178.5720  142.1750 O   0  0  0  0  0  0  0  0  0  0  0  0
  182.1830  176.7730  139.4410 C   0  0  0  0  0  2  0  0  0  0  0  0
  182.7400  178.7880  140.9560 C   0  0  1  0  0  3  0  0  0  0  0  0
  179.1820  177.4050  141.8270 O   0  0  0  0  0  0  0  0  0  0  0  0
  180.3420  179.6500  140.8940 O   0  0  0  0  0  0  0  0  0  0  0  0
  181.5390  175.9290  140.3600 O   0  0  0  0  0  0  0  0  0  0  0  0
  180.7980  179.2280  142.1780 C   0  0  1  0  0  3  0  0  0  0  0  0
  185.0490  179.0750  141.8840 C   0  0  0  0  0  2  0  0  0  0  0  0
  184.2040  178.3190  140.9620 C   0  0  2  0  0  3  0  0  0  0  0  0
  185.0780  179.3840  140.4450 N   0  0  0  0  0  2  0  0  0  0  0  0
  2  3  2  0  0  0  0
  2  6  1  0  0  0  0
  3  5  1  0  0  0  0
  4  1  1  0  0  0  0
  5  7  1  0  0  0  0
  5  1  2  0  0  0  0
  6  4  2  0  0  0  0
  7  8  2  0  0  0  0
  8  9  1  0  0  0  0
  9 19  1  0  0  0  0
 10 15  1  0  0  0  0
 11 13  1  0  0  0  0
 13 12  1  0  0  0  0
 14 11  1  0  0  0  0
 14 10  1  0  0  0  0
 15  9  1  0  0  0  0
 15 12  1  0  0  0  0
 16 11  1  0  0  0  0
 16 17  1  0  0  0  0
 18 16  1  0  0  0  0
 19 20  1  0  0  0  0
 22 21  1  0  0  0  0
 23 20  1  6  0  0  0
 23 26  1  0  0  0  0
 24 25  2  0  0  0  0
 24 23  1  0  0  0  0
 25 22  1  0  0  0  0
 26 21  1  0  0  0  0
 26 27  1  1  0  0  0
 27 28  1  0  0  0  0
 28 29  2  0  0  0  0
 28 30  1  0  0  0  0
 30 31  1  0  0  0  0
 31 33  1  0  0  0  0
 32 33  2  0  0  0  0
 34  2  1  0  0  0  0
 34 35  1  0  0  0  0
 35 36  1  0  0  0  0
 36 37  1  0  0  0  0
 37 38  1  0  0  0  0
 39 45  2  0  0  0  0
 41 40  1  6  0  0  0
 41 44  1  0  0  0  0
 41 50  1  0  0  0  0
 42 38  1  6  0  0  0
 42 51  1  0  0  0  0
 42 44  1  0  0  0  0
 43 47  1  1  0  0  0
 43 41  1  0  0  0  0
 43 48  1  0  0  0  0
 44 49  1  1  0  0  0
 46 52  1  0  0  0  0
 47 51  1  0  0  0  0
 48 54  1  0  0  0  0
 48 46  1  1  0  0  0
 49 39  1  0  0  0  0
 52 50  1  6  0  0  0
 52 39  1  0  0  0  0
 54 53  1  1  0  0  0
 55 54  1  0  0  0  0
 55 53  1  0  0  0  0
M  END
>  <MODEL>
7

>  <REMARK>
 VINA RESULT:      -6.4      2.629      6.030
  Name = 
  19 active torsions:
  status: ('A' for Active; 'I' for Inactive)
    1  A    between atoms: C_2  and  C_44
    2  A    between atoms: C_4  and  N_37
    3  A    between atoms: C_4  and  C_40
    4  A    between atoms: C_5  and  C_40
    5  A    between atoms: C_5  and  O_45
    6  A    between atoms: C_7  and  C_22
    7  A    between atoms: N_8  and  C_22
    8  A    between atoms: N_8  and  C_43
    9  A    between atoms: C_10  and  N_32
   10  A    between atoms: C_12  and  C_38
   11  A    between atoms: C_16  and  C_36
   12  A    between atoms: C_26  and  O_45
   13  A    between atoms: C_27  and  C_54
   14  A    between atoms: C_28  and  N_49
   15  A    between atoms: C_33  and  C_36
   16  A    between atoms: C_33  and  N_49
   17  A    between atoms: C_43  and  C_51
   18  A    between atoms: N_49  and  C_52
   19  A    between atoms: C_51  and  C_54
                            x       y       z     vdW  Elec       q    Type
                         _______ _______ _______ _____ _____    ______ ____

>  <TORSDO>
F 19

$$$$
=
 OpenBabel11052414543D

 55 61  0  0  1  0  0  0  0  0999 V2000
  190.7250  177.9460  141.6570 C   0  0  0  0  0  3  0  0  0  0  0  0
  190.3460  176.6450  139.2100 C   0  0  0  0  0  0  0  0  0  0  0  0
  189.2510  177.1790  139.8960 C   0  0  0  0  0  3  0  0  0  0  0  0
  191.8200  177.4070  140.9750 C   0  0  0  0  0  3  0  0  0  0  0  0
  189.4340  177.8330  141.1190 C   0  0  0  0  0  0  0  0  0  0  0  0
  191.6300  176.7540  139.7520 C   0  0  0  0  0  3  0  0  0  0  0  0
  188.2550  178.3810  141.7980 C   0  0  0  0  0  3  0  0  0  0  0  0
  187.0470  177.8280  141.7380 C   0  0  0  0  0  3  0  0  0  0  0  0
  185.9160  178.3950  142.4170 N   0  0  0  0  0  0  0  0  0  0  0  0
  185.0750  178.7140  140.0950 C   0  0  0  0  0  2  0  0  0  0  0  0
  182.6610  179.4260  140.0240 N   0  0  0  0  0  0  0  0  0  0  0  0
  183.4910  178.2980  142.0430 C   0  0  0  0  0  2  0  0  0  0  0  0
  182.4560  178.2810  140.9210 C   0  0  0  0  0  2  0  0  0  0  0  0
  183.8780  179.1600  139.2370 C   0  0  0  0  0  2  0  0  0  0  0  0
  184.8240  178.9100  141.5960 C   0  0  0  0  0  3  0  0  0  0  0  0
  181.5110  179.5130  139.1030 C   0  0  0  0  0  3  0  0  0  0  0  0
  181.7180  178.6300  137.8800 C   0  0  0  0  0  1  0  0  0  0  0  0
  181.3190  180.9370  138.5980 C   0  0  0  0  0  1  0  0  0  0  0  0
  185.9540  178.6550  143.8610 C   0  0  0  0  0  2  0  0  0  0  0  0
  187.3240  178.3090  144.4360 C   0  0  0  0  0  2  0  0  0  0  0  0
  188.4110  177.1270  147.9270 C   0  0  0  0  0  2  0  0  0  0  0  0
  187.7050  178.2620  148.6460 C   0  0  0  0  0  2  0  0  0  0  0  0
  187.2100  177.6440  145.7990 C   0  0  2  0  0  3  0  0  0  0  0  0
  186.2270  178.4110  146.6480 C   0  0  0  0  0  3  0  0  0  0  0  0
  186.4300  178.6500  147.9510 C   0  0  0  0  0  3  0  0  0  0  0  0
  188.5850  177.5100  146.4640 C   0  0  2  0  0  3  0  0  0  0  0  0
  189.3630  176.5290  145.7920 O   0  0  0  0  0  0  0  0  0  0  0  0
  190.6060  176.8150  145.2250 C   0  0  0  0  0  0  0  0  0  0  0  0
  190.9790  178.0130  145.1380 O   0  0  0  0  0  0  0  0  0  0  0  0
  191.5290  175.7320  144.7640 C   0  0  0  0  0  2  0  0  0  0  0  0
  192.4020  175.2320  145.9040 C   0  0  0  0  0  2  0  0  0  0  0  0
  192.4580  175.7490  148.1960 C   0  0  0  0  0  2  0  0  0  0  0  0
  192.3780  176.1710  146.9910 N   0  0  0  0  0  0  0  0  0  0  0  0
  190.1310  175.9490  137.9130 C   0  0  0  0  0  2  0  0  0  0  0  0
  190.9810  176.5820  136.8250 C   0  0  0  0  0  2  0  0  0  0  0  0
  191.1510  175.6110  135.6670 C   0  0  0  0  0  2  0  0  0  0  0  0
  192.4670  175.7680  135.0690 N   0  0  0  0  0  2  0  0  0  0  0  0
  193.2840  174.6470  135.5000 C   0  0  0  0  0  2  0  0  0  0  0  0
  198.1420  174.6250  135.8780 C   0  0  0  0  0  0  0  0  0  0  0  0
  195.1660  171.9170  136.8570 C   0  0  0  0  0  1  0  0  0  0  0  0
  195.9810  173.1880  137.0000 C   0  0  2  0  0  0  0  0  0  0  0  0
  194.6950  175.1320  135.8320 C   0  0  2  0  0  3  0  0  0  0  0  0
  195.5350  173.8770  138.3060 C   0  0  2  0  0  3  0  0  0  0  0  0
  195.7570  174.0370  135.6990 C   0  0  1  0  0  3  0  0  0  0  0  0
  199.1610  175.2070  135.4250 O   0  0  0  0  0  0  0  0  0  0  0  0
  197.7090  174.9550  138.1680 O   0  0  0  0  0  0  0  0  0  0  0  0
  194.4350  174.9170  138.0910 C   0  0  0  0  0  2  0  0  0  0  0  0
  196.7710  174.3920  139.0580 C   0  0  1  0  0  3  0  0  0  0  0  0
  196.9570  174.5970  135.1530 O   0  0  0  0  0  0  0  0  0  0  0  0
  197.3430  172.8170  137.1370 O   0  0  0  0  0  0  0  0  0  0  0  0
  194.7760  175.8130  137.0650 O   0  0  0  0  0  0  0  0  0  0  0  0
  198.1510  173.9900  137.2170 C   0  0  1  0  0  3  0  0  0  0  0  0
  197.4490  176.2990  140.5350 C   0  0  0  0  0  2  0  0  0  0  0  0
  196.4250  175.2920  140.2560 C   0  0  2  0  0  3  0  0  0  0  0  0
  197.3870  175.0720  141.3470 N   0  0  0  0  0  2  0  0  0  0  0  0
  2  6  2  0  0  0  0
  2  3  1  0  0  0  0
  3  5  2  0  0  0  0
  4  1  2  0  0  0  0
  5  1  1  0  0  0  0
  5  7  1  0  0  0  0
  6  4  1  0  0  0  0
  8  7  2  0  0  0  0
  8  9  1  0  0  0  0
  9 19  1  0  0  0  0
 10 15  1  0  0  0  0
 11 13  1  0  0  0  0
 13 12  1  0  0  0  0
 14 11  1  0  0  0  0
 14 10  1  0  0  0  0
 15 12  1  0  0  0  0
 15  9  1  0  0  0  0
 16 11  1  0  0  0  0
 17 16  1  0  0  0  0
 18 16  1  0  0  0  0
 19 20  1  0  0  0  0
 21 22  1  0  0  0  0
 23 20  1  6  0  0  0
 23 26  1  0  0  0  0
 23 24  1  0  0  0  0
 24 25  2  0  0  0  0
 25 22  1  0  0  0  0
 26 27  1  6  0  0  0
 26 21  1  0  0  0  0
 28 27  1  0  0  0  0
 29 28  2  0  0  0  0
 30 28  1  0  0  0  0
 30 31  1  0  0  0  0
 31 33  1  0  0  0  0
 33 32  2  0  0  0  0
 34  2  1  0  0  0  0
 35 34  1  0  0  0  0
 36 35  1  0  0  0  0
 37 38  1  0  0  0  0
 37 36  1  0  0  0  0
 41 40  1  6  0  0  0
 41 50  1  0  0  0  0
 41 43  1  0  0  0  0
 42 38  1  1  0  0  0
 42 51  1  0  0  0  0
 43 47  1  6  0  0  0
 43 48  1  0  0  0  0
 44 49  1  1  0  0  0
 44 42  1  0  0  0  0
 44 41  1  0  0  0  0
 45 39  2  0  0  0  0
 48 46  1  6  0  0  0
 48 54  1  0  0  0  0
 49 39  1  0  0  0  0
 50 52  1  0  0  0  0
 51 47  1  0  0  0  0
 52 39  1  6  0  0  0
 52 46  1  0  0  0  0
 53 55  1  0  0  0  0
 54 53  1  6  0  0  0
 54 55  1  0  0  0  0
M  END
>  <MODEL>
8

>  <REMARK>
 VINA RESULT:      -6.4      4.570      9.066
  Name = 
  19 active torsions:
  status: ('A' for Active; 'I' for Inactive)
    1  A    between atoms: C_2  and  C_44
    2  A    between atoms: C_4  and  N_37
    3  A    between atoms: C_4  and  C_40
    4  A    between atoms: C_5  and  C_40
    5  A    between atoms: C_5  and  O_45
    6  A    between atoms: C_7  and  C_22
    7  A    between atoms: N_8  and  C_22
    8  A    between atoms: N_8  and  C_43
    9  A    between atoms: C_10  and  N_32
   10  A    between atoms: C_12  and  C_38
   11  A    between atoms: C_16  and  C_36
   12  A    between atoms: C_26  and  O_45
   13  A    between atoms: C_27  and  C_54
   14  A    between atoms: C_28  and  N_49
   15  A    between atoms: C_33  and  C_36
   16  A    between atoms: C_33  and  N_49
   17  A    between atoms: C_43  and  C_51
   18  A    between atoms: N_49  and  C_52
   19  A    between atoms: C_51  and  C_54
                            x       y       z     vdW  Elec       q    Type
                         _______ _______ _______ _____ _____    ______ ____

>  <TORSDO>
F 19

$$$$
=
 OpenBabel11052414543D

 55 61  0  0  1  0  0  0  0  0999 V2000
  188.7430  179.0230  138.7280 C   0  0  0  0  0  3  0  0  0  0  0  0
  188.4040  176.8530  136.9950 C   0  0  0  0  0  0  0  0  0  0  0  0
  188.0870  176.7230  138.3500 C   0  0  0  0  0  3  0  0  0  0  0  0
  189.0670  179.1520  137.3730 C   0  0  0  0  0  3  0  0  0  0  0  0
  188.2520  177.8040  139.2220 C   0  0  0  0  0  0  0  0  0  0  0  0
  188.8990  178.0660  136.5070 C   0  0  0  0  0  3  0  0  0  0  0  0
  187.9000  177.6200  140.6340 C   0  0  0  0  0  3  0  0  0  0  0  0
  186.8860  178.2440  141.2270 C   0  0  0  0  0  3  0  0  0  0  0  0
  186.5730  178.0370  142.6130 N   0  0  0  0  0  0  0  0  0  0  0  0
  184.9130  179.5760  143.6510 C   0  0  0  0  0  2  0  0  0  0  0  0
  182.5430  178.7630  143.4000 N   0  0  0  0  0  0  0  0  0  0  0  0
  184.2440  177.9140  141.8430 C   0  0  0  0  0  2  0  0  0  0  0  0
  182.9010  178.6270  141.9820 C   0  0  0  0  0  2  0  0  0  0  0  0
  183.4250  179.7880  143.9840 C   0  0  0  0  0  2  0  0  0  0  0  0
  185.1810  178.2020  143.0220 C   0  0  0  0  0  3  0  0  0  0  0  0
  181.1470  179.2330  143.4890 C   0  0  0  0  0  3  0  0  0  0  0  0
  180.2320  178.1410  144.0240 C   0  0  0  0  0  1  0  0  0  0  0  0
  180.6120  179.6320  142.1200 C   0  0  0  0  0  1  0  0  0  0  0  0
  187.6350  177.8920  143.6150 C   0  0  0  0  0  2  0  0  0  0  0  0
  187.0670  178.0130  145.0250 C   0  0  0  0  0  2  0  0  0  0  0  0
  190.1200  177.8510  147.3530 C   0  0  0  0  0  2  0  0  0  0  0  0
  189.3320  178.2530  148.5870 C   0  0  0  0  0  2  0  0  0  0  0  0
  188.0180  177.4440  146.0660 C   0  0  2  0  0  3  0  0  0  0  0  0
  187.3210  177.3860  147.4020 C   0  0  0  0  0  3  0  0  0  0  0  0
  187.9300  177.7070  148.5510 C   0  0  0  0  0  3  0  0  0  0  0  0
  189.3240  178.2460  146.1170 C   0  0  2  0  0  3  0  0  0  0  0  0
  190.0930  178.0090  144.9460 O   0  0  0  0  0  0  0  0  0  0  0  0
  191.0240  176.9730  144.8550 C   0  0  0  0  0  0  0  0  0  0  0  0
  191.3220  176.3260  145.8910 O   0  0  0  0  0  0  0  0  0  0  0  0
  191.6400  176.5790  143.5500 C   0  0  0  0  0  2  0  0  0  0  0  0
  190.5990  176.0040  142.6040 C   0  0  0  0  0  2  0  0  0  0  0  0
  191.5220  177.5020  141.0450 C   0  0  0  0  0  2  0  0  0  0  0  0
  190.8760  176.4180  141.2560 N   0  0  0  0  0  0  0  0  0  0  0  0
  188.2250  175.6900  136.0840 C   0  0  0  0  0  2  0  0  0  0  0  0
  187.0530  175.9250  135.1480 C   0  0  0  0  0  2  0  0  0  0  0  0
  185.7670  176.0570  135.9490 C   0  0  0  0  0  2  0  0  0  0  0  0
  184.7730  175.1140  135.4620 N   0  0  0  0  0  2  0  0  0  0  0  0
  183.4740  175.5590  135.9330 C   0  0  0  0  0  2  0  0  0  0  0  0
  183.4090  179.5720  138.6970 C   0  0  0  0  0  0  0  0  0  0  0  0
  180.9490  176.2560  138.3790 C   0  0  0  0  0  1  0  0  0  0  0  0
  181.5690  177.5660  137.9320 C   0  0  2  0  0  0  0  0  0  0  0  0
  183.5380  177.0400  136.3060 C   0  0  2  0  0  3  0  0  0  0  0  0
  180.8300  178.0140  136.6550 C   0  0  2  0  0  3  0  0  0  0  0  0
  183.1080  177.3180  137.7500 C   0  0  1  0  0  3  0  0  0  0  0  0
  184.1610  180.4990  139.0930 O   0  0  0  0  0  0  0  0  0  0  0  0
  181.6530  180.2170  137.2690 O   0  0  0  0  0  0  0  0  0  0  0  0
  181.5180  177.5520  135.3690 C   0  0  0  0  0  2  0  0  0  0  0  0
  180.5500  179.5220  136.7300 C   0  0  1  0  0  3  0  0  0  0  0  0
  183.9350  178.3470  138.3060 O   0  0  0  0  0  0  0  0  0  0  0  0
  181.3250  178.5290  138.9450 O   0  0  0  0  0  0  0  0  0  0  0  0
  182.8840  177.8790  135.3790 O   0  0  0  0  0  0  0  0  0  0  0  0
  181.9430  179.7640  138.5890 C   0  0  1  0  0  3  0  0  0  0  0  0
  180.4390  181.4960  135.1910 C   0  0  0  0  0  2  0  0  0  0  0  0
  180.0230  180.1120  135.4110 C   0  0  2  0  0  3  0  0  0  0  0  0
  179.0830  181.2090  135.6890 N   0  0  0  0  0  2  0  0  0  0  0  0
  1  5  1  0  0  0  0
  2  3  1  0  0  0  0
  3  5  2  0  0  0  0
  4  1  2  0  0  0  0
  5  7  1  0  0  0  0
  6  2  2  0  0  0  0
  6  4  1  0  0  0  0
  7  8  2  0  0  0  0
  8  9  1  0  0  0  0
  9 15  1  0  0  0  0
  9 19  1  0  0  0  0
 10 14  1  0  0  0  0
 11 16  1  0  0  0  0
 11 14  1  0  0  0  0
 12 13  1  0  0  0  0
 12 15  1  0  0  0  0
 13 11  1  0  0  0  0
 15 10  1  0  0  0  0
 16 17  1  0  0  0  0
 18 16  1  0  0  0  0
 19 20  1  0  0  0  0
 21 22  1  0  0  0  0
 23 20  1  6  0  0  0
 23 26  1  0  0  0  0
 23 24  1  0  0  0  0
 24 25  2  0  0  0  0
 25 22  1  0  0  0  0
 26 27  1  6  0  0  0
 26 21  1  0  0  0  0
 28 27  1  0  0  0  0
 28 29  2  0  0  0  0
 30 28  1  0  0  0  0
 31 30  1  0  0  0  0
 32 33  2  0  0  0  0
 33 31  1  0  0  0  0
 34  2  1  0  0  0  0
 35 36  1  0  0  0  0
 35 34  1  0  0  0  0
 37 38  1  0  0  0  0
 37 36  1  0  0  0  0
 39 45  2  0  0  0  0
 41 40  1  1  0  0  0
 41 50  1  0  0  0  0
 42 38  1  6  0  0  0
 42 44  1  0  0  0  0
 43 47  1  6  0  0  0
 43 48  1  0  0  0  0
 43 41  1  0  0  0  0
 44 41  1  0  0  0  0
 44 49  1  6  0  0  0
 47 51  1  0  0  0  0
 48 46  1  6  0  0  0
 49 39  1  0  0  0  0
 51 42  1  0  0  0  0
 52 46  1  6  0  0  0
 52 39  1  0  0  0  0
 52 50  1  0  0  0  0
 53 55  1  0  0  0  0
 54 53  1  6  0  0  0
 54 55  1  0  0  0  0
 54 48  1  0  0  0  0
M  END
>  <MODEL>
9

>  <REMARK>
 VINA RESULT:      -6.4      2.262      6.211
  Name = 
  19 active torsions:
  status: ('A' for Active; 'I' for Inactive)
    1  A    between atoms: C_2  and  C_44
    2  A    between atoms: C_4  and  N_37
    3  A    between atoms: C_4  and  C_40
    4  A    between atoms: C_5  and  C_40
    5  A    between atoms: C_5  and  O_45
    6  A    between atoms: C_7  and  C_22
    7  A    between atoms: N_8  and  C_22
    8  A    between atoms: N_8  and  C_43
    9  A    between atoms: C_10  and  N_32
   10  A    between atoms: C_12  and  C_38
   11  A    between atoms: C_16  and  C_36
   12  A    between atoms: C_26  and  O_45
   13  A    between atoms: C_27  and  C_54
   14  A    between atoms: C_28  and  N_49
   15  A    between atoms: C_33  and  C_36
   16  A    between atoms: C_33  and  N_49
   17  A    between atoms: C_43  and  C_51
   18  A    between atoms: N_49  and  C_52
   19  A    between atoms: C_51  and  C_54
                            x       y       z     vdW  Elec       q    Type
                         _______ _______ _______ _____ _____    ______ ____

>  <TORSDO>
F 19

$$$$
