=
 OpenBabel11052412453D

 25 28  0  0  1  0  0  0  0  0999 V2000
  188.0020  177.1600  145.0650 C   0  0  0  0  0  0  0  0  0  0  0  0
  186.8910  177.9240  145.2540 N   0  0  0  0  0  0  0  0  0  0  0  0
  187.5880  178.5590  147.4370 C   0  0  0  0  0  3  0  0  0  0  0  0
  185.8190  178.1830  144.4900 C   0  0  0  0  0  0  0  0  0  0  0  0
  190.5620  177.2650  142.2210 N   0  0  0  0  0  2  0  0  0  0  0  0
  183.4420  179.0350  143.3630 C   0  0  0  0  0  3  0  0  0  0  0  0
  188.7230  177.8230  147.2560 N   0  0  0  0  0  0  0  0  0  0  0  0
  184.9840  179.0110  145.1950 C   0  0  0  0  0  0  0  0  0  0  0  0
  183.7790  179.4610  144.6620 C   0  0  0  0  0  3  0  0  0  0  0  0
  190.2570  176.4080  145.8390 C   0  0  2  0  0  3  0  0  0  0  0  0
  191.3130  176.7170  146.8880 C   0  0  0  0  0  1  0  0  0  0  0  0
  189.8970  177.3820  140.9580 C   0  0  0  0  0  0  0  0  0  0  0  0
  188.2980  176.1980  143.5730 S   0  0  0  0  0  0  0  0  0  0  0  0
  184.3050  178.1830  142.6390 C   0  0  0  0  0  3  0  0  0  0  0  0
  186.6630  178.6050  146.3990 C   0  0  0  0  0  0  0  0  0  0  0  0
  185.4940  179.2950  146.4130 N   0  0  0  0  0  0  0  0  0  0  0  0
  190.7620  176.7810  144.5150 N   0  0  0  0  0  0  0  0  0  0  0  0
  185.5160  177.7430  143.2020 C   0  0  0  0  0  3  0  0  0  0  0  0
  190.0130  176.7680  143.4500 C   0  0  0  0  0  0  0  0  0  0  0  0
  188.9570  177.1300  146.0970 C   0  0  0  0  0  0  0  0  0  0  0  0
  188.6960  177.0340  140.8110 O   0  0  0  0  0  0  0  0  0  0  0  0
  190.6530  177.9020  139.7840 C   0  0  0  0  0  2  0  0  0  0  0  0
  190.4710  177.0020  138.6120 C   0  0  0  0  0  0  0  0  0  0  0  0
  189.9640  177.4450  137.5500 O   0  0  0  0  0  0  0  0  0  0  0  0
  190.9020  175.6470  138.6810 N   0  0  0  0  0  1  0  0  0  0  0  0
  1  2  1  0  0  0  0
  1 20  2  0  0  0  0
  2 15  1  0  0  0  0
  4  8  1  0  0  0  0
  4  2  1  0  0  0  0
  5 19  1  0  0  0  0
  6  9  1  0  0  0  0
  7  3  2  0  0  0  0
  8 16  1  0  0  0  0
  9  8  2  0  0  0  0
 10 20  1  0  0  0  0
 10 11  1  1  0  0  0
 12  5  1  0  0  0  0
 13  1  1  0  0  0  0
 14 18  1  0  0  0  0
 14  6  2  0  0  0  0
 15 16  2  0  0  0  0
 15  3  1  0  0  0  0
 17 10  1  0  0  0  0
 18  4  2  0  0  0  0
 19 13  1  0  0  0  0
 19 17  2  0  0  0  0
 20  7  1  0  0  0  0
 21 12  2  0  0  0  0
 22 12  1  0  0  0  0
 23 25  1  0  0  0  0
 23 22  1  0  0  0  0
 24 23  2  0  0  0  0
M  END
>  <MODEL>
1

>  <REMARK>
 VINA RESULT:      -8.4      0.000      0.000
  Name = 
  2 active torsions:
  status: ('A' for Active; 'I' for Inactive)
    1  A    between atoms: C_2  and  C_21
    2  A    between atoms: C_15  and  C_21
                            x       y       z     vdW  Elec       q    Type
                         _______ _______ _______ _____ _____    ______ ____

>  <TORSDO>
F 2

$$$$
=
 OpenBabel11052412453D

 25 28  0  0  1  0  0  0  0  0999 V2000
  187.7040  178.0280  142.4580 C   0  0  0  0  0  0  0  0  0  0  0  0
  188.6890  177.4780  141.6960 N   0  0  0  0  0  0  0  0  0  0  0  0
  189.6500  176.3760  143.5720 C   0  0  0  0  0  3  0  0  0  0  0  0
  188.9900  177.5630  140.3920 C   0  0  0  0  0  0  0  0  0  0  0  0
  183.9080  177.8780  141.9900 N   0  0  0  0  0  2  0  0  0  0  0  0
  190.0470  177.3890  137.8420 C   0  0  0  0  0  3  0  0  0  0  0  0
  188.6520  176.8920  144.3480 N   0  0  0  0  0  0  0  0  0  0  0  0
  190.1160  176.8140  140.1650 C   0  0  0  0  0  0  0  0  0  0  0  0
  190.6780  176.7020  138.8960 C   0  0  0  0  0  3  0  0  0  0  0  0
  186.5070  178.1850  144.6470 C   0  0  2  0  0  3  0  0  0  0  0  0
  186.4320  177.5090  146.0070 C   0  0  0  0  0  1  0  0  0  0  0  0
  183.5670  178.0990  140.6160 C   0  0  0  0  0  0  0  0  0  0  0  0
  186.4500  179.1390  141.8010 S   0  0  0  0  0  0  0  0  0  0  0  0
  188.8860  178.1600  138.0780 C   0  0  0  0  0  3  0  0  0  0  0  0
  189.6490  176.6810  142.2140 C   0  0  0  0  0  0  0  0  0  0  0  0
  190.5580  176.2420  141.3070 N   0  0  0  0  0  0  0  0  0  0  0  0
  185.2650  177.9370  143.9110 N   0  0  0  0  0  0  0  0  0  0  0  0
  188.3400  178.2550  139.3700 C   0  0  0  0  0  3  0  0  0  0  0  0
  185.1140  178.2690  142.6610 C   0  0  0  0  0  0  0  0  0  0  0  0
  187.6780  177.7020  143.8260 C   0  0  0  0  0  0  0  0  0  0  0  0
  184.3500  178.6970  139.8320 O   0  0  0  0  0  0  0  0  0  0  0  0
  182.2440  177.6350  140.1120 C   0  0  0  0  0  2  0  0  0  0  0  0
  181.1520  178.4680  140.6870 C   0  0  0  0  0  0  0  0  0  0  0  0
  181.1270  179.7080  140.4750 O   0  0  0  0  0  0  0  0  0  0  0  0
  180.1150  177.8570  141.4470 N   0  0  0  0  0  1  0  0  0  0  0  0
  1 20  2  0  0  0  0
  2 15  1  0  0  0  0
  2  1  1  0  0  0  0
  3  7  2  0  0  0  0
  4  2  1  0  0  0  0
  5 19  1  0  0  0  0
  6 14  2  0  0  0  0
  6  9  1  0  0  0  0
  8  4  1  0  0  0  0
  8 16  1  0  0  0  0
  9  8  2  0  0  0  0
 10 11  1  1  0  0  0
 12  5  1  0  0  0  0
 13  1  1  0  0  0  0
 13 19  1  0  0  0  0
 14 18  1  0  0  0  0
 15  3  1  0  0  0  0
 16 15  2  0  0  0  0
 17 10  1  0  0  0  0
 18  4  2  0  0  0  0
 19 17  2  0  0  0  0
 20  7  1  0  0  0  0
 20 10  1  0  0  0  0
 21 12  2  0  0  0  0
 22 12  1  0  0  0  0
 22 23  1  0  0  0  0
 23 25  1  0  0  0  0
 24 23  2  0  0  0  0
M  END
>  <MODEL>
2

>  <REMARK>
 VINA RESULT:      -7.4      3.134      6.572
  Name = 
  2 active torsions:
  status: ('A' for Active; 'I' for Inactive)
    1  A    between atoms: C_2  and  C_21
    2  A    between atoms: C_15  and  C_21
                            x       y       z     vdW  Elec       q    Type
                         _______ _______ _______ _____ _____    ______ ____

>  <TORSDO>
F 2

$$$$
=
 OpenBabel11052412453D

 25 28  0  0  1  0  0  0  0  0999 V2000
  186.9480  178.2610  142.6070 C   0  0  0  0  0  0  0  0  0  0  0  0
  188.0670  177.6530  142.1280 N   0  0  0  0  0  0  0  0  0  0  0  0
  188.6100  176.7660  144.2670 C   0  0  0  0  0  3  0  0  0  0  0  0
  188.6350  177.6080  140.9130 C   0  0  0  0  0  0  0  0  0  0  0  0
  183.3320  177.9980  141.3760 N   0  0  0  0  0  2  0  0  0  0  0  0
  190.2000  177.1910  138.6720 C   0  0  0  0  0  3  0  0  0  0  0  0
  187.4750  177.3420  144.7600 N   0  0  0  0  0  0  0  0  0  0  0  0
  189.7800  176.8590  141.0050 C   0  0  0  0  0  0  0  0  0  0  0  0
  190.5940  176.6270  139.9000 C   0  0  0  0  0  3  0  0  0  0  0  0
  185.3210  178.6210  144.4700 C   0  0  2  0  0  3  0  0  0  0  0  0
  184.9600  178.0880  145.8470 C   0  0  0  0  0  1  0  0  0  0  0  0
  183.2870  178.0710  139.9460 C   0  0  0  0  0  0  0  0  0  0  0  0
  185.8640  179.2770  141.5910 S   0  0  0  0  0  0  0  0  0  0  0  0
  189.0190  177.9620  138.5790 C   0  0  0  0  0  3  0  0  0  0  0  0
  188.8940  176.9300  142.9150 C   0  0  0  0  0  0  0  0  0  0  0  0
  189.9710  176.4160  142.2670 N   0  0  0  0  0  0  0  0  0  0  0  0
  184.2590  178.2780  143.5210 N   0  0  0  0  0  0  0  0  0  0  0  0
  188.2150  178.1800  139.7120 C   0  0  0  0  0  3  0  0  0  0  0  0
  184.3730  178.4770  142.2390 C   0  0  0  0  0  0  0  0  0  0  0  0
  186.6350  178.0770  143.9660 C   0  0  0  0  0  0  0  0  0  0  0  0
  184.2190  178.5980  139.2850 O   0  0  0  0  0  0  0  0  0  0  0  0
  182.0970  177.5350  139.2290 C   0  0  0  0  0  2  0  0  0  0  0  0
  182.1100  176.0450  139.2470 C   0  0  0  0  0  0  0  0  0  0  0  0
  183.1180  175.4200  138.8270 O   0  0  0  0  0  0  0  0  0  0  0  0
  180.9980  175.3290  139.7710 N   0  0  0  0  0  1  0  0  0  0  0  0
  1 20  2  0  0  0  0
  2  1  1  0  0  0  0
  2 15  1  0  0  0  0
  3  7  2  0  0  0  0
  4  8  1  0  0  0  0
  4  2  1  0  0  0  0
  5 19  1  0  0  0  0
  6  9  1  0  0  0  0
  8 16  1  0  0  0  0
  9  8  2  0  0  0  0
 10 11  1  1  0  0  0
 12  5  1  0  0  0  0
 13 19  1  0  0  0  0
 13  1  1  0  0  0  0
 14  6  2  0  0  0  0
 14 18  1  0  0  0  0
 15  3  1  0  0  0  0
 16 15  2  0  0  0  0
 17 10  1  0  0  0  0
 18  4  2  0  0  0  0
 19 17  2  0  0  0  0
 20 10  1  0  0  0  0
 20  7  1  0  0  0  0
 21 12  2  0  0  0  0
 22 23  1  0  0  0  0
 22 12  1  0  0  0  0
 23 25  1  0  0  0  0
 24 23  2  0  0  0  0
M  END
>  <MODEL>
3

>  <REMARK>
 VINA RESULT:      -7.4      3.260      6.283
  Name = 
  2 active torsions:
  status: ('A' for Active; 'I' for Inactive)
    1  A    between atoms: C_2  and  C_21
    2  A    between atoms: C_15  and  C_21
                            x       y       z     vdW  Elec       q    Type
                         _______ _______ _______ _____ _____    ______ ____

>  <TORSDO>
F 2

$$$$
=
 OpenBabel11052412453D

 25 28  0  0  1  0  0  0  0  0999 V2000
  186.1450  178.4800  142.8180 C   0  0  0  0  0  0  0  0  0  0  0  0
  187.3240  177.8100  142.9320 N   0  0  0  0  0  0  0  0  0  0  0  0
  186.9360  177.3340  145.2300 C   0  0  0  0  0  3  0  0  0  0  0  0
  188.3160  177.5520  142.0670 C   0  0  0  0  0  0  0  0  0  0  0  0
  183.2860  177.9490  140.3280 N   0  0  0  0  0  2  0  0  0  0  0  0
  190.6040  176.7550  140.7320 C   0  0  0  0  0  3  0  0  0  0  0  0
  185.7350  177.9750  145.1280 N   0  0  0  0  0  0  0  0  0  0  0  0
  189.2880  176.8470  142.7300 C   0  0  0  0  0  0  0  0  0  0  0  0
  190.4530  176.4290  142.0930 C   0  0  0  0  0  3  0  0  0  0  0  0
  183.9450  179.1520  143.7960 C   0  0  2  0  0  3  0  0  0  0  0  0
  183.0450  178.8730  144.9890 C   0  0  0  0  0  1  0  0  0  0  0  0
  183.8060  177.7600  139.0060 C   0  0  0  0  0  0  0  0  0  0  0  0
  185.6060  179.2790  141.2980 S   0  0  0  0  0  0  0  0  0  0  0  0
  189.6010  177.4800  140.0500 C   0  0  0  0  0  3  0  0  0  0  0  0
  187.7340  177.2520  144.0930 C   0  0  0  0  0  0  0  0  0  0  0  0
  188.9450  176.6440  144.0210 N   0  0  0  0  0  0  0  0  0  0  0  0
  183.3190  178.6270  142.5800 N   0  0  0  0  0  0  0  0  0  0  0  0
  188.4330  177.8900  140.7190 C   0  0  0  0  0  3  0  0  0  0  0  0
  183.9350  178.5920  141.4340 C   0  0  0  0  0  0  0  0  0  0  0  0
  185.3170  178.5430  143.9530 C   0  0  0  0  0  0  0  0  0  0  0  0
  184.9520  178.1700  138.6850 O   0  0  0  0  0  0  0  0  0  0  0  0
  182.9600  177.0870  137.9820 C   0  0  0  0  0  2  0  0  0  0  0  0
  182.7910  175.6460  138.3180 C   0  0  0  0  0  0  0  0  0  0  0  0
  181.7380  175.2500  138.8840 O   0  0  0  0  0  0  0  0  0  0  0  0
  183.8030  174.7090  137.9680 N   0  0  0  0  0  1  0  0  0  0  0  0
  1  2  1  0  0  0  0
  1 20  2  0  0  0  0
  2 15  1  0  0  0  0
  4  8  1  0  0  0  0
  4  2  1  0  0  0  0
  5 19  1  0  0  0  0
  6  9  1  0  0  0  0
  7  3  2  0  0  0  0
  8 16  1  0  0  0  0
  9  8  2  0  0  0  0
 10 20  1  0  0  0  0
 10 11  1  1  0  0  0
 12  5  1  0  0  0  0
 13 19  1  0  0  0  0
 13  1  1  0  0  0  0
 14 18  1  0  0  0  0
 14  6  2  0  0  0  0
 15  3  1  0  0  0  0
 16 15  2  0  0  0  0
 17 10  1  0  0  0  0
 18  4  2  0  0  0  0
 19 17  2  0  0  0  0
 20  7  1  0  0  0  0
 21 12  2  0  0  0  0
 22 23  1  0  0  0  0
 22 12  1  0  0  0  0
 23 24  2  0  0  0  0
 25 23  1  0  0  0  0
M  END
>  <MODEL>
4

>  <REMARK>
 VINA RESULT:      -7.4      3.468      6.097
  Name = 
  2 active torsions:
  status: ('A' for Active; 'I' for Inactive)
    1  A    between atoms: C_2  and  C_21
    2  A    between atoms: C_15  and  C_21
                            x       y       z     vdW  Elec       q    Type
                         _______ _______ _______ _____ _____    ______ ____

>  <TORSDO>
F 2

$$$$
=
 OpenBabel11052412453D

 25 28  0  0  1  0  0  0  0  0999 V2000
  186.1170  178.5200  142.7790 C   0  0  0  0  0  0  0  0  0  0  0  0
  187.3070  177.8720  142.8990 N   0  0  0  0  0  0  0  0  0  0  0  0
  186.9730  177.5030  145.2250 C   0  0  0  0  0  3  0  0  0  0  0  0
  188.2850  177.5850  142.0270 C   0  0  0  0  0  0  0  0  0  0  0  0
  183.2150  177.8330  140.3780 N   0  0  0  0  0  2  0  0  0  0  0  0
  190.5550  176.7530  140.6840 C   0  0  0  0  0  3  0  0  0  0  0  0
  185.7620  178.1230  145.1190 N   0  0  0  0  0  0  0  0  0  0  0  0
  189.2800  176.9260  142.7030 C   0  0  0  0  0  0  0  0  0  0  0  0
  190.4370  176.4920  142.0620 C   0  0  0  0  0  3  0  0  0  0  0  0
  183.9290  179.2110  143.7700 C   0  0  2  0  0  3  0  0  0  0  0  0
  183.0570  178.9790  144.9930 C   0  0  0  0  0  1  0  0  0  0  0  0
  183.7110  177.5860  139.0570 C   0  0  0  0  0  0  0  0  0  0  0  0
  185.5350  179.2380  141.2340 S   0  0  0  0  0  0  0  0  0  0  0  0
  189.5290  177.4320  139.9890 C   0  0  0  0  0  3  0  0  0  0  0  0
  187.7490  177.3770  144.0770 C   0  0  0  0  0  0  0  0  0  0  0  0
  188.9670  176.7810  144.0090 N   0  0  0  0  0  0  0  0  0  0  0  0
  183.2850  178.6200  142.5940 N   0  0  0  0  0  0  0  0  0  0  0  0
  188.3690  177.8590  140.6620 C   0  0  0  0  0  3  0  0  0  0  0  0
  183.8780  178.5370  141.4390 C   0  0  0  0  0  0  0  0  0  0  0  0
  185.3120  178.6280  143.9270 C   0  0  0  0  0  0  0  0  0  0  0  0
  184.8440  177.9960  138.6920 O   0  0  0  0  0  0  0  0  0  0  0  0
  182.8530  176.8540  138.0840 C   0  0  0  0  0  2  0  0  0  0  0  0
  182.5060  177.7360  136.9350 C   0  0  0  0  0  0  0  0  0  0  0  0
  182.9850  177.5030  135.7950 O   0  0  0  0  0  0  0  0  0  0  0  0
  181.6050  178.8220  137.1180 N   0  0  0  0  0  1  0  0  0  0  0  0
  1  2  1  0  0  0  0
  1 20  2  0  0  0  0
  2 15  1  0  0  0  0
  4  8  1  0  0  0  0
  4  2  1  0  0  0  0
  5 19  1  0  0  0  0
  6  9  1  0  0  0  0
  7  3  2  0  0  0  0
  8 16  1  0  0  0  0
  9  8  2  0  0  0  0
 10 20  1  0  0  0  0
 10 11  1  1  0  0  0
 12  5  1  0  0  0  0
 13 19  1  0  0  0  0
 13  1  1  0  0  0  0
 14 18  1  0  0  0  0
 14  6  2  0  0  0  0
 15  3  1  0  0  0  0
 16 15  2  0  0  0  0
 17 10  1  0  0  0  0
 18  4  2  0  0  0  0
 19 17  2  0  0  0  0
 20  7  1  0  0  0  0
 21 12  2  0  0  0  0
 22 12  1  0  0  0  0
 23 25  1  0  0  0  0
 23 22  1  0  0  0  0
 24 23  2  0  0  0  0
M  END
>  <MODEL>
5

>  <REMARK>
 VINA RESULT:      -7.2      3.742      6.210
  Name = 
  2 active torsions:
  status: ('A' for Active; 'I' for Inactive)
    1  A    between atoms: C_2  and  C_21
    2  A    between atoms: C_15  and  C_21
                            x       y       z     vdW  Elec       q    Type
                         _______ _______ _______ _____ _____    ______ ____

>  <TORSDO>
F 2

$$$$
=
 OpenBabel11052412453D

 25 28  0  0  1  0  0  0  0  0999 V2000
  187.7430  178.3880  142.7630 C   0  0  0  0  0  0  0  0  0  0  0  0
  187.9640  177.8940  144.0120 N   0  0  0  0  0  0  0  0  0  0  0  0
  185.6400  177.8800  144.5160 C   0  0  0  0  0  3  0  0  0  0  0  0
  189.0790  177.5710  144.6830 C   0  0  0  0  0  0  0  0  0  0  0  0
  188.8940  177.0200  139.3780 N   0  0  0  0  0  2  0  0  0  0  0  0
  191.0140  176.7690  146.4900 C   0  0  0  0  0  3  0  0  0  0  0  0
  185.3950  178.3460  143.2560 N   0  0  0  0  0  0  0  0  0  0  0  0
  188.7150  177.1380  145.9330 C   0  0  0  0  0  0  0  0  0  0  0  0
  189.6590  176.7260  146.8700 C   0  0  0  0  0  3  0  0  0  0  0  0
  186.1480  179.0020  140.9400 C   0  0  2  0  0  3  0  0  0  0  0  0
  184.6800  178.8860  140.5610 C   0  0  0  0  0  1  0  0  0  0  0  0
  190.2660  176.6120  139.4470 C   0  0  0  0  0  0  0  0  0  0  0  0
  189.0670  178.7780  141.6070 S   0  0  0  0  0  0  0  0  0  0  0  0
  191.3870  177.2140  145.2020 C   0  0  0  0  0  3  0  0  0  0  0  0
  186.9610  177.6480  144.8840 C   0  0  0  0  0  0  0  0  0  0  0  0
  187.3740  177.1780  146.0890 N   0  0  0  0  0  0  0  0  0  0  0  0
  186.9490  178.1630  140.0460 N   0  0  0  0  0  0  0  0  0  0  0  0
  190.4120  177.6240  144.2750 C   0  0  0  0  0  3  0  0  0  0  0  0
  188.2200  177.9520  140.2350 C   0  0  0  0  0  0  0  0  0  0  0  0
  186.4090  178.5980  142.3700 C   0  0  0  0  0  0  0  0  0  0  0  0
  191.0450  177.0700  140.3230 O   0  0  0  0  0  0  0  0  0  0  0  0
  190.7880  175.6440  138.4410 C   0  0  0  0  0  2  0  0  0  0  0  0
  191.3510  176.3720  137.2700 C   0  0  0  0  0  0  0  0  0  0  0  0
  192.5830  176.6220  137.2160 O   0  0  0  0  0  0  0  0  0  0  0  0
  190.5010  176.7530  136.1930 N   0  0  0  0  0  1  0  0  0  0  0  0
  1  2  1  0  0  0  0
  2  4  1  0  0  0  0
  2 15  1  0  0  0  0
  3 15  1  0  0  0  0
  4  8  1  0  0  0  0
  5 12  1  0  0  0  0
  5 19  1  0  0  0  0
  6  9  1  0  0  0  0
  7  3  2  0  0  0  0
  8 16  1  0  0  0  0
  8  9  2  0  0  0  0
 10 11  1  6  0  0  0
 10 20  1  0  0  0  0
 12 21  2  0  0  0  0
 13  1  1  0  0  0  0
 14  6  2  0  0  0  0
 15 16  2  0  0  0  0
 17 19  2  0  0  0  0
 17 10  1  0  0  0  0
 18  4  2  0  0  0  0
 18 14  1  0  0  0  0
 19 13  1  0  0  0  0
 20  1  2  0  0  0  0
 20  7  1  0  0  0  0
 22 12  1  0  0  0  0
 23 22  1  0  0  0  0
 24 23  2  0  0  0  0
 25 23  1  0  0  0  0
M  END
>  <MODEL>
6

>  <REMARK>
 VINA RESULT:      -7.1      2.052      4.726
  Name = 
  2 active torsions:
  status: ('A' for Active; 'I' for Inactive)
    1  A    between atoms: C_2  and  C_21
    2  A    between atoms: C_15  and  C_21
                            x       y       z     vdW  Elec       q    Type
                         _______ _______ _______ _____ _____    ______ ____

>  <TORSDO>
F 2

$$$$
=
 OpenBabel11052412453D

 25 28  0  0  1  0  0  0  0  0999 V2000
  189.4780  176.9900  143.7460 C   0  0  0  0  0  0  0  0  0  0  0  0
  189.7650  177.3670  145.0220 N   0  0  0  0  0  0  0  0  0  0  0  0
  192.0550  177.7350  144.4940 C   0  0  0  0  0  3  0  0  0  0  0  0
  189.0240  177.4640  146.1350 C   0  0  0  0  0  0  0  0  0  0  0  0
  186.8070  178.3430  141.3610 N   0  0  0  0  0  2  0  0  0  0  0  0
  187.9880  177.8310  148.6740 C   0  0  0  0  0  3  0  0  0  0  0  0
  191.7810  177.3890  143.2020 N   0  0  0  0  0  0  0  0  0  0  0  0
  189.8400  177.8780  147.1570 C   0  0  0  0  0  0  0  0  0  0  0  0
  189.3560  178.0740  148.4480 C   0  0  0  0  0  3  0  0  0  0  0  0
  190.1810  176.7530  141.3590 C   0  0  2  0  0  3  0  0  0  0  0  0
  191.3090  177.1310  140.4140 C   0  0  0  0  0  1  0  0  0  0  0  0
  185.5640  178.5150  142.0520 C   0  0  0  0  0  0  0  0  0  0  0  0
  187.8420  176.4550  143.2180 S   0  0  0  0  0  0  0  0  0  0  0  0
  187.1490  177.4060  147.6200 C   0  0  0  0  0  3  0  0  0  0  0  0
  191.0090  177.7250  145.4110 C   0  0  0  0  0  0  0  0  0  0  0  0
  191.1090  178.0500  146.7260 N   0  0  0  0  0  0  0  0  0  0  0  0
  188.9730  177.4990  140.9980 N   0  0  0  0  0  0  0  0  0  0  0  0
  187.6640  177.2160  146.3250 C   0  0  0  0  0  3  0  0  0  0  0  0
  187.8970  177.4860  141.7300 C   0  0  0  0  0  0  0  0  0  0  0  0
  190.5210  177.0250  142.8040 C   0  0  0  0  0  0  0  0  0  0  0  0
  185.3080  177.8850  143.1110 O   0  0  0  0  0  0  0  0  0  0  0  0
  184.5410  179.4400  141.4890 C   0  0  0  0  0  2  0  0  0  0  0  0
  184.2880  179.1190  140.0560 C   0  0  0  0  0  0  0  0  0  0  0  0
  184.5560  179.9650  139.1640 O   0  0  0  0  0  0  0  0  0  0  0  0
  183.7770  177.8410  139.6930 N   0  0  0  0  0  1  0  0  0  0  0  0
  1  2  1  0  0  0  0
  2 15  1  0  0  0  0
  2  4  1  0  0  0  0
  3 15  1  0  0  0  0
  4 18  2  0  0  0  0
  4  8  1  0  0  0  0
  5 19  1  0  0  0  0
  5 12  1  0  0  0  0
  7  3  2  0  0  0  0
  8  9  2  0  0  0  0
  9  6  1  0  0  0  0
 10 11  1  6  0  0  0
 10 20  1  0  0  0  0
 12 21  2  0  0  0  0
 13  1  1  0  0  0  0
 14  6  2  0  0  0  0
 15 16  2  0  0  0  0
 16  8  1  0  0  0  0
 17 10  1  0  0  0  0
 17 19  2  0  0  0  0
 18 14  1  0  0  0  0
 19 13  1  0  0  0  0
 20  7  1  0  0  0  0
 20  1  2  0  0  0  0
 22 12  1  0  0  0  0
 23 22  1  0  0  0  0
 24 23  2  0  0  0  0
 25 23  1  0  0  0  0
M  END
>  <MODEL>
7

>  <REMARK>
 VINA RESULT:      -7.1      2.575      5.086
  Name = 
  2 active torsions:
  status: ('A' for Active; 'I' for Inactive)
    1  A    between atoms: C_2  and  C_21
    2  A    between atoms: C_15  and  C_21
                            x       y       z     vdW  Elec       q    Type
                         _______ _______ _______ _____ _____    ______ ____

>  <TORSDO>
F 2

$$$$
=
 OpenBabel11052412453D

 25 28  0  0  1  0  0  0  0  0999 V2000
  185.9140  178.6280  140.3620 C   0  0  0  0  0  0  0  0  0  0  0  0
  184.7000  178.5670  140.9730 N   0  0  0  0  0  0  0  0  0  0  0  0
  183.5950  178.0710  138.9250 C   0  0  0  0  0  3  0  0  0  0  0  0
  184.3040  178.7460  142.2420 C   0  0  0  0  0  0  0  0  0  0  0  0
  189.1460  176.7550  141.2030 N   0  0  0  0  0  2  0  0  0  0  0  0
  182.9650  179.0060  144.6480 C   0  0  0  0  0  3  0  0  0  0  0  0
  184.8090  178.0970  138.3000 N   0  0  0  0  0  0  0  0  0  0  0  0
  182.9430  178.5850  142.2910 C   0  0  0  0  0  0  0  0  0  0  0  0
  182.2330  178.7090  143.4820 C   0  0  0  0  0  3  0  0  0  0  0  0
  187.3240  178.2800  138.3280 C   0  0  2  0  0  3  0  0  0  0  0  0
  187.2620  177.6790  136.9330 C   0  0  0  0  0  1  0  0  0  0  0  0
  189.3710  176.7610  142.6180 C   0  0  0  0  0  0  0  0  0  0  0  0
  187.4380  179.0300  141.2330 S   0  0  0  0  0  0  0  0  0  0  0  0
  184.3670  179.1700  144.5950 C   0  0  0  0  0  3  0  0  0  0  0  0
  183.5590  178.3080  140.2960 C   0  0  0  0  0  0  0  0  0  0  0  0
  182.4420  178.3070  141.0670 N   0  0  0  0  0  0  0  0  0  0  0  0
  188.2170  177.4760  139.1650 N   0  0  0  0  0  0  0  0  0  0  0  0
  185.0590  179.0400  143.3770 C   0  0  0  0  0  3  0  0  0  0  0  0
  188.3400  177.6700  140.4460 C   0  0  0  0  0  0  0  0  0  0  0  0
  185.9670  178.3620  138.9820 C   0  0  0  0  0  0  0  0  0  0  0  0
  188.8460  177.6300  143.3630 O   0  0  0  0  0  0  0  0  0  0  0  0
  190.2680  175.7340  143.2150 C   0  0  0  0  0  2  0  0  0  0  0  0
  191.3890  176.3890  143.9460 C   0  0  0  0  0  0  0  0  0  0  0  0
  192.0560  177.3000  143.3890 O   0  0  0  0  0  0  0  0  0  0  0  0
  191.6830  176.0120  145.2860 N   0  0  0  0  0  1  0  0  0  0  0  0
  1  2  1  0  0  0  0
  1 13  1  0  0  0  0
  2  4  1  0  0  0  0
  3 15  1  0  0  0  0
  4  8  2  0  0  0  0
  4 18  1  0  0  0  0
  5 12  1  0  0  0  0
  7  3  2  0  0  0  0
  7 20  1  0  0  0  0
  8  9  1  0  0  0  0
  9  6  2  0  0  0  0
 10 11  1  6  0  0  0
 10 20  1  0  0  0  0
 10 17  1  0  0  0  0
 12 22  1  0  0  0  0
 12 21  2  0  0  0  0
 14  6  1  0  0  0  0
 15  2  1  0  0  0  0
 15 16  2  0  0  0  0
 16  8  1  0  0  0  0
 17 19  2  0  0  0  0
 18 14  2  0  0  0  0
 19  5  1  0  0  0  0
 19 13  1  0  0  0  0
 20  1  2  0  0  0  0
 22 23  1  0  0  0  0
 23 25  1  0  0  0  0
 24 23  2  0  0  0  0
M  END
>  <MODEL>
8

>  <REMARK>
 VINA RESULT:      -7.0      3.120      5.681
  Name = 
  2 active torsions:
  status: ('A' for Active; 'I' for Inactive)
    1  A    between atoms: C_2  and  C_21
    2  A    between atoms: C_15  and  C_21
                            x       y       z     vdW  Elec       q    Type
                         _______ _______ _______ _____ _____    ______ ____

>  <TORSDO>
F 2

$$$$
=
 OpenBabel11052412453D

 25 28  0  0  1  0  0  0  0  0999 V2000
  187.5460  178.3930  141.1810 C   0  0  0  0  0  0  0  0  0  0  0  0
  188.0270  177.9160  142.3620 N   0  0  0  0  0  0  0  0  0  0  0  0
  185.8820  178.0300  143.3840 C   0  0  0  0  0  3  0  0  0  0  0  0
  189.2510  177.5510  142.7700 C   0  0  0  0  0  0  0  0  0  0  0  0
  187.8250  176.8950  137.6690 N   0  0  0  0  0  2  0  0  0  0  0  0
  191.5120  176.6930  144.1110 C   0  0  0  0  0  3  0  0  0  0  0  0
  185.3750  178.4800  142.2000 N   0  0  0  0  0  0  0  0  0  0  0  0
  189.1650  177.1650  144.0830 C   0  0  0  0  0  0  0  0  0  0  0  0
  190.2810  176.7270  144.7920 C   0  0  0  0  0  3  0  0  0  0  0  0
  185.6020  179.0470  139.7530 C   0  0  2  0  0  3  0  0  0  0  0  0
  184.0830  178.9960  139.7240 C   0  0  0  0  0  1  0  0  0  0  0  0
  189.1560  176.4200  137.4350 C   0  0  0  0  0  0  0  0  0  0  0  0
  188.5830  178.6900  139.7400 S   0  0  0  0  0  0  0  0  0  0  0  0
  191.5980  177.0900  142.7580 C   0  0  0  0  0  3  0  0  0  0  0  0
  187.2410  177.7400  143.4480 C   0  0  0  0  0  0  0  0  0  0  0  0
  187.8990  177.2760  144.5410 N   0  0  0  0  0  0  0  0  0  0  0  0
  186.1380  178.1490  138.7270 N   0  0  0  0  0  0  0  0  0  0  0  0
  190.4550  177.5290  142.0660 C   0  0  0  0  0  3  0  0  0  0  0  0
  187.4080  177.8790  138.6260 C   0  0  0  0  0  0  0  0  0  0  0  0
  186.1680  178.6620  141.0970 C   0  0  0  0  0  0  0  0  0  0  0  0
  190.1360  176.8580  138.0940 O   0  0  0  0  0  0  0  0  0  0  0  0
  189.3890  175.4060  136.3700 C   0  0  0  0  0  2  0  0  0  0  0  0
  189.5010  174.0460  136.9670 C   0  0  0  0  0  0  0  0  0  0  0  0
  190.5620  173.6980  137.5480 O   0  0  0  0  0  0  0  0  0  0  0  0
  188.3960  173.1510  136.9110 N   0  0  0  0  0  1  0  0  0  0  0  0
  1  2  1  0  0  0  0
  2  4  1  0  0  0  0
  2 15  1  0  0  0  0
  3 15  1  0  0  0  0
  4  8  1  0  0  0  0
  5 19  1  0  0  0  0
  6  9  1  0  0  0  0
  7  3  2  0  0  0  0
  8 16  1  0  0  0  0
  8  9  2  0  0  0  0
 10 11  1  1  0  0  0
 10 20  1  0  0  0  0
 12  5  1  0  0  0  0
 12 21  2  0  0  0  0
 13  1  1  0  0  0  0
 14  6  2  0  0  0  0
 15 16  2  0  0  0  0
 17 10  1  0  0  0  0
 18 14  1  0  0  0  0
 18  4  2  0  0  0  0
 19 17  2  0  0  0  0
 19 13  1  0  0  0  0
 20  1  2  0  0  0  0
 20  7  1  0  0  0  0
 22 23  1  0  0  0  0
 22 12  1  0  0  0  0
 23 24  2  0  0  0  0
 25 23  1  0  0  0  0
M  END
>  <MODEL>
9

>  <REMARK>
 VINA RESULT:      -7.0      2.794      5.575
  Name = 
  2 active torsions:
  status: ('A' for Active; 'I' for Inactive)
    1  A    between atoms: C_2  and  C_21
    2  A    between atoms: C_15  and  C_21
                            x       y       z     vdW  Elec       q    Type
                         _______ _______ _______ _____ _____    ______ ____

>  <TORSDO>
F 2

$$$$
