=
 OpenBabel11052417003D

 32 36  0  0  0  0  0  0  0  0999 V2000
  188.4070  177.4750  137.4470 N   0  0  0  0  0  0  0  0  0  0  0  0
  188.4190  177.7890  142.5430 C   0  0  0  0  0  0  0  0  0  0  0  0
  183.9160  179.3860  143.5240 N   0  0  0  0  0  2  0  0  0  0  0  0
  183.8760  178.5930  144.7480 C   0  0  0  0  0  2  0  0  0  0  0  0
  189.9710  177.3850  144.4670 C   0  0  0  0  0  0  0  0  0  0  0  0
  190.1610  177.3190  145.8560 C   0  0  0  0  0  0  0  0  0  0  0  0
  189.1110  177.6480  140.2130 C   0  0  0  0  0  0  0  0  0  0  0  0
  186.8540  178.1870  140.7580 N   0  0  0  0  0  0  0  0  0  0  0  0
  187.4500  178.1120  138.3610 C   0  0  0  0  0  2  0  0  0  0  0  0
  184.6880  178.6400  142.5330 C   0  0  0  0  0  2  0  0  0  0  0  0
  187.1140  178.1150  142.0950 C   0  0  0  0  0  0  0  0  0  0  0  0
  186.0910  178.3670  143.0170 C   0  0  0  0  0  0  0  0  0  0  0  0
  187.6360  177.9490  144.8540 C   0  0  0  0  0  0  0  0  0  0  0  0
  189.7910  177.8150  137.8100 C   0  0  0  0  0  2  0  0  0  0  0  0
  187.8020  177.9490  139.8170 C   0  0  0  0  0  0  0  0  0  0  0  0
  190.1700  177.3190  139.2090 C   0  0  0  0  0  2  0  0  0  0  0  0
  185.2570  178.5890  145.3950 C   0  0  0  0  0  2  0  0  0  0  0  0
  186.3460  178.2670  144.3980 C   0  0  0  0  0  0  0  0  0  0  0  0
  187.8700  177.8800  146.1930 N   0  0  0  0  0  0  0  0  0  0  0  0
  189.4020  177.5540  141.5710 C   0  0  0  0  0  3  0  0  0  0  0  0
  191.0590  177.1310  143.6360 O   0  0  0  0  0  1  0  0  0  0  0  0
  188.6910  177.7030  143.9370 C   0  0  0  0  0  0  0  0  0  0  0  0
  189.0870  177.5780  146.7130 C   0  0  0  0  0  0  0  0  0  0  0  0
  189.2710  177.5220  148.0980 O   0  0  0  0  0  0  0  0  0  0  0  0
  188.2940  178.0030  149.0080 C   0  0  0  0  0  1  0  0  0  0  0  0
  191.5980  175.5300  146.7760 C   0  0  0  0  0  1  0  0  0  0  0  0
  191.5120  177.0020  146.4200 C   0  0  0  0  0  2  0  0  0  0  0  0
  188.2040  176.0280  137.4560 C   0  0  0  0  0  2  0  0  0  0  0  0
  189.1150  175.3720  136.4350 C   0  0  0  0  0  2  0  0  0  0  0  0
  189.6630  174.1060  136.9910 C   0  0  0  0  0  0  0  0  0  0  0  0
  190.8550  174.1180  137.7040 O   0  0  0  0  0  1  0  0  0  0  0  0
  189.0660  173.0180  136.7860 O   0  0  0  0  0  0  0  0  0  0  0  0
  1 28  1  0  0  0  0
  1 14  1  0  0  0  0
  1  9  1  0  0  0  0
  2 22  1  0  0  0  0
  3  4  1  0  0  0  0
  4 17  1  0  0  0  0
  5  6  2  0  0  0  0
  6 27  1  0  0  0  0
  6 23  1  0  0  0  0
  7 20  1  0  0  0  0
  8 11  2  0  0  0  0
  9 15  1  0  0  0  0
 10 12  1  0  0  0  0
 10  3  1  0  0  0  0
 11  2  1  0  0  0  0
 11 12  1  0  0  0  0
 12 18  2  0  0  0  0
 13 19  1  0  0  0  0
 14 16  1  0  0  0  0
 15  7  2  0  0  0  0
 15  8  1  0  0  0  0
 16  7  1  0  0  0  0
 18 13  1  0  0  0  0
 18 17  1  0  0  0  0
 19 23  2  0  0  0  0
 20  2  2  0  0  0  0
 21  5  1  0  0  0  0
 22  5  1  0  0  0  0
 22 13  2  0  0  0  0
 23 24  1  0  0  0  0
 24 25  1  0  0  0  0
 27 26  1  0  0  0  0
 29 30  1  0  0  0  0
 29 28  1  0  0  0  0
 30 31  1  0  0  0  0
 32 30  2  0  0  0  0
M  END
>  <MODEL>
1

>  <REMARK>
 VINA RESULT:      -9.2      0.000      0.000
  Name = 
  5 active torsions:
  status: ('A' for Active; 'I' for Inactive)
    1  A    between atoms: C_1  and  C_10
    2  A    between atoms: N_2  and  C_24
    3  A    between atoms: C_7  and  C_22
    4  A    between atoms: C_10  and  C_24
    5  A    between atoms: O_11  and  C_32
                            x       y       z     vdW  Elec       q    Type
                         _______ _______ _______ _____ _____    ______ ____

>  <TORSDO>
F 5

$$$$
=
 OpenBabel11052417003D

 32 36  0  0  0  0  0  0  0  0999 V2000
  181.7280  179.8660  138.3360 N   0  0  0  0  0  0  0  0  0  0  0  0
  185.3720  178.4220  141.6060 C   0  0  0  0  0  0  0  0  0  0  0  0
  189.1270  177.4380  138.6530 N   0  0  0  0  0  2  0  0  0  0  0  0
  190.0700  177.9310  139.6500 C   0  0  0  0  0  2  0  0  0  0  0  0
  185.7000  178.1130  144.0700 C   0  0  0  0  0  0  0  0  0  0  0  0
  186.5700  177.8320  145.1350 C   0  0  0  0  0  0  0  0  0  0  0  0
  183.2220  178.9610  140.5990 C   0  0  0  0  0  0  0  0  0  0  0  0
  185.1540  178.7060  139.2260 N   0  0  0  0  0  0  0  0  0  0  0  0
  183.0200  179.2130  138.0890 C   0  0  0  0  0  2  0  0  0  0  0  0
  187.9120  178.2430  138.7500 C   0  0  0  0  0  2  0  0  0  0  0  0
  185.9390  178.4320  140.3070 C   0  0  0  0  0  0  0  0  0  0  0  0
  187.3000  178.1570  140.1270 C   0  0  0  0  0  0  0  0  0  0  0  0
  187.5700  177.8830  142.5330 C   0  0  0  0  0  0  0  0  0  0  0  0
  181.0140  179.2220  139.4490 C   0  0  0  0  0  2  0  0  0  0  0  0
  183.8300  178.9840  139.3380 C   0  0  0  0  0  0  0  0  0  0  0  0
  181.7810  179.3210  140.7720 C   0  0  0  0  0  2  0  0  0  0  0  0
  189.5790  177.5550  141.0440 C   0  0  0  0  0  2  0  0  0  0  0  0
  188.1220  177.9010  141.2410 C   0  0  0  0  0  0  0  0  0  0  0  0
  188.3750  177.6100  143.5950 N   0  0  0  0  0  0  0  0  0  0  0  0
  184.0020  178.6970  141.7210 C   0  0  0  0  0  3  0  0  0  0  0  0
  184.3590  178.3570  144.3570 O   0  0  0  0  0  1  0  0  0  0  0  0
  186.1910  178.1450  142.7370 C   0  0  0  0  0  0  0  0  0  0  0  0
  187.9190  177.5760  144.8740 C   0  0  0  0  0  0  0  0  0  0  0  0
  188.7900  177.2870  145.9280 O   0  0  0  0  0  0  0  0  0  0  0  0
  190.1920  177.1650  145.7360 C   0  0  0  0  0  1  0  0  0  0  0  0
  186.0510  179.1700  147.1490 C   0  0  0  0  0  1  0  0  0  0  0  0
  186.0540  177.7800  146.5390 C   0  0  0  0  0  2  0  0  0  0  0  0
  181.9390  181.2870  138.6020 C   0  0  0  0  0  2  0  0  0  0  0  0
  180.6940  182.0730  138.2360 C   0  0  0  0  0  2  0  0  0  0  0  0
  181.0160  183.0580  137.1700 C   0  0  0  0  0  0  0  0  0  0  0  0
  181.8010  184.1660  137.4600 O   0  0  0  0  0  1  0  0  0  0  0  0
  180.5490  182.9070  136.0110 O   0  0  0  0  0  0  0  0  0  0  0  0
  1 28  1  0  0  0  0
  1 14  1  0  0  0  0
  2 20  2  0  0  0  0
  2 22  1  0  0  0  0
  3 10  1  0  0  0  0
  3  4  1  0  0  0  0
  4 17  1  0  0  0  0
  5 21  1  0  0  0  0
  5  6  2  0  0  0  0
  6 27  1  0  0  0  0
  7 16  1  0  0  0  0
  7 20  1  0  0  0  0
  8 15  1  0  0  0  0
  8 11  2  0  0  0  0
  9  1  1  0  0  0  0
  9 15  1  0  0  0  0
 10 12  1  0  0  0  0
 11  2  1  0  0  0  0
 12 11  1  0  0  0  0
 12 18  2  0  0  0  0
 13 22  2  0  0  0  0
 13 19  1  0  0  0  0
 14 16  1  0  0  0  0
 15  7  2  0  0  0  0
 17 18  1  0  0  0  0
 18 13  1  0  0  0  0
 19 23  2  0  0  0  0
 22  5  1  0  0  0  0
 23  6  1  0  0  0  0
 23 24  1  0  0  0  0
 25 24  1  0  0  0  0
 27 26  1  0  0  0  0
 29 28  1  0  0  0  0
 30 31  1  0  0  0  0
 30 29  1  0  0  0  0
 32 30  2  0  0  0  0
M  END
>  <MODEL>
2

>  <REMARK>
 VINA RESULT:      -8.0      4.557      6.701
  Name = 
  5 active torsions:
  status: ('A' for Active; 'I' for Inactive)
    1  A    between atoms: C_1  and  C_10
    2  A    between atoms: N_2  and  C_24
    3  A    between atoms: C_7  and  C_22
    4  A    between atoms: C_10  and  C_24
    5  A    between atoms: O_11  and  C_32
                            x       y       z     vdW  Elec       q    Type
                         _______ _______ _______ _____ _____    ______ ____

>  <TORSDO>
F 5

$$$$
=
 OpenBabel11052417003D

 32 36  0  0  0  0  0  0  0  0999 V2000
  189.9170  177.4060  147.0250 N   0  0  0  0  0  0  0  0  0  0  0  0
  186.0350  178.3440  143.8440 C   0  0  0  0  0  0  0  0  0  0  0  0
  188.2530  178.6280  139.5090 N   0  0  0  0  0  2  0  0  0  0  0  0
  187.1010  178.0200  138.8540 C   0  0  0  0  0  2  0  0  0  0  0  0
  183.5530  178.6680  143.9210 C   0  0  0  0  0  0  0  0  0  0  0  0
  182.3470  178.8370  143.2230 C   0  0  0  0  0  0  0  0  0  0  0  0
  187.4190  178.1260  145.8360 C   0  0  0  0  0  0  0  0  0  0  0  0
  188.4150  178.0290  143.6730 N   0  0  0  0  0  0  0  0  0  0  0  0
  189.9240  177.8360  145.6210 C   0  0  0  0  0  2  0  0  0  0  0  0
  188.3800  178.0310  140.8360 C   0  0  0  0  0  2  0  0  0  0  0  0
  187.2090  178.2060  143.0620 C   0  0  0  0  0  0  0  0  0  0  0  0
  187.1380  178.2530  141.6640 C   0  0  0  0  0  0  0  0  0  0  0  0
  184.7230  178.5510  141.7910 C   0  0  0  0  0  0  0  0  0  0  0  0
  188.9530  178.1880  147.8130 C   0  0  0  0  0  2  0  0  0  0  0  0
  188.5470  177.9700  145.0220 C   0  0  0  0  0  0  0  0  0  0  0  0
  187.5120  178.0070  147.3240 C   0  0  0  0  0  2  0  0  0  0  0  0
  185.8200  178.5100  139.5210 C   0  0  0  0  0  2  0  0  0  0  0  0
  185.8920  178.4080  141.0260 C   0  0  0  0  0  0  0  0  0  0  0  0
  183.5310  178.7230  141.1580 N   0  0  0  0  0  0  0  0  0  0  0  0
  186.1730  178.2950  145.2390 C   0  0  0  0  0  3  0  0  0  0  0  0
  183.5160  178.6500  145.3130 O   0  0  0  0  0  1  0  0  0  0  0  0
  184.7740  178.5190  143.2090 C   0  0  0  0  0  0  0  0  0  0  0  0
  182.3570  178.8670  141.8250 C   0  0  0  0  0  0  0  0  0  0  0  0
  181.1610  179.0430  141.1230 O   0  0  0  0  0  0  0  0  0  0  0  0
  180.6300  178.0370  140.2740 C   0  0  0  0  0  1  0  0  0  0  0  0
  180.2800  177.7100  143.9790 C   0  0  0  0  0  1  0  0  0  0  0  0
  181.0600  179.0120  143.9680 C   0  0  0  0  0  2  0  0  0  0  0  0
  189.6180  175.9780  147.0990 C   0  0  0  0  0  2  0  0  0  0  0  0
  190.7040  175.2610  147.8780 C   0  0  0  0  0  2  0  0  0  0  0  0
  192.0400  175.6550  147.3570 C   0  0  0  0  0  0  0  0  0  0  0  0
  192.4300  175.2700  146.0810 O   0  0  0  0  0  0  0  0  0  0  0  0
  192.8330  176.3070  148.0850 O   0  0  0  0  0  1  0  0  0  0  0  0
  1 28  1  0  0  0  0
  1 14  1  0  0  0  0
  2 20  2  0  0  0  0
  3 10  1  0  0  0  0
  4  3  1  0  0  0  0
  4 17  1  0  0  0  0
  5 21  1  0  0  0  0
  6  5  2  0  0  0  0
  6 27  1  0  0  0  0
  7 16  1  0  0  0  0
  8 15  1  0  0  0  0
  9  1  1  0  0  0  0
 10 12  1  0  0  0  0
 11  8  2  0  0  0  0
 11  2  1  0  0  0  0
 12 11  1  0  0  0  0
 13 22  2  0  0  0  0
 15  9  1  0  0  0  0
 15  7  2  0  0  0  0
 16 14  1  0  0  0  0
 17 18  1  0  0  0  0
 18 12  2  0  0  0  0
 18 13  1  0  0  0  0
 19 13  1  0  0  0  0
 19 23  2  0  0  0  0
 20  7  1  0  0  0  0
 22  2  1  0  0  0  0
 22  5  1  0  0  0  0
 23  6  1  0  0  0  0
 24 23  1  0  0  0  0
 25 24  1  0  0  0  0
 27 26  1  0  0  0  0
 28 29  1  0  0  0  0
 30 29  1  0  0  0  0
 30 32  1  0  0  0  0
 31 30  2  0  0  0  0
M  END
>  <MODEL>
3

>  <REMARK>
 VINA RESULT:      -7.8      3.103      7.884
  Name = 
  5 active torsions:
  status: ('A' for Active; 'I' for Inactive)
    1  A    between atoms: C_1  and  C_10
    2  A    between atoms: N_2  and  C_24
    3  A    between atoms: C_7  and  C_22
    4  A    between atoms: C_10  and  C_24
    5  A    between atoms: O_11  and  C_32
                            x       y       z     vdW  Elec       q    Type
                         _______ _______ _______ _____ _____    ______ ____

>  <TORSDO>
F 5

$$$$
=
 OpenBabel11052417003D

 32 36  0  0  0  0  0  0  0  0999 V2000
  191.6190  177.7400  144.1960 N   0  0  0  0  0  0  0  0  0  0  0  0
  188.9720  177.5960  139.8320 C   0  0  0  0  0  0  0  0  0  0  0  0
  192.2920  176.0260  136.6230 N   0  0  0  0  0  2  0  0  0  0  0  0
  191.2710  175.2820  135.8950 C   0  0  0  0  0  2  0  0  0  0  0  0
  186.6600  178.0760  138.9960 C   0  0  0  0  0  0  0  0  0  0  0  0
  185.7390  178.0330  137.9390 C   0  0  0  0  0  0  0  0  0  0  0  0
  189.7040  178.0900  142.1020 C   0  0  0  0  0  0  0  0  0  0  0  0
  191.2140  177.0940  140.5490 N   0  0  0  0  0  0  0  0  0  0  0  0
  192.0810  177.5860  142.8110 C   0  0  0  0  0  2  0  0  0  0  0  0
  191.9470  175.9880  138.0420 C   0  0  0  0  0  2  0  0  0  0  0  0
  190.2700  177.0910  139.5660 C   0  0  0  0  0  0  0  0  0  0  0  0
  190.5880  176.5930  138.2970 C   0  0  0  0  0  0  0  0  0  0  0  0
  188.3220  177.0640  137.5360 C   0  0  0  0  0  0  0  0  0  0  0  0
  190.6320  178.8260  144.3070 C   0  0  0  0  0  2  0  0  0  0  0  0
  190.9640  177.5590  141.7990 C   0  0  0  0  0  0  0  0  0  0  0  0
  189.3690  178.5570  143.4830 C   0  0  0  0  0  2  0  0  0  0  0  0
  189.9660  176.0720  135.9010 C   0  0  0  0  0  2  0  0  0  0  0  0
  189.6100  176.5620  137.2850 C   0  0  0  0  0  0  0  0  0  0  0  0
  187.3960  177.0480  136.5390 N   0  0  0  0  0  0  0  0  0  0  0  0
  188.7170  178.0880  141.1200 C   0  0  0  0  0  3  0  0  0  0  0  0
  186.2460  178.6060  140.2160 O   0  0  0  0  0  1  0  0  0  0  0  0
  187.9820  177.5860  138.8110 C   0  0  0  0  0  0  0  0  0  0  0  0
  186.1300  177.5130  136.7020 C   0  0  0  0  0  0  0  0  0  0  0  0
  185.2200  177.4740  135.6420 O   0  0  0  0  0  0  0  0  0  0  0  0
  184.7040  176.2520  135.1360 C   0  0  0  0  0  1  0  0  0  0  0  0
  183.4260  177.4590  138.6010 C   0  0  0  0  0  1  0  0  0  0  0  0
  184.3510  178.5640  138.1240 C   0  0  0  0  0  2  0  0  0  0  0  0
  191.0610  176.4760  144.6700 C   0  0  0  0  0  2  0  0  0  0  0  0
  191.8710  175.9600  145.8450 C   0  0  0  0  0  2  0  0  0  0  0  0
  191.3600  176.5540  147.1090 C   0  0  0  0  0  0  0  0  0  0  0  0
  190.0070  176.8320  147.2490 O   0  0  0  0  0  0  0  0  0  0  0  0
  192.1590  176.8380  148.0380 O   0  0  0  0  0  1  0  0  0  0  0  0
  1 14  1  0  0  0  0
  1 28  1  0  0  0  0
  2 20  1  0  0  0  0
  3 10  1  0  0  0  0
  4 17  1  0  0  0  0
  4  3  1  0  0  0  0
  5 21  1  0  0  0  0
  6 27  1  0  0  0  0
  6  5  2  0  0  0  0
  7 16  1  0  0  0  0
  8 15  2  0  0  0  0
  9  1  1  0  0  0  0
 10 12  1  0  0  0  0
 11  2  1  0  0  0  0
 11  8  1  0  0  0  0
 12 11  2  0  0  0  0
 13 22  1  0  0  0  0
 15  7  1  0  0  0  0
 15  9  1  0  0  0  0
 16 14  1  0  0  0  0
 17 18  1  0  0  0  0
 18 13  2  0  0  0  0
 18 12  1  0  0  0  0
 19 23  2  0  0  0  0
 19 13  1  0  0  0  0
 20  7  2  0  0  0  0
 22  5  1  0  0  0  0
 22  2  2  0  0  0  0
 23  6  1  0  0  0  0
 24 23  1  0  0  0  0
 25 24  1  0  0  0  0
 27 26  1  0  0  0  0
 28 29  1  0  0  0  0
 29 30  1  0  0  0  0
 30 31  2  0  0  0  0
 30 32  1  0  0  0  0
M  END
>  <MODEL>
4

>  <REMARK>
 VINA RESULT:      -7.4      3.278      8.681
  Name = 
  5 active torsions:
  status: ('A' for Active; 'I' for Inactive)
    1  A    between atoms: C_1  and  C_10
    2  A    between atoms: N_2  and  C_24
    3  A    between atoms: C_7  and  C_22
    4  A    between atoms: C_10  and  C_24
    5  A    between atoms: O_11  and  C_32
                            x       y       z     vdW  Elec       q    Type
                         _______ _______ _______ _____ _____    ______ ____

>  <TORSDO>
F 5

$$$$
=
 OpenBabel11052417003D

 32 36  0  0  0  0  0  0  0  0999 V2000
  192.3800  176.7020  138.2250 N   0  0  0  0  0  0  0  0  0  0  0  0
  189.1580  177.7460  142.0460 C   0  0  0  0  0  0  0  0  0  0  0  0
  185.1100  179.1040  139.6870 N   0  0  0  0  0  2  0  0  0  0  0  0
  184.2780  178.4960  140.7170 C   0  0  0  0  0  2  0  0  0  0  0  0
  189.1180  177.7490  144.5500 C   0  0  0  0  0  0  0  0  0  0  0  0
  188.3800  177.9000  145.7340 C   0  0  0  0  0  0  0  0  0  0  0  0
  191.1690  177.3270  140.7390 C   0  0  0  0  0  0  0  0  0  0  0  0
  189.0980  177.7580  139.6400 N   0  0  0  0  0  0  0  0  0  0  0  0
  191.0800  177.3860  138.2110 C   0  0  0  0  0  2  0  0  0  0  0  0
  186.3130  178.2880  139.5440 C   0  0  0  0  0  2  0  0  0  0  0  0
  188.4470  177.9000  140.8290 C   0  0  0  0  0  0  0  0  0  0  0  0
  187.0790  178.2000  140.8410 C   0  0  0  0  0  0  0  0  0  0  0  0
  187.0890  178.1750  143.2780 C   0  0  0  0  0  0  0  0  0  0  0  0
  193.2270  177.2000  139.3200 C   0  0  0  0  0  2  0  0  0  0  0  0
  190.4210  177.4630  139.5630 C   0  0  0  0  0  0  0  0  0  0  0  0
  192.6140  176.9420  140.7000 C   0  0  0  0  0  2  0  0  0  0  0  0
  184.9310  178.6940  142.0810 C   0  0  0  0  0  2  0  0  0  0  0  0
  186.3940  178.3200  142.0650 C   0  0  0  0  0  0  0  0  0  0  0  0
  186.4160  178.3190  144.4510 N   0  0  0  0  0  0  0  0  0  0  0  0
  190.5270  177.4530  141.9680 C   0  0  0  0  0  3  0  0  0  0  0  0
  190.4780  177.4650  144.6480 O   0  0  0  0  0  1  0  0  0  0  0  0
  188.4780  177.8840  143.2880 C   0  0  0  0  0  0  0  0  0  0  0  0
  187.0150  178.1920  145.6640 C   0  0  0  0  0  0  0  0  0  0  0  0
  186.2740  178.3520  146.8390 O   0  0  0  0  0  0  0  0  0  0  0  0
  184.8550  178.3190  146.8450 C   0  0  0  0  0  1  0  0  0  0  0  0
  188.9050  176.3620  147.5980 C   0  0  0  0  0  1  0  0  0  0  0  0
  189.0530  177.7760  147.0660 C   0  0  0  0  0  2  0  0  0  0  0  0
  192.1740  175.2600  138.3380 C   0  0  0  0  0  2  0  0  0  0  0  0
  192.5540  174.5800  137.0360 C   0  0  0  0  0  2  0  0  0  0  0  0
  193.9240  174.0110  137.1470 C   0  0  0  0  0  0  0  0  0  0  0  0
  194.5550  173.4950  136.0230 O   0  0  0  0  0  0  0  0  0  0  0  0
  194.4980  173.9670  138.2650 O   0  0  0  0  0  1  0  0  0  0  0  0
  1 28  1  0  0  0  0
  1 14  1  0  0  0  0
  2 22  1  0  0  0  0
  3  4  1  0  0  0  0
  4 17  1  0  0  0  0
  5 21  1  0  0  0  0
  5  6  2  0  0  0  0
  6 27  1  0  0  0  0
  7 20  1  0  0  0  0
  8 11  2  0  0  0  0
  9  1  1  0  0  0  0
  9 15  1  0  0  0  0
 10  3  1  0  0  0  0
 10 12  1  0  0  0  0
 11 12  1  0  0  0  0
 11  2  1  0  0  0  0
 12 18  2  0  0  0  0
 13 22  2  0  0  0  0
 13 19  1  0  0  0  0
 14 16  1  0  0  0  0
 15  8  1  0  0  0  0
 15  7  2  0  0  0  0
 16  7  1  0  0  0  0
 18 17  1  0  0  0  0
 18 13  1  0  0  0  0
 19 23  2  0  0  0  0
 20  2  2  0  0  0  0
 22  5  1  0  0  0  0
 23  6  1  0  0  0  0
 23 24  1  0  0  0  0
 24 25  1  0  0  0  0
 27 26  1  0  0  0  0
 29 30  1  0  0  0  0
 29 28  1  0  0  0  0
 30 32  1  0  0  0  0
 31 30  2  0  0  0  0
M  END
>  <MODEL>
5

>  <REMARK>
 VINA RESULT:      -7.2      2.214      3.090
  Name = 
  5 active torsions:
  status: ('A' for Active; 'I' for Inactive)
    1  A    between atoms: C_1  and  C_10
    2  A    between atoms: N_2  and  C_24
    3  A    between atoms: C_7  and  C_22
    4  A    between atoms: C_10  and  C_24
    5  A    between atoms: O_11  and  C_32
                            x       y       z     vdW  Elec       q    Type
                         _______ _______ _______ _____ _____    ______ ____

>  <TORSDO>
F 5

$$$$
=
 OpenBabel11052417003D

 32 36  0  0  0  0  0  0  0  0999 V2000
  180.0920  179.2020  141.6160 N   0  0  0  0  0  0  0  0  0  0  0  0
  184.8700  178.2940  143.1710 C   0  0  0  0  0  0  0  0  0  0  0  0
  187.3280  178.0310  138.9670 N   0  0  0  0  0  2  0  0  0  0  0  0
  188.4960  178.6460  139.5850 C   0  0  0  0  0  2  0  0  0  0  0  0
  186.1450  177.9770  145.3030 C   0  0  0  0  0  0  0  0  0  0  0  0
  187.3840  177.8150  145.9420 C   0  0  0  0  0  0  0  0  0  0  0  0
  182.4450  178.4960  143.0800 C   0  0  0  0  0  0  0  0  0  0  0  0
  183.7290  178.6040  141.0740 N   0  0  0  0  0  0  0  0  0  0  0  0
  181.2740  178.7800  140.8540 C   0  0  0  0  0  2  0  0  0  0  0  0
  186.1380  178.6200  139.5750 C   0  0  0  0  0  2  0  0  0  0  0  0
  184.8950  178.4340  141.7610 C   0  0  0  0  0  0  0  0  0  0  0  0
  186.1110  178.3950  141.0680 C   0  0  0  0  0  0  0  0  0  0  0  0
  187.3070  178.1040  143.1700 C   0  0  0  0  0  0  0  0  0  0  0  0
  179.9530  178.4180  142.8530 C   0  0  0  0  0  2  0  0  0  0  0  0
  182.5210  178.6540  141.6900 C   0  0  0  0  0  0  0  0  0  0  0  0
  181.1400  178.6060  143.8030 C   0  0  0  0  0  2  0  0  0  0  0  0
  188.6290  178.1550  141.0220 C   0  0  0  0  0  2  0  0  0  0  0  0
  187.3210  178.2480  141.7730 C   0  0  0  0  0  0  0  0  0  0  0  0
  188.4840  177.9390  143.8330 N   0  0  0  0  0  0  0  0  0  0  0  0
  183.6200  178.3340  143.8070 C   0  0  0  0  0  3  0  0  0  0  0  0
  184.9920  177.9860  146.0840 O   0  0  0  0  0  1  0  0  0  0  0  0
  186.0850  178.1270  143.8910 C   0  0  0  0  0  0  0  0  0  0  0  0
  188.5560  177.7940  145.1810 C   0  0  0  0  0  0  0  0  0  0  0  0
  189.7930  177.6260  145.8100 O   0  0  0  0  0  0  0  0  0  0  0  0
  190.9670  177.2910  145.0860 C   0  0  0  0  0  1  0  0  0  0  0  0
  188.3640  178.6860  148.0390 C   0  0  0  0  0  1  0  0  0  0  0  0
  187.4510  177.6390  147.4280 C   0  0  0  0  0  2  0  0  0  0  0  0
  180.1820  180.6300  141.9100 C   0  0  0  0  0  2  0  0  0  0  0  0
  178.9310  181.3380  141.4240 C   0  0  0  0  0  2  0  0  0  0  0  0
  179.0010  181.5300  139.9510 C   0  0  0  0  0  0  0  0  0  0  0  0
  179.0350  180.4280  139.1070 O   0  0  0  0  0  0  0  0  0  0  0  0
  179.0640  182.6910  139.4700 O   0  0  0  0  0  1  0  0  0  0  0  0
  1 28  1  0  0  0  0
  1 14  1  0  0  0  0
  2 20  2  0  0  0  0
  2 22  1  0  0  0  0
  3 10  1  0  0  0  0
  3  4  1  0  0  0  0
  4 17  1  0  0  0  0
  5  6  2  0  0  0  0
  5 21  1  0  0  0  0
  6 27  1  0  0  0  0
  7 16  1  0  0  0  0
  7 20  1  0  0  0  0
  8 15  1  0  0  0  0
  8 11  2  0  0  0  0
  9  1  1  0  0  0  0
  9 15  1  0  0  0  0
 10 12  1  0  0  0  0
 11  2  1  0  0  0  0
 12 11  1  0  0  0  0
 12 18  2  0  0  0  0
 13 19  1  0  0  0  0
 13 22  2  0  0  0  0
 14 16  1  0  0  0  0
 15  7  2  0  0  0  0
 17 18  1  0  0  0  0
 18 13  1  0  0  0  0
 19 23  2  0  0  0  0
 22  5  1  0  0  0  0
 23 24  1  0  0  0  0
 23  6  1  0  0  0  0
 25 24  1  0  0  0  0
 27 26  1  0  0  0  0
 29 28  1  0  0  0  0
 30 29  1  0  0  0  0
 31 30  2  0  0  0  0
 32 30  1  0  0  0  0
M  END
>  <MODEL>
6

>  <REMARK>
 VINA RESULT:      -7.1      4.337      7.144
  Name = 
  5 active torsions:
  status: ('A' for Active; 'I' for Inactive)
    1  A    between atoms: C_1  and  C_10
    2  A    between atoms: N_2  and  C_24
    3  A    between atoms: C_7  and  C_22
    4  A    between atoms: C_10  and  C_24
    5  A    between atoms: O_11  and  C_32
                            x       y       z     vdW  Elec       q    Type
                         _______ _______ _______ _____ _____    ______ ____

>  <TORSDO>
F 5

$$$$
=
 OpenBabel11052417003D

 32 36  0  0  0  0  0  0  0  0999 V2000
  193.3820  175.4110  136.3130 N   0  0  0  0  0  0  0  0  0  0  0  0
  189.5420  177.1380  139.2000 C   0  0  0  0  0  0  0  0  0  0  0  0
  191.4460  177.0220  143.6890 N   0  0  0  0  0  2  0  0  0  0  0  0
  190.7060  178.2220  144.0600 C   0  0  0  0  0  2  0  0  0  0  0  0
  187.1830  177.9390  138.9420 C   0  0  0  0  0  0  0  0  0  0  0  0
  186.0420  178.5070  139.5300 C   0  0  0  0  0  0  0  0  0  0  0  0
  190.8460  176.2030  137.3690 C   0  0  0  0  0  0  0  0  0  0  0  0
  191.8070  176.3990  139.5420 N   0  0  0  0  0  0  0  0  0  0  0  0
  193.2110  175.3980  137.7720 C   0  0  0  0  0  2  0  0  0  0  0  0
  191.8130  177.1390  142.2800 C   0  0  0  0  0  2  0  0  0  0  0  0
  190.6610  176.9370  140.0470 C   0  0  0  0  0  0  0  0  0  0  0  0
  190.5950  177.2860  141.4020 C   0  0  0  0  0  0  0  0  0  0  0  0
  188.3070  178.0670  141.0960 C   0  0  0  0  0  0  0  0  0  0  0  0
  192.1570  174.9640  135.6330 C   0  0  0  0  0  2  0  0  0  0  0  0
  191.9330  176.0450  138.2370 C   0  0  0  0  0  0  0  0  0  0  0  0
  190.9630  175.8830  135.9130 C   0  0  0  0  0  2  0  0  0  0  0  0
  189.3330  178.1970  143.3960 C   0  0  0  0  0  2  0  0  0  0  0  0
  189.4240  177.8680  141.9240 C   0  0  0  0  0  0  0  0  0  0  0  0
  187.1760  178.6090  141.6230 N   0  0  0  0  0  0  0  0  0  0  0  0
  189.6680  176.7630  137.8550 C   0  0  0  0  0  3  0  0  0  0  0  0
  187.1400  177.6150  137.5880 O   0  0  0  0  0  1  0  0  0  0  0  0
  188.3480  177.7090  139.7230 C   0  0  0  0  0  0  0  0  0  0  0  0
  186.0560  178.8350  140.8890 C   0  0  0  0  0  0  0  0  0  0  0  0
  184.9210  179.3920  141.4840 O   0  0  0  0  0  0  0  0  0  0  0  0
  184.2200  178.7390  142.5300 C   0  0  0  0  0  1  0  0  0  0  0  0
  183.8530  177.5650  138.8700 C   0  0  0  0  0  1  0  0  0  0  0  0
  184.8070  178.7350  138.7160 C   0  0  0  0  0  2  0  0  0  0  0  0
  193.7640  176.7520  135.8760 C   0  0  0  0  0  2  0  0  0  0  0  0
  194.8470  176.6620  134.8170 C   0  0  0  0  0  2  0  0  0  0  0  0
  196.0600  177.3920  135.2740 C   0  0  0  0  0  0  0  0  0  0  0  0
  196.1180  178.7750  135.1750 O   0  0  0  0  0  0  0  0  0  0  0  0
  197.0480  176.7530  135.7190 O   0  0  0  0  0  1  0  0  0  0  0  0
  1  9  1  0  0  0  0
  2 22  2  0  0  0  0
  2 11  1  0  0  0  0
  3  4  1  0  0  0  0
  5  6  2  0  0  0  0
  5 22  1  0  0  0  0
  6 23  1  0  0  0  0
  7 20  2  0  0  0  0
  7 15  1  0  0  0  0
  8 11  1  0  0  0  0
  9 15  1  0  0  0  0
 10  3  1  0  0  0  0
 11 12  2  0  0  0  0
 12 18  1  0  0  0  0
 12 10  1  0  0  0  0
 13 19  1  0  0  0  0
 13 18  2  0  0  0  0
 14 16  1  0  0  0  0
 14  1  1  0  0  0  0
 15  8  2  0  0  0  0
 16  7  1  0  0  0  0
 17  4  1  0  0  0  0
 18 17  1  0  0  0  0
 20  2  1  0  0  0  0
 21  5  1  0  0  0  0
 22 13  1  0  0  0  0
 23 24  1  0  0  0  0
 23 19  2  0  0  0  0
 24 25  1  0  0  0  0
 27 26  1  0  0  0  0
 27  6  1  0  0  0  0
 28  1  1  0  0  0  0
 29 30  1  0  0  0  0
 29 28  1  0  0  0  0
 30 32  1  0  0  0  0
 31 30  2  0  0  0  0
M  END
>  <MODEL>
7

>  <REMARK>
 VINA RESULT:      -7.1      3.662      6.387
  Name = 
  5 active torsions:
  status: ('A' for Active; 'I' for Inactive)
    1  A    between atoms: C_1  and  C_10
    2  A    between atoms: N_2  and  C_24
    3  A    between atoms: C_7  and  C_22
    4  A    between atoms: C_10  and  C_24
    5  A    between atoms: O_11  and  C_32
                            x       y       z     vdW  Elec       q    Type
                         _______ _______ _______ _____ _____    ______ ____

>  <TORSDO>
F 5

$$$$
=
 OpenBabel11052417003D

 32 36  0  0  0  0  0  0  0  0999 V2000
  190.7230  176.7180  137.1540 N   0  0  0  0  0  0  0  0  0  0  0  0
  188.1510  177.6560  141.4640 C   0  0  0  0  0  0  0  0  0  0  0  0
  184.0740  179.7790  139.8320 N   0  0  0  0  0  2  0  0  0  0  0  0
  183.2950  179.1520  140.8930 C   0  0  0  0  0  2  0  0  0  0  0  0
  188.4110  177.3490  143.9360 C   0  0  0  0  0  0  0  0  0  0  0  0
  187.8470  177.4380  145.2170 C   0  0  0  0  0  0  0  0  0  0  0  0
  189.9170  177.1640  139.8610 C   0  0  0  0  0  0  0  0  0  0  0  0
  187.8080  177.9770  139.1030 N   0  0  0  0  0  0  0  0  0  0  0  0
  189.5360  177.5500  137.3890 C   0  0  0  0  0  2  0  0  0  0  0  0
  185.1290  178.8480  139.4410 C   0  0  0  0  0  2  0  0  0  0  0  0
  187.3280  178.0460  140.3770 C   0  0  0  0  0  0  0  0  0  0  0  0
  186.0250  178.5060  140.6060 C   0  0  0  0  0  0  0  0  0  0  0  0
  186.3220  178.1740  143.0020 C   0  0  0  0  0  0  0  0  0  0  0  0
  191.7540  176.9680  138.1720 C   0  0  0  0  0  2  0  0  0  0  0  0
  189.0600  177.5360  138.8180 C   0  0  0  0  0  0  0  0  0  0  0  0
  191.2810  176.6150  139.5860 C   0  0  0  0  0  2  0  0  0  0  0  0
  184.1270  179.0970  142.1700 C   0  0  0  0  0  2  0  0  0  0  0  0
  185.5140  178.5530  141.9170 C   0  0  0  0  0  0  0  0  0  0  0  0
  185.8190  178.2500  144.2640 N   0  0  0  0  0  0  0  0  0  0  0  0
  189.4490  177.2120  141.1710 C   0  0  0  0  0  3  0  0  0  0  0  0
  189.7220  176.8930  143.8190 O   0  0  0  0  0  1  0  0  0  0  0  0
  187.6500  177.7180  142.7940 C   0  0  0  0  0  0  0  0  0  0  0  0
  186.5360  177.9010  145.3640 C   0  0  0  0  0  0  0  0  0  0  0  0
  185.9690  178.0000  146.6380 O   0  0  0  0  0  0  0  0  0  0  0  0
  185.9680  179.2160  147.3690 C   0  0  0  0  0  1  0  0  0  0  0  0
  189.5180  178.2360  146.8560 C   0  0  0  0  0  1  0  0  0  0  0  0
  188.6510  177.0680  146.4250 C   0  0  0  0  0  2  0  0  0  0  0  0
  190.3370  175.3090  137.1350 C   0  0  0  0  0  2  0  0  0  0  0  0
  188.9240  175.1650  136.6030 C   0  0  0  0  0  2  0  0  0  0  0  0
  188.9330  174.3390  135.3670 C   0  0  0  0  0  0  0  0  0  0  0  0
  190.1300  174.0750  134.7150 O   0  0  0  0  0  0  0  0  0  0  0  0
  187.8510  173.9060  134.8920 O   0  0  0  0  0  1  0  0  0  0  0  0
  1  9  1  0  0  0  0
  1 14  1  0  0  0  0
  2 22  1  0  0  0  0
  3  4  1  0  0  0  0
  4 17  1  0  0  0  0
  5  6  2  0  0  0  0
  6 23  1  0  0  0  0
  6 27  1  0  0  0  0
  7 20  1  0  0  0  0
  8 11  2  0  0  0  0
  9 15  1  0  0  0  0
 10  3  1  0  0  0  0
 10 12  1  0  0  0  0
 11 12  1  0  0  0  0
 11  2  1  0  0  0  0
 12 18  2  0  0  0  0
 13 19  1  0  0  0  0
 14 16  1  0  0  0  0
 15  8  1  0  0  0  0
 15  7  2  0  0  0  0
 16  7  1  0  0  0  0
 18 17  1  0  0  0  0
 18 13  1  0  0  0  0
 19 23  2  0  0  0  0
 20  2  2  0  0  0  0
 21  5  1  0  0  0  0
 22 13  2  0  0  0  0
 22  5  1  0  0  0  0
 23 24  1  0  0  0  0
 24 25  1  0  0  0  0
 27 26  1  0  0  0  0
 28  1  1  0  0  0  0
 29 28  1  0  0  0  0
 30 29  1  0  0  0  0
 31 30  2  0  0  0  0
 32 30  1  0  0  0  0
M  END
>  <MODEL>
8

>  <REMARK>
 VINA RESULT:      -7.1      1.789      2.468
  Name = 
  5 active torsions:
  status: ('A' for Active; 'I' for Inactive)
    1  A    between atoms: C_1  and  C_10
    2  A    between atoms: N_2  and  C_24
    3  A    between atoms: C_7  and  C_22
    4  A    between atoms: C_10  and  C_24
    5  A    between atoms: O_11  and  C_32
                            x       y       z     vdW  Elec       q    Type
                         _______ _______ _______ _____ _____    ______ ____

>  <TORSDO>
F 5

$$$$
=
 OpenBabel11052417003D

 32 36  0  0  0  0  0  0  0  0999 V2000
  190.7710  177.4450  144.2360 N   0  0  0  0  0  0  0  0  0  0  0  0
  186.0980  178.3690  142.3990 C   0  0  0  0  0  0  0  0  0  0  0  0
  186.8940  178.7510  137.6020 N   0  0  0  0  0  2  0  0  0  0  0  0
  185.6040  178.1350  137.3150 C   0  0  0  0  0  2  0  0  0  0  0  0
  183.7520  178.6530  143.2290 C   0  0  0  0  0  0  0  0  0  0  0  0
  182.3900  178.8140  142.9330 C   0  0  0  0  0  0  0  0  0  0  0  0
  188.0220  178.1440  143.8740 C   0  0  0  0  0  0  0  0  0  0  0  0
  188.3170  178.0930  141.5090 N   0  0  0  0  0  0  0  0  0  0  0  0
  190.3470  177.8960  142.9040 C   0  0  0  0  0  2  0  0  0  0  0  0
  187.4240  178.1360  138.8160 C   0  0  0  0  0  2  0  0  0  0  0  0
  186.9810  178.2600  141.2950 C   0  0  0  0  0  0  0  0  0  0  0  0
  186.4890  178.3270  139.9860 C   0  0  0  0  0  0  0  0  0  0  0  0
  184.2230  178.5850  140.8440 C   0  0  0  0  0  0  0  0  0  0  0  0
  190.0820  178.2000  145.2940 C   0  0  0  0  0  2  0  0  0  0  0  0
  188.8530  178.0170  142.7530 C   0  0  0  0  0  0  0  0  0  0  0  0
  188.5630  178.0040  145.2610 C   0  0  0  0  0  2  0  0  0  0  0  0
  184.5800  178.5960  138.3470 C   0  0  0  0  0  2  0  0  0  0  0  0
  185.1070  178.4720  139.7580 C   0  0  0  0  0  0  0  0  0  0  0  0
  182.8930  178.7480  140.6050 N   0  0  0  0  0  0  0  0  0  0  0  0
  186.6520  178.3020  143.6850 C   0  0  0  0  0  3  0  0  0  0  0  0
  184.1390  178.6140  144.5670 O   0  0  0  0  0  1  0  0  0  0  0  0
  184.7020  178.5340  142.1780 C   0  0  0  0  0  0  0  0  0  0  0  0
  181.9750  178.8640  141.5990 C   0  0  0  0  0  0  0  0  0  0  0  0
  180.6210  179.0320  141.2950 O   0  0  0  0  0  0  0  0  0  0  0  0
  180.1310  180.2010  140.6560 C   0  0  0  0  0  1  0  0  0  0  0  0
  180.3770  177.8270  143.9770 C   0  0  0  0  0  1  0  0  0  0  0  0
  181.3880  178.9580  144.0360 C   0  0  0  0  0  2  0  0  0  0  0  0
  190.5230  176.0110  144.3700 C   0  0  0  0  0  2  0  0  0  0  0  0
  191.7600  175.2320  143.9670 C   0  0  0  0  0  2  0  0  0  0  0  0
  192.3470  174.5660  145.1610 C   0  0  0  0  0  0  0  0  0  0  0  0
  192.4230  175.2470  146.3690 O   0  0  0  0  0  1  0  0  0  0  0  0
  192.8060  173.3990  145.0690 O   0  0  0  0  0  0  0  0  0  0  0  0
  1 28  1  0  0  0  0
  1 14  1  0  0  0  0
  2 20  2  0  0  0  0
  3 10  1  0  0  0  0
  4  3  1  0  0  0  0
  4 17  1  0  0  0  0
  5 21  1  0  0  0  0
  6  5  2  0  0  0  0
  6 27  1  0  0  0  0
  7 16  1  0  0  0  0
  8 15  1  0  0  0  0
  9  1  1  0  0  0  0
 10 12  1  0  0  0  0
 11  8  2  0  0  0  0
 11  2  1  0  0  0  0
 12 11  1  0  0  0  0
 13 22  2  0  0  0  0
 15  9  1  0  0  0  0
 15  7  2  0  0  0  0
 16 14  1  0  0  0  0
 17 18  1  0  0  0  0
 18 12  2  0  0  0  0
 18 13  1  0  0  0  0
 19 13  1  0  0  0  0
 19 23  2  0  0  0  0
 20  7  1  0  0  0  0
 22  2  1  0  0  0  0
 22  5  1  0  0  0  0
 23  6  1  0  0  0  0
 24 23  1  0  0  0  0
 25 24  1  0  0  0  0
 26 27  1  0  0  0  0
 29 28  1  0  0  0  0
 29 30  1  0  0  0  0
 30 31  1  0  0  0  0
 32 30  2  0  0  0  0
M  END
>  <MODEL>
9

>  <REMARK>
 VINA RESULT:      -6.6      3.205      7.170
  Name = 
  5 active torsions:
  status: ('A' for Active; 'I' for Inactive)
    1  A    between atoms: C_1  and  C_10
    2  A    between atoms: N_2  and  C_24
    3  A    between atoms: C_7  and  C_22
    4  A    between atoms: C_10  and  C_24
    5  A    between atoms: O_11  and  C_32
                            x       y       z     vdW  Elec       q    Type
                         _______ _______ _______ _____ _____    ______ ____

>  <TORSDO>
F 5

$$$$
