=
 OpenBabel11052413563D

 34 39  0  0  1  0  0  0  0  0999 V2000
  189.8150  177.3830  146.4830 C   0  0  0  0  0  0  0  0  0  0  0  0
  191.3420  176.0190  145.2300 C   0  0  0  0  0  0  0  0  0  0  0  0
  189.2600  176.9550  144.0270 C   0  0  1  0  0  3  0  0  0  0  0  0
  188.9110  177.4160  141.6490 C   0  0  2  0  0  3  0  0  0  0  0  0
  191.8240  176.6270  147.4650 C   0  0  0  0  0  3  0  0  0  0  0  0
  192.1440  175.9650  146.3260 N   0  0  0  0  0  0  0  0  0  0  0  0
  191.5130  177.3830  142.2330 S   0  0  0  0  0  0  0  0  0  0  0  0
  190.1970  176.8410  145.2360 C   0  0  0  0  0  0  0  0  0  0  0  0
  189.5350  178.0770  140.4460 C   0  0  0  0  0  2  0  0  0  0  0  0
  190.6520  177.3040  147.5490 N   0  0  0  0  0  0  0  0  0  0  0  0
  187.9960  177.6590  144.3450 N   0  0  1  0  0  0  0  0  0  0  0  0
  188.4380  177.9300  146.6870 C   0  0  0  0  0  2  0  0  0  0  0  0
  191.6100  175.1380  144.1430 N   0  0  0  0  0  1  0  0  0  0  0  0
  187.5050  177.9280  141.9370 C   0  0  0  0  0  2  0  0  0  0  0  0
  187.0030  177.3800  143.2870 C   0  0  2  0  0  3  0  0  0  0  0  0
  191.0320  177.7880  140.5120 C   0  0  2  0  0  3  0  0  0  0  0  0
  189.8260  177.7100  142.8130 C   0  0  2  0  0  3  0  0  0  0  0  0
  187.5040  177.2930  145.6710 C   0  0  0  0  0  2  0  0  0  0  0  0
  183.4760  178.6960  142.8090 C   0  0  0  0  0  0  0  0  0  0  0  0
  183.1590  179.1380  144.0970 C   0  0  0  0  0  3  0  0  0  0  0  0
  185.6640  177.9930  143.5850 C   0  0  0  0  0  0  0  0  0  0  0  0
  184.0920  179.0110  145.1310 C   0  0  0  0  0  3  0  0  0  0  0  0
  184.7270  178.1260  142.5540 C   0  0  0  0  0  3  0  0  0  0  0  0
  185.3420  178.4410  144.8760 C   0  0  0  0  0  3  0  0  0  0  0  0
  182.5280  178.8270  141.7580 N   0  0  0  0  0  1  0  0  0  0  0  0
  190.6650  176.3480  138.5200 C   0  0  0  0  0  3  0  0  0  0  0  0
  191.4190  176.6840  139.5740 C   0  0  0  0  0  3  0  0  0  0  0  0
  189.2060  174.9620  136.1130 O   0  0  0  0  0  0  0  0  0  0  0  0
  191.0490  175.2400  137.5760 C   0  0  1  0  0  3  0  0  0  0  0  0
  190.3620  175.3300  136.2320 C   0  0  0  0  0  0  0  0  0  0  0  0
  192.5820  175.7500  135.1890 C   0  0  0  0  0  2  0  0  0  0  0  0
  193.0190  176.0130  136.6250 C   0  0  0  0  0  2  0  0  0  0  0  0
  192.4520  175.0490  137.4870 O   0  0  0  0  0  0  0  0  0  0  0  0
  191.0750  175.9430  135.0640 C   0  0  0  0  0  2  0  0  0  0  0  0
  1 12  1  0  0  0  0
  1 10  1  0  0  0  0
  2  8  1  0  0  0  0
  2  6  2  0  0  0  0
  3 11  1  0  0  0  0
  3  8  1  1  0  0  0
  4  9  1  6  0  0  0
  4 14  1  0  0  0  0
  4 17  1  0  0  0  0
  5 10  2  0  0  0  0
  6  5  1  0  0  0  0
  8  1  2  0  0  0  0
  9 16  1  0  0  0  0
 11 18  1  1  0  0  0
 13  2  1  0  0  0  0
 14 15  1  0  0  0  0
 15 21  1  1  0  0  0
 15 11  1  0  0  0  0
 16 27  1  6  0  0  0
 16  7  1  0  0  0  0
 17  7  1  6  0  0  0
 17  3  1  0  0  0  0
 18 12  1  0  0  0  0
 19 20  1  0  0  0  0
 20 22  2  0  0  0  0
 21 24  2  0  0  0  0
 23 19  2  0  0  0  0
 23 21  1  0  0  0  0
 24 22  1  0  0  0  0
 25 19  1  0  0  0  0
 26 27  2  0  0  0  0
 28 30  2  0  0  0  0
 29 26  1  6  0  0  0
 30 29  1  0  0  0  0
 31 32  1  0  0  0  0
 32 33  1  0  0  0  0
 33 29  1  0  0  0  0
 34 31  1  0  0  0  0
 34 30  1  0  0  0  0
M  END
>  <MODEL>
1

>  <REMARK>
 VINA RESULT:     -10.3      0.000      0.000
  Name = 
  3 active torsions:
  status: ('A' for Active; 'I' for Inactive)
    1  A    between atoms: C_3  and  C_13
    2  A    between atoms: C_12  and  C_28
    3  A    between atoms: C_17  and  C_29
                            x       y       z     vdW  Elec       q    Type
                         _______ _______ _______ _____ _____    ______ ____

>  <TORSDO>
F 3

$$$$
=
 OpenBabel11052413563D

 34 39  0  0  1  0  0  0  0  0999 V2000
  189.7720  177.2740  146.1380 C   0  0  0  0  0  0  0  0  0  0  0  0
  191.1630  175.9810  144.6710 C   0  0  0  0  0  0  0  0  0  0  0  0
  188.9900  177.0000  143.7230 C   0  0  1  0  0  3  0  0  0  0  0  0
  188.4310  177.6070  141.4190 C   0  0  2  0  0  3  0  0  0  0  0  0
  191.8530  176.4490  146.8840 C   0  0  0  0  0  3  0  0  0  0  0  0
  192.0600  175.8560  145.6830 N   0  0  0  0  0  0  0  0  0  0  0  0
  191.0750  177.5240  141.7580 S   0  0  0  0  0  0  0  0  0  0  0  0
  190.0320  176.8070  144.8320 C   0  0  0  0  0  0  0  0  0  0  0  0
  188.9490  178.3370  140.2060 C   0  0  0  0  0  2  0  0  0  0  0  0
  190.7010  177.1250  147.1160 N   0  0  0  0  0  0  0  0  0  0  0  0
  187.7680  177.6900  144.1980 N   0  0  1  0  0  0  0  0  0  0  0  0
  188.4250  177.8150  146.5010 C   0  0  0  0  0  2  0  0  0  0  0  0
  191.3210  175.1670  143.5130 N   0  0  0  0  0  1  0  0  0  0  0  0
  187.0620  178.1090  141.8660 C   0  0  0  0  0  2  0  0  0  0  0  0
  186.6790  177.4810  143.2200 C   0  0  2  0  0  3  0  0  0  0  0  0
  190.4420  178.0370  140.1170 C   0  0  2  0  0  3  0  0  0  0  0  0
  189.4500  177.8240  142.5090 C   0  0  2  0  0  3  0  0  0  0  0  0
  187.3950  177.2460  145.5380 C   0  0  0  0  0  2  0  0  0  0  0  0
  183.1200  178.7930  143.1600 C   0  0  0  0  0  0  0  0  0  0  0  0
  182.9450  179.2060  144.4850 C   0  0  0  0  0  3  0  0  0  0  0  0
  185.3810  178.0820  143.6770 C   0  0  0  0  0  0  0  0  0  0  0  0
  183.9850  179.0590  145.4070 C   0  0  0  0  0  3  0  0  0  0  0  0
  184.3360  178.2340  142.7570 C   0  0  0  0  0  3  0  0  0  0  0  0
  185.2010  178.5000  145.0040 C   0  0  0  0  0  3  0  0  0  0  0  0
  182.0620  178.9440  142.2220 N   0  0  0  0  0  1  0  0  0  0  0  0
  190.4020  177.1530  137.7940 C   0  0  0  0  0  3  0  0  0  0  0  0
  190.7300  176.9900  139.0820 C   0  0  0  0  0  3  0  0  0  0  0  0
  191.2590  174.1380  137.9440 O   0  0  0  0  0  0  0  0  0  0  0  0
  190.6880  176.1060  136.7520 C   0  0  1  0  0  3  0  0  0  0  0  0
  190.4380  174.6940  137.2330 C   0  0  0  0  0  0  0  0  0  0  0  0
  188.5840  174.5200  135.5840 C   0  0  0  0  0  2  0  0  0  0  0  0
  188.7240  176.0360  135.5180 C   0  0  0  0  0  2  0  0  0  0  0  0
  190.0900  176.3940  135.4980 O   0  0  0  0  0  0  0  0  0  0  0  0
  189.1480  174.0050  136.9030 C   0  0  0  0  0  2  0  0  0  0  0  0
  1 12  1  0  0  0  0
  1 10  1  0  0  0  0
  2  8  1  0  0  0  0
  2  6  2  0  0  0  0
  3 11  1  0  0  0  0
  3  8  1  1  0  0  0
  4  9  1  6  0  0  0
  4 14  1  0  0  0  0
  4 17  1  0  0  0  0
  5 10  2  0  0  0  0
  6  5  1  0  0  0  0
  8  1  2  0  0  0  0
 11 18  1  1  0  0  0
 13  2  1  0  0  0  0
 14 15  1  0  0  0  0
 15 21  1  1  0  0  0
 15 11  1  0  0  0  0
 16 27  1  6  0  0  0
 16  9  1  0  0  0  0
 16  7  1  0  0  0  0
 17  7  1  6  0  0  0
 17  3  1  0  0  0  0
 18 12  1  0  0  0  0
 19 20  1  0  0  0  0
 20 22  2  0  0  0  0
 21 24  2  0  0  0  0
 23 19  2  0  0  0  0
 23 21  1  0  0  0  0
 24 22  1  0  0  0  0
 25 19  1  0  0  0  0
 26 27  2  0  0  0  0
 29 30  1  0  0  0  0
 29 26  1  1  0  0  0
 30 28  2  0  0  0  0
 31 34  1  0  0  0  0
 32 31  1  0  0  0  0
 33 32  1  0  0  0  0
 33 29  1  0  0  0  0
 34 30  1  0  0  0  0
M  END
>  <MODEL>
2

>  <REMARK>
 VINA RESULT:     -10.1      0.937      1.525
  Name = 
  3 active torsions:
  status: ('A' for Active; 'I' for Inactive)
    1  A    between atoms: C_3  and  C_13
    2  A    between atoms: C_12  and  C_28
    3  A    between atoms: C_17  and  C_29
                            x       y       z     vdW  Elec       q    Type
                         _______ _______ _______ _____ _____    ______ ____

>  <TORSDO>
F 3

$$$$
=
 OpenBabel11052413563D

 34 39  0  0  1  0  0  0  0  0999 V2000
  191.4400  177.4700  141.2980 C   0  0  0  0  0  0  0  0  0  0  0  0
  190.0430  176.7440  139.4860 C   0  0  0  0  0  0  0  0  0  0  0  0
  188.9410  177.2370  141.7670 C   0  0  1  0  0  3  0  0  0  0  0  0
  186.6390  177.8970  142.2740 C   0  0  2  0  0  3  0  0  0  0  0  0
  192.3460  177.1590  139.1410 C   0  0  0  0  0  3  0  0  0  0  0  0
  191.1350  176.7640  138.6780 N   0  0  0  0  0  0  0  0  0  0  0  0
  187.2560  178.4880  139.7480 S   0  0  0  0  0  0  0  0  0  0  0  0
  190.1390  177.2200  140.8100 C   0  0  0  0  0  0  0  0  0  0  0  0
  185.5450  178.8540  141.8760 C   0  0  0  0  0  2  0  0  0  0  0  0
  192.5000  177.4780  140.4500 N   0  0  0  0  0  0  0  0  0  0  0  0
  189.3280  177.5260  143.1680 N   0  0  1  0  0  0  0  0  0  0  0  0
  191.6920  177.5940  142.7680 C   0  0  0  0  0  2  0  0  0  0  0  0
  188.8530  176.1200  139.0140 N   0  0  0  0  0  1  0  0  0  0  0  0
  186.9700  177.9700  143.7600 C   0  0  0  0  0  2  0  0  0  0  0  0
  188.2260  177.1330  144.0700 C   0  0  2  0  0  3  0  0  0  0  0  0
  185.5970  178.9730  140.3550 C   0  0  2  0  0  3  0  0  0  0  0  0
  187.8460  178.2690  141.4500 C   0  0  2  0  0  3  0  0  0  0  0  0
  190.5850  176.8690  143.5160 C   0  0  0  0  0  2  0  0  0  0  0  0
  190.2310  177.1840  147.2910 C   0  0  0  0  0  0  0  0  0  0  0  0
  189.2820  177.6430  148.2110 C   0  0  0  0  0  3  0  0  0  0  0  0
  188.5810  177.3180  145.5170 C   0  0  0  0  0  0  0  0  0  0  0  0
  187.9830  177.9390  147.7880 C   0  0  0  0  0  3  0  0  0  0  0  0
  189.8800  177.0200  145.9480 C   0  0  0  0  0  3  0  0  0  0  0  0
  187.6320  177.7760  146.4450 C   0  0  0  0  0  3  0  0  0  0  0  0
  191.5510  176.8810  147.7220 N   0  0  0  0  0  1  0  0  0  0  0  0
  183.8010  178.6050  138.6760 C   0  0  0  0  0  3  0  0  0  0  0  0
  184.5270  178.1480  139.7040 C   0  0  0  0  0  3  0  0  0  0  0  0
  183.6020  175.5870  137.8410 O   0  0  0  0  0  0  0  0  0  0  0  0
  182.7250  177.7820  138.0210 C   0  0  1  0  0  3  0  0  0  0  0  0
  182.7860  176.3150  138.3820 C   0  0  0  0  0  0  0  0  0  0  0  0
  180.6040  176.5700  139.5510 C   0  0  0  0  0  2  0  0  0  0  0  0
  180.9090  178.0590  139.4380 C   0  0  0  0  0  2  0  0  0  0  0  0
  181.4320  178.3490  138.1590 O   0  0  0  0  0  0  0  0  0  0  0  0
  181.8980  175.7700  139.4610 C   0  0  0  0  0  2  0  0  0  0  0  0
  1 12  1  0  0  0  0
  2  8  2  0  0  0  0
  3  8  1  6  0  0  0
  3 11  1  0  0  0  0
  4  9  1  1  0  0  0
  4 14  1  0  0  0  0
  5 10  1  0  0  0  0
  6  5  2  0  0  0  0
  6  2  1  0  0  0  0
  7 16  1  0  0  0  0
  8  1  1  0  0  0  0
 10  1  2  0  0  0  0
 11 18  1  1  0  0  0
 11 15  1  0  0  0  0
 12 18  1  0  0  0  0
 13  2  1  0  0  0  0
 14 15  1  0  0  0  0
 15 21  1  1  0  0  0
 16 27  1  6  0  0  0
 16  9  1  0  0  0  0
 17  7  1  6  0  0  0
 17  3  1  0  0  0  0
 17  4  1  0  0  0  0
 19 25  1  0  0  0  0
 19 20  1  0  0  0  0
 21 23  1  0  0  0  0
 21 24  2  0  0  0  0
 22 20  2  0  0  0  0
 23 19  2  0  0  0  0
 24 22  1  0  0  0  0
 26 27  2  0  0  0  0
 28 30  2  0  0  0  0
 29 33  1  0  0  0  0
 29 30  1  0  0  0  0
 29 26  1  1  0  0  0
 30 34  1  0  0  0  0
 32 31  1  0  0  0  0
 33 32  1  0  0  0  0
 34 31  1  0  0  0  0
M  END
>  <MODEL>
3

>  <REMARK>
 VINA RESULT:      -9.5      3.390      6.876
  Name = 
  3 active torsions:
  status: ('A' for Active; 'I' for Inactive)
    1  A    between atoms: C_3  and  C_13
    2  A    between atoms: C_12  and  C_28
    3  A    between atoms: C_17  and  C_29
                            x       y       z     vdW  Elec       q    Type
                         _______ _______ _______ _____ _____    ______ ____

>  <TORSDO>
F 3

$$$$
=
 OpenBabel11052413563D

 34 39  0  0  1  0  0  0  0  0999 V2000
  191.4040  177.4790  141.2450 C   0  0  0  0  0  0  0  0  0  0  0  0
  189.9650  176.7760  139.4570 C   0  0  0  0  0  0  0  0  0  0  0  0
  188.9160  177.2450  141.7670 C   0  0  1  0  0  3  0  0  0  0  0  0
  186.6270  177.9030  142.3340 C   0  0  2  0  0  3  0  0  0  0  0  0
  192.2610  177.1910  139.0650 C   0  0  0  0  0  3  0  0  0  0  0  0
  191.0380  176.8040  138.6250 N   0  0  0  0  0  0  0  0  0  0  0  0
  187.1880  178.5220  139.8010 S   0  0  0  0  0  0  0  0  0  0  0  0
  190.0920  177.2370  140.7840 C   0  0  0  0  0  0  0  0  0  0  0  0
  185.5270  178.8670  141.9700 C   0  0  0  0  0  2  0  0  0  0  0  0
  192.4440  177.4950  140.3740 N   0  0  0  0  0  0  0  0  0  0  0  0
  189.3350  177.5180  143.1620 N   0  0  1  0  0  0  0  0  0  0  0  0
  191.6900  177.5860  142.7100 C   0  0  0  0  0  2  0  0  0  0  0  0
  188.7640  176.1600  139.0040 N   0  0  0  0  0  1  0  0  0  0  0  0
  186.9910  177.9590  143.8130 C   0  0  0  0  0  2  0  0  0  0  0  0
  188.2530  177.1160  144.0840 C   0  0  2  0  0  3  0  0  0  0  0  0
  185.5440  179.0030  140.4510 C   0  0  2  0  0  3  0  0  0  0  0  0
  187.8160  178.2830  141.4860 C   0  0  2  0  0  3  0  0  0  0  0  0
  190.5980  176.8550  143.4750 C   0  0  0  0  0  2  0  0  0  0  0  0
  190.3190  177.0950  147.2670 C   0  0  0  0  0  0  0  0  0  0  0  0
  189.4020  177.5770  148.2060 C   0  0  0  0  0  3  0  0  0  0  0  0
  188.6410  177.2850  145.5260 C   0  0  0  0  0  0  0  0  0  0  0  0
  188.1040  177.9130  147.8100 C   0  0  0  0  0  3  0  0  0  0  0  0
  189.9380  176.9480  145.9290 C   0  0  0  0  0  3  0  0  0  0  0  0
  187.7230  177.7650  146.4730 C   0  0  0  0  0  3  0  0  0  0  0  0
  191.6390  176.7540  147.6710 N   0  0  0  0  0  1  0  0  0  0  0  0
  183.3520  177.8320  140.4800 C   0  0  0  0  0  3  0  0  0  0  0  0
  184.4580  178.1870  139.8150 C   0  0  0  0  0  3  0  0  0  0  0  0
  180.5990  178.5590  139.1590 O   0  0  0  0  0  0  0  0  0  0  0  0
  182.2590  177.0130  139.8470 C   0  0  1  0  0  3  0  0  0  0  0  0
  181.4630  177.7710  138.8090 C   0  0  0  0  0  0  0  0  0  0  0  0
  182.3660  176.2340  137.0740 C   0  0  0  0  0  2  0  0  0  0  0  0
  183.3670  175.8650  138.1620 C   0  0  0  0  0  2  0  0  0  0  0  0
  182.7060  175.7410  139.4040 O   0  0  0  0  0  0  0  0  0  0  0  0
  181.7860  177.6150  137.3530 C   0  0  0  0  0  2  0  0  0  0  0  0
  1 12  1  0  0  0  0
  2  8  2  0  0  0  0
  3  8  1  6  0  0  0
  3 11  1  0  0  0  0
  4  9  1  1  0  0  0
  4 14  1  0  0  0  0
  5 10  1  0  0  0  0
  6  5  2  0  0  0  0
  6  2  1  0  0  0  0
  7 16  1  0  0  0  0
  8  1  1  0  0  0  0
 10  1  2  0  0  0  0
 11 18  1  1  0  0  0
 11 15  1  0  0  0  0
 12 18  1  0  0  0  0
 13  2  1  0  0  0  0
 14 15  1  0  0  0  0
 15 21  1  1  0  0  0
 16 27  1  6  0  0  0
 16  9  1  0  0  0  0
 17  7  1  6  0  0  0
 17  3  1  0  0  0  0
 17  4  1  0  0  0  0
 19 25  1  0  0  0  0
 19 20  1  0  0  0  0
 21 23  1  0  0  0  0
 21 24  2  0  0  0  0
 22 20  2  0  0  0  0
 23 19  2  0  0  0  0
 24 22  1  0  0  0  0
 27 26  2  0  0  0  0
 29 26  1  6  0  0  0
 30 28  2  0  0  0  0
 30 29  1  0  0  0  0
 31 34  1  0  0  0  0
 31 32  1  0  0  0  0
 32 33  1  0  0  0  0
 33 29  1  0  0  0  0
 34 30  1  0  0  0  0
M  END
>  <MODEL>
4

>  <REMARK>
 VINA RESULT:      -9.3      3.602      6.795
  Name = 
  3 active torsions:
  status: ('A' for Active; 'I' for Inactive)
    1  A    between atoms: C_3  and  C_13
    2  A    between atoms: C_12  and  C_28
    3  A    between atoms: C_17  and  C_29
                            x       y       z     vdW  Elec       q    Type
                         _______ _______ _______ _____ _____    ______ ____

>  <TORSDO>
F 3

$$$$
=
 OpenBabel11052413563D

 34 39  0  0  1  0  0  0  0  0999 V2000
  185.0070  178.9830  144.7540 C   0  0  0  0  0  0  0  0  0  0  0  0
  186.8630  177.4760  144.5400 C   0  0  0  0  0  0  0  0  0  0  0  0
  185.5390  178.1060  142.4160 C   0  0  1  0  0  3  0  0  0  0  0  0
  186.2640  178.1240  140.0780 C   0  0  2  0  0  3  0  0  0  0  0  0
  186.3660  178.4880  146.6190 C   0  0  0  0  0  3  0  0  0  0  0  0
  187.1140  177.6470  145.8630 N   0  0  0  0  0  0  0  0  0  0  0  0
  188.3610  178.2910  141.7170 S   0  0  0  0  0  0  0  0  0  0  0  0
  185.8620  178.2430  143.9090 C   0  0  0  0  0  0  0  0  0  0  0  0
  187.3700  178.5840  139.1640 C   0  0  0  0  0  2  0  0  0  0  0  0
  185.3020  179.1250  146.0710 N   0  0  0  0  0  0  0  0  0  0  0  0
  184.2930  178.8080  142.0310 N   0  0  1  0  0  0  0  0  0  0  0  0
  183.7000  179.5070  144.2480 C   0  0  0  0  0  2  0  0  0  0  0  0
  187.5320  176.4270  143.8470 N   0  0  0  0  0  1  0  0  0  0  0  0
  184.8930  178.6280  139.6400 C   0  0  0  0  0  2  0  0  0  0  0  0
  183.8380  178.3090  140.7170 C   0  0  2  0  0  3  0  0  0  0  0  0
  188.6800  178.3670  139.9150 C   0  0  2  0  0  3  0  0  0  0  0  0
  186.6030  178.6530  141.4500 C   0  0  2  0  0  3  0  0  0  0  0  0
  183.2650  178.6650  143.0590 C   0  0  0  0  0  2  0  0  0  0  0  0
  181.3230  180.6240  139.0690 C   0  0  0  0  0  0  0  0  0  0  0  0
  180.1090  180.0830  139.5030 C   0  0  0  0  0  3  0  0  0  0  0  0
  182.5290  178.9160  140.2990 C   0  0  0  0  0  0  0  0  0  0  0  0
  180.1010  178.9590  140.3350 C   0  0  0  0  0  3  0  0  0  0  0  0
  182.5310  180.0430  139.4680 C   0  0  0  0  0  3  0  0  0  0  0  0
  181.3080  178.3780  140.7340 C   0  0  0  0  0  3  0  0  0  0  0  0
  181.3310  181.7680  138.2240 N   0  0  0  0  0  1  0  0  0  0  0  0
  189.4330  176.7860  138.1510 C   0  0  0  0  0  3  0  0  0  0  0  0
  189.3840  177.1290  139.4440 C   0  0  0  0  0  3  0  0  0  0  0  0
  189.4140  175.2010  135.4430 O   0  0  0  0  0  0  0  0  0  0  0  0
  190.1370  175.5440  137.6730 C   0  0  1  0  0  3  0  0  0  0  0  0
  190.3400  175.5060  136.1760 C   0  0  0  0  0  0  0  0  0  0  0  0
  192.7940  175.6440  136.5610 C   0  0  0  0  0  2  0  0  0  0  0  0
  192.3800  176.0600  137.9670 C   0  0  0  0  0  2  0  0  0  0  0  0
  191.3110  175.2530  138.4150 O   0  0  0  0  0  0  0  0  0  0  0  0
  191.6550  175.9170  135.5850 C   0  0  0  0  0  2  0  0  0  0  0  0
  1 10  1  0  0  0  0
  2  6  2  0  0  0  0
  3  8  1  1  0  0  0
  4  9  1  6  0  0  0
  4 17  1  0  0  0  0
  6  5  1  0  0  0  0
  8  2  1  0  0  0  0
  8  1  2  0  0  0  0
  9 16  1  0  0  0  0
 10  5  2  0  0  0  0
 11  3  1  0  0  0  0
 11 18  1  1  0  0  0
 12  1  1  0  0  0  0
 13  2  1  0  0  0  0
 14  4  1  0  0  0  0
 14 15  1  0  0  0  0
 15 21  1  6  0  0  0
 15 11  1  0  0  0  0
 16 27  1  6  0  0  0
 16  7  1  0  0  0  0
 17  7  1  1  0  0  0
 17  3  1  0  0  0  0
 18 12  1  0  0  0  0
 19 23  2  0  0  0  0
 19 20  1  0  0  0  0
 20 22  2  0  0  0  0
 21 24  2  0  0  0  0
 22 24  1  0  0  0  0
 23 21  1  0  0  0  0
 25 19  1  0  0  0  0
 26 27  2  0  0  0  0
 28 30  2  0  0  0  0
 29 26  1  1  0  0  0
 29 33  1  0  0  0  0
 30 29  1  0  0  0  0
 31 32  1  0  0  0  0
 32 33  1  0  0  0  0
 34 30  1  0  0  0  0
 34 31  1  0  0  0  0
M  END
>  <MODEL>
5

>  <REMARK>
 VINA RESULT:      -9.1      2.473      4.073
  Name = 
  3 active torsions:
  status: ('A' for Active; 'I' for Inactive)
    1  A    between atoms: C_3  and  C_13
    2  A    between atoms: C_12  and  C_28
    3  A    between atoms: C_17  and  C_29
                            x       y       z     vdW  Elec       q    Type
                         _______ _______ _______ _____ _____    ______ ____

>  <TORSDO>
F 3

$$$$
=
 OpenBabel11052413563D

 34 39  0  0  1  0  0  0  0  0999 V2000
  191.6070  177.5040  141.4170 C   0  0  0  0  0  0  0  0  0  0  0  0
  190.7710  176.6520  139.3330 C   0  0  0  0  0  0  0  0  0  0  0  0
  189.0790  177.2080  141.2010 C   0  0  1  0  0  3  0  0  0  0  0  0
  186.7140  177.8130  141.0290 C   0  0  2  0  0  3  0  0  0  0  0  0
  193.0720  177.1280  139.6060 C   0  0  0  0  0  3  0  0  0  0  0  0
  192.0410  176.6730  138.8520 N   0  0  0  0  0  0  0  0  0  0  0  0
  187.9840  178.3120  138.7380 S   0  0  0  0  0  0  0  0  0  0  0  0
  190.4930  177.1890  140.6070 C   0  0  0  0  0  0  0  0  0  0  0  0
  185.7510  178.7150  140.3000 C   0  0  0  0  0  2  0  0  0  0  0  0
  192.8570  177.5100  140.8880 N   0  0  0  0  0  0  0  0  0  0  0  0
  189.0650  177.5730  142.6370 N   0  0  1  0  0  0  0  0  0  0  0  0
  191.4460  177.7020  142.8910 C   0  0  0  0  0  2  0  0  0  0  0  0
  189.7690  175.9680  138.5890 N   0  0  0  0  0  1  0  0  0  0  0  0
  186.6250  177.9630  142.5440 C   0  0  0  0  0  2  0  0  0  0  0  0
  187.7660  177.1830  143.2250 C   0  0  2  0  0  3  0  0  0  0  0  0
  186.2130  178.7670  138.8460 C   0  0  2  0  0  3  0  0  0  0  0  0
  188.0930  178.1890  140.5450 C   0  0  2  0  0  3  0  0  0  0  0  0
  190.1920  176.9740  143.3470 C   0  0  0  0  0  2  0  0  0  0  0  0
  186.4810  178.2680  146.6270 C   0  0  0  0  0  0  0  0  0  0  0  0
  187.5650  177.9560  147.4540 C   0  0  0  0  0  3  0  0  0  0  0  0
  187.7090  177.4450  144.7030 C   0  0  0  0  0  0  0  0  0  0  0  0
  188.7210  177.3900  146.9110 C   0  0  0  0  0  3  0  0  0  0  0  0
  186.5550  178.0140  145.2540 C   0  0  0  0  0  3  0  0  0  0  0  0
  188.7950  177.1360  145.5380 C   0  0  0  0  0  3  0  0  0  0  0  0
  185.3060  178.8440  147.1800 N   0  0  0  0  0  1  0  0  0  0  0  0
  184.0400  177.9380  137.9690 C   0  0  0  0  0  3  0  0  0  0  0  0
  185.3780  177.8790  137.9730 C   0  0  0  0  0  3  0  0  0  0  0  0
  184.3380  176.8990  135.0230 O   0  0  0  0  0  0  0  0  0  0  0  0
  183.1980  177.0480  137.0950 C   0  0  1  0  0  3  0  0  0  0  0  0
  183.9920  176.3170  136.0370 C   0  0  0  0  0  0  0  0  0  0  0  0
  183.4380  174.1770  137.1810 C   0  0  0  0  0  2  0  0  0  0  0  0
  183.0360  175.0920  138.3310 C   0  0  0  0  0  2  0  0  0  0  0  0
  182.3270  176.2080  137.8370 O   0  0  0  0  0  0  0  0  0  0  0  0
  184.4230  174.8990  136.2680 C   0  0  0  0  0  2  0  0  0  0  0  0
  1 12  1  0  0  0  0
  2  8  1  0  0  0  0
  3  8  1  6  0  0  0
  3 11  1  0  0  0  0
  4  9  1  6  0  0  0
  4 14  1  0  0  0  0
  5 10  2  0  0  0  0
  6  2  2  0  0  0  0
  6  5  1  0  0  0  0
  7 16  1  0  0  0  0
  8  1  2  0  0  0  0
 10  1  1  0  0  0  0
 11 15  1  0  0  0  0
 11 18  1  1  0  0  0
 12 18  1  0  0  0  0
 13  2  1  0  0  0  0
 14 15  1  0  0  0  0
 15 21  1  1  0  0  0
 16 27  1  6  0  0  0
 16  9  1  0  0  0  0
 17  7  1  6  0  0  0
 17  4  1  0  0  0  0
 17  3  1  0  0  0  0
 19 25  1  0  0  0  0
 19 20  1  0  0  0  0
 21 23  1  0  0  0  0
 21 24  2  0  0  0  0
 22 20  2  0  0  0  0
 23 19  2  0  0  0  0
 24 22  1  0  0  0  0
 26 27  2  0  0  0  0
 28 30  2  0  0  0  0
 29 33  1  0  0  0  0
 29 26  1  1  0  0  0
 30 34  1  0  0  0  0
 30 29  1  0  0  0  0
 31 32  1  0  0  0  0
 33 32  1  0  0  0  0
 34 31  1  0  0  0  0
M  END
>  <MODEL>
6

>  <REMARK>
 VINA RESULT:      -9.0      3.757      5.787
  Name = 
  3 active torsions:
  status: ('A' for Active; 'I' for Inactive)
    1  A    between atoms: C_3  and  C_13
    2  A    between atoms: C_12  and  C_28
    3  A    between atoms: C_17  and  C_29
                            x       y       z     vdW  Elec       q    Type
                         _______ _______ _______ _____ _____    ______ ____

>  <TORSDO>
F 3

$$$$
=
 OpenBabel11052413563D

 34 39  0  0  1  0  0  0  0  0999 V2000
  188.4330  177.4670  135.4130 C   0  0  0  0  0  0  0  0  0  0  0  0
  186.7760  177.1150  137.1140 C   0  0  0  0  0  0  0  0  0  0  0  0
  189.2460  176.6400  137.6880 C   0  0  1  0  0  3  0  0  0  0  0  0
  190.3730  176.6680  139.8610 C   0  0  2  0  0  3  0  0  0  0  0  0
  186.1760  178.0340  135.0190 C   0  0  0  0  0  3  0  0  0  0  0  0
  185.8380  177.5920  136.2550 N   0  0  0  0  0  0  0  0  0  0  0  0
  188.1490  178.1390  139.9320 S   0  0  0  0  0  0  0  0  0  0  0  0
  188.1390  177.1510  136.7580 C   0  0  0  0  0  0  0  0  0  0  0  0
  190.5480  177.4840  141.1160 C   0  0  0  0  0  2  0  0  0  0  0  0
  187.4600  177.9410  134.5940 N   0  0  0  0  0  0  0  0  0  0  0  0
  190.5610  176.5330  137.0120 N   0  0  1  0  0  0  0  0  0  0  0  0
  189.7770  177.1590  134.8340 C   0  0  0  0  0  2  0  0  0  0  0  0
  186.3440  176.4670  138.3060 N   0  0  0  0  0  1  0  0  0  0  0  0
  191.7000  176.3220  139.1960 C   0  0  0  0  0  2  0  0  0  0  0  0
  191.4550  175.6760  137.8180 C   0  0  2  0  0  3  0  0  0  0  0  0
  189.1860  178.0890  141.4410 C   0  0  2  0  0  3  0  0  0  0  0  0
  189.5230  177.5000  138.9330 C   0  0  2  0  0  3  0  0  0  0  0  0
  190.4150  176.0430  135.6440 C   0  0  0  0  0  2  0  0  0  0  0  0
  194.6950  176.3530  135.9640 C   0  0  0  0  0  0  0  0  0  0  0  0
  195.2550  175.0740  135.8910 C   0  0  0  0  0  3  0  0  0  0  0  0
  192.7820  175.4520  137.1510 C   0  0  0  0  0  0  0  0  0  0  0  0
  194.5820  173.9820  136.4460 C   0  0  0  0  0  3  0  0  0  0  0  0
  193.4600  176.5410  136.5910 C   0  0  0  0  0  3  0  0  0  0  0  0
  193.3470  174.1690  137.0740 C   0  0  0  0  0  3  0  0  0  0  0  0
  195.3800  177.4640  135.3990 N   0  0  0  0  0  1  0  0  0  0  0  0
  188.4050  177.8140  143.7850 C   0  0  0  0  0  3  0  0  0  0  0  0
  188.4980  177.3340  142.5390 C   0  0  0  0  0  3  0  0  0  0  0  0
  189.3650  176.6890  146.5520 O   0  0  0  0  0  0  0  0  0  0  0  0
  187.7170  177.0590  144.8900 C   0  0  1  0  0  3  0  0  0  0  0  0
  188.3410  177.2790  146.2490 C   0  0  0  0  0  0  0  0  0  0  0  0
  186.2480  178.4170  146.9650 C   0  0  0  0  0  2  0  0  0  0  0  0
  185.9560  178.4540  145.4700 C   0  0  0  0  0  2  0  0  0  0  0  0
  186.3070  177.2210  144.8780 O   0  0  0  0  0  0  0  0  0  0  0  0
  187.7480  178.2800  147.1950 C   0  0  0  0  0  2  0  0  0  0  0  0
  1  8  1  0  0  0  0
  2 13  1  0  0  0  0
  3  8  1  6  0  0  0
  3 17  1  0  0  0  0
  4 14  1  6  0  0  0
  4  9  1  0  0  0  0
  5  6  2  0  0  0  0
  6  2  1  0  0  0  0
  7 16  1  0  0  0  0
  8  2  2  0  0  0  0
  9 16  1  0  0  0  0
 10  5  1  0  0  0  0
 10  1  2  0  0  0  0
 11 18  1  6  0  0  0
 11  3  1  0  0  0  0
 11 15  1  0  0  0  0
 12  1  1  0  0  0  0
 12 18  1  0  0  0  0
 15 21  1  6  0  0  0
 15 14  1  0  0  0  0
 16 27  1  1  0  0  0
 17  4  1  0  0  0  0
 17  7  1  1  0  0  0
 19 23  1  0  0  0  0
 20 19  2  0  0  0  0
 20 22  1  0  0  0  0
 22 24  2  0  0  0  0
 23 21  2  0  0  0  0
 24 21  1  0  0  0  0
 25 19  1  0  0  0  0
 27 26  2  0  0  0  0
 29 26  1  6  0  0  0
 29 30  1  0  0  0  0
 30 28  2  0  0  0  0
 30 34  1  0  0  0  0
 31 34  1  0  0  0  0
 32 31  1  0  0  0  0
 33 29  1  0  0  0  0
 33 32  1  0  0  0  0
M  END
>  <MODEL>
7

>  <REMARK>
 VINA RESULT:      -8.4      4.258     10.070
  Name = 
  3 active torsions:
  status: ('A' for Active; 'I' for Inactive)
    1  A    between atoms: C_3  and  C_13
    2  A    between atoms: C_12  and  C_28
    3  A    between atoms: C_17  and  C_29
                            x       y       z     vdW  Elec       q    Type
                         _______ _______ _______ _____ _____    ______ ____

>  <TORSDO>
F 3

$$$$
=
 OpenBabel11052413563D

 34 39  0  0  1  0  0  0  0  0999 V2000
  186.2250  177.7200  144.4500 C   0  0  0  0  0  0  0  0  0  0  0  0
  184.3850  179.2520  144.6260 C   0  0  0  0  0  0  0  0  0  0  0  0
  185.3400  178.7440  142.2840 C   0  0  1  0  0  3  0  0  0  0  0  0
  184.2510  178.8750  140.0960 C   0  0  2  0  0  3  0  0  0  0  0  0
  185.1900  178.1100  146.5350 C   0  0  0  0  0  3  0  0  0  0  0  0
  184.3460  179.0010  145.9610 N   0  0  0  0  0  0  0  0  0  0  0  0
  182.4410  178.6230  142.0380 S   0  0  0  0  0  0  0  0  0  0  0  0
  185.2590  178.5180  143.7980 C   0  0  0  0  0  0  0  0  0  0  0  0
  183.0040  178.4810  139.3460 C   0  0  0  0  0  2  0  0  0  0  0  0
  186.1420  177.5000  145.7860 N   0  0  0  0  0  0  0  0  0  0  0  0
  186.4970  178.0570  141.6620 N   0  0  1  0  0  0  0  0  0  0  0  0
  187.4240  177.2190  143.7100 C   0  0  0  0  0  2  0  0  0  0  0  0
  183.6320  180.3470  144.1140 N   0  0  0  0  0  1  0  0  0  0  0  0
  185.5250  178.3890  139.4140 C   0  0  0  0  0  2  0  0  0  0  0  0
  186.7440  178.6330  140.3240 C   0  0  2  0  0  3  0  0  0  0  0  0
  181.8350  178.6610  140.3100 C   0  0  2  0  0  3  0  0  0  0  0  0
  184.1260  178.2650  141.4700 C   0  0  2  0  0  3  0  0  0  0  0  0
  187.6780  178.1290  142.5180 C   0  0  0  0  0  2  0  0  0  0  0  0
  190.3220  177.5020  139.7580 C   0  0  0  0  0  0  0  0  0  0  0  0
  190.2500  176.9610  138.4710 C   0  0  0  0  0  3  0  0  0  0  0  0
  187.9590  178.0430  139.6660 C   0  0  0  0  0  0  0  0  0  0  0  0
  189.0360  176.9600  137.7780 C   0  0  0  0  0  3  0  0  0  0  0  0
  189.1780  178.0430  140.3530 C   0  0  0  0  0  3  0  0  0  0  0  0
  187.8930  177.5020  138.3730 C   0  0  0  0  0  3  0  0  0  0  0  0
  191.5570  177.5030  140.4620 N   0  0  0  0  0  1  0  0  0  0  0  0
  181.2290  180.6050  138.8850 C   0  0  0  0  0  3  0  0  0  0  0  0
  181.0870  179.9300  140.0320 C   0  0  0  0  0  3  0  0  0  0  0  0
  182.1190  183.4710  137.9660 O   0  0  0  0  0  0  0  0  0  0  0  0
  180.4810  181.8800  138.6020 C   0  0  1  0  0  3  0  0  0  0  0  0
  181.1790  182.7800  137.6080 C   0  0  0  0  0  0  0  0  0  0  0  0
  179.2950  182.4010  136.0270 C   0  0  0  0  0  2  0  0  0  0  0  0
  178.9580  181.2510  136.9690 C   0  0  0  0  0  2  0  0  0  0  0  0
  179.1090  181.6650  138.3110 O   0  0  0  0  0  0  0  0  0  0  0  0
  180.7680  182.7660  136.1660 C   0  0  0  0  0  2  0  0  0  0  0  0
  1 10  1  0  0  0  0
  2  6  2  0  0  0  0
  3  8  1  1  0  0  0
  4  9  1  6  0  0  0
  4 17  1  0  0  0  0
  6  5  1  0  0  0  0
  8  1  2  0  0  0  0
  8  2  1  0  0  0  0
  9 16  1  0  0  0  0
 10  5  2  0  0  0  0
 11  3  1  0  0  0  0
 11 18  1  1  0  0  0
 12  1  1  0  0  0  0
 13  2  1  0  0  0  0
 14  4  1  0  0  0  0
 14 15  1  0  0  0  0
 15 21  1  6  0  0  0
 15 11  1  0  0  0  0
 16 27  1  6  0  0  0
 16  7  1  0  0  0  0
 17  7  1  1  0  0  0
 17  3  1  0  0  0  0
 18 12  1  0  0  0  0
 19 23  1  0  0  0  0
 19 25  1  0  0  0  0
 20 19  2  0  0  0  0
 21 23  2  0  0  0  0
 22 24  2  0  0  0  0
 22 20  1  0  0  0  0
 24 21  1  0  0  0  0
 26 27  2  0  0  0  0
 29 26  1  6  0  0  0
 30 28  2  0  0  0  0
 30 29  1  0  0  0  0
 31 34  1  0  0  0  0
 31 32  1  0  0  0  0
 32 33  1  0  0  0  0
 33 29  1  0  0  0  0
 34 30  1  0  0  0  0
M  END
>  <MODEL>
8

>  <REMARK>
 VINA RESULT:      -8.4      4.911      8.684
  Name = 
  3 active torsions:
  status: ('A' for Active; 'I' for Inactive)
    1  A    between atoms: C_3  and  C_13
    2  A    between atoms: C_12  and  C_28
    3  A    between atoms: C_17  and  C_29
                            x       y       z     vdW  Elec       q    Type
                         _______ _______ _______ _____ _____    ______ ____

>  <TORSDO>
F 3

$$$$
=
 OpenBabel11052413563D

 34 39  0  0  1  0  0  0  0  0999 V2000
  186.4950  178.6370  138.5360 C   0  0  0  0  0  0  0  0  0  0  0  0
  185.9320  178.4840  140.8650 C   0  0  0  0  0  0  0  0  0  0  0  0
  188.1710  177.4750  140.0720 C   0  0  1  0  0  3  0  0  0  0  0  0
  190.2380  177.0930  141.3280 C   0  0  2  0  0  3  0  0  0  0  0  0
  184.5460  179.6780  139.3660 C   0  0  0  0  0  3  0  0  0  0  0  0
  184.8140  179.2110  140.6100 N   0  0  0  0  0  0  0  0  0  0  0  0
  188.7520  178.9690  142.5040 S   0  0  0  0  0  0  0  0  0  0  0  0
  186.8830  178.2750  139.8440 C   0  0  0  0  0  0  0  0  0  0  0  0
  191.2100  177.7480  142.2740 C   0  0  0  0  0  2  0  0  0  0  0  0
  185.3670  179.3650  138.3330 N   0  0  0  0  0  0  0  0  0  0  0  0
  188.8840  177.1630  138.8110 N   0  0  1  0  0  0  0  0  0  0  0  0
  187.2390  178.1150  137.3480 C   0  0  0  0  0  2  0  0  0  0  0  0
  186.0550  177.8380  142.1280 N   0  0  0  0  0  1  0  0  0  0  0  0
  190.9150  176.5430  140.0770 C   0  0  0  0  0  2  0  0  0  0  0  0
  189.8570  176.0790  139.0570 C   0  0  2  0  0  3  0  0  0  0  0  0
  190.3830  178.5860  143.2450 C   0  0  2  0  0  3  0  0  0  0  0  0
  189.2320  178.1540  140.9560 C   0  0  2  0  0  3  0  0  0  0  0  0
  187.9470  176.8290  137.7420 C   0  0  0  0  0  2  0  0  0  0  0  0
  190.8290  174.0280  136.0160 C   0  0  0  0  0  0  0  0  0  0  0  0
  191.8500  174.8060  135.4610 C   0  0  0  0  0  3  0  0  0  0  0  0
  190.5600  175.6490  137.8010 C   0  0  0  0  0  0  0  0  0  0  0  0
  192.2300  176.0040  136.0730 C   0  0  0  0  0  3  0  0  0  0  0  0
  190.1860  174.4490  137.1840 C   0  0  0  0  0  3  0  0  0  0  0  0
  191.5870  176.4240  137.2420 C   0  0  0  0  0  3  0  0  0  0  0  0
  190.4440  172.8090  135.3930 N   0  0  0  0  0  1  0  0  0  0  0  0
  189.0250  177.5120  145.0280 C   0  0  0  0  0  3  0  0  0  0  0  0
  190.2220  177.8940  144.5660 C   0  0  0  0  0  3  0  0  0  0  0  0
  191.0230  176.7160  147.3140 O   0  0  0  0  0  0  0  0  0  0  0  0
  188.8580  176.8190  146.3540 C   0  0  1  0  0  3  0  0  0  0  0  0
  189.9070  177.2060  147.3720 C   0  0  0  0  0  0  0  0  0  0  0  0
  188.1140  178.2640  148.7340 C   0  0  0  0  0  2  0  0  0  0  0  0
  187.3010  178.1420  147.4510 C   0  0  0  0  0  2  0  0  0  0  0  0
  187.5310  176.8850  146.8510 O   0  0  0  0  0  0  0  0  0  0  0  0
  189.6020  178.2490  148.4050 C   0  0  0  0  0  2  0  0  0  0  0  0
  1  8  1  0  0  0  0
  2 13  1  0  0  0  0
  3  8  1  6  0  0  0
  3 17  1  0  0  0  0
  4 14  1  6  0  0  0
  4  9  1  0  0  0  0
  5  6  2  0  0  0  0
  6  2  1  0  0  0  0
  7 16  1  0  0  0  0
  8  2  2  0  0  0  0
  9 16  1  0  0  0  0
 10  1  2  0  0  0  0
 10  5  1  0  0  0  0
 11 18  1  6  0  0  0
 11 15  1  0  0  0  0
 11  3  1  0  0  0  0
 12 18  1  0  0  0  0
 12  1  1  0  0  0  0
 15 21  1  6  0  0  0
 15 14  1  0  0  0  0
 16 27  1  1  0  0  0
 17  4  1  0  0  0  0
 17  7  1  1  0  0  0
 19 23  1  0  0  0  0
 20 19  2  0  0  0  0
 20 22  1  0  0  0  0
 22 24  2  0  0  0  0
 23 21  2  0  0  0  0
 24 21  1  0  0  0  0
 25 19  1  0  0  0  0
 27 26  2  0  0  0  0
 28 30  2  0  0  0  0
 29 26  1  6  0  0  0
 29 33  1  0  0  0  0
 29 30  1  0  0  0  0
 30 34  1  0  0  0  0
 32 31  1  0  0  0  0
 33 32  1  0  0  0  0
 34 31  1  0  0  0  0
M  END
>  <MODEL>
9

>  <REMARK>
 VINA RESULT:      -8.1      3.856      8.977
  Name = 
  3 active torsions:
  status: ('A' for Active; 'I' for Inactive)
    1  A    between atoms: C_3  and  C_13
    2  A    between atoms: C_12  and  C_28
    3  A    between atoms: C_17  and  C_29
                            x       y       z     vdW  Elec       q    Type
                         _______ _______ _______ _____ _____    ______ ____

>  <TORSDO>
F 3

$$$$
