=
 OpenBabel11052414293D

 32 37  0  0  1  0  0  0  0  0999 V2000
  187.4290  176.9380  142.4460 C   0  0  1  0  0  3  0  0  0  0  0  0
  187.2270  178.9220  141.0640 C   0  0  2  0  0  3  0  0  0  0  0  0
  191.5910  178.2480  144.0760 C   0  0  1  0  0  3  0  0  0  0  0  0
  187.6860  176.6920  143.9230 C   0  0  0  0  0  2  0  0  0  0  0  0
  186.6030  178.1890  142.2530 C   0  0  1  0  0  3  0  0  0  0  0  0
  186.4480  178.7330  139.7430 C   0  0  2  0  0  3  0  0  0  0  0  0
  192.1470  179.4700  144.4560 O   0  0  0  0  0  1  0  0  0  0  0  0
  189.7920  176.0000  138.5910 N   0  0  0  0  0  0  0  0  0  0  0  0
  188.6420  178.3390  140.9540 C   0  0  1  0  0  3  0  0  0  0  0  0
  187.8700  175.4930  137.2530 C   0  0  0  0  0  2  0  0  0  0  0  0
  187.9740  177.5850  138.5630 C   0  0  1  0  0  3  0  0  0  0  0  0
  184.9360  178.9740  139.8440 C   0  0  2  0  0  3  0  0  0  0  0  0
  191.1700  177.4450  145.3210 C   0  0  1  0  0  3  0  0  0  0  0  0
  189.1720  176.4860  144.0510 C   0  0  2  0  0  3  0  0  0  0  0  0
  186.7270  177.4670  139.2100 O   0  0  0  0  0  0  0  0  0  0  0  0
  185.1320  177.8080  142.0820 C   0  0  0  0  0  2  0  0  0  0  0  0
  189.6720  177.1180  145.3580 C   0  0  0  0  0  2  0  0  0  0  0  0
  190.4690  178.4610  143.0520 C   0  0  2  0  0  3  0  0  0  0  0  0
  189.5600  179.4180  143.5150 O   0  0  0  0  0  1  0  0  0  0  0  0
  188.7070  177.1060  141.7540 N   0  0  1  0  0  0  0  0  0  0  0  0
  184.6290  180.2290  139.3210 O   0  0  0  0  0  1  0  0  0  0  0  0
  189.7630  177.1100  142.7870 C   0  0  2  0  0  3  0  0  0  0  0  0
  189.1010  178.1030  139.4940 C   0  0  2  0  0  3  0  0  0  0  0  0
  184.3930  178.8680  141.2750 C   0  0  2  0  0  3  0  0  0  0  0  0
  188.4730  176.2550  138.1540 C   0  0  0  0  0  0  0  0  0  0  0  0
  190.2710  177.1140  139.3880 C   0  0  0  0  0  3  0  0  0  0  0  0
  182.9420  178.6630  141.2990 N   0  0  0  0  0  2  0  0  0  0  0  0
  182.4110  178.8900  142.6400 C   0  0  0  0  0  2  0  0  0  0  0  0
  180.8980  178.8410  142.5970 C   0  0  0  0  0  1  0  0  0  0  0  0
  191.9920  176.1710  145.4400 C   0  0  0  0  0  2  0  0  0  0  0  0
  192.3970  175.9310  147.5950 C   0  0  0  0  0  1  0  0  0  0  0  0
  191.5930  175.4470  146.5630 O   0  0  0  0  0  0  0  0  0  0  0  0
  1  4  1  1  0  0  0
  2  5  1  0  0  0  0
  3  7  1  0  0  0  0
  3 13  1  0  0  0  0
  4 14  1  0  0  0  0
  5  1  1  0  0  0  0
  6 12  1  0  0  0  0
  6  2  1  0  0  0  0
  8 26  2  0  0  0  0
  9  2  1  0  0  0  0
  9 20  1  0  0  0  0
 10 25  2  0  0  0  0
 11 15  1  0  0  0  0
 11 23  1  0  0  0  0
 12 24  1  0  0  0  0
 13 17  1  0  0  0  0
 13 30  1  0  0  0  0
 14 17  1  0  0  0  0
 15  6  1  0  0  0  0
 16  5  1  0  0  0  0
 18 19  1  0  0  0  0
 18  3  1  0  0  0  0
 20  1  1  0  0  0  0
 20 22  1  0  0  0  0
 21 12  1  0  0  0  0
 22 18  1  0  0  0  0
 22 14  1  0  0  0  0
 23  9  1  0  0  0  0
 24 27  1  0  0  0  0
 24 16  1  0  0  0  0
 25 11  1  0  0  0  0
 25  8  1  0  0  0  0
 26 23  1  0  0  0  0
 27 28  1  0  0  0  0
 29 28  1  0  0  0  0
 30 32  1  0  0  0  0
 32 31  1  0  0  0  0
M  END
>  <MODEL>
1

>  <REMARK>
 VINA RESULT:      -6.8      0.000      0.000
  Name = 
  4 active torsions:
  status: ('A' for Active; 'I' for Inactive)
    1  A    between atoms: N_14  and  C_21
    2  A    between atoms: N_14  and  C_29
    3  A    between atoms: C_15  and  C_19
    4  A    between atoms: C_19  and  O_26
                            x       y       z     vdW  Elec       q    Type
                         _______ _______ _______ _____ _____    ______ ____

>  <TORSDO>
F 4

$$$$
=
 OpenBabel11052414293D

 32 37  0  0  1  0  0  0  0  0999 V2000
  189.1530  174.6680  137.3810 C   0  0  1  0  0  3  0  0  0  0  0  0
  190.6460  176.5340  136.9570 C   0  0  2  0  0  3  0  0  0  0  0  0
  185.4760  176.9570  135.6700 C   0  0  1  0  0  3  0  0  0  0  0  0
  188.1910  173.8610  136.5270 C   0  0  0  0  0  2  0  0  0  0  0  0
  190.3620  175.0810  136.5720 C   0  0  1  0  0  3  0  0  0  0  0  0
  191.8120  176.6910  137.9600 C   0  0  2  0  0  3  0  0  0  0  0  0
  185.2840  177.8250  134.5940 O   0  0  0  0  0  1  0  0  0  0  0  0
  188.6190  177.5140  140.9780 N   0  0  0  0  0  0  0  0  0  0  0  0
  189.3290  177.0340  137.5660 C   0  0  1  0  0  3  0  0  0  0  0  0
  190.6160  176.8350  142.1150 C   0  0  0  0  0  1  0  0  0  0  0  0
  190.6850  177.4820  139.7320 C   0  0  1  0  0  3  0  0  0  0  0  0
  193.0900  175.9280  137.5880 C   0  0  2  0  0  3  0  0  0  0  0  0
  184.9750  175.5450  135.3100 C   0  0  1  0  0  3  0  0  0  0  0  0
  186.8430  174.5060  136.7080 C   0  0  2  0  0  3  0  0  0  0  0  0
  191.3730  176.3510  139.2470 O   0  0  0  0  0  0  0  0  0  0  0  0
  191.5080  174.1030  136.8310 C   0  0  0  0  0  2  0  0  0  0  0  0
  186.0690  174.4740  135.3830 C   0  0  0  0  0  2  0  0  0  0  0  0
  186.9310  177.0080  136.1500 C   0  0  2  0  0  3  0  0  0  0  0  0
  187.8080  176.8360  135.0730 O   0  0  0  0  0  1  0  0  0  0  0  0
  188.4780  175.8720  137.8650 N   0  0  1  0  0  0  0  0  0  0  0  0
  194.0240  176.8160  137.0560 O   0  0  0  0  0  1  0  0  0  0  0  0
  187.1490  175.9130  137.2210 C   0  0  2  0  0  3  0  0  0  0  0  0
  189.5260  177.9380  138.8070 C   0  0  2  0  0  3  0  0  0  0  0  0
  192.8530  174.7790  136.5990 C   0  0  2  0  0  3  0  0  0  0  0  0
  189.9880  177.1610  140.9950 C   0  0  0  0  0  0  0  0  0  0  0  0
  188.2650  178.0450  139.6750 C   0  0  0  0  0  2  0  0  0  0  0  0
  193.9580  173.8170  136.5990 N   0  0  0  0  0  2  0  0  0  0  0  0
  194.4530  173.5980  137.9550 C   0  0  0  0  0  2  0  0  0  0  0  0
  195.6370  172.6560  137.9140 C   0  0  0  0  0  1  0  0  0  0  0  0
  183.7950  175.1570  136.1880 C   0  0  0  0  0  2  0  0  0  0  0  0
  183.1340  175.3560  138.2830 C   0  0  0  0  0  1  0  0  0  0  0  0
  183.6300  176.0940  137.2080 O   0  0  0  0  0  0  0  0  0  0  0  0
  1  4  1  6  0  0  0
  1 20  1  0  0  0  0
  2  9  1  0  0  0  0
  2  6  1  0  0  0  0
  3 18  1  0  0  0  0
  4 14  1  0  0  0  0
  5 16  1  0  0  0  0
  5  2  1  0  0  0  0
  5  1  1  0  0  0  0
  6 15  1  0  0  0  0
  7  3  1  0  0  0  0
  8 25  2  0  0  0  0
  9 20  1  0  0  0  0
  9 23  1  0  0  0  0
 11 25  1  0  0  0  0
 12  6  1  0  0  0  0
 13 17  1  0  0  0  0
 13  3  1  0  0  0  0
 13 30  1  0  0  0  0
 14 22  1  0  0  0  0
 15 11  1  0  0  0  0
 17 14  1  0  0  0  0
 18 22  1  0  0  0  0
 19 18  1  0  0  0  0
 21 12  1  0  0  0  0
 22 20  1  0  0  0  0
 23 26  1  0  0  0  0
 23 11  1  0  0  0  0
 24 16  1  0  0  0  0
 24 12  1  0  0  0  0
 25 10  1  0  0  0  0
 26  8  1  0  0  0  0
 27 24  1  0  0  0  0
 27 28  1  0  0  0  0
 29 28  1  0  0  0  0
 30 32  1  0  0  0  0
 32 31  1  0  0  0  0
M  END
>  <MODEL>
2

>  <REMARK>
 VINA RESULT:      -6.2      3.720      9.021
  Name = 
  4 active torsions:
  status: ('A' for Active; 'I' for Inactive)
    1  A    between atoms: N_14  and  C_21
    2  A    between atoms: N_14  and  C_29
    3  A    between atoms: C_15  and  C_19
    4  A    between atoms: C_19  and  O_26
                            x       y       z     vdW  Elec       q    Type
                         _______ _______ _______ _____ _____    ______ ____

>  <TORSDO>
F 4

$$$$
=
 OpenBabel11052414293D

 32 37  0  0  1  0  0  0  0  0999 V2000
  188.1700  176.9420  141.2510 C   0  0  1  0  0  3  0  0  0  0  0  0
  188.6970  178.6030  139.5620 C   0  0  2  0  0  3  0  0  0  0  0  0
  191.7060  178.2860  143.9680 C   0  0  1  0  0  3  0  0  0  0  0  0
  187.8950  176.9940  142.7440 C   0  0  0  0  0  2  0  0  0  0  0  0
  187.6270  178.1770  140.5690 C   0  0  1  0  0  3  0  0  0  0  0  0
  188.3750  178.1930  138.1070 C   0  0  2  0  0  3  0  0  0  0  0  0
  192.2660  179.5210  144.2990 O   0  0  0  0  0  1  0  0  0  0  0  0
  191.5160  175.0650  138.6800 N   0  0  0  0  0  0  0  0  0  0  0  0
  189.9800  177.9170  140.0520 C   0  0  1  0  0  3  0  0  0  0  0  0
  190.0860  174.4180  136.8690 C   0  0  0  0  0  2  0  0  0  0  0  0
  190.0350  176.7260  137.7480 C   0  0  1  0  0  3  0  0  0  0  0  0
  186.9600  178.5490  137.6350 C   0  0  2  0  0  3  0  0  0  0  0  0
  190.7980  177.7900  145.1100 C   0  0  1  0  0  3  0  0  0  0  0  0
  189.2160  176.7220  143.4130 C   0  0  2  0  0  3  0  0  0  0  0  0
  188.6410  176.8280  137.9330 O   0  0  0  0  0  0  0  0  0  0  0  0
  186.2560  177.8670  139.9680 C   0  0  0  0  0  2  0  0  0  0  0  0
  189.3420  177.5780  144.6810 C   0  0  0  0  0  2  0  0  0  0  0  0
  191.0200  178.3530  142.5980 C   0  0  2  0  0  3  0  0  0  0  0  0
  190.1460  179.4450  142.5440 O   0  0  0  0  0  1  0  0  0  0  0  0
  189.6150  176.8780  141.0270 N   0  0  1  0  0  0  0  0  0  0  0  0
  187.0100  179.6850  136.8270 O   0  0  0  0  0  1  0  0  0  0  0  0
  190.2650  177.0270  142.3440 C   0  0  2  0  0  3  0  0  0  0  0  0
  190.8540  177.3510  138.9070 C   0  0  2  0  0  3  0  0  0  0  0  0
  185.9690  178.7810  138.7840 C   0  0  2  0  0  3  0  0  0  0  0  0
  190.4570  175.3100  137.7760 C   0  0  0  0  0  0  0  0  0  0  0  0
  191.8510  176.2870  139.3870 C   0  0  0  0  0  3  0  0  0  0  0  0
  184.5770  178.6820  138.3390 N   0  0  0  0  0  2  0  0  0  0  0  0
  183.6690  179.1850  139.3660 C   0  0  0  0  0  2  0  0  0  0  0  0
  182.7060  180.1750  138.7460 C   0  0  0  0  0  1  0  0  0  0  0  0
  191.3590  176.5180  145.7250 C   0  0  0  0  0  2  0  0  0  0  0  0
  192.3950  175.5780  147.4310 C   0  0  0  0  0  1  0  0  0  0  0  0
  192.0560  176.8200  146.8950 O   0  0  0  0  0  0  0  0  0  0  0  0
  1  4  1  1  0  0  0
  2  9  1  0  0  0  0
  2  5  1  0  0  0  0
  3  7  1  0  0  0  0
  3 13  1  0  0  0  0
  4 14  1  0  0  0  0
  5  1  1  0  0  0  0
  6  2  1  0  0  0  0
  8 26  2  0  0  0  0
  9 20  1  0  0  0  0
 10 25  2  0  0  0  0
 11 25  1  0  0  0  0
 11 15  1  0  0  0  0
 11 23  1  0  0  0  0
 12  6  1  0  0  0  0
 12 24  1  0  0  0  0
 13 30  1  0  0  0  0
 14 17  1  0  0  0  0
 15  6  1  0  0  0  0
 16  5  1  0  0  0  0
 17 13  1  0  0  0  0
 18  3  1  0  0  0  0
 19 18  1  0  0  0  0
 20  1  1  0  0  0  0
 20 22  1  0  0  0  0
 21 12  1  0  0  0  0
 22 18  1  0  0  0  0
 22 14  1  0  0  0  0
 23 26  1  0  0  0  0
 23  9  1  0  0  0  0
 24 16  1  0  0  0  0
 25  8  1  0  0  0  0
 27 24  1  0  0  0  0
 27 28  1  0  0  0  0
 29 28  1  0  0  0  0
 30 32  1  0  0  0  0
 32 31  1  0  0  0  0
M  END
>  <MODEL>
3

>  <REMARK>
 VINA RESULT:      -5.3      1.794      2.111
  Name = 
  4 active torsions:
  status: ('A' for Active; 'I' for Inactive)
    1  A    between atoms: N_14  and  C_21
    2  A    between atoms: N_14  and  C_29
    3  A    between atoms: C_15  and  C_19
    4  A    between atoms: C_19  and  O_26
                            x       y       z     vdW  Elec       q    Type
                         _______ _______ _______ _____ _____    ______ ____

>  <TORSDO>
F 4

$$$$
=
 OpenBabel11052414293D

 32 37  0  0  1  0  0  0  0  0999 V2000
  183.8110  176.9840  139.4560 C   0  0  1  0  0  3  0  0  0  0  0  0
  185.2300  178.8710  138.8970 C   0  0  2  0  0  3  0  0  0  0  0  0
  180.4380  179.7450  141.0960 C   0  0  1  0  0  3  0  0  0  0  0  0
  182.3850  176.5870  139.1130 C   0  0  0  0  0  2  0  0  0  0  0  0
  184.4560  177.6980  138.2910 C   0  0  1  0  0  3  0  0  0  0  0  0
  186.7500  178.6140  139.0130 C   0  0  2  0  0  3  0  0  0  0  0  0
  179.9070  180.9740  140.7010 O   0  0  0  0  0  1  0  0  0  0  0  0
  185.9590  178.1160  143.3840 N   0  0  0  0  0  0  0  0  0  0  0  0
  184.6010  179.0710  140.2830 C   0  0  1  0  0  3  0  0  0  0  0  0
  188.0320  177.0470  142.8360 C   0  0  0  0  0  2  0  0  0  0  0  0
  186.9640  178.6080  141.2480 C   0  0  1  0  0  3  0  0  0  0  0  0
  187.4140  178.0780  137.7380 C   0  0  2  0  0  3  0  0  0  0  0  0
  179.5110  178.5980  140.6500 C   0  0  1  0  0  3  0  0  0  0  0  0
  181.5360  177.0930  140.2490 C   0  0  2  0  0  3  0  0  0  0  0  0
  187.0030  177.7770  140.1090 O   0  0  0  0  0  0  0  0  0  0  0  0
  185.3000  176.7080  137.4880 C   0  0  0  0  0  2  0  0  0  0  0  0
  180.1910  177.5970  139.7070 C   0  0  0  0  0  2  0  0  0  0  0  0
  181.8900  179.6060  140.6220 C   0  0  2  0  0  3  0  0  0  0  0  0
  181.9860  179.8940  139.2560 O   0  0  0  0  0  1  0  0  0  0  0  0
  183.7990  177.8820  140.6110 N   0  0  1  0  0  0  0  0  0  0  0  0
  188.0940  179.1130  137.0970 O   0  0  0  0  0  1  0  0  0  0  0  0
  182.3850  178.1710  140.9220 C   0  0  2  0  0  3  0  0  0  0  0  0
  185.6340  179.3930  141.3890 C   0  0  2  0  0  3  0  0  0  0  0  0
  186.4260  177.4300  136.7590 C   0  0  2  0  0  3  0  0  0  0  0  0
  186.9980  177.7960  142.4810 C   0  0  0  0  0  0  0  0  0  0  0  0
  185.0970  179.1280  142.8030 C   0  0  0  0  0  3  0  0  0  0  0  0
  187.1010  176.5580  135.7930 N   0  0  0  0  0  2  0  0  0  0  0  0
  187.0680  175.1690  136.2400 C   0  0  0  0  0  2  0  0  0  0  0  0
  188.4670  174.7230  136.6060 C   0  0  0  0  0  1  0  0  0  0  0  0
  178.9320  177.8780  141.8570 C   0  0  0  0  0  2  0  0  0  0  0  0
  179.9400  177.8900  143.8190 C   0  0  0  0  0  1  0  0  0  0  0  0
  179.1040  178.6530  143.0040 O   0  0  0  0  0  0  0  0  0  0  0  0
  1  4  1  6  0  0  0
  1 20  1  0  0  0  0
  2  6  1  0  0  0  0
  2  9  1  0  0  0  0
  4 14  1  0  0  0  0
  5  2  1  0  0  0  0
  5  1  1  0  0  0  0
  6 15  1  0  0  0  0
  7  3  1  0  0  0  0
  9 20  1  0  0  0  0
  9 23  1  0  0  0  0
 11 23  1  0  0  0  0
 11 25  1  0  0  0  0
 12  6  1  0  0  0  0
 13  3  1  0  0  0  0
 13 30  1  0  0  0  0
 14 22  1  0  0  0  0
 15 11  1  0  0  0  0
 16  5  1  0  0  0  0
 17 14  1  0  0  0  0
 17 13  1  0  0  0  0
 18 22  1  0  0  0  0
 18  3  1  0  0  0  0
 19 18  1  0  0  0  0
 20 22  1  0  0  0  0
 21 12  1  0  0  0  0
 23 26  1  0  0  0  0
 24 16  1  0  0  0  0
 24 12  1  0  0  0  0
 25 10  2  0  0  0  0
 25  8  1  0  0  0  0
 26  8  2  0  0  0  0
 27 28  1  0  0  0  0
 27 24  1  0  0  0  0
 28 29  1  0  0  0  0
 30 32  1  0  0  0  0
 32 31  1  0  0  0  0
M  END
>  <MODEL>
4

>  <REMARK>
 VINA RESULT:      -5.2      3.242      7.990
  Name = 
  4 active torsions:
  status: ('A' for Active; 'I' for Inactive)
    1  A    between atoms: N_14  and  C_21
    2  A    between atoms: N_14  and  C_29
    3  A    between atoms: C_15  and  C_19
    4  A    between atoms: C_19  and  O_26
                            x       y       z     vdW  Elec       q    Type
                         _______ _______ _______ _____ _____    ______ ____

>  <TORSDO>
F 4

$$$$
=
 OpenBabel11052414293D

 32 37  0  0  1  0  0  0  0  0999 V2000
  181.9460  178.8800  140.5490 C   0  0  1  0  0  3  0  0  0  0  0  0
  182.5270  179.5020  138.2770 C   0  0  2  0  0  3  0  0  0  0  0  0
  186.4010  178.1900  141.7170 C   0  0  1  0  0  3  0  0  0  0  0  0
  182.3670  179.3660  141.9250 C   0  0  0  0  0  2  0  0  0  0  0  0
  181.9060  180.0320  139.5700 C   0  0  1  0  0  3  0  0  0  0  0  0
  181.4840  179.1260  137.1990 C   0  0  2  0  0  3  0  0  0  0  0  0
  187.5990  178.8390  141.4150 O   0  0  0  0  0  1  0  0  0  0  0  0
  182.4460  174.8940  138.2720 N   0  0  0  0  0  0  0  0  0  0  0  0
  183.3320  178.2700  138.7140 C   0  0  1  0  0  3  0  0  0  0  0  0
  180.3040  174.9640  137.2000 C   0  0  0  0  0  2  0  0  0  0  0  0
  181.8230  176.9090  137.1010 C   0  0  1  0  0  3  0  0  0  0  0  0
  180.4160  180.1940  136.9350 C   0  0  2  0  0  3  0  0  0  0  0  0
  185.9200  178.5900  143.1260 C   0  0  1  0  0  3  0  0  0  0  0  0
  183.4890  178.4570  142.3530 C   0  0  2  0  0  3  0  0  0  0  0  0
  180.9020  177.8920  137.5200 O   0  0  0  0  0  0  0  0  0  0  0  0
  180.4710  180.5430  139.4410 C   0  0  0  0  0  2  0  0  0  0  0  0
  184.5410  179.2600  143.1300 C   0  0  0  0  0  2  0  0  0  0  0  0
  185.3680  178.4190  140.6080 C   0  0  2  0  0  3  0  0  0  0  0  0
  185.2580  179.7830  140.3170 O   0  0  0  0  0  1  0  0  0  0  0  0
  182.9080  177.8880  140.0700 N   0  0  1  0  0  0  0  0  0  0  0  0
  180.7200  180.8760  135.7580 O   0  0  0  0  0  1  0  0  0  0  0  0
  184.0060  177.8370  141.0560 C   0  0  2  0  0  3  0  0  0  0  0  0
  183.2330  177.0850  137.7240 C   0  0  2  0  0  3  0  0  0  0  0  0
  180.2550  181.1990  138.0830 C   0  0  2  0  0  3  0  0  0  0  0  0
  181.4140  175.5750  137.5880 C   0  0  0  0  0  0  0  0  0  0  0  0
  183.6210  175.7420  138.3580 C   0  0  0  0  0  3  0  0  0  0  0  0
  178.9770  181.9120  138.0150 N   0  0  0  0  0  2  0  0  0  0  0  0
  179.1020  183.2520  138.5820 C   0  0  0  0  0  2  0  0  0  0  0  0
  179.8650  184.1360  137.6190 C   0  0  0  0  0  1  0  0  0  0  0  0
  185.9260  177.3870  144.0550 C   0  0  0  0  0  2  0  0  0  0  0  0
  187.5020  177.7880  145.5460 C   0  0  0  0  0  1  0  0  0  0  0  0
  186.1180  177.8020  145.3730 O   0  0  0  0  0  0  0  0  0  0  0  0
  1  4  1  1  0  0  0
  2  9  1  0  0  0  0
  2  5  1  0  0  0  0
  3 13  1  0  0  0  0
  4 14  1  0  0  0  0
  5  1  1  0  0  0  0
  6 15  1  0  0  0  0
  6  2  1  0  0  0  0
  7  3  1  0  0  0  0
  8 26  2  0  0  0  0
  9 20  1  0  0  0  0
 10 25  2  0  0  0  0
 11 15  1  0  0  0  0
 11 25  1  0  0  0  0
 11 23  1  0  0  0  0
 12  6  1  0  0  0  0
 12 24  1  0  0  0  0
 13 17  1  0  0  0  0
 13 30  1  0  0  0  0
 14 17  1  0  0  0  0
 16  5  1  0  0  0  0
 18 22  1  0  0  0  0
 18  3  1  0  0  0  0
 19 18  1  0  0  0  0
 20  1  1  0  0  0  0
 20 22  1  0  0  0  0
 21 12  1  0  0  0  0
 22 14  1  0  0  0  0
 23 26  1  0  0  0  0
 23  9  1  0  0  0  0
 24 16  1  0  0  0  0
 25  8  1  0  0  0  0
 27 24  1  0  0  0  0
 27 28  1  0  0  0  0
 29 28  1  0  0  0  0
 30 32  1  0  0  0  0
 32 31  1  0  0  0  0
M  END
>  <MODEL>
5

>  <REMARK>
 VINA RESULT:      -5.2      3.904      6.151
  Name = 
  4 active torsions:
  status: ('A' for Active; 'I' for Inactive)
    1  A    between atoms: N_14  and  C_21
    2  A    between atoms: N_14  and  C_29
    3  A    between atoms: C_15  and  C_19
    4  A    between atoms: C_19  and  O_26
                            x       y       z     vdW  Elec       q    Type
                         _______ _______ _______ _____ _____    ______ ____

>  <TORSDO>
F 4

$$$$
=
 OpenBabel11052414293D

 32 37  0  0  1  0  0  0  0  0999 V2000
  184.5240  175.3400  137.7290 C   0  0  1  0  0  3  0  0  0  0  0  0
  185.0940  177.5660  136.9470 C   0  0  2  0  0  3  0  0  0  0  0  0
  180.2880  175.5260  135.8010 C   0  0  1  0  0  3  0  0  0  0  0  0
  184.0300  174.0710  137.0560 C   0  0  0  0  0  2  0  0  0  0  0  0
  185.4710  176.0880  136.8180 C   0  0  1  0  0  3  0  0  0  0  0  0
  186.0440  178.3680  137.8660 C   0  0  2  0  0  3  0  0  0  0  0  0
  179.7840  176.0380  134.6050 O   0  0  0  0  0  1  0  0  0  0  0  0
  182.6950  178.2390  140.8240 N   0  0  0  0  0  0  0  0  0  0  0  0
  183.6680  177.5500  137.5140 C   0  0  1  0  0  3  0  0  0  0  0  0
  184.7470  178.6740  141.9820 C   0  0  0  0  0  1  0  0  0  0  0  0
  184.6210  178.8840  139.5240 C   0  0  1  0  0  3  0  0  0  0  0  0
  187.5370  178.1730  137.5770 C   0  0  2  0  0  3  0  0  0  0  0  0
  180.4500  173.9970  135.6990 C   0  0  1  0  0  3  0  0  0  0  0  0
  182.5300  174.1000  137.1790 C   0  0  2  0  0  3  0  0  0  0  0  0
  185.7440  178.0920  139.2070 O   0  0  0  0  0  0  0  0  0  0  0  0
  186.9140  175.7500  137.1920 C   0  0  0  0  0  2  0  0  0  0  0  0
  181.8930  173.5220  135.9070 C   0  0  0  0  0  2  0  0  0  0  0  0
  181.5640  176.2710  136.2120 C   0  0  2  0  0  3  0  0  0  0  0  0
  182.4690  176.3130  135.1460 O   0  0  0  0  0  1  0  0  0  0  0  0
  183.3820  176.2030  138.0320 N   0  0  1  0  0  0  0  0  0  0  0  0
  188.0230  179.2730  136.8710 O   0  0  0  0  0  1  0  0  0  0  0  0
  182.1880  175.5670  137.4410 C   0  0  2  0  0  3  0  0  0  0  0  0
  183.4140  178.6430  138.5800 C   0  0  2  0  0  3  0  0  0  0  0  0
  187.8500  176.8870  136.8010 C   0  0  2  0  0  3  0  0  0  0  0  0
  184.0810  178.5100  140.8470 C   0  0  0  0  0  0  0  0  0  0  0  0
  182.1960  178.3440  139.4650 C   0  0  0  0  0  2  0  0  0  0  0  0
  189.2590  176.5010  136.9190 N   0  0  0  0  0  2  0  0  0  0  0  0
  189.6570  176.4220  138.3220 C   0  0  0  0  0  2  0  0  0  0  0  0
  191.1310  176.7470  138.4460 C   0  0  0  0  0  1  0  0  0  0  0  0
  179.5170  173.2940  136.6720 C   0  0  0  0  0  2  0  0  0  0  0  0
  179.1450  173.7080  138.8070 C   0  0  0  0  0  1  0  0  0  0  0  0
  178.9310  174.2260  137.5300 O   0  0  0  0  0  0  0  0  0  0  0  0
  1  4  1  6  0  0  0
  1 20  1  0  0  0  0
  2  9  1  0  0  0  0
  2  6  1  0  0  0  0
  3 18  1  0  0  0  0
  4 14  1  0  0  0  0
  5  2  1  0  0  0  0
  5 16  1  0  0  0  0
  5  1  1  0  0  0  0
  6 15  1  0  0  0  0
  7  3  1  0  0  0  0
  8 25  2  0  0  0  0
  9 20  1  0  0  0  0
  9 23  1  0  0  0  0
 11 25  1  0  0  0  0
 12  6  1  0  0  0  0
 13  3  1  0  0  0  0
 13 17  1  0  0  0  0
 13 30  1  0  0  0  0
 14 22  1  0  0  0  0
 15 11  1  0  0  0  0
 17 14  1  0  0  0  0
 18 22  1  0  0  0  0
 19 18  1  0  0  0  0
 21 12  1  0  0  0  0
 22 20  1  0  0  0  0
 23 26  1  0  0  0  0
 23 11  1  0  0  0  0
 24 27  1  0  0  0  0
 24 16  1  0  0  0  0
 24 12  1  0  0  0  0
 25 10  1  0  0  0  0
 26  8  1  0  0  0  0
 27 28  1  0  0  0  0
 28 29  1  0  0  0  0
 30 32  1  0  0  0  0
 32 31  1  0  0  0  0
M  END
>  <MODEL>
6

>  <REMARK>
 VINA RESULT:      -5.1      4.498      9.510
  Name = 
  4 active torsions:
  status: ('A' for Active; 'I' for Inactive)
    1  A    between atoms: N_14  and  C_21
    2  A    between atoms: N_14  and  C_29
    3  A    between atoms: C_15  and  C_19
    4  A    between atoms: C_19  and  O_26
                            x       y       z     vdW  Elec       q    Type
                         _______ _______ _______ _____ _____    ______ ____

>  <TORSDO>
F 4

$$$$
=
 OpenBabel11052414293D

 32 37  0  0  1  0  0  0  0  0999 V2000
  186.5370  174.2000  137.3160 C   0  0  1  0  0  3  0  0  0  0  0  0
  187.5550  175.6830  135.6870 C   0  0  2  0  0  3  0  0  0  0  0  0
  182.2330  175.2290  135.8660 C   0  0  1  0  0  3  0  0  0  0  0  0
  185.5560  173.0440  137.2340 C   0  0  0  0  0  2  0  0  0  0  0  0
  187.4400  174.2150  136.1040 C   0  0  1  0  0  3  0  0  0  0  0  0
  188.8750  176.3510  136.1320 C   0  0  2  0  0  3  0  0  0  0  0  0
  181.6540  175.4580  134.6170 O   0  0  0  0  0  1  0  0  0  0  0  0
  186.3670  178.4100  139.2060 N   0  0  0  0  0  0  0  0  0  0  0  0
  186.3470  176.3640  136.3440 C   0  0  1  0  0  3  0  0  0  0  0  0
  188.6570  178.4450  139.9120 C   0  0  0  0  0  1  0  0  0  0  0  0
  188.0670  177.8580  137.5860 C   0  0  1  0  0  3  0  0  0  0  0  0
  190.1440  175.5540  135.8050 C   0  0  2  0  0  3  0  0  0  0  0  0
  181.9090  173.8010  136.3480 C   0  0  1  0  0  3  0  0  0  0  0  0
  184.1960  173.6430  137.4740 C   0  0  2  0  0  3  0  0  0  0  0  0
  188.8070  176.6610  137.4970 O   0  0  0  0  0  0  0  0  0  0  0  0
  188.7640  173.5310  136.4450 C   0  0  0  0  0  2  0  0  0  0  0  0
  183.1560  172.9420  136.5890 C   0  0  0  0  0  2  0  0  0  0  0  0
  183.7290  175.5620  135.8380 C   0  0  2  0  0  3  0  0  0  0  0  0
  184.3510  174.9240  134.7600 O   0  0  0  0  0  1  0  0  0  0  0  0
  185.7960  175.4610  137.3670 N   0  0  1  0  0  0  0  0  0  0  0  0
  190.7670  176.1080  134.6880 O   0  0  0  0  0  1  0  0  0  0  0  0
  184.3690  175.1330  137.1800 C   0  0  2  0  0  3  0  0  0  0  0  0
  186.6670  177.7630  136.9240 C   0  0  2  0  0  3  0  0  0  0  0  0
  189.8860  174.0620  135.5610 C   0  0  2  0  0  3  0  0  0  0  0  0
  187.7420  178.1630  138.9950 C   0  0  0  0  0  0  0  0  0  0  0  0
  185.6380  178.2290  137.9650 C   0  0  0  0  0  2  0  0  0  0  0  0
  191.1080  173.2630  135.6870 N   0  0  0  0  0  2  0  0  0  0  0  0
  191.8940  173.7010  136.8370 C   0  0  0  0  0  2  0  0  0  0  0  0
  193.3540  173.7880  136.4450 C   0  0  0  0  0  1  0  0  0  0  0  0
  181.0450  173.8420  137.5990 C   0  0  0  0  0  2  0  0  0  0  0  0
  179.6890  175.2120  138.6700 C   0  0  0  0  0  1  0  0  0  0  0  0
  180.9450  175.1510  138.0680 O   0  0  0  0  0  0  0  0  0  0  0  0
  1  4  1  6  0  0  0
  1 20  1  0  0  0  0
  2  5  1  0  0  0  0
  2  6  1  0  0  0  0
  2  9  1  0  0  0  0
  3 13  1  0  0  0  0
  4 14  1  0  0  0  0
  5 16  1  0  0  0  0
  5  1  1  0  0  0  0
  6 15  1  0  0  0  0
  7  3  1  0  0  0  0
  9 23  1  0  0  0  0
  9 20  1  0  0  0  0
 11 25  1  0  0  0  0
 12  6  1  0  0  0  0
 13 17  1  0  0  0  0
 13 30  1  0  0  0  0
 15 11  1  0  0  0  0
 17 14  1  0  0  0  0
 18  3  1  0  0  0  0
 18 22  1  0  0  0  0
 19 18  1  0  0  0  0
 21 12  1  0  0  0  0
 22 20  1  0  0  0  0
 22 14  1  0  0  0  0
 23 11  1  0  0  0  0
 23 26  1  0  0  0  0
 24 27  1  0  0  0  0
 24 12  1  0  0  0  0
 24 16  1  0  0  0  0
 25  8  2  0  0  0  0
 25 10  1  0  0  0  0
 26  8  1  0  0  0  0
 27 28  1  0  0  0  0
 29 28  1  0  0  0  0
 30 32  1  0  0  0  0
 32 31  1  0  0  0  0
M  END
>  <MODEL>
7

>  <REMARK>
 VINA RESULT:      -5.1      4.725      9.399
  Name = 
  4 active torsions:
  status: ('A' for Active; 'I' for Inactive)
    1  A    between atoms: N_14  and  C_21
    2  A    between atoms: N_14  and  C_29
    3  A    between atoms: C_15  and  C_19
    4  A    between atoms: C_19  and  O_26
                            x       y       z     vdW  Elec       q    Type
                         _______ _______ _______ _____ _____    ______ ____

>  <TORSDO>
F 4

$$$$
=
 OpenBabel11052414293D

 32 37  0  0  1  0  0  0  0  0999 V2000
  190.1990  175.4770  137.5880 C   0  0  1  0  0  3  0  0  0  0  0  0
  189.2670  176.2360  135.4800 C   0  0  2  0  0  3  0  0  0  0  0  0
  194.2260  174.2450  135.6010 C   0  0  1  0  0  3  0  0  0  0  0  0
  191.4620  175.7940  138.3680 C   0  0  0  0  0  2  0  0  0  0  0  0
  189.6960  176.7080  136.8700 C   0  0  1  0  0  3  0  0  0  0  0  0
  187.7390  176.0620  135.3290 C   0  0  2  0  0  3  0  0  0  0  0  0
  195.0260  174.7960  134.5990 O   0  0  0  0  0  1  0  0  0  0  0  0
  188.5900  171.6770  135.5130 N   0  0  0  0  0  0  0  0  0  0  0  0
  189.9920  174.8960  135.2890 C   0  0  1  0  0  3  0  0  0  0  0  0
  186.2920  172.0540  136.0780 C   0  0  0  0  0  1  0  0  0  0  0  0
  187.6370  173.8400  135.0280 C   0  0  1  0  0  3  0  0  0  0  0  0
  186.9030  177.2500  135.8210 C   0  0  2  0  0  3  0  0  0  0  0  0
  194.8160  174.5650  136.9880 C   0  0  1  0  0  3  0  0  0  0  0  0
  192.4640  174.7430  137.9680 C   0  0  2  0  0  3  0  0  0  0  0  0
  187.3390  174.8680  135.9450 O   0  0  0  0  0  0  0  0  0  0  0  0
  188.5940  177.3690  137.7000 C   0  0  0  0  0  2  0  0  0  0  0  0
  193.8650  175.3660  137.8840 C   0  0  0  0  0  2  0  0  0  0  0  0
  192.7650  174.6730  135.4210 C   0  0  2  0  0  3  0  0  0  0  0  0
  192.6770  176.0620  135.2750 O   0  0  0  0  0  1  0  0  0  0  0  0
  190.4880  174.4400  136.5970 N   0  0  1  0  0  0  0  0  0  0  0  0
  186.4710  178.0000  134.7280 O   0  0  0  0  0  1  0  0  0  0  0  0
  191.9430  174.1920  136.6410 C   0  0  2  0  0  3  0  0  0  0  0  0
  189.1260  173.8190  134.5940 C   0  0  2  0  0  3  0  0  0  0  0  0
  187.6500  178.1610  136.8040 C   0  0  2  0  0  3  0  0  0  0  0  0
  187.4610  172.5160  135.6600 C   0  0  0  0  0  0  0  0  0  0  0  0
  189.6470  172.3930  134.8230 C   0  0  0  0  0  2  0  0  0  0  0  0
  186.7340  179.0010  137.5810 N   0  0  0  0  0  2  0  0  0  0  0  0
  185.8290  178.1780  138.3790 C   0  0  0  0  0  2  0  0  0  0  0  0
  184.6050  178.9880  138.7470 C   0  0  0  0  0  1  0  0  0  0  0  0
  195.2560  173.2900  137.6890 C   0  0  0  0  0  2  0  0  0  0  0  0
  195.6030  171.1300  137.4090 C   0  0  0  0  0  1  0  0  0  0  0  0
  194.7770  172.1760  137.0000 O   0  0  0  0  0  0  0  0  0  0  0  0
  1  4  1  6  0  0  0
  2  5  1  0  0  0  0
  3 13  1  0  0  0  0
  5  1  1  0  0  0  0
  5 16  1  0  0  0  0
  6  2  1  0  0  0  0
  6 12  1  0  0  0  0
  6 15  1  0  0  0  0
  7  3  1  0  0  0  0
  8 25  2  0  0  0  0
  9  2  1  0  0  0  0
  9 20  1  0  0  0  0
 11 25  1  0  0  0  0
 11 15  1  0  0  0  0
 12 24  1  0  0  0  0
 13 30  1  0  0  0  0
 13 17  1  0  0  0  0
 14  4  1  0  0  0  0
 17 14  1  0  0  0  0
 18  3  1  0  0  0  0
 18 22  1  0  0  0  0
 19 18  1  0  0  0  0
 20 22  1  0  0  0  0
 20  1  1  0  0  0  0
 21 12  1  0  0  0  0
 22 14  1  0  0  0  0
 23 26  1  0  0  0  0
 23 11  1  0  0  0  0
 23  9  1  0  0  0  0
 24 27  1  0  0  0  0
 24 16  1  0  0  0  0
 25 10  1  0  0  0  0
 26  8  1  0  0  0  0
 27 28  1  0  0  0  0
 28 29  1  0  0  0  0
 32 31  1  0  0  0  0
 32 30  1  0  0  0  0
M  END
>  <MODEL>
8

>  <REMARK>
 VINA RESULT:      -5.1      5.453      7.201
  Name = 
  4 active torsions:
  status: ('A' for Active; 'I' for Inactive)
    1  A    between atoms: N_14  and  C_21
    2  A    between atoms: N_14  and  C_29
    3  A    between atoms: C_15  and  C_19
    4  A    between atoms: C_19  and  O_26
                            x       y       z     vdW  Elec       q    Type
                         _______ _______ _______ _____ _____    ______ ____

>  <TORSDO>
F 4

$$$$
=
 OpenBabel11052414293D

 32 37  0  0  1  0  0  0  0  0999 V2000
  184.9100  176.8320  137.6780 C   0  0  1  0  0  3  0  0  0  0  0  0
  183.8120  176.6520  135.5220 C   0  0  2  0  0  3  0  0  0  0  0  0
  189.1400  177.0060  135.7390 C   0  0  1  0  0  3  0  0  0  0  0  0
  185.8950  177.8120  138.2910 C   0  0  0  0  0  2  0  0  0  0  0  0
  183.9560  177.5510  136.7520 C   0  0  1  0  0  3  0  0  0  0  0  0
  182.5060  175.8250  135.5100 C   0  0  2  0  0  3  0  0  0  0  0  0
  189.6630  177.6090  134.5940 O   0  0  0  0  0  1  0  0  0  0  0  0
  185.1270  172.3580  136.5540 N   0  0  0  0  0  0  0  0  0  0  0  0
  185.0410  175.7350  135.5710 C   0  0  1  0  0  3  0  0  0  0  0  0
  182.8690  171.8490  137.1750 C   0  0  0  0  0  1  0  0  0  0  0  0
  183.3640  173.7590  135.6890 C   0  0  1  0  0  3  0  0  0  0  0  0
  181.2310  176.6280  135.7940 C   0  0  2  0  0  3  0  0  0  0  0  0
  189.4960  177.8370  136.9870 C   0  0  1  0  0  3  0  0  0  0  0  0
  187.2600  177.2190  138.0570 C   0  0  2  0  0  3  0  0  0  0  0  0
  182.6300  174.7390  136.3870 O   0  0  0  0  0  0  0  0  0  0  0  0
  182.6530  177.8510  137.4930 C   0  0  0  0  0  2  0  0  0  0  0  0
  188.2670  178.3380  137.7550 C   0  0  0  0  0  2  0  0  0  0  0  0
  187.6420  176.7310  135.5680 C   0  0  2  0  0  3  0  0  0  0  0  0
  186.9790  177.8860  135.1400 O   0  0  0  0  0  1  0  0  0  0  0  0
  185.6420  175.8250  136.9110 N   0  0  1  0  0  0  0  0  0  0  0  0
  180.5570  176.8700  134.5980 O   0  0  0  0  0  1  0  0  0  0  0  0
  187.0630  176.2270  136.9110 C   0  0  2  0  0  3  0  0  0  0  0  0
  184.7350  174.2710  135.1740 C   0  0  2  0  0  3  0  0  0  0  0  0
  181.4900  177.9580  136.5150 C   0  0  2  0  0  3  0  0  0  0  0  0
  183.7460  172.6550  136.5940 C   0  0  0  0  0  0  0  0  0  0  0  0
  185.8030  173.2830  135.6630 C   0  0  0  0  0  2  0  0  0  0  0  0
  180.2810  178.4820  137.1550 N   0  0  0  0  0  2  0  0  0  0  0  0
  180.4340  179.9000  137.4650 C   0  0  0  0  0  2  0  0  0  0  0  0
  180.8060  180.6540  136.2060 C   0  0  0  0  0  1  0  0  0  0  0  0
  190.4110  177.0500  137.9100 C   0  0  0  0  0  2  0  0  0  0  0  0
  190.5620  176.6740  140.0790 C   0  0  0  0  0  1  0  0  0  0  0  0
  190.5280  177.7030  139.1380 O   0  0  0  0  0  0  0  0  0  0  0  0
  1  4  1  6  0  0  0
  2  9  1  0  0  0  0
  2  5  1  0  0  0  0
  3 13  1  0  0  0  0
  5 16  1  0  0  0  0
  5  1  1  0  0  0  0
  6  2  1  0  0  0  0
  6 12  1  0  0  0  0
  6 15  1  0  0  0  0
  7  3  1  0  0  0  0
  8 25  2  0  0  0  0
  9 20  1  0  0  0  0
 11 15  1  0  0  0  0
 11 25  1  0  0  0  0
 12 24  1  0  0  0  0
 13 17  1  0  0  0  0
 13 30  1  0  0  0  0
 14  4  1  0  0  0  0
 17 14  1  0  0  0  0
 18  3  1  0  0  0  0
 18 22  1  0  0  0  0
 19 18  1  0  0  0  0
 20 22  1  0  0  0  0
 20  1  1  0  0  0  0
 21 12  1  0  0  0  0
 22 14  1  0  0  0  0
 23  9  1  0  0  0  0
 23 26  1  0  0  0  0
 23 11  1  0  0  0  0
 24 27  1  0  0  0  0
 24 16  1  0  0  0  0
 25 10  1  0  0  0  0
 26  8  1  0  0  0  0
 27 28  1  0  0  0  0
 29 28  1  0  0  0  0
 30 32  1  0  0  0  0
 32 31  1  0  0  0  0
M  END
>  <MODEL>
9

>  <REMARK>
 VINA RESULT:      -4.7      4.398      6.940
  Name = 
  4 active torsions:
  status: ('A' for Active; 'I' for Inactive)
    1  A    between atoms: N_14  and  C_21
    2  A    between atoms: N_14  and  C_29
    3  A    between atoms: C_15  and  C_19
    4  A    between atoms: C_19  and  O_26
                            x       y       z     vdW  Elec       q    Type
                         _______ _______ _______ _____ _____    ______ ____

>  <TORSDO>
F 4

$$$$
