=
 OpenBabel11052417013D

 32 36  0  0  1  0  0  0  0  0999 V2000
  184.8470  178.7990  146.6160 C   0  0  0  0  0  3  0  0  0  0  0  0
  186.1390  178.4320  146.9870 C   0  0  0  0  0  3  0  0  0  0  0  0
  184.4300  178.6440  145.2930 C   0  0  0  0  0  3  0  0  0  0  0  0
  185.2950  178.1270  144.3210 C   0  0  0  0  0  0  0  0  0  0  0  0
  187.0130  177.9070  146.0350 C   0  0  0  0  0  3  0  0  0  0  0  0
  186.6080  177.7420  144.7010 C   0  0  0  0  0  0  0  0  0  0  0  0
  188.8040  177.4820  141.7170 C   0  0  2  0  0  3  0  0  0  0  0  0
  190.1010  177.9030  142.4160 C   0  0  2  0  0  3  0  0  0  0  0  0
  191.4070  177.4640  144.2870 C   0  0  2  0  0  3  0  0  0  0  0  0
  187.5730  177.1200  143.7350 C   0  0  2  0  0  3  0  0  0  0  0  0
  191.8710  176.6110  143.2050 N   0  0  0  0  0  2  0  0  0  0  0  0
  191.2010  177.0190  142.0320 N   0  0  0  0  0  2  0  0  0  0  0  0
  188.9400  176.8690  144.3980 C   0  0  0  0  0  2  0  0  0  0  0  0
  188.7390  178.1020  140.3350 C   0  0  0  0  0  1  0  0  0  0  0  0
  191.5470  176.7650  145.6310 C   0  0  0  0  0  1  0  0  0  0  0  0
  187.6530  177.9170  142.5030 N   0  0  0  0  0  2  0  0  0  0  0  0
  190.0010  177.8810  143.9310 C   0  0  2  0  0  3  0  0  0  0  0  0
  184.7800  178.0060  142.9850 N   0  0  0  0  0  2  0  0  0  0  0  0
  182.5960  178.4410  137.8580 C   0  0  0  0  0  2  0  0  0  0  0  0
  182.5830  178.4770  140.6240 C   0  0  2  0  0  3  0  0  0  0  0  0
  184.7750  179.1640  140.8960 N   0  0  0  0  0  2  0  0  0  0  0  0
  183.9170  178.7980  138.5850 C   0  0  0  0  0  2  0  0  0  0  0  0
  184.1320  179.0540  142.2100 C   0  0  1  0  0  3  0  0  0  0  0  0
  181.3230  179.0540  138.4970 C   0  0  1  0  0  3  0  0  0  0  0  0
  183.6530  179.2960  140.0000 C   0  0  1  0  0  3  0  0  0  0  0  0
  181.2370  178.8800  140.0320 C   0  0  0  0  0  2  0  0  0  0  0  0
  182.7050  178.7390  142.0380 N   0  0  0  0  0  2  0  0  0  0  0  0
  181.1900  180.8160  138.0700 S   0  0  0  0  0  0  0  0  0  0  0  0
  180.8580  180.4400  136.3270 C   0  0  0  0  0  2  0  0  0  0  0  0
  180.4700  181.7150  135.6060 C   0  0  0  0  0  2  0  0  0  0  0  0
  181.0900  184.0570  135.8350 N   0  0  0  0  0  1  0  0  0  0  0  0
  180.5680  182.9020  136.5460 C   0  0  0  0  0  2  0  0  0  0  0  0
  1  2  1  0  0  0  0
  3  1  2  0  0  0  0
  4  6  2  0  0  0  0
  4  3  1  0  0  0  0
  5  2  2  0  0  0  0
  6  5  1  0  0  0  0
  7 14  1  6  0  0  0
  7  8  1  0  0  0  0
  7 16  1  0  0  0  0
  8 12  1  1  0  0  0
  8 17  1  0  0  0  0
  9 15  1  1  0  0  0
 10 13  1  0  0  0  0
 10  6  1  1  0  0  0
 11  9  1  0  0  0  0
 12 11  1  0  0  0  0
 16 10  1  0  0  0  0
 17  9  1  0  0  0  0
 17 13  1  6  0  0  0
 18  4  1  0  0  0  0
 19 24  1  0  0  0  0
 19 22  1  0  0  0  0
 20 26  1  6  0  0  0
 20 27  1  0  0  0  0
 21 23  1  0  0  0  0
 23 18  1  1  0  0  0
 24 28  1  1  0  0  0
 24 26  1  0  0  0  0
 25 22  1  6  0  0  0
 25 20  1  0  0  0  0
 25 21  1  0  0  0  0
 27 23  1  0  0  0  0
 29 28  1  0  0  0  0
 30 29  1  0  0  0  0
 30 32  1  0  0  0  0
 31 32  1  0  0  0  0
M  END
>  <MODEL>
1

>  <REMARK>
 VINA RESULT:      -8.8      0.000      0.000
  Name = 
  7 active torsions:
  status: ('A' for Active; 'I' for Inactive)
    1  A    between atoms: N_3  and  C_14
    2  A    between atoms: N_3  and  C_15
    3  A    between atoms: C_10  and  C_20
    4  A    between atoms: C_10  and  S_24
    5  A    between atoms: C_16  and  C_26
    6  A    between atoms: C_17  and  C_20
    7  A    between atoms: C_19  and  S_24
                            x       y       z     vdW  Elec       q    Type
                         _______ _______ _______ _____ _____    ______ ____

>  <TORSDO>
F 7

$$$$
=
 OpenBabel11052417013D

 32 36  0  0  1  0  0  0  0  0999 V2000
  184.5500  179.0030  146.2340 C   0  0  0  0  0  3  0  0  0  0  0  0
  185.6460  178.4850  146.9220 C   0  0  0  0  0  3  0  0  0  0  0  0
  184.4820  178.8950  144.8450 C   0  0  0  0  0  3  0  0  0  0  0  0
  185.5060  178.2740  144.1200 C   0  0  0  0  0  0  0  0  0  0  0  0
  186.6720  177.8540  146.2180 C   0  0  0  0  0  3  0  0  0  0  0  0
  186.6180  177.7360  144.8200 C   0  0  0  0  0  0  0  0  0  0  0  0
  189.3570  177.1420  142.3830 C   0  0  2  0  0  3  0  0  0  0  0  0
  190.5060  177.5720  143.3020 C   0  0  2  0  0  3  0  0  0  0  0  0
  191.3790  177.2440  145.4290 C   0  0  2  0  0  3  0  0  0  0  0  0
  187.7240  176.9990  144.1240 C   0  0  2  0  0  3  0  0  0  0  0  0
  192.0060  176.2870  144.5340 N   0  0  0  0  0  2  0  0  0  0  0  0
  191.6120  176.6190  143.2200 N   0  0  0  0  0  2  0  0  0  0  0  0
  188.9120  176.7530  145.0720 C   0  0  0  0  0  2  0  0  0  0  0  0
  189.6070  177.6450  140.9750 C   0  0  0  0  0  1  0  0  0  0  0  0
  191.2050  176.6570  146.8220 C   0  0  0  0  0  1  0  0  0  0  0  0
  188.0950  177.6850  142.8790 N   0  0  0  0  0  2  0  0  0  0  0  0
  190.0990  177.6830  144.7610 C   0  0  2  0  0  3  0  0  0  0  0  0
  185.3520  178.2120  142.6930 N   0  0  0  0  0  2  0  0  0  0  0  0
  183.2420  177.8790  137.5270 C   0  0  0  0  0  2  0  0  0  0  0  0
  183.1630  177.9510  140.2920 C   0  0  2  0  0  3  0  0  0  0  0  0
  185.0340  179.2810  140.5800 N   0  0  0  0  0  2  0  0  0  0  0  0
  184.3760  178.6340  138.2650 C   0  0  0  0  0  2  0  0  0  0  0  0
  184.4300  178.9990  141.8870 C   0  0  1  0  0  3  0  0  0  0  0  0
  181.8300  178.0830  138.1350 C   0  0  1  0  0  3  0  0  0  0  0  0
  183.9440  179.0490  139.6660 C   0  0  1  0  0  3  0  0  0  0  0  0
  181.7710  177.9140  139.6730 C   0  0  0  0  0  2  0  0  0  0  0  0
  183.1720  178.2590  141.7020 N   0  0  0  0  0  2  0  0  0  0  0  0
  181.1730  179.7120  137.6710 S   0  0  0  0  0  0  0  0  0  0  0  0
  180.0900  179.7670  139.1250 C   0  0  0  0  0  2  0  0  0  0  0  0
  180.0540  181.1810  139.6690 C   0  0  0  0  0  2  0  0  0  0  0  0
  180.0560  180.5030  142.0050 N   0  0  0  0  0  1  0  0  0  0  0  0
  179.3060  181.2190  140.9870 C   0  0  0  0  0  2  0  0  0  0  0  0
  1  2  1  0  0  0  0
  3  1  2  0  0  0  0
  4  6  2  0  0  0  0
  4  3  1  0  0  0  0
  5  2  2  0  0  0  0
  6  5  1  0  0  0  0
  7 14  1  6  0  0  0
  7 16  1  0  0  0  0
  7  8  1  0  0  0  0
  8 12  1  1  0  0  0
  8 17  1  0  0  0  0
  9 15  1  1  0  0  0
 10  6  1  1  0  0  0
 10 13  1  0  0  0  0
 11  9  1  0  0  0  0
 12 11  1  0  0  0  0
 16 10  1  0  0  0  0
 17 13  1  6  0  0  0
 17  9  1  0  0  0  0
 18  4  1  0  0  0  0
 19 24  1  0  0  0  0
 19 22  1  0  0  0  0
 20 26  1  6  0  0  0
 20 27  1  0  0  0  0
 21 23  1  0  0  0  0
 23 18  1  1  0  0  0
 24 28  1  1  0  0  0
 24 26  1  0  0  0  0
 25 22  1  6  0  0  0
 25 20  1  0  0  0  0
 25 21  1  0  0  0  0
 27 23  1  0  0  0  0
 28 29  1  0  0  0  0
 29 30  1  0  0  0  0
 30 32  1  0  0  0  0
 32 31  1  0  0  0  0
M  END
>  <MODEL>
2

>  <REMARK>
 VINA RESULT:      -8.6      1.830      1.953
  Name = 
  7 active torsions:
  status: ('A' for Active; 'I' for Inactive)
    1  A    between atoms: N_3  and  C_14
    2  A    between atoms: N_3  and  C_15
    3  A    between atoms: C_10  and  C_20
    4  A    between atoms: C_10  and  S_24
    5  A    between atoms: C_16  and  C_26
    6  A    between atoms: C_17  and  C_20
    7  A    between atoms: C_19  and  S_24
                            x       y       z     vdW  Elec       q    Type
                         _______ _______ _______ _____ _____    ______ ____

>  <TORSDO>
F 7

$$$$
=
 OpenBabel11052417013D

 32 36  0  0  1  0  0  0  0  0999 V2000
  184.3920  178.8600  146.0300 C   0  0  0  0  0  3  0  0  0  0  0  0
  185.4870  178.1600  146.5320 C   0  0  0  0  0  3  0  0  0  0  0  0
  184.2570  179.0530  144.6550 C   0  0  0  0  0  3  0  0  0  0  0  0
  185.2130  178.5560  143.7610 C   0  0  0  0  0  0  0  0  0  0  0  0
  186.4450  177.6480  145.6570 C   0  0  0  0  0  3  0  0  0  0  0  0
  186.3230  177.8320  144.2700 C   0  0  0  0  0  0  0  0  0  0  0  0
  188.7460  177.5850  141.4660 C   0  0  2  0  0  3  0  0  0  0  0  0
  189.9880  177.9830  142.2720 C   0  0  2  0  0  3  0  0  0  0  0  0
  191.1370  177.5090  144.2330 C   0  0  2  0  0  3  0  0  0  0  0  0
  187.3550  177.2120  143.3760 C   0  0  2  0  0  3  0  0  0  0  0  0
  191.6770  176.6640  143.1810 N   0  0  0  0  0  2  0  0  0  0  0  0
  191.1060  177.0930  141.9640 N   0  0  0  0  0  2  0  0  0  0  0  0
  188.6640  176.9380  144.1420 C   0  0  0  0  0  2  0  0  0  0  0  0
  188.7960  178.2210  140.0920 C   0  0  0  0  0  1  0  0  0  0  0  0
  191.1640  176.7930  145.5760 C   0  0  0  0  0  1  0  0  0  0  0  0
  187.5400  178.0220  142.1650 N   0  0  0  0  0  2  0  0  0  0  0  0
  189.7680  177.9450  143.7740 C   0  0  2  0  0  3  0  0  0  0  0  0
  184.9940  178.8050  142.3630 N   0  0  0  0  0  2  0  0  0  0  0  0
  180.6120  180.2390  139.2010 C   0  0  0  0  0  2  0  0  0  0  0  0
  183.1310  179.2180  139.7200 C   0  0  2  0  0  3  0  0  0  0  0  0
  182.6820  178.4690  141.8630 N   0  0  0  0  0  2  0  0  0  0  0  0
  180.8760  179.6400  140.6050 C   0  0  0  0  0  2  0  0  0  0  0  0
  184.0560  178.1060  141.4970 C   0  0  1  0  0  3  0  0  0  0  0  0
  181.2480  179.4430  138.0310 C   0  0  1  0  0  3  0  0  0  0  0  0
  182.0520  178.6710  140.5820 C   0  0  1  0  0  3  0  0  0  0  0  0
  182.7300  179.0580  138.2580 C   0  0  0  0  0  2  0  0  0  0  0  0
  184.3060  178.4680  140.0930 N   0  0  0  0  0  2  0  0  0  0  0  0
  180.2730  177.9500  137.6810 S   0  0  0  0  0  0  0  0  0  0  0  0
  181.6450  177.1830  136.7750 C   0  0  0  0  0  2  0  0  0  0  0  0
  181.5370  175.6760  136.8880 C   0  0  0  0  0  2  0  0  0  0  0  0
  182.9090  175.4880  138.8890 N   0  0  0  0  0  1  0  0  0  0  0  0
  181.5830  175.2530  138.3440 C   0  0  0  0  0  2  0  0  0  0  0  0
  1  2  1  0  0  0  0
  3  1  2  0  0  0  0
  4  6  2  0  0  0  0
  4  3  1  0  0  0  0
  5  2  2  0  0  0  0
  6  5  1  0  0  0  0
  7 14  1  6  0  0  0
  7 16  1  0  0  0  0
  7  8  1  0  0  0  0
  8 12  1  1  0  0  0
  8 17  1  0  0  0  0
  9 15  1  1  0  0  0
 10 13  1  0  0  0  0
 10  6  1  1  0  0  0
 11  9  1  0  0  0  0
 12 11  1  0  0  0  0
 16 10  1  0  0  0  0
 17 13  1  6  0  0  0
 17  9  1  0  0  0  0
 18  4  1  0  0  0  0
 19 22  1  0  0  0  0
 20 26  1  6  0  0  0
 20 27  1  0  0  0  0
 20 25  1  0  0  0  0
 23 21  1  0  0  0  0
 23 18  1  1  0  0  0
 24 28  1  1  0  0  0
 24 26  1  0  0  0  0
 24 19  1  0  0  0  0
 25 22  1  1  0  0  0
 25 21  1  0  0  0  0
 27 23  1  0  0  0  0
 29 30  1  0  0  0  0
 29 28  1  0  0  0  0
 30 32  1  0  0  0  0
 32 31  1  0  0  0  0
M  END
>  <MODEL>
3

>  <REMARK>
 VINA RESULT:      -8.0      1.863      2.858
  Name = 
  7 active torsions:
  status: ('A' for Active; 'I' for Inactive)
    1  A    between atoms: N_3  and  C_14
    2  A    between atoms: N_3  and  C_15
    3  A    between atoms: C_10  and  C_20
    4  A    between atoms: C_10  and  S_24
    5  A    between atoms: C_16  and  C_26
    6  A    between atoms: C_17  and  C_20
    7  A    between atoms: C_19  and  S_24
                            x       y       z     vdW  Elec       q    Type
                         _______ _______ _______ _____ _____    ______ ____

>  <TORSDO>
F 7

$$$$
=
 OpenBabel11052417013D

 32 36  0  0  1  0  0  0  0  0999 V2000
  189.0550  176.3580  135.9000 C   0  0  0  0  0  3  0  0  0  0  0  0
  190.0500  175.6830  135.1970 C   0  0  0  0  0  3  0  0  0  0  0  0
  189.3350  176.9120  137.1500 C   0  0  0  0  0  3  0  0  0  0  0  0
  190.6090  176.7980  137.7180 C   0  0  0  0  0  0  0  0  0  0  0  0
  191.3290  175.5660  135.7430 C   0  0  0  0  0  3  0  0  0  0  0  0
  191.6280  176.1200  136.9980 C   0  0  0  0  0  0  0  0  0  0  0  0
  194.8330  174.4920  137.9320 C   0  0  2  0  0  3  0  0  0  0  0  0
  195.5570  174.7580  136.6070 C   0  0  2  0  0  3  0  0  0  0  0  0
  196.0450  176.4420  135.0850 C   0  0  2  0  0  3  0  0  0  0  0  0
  193.0350  176.0110  137.5080 C   0  0  2  0  0  3  0  0  0  0  0  0
  197.1280  176.3840  136.0520 N   0  0  0  0  0  2  0  0  0  0  0  0
  196.9150  175.2420  136.8530 N   0  0  0  0  0  2  0  0  0  0  0  0
  194.0200  176.7530  136.5860 C   0  0  0  0  0  2  0  0  0  0  0  0
  195.1720  173.1040  138.4360 C   0  0  0  0  0  1  0  0  0  0  0  0
  195.8080  177.8700  134.6150 C   0  0  0  0  0  1  0  0  0  0  0  0
  193.3900  174.6040  137.7390 N   0  0  0  0  0  2  0  0  0  0  0  0
  194.8540  175.7810  135.7330 C   0  0  2  0  0  3  0  0  0  0  0  0
  190.8060  177.3970  139.0090 N   0  0  0  0  0  2  0  0  0  0  0  0
  190.4920  179.0700  144.3340 C   0  0  0  0  0  2  0  0  0  0  0  0
  189.5950  177.8990  141.9940 C   0  0  2  0  0  3  0  0  0  0  0  0
  191.6640  177.2010  141.2300 N   0  0  0  0  0  2  0  0  0  0  0  0
  191.5480  178.4700  143.3720 C   0  0  0  0  0  2  0  0  0  0  0  0
  190.6230  176.7490  140.3000 C   0  0  1  0  0  3  0  0  0  0  0  0
  189.2000  178.2240  144.4810 C   0  0  1  0  0  3  0  0  0  0  0  0
  190.9280  177.4290  142.4490 C   0  0  1  0  0  3  0  0  0  0  0  0
  188.5970  177.7500  143.1360 C   0  0  0  0  0  2  0  0  0  0  0  0
  189.2960  177.0800  140.8430 N   0  0  0  0  0  2  0  0  0  0  0  0
  189.5030  176.7920  145.5580 S   0  0  0  0  0  0  0  0  0  0  0  0
  188.4030  177.4410  146.8460 C   0  0  0  0  0  2  0  0  0  0  0  0
  187.0520  177.7560  146.2360 C   0  0  0  0  0  2  0  0  0  0  0  0
  184.8980  178.8140  146.6390 N   0  0  0  0  0  1  0  0  0  0  0  0
  186.2090  178.5570  147.2100 C   0  0  0  0  0  2  0  0  0  0  0  0
  1  3  1  0  0  0  0
  2  5  1  0  0  0  0
  2  1  2  0  0  0  0
  3  4  2  0  0  0  0
  4 18  1  0  0  0  0
  5  6  2  0  0  0  0
  6  4  1  0  0  0  0
  7 14  1  6  0  0  0
  8 12  1  1  0  0  0
  8  7  1  0  0  0  0
  9 15  1  1  0  0  0
  9 17  1  0  0  0  0
  9 11  1  0  0  0  0
 10  6  1  6  0  0  0
 10 16  1  0  0  0  0
 11 12  1  0  0  0  0
 13 10  1  0  0  0  0
 16  7  1  0  0  0  0
 17 13  1  1  0  0  0
 17  8  1  0  0  0  0
 19 24  1  0  0  0  0
 20 25  1  0  0  0  0
 20 26  1  1  0  0  0
 21 25  1  0  0  0  0
 22 19  1  0  0  0  0
 23 18  1  6  0  0  0
 23 27  1  0  0  0  0
 23 21  1  0  0  0  0
 24 28  1  1  0  0  0
 25 22  1  1  0  0  0
 26 24  1  0  0  0  0
 27 20  1  0  0  0  0
 28 29  1  0  0  0  0
 30 29  1  0  0  0  0
 30 32  1  0  0  0  0
 31 32  1  0  0  0  0
M  END
>  <MODEL>
4

>  <REMARK>
 VINA RESULT:      -7.9      5.639      9.802
  Name = 
  7 active torsions:
  status: ('A' for Active; 'I' for Inactive)
    1  A    between atoms: N_3  and  C_14
    2  A    between atoms: N_3  and  C_15
    3  A    between atoms: C_10  and  C_20
    4  A    between atoms: C_10  and  S_24
    5  A    between atoms: C_16  and  C_26
    6  A    between atoms: C_17  and  C_20
    7  A    between atoms: C_19  and  S_24
                            x       y       z     vdW  Elec       q    Type
                         _______ _______ _______ _____ _____    ______ ____

>  <TORSDO>
F 7

$$$$
=
 OpenBabel11052417013D

 32 36  0  0  1  0  0  0  0  0999 V2000
  184.3800  179.3820  143.0440 C   0  0  0  0  0  3  0  0  0  0  0  0
  184.6670  178.8340  144.2930 C   0  0  0  0  0  3  0  0  0  0  0  0
  185.3060  179.2770  142.0060 C   0  0  0  0  0  3  0  0  0  0  0  0
  186.5330  178.6300  142.1970 C   0  0  0  0  0  0  0  0  0  0  0  0
  185.8800  178.1770  144.5010 C   0  0  0  0  0  3  0  0  0  0  0  0
  186.8220  178.0610  143.4660 C   0  0  0  0  0  0  0  0  0  0  0  0
  190.4710  177.3910  143.6300 C   0  0  2  0  0  3  0  0  0  0  0  0
  190.6590  177.8030  145.0940 C   0  0  2  0  0  3  0  0  0  0  0  0
  189.7910  177.4720  147.2230 C   0  0  2  0  0  3  0  0  0  0  0  0
  188.0840  177.2950  143.7330 C   0  0  2  0  0  3  0  0  0  0  0  0
  190.8450  176.4950  147.0110 N   0  0  0  0  0  2  0  0  0  0  0  0
  191.4880  176.8260  145.7990 N   0  0  0  0  0  2  0  0  0  0  0  0
  188.2660  177.0310  145.2400 C   0  0  0  0  0  2  0  0  0  0  0  0
  191.6440  177.8780  142.8030 C   0  0  0  0  0  1  0  0  0  0  0  0
  188.6810  176.8990  148.0930 C   0  0  0  0  0  1  0  0  0  0  0  0
  189.2330  177.9650  143.1090 N   0  0  0  0  0  2  0  0  0  0  0  0
  189.3510  177.9330  145.8550 C   0  0  2  0  0  3  0  0  0  0  0  0
  187.4250  178.5730  141.0730 N   0  0  0  0  0  2  0  0  0  0  0  0
  189.4300  178.2530  135.8640 C   0  0  0  0  0  2  0  0  0  0  0  0
  189.1470  177.5140  138.5160 C   0  0  2  0  0  3  0  0  0  0  0  0
  186.9550  178.2140  138.7580 N   0  0  0  0  0  2  0  0  0  0  0  0
  188.0870  178.5750  136.5680 C   0  0  0  0  0  2  0  0  0  0  0  0
  187.4070  177.5840  140.0040 C   0  0  1  0  0  3  0  0  0  0  0  0
  190.0300  176.8690  136.2240 C   0  0  1  0  0  3  0  0  0  0  0  0
  187.8680  177.6780  137.7790 C   0  0  1  0  0  3  0  0  0  0  0  0
  190.0500  176.5610  137.7410 C   0  0  0  0  0  2  0  0  0  0  0  0
  188.7550  177.0270  139.8170 N   0  0  0  0  0  2  0  0  0  0  0  0
  189.1450  175.5500  135.3420 S   0  0  0  0  0  0  0  0  0  0  0  0
  189.1400  174.4790  136.8060 C   0  0  0  0  0  2  0  0  0  0  0  0
  188.0200  173.4650  136.6790 C   0  0  0  0  0  2  0  0  0  0  0  0
  185.9610  173.0030  137.8900 N   0  0  0  0  0  1  0  0  0  0  0  0
  186.7250  174.0410  137.2190 C   0  0  0  0  0  2  0  0  0  0  0  0
  1  2  1  0  0  0  0
  2  5  2  0  0  0  0
  3  4  1  0  0  0  0
  3  1  2  0  0  0  0
  4  6  2  0  0  0  0
  6  5  1  0  0  0  0
  7 14  1  6  0  0  0
  7  8  1  0  0  0  0
  8 12  1  1  0  0  0
  8 17  1  0  0  0  0
  9 15  1  6  0  0  0
 10  6  1  1  0  0  0
 10 13  1  0  0  0  0
 11  9  1  0  0  0  0
 12 11  1  0  0  0  0
 16  7  1  0  0  0  0
 16 10  1  0  0  0  0
 17 13  1  6  0  0  0
 17  9  1  0  0  0  0
 18  4  1  0  0  0  0
 19 24  1  0  0  0  0
 19 22  1  0  0  0  0
 20 26  1  6  0  0  0
 20 27  1  0  0  0  0
 21 23  1  0  0  0  0
 23 18  1  1  0  0  0
 24 28  1  6  0  0  0
 24 26  1  0  0  0  0
 25 22  1  6  0  0  0
 25 20  1  0  0  0  0
 25 21  1  0  0  0  0
 27 23  1  0  0  0  0
 28 29  1  0  0  0  0
 30 29  1  0  0  0  0
 30 32  1  0  0  0  0
 32 31  1  0  0  0  0
M  END
>  <MODEL>
5

>  <REMARK>
 VINA RESULT:      -7.7      4.166      5.965
  Name = 
  7 active torsions:
  status: ('A' for Active; 'I' for Inactive)
    1  A    between atoms: N_3  and  C_14
    2  A    between atoms: N_3  and  C_15
    3  A    between atoms: C_10  and  C_20
    4  A    between atoms: C_10  and  S_24
    5  A    between atoms: C_16  and  C_26
    6  A    between atoms: C_17  and  C_20
    7  A    between atoms: C_19  and  S_24
                            x       y       z     vdW  Elec       q    Type
                         _______ _______ _______ _____ _____    ______ ____

>  <TORSDO>
F 7

$$$$
=
 OpenBabel11052417013D

 32 36  0  0  1  0  0  0  0  0999 V2000
  189.2600  177.1540  138.0880 C   0  0  0  0  0  3  0  0  0  0  0  0
  190.1760  177.0760  139.1350 C   0  0  0  0  0  3  0  0  0  0  0  0
  187.9770  177.6530  138.3170 C   0  0  0  0  0  3  0  0  0  0  0  0
  187.5870  178.0760  139.5930 C   0  0  0  0  0  0  0  0  0  0  0  0
  189.8090  177.5020  140.4120 C   0  0  0  0  0  3  0  0  0  0  0  0
  188.5230  178.0080  140.6590 C   0  0  0  0  0  0  0  0  0  0  0  0
  186.7190  178.2510  143.8960 C   0  0  2  0  0  3  0  0  0  0  0  0
  187.6270  177.2930  144.6750 C   0  0  2  0  0  3  0  0  0  0  0  0
  189.8570  176.8510  145.1490 C   0  0  2  0  0  3  0  0  0  0  0  0
  188.2050  178.5020  142.0390 C   0  0  2  0  0  3  0  0  0  0  0  0
  189.3470  177.7420  146.1780 N   0  0  0  0  0  2  0  0  0  0  0  0
  187.9530  177.8500  145.9870 N   0  0  0  0  0  2  0  0  0  0  0  0
  189.3310  178.1490  143.0300 C   0  0  0  0  0  2  0  0  0  0  0  0
  185.2720  178.0230  144.2860 C   0  0  0  0  0  1  0  0  0  0  0  0
  191.3230  177.1370  144.8560 C   0  0  0  0  0  1  0  0  0  0  0  0
  186.8800  178.0300  142.4610 N   0  0  0  0  0  2  0  0  0  0  0  0
  188.9340  176.9920  143.9640 C   0  0  2  0  0  3  0  0  0  0  0  0
  186.2460  178.5720  139.7370 N   0  0  0  0  0  2  0  0  0  0  0  0
  180.7270  178.4240  138.8630 C   0  0  0  0  0  2  0  0  0  0  0  0
  183.2090  179.6080  139.1640 C   0  0  2  0  0  3  0  0  0  0  0  0
  184.4530  177.8400  138.3380 N   0  0  0  0  0  2  0  0  0  0  0  0
  181.9780  177.5900  138.4910 C   0  0  0  0  0  2  0  0  0  0  0  0
  185.3470  178.9590  138.6590 C   0  0  1  0  0  3  0  0  0  0  0  0
  180.7950  179.9140  138.4370 C   0  0  1  0  0  3  0  0  0  0  0  0
  183.1720  178.4860  138.1910 C   0  0  1  0  0  3  0  0  0  0  0  0
  182.1250  180.6170  138.8020 C   0  0  0  0  0  2  0  0  0  0  0  0
  184.5520  180.1280  139.0660 N   0  0  0  0  0  2  0  0  0  0  0  0
  180.4860  180.0740  136.6530 S   0  0  0  0  0  0  0  0  0  0  0  0
  180.5990  181.8830  136.7260 C   0  0  0  0  0  2  0  0  0  0  0  0
  180.7660  182.4290  135.3220 C   0  0  0  0  0  2  0  0  0  0  0  0
  181.4960  184.4040  136.5420 N   0  0  0  0  0  1  0  0  0  0  0  0
  180.8060  183.9450  135.3490 C   0  0  0  0  0  2  0  0  0  0  0  0
  1  3  2  0  0  0  0
  1  2  1  0  0  0  0
  2  5  2  0  0  0  0
  3  4  1  0  0  0  0
  4 18  1  0  0  0  0
  4  6  2  0  0  0  0
  5  6  1  0  0  0  0
  7 14  1  1  0  0  0
  7  8  1  0  0  0  0
  8 12  1  1  0  0  0
  9 15  1  6  0  0  0
  9 11  1  0  0  0  0
 10  6  1  6  0  0  0
 10 16  1  0  0  0  0
 10 13  1  0  0  0  0
 12 11  1  0  0  0  0
 16  7  1  0  0  0  0
 17 13  1  6  0  0  0
 17  8  1  0  0  0  0
 17  9  1  0  0  0  0
 20 26  1  6  0  0  0
 21 23  1  0  0  0  0
 22 19  1  0  0  0  0
 23 27  1  0  0  0  0
 23 18  1  1  0  0  0
 24 28  1  6  0  0  0
 24 26  1  0  0  0  0
 24 19  1  0  0  0  0
 25 21  1  0  0  0  0
 25 22  1  1  0  0  0
 25 20  1  0  0  0  0
 27 20  1  0  0  0  0
 28 29  1  0  0  0  0
 30 32  1  0  0  0  0
 30 29  1  0  0  0  0
 32 31  1  0  0  0  0
M  END
>  <MODEL>
6

>  <REMARK>
 VINA RESULT:      -7.5      1.849      4.013
  Name = 
  7 active torsions:
  status: ('A' for Active; 'I' for Inactive)
    1  A    between atoms: N_3  and  C_14
    2  A    between atoms: N_3  and  C_15
    3  A    between atoms: C_10  and  C_20
    4  A    between atoms: C_10  and  S_24
    5  A    between atoms: C_16  and  C_26
    6  A    between atoms: C_17  and  C_20
    7  A    between atoms: C_19  and  S_24
                            x       y       z     vdW  Elec       q    Type
                         _______ _______ _______ _____ _____    ______ ____

>  <TORSDO>
F 7

$$$$
=
 OpenBabel11052417013D

 32 36  0  0  1  0  0  0  0  0999 V2000
  184.4010  179.3430  142.9810 C   0  0  0  0  0  3  0  0  0  0  0  0
  184.6630  178.7730  144.2260 C   0  0  0  0  0  3  0  0  0  0  0  0
  185.3530  179.2670  141.9640 C   0  0  0  0  0  3  0  0  0  0  0  0
  186.5820  178.6290  142.1740 C   0  0  0  0  0  0  0  0  0  0  0  0
  185.8770  178.1240  144.4510 C   0  0  0  0  0  3  0  0  0  0  0  0
  186.8450  178.0380  143.4380 C   0  0  0  0  0  0  0  0  0  0  0  0
  190.4960  177.3930  143.6550 C   0  0  2  0  0  3  0  0  0  0  0  0
  190.6600  177.8010  145.1230 C   0  0  2  0  0  3  0  0  0  0  0  0
  189.7610  177.4580  147.2370 C   0  0  2  0  0  3  0  0  0  0  0  0
  188.1080  177.2800  143.7220 C   0  0  2  0  0  3  0  0  0  0  0  0
  190.8260  176.4880  147.0390 N   0  0  0  0  0  2  0  0  0  0  0  0
  191.4840  176.8270  145.8370 N   0  0  0  0  0  2  0  0  0  0  0  0
  188.2700  177.0130  145.2300 C   0  0  0  0  0  2  0  0  0  0  0  0
  191.6780  177.8900  142.8460 C   0  0  0  0  0  1  0  0  0  0  0  0
  188.6430  176.8750  148.0890 C   0  0  0  0  0  1  0  0  0  0  0  0
  189.2620  177.9590  143.1170 N   0  0  0  0  0  2  0  0  0  0  0  0
  189.3400  177.9200  145.8640 C   0  0  2  0  0  3  0  0  0  0  0  0
  187.5020  178.6030  141.0710 N   0  0  0  0  0  2  0  0  0  0  0  0
  189.0860  178.2520  135.7210 C   0  0  0  0  0  2  0  0  0  0  0  0
  189.2200  177.7430  138.4380 C   0  0  2  0  0  3  0  0  0  0  0  0
  186.9500  177.9040  138.8550 N   0  0  0  0  0  2  0  0  0  0  0  0
  187.7680  178.3050  136.5350 C   0  0  0  0  0  2  0  0  0  0  0  0
  187.6480  177.5360  140.0910 C   0  0  1  0  0  3  0  0  0  0  0  0
  190.0460  177.1020  136.1240 C   0  0  1  0  0  3  0  0  0  0  0  0
  187.8850  177.5110  137.8300 C   0  0  1  0  0  3  0  0  0  0  0  0
  190.2680  176.9670  137.6500 C   0  0  0  0  0  2  0  0  0  0  0  0
  189.0740  177.3110  139.8070 N   0  0  0  0  0  2  0  0  0  0  0  0
  189.4550  175.5220  135.4470 S   0  0  0  0  0  0  0  0  0  0  0  0
  191.1410  174.8630  135.3300 C   0  0  0  0  0  2  0  0  0  0  0  0
  191.3270  173.7800  136.3740 C   0  0  0  0  0  2  0  0  0  0  0  0
  193.2910  175.0970  136.9480 N   0  0  0  0  0  1  0  0  0  0  0  0
  192.7690  173.7450  136.8440 C   0  0  0  0  0  2  0  0  0  0  0  0
  1  2  1  0  0  0  0
  2  5  2  0  0  0  0
  3  4  1  0  0  0  0
  3  1  2  0  0  0  0
  4  6  2  0  0  0  0
  6  5  1  0  0  0  0
  7 14  1  6  0  0  0
  7  8  1  0  0  0  0
  8 12  1  1  0  0  0
  8 17  1  0  0  0  0
  9 15  1  6  0  0  0
 10  6  1  1  0  0  0
 10 13  1  0  0  0  0
 11  9  1  0  0  0  0
 12 11  1  0  0  0  0
 16  7  1  0  0  0  0
 16 10  1  0  0  0  0
 17 13  1  6  0  0  0
 17  9  1  0  0  0  0
 18  4  1  0  0  0  0
 19 24  1  0  0  0  0
 19 22  1  0  0  0  0
 20 26  1  6  0  0  0
 20 27  1  0  0  0  0
 21 23  1  0  0  0  0
 23 18  1  1  0  0  0
 24 28  1  1  0  0  0
 24 26  1  0  0  0  0
 25 22  1  6  0  0  0
 25 20  1  0  0  0  0
 25 21  1  0  0  0  0
 27 23  1  0  0  0  0
 29 28  1  0  0  0  0
 29 30  1  0  0  0  0
 30 32  1  0  0  0  0
 32 31  1  0  0  0  0
M  END
>  <MODEL>
7

>  <REMARK>
 VINA RESULT:      -7.5      4.185      6.695
  Name = 
  7 active torsions:
  status: ('A' for Active; 'I' for Inactive)
    1  A    between atoms: N_3  and  C_14
    2  A    between atoms: N_3  and  C_15
    3  A    between atoms: C_10  and  C_20
    4  A    between atoms: C_10  and  S_24
    5  A    between atoms: C_16  and  C_26
    6  A    between atoms: C_17  and  C_20
    7  A    between atoms: C_19  and  S_24
                            x       y       z     vdW  Elec       q    Type
                         _______ _______ _______ _____ _____    ______ ____

>  <TORSDO>
F 7

$$$$
=
 OpenBabel11052417013D

 32 36  0  0  1  0  0  0  0  0999 V2000
  181.3760  178.9640  144.0040 C   0  0  0  0  0  3  0  0  0  0  0  0
  180.2710  178.9560  143.1550 C   0  0  0  0  0  3  0  0  0  0  0  0
  182.6590  178.8030  143.4810 C   0  0  0  0  0  3  0  0  0  0  0  0
  182.8600  178.6260  142.1070 C   0  0  0  0  0  0  0  0  0  0  0  0
  180.4510  178.7910  141.7810 C   0  0  0  0  0  3  0  0  0  0  0  0
  181.7360  178.6300  141.2390 C   0  0  0  0  0  0  0  0  0  0  0  0
  180.8790  177.5960  137.7770 C   0  0  2  0  0  3  0  0  0  0  0  0
  180.1170  178.8710  137.3960 C   0  0  2  0  0  3  0  0  0  0  0  0
  180.2870  181.1870  137.4140 C   0  0  2  0  0  3  0  0  0  0  0  0
  181.8710  178.5130  139.7500 C   0  0  2  0  0  3  0  0  0  0  0  0
  180.7970  180.7090  136.1390 N   0  0  0  0  0  2  0  0  0  0  0  0
  180.5150  179.3280  136.0660 N   0  0  0  0  0  2  0  0  0  0  0  0
  181.7080  179.8840  139.0660 C   0  0  0  0  0  2  0  0  0  0  0  0
  180.1670  176.3830  137.2120 C   0  0  0  0  0  1  0  0  0  0  0  0
  181.0410  182.4260  137.8740 C   0  0  0  0  0  1  0  0  0  0  0  0
  180.9620  177.4830  139.2300 N   0  0  0  0  0  2  0  0  0  0  0  0
  180.3440  180.0180  138.3650 C   0  0  2  0  0  3  0  0  0  0  0  0
  184.2160  178.4650  141.6590 N   0  0  0  0  0  2  0  0  0  0  0  0
  189.1500  176.1470  142.8960 C   0  0  0  0  0  2  0  0  0  0  0  0
  187.4400  177.9990  141.7560 C   0  0  2  0  0  3  0  0  0  0  0  0
  185.7790  177.8580  143.3600 N   0  0  0  0  0  2  0  0  0  0  0  0
  187.7850  176.3950  143.5860 C   0  0  0  0  0  2  0  0  0  0  0  0
  185.4170  178.8790  142.3710 C   0  0  1  0  0  3  0  0  0  0  0  0
  189.8400  177.4270  142.3550 C   0  0  1  0  0  3  0  0  0  0  0  0
  187.2090  177.7520  143.2020 C   0  0  1  0  0  3  0  0  0  0  0  0
  188.9070  178.3540  141.5400 C   0  0  0  0  0  2  0  0  0  0  0  0
  186.5230  179.0620  141.4190 N   0  0  0  0  0  2  0  0  0  0  0  0
  190.5940  178.3610  143.7200 S   0  0  0  0  0  0  0  0  0  0  0  0
  191.1270  176.8420  144.5570 C   0  0  0  0  0  2  0  0  0  0  0  0
  191.2710  177.1140  146.0410 C   0  0  0  0  0  2  0  0  0  0  0  0
  192.2900  176.3230  148.1040 N   0  0  0  0  0  1  0  0  0  0  0  0
  192.0610  176.0030  146.7050 C   0  0  0  0  0  2  0  0  0  0  0  0
  2  1  2  0  0  0  0
  3  1  1  0  0  0  0
  4  3  2  0  0  0  0
  5  2  1  0  0  0  0
  6  5  2  0  0  0  0
  6  4  1  0  0  0  0
  7 14  1  1  0  0  0
  7 16  1  0  0  0  0
  8 12  1  6  0  0  0
  8  7  1  0  0  0  0
  8 17  1  0  0  0  0
  9 15  1  1  0  0  0
  9 17  1  0  0  0  0
 10  6  1  1  0  0  0
 11  9  1  0  0  0  0
 12 11  1  0  0  0  0
 13 10  1  0  0  0  0
 16 10  1  0  0  0  0
 17 13  1  6  0  0  0
 18  4  1  0  0  0  0
 19 22  1  0  0  0  0
 20 26  1  1  0  0  0
 20 25  1  0  0  0  0
 23 18  1  6  0  0  0
 23 21  1  0  0  0  0
 24 19  1  0  0  0  0
 24 28  1  1  0  0  0
 25 21  1  0  0  0  0
 25 22  1  6  0  0  0
 26 24  1  0  0  0  0
 27 20  1  0  0  0  0
 27 23  1  0  0  0  0
 28 29  1  0  0  0  0
 29 30  1  0  0  0  0
 30 32  1  0  0  0  0
 32 31  1  0  0  0  0
M  END
>  <MODEL>
8

>  <REMARK>
 VINA RESULT:      -7.4      2.979      9.776
  Name = 
  7 active torsions:
  status: ('A' for Active; 'I' for Inactive)
    1  A    between atoms: N_3  and  C_14
    2  A    between atoms: N_3  and  C_15
    3  A    between atoms: C_10  and  C_20
    4  A    between atoms: C_10  and  S_24
    5  A    between atoms: C_16  and  C_26
    6  A    between atoms: C_17  and  C_20
    7  A    between atoms: C_19  and  S_24
                            x       y       z     vdW  Elec       q    Type
                         _______ _______ _______ _____ _____    ______ ____

>  <TORSDO>
F 7

$$$$
=
 OpenBabel11052417013D

 32 36  0  0  1  0  0  0  0  0999 V2000
  186.6010  178.8200  147.9210 C   0  0  0  0  0  3  0  0  0  0  0  0
  187.7310  178.0390  147.6870 C   0  0  0  0  0  3  0  0  0  0  0  0
  185.7350  179.1280  146.8700 C   0  0  0  0  0  3  0  0  0  0  0  0
  185.9860  178.6670  145.5720 C   0  0  0  0  0  0  0  0  0  0  0  0
  187.9930  177.5630  146.4020 C   0  0  0  0  0  3  0  0  0  0  0  0
  187.1310  177.8620  145.3350 C   0  0  0  0  0  0  0  0  0  0  0  0
  187.7970  177.7950  141.6820 C   0  0  2  0  0  3  0  0  0  0  0  0
  189.3260  177.8220  141.7820 C   0  0  2  0  0  3  0  0  0  0  0  0
  191.1170  176.7880  142.8390 C   0  0  2  0  0  3  0  0  0  0  0  0
  187.4350  177.2760  143.9880 C   0  0  2  0  0  3  0  0  0  0  0  0
  190.8760  176.0960  141.5840 N   0  0  0  0  0  2  0  0  0  0  0  0
  189.9170  176.8440  140.8690 N   0  0  0  0  0  2  0  0  0  0  0  0
  188.8420  176.6490  143.9580 C   0  0  0  0  0  2  0  0  0  0  0  0
  187.3390  178.6770  140.5370 C   0  0  0  0  0  1  0  0  0  0  0  0
  191.6070  175.8240  143.9100 C   0  0  0  0  0  1  0  0  0  0  0  0
  187.2100  178.2710  142.9320 N   0  0  0  0  0  2  0  0  0  0  0  0
  189.8420  177.5200  143.1770 C   0  0  2  0  0  3  0  0  0  0  0  0
  185.0420  179.0360  144.5540 N   0  0  0  0  0  2  0  0  0  0  0  0
  180.3210  179.9180  141.6930 C   0  0  0  0  0  2  0  0  0  0  0  0
  182.8460  178.8830  142.1500 C   0  0  2  0  0  3  0  0  0  0  0  0
  182.6720  178.7550  144.4540 N   0  0  0  0  0  2  0  0  0  0  0  0
  180.7550  179.6880  143.1630 C   0  0  0  0  0  2  0  0  0  0  0  0
  183.9660  178.2070  144.0310 C   0  0  1  0  0  3  0  0  0  0  0  0
  180.7560  178.8000  140.7110 C   0  0  1  0  0  3  0  0  0  0  0  0
  181.8770  178.6620  143.2540 C   0  0  1  0  0  3  0  0  0  0  0  0
  182.2390  178.3780  140.8470 C   0  0  0  0  0  2  0  0  0  0  0  0
  184.0320  178.1710  142.5610 N   0  0  0  0  0  2  0  0  0  0  0  0
  179.6840  177.3450  140.8980 S   0  0  0  0  0  0  0  0  0  0  0  0
  179.1490  177.4300  139.1660 C   0  0  0  0  0  2  0  0  0  0  0  0
  179.5320  176.1440  138.4620 C   0  0  0  0  0  2  0  0  0  0  0  0
  181.7970  175.2980  138.1890 N   0  0  0  0  0  1  0  0  0  0  0  0
  180.8580  176.3120  137.7430 C   0  0  0  0  0  2  0  0  0  0  0  0
  2  1  1  0  0  0  0
  3  1  2  0  0  0  0
  4  3  1  0  0  0  0
  5  2  2  0  0  0  0
  6  4  2  0  0  0  0
  6  5  1  0  0  0  0
  7 14  1  6  0  0  0
  7  8  1  0  0  0  0
  7 16  1  0  0  0  0
  8 12  1  6  0  0  0
  8 17  1  0  0  0  0
  9 17  1  0  0  0  0
  9 15  1  1  0  0  0
 10  6  1  1  0  0  0
 11  9  1  0  0  0  0
 12 11  1  0  0  0  0
 13 10  1  0  0  0  0
 16 10  1  0  0  0  0
 17 13  1  6  0  0  0
 18  4  1  0  0  0  0
 19 22  1  0  0  0  0
 20 26  1  6  0  0  0
 20 27  1  0  0  0  0
 20 25  1  0  0  0  0
 23 21  1  0  0  0  0
 23 18  1  6  0  0  0
 24 26  1  0  0  0  0
 24 28  1  1  0  0  0
 24 19  1  0  0  0  0
 25 22  1  1  0  0  0
 25 21  1  0  0  0  0
 27 23  1  0  0  0  0
 29 28  1  0  0  0  0
 30 29  1  0  0  0  0
 32 31  1  0  0  0  0
 32 30  1  0  0  0  0
M  END
>  <MODEL>
9

>  <REMARK>
 VINA RESULT:      -7.3      2.789      3.313
  Name = 
  7 active torsions:
  status: ('A' for Active; 'I' for Inactive)
    1  A    between atoms: N_3  and  C_14
    2  A    between atoms: N_3  and  C_15
    3  A    between atoms: C_10  and  C_20
    4  A    between atoms: C_10  and  S_24
    5  A    between atoms: C_16  and  C_26
    6  A    between atoms: C_17  and  C_20
    7  A    between atoms: C_19  and  S_24
                            x       y       z     vdW  Elec       q    Type
                         _______ _______ _______ _____ _____    ______ ____

>  <TORSDO>
F 7

$$$$
