=
 OpenBabel11052415263D

 37 41  0  0  1  0  0  0  0  0999 V2000
  185.0980  178.6270  143.7220 C   0  0  1  0  0  3  0  0  0  0  0  0
  188.9040  178.3750  140.2510 C   0  0  0  0  0  2  0  0  0  0  0  0
  188.2700  177.4190  142.4870 C   0  0  1  0  0  3  0  0  0  0  0  0
  183.7280  177.7430  140.5190 O   0  0  0  0  0  0  0  0  0  0  0  0
  188.8100  177.1040  141.0870 C   0  0  0  0  0  2  0  0  0  0  0  0
  184.1930  178.5620  142.6170 O   0  0  0  0  0  0  0  0  0  0  0  0
  184.5870  177.9950  141.4030 C   0  0  0  0  0  0  0  0  0  0  0  0
  187.6990  178.6210  139.4460 N   0  0  2  0  0  0  0  0  0  0  0  0
  186.7420  177.6830  142.5040 C   0  0  2  0  0  3  0  0  0  0  0  0
  186.5600  178.9570  140.3150 C   0  0  0  0  0  2  0  0  0  0  0  0
  186.0390  177.7690  141.1350 C   0  0  2  0  0  3  0  0  0  0  0  0
  186.4250  178.8140  143.2790 O   0  0  0  0  0  0  0  0  0  0  0  0
  186.5970  177.9900  137.3300 C   0  0  0  0  0  0  0  0  0  0  0  0
  188.6900  176.8620  137.9830 C   0  0  0  0  0  2  0  0  0  0  0  0
  189.4470  177.8070  137.0460 C   0  0  0  0  0  2  0  0  0  0  0  0
  188.3400  177.0840  135.0540 F   0  0  0  0  0  0  0  0  0  0  0  0
  187.2600  178.8300  136.2780 C   0  0  2  0  0  3  0  0  0  0  0  0
  188.5840  178.1950  135.8420 C   0  0  1  0  0  3  0  0  0  0  0  0
  187.4000  177.5120  138.5140 C   0  0  1  0  0  3  0  0  0  0  0  0
  187.4890  180.1040  136.7670 F   0  0  0  0  0  0  0  0  0  0  0  0
  185.3580  177.5460  137.1410 C   0  0  0  0  0  2  0  0  0  0  0  0
  188.7180  176.3460  143.5320 C   0  0  0  0  0  0  0  0  0  0  0  0
  187.5240  175.4660  143.9090 C   0  0  0  0  0  1  0  0  0  0  0  0
  189.7290  175.3700  142.9290 C   0  0  0  0  0  1  0  0  0  0  0  0
  191.5380  177.0620  145.9210 C   0  0  0  0  0  3  0  0  0  0  0  0
  190.7430  177.4480  144.6980 C   0  0  0  0  0  0  0  0  0  0  0  0
  189.3320  176.9510  144.7500 N   0  0  0  0  0  0  0  0  0  0  0  0
  191.5360  177.1250  143.4370 C   0  0  0  0  0  2  0  0  0  0  0  0
  188.4240  177.8580  145.4800 C   0  0  0  0  0  2  0  0  0  0  0  0
  189.5870  176.9710  147.5320 C   0  0  0  0  0  2  0  0  0  0  0  0
  191.6720  178.6060  143.1380 C   0  0  0  0  0  2  0  0  0  0  0  0
  188.9150  178.1760  146.8950 C   0  0  0  0  0  2  0  0  0  0  0  0
  190.8770  178.9330  144.3860 C   0  0  0  0  0  2  0  0  0  0  0  0
  191.0420  176.8870  147.1580 C   0  0  0  0  0  3  0  0  0  0  0  0
  184.6840  179.7710  144.6290 C   0  0  0  0  0  2  0  0  0  0  0  0
  184.9520  178.2750  146.5800 C   0  0  0  0  0  1  0  0  0  0  0  0
  185.3190  179.6220  145.9960 C   0  0  0  0  0  2  0  0  0  0  0  0
  1 35  1  1  0  0  0
  2  5  1  0  0  0  0
  3  9  1  0  0  0  0
  3 22  1  1  0  0  0
  4  7  2  0  0  0  0
  5  3  1  0  0  0  0
  6  1  1  0  0  0  0
  7  6  1  0  0  0  0
  8  2  1  1  0  0  0
  8 10  1  0  0  0  0
  9 12  1  6  0  0  0
 11 10  1  6  0  0  0
 11  7  1  0  0  0  0
 11  9  1  0  0  0  0
 12  1  1  0  0  0  0
 13 19  1  0  0  0  0
 15 14  1  0  0  0  0
 17 20  1  1  0  0  0
 17 13  1  0  0  0  0
 18 16  1  1  0  0  0
 18 17  1  0  0  0  0
 18 15  1  0  0  0  0
 19 14  1  6  0  0  0
 19  8  1  0  0  0  0
 21 13  2  0  0  0  0
 22 23  1  0  0  0  0
 22 27  1  0  0  0  0
 24 22  1  0  0  0  0
 25 34  2  0  0  0  0
 26 27  1  0  0  0  0
 26 25  1  0  0  0  0
 27 29  1  0  0  0  0
 28 26  1  0  0  0  0
 29 32  1  0  0  0  0
 31 28  1  0  0  0  0
 31 33  1  0  0  0  0
 32 30  1  0  0  0  0
 33 26  1  0  0  0  0
 34 30  1  0  0  0  0
 35 37  1  0  0  0  0
 37 36  1  0  0  0  0
M  END
>  <MODEL>
1

>  <REMARK>
 VINA RESULT:      -6.6      0.000      0.000
  Name = 
  5 active torsions:
  status: ('A' for Active; 'I' for Inactive)
    1  A    between atoms: C_1  and  C_5
    2  A    between atoms: C_4  and  C_10
    3  A    between atoms: C_4  and  N_13
    4  A    between atoms: C_5  and  C_23
    5  A    between atoms: N_27  and  C_31
                            x       y       z     vdW  Elec       q    Type
                         _______ _______ _______ _____ _____    ______ ____

>  <TORSDO>
F 5

$$$$
=
 OpenBabel11052415263D

 37 41  0  0  1  0  0  0  0  0999 V2000
  183.4400  179.4190  139.2310 C   0  0  1  0  0  3  0  0  0  0  0  0
  188.5330  178.7990  139.7500 C   0  0  0  0  0  2  0  0  0  0  0  0
  186.4520  178.8970  141.1560 C   0  0  1  0  0  3  0  0  0  0  0  0
  184.5240  176.6980  137.1480 O   0  0  0  0  0  0  0  0  0  0  0  0
  187.7610  178.1430  140.8890 C   0  0  0  0  0  2  0  0  0  0  0  0
  183.5260  178.5320  138.1140 O   0  0  0  0  0  0  0  0  0  0  0  0
  184.5750  177.6160  138.0080 C   0  0  0  0  0  0  0  0  0  0  0  0
  188.2320  178.2090  138.4390 N   0  0  2  0  0  0  0  0  0  0  0  0
  185.3590  178.6110  140.0930 C   0  0  2  0  0  3  0  0  0  0  0  0
  186.8510  178.5230  138.0400 C   0  0  0  0  0  2  0  0  0  0  0  0
  185.7870  177.7850  138.8640 C   0  0  2  0  0  3  0  0  0  0  0  0
  184.7250  179.7970  139.6780 O   0  0  0  0  0  0  0  0  0  0  0  0
  188.4150  176.2290  136.9770 C   0  0  0  0  0  0  0  0  0  0  0  0
  189.9470  176.4580  138.8950 C   0  0  0  0  0  2  0  0  0  0  0  0
  191.0130  176.9890  137.9320 C   0  0  0  0  0  2  0  0  0  0  0  0
  191.1330  174.9990  136.6110 F   0  0  0  0  0  0  0  0  0  0  0  0
  189.4660  176.5850  135.9660 C   0  0  2  0  0  3  0  0  0  0  0  0
  190.8650  176.3550  136.5450 C   0  0  1  0  0  3  0  0  0  0  0  0
  188.5270  176.7600  138.3850 C   0  0  1  0  0  3  0  0  0  0  0  0
  189.3260  177.9090  135.5880 F   0  0  0  0  0  0  0  0  0  0  0  0
  187.4800  175.3320  136.6750 C   0  0  0  0  0  2  0  0  0  0  0  0
  185.9520  178.6830  142.6210 C   0  0  0  0  0  0  0  0  0  0  0  0
  185.5230  180.0260  143.2190 C   0  0  0  0  0  1  0  0  0  0  0  0
  184.6820  177.8330  142.6570 C   0  0  0  0  0  1  0  0  0  0  0  0
  188.2480  178.4460  145.5950 C   0  0  0  0  0  3  0  0  0  0  0  0
  186.8980  178.1840  144.9730 C   0  0  0  0  0  0  0  0  0  0  0  0
  186.9740  178.0230  143.4860 N   0  0  0  0  0  0  0  0  0  0  0  0
  185.8760  179.1840  145.5020 C   0  0  0  0  0  2  0  0  0  0  0  0
  187.3020  176.6460  143.0680 C   0  0  0  0  0  2  0  0  0  0  0  0
  189.6240  177.2210  143.8590 C   0  0  0  0  0  2  0  0  0  0  0  0
  185.1470  178.0650  146.2210 C   0  0  0  0  0  2  0  0  0  0  0  0
  188.5870  176.1200  143.7120 C   0  0  0  0  0  2  0  0  0  0  0  0
  186.1550  177.0650  145.6910 C   0  0  0  0  0  2  0  0  0  0  0  0
  189.4280  178.0010  145.1310 C   0  0  0  0  0  3  0  0  0  0  0  0
  182.6470  180.6470  138.8230 C   0  0  0  0  0  2  0  0  0  0  0  0
  180.7640  181.5050  137.4690 C   0  0  0  0  0  1  0  0  0  0  0  0
  181.4980  180.2590  137.9150 C   0  0  0  0  0  2  0  0  0  0  0  0
  1 35  1  6  0  0  0
  1 12  1  0  0  0  0
  2  5  1  0  0  0  0
  3 22  1  1  0  0  0
  4  7  2  0  0  0  0
  5  3  1  0  0  0  0
  6  1  1  0  0  0  0
  7  6  1  0  0  0  0
  7 11  1  0  0  0  0
  8 10  1  1  0  0  0
  8  2  1  0  0  0  0
  9 12  1  6  0  0  0
  9  3  1  0  0  0  0
 11 10  1  6  0  0  0
 11  9  1  0  0  0  0
 13 19  1  0  0  0  0
 15 14  1  0  0  0  0
 17 20  1  1  0  0  0
 17 18  1  0  0  0  0
 17 13  1  0  0  0  0
 18 16  1  1  0  0  0
 18 15  1  0  0  0  0
 19  8  1  0  0  0  0
 19 14  1  6  0  0  0
 21 13  2  0  0  0  0
 22 24  1  0  0  0  0
 22 23  1  0  0  0  0
 22 27  1  0  0  0  0
 26 28  1  0  0  0  0
 26 25  1  0  0  0  0
 26 33  1  0  0  0  0
 27 26  1  0  0  0  0
 28 31  1  0  0  0  0
 29 27  1  0  0  0  0
 29 32  1  0  0  0  0
 30 34  1  0  0  0  0
 32 30  1  0  0  0  0
 33 31  1  0  0  0  0
 34 25  2  0  0  0  0
 36 37  1  0  0  0  0
 37 35  1  0  0  0  0
M  END
>  <MODEL>
2

>  <REMARK>
 VINA RESULT:      -6.2      2.239      4.308
  Name = 
  5 active torsions:
  status: ('A' for Active; 'I' for Inactive)
    1  A    between atoms: C_1  and  C_5
    2  A    between atoms: C_4  and  C_10
    3  A    between atoms: C_4  and  N_13
    4  A    between atoms: C_5  and  C_23
    5  A    between atoms: N_27  and  C_31
                            x       y       z     vdW  Elec       q    Type
                         _______ _______ _______ _____ _____    ______ ____

>  <TORSDO>
F 5

$$$$
=
 OpenBabel11052415263D

 37 41  0  0  1  0  0  0  0  0999 V2000
  183.4440  178.6260  143.0220 C   0  0  1  0  0  3  0  0  0  0  0  0
  187.9040  178.9960  140.4590 C   0  0  0  0  0  2  0  0  0  0  0  0
  187.0200  178.2390  142.6870 C   0  0  1  0  0  3  0  0  0  0  0  0
  183.1530  176.9100  139.8770 O   0  0  0  0  0  0  0  0  0  0  0  0
  187.9410  177.8920  141.5110 C   0  0  0  0  0  2  0  0  0  0  0  0
  182.8780  178.1330  141.8050 O   0  0  0  0  0  0  0  0  0  0  0  0
  183.6820  177.5340  140.8340 C   0  0  0  0  0  0  0  0  0  0  0  0
  186.9060  178.7520  139.4090 N   0  0  2  0  0  0  0  0  0  0  0  0
  185.5170  178.0390  142.3600 C   0  0  2  0  0  3  0  0  0  0  0  0
  185.5450  178.8620  139.9580 C   0  0  0  0  0  2  0  0  0  0  0  0
  185.1640  177.7090  140.8960 C   0  0  2  0  0  3  0  0  0  0  0  0
  184.7460  179.1280  142.8070 O   0  0  0  0  0  0  0  0  0  0  0  0
  186.5770  177.5310  137.2900 C   0  0  0  0  0  0  0  0  0  0  0  0
  188.6320  177.1470  138.5970 C   0  0  0  0  0  2  0  0  0  0  0  0
  189.3610  178.1170  137.6640 C   0  0  0  0  0  2  0  0  0  0  0  0
  189.0160  176.8250  135.6820 F   0  0  0  0  0  0  0  0  0  0  0  0
  187.2730  178.3580  136.2490 C   0  0  2  0  0  3  0  0  0  0  0  0
  188.7760  178.0640  136.2490 C   0  0  1  0  0  3  0  0  0  0  0  0
  187.1320  177.4780  138.6920 C   0  0  1  0  0  3  0  0  0  0  0  0
  187.0580  179.7030  136.4950 F   0  0  0  0  0  0  0  0  0  0  0  0
  185.5720  176.7330  136.9400 C   0  0  0  0  0  2  0  0  0  0  0  0
  187.4640  177.5140  143.9990 C   0  0  0  0  0  0  0  0  0  0  0  0
  186.8820  178.2460  145.2120 C   0  0  0  0  0  1  0  0  0  0  0  0
  186.8680  176.1090  144.0870 C   0  0  0  0  0  1  0  0  0  0  0  0
  190.8670  178.5240  145.2510 C   0  0  0  0  0  3  0  0  0  0  0  0
  189.6110  177.7040  145.4210 C   0  0  0  0  0  0  0  0  0  0  0  0
  188.9460  177.3950  144.1170 N   0  0  0  0  0  0  0  0  0  0  0  0
  188.7340  178.3140  146.5090 C   0  0  0  0  0  2  0  0  0  0  0  0
  189.4960  176.1960  143.4550 C   0  0  0  0  0  2  0  0  0  0  0  0
  191.4620  177.6840  142.9380 C   0  0  0  0  0  2  0  0  0  0  0  0
  188.9820  177.1050  147.3930 C   0  0  0  0  0  2  0  0  0  0  0  0
  191.0130  176.2690  143.2600 C   0  0  0  0  0  2  0  0  0  0  0  0
  189.8480  176.4900  146.3110 C   0  0  0  0  0  2  0  0  0  0  0  0
  191.6880  178.4910  144.1880 C   0  0  0  0  0  3  0  0  0  0  0  0
  182.5470  179.7180  143.5740 C   0  0  0  0  0  2  0  0  0  0  0  0
  180.3980  178.5980  144.0670 C   0  0  0  0  0  1  0  0  0  0  0  0
  181.1190  179.5190  143.1070 C   0  0  0  0  0  2  0  0  0  0  0  0
  1 35  1  6  0  0  0
  2  5  1  0  0  0  0
  3 22  1  1  0  0  0
  4  7  2  0  0  0  0
  5  3  1  0  0  0  0
  6  1  1  0  0  0  0
  7 11  1  0  0  0  0
  7  6  1  0  0  0  0
  8 10  1  1  0  0  0
  8  2  1  0  0  0  0
  9  3  1  0  0  0  0
  9 12  1  6  0  0  0
 11 10  1  6  0  0  0
 11  9  1  0  0  0  0
 12  1  1  0  0  0  0
 13 19  1  0  0  0  0
 15 14  1  0  0  0  0
 17 20  1  1  0  0  0
 17 13  1  0  0  0  0
 18 16  1  1  0  0  0
 18 17  1  0  0  0  0
 18 15  1  0  0  0  0
 19 14  1  6  0  0  0
 19  8  1  0  0  0  0
 21 13  2  0  0  0  0
 22 24  1  0  0  0  0
 22 27  1  0  0  0  0
 22 23  1  0  0  0  0
 25 26  1  0  0  0  0
 26 33  1  0  0  0  0
 26 28  1  0  0  0  0
 27 26  1  0  0  0  0
 28 31  1  0  0  0  0
 29 27  1  0  0  0  0
 30 32  1  0  0  0  0
 30 34  1  0  0  0  0
 32 29  1  0  0  0  0
 33 31  1  0  0  0  0
 34 25  2  0  0  0  0
 37 35  1  0  0  0  0
 37 36  1  0  0  0  0
M  END
>  <MODEL>
3

>  <REMARK>
 VINA RESULT:      -5.6      1.433      2.525
  Name = 
  5 active torsions:
  status: ('A' for Active; 'I' for Inactive)
    1  A    between atoms: C_1  and  C_5
    2  A    between atoms: C_4  and  C_10
    3  A    between atoms: C_4  and  N_13
    4  A    between atoms: C_5  and  C_23
    5  A    between atoms: N_27  and  C_31
                            x       y       z     vdW  Elec       q    Type
                         _______ _______ _______ _____ _____    ______ ____

>  <TORSDO>
F 5

$$$$
=
 OpenBabel11052415263D

 37 41  0  0  1  0  0  0  0  0999 V2000
  184.7700  173.6320  136.0610 C   0  0  1  0  0  3  0  0  0  0  0  0
  184.5260  177.9060  138.9380 C   0  0  0  0  0  2  0  0  0  0  0  0
  185.9870  176.8400  137.1920 C   0  0  1  0  0  3  0  0  0  0  0  0
  181.5920  175.2310  135.5470 O   0  0  0  0  0  0  0  0  0  0  0  0
  185.2990  178.1340  137.6430 C   0  0  0  0  0  2  0  0  0  0  0  0
  183.3680  173.7980  135.8380 O   0  0  0  0  0  0  0  0  0  0  0  0
  182.7690  175.0540  135.9570 C   0  0  0  0  0  0  0  0  0  0  0  0
  183.1190  177.5460  138.7090 N   0  0  2  0  0  0  0  0  0  0  0  0
  185.0050  175.8170  136.5640 C   0  0  2  0  0  3  0  0  0  0  0  0
  183.0240  176.2090  138.1030 C   0  0  0  0  0  2  0  0  0  0  0  0
  183.5040  176.1560  136.6460 C   0  0  2  0  0  3  0  0  0  0  0  0
  185.2320  174.5180  137.0590 O   0  0  0  0  0  0  0  0  0  0  0  0
  180.9250  178.2230  137.8080 C   0  0  0  0  0  0  0  0  0  0  0  0
  182.4810  179.9540  138.6190 C   0  0  0  0  0  2  0  0  0  0  0  0
  181.6980  179.9860  139.9360 C   0  0  0  0  0  2  0  0  0  0  0  0
  179.6330  180.6840  138.9530 F   0  0  0  0  0  0  0  0  0  0  0  0
  180.0250  178.3270  139.0050 C   0  0  2  0  0  3  0  0  0  0  0  0
  180.2160  179.6770  139.7020 C   0  0  1  0  0  3  0  0  0  0  0  0
  182.3850  178.5760  137.9420 C   0  0  1  0  0  3  0  0  0  0  0  0
  180.2980  177.2990  139.8900 F   0  0  0  0  0  0  0  0  0  0  0  0
  180.4070  177.9700  136.6090 C   0  0  0  0  0  2  0  0  0  0  0  0
  187.2280  177.1320  136.2890 C   0  0  0  0  0  0  0  0  0  0  0  0
  186.9400  176.6760  134.8560 C   0  0  0  0  0  1  0  0  0  0  0  0
  187.4810  178.6350  136.1600 C   0  0  0  0  0  1  0  0  0  0  0  0
  190.7530  177.1430  137.6100 C   0  0  0  0  0  3  0  0  0  0  0  0
  189.2670  177.1820  137.8740 C   0  0  0  0  0  0  0  0  0  0  0  0
  188.4760  176.4970  136.8030 N   0  0  0  0  0  0  0  0  0  0  0  0
  188.8400  178.5990  138.2400 C   0  0  0  0  0  2  0  0  0  0  0  0
  188.3550  175.0410  137.0130 C   0  0  0  0  0  2  0  0  0  0  0  0
  190.7670  174.9830  136.2890 C   0  0  0  0  0  2  0  0  0  0  0  0
  188.5190  178.1410  139.6510 C   0  0  0  0  0  2  0  0  0  0  0  0
  189.7100  174.3500  137.1790 C   0  0  0  0  0  2  0  0  0  0  0  0
  188.9350  176.7290  139.2900 C   0  0  0  0  0  2  0  0  0  0  0  0
  191.4090  176.1720  136.9510 C   0  0  0  0  0  3  0  0  0  0  0  0
  185.0350  172.1970  136.4750 C   0  0  0  0  0  2  0  0  0  0  0  0
  183.6460  170.1860  136.0900 C   0  0  0  0  0  1  0  0  0  0  0  0
  183.7380  171.5000  136.8350 C   0  0  0  0  0  2  0  0  0  0  0  0
  1 35  1  1  0  0  0
  1 12  1  0  0  0  0
  3 22  1  6  0  0  0
  3  5  1  0  0  0  0
  4  7  2  0  0  0  0
  5  2  1  0  0  0  0
  6  7  1  0  0  0  0
  6  1  1  0  0  0  0
  7 11  1  0  0  0  0
  8 10  1  6  0  0  0
  8  2  1  0  0  0  0
  9 11  1  0  0  0  0
  9 12  1  1  0  0  0
  9  3  1  0  0  0  0
 11 10  1  1  0  0  0
 13 19  1  0  0  0  0
 13 17  1  0  0  0  0
 14 15  1  0  0  0  0
 17 18  1  0  0  0  0
 17 20  1  1  0  0  0
 18 16  1  6  0  0  0
 18 15  1  0  0  0  0
 19 14  1  1  0  0  0
 19  8  1  0  0  0  0
 21 13  2  0  0  0  0
 22 27  1  0  0  0  0
 23 22  1  0  0  0  0
 24 22  1  0  0  0  0
 25 26  1  0  0  0  0
 26 28  1  0  0  0  0
 26 33  1  0  0  0  0
 27 29  1  0  0  0  0
 27 26  1  0  0  0  0
 28 31  1  0  0  0  0
 29 32  1  0  0  0  0
 30 34  1  0  0  0  0
 30 32  1  0  0  0  0
 33 31  1  0  0  0  0
 34 25  2  0  0  0  0
 35 37  1  0  0  0  0
 36 37  1  0  0  0  0
M  END
>  <MODEL>
4

>  <REMARK>
 VINA RESULT:      -5.4      5.213      8.003
  Name = 
  5 active torsions:
  status: ('A' for Active; 'I' for Inactive)
    1  A    between atoms: C_1  and  C_5
    2  A    between atoms: C_4  and  C_10
    3  A    between atoms: C_4  and  N_13
    4  A    between atoms: C_5  and  C_23
    5  A    between atoms: N_27  and  C_31
                            x       y       z     vdW  Elec       q    Type
                         _______ _______ _______ _____ _____    ______ ____

>  <TORSDO>
F 5

$$$$
=
 OpenBabel11052415263D

 37 41  0  0  1  0  0  0  0  0999 V2000
  187.9540  178.1310  137.4840 C   0  0  1  0  0  3  0  0  0  0  0  0
  186.0950  179.2000  142.1740 C   0  0  0  0  0  2  0  0  0  0  0  0
  185.2910  178.5160  139.8940 C   0  0  1  0  0  3  0  0  0  0  0  0
  189.5990  176.0570  139.9160 O   0  0  0  0  0  0  0  0  0  0  0  0
  185.1810  178.2560  141.4010 C   0  0  0  0  0  2  0  0  0  0  0  0
  188.9830  177.3930  138.1480 O   0  0  0  0  0  0  0  0  0  0  0  0
  188.7830  176.8840  139.4330 C   0  0  0  0  0  0  0  0  0  0  0  0
  187.4220  178.6260  142.4370 N   0  0  2  0  0  0  0  0  0  0  0  0
  186.5950  177.9510  139.2730 C   0  0  2  0  0  3  0  0  0  0  0  0
  188.1790  178.4890  141.1830 C   0  0  0  0  0  2  0  0  0  0  0  0
  187.6430  177.3910  140.2540 C   0  0  2  0  0  3  0  0  0  0  0  0
  187.1970  178.8840  138.4070 O   0  0  0  0  0  0  0  0  0  0  0  0
  188.7220  176.9320  143.6740 C   0  0  0  0  0  0  0  0  0  0  0  0
  186.4500  177.5060  144.4410 C   0  0  0  0  0  2  0  0  0  0  0  0
  187.0790  178.4280  145.4900 C   0  0  0  0  0  2  0  0  0  0  0  0
  188.2610  176.6930  146.6350 F   0  0  0  0  0  0  0  0  0  0  0  0
  189.3960  177.6880  144.7820 C   0  0  2  0  0  3  0  0  0  0  0  0
  188.4340  177.8870  145.9560 C   0  0  1  0  0  3  0  0  0  0  0  0
  187.3540  177.3630  143.2040 C   0  0  1  0  0  3  0  0  0  0  0  0
  189.8300  178.9170  144.3170 F   0  0  0  0  0  0  0  0  0  0  0  0
  189.2580  175.8030  143.2180 C   0  0  0  0  0  2  0  0  0  0  0  0
  184.0030  178.0590  139.1350 C   0  0  0  0  0  0  0  0  0  0  0  0
  182.9470  177.6000  140.1450 C   0  0  0  0  0  1  0  0  0  0  0  0
  183.3420  179.2280  138.4060 C   0  0  0  0  0  1  0  0  0  0  0  0
  184.1800  174.4960  137.9330 C   0  0  0  0  0  3  0  0  0  0  0  0
  183.3960  175.7760  138.0900 C   0  0  0  0  0  0  0  0  0  0  0  0
  184.2750  176.9860  138.1350 N   0  0  0  0  0  0  0  0  0  0  0  0
  182.3770  175.6280  139.2150 C   0  0  0  0  0  2  0  0  0  0  0  0
  184.6200  177.5020  136.7950 C   0  0  0  0  0  2  0  0  0  0  0  0
  186.1420  175.4970  136.6840 C   0  0  0  0  0  2  0  0  0  0  0  0
  181.2460  175.7070  138.2070 C   0  0  0  0  0  2  0  0  0  0  0  0
  185.2480  176.4370  135.8920 C   0  0  0  0  0  2  0  0  0  0  0  0
  182.2540  175.8630  137.0850 C   0  0  0  0  0  2  0  0  0  0  0  0
  185.3560  174.3680  137.2940 C   0  0  0  0  0  3  0  0  0  0  0  0
  188.5930  179.0500  136.4600 C   0  0  0  0  0  2  0  0  0  0  0  0
  188.5240  177.4290  134.5940 C   0  0  0  0  0  1  0  0  0  0  0  0
  189.4310  178.2530  135.4810 C   0  0  0  0  0  2  0  0  0  0  0  0
  1 35  1  6  0  0  0
  1  6  1  0  0  0  0
  1 12  1  0  0  0  0
  2  8  1  0  0  0  0
  3 22  1  6  0  0  0
  3  5  1  0  0  0  0
  5  2  1  0  0  0  0
  6  7  1  0  0  0  0
  7  4  2  0  0  0  0
  7 11  1  0  0  0  0
  8 10  1  6  0  0  0
  8 19  1  0  0  0  0
  9 12  1  1  0  0  0
  9  3  1  0  0  0  0
  9 11  1  0  0  0  0
 11 10  1  1  0  0  0
 13 17  1  0  0  0  0
 14 15  1  0  0  0  0
 15 18  1  0  0  0  0
 17 20  1  6  0  0  0
 17 18  1  0  0  0  0
 18 16  1  6  0  0  0
 19 13  1  0  0  0  0
 19 14  1  1  0  0  0
 21 13  2  0  0  0  0
 22 23  1  0  0  0  0
 24 22  1  0  0  0  0
 25 26  1  0  0  0  0
 26 27  1  0  0  0  0
 26 28  1  0  0  0  0
 27 22  1  0  0  0  0
 29 27  1  0  0  0  0
 30 34  1  0  0  0  0
 31 28  1  0  0  0  0
 32 30  1  0  0  0  0
 32 29  1  0  0  0  0
 33 26  1  0  0  0  0
 33 31  1  0  0  0  0
 34 25  2  0  0  0  0
 36 37  1  0  0  0  0
 37 35  1  0  0  0  0
M  END
>  <MODEL>
5

>  <REMARK>
 VINA RESULT:      -5.2      3.335      8.341
  Name = 
  5 active torsions:
  status: ('A' for Active; 'I' for Inactive)
    1  A    between atoms: C_1  and  C_5
    2  A    between atoms: C_4  and  C_10
    3  A    between atoms: C_4  and  N_13
    4  A    between atoms: C_5  and  C_23
    5  A    between atoms: N_27  and  C_31
                            x       y       z     vdW  Elec       q    Type
                         _______ _______ _______ _____ _____    ______ ____

>  <TORSDO>
F 5

$$$$
=
 OpenBabel11052415263D

 37 41  0  0  1  0  0  0  0  0999 V2000
  187.1140  178.3180  137.1570 C   0  0  1  0  0  3  0  0  0  0  0  0
  185.6860  179.1330  142.0460 C   0  0  0  0  0  2  0  0  0  0  0  0
  184.7020  178.4210  139.8450 C   0  0  1  0  0  3  0  0  0  0  0  0
  189.1840  176.3550  139.3430 O   0  0  0  0  0  0  0  0  0  0  0  0
  184.7790  178.1260  141.3470 C   0  0  0  0  0  2  0  0  0  0  0  0
  188.2680  177.6630  137.6880 O   0  0  0  0  0  0  0  0  0  0  0  0
  188.2520  177.1150  138.9720 C   0  0  0  0  0  0  0  0  0  0  0  0
  187.0780  178.6740  142.1500 N   0  0  2  0  0  0  0  0  0  0  0  0
  185.9760  177.9860  139.0740 C   0  0  2  0  0  3  0  0  0  0  0  0
  187.7040  178.6280  140.8190 C   0  0  0  0  0  2  0  0  0  0  0  0
  187.1680  177.5040  139.9230 C   0  0  2  0  0  3  0  0  0  0  0  0
  186.3980  178.9840  138.1760 O   0  0  0  0  0  0  0  0  0  0  0  0
  188.6460  177.0750  143.1860 C   0  0  0  0  0  0  0  0  0  0  0  0
  186.4370  177.4400  144.2190 C   0  0  0  0  0  2  0  0  0  0  0  0
  187.1040  178.3930  145.2160 C   0  0  0  0  0  2  0  0  0  0  0  0
  188.5480  176.7450  146.1720 F   0  0  0  0  0  0  0  0  0  0  0  0
  189.3780  177.8660  144.2310 C   0  0  2  0  0  3  0  0  0  0  0  0
  188.5430  177.9610  145.5110 C   0  0  1  0  0  3  0  0  0  0  0  0
  187.2030  177.3960  142.8850 C   0  0  1  0  0  3  0  0  0  0  0  0
  189.6530  179.1350  143.7540 F   0  0  0  0  0  0  0  0  0  0  0  0
  189.2180  176.0040  142.6420 C   0  0  0  0  0  2  0  0  0  0  0  0
  183.3840  177.8650  139.2150 C   0  0  0  0  0  0  0  0  0  0  0  0
  183.6970  177.2060  137.8690 C   0  0  0  0  0  1  0  0  0  0  0  0
  182.7980  176.7340  140.0600 C   0  0  0  0  0  1  0  0  0  0  0  0
  179.8500  179.1590  139.1720 C   0  0  0  0  0  3  0  0  0  0  0  0
  181.1230  178.8850  139.9340 C   0  0  0  0  0  0  0  0  0  0  0  0
  182.3350  178.9140  139.0570 N   0  0  0  0  0  0  0  0  0  0  0  0
  180.9470  177.6560  140.8190 C   0  0  0  0  0  2  0  0  0  0  0  0
  182.8820  180.2720  138.8660 C   0  0  0  0  0  2  0  0  0  0  0  0
  180.8850  180.5990  137.3650 C   0  0  0  0  0  2  0  0  0  0  0  0
  181.0450  178.5270  142.0570 C   0  0  0  0  0  2  0  0  0  0  0  0
  181.8390  181.2630  138.3440 C   0  0  0  0  0  2  0  0  0  0  0  0
  181.2280  179.7520  141.1830 C   0  0  0  0  0  2  0  0  0  0  0  0
  179.7400  179.9290  138.0760 C   0  0  0  0  0  3  0  0  0  0  0  0
  187.5560  179.3090  136.0960 C   0  0  0  0  0  2  0  0  0  0  0  0
  186.2540  177.6210  134.8420 C   0  0  0  0  0  1  0  0  0  0  0  0
  187.1780  178.8120  134.7150 C   0  0  0  0  0  2  0  0  0  0  0  0
  1 35  1  6  0  0  0
  1  6  1  0  0  0  0
  1 12  1  0  0  0  0
  2  8  1  0  0  0  0
  3 22  1  6  0  0  0
  3  5  1  0  0  0  0
  5  2  1  0  0  0  0
  6  7  1  0  0  0  0
  7  4  2  0  0  0  0
  7 11  1  0  0  0  0
  8 10  1  6  0  0  0
  8 19  1  0  0  0  0
  9 12  1  1  0  0  0
  9  3  1  0  0  0  0
  9 11  1  0  0  0  0
 11 10  1  1  0  0  0
 13 17  1  0  0  0  0
 14 15  1  0  0  0  0
 15 18  1  0  0  0  0
 17 20  1  6  0  0  0
 17 18  1  0  0  0  0
 18 16  1  6  0  0  0
 19 13  1  0  0  0  0
 19 14  1  1  0  0  0
 21 13  2  0  0  0  0
 22 24  1  0  0  0  0
 23 22  1  0  0  0  0
 25 26  1  0  0  0  0
 26 28  1  0  0  0  0
 26 33  1  0  0  0  0
 27 22  1  0  0  0  0
 27 26  1  0  0  0  0
 28 31  1  0  0  0  0
 29 27  1  0  0  0  0
 30 34  1  0  0  0  0
 30 32  1  0  0  0  0
 32 29  1  0  0  0  0
 33 31  1  0  0  0  0
 34 25  2  0  0  0  0
 37 36  1  0  0  0  0
 37 35  1  0  0  0  0
M  END
>  <MODEL>
6

>  <REMARK>
 VINA RESULT:      -5.2      3.694      8.501
  Name = 
  5 active torsions:
  status: ('A' for Active; 'I' for Inactive)
    1  A    between atoms: C_1  and  C_5
    2  A    between atoms: C_4  and  C_10
    3  A    between atoms: C_4  and  N_13
    4  A    between atoms: C_5  and  C_23
    5  A    between atoms: N_27  and  C_31
                            x       y       z     vdW  Elec       q    Type
                         _______ _______ _______ _____ _____    ______ ____

>  <TORSDO>
F 5

$$$$
=
 OpenBabel11052415263D

 37 41  0  0  1  0  0  0  0  0999 V2000
  190.0850  177.5260  140.0330 C   0  0  1  0  0  3  0  0  0  0  0  0
  190.6040  174.0690  136.2420 C   0  0  0  0  0  2  0  0  0  0  0  0
  189.3270  176.1670  136.7730 C   0  0  1  0  0  3  0  0  0  0  0  0
  193.5530  177.2690  139.1260 O   0  0  0  0  0  0  0  0  0  0  0  0
  190.1560  175.4280  135.7160 C   0  0  0  0  0  2  0  0  0  0  0  0
  191.5080  177.4860  140.1560 O   0  0  0  0  0  0  0  0  0  0  0  0
  192.3080  177.0910  139.0820 C   0  0  0  0  0  0  0  0  0  0  0  0
  191.9300  174.1080  136.8760 N   0  0  2  0  0  0  0  0  0  0  0  0
  190.1910  176.7620  137.9150 C   0  0  2  0  0  3  0  0  0  0  0  0
  191.8760  174.8750  138.1300 C   0  0  0  0  0  2  0  0  0  0  0  0
  191.6850  176.3840  137.9230 C   0  0  2  0  0  3  0  0  0  0  0  0
  189.6220  176.5030  139.1770 O   0  0  0  0  0  0  0  0  0  0  0  0
  194.3480  174.5080  136.6000 C   0  0  0  0  0  0  0  0  0  0  0  0
  193.0220  173.7570  134.6620 C   0  0  0  0  0  2  0  0  0  0  0  0
  193.5160  172.3310  134.9260 C   0  0  0  0  0  2  0  0  0  0  0  0
  195.8310  172.8310  134.5940 F   0  0  0  0  0  0  0  0  0  0  0  0
  194.9930  173.1690  136.8060 C   0  0  2  0  0  3  0  0  0  0  0  0
  194.9280  172.3400  135.5200 C   0  0  1  0  0  3  0  0  0  0  0  0
  192.9860  174.5870  135.9570 C   0  0  1  0  0  3  0  0  0  0  0  0
  194.3570  172.4930  137.8330 F   0  0  0  0  0  0  0  0  0  0  0  0
  195.0380  175.6200  136.8400 C   0  0  0  0  0  2  0  0  0  0  0  0
  188.3660  177.2140  136.1220 C   0  0  0  0  0  0  0  0  0  0  0  0
  188.8570  178.6290  136.4390 C   0  0  0  0  0  1  0  0  0  0  0  0
  188.4080  177.1340  134.5960 C   0  0  0  0  0  1  0  0  0  0  0  0
  184.7980  176.0880  135.7040 C   0  0  0  0  0  3  0  0  0  0  0  0
  186.2050  175.7990  136.1670 C   0  0  0  0  0  0  0  0  0  0  0  0
  186.9480  177.0390  136.5540 N   0  0  0  0  0  0  0  0  0  0  0  0
  186.8970  174.8660  135.1800 C   0  0  0  0  0  2  0  0  0  0  0  0
  186.7010  177.4520  137.9500 C   0  0  0  0  0  2  0  0  0  0  0  0
  184.4560  178.1890  137.0760 C   0  0  0  0  0  2  0  0  0  0  0  0
  186.9170  173.7670  136.2260 C   0  0  0  0  0  2  0  0  0  0  0  0
  185.2120  177.6200  138.2640 C   0  0  0  0  0  2  0  0  0  0  0  0
  186.2360  174.6930  137.2140 C   0  0  0  0  0  2  0  0  0  0  0  0
  184.0270  177.1060  136.1230 C   0  0  0  0  0  3  0  0  0  0  0  0
  189.4680  177.3710  141.4110 C   0  0  0  0  0  2  0  0  0  0  0  0
  189.7190  176.3790  143.6620 C   0  0  0  0  0  1  0  0  0  0  0  0
  190.3420  176.4990  142.2890 C   0  0  0  0  0  2  0  0  0  0  0  0
  1  6  1  0  0  0  0
  1 35  1  1  0  0  0
  3 22  1  6  0  0  0
  3  9  1  0  0  0  0
  5  2  1  0  0  0  0
  5  3  1  0  0  0  0
  7  4  2  0  0  0  0
  7  6  1  0  0  0  0
  8  2  1  6  0  0  0
  8 10  1  0  0  0  0
  9 11  1  0  0  0  0
  9 12  1  1  0  0  0
 11 10  1  1  0  0  0
 11  7  1  0  0  0  0
 12  1  1  0  0  0  0
 13 17  1  0  0  0  0
 13 21  2  0  0  0  0
 14 15  1  0  0  0  0
 15 18  1  0  0  0  0
 17 20  1  1  0  0  0
 18 16  1  6  0  0  0
 18 17  1  0  0  0  0
 19 14  1  6  0  0  0
 19 13  1  0  0  0  0
 19  8  1  0  0  0  0
 22 23  1  0  0  0  0
 22 27  1  0  0  0  0
 24 22  1  0  0  0  0
 25 34  2  0  0  0  0
 25 26  1  0  0  0  0
 26 27  1  0  0  0  0
 26 33  1  0  0  0  0
 27 29  1  0  0  0  0
 28 26  1  0  0  0  0
 28 31  1  0  0  0  0
 29 32  1  0  0  0  0
 30 32  1  0  0  0  0
 31 33  1  0  0  0  0
 34 30  1  0  0  0  0
 35 37  1  0  0  0  0
 37 36  1  0  0  0  0
M  END
>  <MODEL>
7

>  <REMARK>
 VINA RESULT:      -5.2      4.524      8.393
  Name = 
  5 active torsions:
  status: ('A' for Active; 'I' for Inactive)
    1  A    between atoms: C_1  and  C_5
    2  A    between atoms: C_4  and  C_10
    3  A    between atoms: C_4  and  N_13
    4  A    between atoms: C_5  and  C_23
    5  A    between atoms: N_27  and  C_31
                            x       y       z     vdW  Elec       q    Type
                         _______ _______ _______ _____ _____    ______ ____

>  <TORSDO>
F 5

$$$$
=
 OpenBabel11052415263D

 37 41  0  0  1  0  0  0  0  0999 V2000
  191.3100  177.1370  140.6290 C   0  0  1  0  0  3  0  0  0  0  0  0
  186.5210  179.0470  140.5170 C   0  0  0  0  0  2  0  0  0  0  0  0
  188.0610  177.6280  139.1280 C   0  0  1  0  0  3  0  0  0  0  0  0
  189.5720  176.1620  143.6200 O   0  0  0  0  0  0  0  0  0  0  0  0
  186.6440  177.7680  139.6950 C   0  0  0  0  0  2  0  0  0  0  0  0
  191.0670  176.8230  142.0020 O   0  0  0  0  0  0  0  0  0  0  0  0
  189.7650  176.6510  142.4770 C   0  0  0  0  0  0  0  0  0  0  0  0
  186.7900  178.8370  141.9460 N   0  0  2  0  0  0  0  0  0  0  0  0
  189.1000  177.1840  140.1910 C   0  0  2  0  0  3  0  0  0  0  0  0
  188.2110  178.5180  142.1590 C   0  0  0  0  0  2  0  0  0  0  0  0
  188.6140  177.1270  141.6520 C   0  0  2  0  0  3  0  0  0  0  0  0
  190.2800  177.9470  140.1050 O   0  0  0  0  0  0  0  0  0  0  0  0
  185.7390  178.0670  144.0410 C   0  0  0  0  0  0  0  0  0  0  0  0
  184.4800  177.9010  141.9280 C   0  0  0  0  0  2  0  0  0  0  0  0
  183.7530  179.1960  142.3030 C   0  0  0  0  0  2  0  0  0  0  0  0
  182.7540  178.3240  144.2930 F   0  0  0  0  0  0  0  0  0  0  0  0
  184.9480  179.2420  144.5370 C   0  0  2  0  0  3  0  0  0  0  0  0
  183.5960  179.3170  143.8220 C   0  0  1  0  0  3  0  0  0  0  0  0
  185.8830  177.8410  142.5570 C   0  0  1  0  0  3  0  0  0  0  0  0
  185.6570  180.4110  144.3240 F   0  0  0  0  0  0  0  0  0  0  0  0
  186.1760  177.1510  144.9010 C   0  0  0  0  0  2  0  0  0  0  0  0
  188.0820  176.7380  137.8420 C   0  0  0  0  0  0  0  0  0  0  0  0
  188.8690  177.4490  136.7380 C   0  0  0  0  0  1  0  0  0  0  0  0
  188.8530  175.4390  138.0770 C   0  0  0  0  0  1  0  0  0  0  0  0
  184.5730  177.4950  136.7060 C   0  0  0  0  0  3  0  0  0  0  0  0
  186.0260  177.2600  136.3680 C   0  0  0  0  0  0  0  0  0  0  0  0
  186.7130  176.3830  137.3680 N   0  0  0  0  0  0  0  0  0  0  0  0
  186.7050  178.5840  136.0380 C   0  0  0  0  0  2  0  0  0  0  0  0
  186.5390  174.9430  137.0920 C   0  0  0  0  0  2  0  0  0  0  0  0
  184.1940  175.3150  137.9370 C   0  0  0  0  0  2  0  0  0  0  0  0
  186.8700  178.1450  134.5950 C   0  0  0  0  0  2  0  0  0  0  0  0
  185.0690  174.5350  136.9680 C   0  0  0  0  0  2  0  0  0  0  0  0
  186.2020  176.8230  134.9190 C   0  0  0  0  0  2  0  0  0  0  0  0
  183.7700  176.6370  137.3570 C   0  0  0  0  0  3  0  0  0  0  0  0
  192.6440  177.8520  140.5170 C   0  0  0  0  0  2  0  0  0  0  0  0
  192.7930  176.6330  138.3700 C   0  0  0  0  0  1  0  0  0  0  0  0
  193.5710  177.1040  139.5800 C   0  0  0  0  0  2  0  0  0  0  0  0
  1 35  1  1  0  0  0
  1  6  1  0  0  0  0
  3 22  1  6  0  0  0
  3  5  1  0  0  0  0
  3  9  1  0  0  0  0
  5  2  1  0  0  0  0
  6  7  1  0  0  0  0
  7  4  2  0  0  0  0
  8  2  1  6  0  0  0
  8 10  1  0  0  0  0
  8 19  1  0  0  0  0
  9 12  1  1  0  0  0
  9 11  1  0  0  0  0
 11 10  1  1  0  0  0
 11  7  1  0  0  0  0
 12  1  1  0  0  0  0
 13 17  1  0  0  0  0
 13 21  2  0  0  0  0
 14 15  1  0  0  0  0
 15 18  1  0  0  0  0
 17 20  1  6  0  0  0
 18 16  1  1  0  0  0
 18 17  1  0  0  0  0
 19 14  1  6  0  0  0
 19 13  1  0  0  0  0
 22 24  1  0  0  0  0
 23 22  1  0  0  0  0
 25 34  2  0  0  0  0
 26 25  1  0  0  0  0
 26 27  1  0  0  0  0
 27 22  1  0  0  0  0
 28 26  1  0  0  0  0
 29 27  1  0  0  0  0
 31 33  1  0  0  0  0
 31 28  1  0  0  0  0
 32 29  1  0  0  0  0
 32 30  1  0  0  0  0
 33 26  1  0  0  0  0
 34 30  1  0  0  0  0
 36 37  1  0  0  0  0
 37 35  1  0  0  0  0
M  END
>  <MODEL>
8

>  <REMARK>
 VINA RESULT:      -5.1      3.373      7.936
  Name = 
  5 active torsions:
  status: ('A' for Active; 'I' for Inactive)
    1  A    between atoms: C_1  and  C_5
    2  A    between atoms: C_4  and  C_10
    3  A    between atoms: C_4  and  N_13
    4  A    between atoms: C_5  and  C_23
    5  A    between atoms: N_27  and  C_31
                            x       y       z     vdW  Elec       q    Type
                         _______ _______ _______ _____ _____    ______ ____

>  <TORSDO>
F 5

$$$$
=
 OpenBabel11052415263D

 37 41  0  0  1  0  0  0  0  0999 V2000
  188.1340  178.1040  137.6830 C   0  0  1  0  0  3  0  0  0  0  0  0
  183.7290  179.1320  140.1600 C   0  0  0  0  0  2  0  0  0  0  0  0
  184.5770  177.7750  138.2220 C   0  0  1  0  0  3  0  0  0  0  0  0
  188.5410  177.3800  141.1800 O   0  0  0  0  0  0  0  0  0  0  0  0
  183.6930  177.7710  139.4740 C   0  0  0  0  0  2  0  0  0  0  0  0
  188.7410  177.9940  138.9720 O   0  0  0  0  0  0  0  0  0  0  0  0
  187.9750  177.6900  140.0990 C   0  0  0  0  0  0  0  0  0  0  0  0
  184.7580  179.2200  141.2060 N   0  0  2  0  0  0  0  0  0  0  0  0
  186.0920  177.7020  138.5480 C   0  0  2  0  0  3  0  0  0  0  0  0
  186.1020  179.1860  140.6080 C   0  0  0  0  0  2  0  0  0  0  0  0
  186.4880  177.8170  140.0330 C   0  0  2  0  0  3  0  0  0  0  0  0
  186.8270  178.6270  137.7820 O   0  0  0  0  0  0  0  0  0  0  0  0
  185.4200  178.5240  143.4790 C   0  0  0  0  0  0  0  0  0  0  0  0
  183.1100  178.1170  142.7170 C   0  0  0  0  0  2  0  0  0  0  0  0
  182.6800  179.3790  143.4720 C   0  0  0  0  0  2  0  0  0  0  0  0
  183.3220  178.5790  145.6320 F   0  0  0  0  0  0  0  0  0  0  0  0
  185.0320  179.6700  144.3670 C   0  0  2  0  0  3  0  0  0  0  0  0
  183.5440  179.5950  144.7180 C   0  0  1  0  0  3  0  0  0  0  0  0
  184.5790  178.2050  142.2670 C   0  0  1  0  0  3  0  0  0  0  0  0
  185.3060  180.8700  143.7350 F   0  0  0  0  0  0  0  0  0  0  0  0
  186.4040  177.7060  143.8420 C   0  0  0  0  0  2  0  0  0  0  0  0
  184.1200  176.6950  137.1900 C   0  0  0  0  0  0  0  0  0  0  0  0
  184.3260  177.2220  135.7670 C   0  0  0  0  0  1  0  0  0  0  0  0
  185.0030  175.4490  137.2600 C   0  0  0  0  0  1  0  0  0  0  0  0
  180.4700  177.2590  137.9220 C   0  0  0  0  0  3  0  0  0  0  0  0
  181.5920  177.1500  136.9170 C   0  0  0  0  0  0  0  0  0  0  0  0
  182.7040  176.2690  137.3930 N   0  0  0  0  0  0  0  0  0  0  0  0
  181.9820  178.5370  136.4180 C   0  0  0  0  0  2  0  0  0  0  0  0
  182.4720  174.8380  137.1120 C   0  0  0  0  0  2  0  0  0  0  0  0
  180.8050  174.9910  138.9950 C   0  0  0  0  0  2  0  0  0  0  0  0
  181.4520  178.1930  135.0380 C   0  0  0  0  0  2  0  0  0  0  0  0
  181.1370  174.3340  137.6660 C   0  0  0  0  0  2  0  0  0  0  0  0
  181.0690  176.8100  135.5270 C   0  0  0  0  0  2  0  0  0  0  0  0
  180.1080  176.3100  138.8010 C   0  0  0  0  0  3  0  0  0  0  0  0
  188.9920  179.0030  136.8120 C   0  0  0  0  0  2  0  0  0  0  0  0
  188.7450  176.9230  135.4970 C   0  0  0  0  0  1  0  0  0  0  0  0
  189.4380  178.2660  135.5650 C   0  0  0  0  0  2  0  0  0  0  0  0
  1 35  1  6  0  0  0
  1 12  1  0  0  0  0
  1  6  1  0  0  0  0
  3 22  1  6  0  0  0
  3  9  1  0  0  0  0
  3  5  1  0  0  0  0
  5  2  1  0  0  0  0
  6  7  1  0  0  0  0
  7  4  2  0  0  0  0
  8  2  1  6  0  0  0
  8 19  1  0  0  0  0
  9 12  1  6  0  0  0
  9 11  1  0  0  0  0
 10  8  1  0  0  0  0
 11  7  1  0  0  0  0
 11 10  1  6  0  0  0
 13 21  2  0  0  0  0
 13 17  1  0  0  0  0
 14 15  1  0  0  0  0
 15 18  1  0  0  0  0
 17 20  1  6  0  0  0
 17 18  1  0  0  0  0
 18 16  1  1  0  0  0
 19 14  1  1  0  0  0
 19 13  1  0  0  0  0
 22 24  1  0  0  0  0
 22 27  1  0  0  0  0
 23 22  1  0  0  0  0
 25 34  2  0  0  0  0
 26 27  1  0  0  0  0
 26 25  1  0  0  0  0
 28 26  1  0  0  0  0
 29 27  1  0  0  0  0
 29 32  1  0  0  0  0
 31 33  1  0  0  0  0
 31 28  1  0  0  0  0
 32 30  1  0  0  0  0
 33 26  1  0  0  0  0
 34 30  1  0  0  0  0
 36 37  1  0  0  0  0
 37 35  1  0  0  0  0
M  END
>  <MODEL>
9

>  <REMARK>
 VINA RESULT:      -5.0      3.754      8.962
  Name = 
  5 active torsions:
  status: ('A' for Active; 'I' for Inactive)
    1  A    between atoms: C_1  and  C_5
    2  A    between atoms: C_4  and  C_10
    3  A    between atoms: C_4  and  N_13
    4  A    between atoms: C_5  and  C_23
    5  A    between atoms: N_27  and  C_31
                            x       y       z     vdW  Elec       q    Type
                         _______ _______ _______ _____ _____    ______ ____

>  <TORSDO>
F 5

$$$$
