=
 OpenBabel11052412313D

 30 32  0  0  1  0  0  0  0  0999 V2000
  187.3190  177.7290  142.7720 C   0  0  0  0  0  2  0  0  0  0  0  0
  184.9720  178.1960  142.0450 C   0  0  2  0  0  3  0  0  0  0  0  0
  186.2330  178.5890  146.8520 N   0  0  0  0  0  2  0  0  0  0  0  0
  188.2110  177.1770  143.8930 C   0  0  2  0  0  3  0  0  0  0  0  0
  187.1300  178.3980  147.9860 C   0  0  0  0  0  2  0  0  0  0  0  0
  184.6340  179.5570  142.1760 O   0  0  0  0  0  0  0  0  0  0  0  0
  183.8450  177.3990  141.9120 F   0  0  0  0  0  0  0  0  0  0  0  0
  186.6130  178.2240  145.5150 C   0  0  0  0  0  0  0  0  0  0  0  0
  183.8530  179.6810  143.3340 C   0  0  0  0  0  2  0  0  0  0  0  0
  185.8630  177.6980  143.1920 C   0  0  2  0  0  3  0  0  0  0  0  0
  187.7910  177.5990  145.2920 C   0  0  0  0  0  0  0  0  0  0  0  0
  187.9570  177.1420  147.7680 C   0  0  0  0  0  2  0  0  0  0  0  0
  188.7100  177.2720  146.4470 C   0  0  0  0  0  2  0  0  0  0  0  0
  184.7380  179.5690  144.5660 C   0  0  0  0  0  2  0  0  0  0  0  0
  185.7040  178.4750  144.4300 N   0  0  0  0  0  0  0  0  0  0  0  0
  189.7030  177.4540  143.6280 C   0  0  2  0  0  3  0  0  0  0  0  0
  189.9920  178.0370  142.3680 O   0  0  0  0  0  0  0  0  0  0  0  0
  192.1520  177.6620  141.3980 C   0  0  0  0  0  1  0  0  0  0  0  0
  190.7400  177.1380  141.5880 C   0  0  2  0  0  3  0  0  0  0  0  0
  190.5050  176.0730  139.5040 O   0  0  0  0  0  0  0  0  0  0  0  0
  190.0780  176.9300  140.2600 C   0  0  0  0  0  0  0  0  0  0  0  0
  188.9230  177.7870  139.8350 C   0  0  0  0  0  2  0  0  0  0  0  0
  189.0420  179.4060  138.0860 O   0  0  0  0  0  1  0  0  0  0  0  0
  188.9490  178.0370  138.3370 C   0  0  0  0  0  2  0  0  0  0  0  0
  190.6350  176.3060  144.0320 C   0  0  0  0  0  2  0  0  0  0  0  0
  191.6950  176.7920  145.0090 C   0  0  0  0  0  2  0  0  0  0  0  0
  191.8540  175.8640  146.0780 O   0  0  0  0  0  0  0  0  0  0  0  0
  191.5580  177.3300  147.8420 O   0  0  0  0  0  0  0  0  0  0  0  0
  192.0750  176.2710  147.3950 C   0  0  0  0  0  0  0  0  0  0  0  0
  192.9270  175.4400  148.2840 C   0  0  0  0  0  1  0  0  0  0  0  0
  1  4  1  0  0  0  0
  2  7  1  1  0  0  0
  2  6  1  0  0  0  0
  2 10  1  0  0  0  0
  3  5  1  0  0  0  0
  4 16  1  6  0  0  0
  4 11  1  0  0  0  0
  6  9  1  0  0  0  0
  8  3  1  0  0  0  0
  9 14  1  0  0  0  0
 10  1  1  6  0  0  0
 10 15  1  0  0  0  0
 11  8  2  0  0  0  0
 11 13  1  0  0  0  0
 12  5  1  0  0  0  0
 13 12  1  0  0  0  0
 15 14  1  0  0  0  0
 15  8  1  0  0  0  0
 16 25  1  6  0  0  0
 17 16  1  0  0  0  0
 19 18  1  6  0  0  0
 19 17  1  0  0  0  0
 20 21  2  0  0  0  0
 21 19  1  0  0  0  0
 22 21  1  0  0  0  0
 23 24  1  0  0  0  0
 24 22  1  0  0  0  0
 25 26  1  0  0  0  0
 26 27  1  0  0  0  0
 27 29  1  0  0  0  0
 29 28  2  0  0  0  0
 29 30  1  0  0  0  0
M  END
>  <MODEL>
1

>  <REMARK>
 VINA RESULT:      -7.6      0.000      0.000
  Name = 
  10 active torsions:
  status: ('A' for Active; 'I' for Inactive)
    1  A    between atoms: C_4  and  C_27
    2  A    between atoms: C_5  and  C_12
    3  A    between atoms: C_5  and  C_21
    4  A    between atoms: O_7  and  C_15
    5  A    between atoms: O_7  and  C_16
    6  A    between atoms: C_8  and  C_12
    7  A    between atoms: C_8  and  O_13
    8  A    between atoms: O_13  and  C_27
    9  A    between atoms: C_16  and  C_30
   10  A    between atoms: C_27  and  C_30
                            x       y       z     vdW  Elec       q    Type
                         _______ _______ _______ _____ _____    ______ ____

>  <TORSDO>
F 10

$$$$
=
 OpenBabel11052412313D

 30 32  0  0  1  0  0  0  0  0999 V2000
  187.1020  178.4950  139.8100 C   0  0  0  0  0  2  0  0  0  0  0  0
  188.5120  178.4320  137.7450 C   0  0  2  0  0  3  0  0  0  0  0  0
  190.1820  176.4080  141.9830 N   0  0  0  0  0  2  0  0  0  0  0  0
  187.1050  178.5950  141.3420 C   0  0  2  0  0  3  0  0  0  0  0  0
  190.1340  176.1620  143.4210 C   0  0  0  0  0  2  0  0  0  0  0  0
  188.6570  177.1250  137.2380 O   0  0  0  0  0  0  0  0  0  0  0  0
  189.4640  179.2920  137.2210 F   0  0  0  0  0  0  0  0  0  0  0  0
  189.1650  177.1680  141.3100 C   0  0  0  0  0  0  0  0  0  0  0  0
  189.9300  176.6740  137.6130 C   0  0  0  0  0  2  0  0  0  0  0  0
  188.5220  178.4720  139.2790 C   0  0  2  0  0  3  0  0  0  0  0  0
  188.1800  177.7620  142.0220 C   0  0  0  0  0  0  0  0  0  0  0  0
  189.5290  177.3700  144.1180 C   0  0  0  0  0  2  0  0  0  0  0  0
  188.1470  177.6370  143.5270 C   0  0  0  0  0  2  0  0  0  0  0  0
  189.9370  176.3230  139.0930 C   0  0  0  0  0  2  0  0  0  0  0  0
  189.2420  177.3420  139.8860 N   0  0  0  0  0  0  0  0  0  0  0  0
  185.7080  178.3330  141.9360 C   0  0  2  0  0  3  0  0  0  0  0  0
  184.7340  177.8850  141.0090 O   0  0  0  0  0  0  0  0  0  0  0  0
  182.3830  178.2870  141.2550 C   0  0  0  0  0  1  0  0  0  0  0  0
  183.7330  178.8610  140.8610 C   0  0  2  0  0  3  0  0  0  0  0  0
  184.3800  180.3150  139.1300 O   0  0  0  0  0  0  0  0  0  0  0  0
  183.6960  179.3560  139.4480 C   0  0  0  0  0  0  0  0  0  0  0  0
  182.8020  178.7110  138.4310 C   0  0  0  0  0  2  0  0  0  0  0  0
  183.6950  176.5090  138.2110 O   0  0  0  0  0  1  0  0  0  0  0  0
  183.5760  177.7370  137.5600 C   0  0  0  0  0  2  0  0  0  0  0  0
  185.2230  179.4220  142.8990 C   0  0  0  0  0  2  0  0  0  0  0  0
  184.7820  178.8130  144.2220 C   0  0  0  0  0  2  0  0  0  0  0  0
  185.6810  179.1770  145.2650 O   0  0  0  0  0  0  0  0  0  0  0  0
  184.5520  178.3840  147.1210 O   0  0  0  0  0  0  0  0  0  0  0  0
  185.6460  178.5790  146.5260 C   0  0  0  0  0  0  0  0  0  0  0  0
  186.9160  178.1620  147.1730 C   0  0  0  0  0  1  0  0  0  0  0  0
  1  4  1  0  0  0  0
  2  7  1  6  0  0  0
  2 10  1  0  0  0  0
  3  5  1  0  0  0  0
  4 16  1  1  0  0  0
  4 11  1  0  0  0  0
  5 12  1  0  0  0  0
  6  9  1  0  0  0  0
  6  2  1  0  0  0  0
  8  3  1  0  0  0  0
  8 11  2  0  0  0  0
  9 14  1  0  0  0  0
 10  1  1  1  0  0  0
 10 15  1  0  0  0  0
 11 13  1  0  0  0  0
 13 12  1  0  0  0  0
 14 15  1  0  0  0  0
 15  8  1  0  0  0  0
 16 25  1  6  0  0  0
 17 16  1  0  0  0  0
 19 17  1  0  0  0  0
 19 18  1  6  0  0  0
 20 21  2  0  0  0  0
 21 19  1  0  0  0  0
 22 21  1  0  0  0  0
 24 23  1  0  0  0  0
 24 22  1  0  0  0  0
 25 26  1  0  0  0  0
 26 27  1  0  0  0  0
 27 29  1  0  0  0  0
 29 28  2  0  0  0  0
 29 30  1  0  0  0  0
M  END
>  <MODEL>
2

>  <REMARK>
 VINA RESULT:      -7.2      3.493      6.299
  Name = 
  10 active torsions:
  status: ('A' for Active; 'I' for Inactive)
    1  A    between atoms: C_4  and  C_27
    2  A    between atoms: C_5  and  C_12
    3  A    between atoms: C_5  and  C_21
    4  A    between atoms: O_7  and  C_15
    5  A    between atoms: O_7  and  C_16
    6  A    between atoms: C_8  and  C_12
    7  A    between atoms: C_8  and  O_13
    8  A    between atoms: O_13  and  C_27
    9  A    between atoms: C_16  and  C_30
   10  A    between atoms: C_27  and  C_30
                            x       y       z     vdW  Elec       q    Type
                         _______ _______ _______ _____ _____    ______ ____

>  <TORSDO>
F 10

$$$$
=
 OpenBabel11052412313D

 30 32  0  0  1  0  0  0  0  0999 V2000
  186.9650  177.9240  142.0010 C   0  0  0  0  0  2  0  0  0  0  0  0
  189.3500  177.4580  141.4090 C   0  0  2  0  0  3  0  0  0  0  0  0
  187.9120  177.4980  146.1820 N   0  0  0  0  0  2  0  0  0  0  0  0
  186.0160  178.5570  143.0280 C   0  0  2  0  0  3  0  0  0  0  0  0
  186.9670  177.7720  147.2590 C   0  0  0  0  0  2  0  0  0  0  0  0
  189.7170  176.1260  141.6850 O   0  0  0  0  0  0  0  0  0  0  0  0
  190.4610  178.2700  141.2400 F   0  0  0  0  0  0  0  0  0  0  0  0
  187.5750  177.7190  144.8020 C   0  0  0  0  0  0  0  0  0  0  0  0
  190.4550  176.1380  142.8770 C   0  0  0  0  0  2  0  0  0  0  0  0
  188.4020  178.0390  142.4680 C   0  0  2  0  0  3  0  0  0  0  0  0
  186.3910  178.2850  144.4760 C   0  0  0  0  0  0  0  0  0  0  0  0
  186.1170  178.9770  146.8880 C   0  0  0  0  0  2  0  0  0  0  0  0
  185.4200  178.6960  145.5590 C   0  0  0  0  0  2  0  0  0  0  0  0
  189.5200  176.3440  144.0600 C   0  0  0  0  0  2  0  0  0  0  0  0
  188.5320  177.3910  143.7820 N   0  0  0  0  0  0  0  0  0  0  0  0
  184.5430  178.2120  142.7370 C   0  0  2  0  0  3  0  0  0  0  0  0
  184.3120  177.5540  141.5030 O   0  0  0  0  0  0  0  0  0  0  0  0
  182.3160  177.6070  140.1760 C   0  0  0  0  0  1  0  0  0  0  0  0
  183.5330  178.3710  140.6660 C   0  0  2  0  0  3  0  0  0  0  0  0
  184.6320  180.0340  139.4170 O   0  0  0  0  0  0  0  0  0  0  0  0
  184.3490  178.8500  139.5040 C   0  0  0  0  0  0  0  0  0  0  0  0
  184.7890  177.9000  138.4310 C   0  0  0  0  0  2  0  0  0  0  0  0
  187.1310  178.3280  138.5920 O   0  0  0  0  0  1  0  0  0  0  0  0
  186.0380  178.4060  137.7300 C   0  0  0  0  0  2  0  0  0  0  0  0
  183.5600  179.3440  143.0540 C   0  0  0  0  0  2  0  0  0  0  0  0
  182.4020  178.8330  143.8980 C   0  0  0  0  0  2  0  0  0  0  0  0
  181.1630  179.3290  143.4010 O   0  0  0  0  0  0  0  0  0  0  0  0
  179.5510  177.9390  144.3040 O   0  0  0  0  0  0  0  0  0  0  0  0
  180.0250  178.5280  143.2950 C   0  0  0  0  0  0  0  0  0  0  0  0
  179.3590  178.3750  141.9770 C   0  0  0  0  0  1  0  0  0  0  0  0
  1  4  1  0  0  0  0
  2  7  1  1  0  0  0
  2  6  1  0  0  0  0
  2 10  1  0  0  0  0
  3  5  1  0  0  0  0
  4 16  1  6  0  0  0
  4 11  1  0  0  0  0
  6  9  1  0  0  0  0
  8  3  1  0  0  0  0
  9 14  1  0  0  0  0
 10  1  1  6  0  0  0
 10 15  1  0  0  0  0
 11  8  2  0  0  0  0
 11 13  1  0  0  0  0
 12  5  1  0  0  0  0
 13 12  1  0  0  0  0
 15 14  1  0  0  0  0
 15  8  1  0  0  0  0
 16 25  1  6  0  0  0
 17 16  1  0  0  0  0
 19 18  1  6  0  0  0
 19 17  1  0  0  0  0
 20 21  2  0  0  0  0
 21 19  1  0  0  0  0
 22 21  1  0  0  0  0
 24 22  1  0  0  0  0
 24 23  1  0  0  0  0
 25 26  1  0  0  0  0
 27 26  1  0  0  0  0
 29 27  1  0  0  0  0
 29 28  2  0  0  0  0
 30 29  1  0  0  0  0
M  END
>  <MODEL>
3

>  <REMARK>
 VINA RESULT:      -7.2      2.818      6.893
  Name = 
  10 active torsions:
  status: ('A' for Active; 'I' for Inactive)
    1  A    between atoms: C_4  and  C_27
    2  A    between atoms: C_5  and  C_12
    3  A    between atoms: C_5  and  C_21
    4  A    between atoms: O_7  and  C_15
    5  A    between atoms: O_7  and  C_16
    6  A    between atoms: C_8  and  C_12
    7  A    between atoms: C_8  and  O_13
    8  A    between atoms: O_13  and  C_27
    9  A    between atoms: C_16  and  C_30
   10  A    between atoms: C_27  and  C_30
                            x       y       z     vdW  Elec       q    Type
                         _______ _______ _______ _____ _____    ______ ____

>  <TORSDO>
F 10

$$$$
=
 OpenBabel11052412313D

 30 32  0  0  1  0  0  0  0  0999 V2000
  187.9730  178.0350  139.5430 C   0  0  0  0  0  2  0  0  0  0  0  0
  187.0100  178.2090  137.2420 C   0  0  2  0  0  3  0  0  0  0  0  0
  191.6550  176.5220  137.8950 N   0  0  0  0  0  2  0  0  0  0  0  0
  189.2470  178.1400  140.3940 C   0  0  2  0  0  3  0  0  0  0  0  0
  192.8560  176.2770  138.6860 C   0  0  0  0  0  2  0  0  0  0  0  0
  186.7920  176.9450  136.6580 O   0  0  0  0  0  0  0  0  0  0  0  0
  187.0000  179.2200  136.2920 F   0  0  0  0  0  0  0  0  0  0  0  0
  190.4700  177.0920  138.4730 C   0  0  0  0  0  0  0  0  0  0  0  0
  187.8360  176.7230  135.7480 C   0  0  0  0  0  2  0  0  0  0  0  0
  188.2960  178.2570  138.0790 C   0  0  2  0  0  3  0  0  0  0  0  0
  190.4760  177.5090  139.7600 C   0  0  0  0  0  0  0  0  0  0  0  0
  192.9950  177.3640  139.7390 C   0  0  0  0  0  2  0  0  0  0  0  0
  191.7310  177.3850  140.5940 C   0  0  0  0  0  2  0  0  0  0  0  0
  189.1130  176.3850  136.5030 C   0  0  0  0  0  2  0  0  0  0  0  0
  189.3020  177.2700  137.6550 N   0  0  0  0  0  0  0  0  0  0  0  0
  189.0180  177.6430  141.8340 C   0  0  2  0  0  3  0  0  0  0  0  0
  187.7030  177.1920  142.1120 O   0  0  0  0  0  0  0  0  0  0  0  0
  186.8700  177.0850  144.3580 C   0  0  0  0  0  1  0  0  0  0  0  0
  187.1460  177.9610  143.1490 C   0  0  2  0  0  3  0  0  0  0  0  0
  185.9310  179.4460  141.7880 O   0  0  0  0  0  0  0  0  0  0  0  0
  185.8820  178.6190  142.6840 C   0  0  0  0  0  0  0  0  0  0  0  0
  184.5680  178.3010  143.3320 C   0  0  0  0  0  2  0  0  0  0  0  0
  183.7860  179.1370  145.4260 O   0  0  0  0  0  1  0  0  0  0  0  0
  184.0330  179.4970  144.1020 C   0  0  0  0  0  2  0  0  0  0  0  0
  189.6290  178.5430  142.9120 C   0  0  0  0  0  2  0  0  0  0  0  0
  190.5140  177.7360  143.8500 C   0  0  0  0  0  2  0  0  0  0  0  0
  190.1870  178.0120  145.2090 O   0  0  0  0  0  0  0  0  0  0  0  0
  189.4080  176.7710  146.9980 O   0  0  0  0  0  0  0  0  0  0  0  0
  190.3580  177.0710  146.2260 C   0  0  0  0  0  0  0  0  0  0  0  0
  191.6770  176.4090  146.3950 C   0  0  0  0  0  1  0  0  0  0  0  0
  1  4  1  0  0  0  0
  2  7  1  6  0  0  0
  2 10  1  0  0  0  0
  3  8  1  0  0  0  0
  3  5  1  0  0  0  0
  4 16  1  1  0  0  0
  5 12  1  0  0  0  0
  6  2  1  0  0  0  0
  8 11  2  0  0  0  0
  9 14  1  0  0  0  0
  9  6  1  0  0  0  0
 10  1  1  1  0  0  0
 11  4  1  0  0  0  0
 11 13  1  0  0  0  0
 12 13  1  0  0  0  0
 14 15  1  0  0  0  0
 15 10  1  0  0  0  0
 15  8  1  0  0  0  0
 16 17  1  0  0  0  0
 16 25  1  1  0  0  0
 17 19  1  0  0  0  0
 19 18  1  1  0  0  0
 20 21  2  0  0  0  0
 21 19  1  0  0  0  0
 21 22  1  0  0  0  0
 22 24  1  0  0  0  0
 24 23  1  0  0  0  0
 25 26  1  0  0  0  0
 26 27  1  0  0  0  0
 27 29  1  0  0  0  0
 29 30  1  0  0  0  0
 29 28  2  0  0  0  0
M  END
>  <MODEL>
4

>  <REMARK>
 VINA RESULT:      -7.0      3.187      6.371
  Name = 
  10 active torsions:
  status: ('A' for Active; 'I' for Inactive)
    1  A    between atoms: C_4  and  C_27
    2  A    between atoms: C_5  and  C_12
    3  A    between atoms: C_5  and  C_21
    4  A    between atoms: O_7  and  C_15
    5  A    between atoms: O_7  and  C_16
    6  A    between atoms: C_8  and  C_12
    7  A    between atoms: C_8  and  O_13
    8  A    between atoms: O_13  and  C_27
    9  A    between atoms: C_16  and  C_30
   10  A    between atoms: C_27  and  C_30
                            x       y       z     vdW  Elec       q    Type
                         _______ _______ _______ _____ _____    ______ ____

>  <TORSDO>
F 10

$$$$
=
 OpenBabel11052412313D

 30 32  0  0  1  0  0  0  0  0999 V2000
  188.0720  177.9000  140.0610 C   0  0  0  0  0  2  0  0  0  0  0  0
  186.8490  177.9100  137.8800 C   0  0  2  0  0  3  0  0  0  0  0  0
  191.5920  176.3930  138.0870 N   0  0  0  0  0  2  0  0  0  0  0  0
  189.4290  178.0910  140.7520 C   0  0  2  0  0  3  0  0  0  0  0  0
  192.8830  176.2280  138.7470 C   0  0  0  0  0  2  0  0  0  0  0  0
  186.6090  176.6080  137.3970 O   0  0  0  0  0  0  0  0  0  0  0  0
  186.6970  178.8610  136.8820 F   0  0  0  0  0  0  0  0  0  0  0  0
  190.4610  176.9640  138.7660 C   0  0  0  0  0  0  0  0  0  0  0  0
  187.5490  176.3600  136.3870 C   0  0  0  0  0  2  0  0  0  0  0  0
  188.2190  178.0420  138.5590 C   0  0  2  0  0  3  0  0  0  0  0  0
  190.6000  177.4570  140.0180 C   0  0  0  0  0  0  0  0  0  0  0  0
  193.1040  177.3800  139.7150 C   0  0  0  0  0  2  0  0  0  0  0  0
  191.9440  177.4180  140.7060 C   0  0  0  0  0  2  0  0  0  0  0  0
  188.9140  176.1030  137.0080 C   0  0  0  0  0  2  0  0  0  0  0  0
  189.2030  177.0610  138.0790 N   0  0  0  0  0  0  0  0  0  0  0  0
  189.3820  177.6750  142.2340 C   0  0  2  0  0  3  0  0  0  0  0  0
  190.6140  177.2220  142.7720 O   0  0  0  0  0  0  0  0  0  0  0  0
  191.5980  178.9710  144.0830 C   0  0  0  0  0  1  0  0  0  0  0  0
  190.7650  177.7010  144.0840 C   0  0  2  0  0  3  0  0  0  0  0  0
  191.9640  175.7070  144.4220 O   0  0  0  0  0  0  0  0  0  0  0  0
  191.4080  176.6580  144.9460 C   0  0  0  0  0  0  0  0  0  0  0  0
  191.3440  176.7500  146.4410 C   0  0  0  0  0  2  0  0  0  0  0  0
  192.9060  176.1480  148.1420 O   0  0  0  0  0  1  0  0  0  0  0  0
  192.1430  175.6350  147.0930 C   0  0  0  0  0  2  0  0  0  0  0  0
  188.1680  176.8190  142.6070 C   0  0  0  0  0  2  0  0  0  0  0  0
  187.1520  177.6360  143.3910 C   0  0  0  0  0  2  0  0  0  0  0  0
  186.8570  177.0090  144.6350 O   0  0  0  0  0  0  0  0  0  0  0  0
  187.9250  177.7980  146.5280 O   0  0  0  0  0  0  0  0  0  0  0  0
  186.8690  177.7040  145.8450 C   0  0  0  0  0  0  0  0  0  0  0  0
  185.6220  178.3470  146.3320 C   0  0  0  0  0  1  0  0  0  0  0  0
  1  4  1  0  0  0  0
  2  7  1  6  0  0  0
  2 10  1  0  0  0  0
  3  5  1  0  0  0  0
  3  8  1  0  0  0  0
  4 16  1  1  0  0  0
  5 12  1  0  0  0  0
  6  2  1  0  0  0  0
  8 11  2  0  0  0  0
  9 14  1  0  0  0  0
  9  6  1  0  0  0  0
 10  1  1  1  0  0  0
 11 13  1  0  0  0  0
 11  4  1  0  0  0  0
 12 13  1  0  0  0  0
 14 15  1  0  0  0  0
 15 10  1  0  0  0  0
 15  8  1  0  0  0  0
 16 25  1  6  0  0  0
 16 17  1  0  0  0  0
 17 19  1  0  0  0  0
 19 18  1  6  0  0  0
 19 21  1  0  0  0  0
 20 21  2  0  0  0  0
 21 22  1  0  0  0  0
 22 24  1  0  0  0  0
 24 23  1  0  0  0  0
 25 26  1  0  0  0  0
 26 27  1  0  0  0  0
 27 29  1  0  0  0  0
 29 30  1  0  0  0  0
 29 28  2  0  0  0  0
M  END
>  <MODEL>
5

>  <REMARK>
 VINA RESULT:      -7.0      3.084      6.662
  Name = 
  10 active torsions:
  status: ('A' for Active; 'I' for Inactive)
    1  A    between atoms: C_4  and  C_27
    2  A    between atoms: C_5  and  C_12
    3  A    between atoms: C_5  and  C_21
    4  A    between atoms: O_7  and  C_15
    5  A    between atoms: O_7  and  C_16
    6  A    between atoms: C_8  and  C_12
    7  A    between atoms: C_8  and  O_13
    8  A    between atoms: O_13  and  C_27
    9  A    between atoms: C_16  and  C_30
   10  A    between atoms: C_27  and  C_30
                            x       y       z     vdW  Elec       q    Type
                         _______ _______ _______ _____ _____    ______ ____

>  <TORSDO>
F 10

$$$$
=
 OpenBabel11052412313D

 30 32  0  0  1  0  0  0  0  0999 V2000
  187.4800  178.1870  140.7820 C   0  0  0  0  0  2  0  0  0  0  0  0
  188.3660  178.2500  138.4440 C   0  0  2  0  0  3  0  0  0  0  0  0
  191.3530  176.9690  142.2240 N   0  0  0  0  0  2  0  0  0  0  0  0
  187.8060  178.4100  142.2650 C   0  0  2  0  0  3  0  0  0  0  0  0
  191.6860  176.8370  143.6380 C   0  0  0  0  0  2  0  0  0  0  0  0
  188.6780  176.9650  137.9580 O   0  0  0  0  0  0  0  0  0  0  0  0
  188.9620  179.2440  137.6830 F   0  0  0  0  0  0  0  0  0  0  0  0
  190.0690  177.4450  141.7890 C   0  0  0  0  0  0  0  0  0  0  0  0
  190.0710  176.8200  138.0320 C   0  0  0  0  0  2  0  0  0  0  0  0
  188.7130  178.4160  139.9300 C   0  0  2  0  0  3  0  0  0  0  0  0
  189.1630  177.8770  142.6950 C   0  0  0  0  0  0  0  0  0  0  0  0
  191.0020  177.9450  144.4220 C   0  0  0  0  0  2  0  0  0  0  0  0
  189.4990  177.8700  144.1690 C   0  0  0  0  0  2  0  0  0  0  0  0
  190.4880  176.6000  139.4790 C   0  0  0  0  0  2  0  0  0  0  0  0
  189.7820  177.5130  140.3820 N   0  0  0  0  0  0  0  0  0  0  0  0
  186.6720  177.9140  143.1830 C   0  0  2  0  0  3  0  0  0  0  0  0
  185.6440  178.8580  143.4330 O   0  0  0  0  0  0  0  0  0  0  0  0
  184.0020  178.3790  141.7540 C   0  0  0  0  0  1  0  0  0  0  0  0
  184.3890  178.2630  143.2180 C   0  0  2  0  0  3  0  0  0  0  0  0
  183.5630  179.0380  145.2790 O   0  0  0  0  0  0  0  0  0  0  0  0
  183.3530  178.9130  144.0830 C   0  0  0  0  0  0  0  0  0  0  0  0
  182.0490  179.3750  143.5050 C   0  0  0  0  0  2  0  0  0  0  0  0
  179.7110  179.2210  143.9570 O   0  0  0  0  0  1  0  0  0  0  0  0
  180.9010  178.4950  143.9690 C   0  0  0  0  0  2  0  0  0  0  0  0
  187.1550  177.1500  144.4190 C   0  0  0  0  0  2  0  0  0  0  0  0
  186.8270  177.9190  145.6910 C   0  0  0  0  0  2  0  0  0  0  0  0
  187.0970  177.1240  146.8410 O   0  0  0  0  0  0  0  0  0  0  0  0
  189.2440  176.4000  147.3030 O   0  0  0  0  0  0  0  0  0  0  0  0
  188.3020  177.2040  147.5400 C   0  0  0  0  0  0  0  0  0  0  0  0
  188.4800  178.2560  148.5730 C   0  0  0  0  0  1  0  0  0  0  0  0
  1  4  1  0  0  0  0
  2  7  1  6  0  0  0
  2 10  1  0  0  0  0
  3  5  1  0  0  0  0
  4 11  1  0  0  0  0
  4 16  1  1  0  0  0
  5 12  1  0  0  0  0
  6  9  1  0  0  0  0
  6  2  1  0  0  0  0
  8  3  1  0  0  0  0
  8 11  2  0  0  0  0
  9 14  1  0  0  0  0
 10 15  1  0  0  0  0
 10  1  1  1  0  0  0
 11 13  1  0  0  0  0
 13 12  1  0  0  0  0
 14 15  1  0  0  0  0
 15  8  1  0  0  0  0
 16 17  1  0  0  0  0
 16 25  1  1  0  0  0
 19 18  1  6  0  0  0
 19 17  1  0  0  0  0
 19 21  1  0  0  0  0
 21 20  2  0  0  0  0
 22 24  1  0  0  0  0
 22 21  1  0  0  0  0
 23 24  1  0  0  0  0
 25 26  1  0  0  0  0
 26 27  1  0  0  0  0
 27 29  1  0  0  0  0
 28 29  2  0  0  0  0
 29 30  1  0  0  0  0
M  END
>  <MODEL>
6

>  <REMARK>
 VINA RESULT:      -7.0      2.855      6.224
  Name = 
  10 active torsions:
  status: ('A' for Active; 'I' for Inactive)
    1  A    between atoms: C_4  and  C_27
    2  A    between atoms: C_5  and  C_12
    3  A    between atoms: C_5  and  C_21
    4  A    between atoms: O_7  and  C_15
    5  A    between atoms: O_7  and  C_16
    6  A    between atoms: C_8  and  C_12
    7  A    between atoms: C_8  and  O_13
    8  A    between atoms: O_13  and  C_27
    9  A    between atoms: C_16  and  C_30
   10  A    between atoms: C_27  and  C_30
                            x       y       z     vdW  Elec       q    Type
                         _______ _______ _______ _____ _____    ______ ____

>  <TORSDO>
F 10

$$$$
=
 OpenBabel11052412313D

 30 32  0  0  1  0  0  0  0  0999 V2000
  187.6170  178.0380  142.0660 C   0  0  0  0  0  2  0  0  0  0  0  0
  185.4060  178.8790  142.8800 C   0  0  2  0  0  3  0  0  0  0  0  0
  186.3400  178.6050  137.9910 N   0  0  0  0  0  2  0  0  0  0  0  0
  188.6930  178.1540  140.9780 C   0  0  2  0  0  3  0  0  0  0  0  0
  187.2140  178.4280  136.8360 C   0  0  0  0  0  2  0  0  0  0  0  0
  184.3540  177.9920  142.5770 O   0  0  0  0  0  0  0  0  0  0  0  0
  184.9330  180.1420  143.2030 F   0  0  0  0  0  0  0  0  0  0  0  0
  186.8260  178.4720  139.3370 C   0  0  0  0  0  0  0  0  0  0  0  0
  183.6720  178.5190  141.4710 C   0  0  0  0  0  2  0  0  0  0  0  0
  186.4510  178.9570  141.7580 C   0  0  2  0  0  3  0  0  0  0  0  0
  188.1440  178.2730  139.5650 C   0  0  0  0  0  0  0  0  0  0  0  0
  188.6060  178.9390  137.1760 C   0  0  0  0  0  2  0  0  0  0  0  0
  189.1140  178.1970  138.4090 C   0  0  0  0  0  2  0  0  0  0  0  0
  184.4950  178.3010  140.2090 C   0  0  0  0  0  2  0  0  0  0  0  0
  185.9090  178.6140  140.4340 N   0  0  0  0  0  0  0  0  0  0  0  0
  189.7520  177.0420  141.0960 C   0  0  2  0  0  3  0  0  0  0  0  0
  189.7990  176.3880  142.3540 O   0  0  0  0  0  0  0  0  0  0  0  0
  191.6270  175.6400  143.7130 C   0  0  0  0  0  1  0  0  0  0  0  0
  190.9240  176.8250  143.0750 C   0  0  2  0  0  3  0  0  0  0  0  0
  190.5790  179.0080  143.8790 O   0  0  0  0  0  0  0  0  0  0  0  0
  190.5150  177.8140  144.1230 C   0  0  0  0  0  0  0  0  0  0  0  0
  190.0650  177.3560  145.4780 C   0  0  0  0  0  2  0  0  0  0  0  0
  188.1910  177.2570  146.9520 O   0  0  0  0  0  1  0  0  0  0  0  0
  188.5580  177.4780  145.6250 C   0  0  0  0  0  2  0  0  0  0  0  0
  191.1190  177.4130  140.5150 C   0  0  0  0  0  2  0  0  0  0  0  0
  191.5670  176.3830  139.4890 C   0  0  0  0  0  2  0  0  0  0  0  0
  192.7010  176.8540  138.7680 O   0  0  0  0  0  0  0  0  0  0  0  0
  194.2350  176.1960  137.1680 O   0  0  0  0  0  0  0  0  0  0  0  0
  193.0330  176.3770  137.4990 C   0  0  0  0  0  0  0  0  0  0  0  0
  191.9520  176.0710  136.5270 C   0  0  0  0  0  1  0  0  0  0  0  0
  2  7  1  6  0  0  0
  3  8  1  0  0  0  0
  4 16  1  6  0  0  0
  4  1  1  0  0  0  0
  5 12  1  0  0  0  0
  5  3  1  0  0  0  0
  6  2  1  0  0  0  0
  8 11  2  0  0  0  0
  8 15  1  0  0  0  0
  9  6  1  0  0  0  0
 10  1  1  1  0  0  0
 10  2  1  0  0  0  0
 11  4  1  0  0  0  0
 12 13  1  0  0  0  0
 13 11  1  0  0  0  0
 14 15  1  0  0  0  0
 14  9  1  0  0  0  0
 15 10  1  0  0  0  0
 16 25  1  1  0  0  0
 16 17  1  0  0  0  0
 17 19  1  0  0  0  0
 19 18  1  1  0  0  0
 19 21  1  0  0  0  0
 20 21  2  0  0  0  0
 21 22  1  0  0  0  0
 22 24  1  0  0  0  0
 24 23  1  0  0  0  0
 26 25  1  0  0  0  0
 27 26  1  0  0  0  0
 28 29  2  0  0  0  0
 29 27  1  0  0  0  0
 30 29  1  0  0  0  0
M  END
>  <MODEL>
7

>  <REMARK>
 VINA RESULT:      -6.9      2.581      6.384
  Name = 
  10 active torsions:
  status: ('A' for Active; 'I' for Inactive)
    1  A    between atoms: C_4  and  C_27
    2  A    between atoms: C_5  and  C_12
    3  A    between atoms: C_5  and  C_21
    4  A    between atoms: O_7  and  C_15
    5  A    between atoms: O_7  and  C_16
    6  A    between atoms: C_8  and  C_12
    7  A    between atoms: C_8  and  O_13
    8  A    between atoms: O_13  and  C_27
    9  A    between atoms: C_16  and  C_30
   10  A    between atoms: C_27  and  C_30
                            x       y       z     vdW  Elec       q    Type
                         _______ _______ _______ _____ _____    ______ ____

>  <TORSDO>
F 10

$$$$
=
 OpenBabel11052412313D

 30 32  0  0  1  0  0  0  0  0999 V2000
  187.4240  177.9700  144.3310 C   0  0  0  0  0  2  0  0  0  0  0  0
  185.6400  178.2750  146.0570 C   0  0  2  0  0  3  0  0  0  0  0  0
  190.2970  177.1560  147.4350 N   0  0  0  0  0  2  0  0  0  0  0  0
  188.7040  177.2130  143.9540 C   0  0  2  0  0  3  0  0  0  0  0  0
  191.6680  176.7280  147.1780 C   0  0  0  0  0  2  0  0  0  0  0  0
  185.8450  179.4300  146.8370 O   0  0  0  0  0  0  0  0  0  0  0  0
  184.7440  177.4040  146.6580 F   0  0  0  0  0  0  0  0  0  0  0  0
  189.3520  177.3510  146.3710 C   0  0  0  0  0  0  0  0  0  0  0  0
  186.3740  179.0120  148.0670 C   0  0  0  0  0  2  0  0  0  0  0  0
  186.9520  177.5580  145.7110 C   0  0  2  0  0  3  0  0  0  0  0  0
  189.6910  177.0430  145.0980 C   0  0  0  0  0  0  0  0  0  0  0  0
  191.6850  175.7800  145.9900 C   0  0  0  0  0  2  0  0  0  0  0  0
  191.0610  176.4860  144.7890 C   0  0  0  0  0  2  0  0  0  0  0  0
  187.8330  178.6190  147.8910 C   0  0  0  0  0  2  0  0  0  0  0  0
  188.0270  177.8150  146.6810 N   0  0  0  0  0  0  0  0  0  0  0  0
  189.3720  177.8030  142.6970 C   0  0  2  0  0  3  0  0  0  0  0  0
  188.6050  178.7780  142.0110 O   0  0  0  0  0  0  0  0  0  0  0  0
  188.7140  178.5740  139.6250 C   0  0  0  0  0  1  0  0  0  0  0  0
  187.9780  178.1930  140.8970 C   0  0  2  0  0  3  0  0  0  0  0  0
  186.0070  178.7270  139.7300 O   0  0  0  0  0  0  0  0  0  0  0  0
  186.5460  178.6290  140.8200 C   0  0  0  0  0  0  0  0  0  0  0  0
  185.7830  178.9810  142.0610 C   0  0  0  0  0  2  0  0  0  0  0  0
  183.6010  178.8820  143.0230 O   0  0  0  0  0  1  0  0  0  0  0  0
  184.4480  178.2590  142.1070 C   0  0  0  0  0  2  0  0  0  0  0  0
  190.0390  176.7610  141.7940 C   0  0  0  0  0  2  0  0  0  0  0  0
  191.4460  177.1990  141.4150 C   0  0  0  0  0  2  0  0  0  0  0  0
  191.6160  177.1670  140.0010 O   0  0  0  0  0  0  0  0  0  0  0  0
  193.9280  177.1270  140.0180 O   0  0  0  0  0  0  0  0  0  0  0  0
  192.8500  176.9110  139.4010 C   0  0  0  0  0  0  0  0  0  0  0  0
  192.8930  176.3690  138.0190 C   0  0  0  0  0  1  0  0  0  0  0  0
  2  7  1  1  0  0  0
  2  6  1  0  0  0  0
  4 16  1  6  0  0  0
  4  1  1  0  0  0  0
  4 11  1  0  0  0  0
  5  3  1  0  0  0  0
  6  9  1  0  0  0  0
  8 15  1  0  0  0  0
  8  3  1  0  0  0  0
 10  1  1  6  0  0  0
 10  2  1  0  0  0  0
 10 15  1  0  0  0  0
 11  8  2  0  0  0  0
 12  5  1  0  0  0  0
 13 11  1  0  0  0  0
 13 12  1  0  0  0  0
 14  9  1  0  0  0  0
 15 14  1  0  0  0  0
 16 25  1  6  0  0  0
 17 16  1  0  0  0  0
 19 18  1  6  0  0  0
 19 17  1  0  0  0  0
 20 21  2  0  0  0  0
 21 19  1  0  0  0  0
 21 22  1  0  0  0  0
 22 24  1  0  0  0  0
 24 23  1  0  0  0  0
 26 25  1  0  0  0  0
 27 26  1  0  0  0  0
 29 27  1  0  0  0  0
 29 28  2  0  0  0  0
 30 29  1  0  0  0  0
M  END
>  <MODEL>
8

>  <REMARK>
 VINA RESULT:      -6.9      2.342      4.799
  Name = 
  10 active torsions:
  status: ('A' for Active; 'I' for Inactive)
    1  A    between atoms: C_4  and  C_27
    2  A    between atoms: C_5  and  C_12
    3  A    between atoms: C_5  and  C_21
    4  A    between atoms: O_7  and  C_15
    5  A    between atoms: O_7  and  C_16
    6  A    between atoms: C_8  and  C_12
    7  A    between atoms: C_8  and  O_13
    8  A    between atoms: O_13  and  C_27
    9  A    between atoms: C_16  and  C_30
   10  A    between atoms: C_27  and  C_30
                            x       y       z     vdW  Elec       q    Type
                         _______ _______ _______ _____ _____    ______ ____

>  <TORSDO>
F 10

$$$$
=
 OpenBabel11052412313D

 30 32  0  0  1  0  0  0  0  0999 V2000
  190.1310  177.6590  141.2210 C   0  0  0  0  0  2  0  0  0  0  0  0
  191.4710  177.6150  143.3320 C   0  0  2  0  0  3  0  0  0  0  0  0
  186.5060  178.0130  143.5210 N   0  0  0  0  0  2  0  0  0  0  0  0
  188.8820  178.2180  140.5260 C   0  0  2  0  0  3  0  0  0  0  0  0
  185.1900  178.2310  142.9310 C   0  0  0  0  0  2  0  0  0  0  0  0
  191.2560  176.4380  144.0750 O   0  0  0  0  0  0  0  0  0  0  0  0
  192.0570  178.6070  144.1040 F   0  0  0  0  0  0  0  0  0  0  0  0
  187.6980  177.9690  142.7210 C   0  0  0  0  0  0  0  0  0  0  0  0
  190.3910  176.7640  145.1290 C   0  0  0  0  0  2  0  0  0  0  0  0
  190.1900  178.1290  142.6610 C   0  0  2  0  0  3  0  0  0  0  0  0
  187.6350  178.2300  141.3950 C   0  0  0  0  0  0  0  0  0  0  0  0
  185.3210  179.1740  141.7450 C   0  0  0  0  0  2  0  0  0  0  0  0
  186.3130  178.5770  140.7500 C   0  0  0  0  0  2  0  0  0  0  0  0
  188.9750  176.9340  144.5980 C   0  0  0  0  0  2  0  0  0  0  0  0
  188.9620  177.7070  143.3520 N   0  0  0  0  0  0  0  0  0  0  0  0
  188.6320  177.5420  139.1640 C   0  0  2  0  0  3  0  0  0  0  0  0
  189.1330  176.2200  139.0480 O   0  0  0  0  0  0  0  0  0  0  0  0
  188.8840  175.0830  136.9520 C   0  0  0  0  0  1  0  0  0  0  0  0
  189.7170  176.0430  137.7820 C   0  0  2  0  0  3  0  0  0  0  0  0
  191.3170  174.3240  137.9060 O   0  0  0  0  0  0  0  0  0  0  0  0
  191.1170  175.5280  137.9250 C   0  0  0  0  0  0  0  0  0  0  0  0
  192.2660  176.4690  138.1280 C   0  0  0  0  0  2  0  0  0  0  0  0
  194.4720  175.5750  138.2960 O   0  0  0  0  0  1  0  0  0  0  0  0
  193.5020  175.9930  137.3850 C   0  0  0  0  0  2  0  0  0  0  0  0
  188.9110  178.4420  137.9570 C   0  0  0  0  0  2  0  0  0  0  0  0
  187.6340  178.7060  137.1740 C   0  0  0  0  0  2  0  0  0  0  0  0
  186.6320  177.7520  137.5140 O   0  0  0  0  0  0  0  0  0  0  0  0
  185.8580  177.1310  135.4250 O   0  0  0  0  0  0  0  0  0  0  0  0
  185.6100  177.3930  136.6330 C   0  0  0  0  0  0  0  0  0  0  0  0
  184.2130  177.3130  137.1290 C   0  0  0  0  0  1  0  0  0  0  0  0
  2  6  1  0  0  0  0
  2  7  1  1  0  0  0
  4 16  1  6  0  0  0
  4  1  1  0  0  0  0
  4 11  1  0  0  0  0
  5  3  1  0  0  0  0
  6  9  1  0  0  0  0
  8 15  1  0  0  0  0
  8  3  1  0  0  0  0
 10  1  1  6  0  0  0
 10  2  1  0  0  0  0
 10 15  1  0  0  0  0
 11  8  2  0  0  0  0
 12  5  1  0  0  0  0
 13 11  1  0  0  0  0
 13 12  1  0  0  0  0
 14  9  1  0  0  0  0
 15 14  1  0  0  0  0
 16 25  1  6  0  0  0
 17 16  1  0  0  0  0
 19 18  1  6  0  0  0
 19 21  1  0  0  0  0
 19 17  1  0  0  0  0
 20 21  2  0  0  0  0
 21 22  1  0  0  0  0
 24 22  1  0  0  0  0
 24 23  1  0  0  0  0
 26 27  1  0  0  0  0
 26 25  1  0  0  0  0
 28 29  2  0  0  0  0
 29 30  1  0  0  0  0
 29 27  1  0  0  0  0
M  END
>  <MODEL>
9

>  <REMARK>
 VINA RESULT:      -6.8      2.965      6.910
  Name = 
  10 active torsions:
  status: ('A' for Active; 'I' for Inactive)
    1  A    between atoms: C_4  and  C_27
    2  A    between atoms: C_5  and  C_12
    3  A    between atoms: C_5  and  C_21
    4  A    between atoms: O_7  and  C_15
    5  A    between atoms: O_7  and  C_16
    6  A    between atoms: C_8  and  C_12
    7  A    between atoms: C_8  and  O_13
    8  A    between atoms: O_13  and  C_27
    9  A    between atoms: C_16  and  C_30
   10  A    between atoms: C_27  and  C_30
                            x       y       z     vdW  Elec       q    Type
                         _______ _______ _______ _____ _____    ______ ____

>  <TORSDO>
F 10

$$$$
