=
 OpenBabel11052414523D

 55 59  0  0  1  0  0  0  0  0999 V2000
  183.7200  178.1150  140.3500 C   0  0  2  0  0  3  0  0  0  0  0  0
  184.3360  179.3550  139.7190 C   0  0  0  0  0  2  0  0  0  0  0  0
  183.1350  178.6950  139.0610 C   0  0  1  0  0  0  0  0  0  0  0  0
  181.3440  176.5630  136.7680 C   0  0  0  0  0  0  0  0  0  0  0  0
  184.3740  174.2640  137.0370 C   0  0  1  0  0  3  0  0  0  0  0  0
  184.5470  175.4940  136.3830 O   0  0  0  0  0  0  0  0  0  0  0  0
  183.3460  177.8160  137.8660 C   0  0  0  0  0  0  0  0  0  0  0  0
  180.5090  173.7590  137.3890 C   0  0  0  0  0  1  0  0  0  0  0  0
  182.3290  177.2150  137.3090 C   0  0  0  0  0  0  0  0  0  0  0  0
  184.6980  177.7280  137.2300 C   0  0  0  0  0  2  0  0  0  0  0  0
  180.6750  175.3260  134.8490 O   0  0  0  0  0  1  0  0  0  0  0  0
  181.7770  174.0600  136.6030 C   0  0  1  0  0  0  0  0  0  0  0  0
  180.0350  176.9050  137.0810 O   0  0  0  0  0  1  0  0  0  0  0  0
  182.9520  174.0680  137.5970 C   0  0  0  0  0  2  0  0  0  0  0  0
  185.2660  176.3080  137.2730 C   0  0  2  0  0  3  0  0  0  0  0  0
  181.9510  173.0310  135.6760 O   0  0  0  0  0  1  0  0  0  0  0  0
  181.6400  175.4050  135.8590 C   0  0  2  0  0  3  0  0  0  0  0  0
  187.1810  177.6750  136.7760 O   0  0  0  0  0  1  0  0  0  0  0  0
  186.7440  176.3520  136.8700 C   0  0  1  0  0  3  0  0  0  0  0  0
  187.5190  175.6900  137.8070 F   0  0  0  0  0  0  0  0  0  0  0  0
  186.0970  172.6160  136.6770 O   0  0  0  0  0  1  0  0  0  0  0  0
  184.8760  173.0960  136.1910 C   0  0  0  0  0  2  0  0  0  0  0  0
  182.9180  178.5020  141.5880 C   0  0  0  0  0  2  0  0  0  0  0  0
  183.4100  179.2680  143.8650 C   0  0  0  0  0  2  0  0  0  0  0  0
  183.8270  178.6440  142.7650 C   0  0  0  0  0  0  0  0  0  0  0  0
  185.1460  177.9520  142.7550 C   0  0  0  0  0  2  0  0  0  0  0  0
  186.1470  178.8280  143.1800 O   0  0  0  0  0  0  0  0  0  0  0  0
  187.0880  178.0140  143.8150 C   0  0  2  0  0  3  0  0  0  0  0  0
  187.8240  177.1560  142.7820 C   0  0  0  0  0  2  0  0  0  0  0  0
  189.3400  177.3830  142.7770 C   0  0  2  0  0  3  0  0  0  0  0  0
  190.8720  175.5390  143.9520 O   0  0  0  0  0  1  0  0  0  0  0  0
  191.6540  176.8430  145.6880 C   0  0  2  0  0  3  0  0  0  0  0  0
  191.2500  178.3730  144.0300 C   0  0  0  0  0  2  0  0  0  0  0  0
  190.4890  177.6890  145.1830 C   0  0  1  0  0  0  0  0  0  0  0  0
  190.4650  176.1280  145.1510 C   0  0  1  0  0  3  0  0  0  0  0  0
  189.7800  178.2960  143.9250 C   0  0  2  0  0  3  0  0  0  0  0  0
  191.6290  176.8140  147.2040 C   0  0  2  0  0  3  0  0  0  0  0  0
  192.4410  175.6370  147.7060 C   0  0  0  0  0  1  0  0  0  0  0  0
  190.3280  176.6930  147.6490 F   0  0  0  0  0  0  0  0  0  0  0  0
  190.2730  176.8580  140.5520 C   0  0  1  0  0  3  0  0  0  0  0  0
  191.1760  177.6630  141.2730 O   0  0  0  0  0  0  0  0  0  0  0  0
  189.8080  177.9460  141.4420 C   0  0  2  0  0  3  0  0  0  0  0  0
  190.2240  177.3340  139.1160 C   0  0  0  0  0  2  0  0  0  0  0  0
  191.8820  176.3260  138.0660 C   0  0  0  0  0  1  0  0  0  0  0  0
  190.5050  176.2660  138.2610 O   0  0  0  0  0  0  0  0  0  0  0  0
  186.4280  177.1670  144.9070 C   0  0  0  0  0  2  0  0  0  0  0  0
  186.4220  177.8380  146.2450 C   0  0  0  0  0  0  0  0  0  0  0  0
  185.2600  178.4220  146.7330 O   0  0  0  0  0  0  0  0  0  0  0  0
  187.4850  177.9010  146.9150 O   0  0  0  0  0  1  0  0  0  0  0  0
  181.8880  179.3300  139.2070 O   0  0  0  0  0  0  0  0  0  0  0  0
  182.0050  180.5950  138.6120 C   0  0  0  0  0  2  0  0  0  0  0  0
  180.9320  180.7870  137.5510 C   0  0  1  0  0  0  0  0  0  0  0  0
  181.3130  180.1560  136.3810 F   0  0  0  0  0  0  0  0  0  0  0  0
  179.7220  180.2550  137.9950 O   0  0  0  0  0  1  0  0  0  0  0  0
  180.7590  182.2680  137.2790 C   0  0  0  0  0  1  0  0  0  0  0  0
  1 23  1  1  0  0  0
  2  1  1  0  0  0  0
  3 50  1  1  0  0  0
  3  2  1  0  0  0  0
  3  1  1  0  0  0  0
  4 13  1  0  0  0  0
  4  9  2  0  0  0  0
  5 22  1  6  0  0  0
  5 14  1  0  0  0  0
  6  5  1  0  0  0  0
  6 15  1  0  0  0  0
  7  3  1  0  0  0  0
  9  7  2  0  0  0  0
 10 15  1  0  0  0  0
 10  7  1  0  0  0  0
 12  8  1  1  0  0  0
 12 14  1  0  0  0  0
 15 19  1  6  0  0  0
 16 12  1  0  0  0  0
 17 11  1  6  0  0  0
 17 12  1  0  0  0  0
 17  4  1  0  0  0  0
 19 18  1  1  0  0  0
 19 20  1  0  0  0  0
 22 21  1  0  0  0  0
 23 25  1  0  0  0  0
 25 24  2  0  0  0  0
 26 25  1  0  0  0  0
 26 27  1  0  0  0  0
 27 28  1  0  0  0  0
 28 29  1  6  0  0  0
 28 46  1  0  0  0  0
 30 29  1  6  0  0  0
 32 37  1  1  0  0  0
 34 33  1  6  0  0  0
 34 32  1  0  0  0  0
 35 31  1  6  0  0  0
 35 34  1  0  0  0  0
 35 32  1  0  0  0  0
 36 30  1  6  0  0  0
 36 33  1  0  0  0  0
 36 34  1  0  0  0  0
 37 39  1  0  0  0  0
 37 38  1  6  0  0  0
 40 43  1  6  0  0  0
 40 41  1  0  0  0  0
 40 42  1  0  0  0  0
 41 42  1  0  0  0  0
 42 30  1  1  0  0  0
 44 45  1  0  0  0  0
 45 43  1  0  0  0  0
 46 47  1  0  0  0  0
 47 48  2  0  0  0  0
 47 49  1  0  0  0  0
 51 50  1  0  0  0  0
 52 55  1  6  0  0  0
 52 54  1  0  0  0  0
 52 51  1  0  0  0  0
 53 52  1  0  0  0  0
M  END
>  <MODEL>
1

>  <REMARK>
 VINA RESULT:      -7.0      0.000      0.000
  Name = 
  20 active torsions:
  status: ('A' for Active; 'I' for Inactive)
    1  A    between atoms: C_2  and  C_24
    2  A    between atoms: C_3  and  C_14
    3  A    between atoms: C_4  and  C_37
    4  A    between atoms: C_8  and  C_43
    5  A    between atoms: C_9  and  C_33
    6  A    between atoms: C_9  and  C_49
    7  A    between atoms: C_10  and  C_32
    8  A    between atoms: C_16  and  C_17
    9  A    between atoms: C_17  and  O_23
   10  A    between atoms: C_19  and  C_40
   11  A    between atoms: C_19  and  O_45
   12  A    between atoms: C_20  and  C_46
   13  A    between atoms: C_24  and  C_49
   14  A    between atoms: C_27  and  C_54
   15  A    between atoms: C_33  and  C_36
   16  A    between atoms: C_33  and  C_52
   17  A    between atoms: C_37  and  C_40
   18  A    between atoms: C_43  and  O_51
   19  A    between atoms: O_45  and  C_49
   20  A    between atoms: O_51  and  C_54
                            x       y       z     vdW  Elec       q    Type
                         _______ _______ _______ _____ _____    ______ ____

>  <TORSDO>
F 20

$$$$
=
 OpenBabel11052414523D

 55 59  0  0  1  0  0  0  0  0999 V2000
  184.8140  178.2070  140.6160 C   0  0  2  0  0  3  0  0  0  0  0  0
  184.0850  179.3860  139.9910 C   0  0  0  0  0  2  0  0  0  0  0  0
  183.8000  177.9780  139.4930 C   0  0  1  0  0  0  0  0  0  0  0  0
  183.3310  175.6090  136.8140 C   0  0  0  0  0  0  0  0  0  0  0  0
  187.1070  175.1200  137.0130 C   0  0  1  0  0  3  0  0  0  0  0  0
  186.6350  176.3540  136.5380 O   0  0  0  0  0  0  0  0  0  0  0  0
  184.4270  177.5130  138.2150 C   0  0  0  0  0  0  0  0  0  0  0  0
  184.0270  172.7060  137.0010 C   0  0  0  0  0  1  0  0  0  0  0  0
  183.8520  176.5760  137.5090 C   0  0  0  0  0  0  0  0  0  0  0  0
  185.6370  178.2080  137.6770 C   0  0  0  0  0  2  0  0  0  0  0  0
  183.3790  174.5080  134.7060 O   0  0  0  0  0  1  0  0  0  0  0  0
  184.9690  173.7140  136.3590 C   0  0  1  0  0  0  0  0  0  0  0  0
  182.0280  175.2000  137.0680 O   0  0  0  0  0  1  0  0  0  0  0  0
  185.9790  174.1590  137.4330 C   0  0  0  0  0  2  0  0  0  0  0  0
  186.8450  177.2740  137.5790 C   0  0  2  0  0  3  0  0  0  0  0  0
  185.6390  173.0620  135.3240 O   0  0  0  0  0  1  0  0  0  0  0  0
  184.1710  174.9050  135.7880 C   0  0  2  0  0  3  0  0  0  0  0  0
  187.8270  179.0810  136.3310 O   0  0  0  0  0  1  0  0  0  0  0  0
  188.0990  178.1090  137.2980 C   0  0  1  0  0  3  0  0  0  0  0  0
  188.5280  178.7380  138.4550 F   0  0  0  0  0  0  0  0  0  0  0  0
  189.3870  175.0930  136.2270 O   0  0  0  0  0  1  0  0  0  0  0  0
  188.1310  174.5010  136.0630 C   0  0  0  0  0  2  0  0  0  0  0  0
  184.2410  177.9110  141.9970 C   0  0  0  0  0  2  0  0  0  0  0  0
  184.4650  179.6880  143.6730 C   0  0  0  0  0  2  0  0  0  0  0  0
  185.0110  178.6500  143.0430 C   0  0  0  0  0  0  0  0  0  0  0  0
  186.3340  178.1240  143.4810 C   0  0  0  0  0  2  0  0  0  0  0  0
  186.2050  177.4710  144.7080 O   0  0  0  0  0  0  0  0  0  0  0  0
  187.3560  177.8170  145.4200 C   0  0  2  0  0  3  0  0  0  0  0  0
  188.3710  176.6710  145.3690 C   0  0  0  0  0  2  0  0  0  0  0  0
  189.6920  177.0630  144.6990 C   0  0  2  0  0  3  0  0  0  0  0  0
  190.8620  178.9180  143.1760 O   0  0  0  0  0  1  0  0  0  0  0  0
  191.5430  177.5310  141.4620 C   0  0  2  0  0  3  0  0  0  0  0  0
  191.5160  176.1360  143.2800 C   0  0  0  0  0  2  0  0  0  0  0  0
  190.5460  176.6350  142.1920 C   0  0  1  0  0  0  0  0  0  0  0  0
  190.3660  178.1830  142.0970 C   0  0  1  0  0  3  0  0  0  0  0  0
  190.0720  176.0890  143.5800 C   0  0  2  0  0  3  0  0  0  0  0  0
  191.3200  177.4120  139.9670 C   0  0  2  0  0  3  0  0  0  0  0  0
  190.2470  176.3780  139.6910 C   0  0  0  0  0  1  0  0  0  0  0  0
  192.4920  177.0280  139.3470 F   0  0  0  0  0  0  0  0  0  0  0  0
  190.7400  176.0530  146.6930 C   0  0  1  0  0  3  0  0  0  0  0  0
  190.2690  177.3440  147.0010 O   0  0  0  0  0  0  0  0  0  0  0  0
  190.8180  177.1650  145.7190 C   0  0  2  0  0  3  0  0  0  0  0  0
  192.0970  175.8570  147.3350 C   0  0  0  0  0  2  0  0  0  0  0  0
  193.2590  176.2820  149.1620 C   0  0  0  0  0  1  0  0  0  0  0  0
  192.2900  176.8250  148.3230 O   0  0  0  0  0  0  0  0  0  0  0  0
  187.0080  178.2210  146.8560 C   0  0  0  0  0  2  0  0  0  0  0  0
  185.7130  178.9630  146.9570 C   0  0  0  0  0  0  0  0  0  0  0  0
  184.5090  178.2720  147.0180 O   0  0  0  0  0  1  0  0  0  0  0  0
  185.7140  180.2220  146.9530 O   0  0  0  0  0  0  0  0  0  0  0  0
  182.5910  177.3830  139.8960 O   0  0  0  0  0  0  0  0  0  0  0  0
  181.5610  178.2580  139.5180 C   0  0  0  0  0  2  0  0  0  0  0  0
  180.3950  178.1620  140.4880 C   0  0  1  0  0  0  0  0  0  0  0  0
  179.2780  178.7620  139.9380 F   0  0  0  0  0  0  0  0  0  0  0  0
  180.1160  176.8240  140.7650 O   0  0  0  0  0  1  0  0  0  0  0  0
  180.7570  178.8760  141.7750 C   0  0  0  0  0  1  0  0  0  0  0  0
  1 23  1  1  0  0  0
  2  1  1  0  0  0  0
  3 50  1  1  0  0  0
  3  2  1  0  0  0  0
  3  1  1  0  0  0  0
  4 13  1  0  0  0  0
  4  9  2  0  0  0  0
  5 22  1  6  0  0  0
  5 14  1  0  0  0  0
  6  5  1  0  0  0  0
  6 15  1  0  0  0  0
  7  3  1  0  0  0  0
  9  7  2  0  0  0  0
 10  7  1  0  0  0  0
 12  8  1  1  0  0  0
 12 14  1  0  0  0  0
 15 19  1  6  0  0  0
 15 10  1  0  0  0  0
 16 12  1  0  0  0  0
 17 11  1  6  0  0  0
 17 12  1  0  0  0  0
 17  4  1  0  0  0  0
 19 18  1  6  0  0  0
 19 20  1  0  0  0  0
 22 21  1  0  0  0  0
 23 25  1  0  0  0  0
 25 26  1  0  0  0  0
 25 24  2  0  0  0  0
 26 27  1  0  0  0  0
 27 28  1  0  0  0  0
 28 29  1  1  0  0  0
 28 46  1  0  0  0  0
 30 29  1  1  0  0  0
 32 37  1  6  0  0  0
 32 35  1  0  0  0  0
 32 34  1  0  0  0  0
 33 36  1  0  0  0  0
 34 33  1  1  0  0  0
 34 36  1  0  0  0  0
 35 34  1  0  0  0  0
 35 31  1  1  0  0  0
 36 30  1  1  0  0  0
 37 38  1  1  0  0  0
 39 37  1  0  0  0  0
 40 41  1  0  0  0  0
 40 43  1  1  0  0  0
 42 30  1  6  0  0  0
 42 40  1  0  0  0  0
 42 41  1  0  0  0  0
 43 45  1  0  0  0  0
 45 44  1  0  0  0  0
 46 47  1  0  0  0  0
 47 48  1  0  0  0  0
 49 47  2  0  0  0  0
 51 50  1  0  0  0  0
 51 52  1  0  0  0  0
 52 54  1  0  0  0  0
 52 55  1  1  0  0  0
 53 52  1  0  0  0  0
M  END
>  <MODEL>
2

>  <REMARK>
 VINA RESULT:      -5.9      2.353      4.137
  Name = 
  20 active torsions:
  status: ('A' for Active; 'I' for Inactive)
    1  A    between atoms: C_2  and  C_24
    2  A    between atoms: C_3  and  C_14
    3  A    between atoms: C_4  and  C_37
    4  A    between atoms: C_8  and  C_43
    5  A    between atoms: C_9  and  C_33
    6  A    between atoms: C_9  and  C_49
    7  A    between atoms: C_10  and  C_32
    8  A    between atoms: C_16  and  C_17
    9  A    between atoms: C_17  and  O_23
   10  A    between atoms: C_19  and  C_40
   11  A    between atoms: C_19  and  O_45
   12  A    between atoms: C_20  and  C_46
   13  A    between atoms: C_24  and  C_49
   14  A    between atoms: C_27  and  C_54
   15  A    between atoms: C_33  and  C_36
   16  A    between atoms: C_33  and  C_52
   17  A    between atoms: C_37  and  C_40
   18  A    between atoms: C_43  and  O_51
   19  A    between atoms: O_45  and  C_49
   20  A    between atoms: O_51  and  C_54
                            x       y       z     vdW  Elec       q    Type
                         _______ _______ _______ _____ _____    ______ ____

>  <TORSDO>
F 20

$$$$
=
 OpenBabel11052414523D

 55 59  0  0  1  0  0  0  0  0999 V2000
  183.7570  178.0100  140.0790 C   0  0  2  0  0  3  0  0  0  0  0  0
  183.0220  179.2630  139.6270 C   0  0  0  0  0  2  0  0  0  0  0  0
  182.3370  177.9100  139.5170 C   0  0  1  0  0  0  0  0  0  0  0  0
  180.2550  175.7010  137.5690 C   0  0  0  0  0  0  0  0  0  0  0  0
  183.5340  174.0840  136.4850 C   0  0  1  0  0  3  0  0  0  0  0  0
  183.2680  175.3840  136.0290 O   0  0  0  0  0  0  0  0  0  0  0  0
  182.2740  177.2270  138.1850 C   0  0  0  0  0  0  0  0  0  0  0  0
  180.1580  172.7330  137.9320 C   0  0  0  0  0  1  0  0  0  0  0  0
  181.2430  176.4860  137.8790 C   0  0  0  0  0  0  0  0  0  0  0  0
  183.3240  177.4970  137.1540 C   0  0  0  0  0  2  0  0  0  0  0  0
  179.1910  174.5600  135.7740 O   0  0  0  0  0  1  0  0  0  0  0  0
  181.0160  173.3780  136.8530 C   0  0  1  0  0  0  0  0  0  0  0  0
  179.0920  175.7210  138.3280 O   0  0  0  0  0  1  0  0  0  0  0  0
  182.4400  173.5310  137.4190 C   0  0  0  0  0  2  0  0  0  0  0  0
  184.1010  176.2340  136.7760 C   0  0  2  0  0  3  0  0  0  0  0  0
  181.0340  172.5140  135.7580 O   0  0  0  0  0  1  0  0  0  0  0  0
  180.4130  174.7340  136.4300 C   0  0  2  0  0  3  0  0  0  0  0  0
  184.9850  176.7250  134.5940 O   0  0  0  0  0  1  0  0  0  0  0  0
  185.3260  176.6340  135.9450 C   0  0  1  0  0  3  0  0  0  0  0  0
  185.8150  177.8580  136.3670 F   0  0  0  0  0  0  0  0  0  0  0  0
  184.6610  172.0630  135.8040 O   0  0  0  0  0  1  0  0  0  0  0  0
  183.9060  173.1450  135.3390 C   0  0  0  0  0  2  0  0  0  0  0  0
  183.7940  177.9470  141.6020 C   0  0  0  0  0  2  0  0  0  0  0  0
  185.4320  179.7600  141.8080 C   0  0  0  0  0  2  0  0  0  0  0  0
  185.0800  178.5120  142.1090 C   0  0  0  0  0  0  0  0  0  0  0  0
  185.8920  177.7220  143.0760 C   0  0  0  0  0  2  0  0  0  0  0  0
  186.9810  178.4790  143.5140 O   0  0  0  0  0  0  0  0  0  0  0  0
  187.5330  177.7380  144.5620 C   0  0  2  0  0  3  0  0  0  0  0  0
  188.3620  176.5770  144.0050 C   0  0  0  0  0  2  0  0  0  0  0  0
  189.5680  177.0380  143.1790 C   0  0  2  0  0  3  0  0  0  0  0  0
  189.2940  179.1250  141.5380 O   0  0  0  0  0  1  0  0  0  0  0  0
  189.5850  177.9970  139.5460 C   0  0  2  0  0  3  0  0  0  0  0  0
  190.7980  176.7450  141.0340 C   0  0  0  0  0  2  0  0  0  0  0  0
  189.3510  176.8390  140.5130 C   0  0  1  0  0  0  0  0  0  0  0  0
  188.6530  178.2250  140.6830 C   0  0  1  0  0  3  0  0  0  0  0  0
  189.7260  176.2140  141.8980 C   0  0  2  0  0  3  0  0  0  0  0  0
  188.7940  177.7540  138.2750 C   0  0  2  0  0  3  0  0  0  0  0  0
  188.8070  179.0030  137.4190 C   0  0  0  0  0  1  0  0  0  0  0  0
  187.4890  177.4320  138.5900 F   0  0  0  0  0  0  0  0  0  0  0  0
  190.5690  177.3070  145.4210 C   0  0  1  0  0  3  0  0  0  0  0  0
  191.1030  178.2660  144.5390 O   0  0  0  0  0  0  0  0  0  0  0  0
  190.8490  176.9910  144.0020 C   0  0  2  0  0  3  0  0  0  0  0  0
  191.6830  176.7540  146.2830 C   0  0  0  0  0  2  0  0  0  0  0  0
  189.8240  176.7140  147.4710 C   0  0  0  0  0  1  0  0  0  0  0  0
  191.1960  176.5000  147.5670 O   0  0  0  0  0  0  0  0  0  0  0  0
  186.4420  177.2610  145.5260 C   0  0  0  0  0  2  0  0  0  0  0  0
  186.1490  178.2470  146.6130 C   0  0  0  0  0  0  0  0  0  0  0  0
  185.2700  179.2990  146.3900 O   0  0  0  0  0  0  0  0  0  0  0  0
  186.7310  178.1410  147.7240 O   0  0  0  0  0  1  0  0  0  0  0  0
  181.3420  177.6100  140.4650 O   0  0  0  0  0  0  0  0  0  0  0  0
  180.4000  178.6490  140.4070 C   0  0  0  0  0  2  0  0  0  0  0  0
  179.7730  178.8790  141.7740 C   0  0  1  0  0  0  0  0  0  0  0  0
  178.9390  179.9800  141.7270 F   0  0  0  0  0  0  0  0  0  0  0  0
  179.0410  177.7540  142.1550 O   0  0  0  0  0  1  0  0  0  0  0  0
  180.8700  179.1310  142.7890 C   0  0  0  0  0  1  0  0  0  0  0  0
  1 23  1  1  0  0  0
  2  1  1  0  0  0  0
  3  2  1  0  0  0  0
  3  1  1  0  0  0  0
  3 50  1  1  0  0  0
  4  9  2  0  0  0  0
  4 13  1  0  0  0  0
  5 22  1  6  0  0  0
  5 14  1  0  0  0  0
  6  5  1  0  0  0  0
  6 15  1  0  0  0  0
  7  3  1  0  0  0  0
  9  7  2  0  0  0  0
 10  7  1  0  0  0  0
 12 14  1  0  0  0  0
 12  8  1  1  0  0  0
 15 19  1  6  0  0  0
 15 10  1  0  0  0  0
 16 12  1  0  0  0  0
 17 11  1  1  0  0  0
 17 12  1  0  0  0  0
 17  4  1  0  0  0  0
 19 18  1  6  0  0  0
 19 20  1  0  0  0  0
 22 21  1  0  0  0  0
 23 25  1  0  0  0  0
 24 25  2  0  0  0  0
 25 26  1  0  0  0  0
 26 27  1  0  0  0  0
 27 28  1  0  0  0  0
 28 29  1  6  0  0  0
 28 46  1  0  0  0  0
 30 29  1  1  0  0  0
 32 37  1  6  0  0  0
 32 34  1  0  0  0  0
 32 35  1  0  0  0  0
 33 36  1  0  0  0  0
 34 35  1  0  0  0  0
 34 33  1  1  0  0  0
 34 36  1  0  0  0  0
 35 31  1  1  0  0  0
 36 30  1  1  0  0  0
 37 38  1  6  0  0  0
 37 39  1  0  0  0  0
 40 43  1  1  0  0  0
 41 40  1  0  0  0  0
 42 30  1  6  0  0  0
 42 41  1  0  0  0  0
 42 40  1  0  0  0  0
 43 45  1  0  0  0  0
 44 45  1  0  0  0  0
 46 47  1  0  0  0  0
 47 49  1  0  0  0  0
 48 47  2  0  0  0  0
 51 50  1  0  0  0  0
 51 52  1  0  0  0  0
 52 54  1  0  0  0  0
 52 55  1  1  0  0  0
 53 52  1  0  0  0  0
M  END
>  <MODEL>
3

>  <REMARK>
 VINA RESULT:      -5.6      2.311      4.126
  Name = 
  20 active torsions:
  status: ('A' for Active; 'I' for Inactive)
    1  A    between atoms: C_2  and  C_24
    2  A    between atoms: C_3  and  C_14
    3  A    between atoms: C_4  and  C_37
    4  A    between atoms: C_8  and  C_43
    5  A    between atoms: C_9  and  C_33
    6  A    between atoms: C_9  and  C_49
    7  A    between atoms: C_10  and  C_32
    8  A    between atoms: C_16  and  C_17
    9  A    between atoms: C_17  and  O_23
   10  A    between atoms: C_19  and  C_40
   11  A    between atoms: C_19  and  O_45
   12  A    between atoms: C_20  and  C_46
   13  A    between atoms: C_24  and  C_49
   14  A    between atoms: C_27  and  C_54
   15  A    between atoms: C_33  and  C_36
   16  A    between atoms: C_33  and  C_52
   17  A    between atoms: C_37  and  C_40
   18  A    between atoms: C_43  and  O_51
   19  A    between atoms: O_45  and  C_49
   20  A    between atoms: O_51  and  C_54
                            x       y       z     vdW  Elec       q    Type
                         _______ _______ _______ _____ _____    ______ ____

>  <TORSDO>
F 20

$$$$
=
 OpenBabel11052414523D

 55 59  0  0  1  0  0  0  0  0999 V2000
  183.7050  178.8130  140.4020 C   0  0  2  0  0  3  0  0  0  0  0  0
  183.4460  177.4870  141.1020 C   0  0  0  0  0  2  0  0  0  0  0  0
  183.5510  178.7620  141.9240 C   0  0  1  0  0  0  0  0  0  0  0  0
  187.1310  178.7740  141.4810 C   0  0  0  0  0  0  0  0  0  0  0  0
  187.2540  177.3640  145.0220 C   0  0  1  0  0  3  0  0  0  0  0  0
  186.8310  178.6940  144.8650 O   0  0  0  0  0  0  0  0  0  0  0  0
  184.8240  179.0560  142.6580 C   0  0  0  0  0  0  0  0  0  0  0  0
  188.8430  176.3240  141.6010 C   0  0  0  0  0  1  0  0  0  0  0  0
  185.9720  178.9360  142.0470 C   0  0  0  0  0  0  0  0  0  0  0  0
  184.7770  179.6130  144.0460 C   0  0  0  0  0  2  0  0  0  0  0  0
  189.4530  179.2500  141.6750 O   0  0  0  0  0  1  0  0  0  0  0  0
  188.6790  177.2440  142.8020 C   0  0  1  0  0  0  0  0  0  0  0  0
  187.2120  178.6290  140.1020 O   0  0  0  0  0  1  0  0  0  0  0  0
  187.5600  176.6630  143.6850 C   0  0  0  0  0  2  0  0  0  0  0  0
  185.4400  178.6830  145.0640 C   0  0  2  0  0  3  0  0  0  0  0  0
  189.8850  177.2370  143.5040 O   0  0  0  0  0  1  0  0  0  0  0  0
  188.3610  178.6800  142.3370 C   0  0  2  0  0  3  0  0  0  0  0  0
  184.5040  178.1520  147.2150 O   0  0  0  0  0  1  0  0  0  0  0  0
  185.1060  179.1740  146.4770 C   0  0  1  0  0  3  0  0  0  0  0  0
  186.2580  179.5790  147.1310 F   0  0  0  0  0  0  0  0  0  0  0  0
  187.8460  176.9580  147.3240 O   0  0  0  0  0  1  0  0  0  0  0  0
  188.3690  177.2430  146.0590 C   0  0  0  0  0  2  0  0  0  0  0  0
  182.4390  179.2880  139.6970 C   0  0  0  0  0  2  0  0  0  0  0  0
  180.7060  177.8560  138.7180 C   0  0  0  0  0  2  0  0  0  0  0  0
  181.9760  178.2560  138.7220 C   0  0  0  0  0  0  0  0  0  0  0  0
  182.9070  177.7890  137.6580 C   0  0  0  0  0  2  0  0  0  0  0  0
  182.1830  177.3840  136.5340 O   0  0  0  0  0  0  0  0  0  0  0  0
  182.7710  176.1770  136.1460 C   0  0  2  0  0  3  0  0  0  0  0  0
  184.2240  176.4110  135.7240 C   0  0  0  0  0  2  0  0  0  0  0  0
  185.1950  175.3730  136.3000 C   0  0  2  0  0  3  0  0  0  0  0  0
  185.7130  173.1970  134.8420 O   0  0  0  0  0  1  0  0  0  0  0  0
  184.7400  171.6440  136.2440 C   0  0  2  0  0  3  0  0  0  0  0  0
  185.3820  173.3100  137.6810 C   0  0  0  0  0  2  0  0  0  0  0  0
  184.1700  172.9450  136.8010 C   0  0  1  0  0  0  0  0  0  0  0  0
  184.4670  172.7450  135.2810 C   0  0  1  0  0  3  0  0  0  0  0  0
  184.4910  174.4080  137.2580 C   0  0  2  0  0  3  0  0  0  0  0  0
  183.6350  170.6080  136.1660 C   0  0  2  0  0  3  0  0  0  0  0  0
  183.4060  170.2120  134.7220 C   0  0  0  0  0  1  0  0  0  0  0  0
  182.4680  171.1290  136.6860 F   0  0  0  0  0  0  0  0  0  0  0  0
  187.4030  176.4390  136.0060 C   0  0  1  0  0  3  0  0  0  0  0  0
  187.5320  175.2760  136.7910 O   0  0  0  0  0  0  0  0  0  0  0  0
  186.3720  176.0460  136.9930 C   0  0  2  0  0  3  0  0  0  0  0  0
  188.2670  177.5320  136.5980 C   0  0  0  0  0  2  0  0  0  0  0  0
  190.1250  177.1950  137.7400 C   0  0  0  0  0  1  0  0  0  0  0  0
  189.6140  177.1950  136.4450 O   0  0  0  0  0  0  0  0  0  0  0  0
  181.9490  175.5000  135.0460 C   0  0  0  0  0  2  0  0  0  0  0  0
  180.7520  174.7720  135.5720 C   0  0  0  0  0  0  0  0  0  0  0  0
  180.7180  173.3840  135.5720 O   0  0  0  0  0  0  0  0  0  0  0  0
  179.7570  175.4240  135.9850 O   0  0  0  0  0  1  0  0  0  0  0  0
  182.3550  179.3130  142.4190 O   0  0  0  0  0  0  0  0  0  0  0  0
  181.7250  178.3070  143.1680 C   0  0  0  0  0  2  0  0  0  0  0  0
  180.2210  178.3420  142.9490 C   0  0  1  0  0  0  0  0  0  0  0  0
  179.8650  177.4030  141.9990 F   0  0  0  0  0  0  0  0  0  0  0  0
  179.5600  178.0680  144.1460 O   0  0  0  0  0  1  0  0  0  0  0  0
  179.8200  179.7190  142.4580 C   0  0  0  0  0  1  0  0  0  0  0  0
  1 23  1  6  0  0  0
  1  2  1  0  0  0  0
  1  3  1  0  0  0  0
  2  3  1  0  0  0  0
  3 50  1  1  0  0  0
  3  7  1  0  0  0  0
  4  9  2  0  0  0  0
  4 17  1  0  0  0  0
  5 22  1  1  0  0  0
  6  5  1  0  0  0  0
  6 15  1  0  0  0  0
  7 10  1  0  0  0  0
  9  7  2  0  0  0  0
 10 15  1  0  0  0  0
 12  8  1  6  0  0  0
 12 16  1  0  0  0  0
 12 14  1  0  0  0  0
 13  4  1  0  0  0  0
 14  5  1  0  0  0  0
 15 19  1  1  0  0  0
 17 11  1  6  0  0  0
 17 12  1  0  0  0  0
 19 20  1  1  0  0  0
 19 18  1  0  0  0  0
 22 21  1  0  0  0  0
 24 25  2  0  0  0  0
 25 23  1  0  0  0  0
 26 25  1  0  0  0  0
 27 26  1  0  0  0  0
 28 46  1  6  0  0  0
 28 27  1  0  0  0  0
 29 28  1  0  0  0  0
 30 29  1  1  0  0  0
 32 37  1  6  0  0  0
 32 34  1  0  0  0  0
 34 36  1  0  0  0  0
 34 33  1  6  0  0  0
 35 31  1  1  0  0  0
 35 32  1  0  0  0  0
 35 34  1  0  0  0  0
 36 30  1  6  0  0  0
 36 33  1  0  0  0  0
 37 38  1  6  0  0  0
 37 39  1  0  0  0  0
 40 43  1  1  0  0  0
 40 41  1  0  0  0  0
 40 42  1  0  0  0  0
 41 42  1  0  0  0  0
 42 30  1  6  0  0  0
 45 43  1  0  0  0  0
 45 44  1  0  0  0  0
 46 47  1  0  0  0  0
 47 49  1  0  0  0  0
 48 47  2  0  0  0  0
 50 51  1  0  0  0  0
 52 55  1  6  0  0  0
 52 51  1  0  0  0  0
 52 54  1  0  0  0  0
 53 52  1  0  0  0  0
M  END
>  <MODEL>
4

>  <REMARK>
 VINA RESULT:      -5.3      2.461      9.020
  Name = 
  20 active torsions:
  status: ('A' for Active; 'I' for Inactive)
    1  A    between atoms: C_2  and  C_24
    2  A    between atoms: C_3  and  C_14
    3  A    between atoms: C_4  and  C_37
    4  A    between atoms: C_8  and  C_43
    5  A    between atoms: C_9  and  C_33
    6  A    between atoms: C_9  and  C_49
    7  A    between atoms: C_10  and  C_32
    8  A    between atoms: C_16  and  C_17
    9  A    between atoms: C_17  and  O_23
   10  A    between atoms: C_19  and  C_40
   11  A    between atoms: C_19  and  O_45
   12  A    between atoms: C_20  and  C_46
   13  A    between atoms: C_24  and  C_49
   14  A    between atoms: C_27  and  C_54
   15  A    between atoms: C_33  and  C_36
   16  A    between atoms: C_33  and  C_52
   17  A    between atoms: C_37  and  C_40
   18  A    between atoms: C_43  and  O_51
   19  A    between atoms: O_45  and  C_49
   20  A    between atoms: O_51  and  C_54
                            x       y       z     vdW  Elec       q    Type
                         _______ _______ _______ _____ _____    ______ ____

>  <TORSDO>
F 20

$$$$
=
 OpenBabel11052414523D

 55 59  0  0  1  0  0  0  0  0999 V2000
  185.5180  177.1590  138.4940 C   0  0  2  0  0  3  0  0  0  0  0  0
  186.6400  176.2150  138.0860 C   0  0  0  0  0  2  0  0  0  0  0  0
  185.8730  176.9760  137.0160 C   0  0  1  0  0  0  0  0  0  0  0  0
  182.3880  177.2220  136.1180 C   0  0  0  0  0  0  0  0  0  0  0  0
  182.3110  173.4480  136.6550 C   0  0  1  0  0  3  0  0  0  0  0  0
  183.0390  173.9340  135.5580 O   0  0  0  0  0  0  0  0  0  0  0  0
  184.8090  176.2660  136.2360 C   0  0  0  0  0  0  0  0  0  0  0  0
  180.1320  176.4420  137.9210 C   0  0  0  0  0  1  0  0  0  0  0  0
  183.6060  176.7710  136.1640 C   0  0  0  0  0  0  0  0  0  0  0  0
  185.1520  175.0520  135.4320 C   0  0  0  0  0  2  0  0  0  0  0  0
  180.3010  177.0250  134.9940 O   0  0  0  0  0  1  0  0  0  0  0  0
  180.6600  175.5000  136.8480 C   0  0  1  0  0  0  0  0  0  0  0  0
  182.1170  178.5220  136.5240 O   0  0  0  0  0  1  0  0  0  0  0  0
  181.6870  174.5650  137.5130 C   0  0  0  0  0  2  0  0  0  0  0  0
  184.3940  173.8100  135.9070 C   0  0  2  0  0  3  0  0  0  0  0  0
  179.5800  174.7550  136.3750 O   0  0  0  0  0  1  0  0  0  0  0  0
  181.2800  176.3050  135.6870 C   0  0  2  0  0  3  0  0  0  0  0  0
  186.1940  172.9050  134.5940 O   0  0  0  0  0  1  0  0  0  0  0  0
  184.9990  172.5720  135.2380 C   0  0  1  0  0  3  0  0  0  0  0  0
  185.2580  171.5930  136.1820 F   0  0  0  0  0  0  0  0  0  0  0  0
  181.8080  171.0900  136.5960 O   0  0  0  0  0  1  0  0  0  0  0  0
  181.3260  172.3550  136.2440 C   0  0  0  0  0  2  0  0  0  0  0  0
  186.1010  178.4380  139.0850 C   0  0  0  0  0  2  0  0  0  0  0  0
  184.0140  178.8280  140.3130 C   0  0  0  0  0  2  0  0  0  0  0  0
  185.3450  178.8270  140.3130 C   0  0  0  0  0  0  0  0  0  0  0  0
  186.0890  179.0680  141.5810 C   0  0  0  0  0  2  0  0  0  0  0  0
  185.8180  178.0480  142.4950 O   0  0  0  0  0  0  0  0  0  0  0  0
  186.2410  178.5510  143.7280 C   0  0  2  0  0  3  0  0  0  0  0  0
  186.8570  177.4300  144.5700 C   0  0  0  0  0  2  0  0  0  0  0  0
  188.3290  177.1620  144.2350 C   0  0  2  0  0  3  0  0  0  0  0  0
  190.0680  178.5390  142.7490 O   0  0  0  0  0  1  0  0  0  0  0  0
  190.4240  176.9410  141.1240 C   0  0  2  0  0  3  0  0  0  0  0  0
  189.8920  175.6930  142.9710 C   0  0  0  0  0  2  0  0  0  0  0  0
  189.1710  176.3980  141.8050 C   0  0  1  0  0  0  0  0  0  0  0  0
  189.4470  177.9280  141.6580 C   0  0  1  0  0  3  0  0  0  0  0  0
  188.4790  176.0710  143.1720 C   0  0  2  0  0  3  0  0  0  0  0  0
  190.2640  176.8230  139.6200 C   0  0  2  0  0  3  0  0  0  0  0  0
  191.6150  176.9700  138.9500 C   0  0  0  0  0  1  0  0  0  0  0  0
  189.4190  177.8130  139.1600 F   0  0  0  0  0  0  0  0  0  0  0  0
  189.3550  177.9990  146.3200 C   0  0  1  0  0  3  0  0  0  0  0  0
  190.3510  177.4800  145.4690 O   0  0  0  0  0  0  0  0  0  0  0  0
  189.1200  176.7990  145.4840 C   0  0  2  0  0  3  0  0  0  0  0  0
  189.6460  177.5660  147.7410 C   0  0  0  0  0  2  0  0  0  0  0  0
  187.6290  177.5490  148.6360 C   0  0  0  0  0  1  0  0  0  0  0  0
  188.8200  178.2700  148.6200 O   0  0  0  0  0  0  0  0  0  0  0  0
  185.0900  179.2550  144.4520 C   0  0  0  0  0  2  0  0  0  0  0  0
  185.1590  179.1110  145.9400 C   0  0  0  0  0  0  0  0  0  0  0  0
  184.3460  178.1950  146.5960 O   0  0  0  0  0  0  0  0  0  0  0  0
  185.9340  179.8490  146.6030 O   0  0  0  0  0  1  0  0  0  0  0  0
  186.5150  178.0750  136.4180 O   0  0  0  0  0  0  0  0  0  0  0  0
  187.3080  177.5640  135.3790 C   0  0  0  0  0  2  0  0  0  0  0  0
  188.7770  177.5830  135.7700 C   0  0  1  0  0  0  0  0  0  0  0  0
  188.9670  178.4400  136.8370 F   0  0  0  0  0  0  0  0  0  0  0  0
  189.1910  176.2980  136.1240 O   0  0  0  0  0  1  0  0  0  0  0  0
  189.6010  178.0680  134.5940 C   0  0  0  0  0  1  0  0  0  0  0  0
  1 23  1  1  0  0  0
  2  1  1  0  0  0  0
  3 50  1  6  0  0  0
  3  2  1  0  0  0  0
  3  1  1  0  0  0  0
  4  9  2  0  0  0  0
  4 13  1  0  0  0  0
  5 22  1  6  0  0  0
  5 14  1  0  0  0  0
  6 15  1  0  0  0  0
  6  5  1  0  0  0  0
  7  3  1  0  0  0  0
  9  7  2  0  0  0  0
 10 15  1  0  0  0  0
 10  7  1  0  0  0  0
 12 14  1  0  0  0  0
 12  8  1  1  0  0  0
 15 19  1  6  0  0  0
 16 12  1  0  0  0  0
 17 11  1  1  0  0  0
 17  4  1  0  0  0  0
 17 12  1  0  0  0  0
 19 18  1  1  0  0  0
 19 20  1  0  0  0  0
 22 21  1  0  0  0  0
 23 25  1  0  0  0  0
 24 25  2  0  0  0  0
 25 26  1  0  0  0  0
 26 27  1  0  0  0  0
 27 28  1  0  0  0  0
 28 46  1  1  0  0  0
 28 29  1  0  0  0  0
 30 29  1  1  0  0  0
 32 37  1  6  0  0  0
 32 35  1  0  0  0  0
 32 34  1  0  0  0  0
 33 36  1  0  0  0  0
 34 33  1  1  0  0  0
 34 36  1  0  0  0  0
 35 34  1  0  0  0  0
 35 31  1  1  0  0  0
 36 30  1  1  0  0  0
 37 38  1  6  0  0  0
 39 37  1  0  0  0  0
 40 43  1  1  0  0  0
 41 42  1  0  0  0  0
 41 40  1  0  0  0  0
 42 30  1  6  0  0  0
 42 40  1  0  0  0  0
 43 45  1  0  0  0  0
 45 44  1  0  0  0  0
 46 47  1  0  0  0  0
 47 48  2  0  0  0  0
 47 49  1  0  0  0  0
 51 52  1  0  0  0  0
 51 50  1  0  0  0  0
 52 55  1  6  0  0  0
 52 54  1  0  0  0  0
 52 53  1  0  0  0  0
M  END
>  <MODEL>
5

>  <REMARK>
 VINA RESULT:      -5.3      2.525      5.053
  Name = 
  20 active torsions:
  status: ('A' for Active; 'I' for Inactive)
    1  A    between atoms: C_2  and  C_24
    2  A    between atoms: C_3  and  C_14
    3  A    between atoms: C_4  and  C_37
    4  A    between atoms: C_8  and  C_43
    5  A    between atoms: C_9  and  C_33
    6  A    between atoms: C_9  and  C_49
    7  A    between atoms: C_10  and  C_32
    8  A    between atoms: C_16  and  C_17
    9  A    between atoms: C_17  and  O_23
   10  A    between atoms: C_19  and  C_40
   11  A    between atoms: C_19  and  O_45
   12  A    between atoms: C_20  and  C_46
   13  A    between atoms: C_24  and  C_49
   14  A    between atoms: C_27  and  C_54
   15  A    between atoms: C_33  and  C_36
   16  A    between atoms: C_33  and  C_52
   17  A    between atoms: C_37  and  C_40
   18  A    between atoms: C_43  and  O_51
   19  A    between atoms: O_45  and  C_49
   20  A    between atoms: O_51  and  C_54
                            x       y       z     vdW  Elec       q    Type
                         _______ _______ _______ _____ _____    ______ ____

>  <TORSDO>
F 20

$$$$
=
 OpenBabel11052414523D

 55 59  0  0  1  0  0  0  0  0999 V2000
  184.0520  178.1930  139.8140 C   0  0  2  0  0  3  0  0  0  0  0  0
  183.4820  177.1060  140.7130 C   0  0  0  0  0  2  0  0  0  0  0  0
  183.6650  178.5130  141.2590 C   0  0  1  0  0  0  0  0  0  0  0  0
  187.2640  178.7390  141.1760 C   0  0  0  0  0  0  0  0  0  0  0  0
  187.1300  177.0570  144.5960 C   0  0  1  0  0  3  0  0  0  0  0  0
  186.6480  178.3720  144.4980 O   0  0  0  0  0  0  0  0  0  0  0  0
  184.8430  178.8100  142.1360 C   0  0  0  0  0  0  0  0  0  0  0  0
  189.0950  176.3760  141.2800 C   0  0  0  0  0  1  0  0  0  0  0  0
  186.0490  178.7970  141.6350 C   0  0  0  0  0  0  0  0  0  0  0  0
  184.6330  179.2500  143.5500 C   0  0  0  0  0  2  0  0  0  0  0  0
  189.5250  179.3130  141.6350 O   0  0  0  0  0  1  0  0  0  0  0  0
  188.7650  177.1870  142.5250 C   0  0  1  0  0  0  0  0  0  0  0  0
  187.4830  178.7100  139.8050 O   0  0  0  0  0  1  0  0  0  0  0  0
  187.6020  176.4810  143.2470 C   0  0  0  0  0  2  0  0  0  0  0  0
  185.2480  178.2750  144.5570 C   0  0  2  0  0  3  0  0  0  0  0  0
  189.8970  177.1840  143.3410 O   0  0  0  0  0  1  0  0  0  0  0  0
  188.4100  178.6390  142.1410 C   0  0  2  0  0  3  0  0  0  0  0  0
  185.5440  179.6470  146.5100 O   0  0  0  0  0  1  0  0  0  0  0  0
  184.7530  178.6340  145.9620 C   0  0  1  0  0  3  0  0  0  0  0  0
  183.4390  179.0680  145.9150 F   0  0  0  0  0  0  0  0  0  0  0  0
  188.4450  178.1500  146.2970 O   0  0  0  0  0  1  0  0  0  0  0  0
  188.1470  176.9080  145.7260 C   0  0  0  0  0  2  0  0  0  0  0  0
  182.9990  178.6440  138.8080 C   0  0  0  0  0  2  0  0  0  0  0  0
  183.7200  177.8170  136.6140 C   0  0  0  0  0  2  0  0  0  0  0  0
  182.9240  177.6760  137.6730 C   0  0  0  0  0  0  0  0  0  0  0  0
  182.0620  176.4690  137.8000 C   0  0  0  0  0  2  0  0  0  0  0  0
  181.5480  176.1150  136.5510 O   0  0  0  0  0  0  0  0  0  0  0  0
  181.5570  174.7180  136.5430 C   0  0  2  0  0  3  0  0  0  0  0  0
  182.1460  174.2020  135.2270 C   0  0  0  0  0  2  0  0  0  0  0  0
  183.3580  173.2850  135.4260 C   0  0  2  0  0  3  0  0  0  0  0  0
  184.6880  173.3090  137.7400 O   0  0  0  0  0  1  0  0  0  0  0  0
  186.6810  174.1600  136.9460 C   0  0  2  0  0  3  0  0  0  0  0  0
  185.8200  173.0670  135.1250 C   0  0  0  0  0  2  0  0  0  0  0  0
  185.7440  174.4610  135.7800 C   0  0  1  0  0  0  0  0  0  0  0  0
  185.2660  174.4890  137.2660 C   0  0  1  0  0  3  0  0  0  0  0  0
  184.6320  173.8940  134.8340 C   0  0  2  0  0  3  0  0  0  0  0  0
  187.5610  175.3680  137.2040 C   0  0  2  0  0  3  0  0  0  0  0  0
  186.9370  176.5970  136.5740 C   0  0  0  0  0  1  0  0  0  0  0  0
  188.8110  175.1620  136.6580 F   0  0  0  0  0  0  0  0  0  0  0  0
  182.3020  171.0790  135.7670 C   0  0  1  0  0  3  0  0  0  0  0  0
  183.6990  170.9320  135.6620 O   0  0  0  0  0  0  0  0  0  0  0  0
  183.1060  171.9040  134.8370 C   0  0  2  0  0  3  0  0  0  0  0  0
  181.6290  169.9670  134.9920 C   0  0  0  0  0  2  0  0  0  0  0  0
  179.6690  170.9570  134.7690 C   0  0  0  0  0  1  0  0  0  0  0  0
  180.2910  169.8720  135.3810 O   0  0  0  0  0  0  0  0  0  0  0  0
  180.1540  174.1640  136.8080 C   0  0  0  0  0  2  0  0  0  0  0  0
  180.0630  173.3800  138.0790 C   0  0  0  0  0  0  0  0  0  0  0  0
  179.6470  173.9930  139.2540 O   0  0  0  0  0  1  0  0  0  0  0  0
  180.3990  172.1670  138.0900 O   0  0  0  0  0  0  0  0  0  0  0  0
  182.5110  179.3050  141.4040 O   0  0  0  0  0  0  0  0  0  0  0  0
  181.6650  178.6280  142.2960 C   0  0  0  0  0  2  0  0  0  0  0  0
  180.2460  178.5770  141.7510 C   0  0  1  0  0  0  0  0  0  0  0  0
  180.2130  177.8030  140.6060 F   0  0  0  0  0  0  0  0  0  0  0  0
  179.3890  178.0320  142.7070 O   0  0  0  0  0  1  0  0  0  0  0  0
  179.7910  179.9820  141.4120 C   0  0  0  0  0  1  0  0  0  0  0  0
  1 23  1  6  0  0  0
  1  2  1  0  0  0  0
  1  3  1  0  0  0  0
  2  3  1  0  0  0  0
  3 50  1  1  0  0  0
  3  7  1  0  0  0  0
  4  9  2  0  0  0  0
  4 17  1  0  0  0  0
  5 22  1  1  0  0  0
  6 15  1  0  0  0  0
  6  5  1  0  0  0  0
  7 10  1  0  0  0  0
  9  7  2  0  0  0  0
 10 15  1  0  0  0  0
 12  8  1  6  0  0  0
 12 14  1  0  0  0  0
 12 16  1  0  0  0  0
 13  4  1  0  0  0  0
 14  5  1  0  0  0  0
 15 19  1  1  0  0  0
 17 11  1  6  0  0  0
 17 12  1  0  0  0  0
 19 20  1  6  0  0  0
 19 18  1  0  0  0  0
 22 21  1  0  0  0  0
 24 25  2  0  0  0  0
 25 26  1  0  0  0  0
 25 23  1  0  0  0  0
 27 26  1  0  0  0  0
 28 29  1  6  0  0  0
 28 27  1  0  0  0  0
 28 46  1  0  0  0  0
 30 29  1  6  0  0  0
 32 37  1  1  0  0  0
 32 35  1  0  0  0  0
 34 33  1  1  0  0  0
 34 32  1  0  0  0  0
 34 35  1  0  0  0  0
 35 31  1  6  0  0  0
 36 33  1  0  0  0  0
 36 30  1  1  0  0  0
 36 34  1  0  0  0  0
 37 38  1  6  0  0  0
 39 37  1  0  0  0  0
 40 43  1  6  0  0  0
 41 40  1  0  0  0  0
 42 30  1  1  0  0  0
 42 41  1  0  0  0  0
 42 40  1  0  0  0  0
 43 45  1  0  0  0  0
 44 45  1  0  0  0  0
 46 47  1  0  0  0  0
 47 49  2  0  0  0  0
 47 48  1  0  0  0  0
 50 51  1  0  0  0  0
 52 55  1  6  0  0  0
 52 51  1  0  0  0  0
 52 54  1  0  0  0  0
 53 52  1  0  0  0  0
M  END
>  <MODEL>
6

>  <REMARK>
 VINA RESULT:      -4.9      2.522      9.206
  Name = 
  20 active torsions:
  status: ('A' for Active; 'I' for Inactive)
    1  A    between atoms: C_2  and  C_24
    2  A    between atoms: C_3  and  C_14
    3  A    between atoms: C_4  and  C_37
    4  A    between atoms: C_8  and  C_43
    5  A    between atoms: C_9  and  C_33
    6  A    between atoms: C_9  and  C_49
    7  A    between atoms: C_10  and  C_32
    8  A    between atoms: C_16  and  C_17
    9  A    between atoms: C_17  and  O_23
   10  A    between atoms: C_19  and  C_40
   11  A    between atoms: C_19  and  O_45
   12  A    between atoms: C_20  and  C_46
   13  A    between atoms: C_24  and  C_49
   14  A    between atoms: C_27  and  C_54
   15  A    between atoms: C_33  and  C_36
   16  A    between atoms: C_33  and  C_52
   17  A    between atoms: C_37  and  C_40
   18  A    between atoms: C_43  and  O_51
   19  A    between atoms: O_45  and  C_49
   20  A    between atoms: O_51  and  C_54
                            x       y       z     vdW  Elec       q    Type
                         _______ _______ _______ _____ _____    ______ ____

>  <TORSDO>
F 20

$$$$
=
 OpenBabel11052414523D

 55 59  0  0  1  0  0  0  0  0999 V2000
  184.9800  179.1640  139.4180 C   0  0  2  0  0  3  0  0  0  0  0  0
  183.9340  180.0000  138.6950 C   0  0  0  0  0  2  0  0  0  0  0  0
  183.6940  178.5130  138.9010 C   0  0  1  0  0  0  0  0  0  0  0  0
  181.9620  176.1690  136.7760 C   0  0  0  0  0  0  0  0  0  0  0  0
  185.0880  174.0170  137.1390 C   0  0  1  0  0  3  0  0  0  0  0  0
  185.2010  175.2090  136.4060 O   0  0  0  0  0  0  0  0  0  0  0  0
  183.9260  177.5700  137.7610 C   0  0  0  0  0  0  0  0  0  0  0  0
  181.2530  173.3780  137.5860 C   0  0  0  0  0  1  0  0  0  0  0  0
  182.9270  176.8930  137.2600 C   0  0  0  0  0  0  0  0  0  0  0  0
  185.2700  177.4960  137.1090 C   0  0  0  0  0  2  0  0  0  0  0  0
  181.3190  174.7870  134.9510 O   0  0  0  0  0  1  0  0  0  0  0  0
  182.4960  173.6800  136.7610 C   0  0  1  0  0  0  0  0  0  0  0  0
  180.6440  176.4770  137.0890 O   0  0  0  0  0  1  0  0  0  0  0  0
  183.6840  173.7990  137.7340 C   0  0  0  0  0  2  0  0  0  0  0  0
  185.8980  176.1060  137.2320 C   0  0  2  0  0  3  0  0  0  0  0  0
  182.7000  172.6020  135.8990 O   0  0  0  0  0  1  0  0  0  0  0  0
  182.2930  174.9690  135.9380 C   0  0  2  0  0  3  0  0  0  0  0  0
  187.8000  177.5130  136.7960 O   0  0  0  0  0  1  0  0  0  0  0  0
  187.3670  176.1840  136.8020 C   0  0  1  0  0  3  0  0  0  0  0  0
  188.1630  175.4590  137.6730 F   0  0  0  0  0  0  0  0  0  0  0  0
  186.9860  172.6210  136.6240 O   0  0  0  0  0  1  0  0  0  0  0  0
  185.6270  172.8190  136.3600 C   0  0  0  0  0  2  0  0  0  0  0  0
  184.9340  179.4510  140.9150 C   0  0  0  0  0  2  0  0  0  0  0  0
  185.0640  177.5190  142.4190 C   0  0  0  0  0  2  0  0  0  0  0  0
  185.7010  178.4100  141.6620 C   0  0  0  0  0  0  0  0  0  0  0  0
  187.1670  178.2810  141.4340 C   0  0  0  0  0  2  0  0  0  0  0  0
  187.6370  177.0980  142.0080 O   0  0  0  0  0  0  0  0  0  0  0  0
  189.0290  177.2210  141.9910 C   0  0  2  0  0  3  0  0  0  0  0  0
  189.5010  178.0350  143.1980 C   0  0  0  0  0  2  0  0  0  0  0  0
  189.2950  177.3110  144.5340 C   0  0  2  0  0  3  0  0  0  0  0  0
  186.8940  176.1970  144.8790 O   0  0  0  0  0  1  0  0  0  0  0  0
  186.1660  177.5500  146.6010 C   0  0  2  0  0  3  0  0  0  0  0  0
  188.4440  177.5580  146.8600 C   0  0  0  0  0  2  0  0  0  0  0  0
  187.3650  178.3420  146.0860 C   0  0  1  0  0  0  0  0  0  0  0  0
  186.4540  177.4960  145.1420 C   0  0  1  0  0  3  0  0  0  0  0  0
  188.8650  178.2770  145.6420 C   0  0  2  0  0  3  0  0  0  0  0  0
  185.0150  178.5010  146.8620 C   0  0  2  0  0  3  0  0  0  0  0  0
  184.4540  178.9980  145.5450 C   0  0  0  0  0  1  0  0  0  0  0  0
  185.4560  179.5790  147.6040 F   0  0  0  0  0  0  0  0  0  0  0  0
  191.1640  177.1750  146.1420 C   0  0  1  0  0  3  0  0  0  0  0  0
  191.6630  177.4050  144.8450 O   0  0  0  0  0  0  0  0  0  0  0  0
  190.5490  176.5530  144.9480 C   0  0  2  0  0  3  0  0  0  0  0  0
  192.0440  176.1580  146.8360 C   0  0  0  0  0  2  0  0  0  0  0  0
  193.1350  175.5980  148.6710 C   0  0  0  0  0  1  0  0  0  0  0  0
  192.3960  176.6320  148.1020 O   0  0  0  0  0  0  0  0  0  0  0  0
  189.5060  177.8200  140.6640 C   0  0  0  0  0  2  0  0  0  0  0  0
  190.7140  177.1320  140.1110 C   0  0  0  0  0  0  0  0  0  0  0  0
  191.9790  177.6740  140.2990 O   0  0  0  0  0  1  0  0  0  0  0  0
  190.5770  176.0740  139.4430 O   0  0  0  0  0  0  0  0  0  0  0  0
  182.7750  178.1390  139.8980 O   0  0  0  0  0  0  0  0  0  0  0  0
  181.6180  178.9060  139.6900 C   0  0  0  0  0  2  0  0  0  0  0  0
  180.4710  178.3820  140.5400 C   0  0  1  0  0  0  0  0  0  0  0  0
  180.7280  178.6270  141.8760 F   0  0  0  0  0  0  0  0  0  0  0  0
  179.2810  179.0100  140.1720 O   0  0  0  0  0  1  0  0  0  0  0  0
  180.3360  176.8870  140.3280 C   0  0  0  0  0  1  0  0  0  0  0  0
  1 23  1  1  0  0  0
  2  3  1  0  0  0  0
  2  1  1  0  0  0  0
  3  1  1  0  0  0  0
  3 50  1  1  0  0  0
  4 13  1  0  0  0  0
  4  9  2  0  0  0  0
  5 22  1  6  0  0  0
  5 14  1  0  0  0  0
  6  5  1  0  0  0  0
  6 15  1  0  0  0  0
  7  3  1  0  0  0  0
  9  7  2  0  0  0  0
 10 15  1  0  0  0  0
 10  7  1  0  0  0  0
 12  8  1  1  0  0  0
 12 14  1  0  0  0  0
 15 19  1  6  0  0  0
 16 12  1  0  0  0  0
 17 11  1  6  0  0  0
 17 12  1  0  0  0  0
 17  4  1  0  0  0  0
 19 18  1  1  0  0  0
 19 20  1  0  0  0  0
 22 21  1  0  0  0  0
 23 25  1  0  0  0  0
 25 24  2  0  0  0  0
 26 25  1  0  0  0  0
 26 27  1  0  0  0  0
 28 46  1  6  0  0  0
 28 27  1  0  0  0  0
 28 29  1  0  0  0  0
 30 29  1  6  0  0  0
 32 37  1  6  0  0  0
 34 32  1  0  0  0  0
 34 33  1  1  0  0  0
 35 31  1  1  0  0  0
 35 34  1  0  0  0  0
 35 32  1  0  0  0  0
 36 30  1  6  0  0  0
 36 34  1  0  0  0  0
 36 33  1  0  0  0  0
 37 38  1  6  0  0  0
 37 39  1  0  0  0  0
 40 43  1  1  0  0  0
 41 42  1  0  0  0  0
 41 40  1  0  0  0  0
 42 30  1  6  0  0  0
 42 40  1  0  0  0  0
 43 45  1  0  0  0  0
 45 44  1  0  0  0  0
 47 48  1  0  0  0  0
 47 46  1  0  0  0  0
 49 47  2  0  0  0  0
 51 50  1  0  0  0  0
 51 52  1  0  0  0  0
 52 55  1  6  0  0  0
 52 53  1  0  0  0  0
 54 52  1  0  0  0  0
M  END
>  <MODEL>
7

>  <REMARK>
 VINA RESULT:      -4.8      1.841      4.258
  Name = 
  20 active torsions:
  status: ('A' for Active; 'I' for Inactive)
    1  A    between atoms: C_2  and  C_24
    2  A    between atoms: C_3  and  C_14
    3  A    between atoms: C_4  and  C_37
    4  A    between atoms: C_8  and  C_43
    5  A    between atoms: C_9  and  C_33
    6  A    between atoms: C_9  and  C_49
    7  A    between atoms: C_10  and  C_32
    8  A    between atoms: C_16  and  C_17
    9  A    between atoms: C_17  and  O_23
   10  A    between atoms: C_19  and  C_40
   11  A    between atoms: C_19  and  O_45
   12  A    between atoms: C_20  and  C_46
   13  A    between atoms: C_24  and  C_49
   14  A    between atoms: C_27  and  C_54
   15  A    between atoms: C_33  and  C_36
   16  A    between atoms: C_33  and  C_52
   17  A    between atoms: C_37  and  C_40
   18  A    between atoms: C_43  and  O_51
   19  A    between atoms: O_45  and  C_49
   20  A    between atoms: O_51  and  C_54
                            x       y       z     vdW  Elec       q    Type
                         _______ _______ _______ _____ _____    ______ ____

>  <TORSDO>
F 20

$$$$
=
 OpenBabel11052414523D

 55 59  0  0  1  0  0  0  0  0999 V2000
  186.0000  177.9860  137.8110 C   0  0  2  0  0  3  0  0  0  0  0  0
  185.0730  179.1760  137.6130 C   0  0  0  0  0  2  0  0  0  0  0  0
  184.5100  177.8650  138.1390 C   0  0  1  0  0  0  0  0  0  0  0  0
  181.2670  177.3980  136.6320 C   0  0  0  0  0  0  0  0  0  0  0  0
  181.8650  173.6840  137.2520 C   0  0  1  0  0  3  0  0  0  0  0  0
  182.6630  174.3190  136.2870 O   0  0  0  0  0  0  0  0  0  0  0  0
  183.7700  176.9590  137.2030 C   0  0  0  0  0  0  0  0  0  0  0  0
  178.9320  176.1550  138.0280 C   0  0  0  0  0  1  0  0  0  0  0  0
  182.5220  177.2060  136.9050 C   0  0  0  0  0  0  0  0  0  0  0  0
  184.4920  175.8490  136.5070 C   0  0  0  0  0  2  0  0  0  0  0  0
  179.4990  176.7870  135.1630 O   0  0  0  0  0  1  0  0  0  0  0  0
  179.8240  175.3520  137.0930 C   0  0  1  0  0  0  0  0  0  0  0  0
  180.6680  178.6110  136.9470 O   0  0  0  0  0  1  0  0  0  0  0  0
  180.8830  174.6410  137.9550 C   0  0  0  0  0  2  0  0  0  0  0  0
  183.9300  174.4740  136.8740 C   0  0  2  0  0  3  0  0  0  0  0  0
  179.0200  174.4040  136.4570 O   0  0  0  0  0  1  0  0  0  0  0  0
  180.4640  176.2770  136.0370 C   0  0  2  0  0  3  0  0  0  0  0  0
  184.8660  172.2840  137.2080 O   0  0  0  0  0  1  0  0  0  0  0  0
  184.8850  173.3920  136.3580 C   0  0  1  0  0  3  0  0  0  0  0  0
  184.5120  172.9870  135.0870 F   0  0  0  0  0  0  0  0  0  0  0  0
  181.4640  172.2770  135.3350 O   0  0  0  0  0  1  0  0  0  0  0  0
  181.2130  172.4160  136.7040 C   0  0  0  0  0  2  0  0  0  0  0  0
  186.8610  178.1960  139.0520 C   0  0  0  0  0  2  0  0  0  0  0  0
  188.4160  176.7540  137.8200 C   0  0  0  0  0  2  0  0  0  0  0  0
  188.1880  177.5330  138.8750 C   0  0  0  0  0  0  0  0  0  0  0  0
  189.3010  177.8710  139.8050 C   0  0  0  0  0  2  0  0  0  0  0  0
  189.4720  176.8460  140.7370 O   0  0  0  0  0  0  0  0  0  0  0  0
  190.7900  176.9830  141.1820 C   0  0  2  0  0  3  0  0  0  0  0  0
  190.8300  177.8310  142.4560 C   0  0  0  0  0  2  0  0  0  0  0  0
  190.2860  177.0980  143.6870 C   0  0  2  0  0  3  0  0  0  0  0  0
  187.8630  176.0830  143.2110 O   0  0  0  0  0  1  0  0  0  0  0  0
  186.6730  177.4210  144.6660 C   0  0  2  0  0  3  0  0  0  0  0  0
  188.7490  177.3210  145.6330 C   0  0  0  0  0  2  0  0  0  0  0  0
  187.9990  178.1730  144.5890 C   0  0  1  0  0  0  0  0  0  0  0  0
  187.4070  177.3930  143.3730 C   0  0  1  0  0  3  0  0  0  0  0  0
  189.5600  178.0520  144.6400 C   0  0  2  0  0  3  0  0  0  0  0  0
  185.5310  178.4160  144.5870 C   0  0  2  0  0  3  0  0  0  0  0  0
  185.0540  178.7590  145.9840 C   0  0  0  0  0  1  0  0  0  0  0  0
  184.4840  177.8720  143.8700 F   0  0  0  0  0  0  0  0  0  0  0  0
  191.4720  176.8010  145.8330 C   0  0  1  0  0  3  0  0  0  0  0  0
  192.3630  177.2820  144.8550 O   0  0  0  0  0  0  0  0  0  0  0  0
  191.3960  176.3580  144.4220 C   0  0  2  0  0  3  0  0  0  0  0  0
  192.1670  175.7340  146.6520 C   0  0  0  0  0  2  0  0  0  0  0  0
  191.3780  177.0730  148.2190 C   0  0  0  0  0  1  0  0  0  0  0  0
  192.4510  176.2360  147.9250 O   0  0  0  0  0  0  0  0  0  0  0  0
  191.6810  177.5550  140.0750 C   0  0  0  0  0  2  0  0  0  0  0  0
  192.3300  176.4960  139.2400 C   0  0  0  0  0  0  0  0  0  0  0  0
  193.6950  176.5390  138.9890 O   0  0  0  0  0  1  0  0  0  0  0  0
  191.6270  175.5820  138.7350 O   0  0  0  0  0  0  0  0  0  0  0  0
  184.2060  177.7950  139.5100 O   0  0  0  0  0  0  0  0  0  0  0  0
  183.5330  178.9820  139.8370 C   0  0  0  0  0  2  0  0  0  0  0  0
  182.2640  178.6790  140.6170 C   0  0  1  0  0  0  0  0  0  0  0  0
  182.4540  178.9720  141.9540 F   0  0  0  0  0  0  0  0  0  0  0  0
  181.2060  179.4400  140.1190 O   0  0  0  0  0  1  0  0  0  0  0  0
  181.9320  177.2070  140.4760 C   0  0  0  0  0  1  0  0  0  0  0  0
  1  3  1  0  0  0  0
  1 23  1  1  0  0  0
  2  1  1  0  0  0  0
  2  3  1  0  0  0  0
  3 50  1  1  0  0  0
  4  9  2  0  0  0  0
  4 13  1  0  0  0  0
  5 22  1  6  0  0  0
  5 14  1  0  0  0  0
  6 15  1  0  0  0  0
  6  5  1  0  0  0  0
  7  3  1  0  0  0  0
  9  7  2  0  0  0  0
 10 15  1  0  0  0  0
 10  7  1  0  0  0  0
 12 14  1  0  0  0  0
 12  8  1  1  0  0  0
 15 19  1  6  0  0  0
 16 12  1  0  0  0  0
 17 11  1  1  0  0  0
 17  4  1  0  0  0  0
 17 12  1  0  0  0  0
 19 20  1  6  0  0  0
 19 18  1  0  0  0  0
 21 22  1  0  0  0  0
 24 25  2  0  0  0  0
 25 23  1  0  0  0  0
 25 26  1  0  0  0  0
 26 27  1  0  0  0  0
 27 28  1  0  0  0  0
 28 46  1  6  0  0  0
 28 29  1  0  0  0  0
 30 29  1  6  0  0  0
 32 37  1  6  0  0  0
 34 36  1  0  0  0  0
 34 32  1  0  0  0  0
 34 33  1  1  0  0  0
 35 31  1  1  0  0  0
 35 34  1  0  0  0  0
 35 32  1  0  0  0  0
 36 30  1  6  0  0  0
 36 33  1  0  0  0  0
 37 38  1  1  0  0  0
 39 37  1  0  0  0  0
 40 43  1  1  0  0  0
 41 40  1  0  0  0  0
 42 30  1  6  0  0  0
 42 41  1  0  0  0  0
 42 40  1  0  0  0  0
 43 45  1  0  0  0  0
 45 44  1  0  0  0  0
 47 46  1  0  0  0  0
 48 47  1  0  0  0  0
 49 47  2  0  0  0  0
 50 51  1  0  0  0  0
 51 52  1  0  0  0  0
 52 55  1  6  0  0  0
 52 53  1  0  0  0  0
 54 52  1  0  0  0  0
M  END
>  <MODEL>
8

>  <REMARK>
 VINA RESULT:      -4.8      2.359      5.079
  Name = 
  20 active torsions:
  status: ('A' for Active; 'I' for Inactive)
    1  A    between atoms: C_2  and  C_24
    2  A    between atoms: C_3  and  C_14
    3  A    between atoms: C_4  and  C_37
    4  A    between atoms: C_8  and  C_43
    5  A    between atoms: C_9  and  C_33
    6  A    between atoms: C_9  and  C_49
    7  A    between atoms: C_10  and  C_32
    8  A    between atoms: C_16  and  C_17
    9  A    between atoms: C_17  and  O_23
   10  A    between atoms: C_19  and  C_40
   11  A    between atoms: C_19  and  O_45
   12  A    between atoms: C_20  and  C_46
   13  A    between atoms: C_24  and  C_49
   14  A    between atoms: C_27  and  C_54
   15  A    between atoms: C_33  and  C_36
   16  A    between atoms: C_33  and  C_52
   17  A    between atoms: C_37  and  C_40
   18  A    between atoms: C_43  and  O_51
   19  A    between atoms: O_45  and  C_49
   20  A    between atoms: O_51  and  C_54
                            x       y       z     vdW  Elec       q    Type
                         _______ _______ _______ _____ _____    ______ ____

>  <TORSDO>
F 20

$$$$
=
 OpenBabel11052414523D

 55 59  0  0  1  0  0  0  0  0999 V2000
  190.6250  175.9100  137.9300 C   0  0  2  0  0  3  0  0  0  0  0  0
  191.2090  174.5240  137.6990 C   0  0  0  0  0  2  0  0  0  0  0  0
  190.8880  175.4120  136.5070 C   0  0  1  0  0  0  0  0  0  0  0  0
  187.7210  176.9320  135.6850 C   0  0  0  0  0  0  0  0  0  0  0  0
  186.2890  173.4230  136.1090 C   0  0  1  0  0  3  0  0  0  0  0  0
  187.1350  173.6520  135.0130 O   0  0  0  0  0  0  0  0  0  0  0  0
  189.6340  175.1630  135.7270 C   0  0  0  0  0  0  0  0  0  0  0  0
  185.3490  176.9560  137.5070 C   0  0  0  0  0  1  0  0  0  0  0  0
  188.6940  176.0700  135.6930 C   0  0  0  0  0  0  0  0  0  0  0  0
  189.5090  173.9360  134.8800 C   0  0  0  0  0  2  0  0  0  0  0  0
  185.6970  177.5410  134.5970 O   0  0  0  0  0  1  0  0  0  0  0  0
  185.4930  175.9250  136.3960 C   0  0  1  0  0  0  0  0  0  0  0  0
  187.9420  178.2270  136.1360 O   0  0  0  0  0  1  0  0  0  0  0  0
  186.1170  174.6600  137.0120 C   0  0  0  0  0  2  0  0  0  0  0  0
  188.3560  173.0360  135.3320 C   0  0  2  0  0  3  0  0  0  0  0  0
  184.2130  175.6370  135.9220 O   0  0  0  0  0  1  0  0  0  0  0  0
  186.3540  176.4920  135.2480 C   0  0  2  0  0  3  0  0  0  0  0  0
  189.7590  171.1690  134.7540 O   0  0  0  0  0  1  0  0  0  0  0  0
  188.4680  171.6860  134.6140 C   0  0  1  0  0  3  0  0  0  0  0  0
  187.5640  170.7820  135.1440 F   0  0  0  0  0  0  0  0  0  0  0  0
  184.5320  171.8610  136.6460 O   0  0  0  0  0  1  0  0  0  0  0  0
  184.9730  172.7750  135.6840 C   0  0  0  0  0  2  0  0  0  0  0  0
  191.7100  176.8570  138.4330 C   0  0  0  0  0  2  0  0  0  0  0  0
  192.4410  177.7300  140.6050 C   0  0  0  0  0  2  0  0  0  0  0  0
  191.4670  177.2020  139.8650 C   0  0  0  0  0  0  0  0  0  0  0  0
  190.0880  177.0930  140.4180 C   0  0  0  0  0  2  0  0  0  0  0  0
  189.4070  178.2990  140.2430 O   0  0  0  0  0  0  0  0  0  0  0  0
  188.9360  178.6320  141.5160 C   0  0  2  0  0  3  0  0  0  0  0  0
  189.9190  178.1470  142.5850 C   0  0  0  0  0  2  0  0  0  0  0  0
  189.2550  177.3080  143.6820 C   0  0  2  0  0  3  0  0  0  0  0  0
  186.7850  176.3270  143.9420 O   0  0  0  0  0  1  0  0  0  0  0  0
  186.1810  177.4980  145.8360 C   0  0  2  0  0  3  0  0  0  0  0  0
  188.4570  177.3170  146.0400 C   0  0  0  0  0  2  0  0  0  0  0  0
  187.4260  178.2650  145.3960 C   0  0  1  0  0  0  0  0  0  0  0  0
  186.4430  177.6100  144.3760 C   0  0  1  0  0  3  0  0  0  0  0  0
  188.9110  178.1530  144.9120 C   0  0  2  0  0  3  0  0  0  0  0  0
  185.1050  178.4870  146.2410 C   0  0  2  0  0  3  0  0  0  0  0  0
  184.1000  178.6370  145.1170 C   0  0  0  0  0  1  0  0  0  0  0  0
  185.6730  179.7150  146.5100 F   0  0  0  0  0  0  0  0  0  0  0  0
  191.2870  176.5810  144.8810 C   0  0  1  0  0  3  0  0  0  0  0  0
  191.4070  176.2830  143.5090 O   0  0  0  0  0  0  0  0  0  0  0  0
  190.1290  176.1260  144.0770 C   0  0  2  0  0  3  0  0  0  0  0  0
  191.8210  175.4170  145.6870 C   0  0  0  0  0  2  0  0  0  0  0  0
  191.9900  176.2390  147.7280 C   0  0  0  0  0  1  0  0  0  0  0  0
  192.7520  175.8830  146.6180 O   0  0  0  0  0  0  0  0  0  0  0  0
  187.5230  178.0800  141.7340 C   0  0  0  0  0  2  0  0  0  0  0  0
  186.4580  178.9500  141.1450 C   0  0  0  0  0  0  0  0  0  0  0  0
  186.2560  178.9820  139.7710 O   0  0  0  0  0  0  0  0  0  0  0  0
  185.7630  179.6820  141.8980 O   0  0  0  0  0  1  0  0  0  0  0  0
  191.9680  176.0300  135.8510 O   0  0  0  0  0  0  0  0  0  0  0  0
  192.6380  175.0230  135.1390 C   0  0  0  0  0  2  0  0  0  0  0  0
  194.0230  174.7890  135.7220 C   0  0  1  0  0  0  0  0  0  0  0  0
  194.2950  175.7470  136.6800 F   0  0  0  0  0  0  0  0  0  0  0  0
  194.0880  173.5210  136.2990 O   0  0  0  0  0  1  0  0  0  0  0  0
  195.0530  174.8890  134.6150 C   0  0  0  0  0  1  0  0  0  0  0  0
  1 23  1  1  0  0  0
  2  1  1  0  0  0  0
  3 50  1  6  0  0  0
  3  2  1  0  0  0  0
  3  1  1  0  0  0  0
  4  9  2  0  0  0  0
  4 13  1  0  0  0  0
  5 22  1  6  0  0  0
  5 14  1  0  0  0  0
  6 15  1  0  0  0  0
  6  5  1  0  0  0  0
  7  3  1  0  0  0  0
  9  7  2  0  0  0  0
 10 15  1  0  0  0  0
 10  7  1  0  0  0  0
 12 14  1  0  0  0  0
 12  8  1  1  0  0  0
 15 19  1  6  0  0  0
 16 12  1  0  0  0  0
 17 11  1  1  0  0  0
 17  4  1  0  0  0  0
 17 12  1  0  0  0  0
 19 18  1  1  0  0  0
 19 20  1  0  0  0  0
 22 21  1  0  0  0  0
 23 25  1  0  0  0  0
 25 26  1  0  0  0  0
 25 24  2  0  0  0  0
 27 26  1  0  0  0  0
 27 28  1  0  0  0  0
 28 46  1  1  0  0  0
 28 29  1  0  0  0  0
 30 29  1  6  0  0  0
 32 37  1  6  0  0  0
 34 32  1  0  0  0  0
 34 33  1  6  0  0  0
 35 31  1  1  0  0  0
 35 34  1  0  0  0  0
 35 32  1  0  0  0  0
 36 30  1  6  0  0  0
 36 34  1  0  0  0  0
 36 33  1  0  0  0  0
 37 38  1  6  0  0  0
 37 39  1  0  0  0  0
 40 43  1  1  0  0  0
 41 42  1  0  0  0  0
 41 40  1  0  0  0  0
 42 30  1  6  0  0  0
 42 40  1  0  0  0  0
 43 45  1  0  0  0  0
 45 44  1  0  0  0  0
 47 46  1  0  0  0  0
 47 49  1  0  0  0  0
 48 47  2  0  0  0  0
 51 52  1  0  0  0  0
 51 50  1  0  0  0  0
 52 55  1  6  0  0  0
 52 54  1  0  0  0  0
 52 53  1  0  0  0  0
M  END
>  <MODEL>
9

>  <REMARK>
 VINA RESULT:      -4.8      3.354      7.250
  Name = 
  20 active torsions:
  status: ('A' for Active; 'I' for Inactive)
    1  A    between atoms: C_2  and  C_24
    2  A    between atoms: C_3  and  C_14
    3  A    between atoms: C_4  and  C_37
    4  A    between atoms: C_8  and  C_43
    5  A    between atoms: C_9  and  C_33
    6  A    between atoms: C_9  and  C_49
    7  A    between atoms: C_10  and  C_32
    8  A    between atoms: C_16  and  C_17
    9  A    between atoms: C_17  and  O_23
   10  A    between atoms: C_19  and  C_40
   11  A    between atoms: C_19  and  O_45
   12  A    between atoms: C_20  and  C_46
   13  A    between atoms: C_24  and  C_49
   14  A    between atoms: C_27  and  C_54
   15  A    between atoms: C_33  and  C_36
   16  A    between atoms: C_33  and  C_52
   17  A    between atoms: C_37  and  C_40
   18  A    between atoms: C_43  and  O_51
   19  A    between atoms: O_45  and  C_49
   20  A    between atoms: O_51  and  C_54
                            x       y       z     vdW  Elec       q    Type
                         _______ _______ _______ _____ _____    ______ ____

>  <TORSDO>
F 20

$$$$
