=
 OpenBabel11052415513D

 34 38  0  0  1  0  0  0  0  0999 V2000
  182.5170  178.8430  141.4610 C   0  0  2  0  0  3  0  0  0  0  0  0
  181.0170  178.5870  137.8740 C   0  0  0  0  0  2  0  0  0  0  0  0
  180.0900  179.3260  140.1450 C   0  0  0  0  0  2  0  0  0  0  0  0
  184.9590  179.0680  141.4290 N   0  0  0  0  0  1  0  0  0  0  0  0
  183.8390  178.5110  142.1740 C   0  0  1  0  0  3  0  0  0  0  0  0
  181.3510  178.6330  143.6850 C   0  0  0  0  0  0  0  0  0  0  0  0
  180.3100  178.5910  144.3910 O   0  0  0  0  0  0  0  0  0  0  0  0
  182.6110  178.8550  144.3180 N   0  0  0  0  0  2  0  0  0  0  0  0
  183.8370  179.1380  143.5770 C   0  0  1  0  0  3  0  0  0  0  0  0
  180.0210  178.7130  141.5200 C   0  0  0  0  0  0  0  0  0  0  0  0
  181.2990  178.2870  142.2190 C   0  0  1  0  0  3  0  0  0  0  0  0
  178.9310  178.5100  142.0280 O   0  0  0  0  0  0  0  0  0  0  0  0
  181.6480  177.3230  137.3040 C   0  0  0  0  0  2  0  0  0  0  0  0
  183.0320  177.5740  136.8820 N   0  0  0  0  0  0  0  0  0  0  0  0
  183.8610  178.1770  137.9400 C   0  0  0  0  0  2  0  0  0  0  0  0
  181.2360  178.7330  139.3590 C   0  0  2  0  0  3  0  0  0  0  0  0
  183.5200  177.6590  139.3370 C   0  0  0  0  0  2  0  0  0  0  0  0
  182.4130  178.4560  139.9910 C   0  0  2  0  0  3  0  0  0  0  0  0
  186.1720  178.4700  146.5190 C   0  0  0  0  0  3  0  0  0  0  0  0
  186.1350  178.1580  143.7180 C   0  0  0  0  0  3  0  0  0  0  0  0
  189.3360  176.9500  145.2340 C   0  0  1  0  0  3  0  0  0  0  0  0
  188.5240  177.4530  146.4390 C   0  0  0  0  0  2  0  0  0  0  0  0
  187.2560  177.9160  145.8390 C   0  0  0  0  0  0  0  0  0  0  0  0
  188.4940  177.1690  143.9660 C   0  0  2  0  0  3  0  0  0  0  0  0
  187.2390  177.7620  144.4770 C   0  0  0  0  0  0  0  0  0  0  0  0
  188.2260  175.9370  143.3690 O   0  0  0  0  0  1  0  0  0  0  0  0
  185.0280  178.7160  144.3780 C   0  0  0  0  0  0  0  0  0  0  0  0
  185.0500  178.8700  145.7800 C   0  0  0  0  0  3  0  0  0  0  0  0
  190.6400  177.6730  145.1360 C   0  0  0  0  0  0  0  0  0  0  0  0
  190.7400  178.7290  144.4550 O   0  0  0  0  0  0  0  0  0  0  0  0
  191.7510  177.1750  145.8010 O   0  0  0  0  0  1  0  0  0  0  0  0
  183.6230  176.2870  136.5380 C   0  0  0  0  0  2  0  0  0  0  0  0
  183.2100  174.1740  137.5680 O   0  0  0  0  0  1  0  0  0  0  0  0
  182.6260  175.1680  136.7830 C   0  0  0  0  0  2  0  0  0  0  0  0
  1  5  1  0  0  0  0
  1 11  1  0  0  0  0
  2 16  1  0  0  0  0
  3 10  1  0  0  0  0
  4  5  1  0  0  0  0
  5  9  1  0  0  0  0
  6  8  1  0  0  0  0
  6  7  2  0  0  0  0
  9  8  1  0  0  0  0
  9 27  1  0  0  0  0
 10 12  2  0  0  0  0
 10 11  1  0  0  0  0
 11  6  1  0  0  0  0
 13  2  1  0  0  0  0
 14 13  1  0  0  0  0
 14 15  1  0  0  0  0
 15 17  1  0  0  0  0
 16 18  1  0  0  0  0
 16  3  1  0  0  0  0
 17 18  1  0  0  0  0
 18  1  1  0  0  0  0
 20 27  2  0  0  0  0
 20 25  1  0  0  0  0
 21 22  1  0  0  0  0
 23 22  1  0  0  0  0
 23 19  1  0  0  0  0
 24 25  1  0  0  0  0
 24 21  1  0  0  0  0
 25 23  2  0  0  0  0
 26 24  1  0  0  0  0
 27 28  1  0  0  0  0
 28 19  2  0  0  0  0
 29 21  1  0  0  0  0
 29 31  1  0  0  0  0
 30 29  2  0  0  0  0
 32 34  1  0  0  0  0
 32 14  1  0  0  0  0
 34 33  1  0  0  0  0
M  END
>  <MODEL>
1

>  <REMARK>
 VINA RESULT:      -9.7      0.000      0.000
  Name = 
  4 active torsions:
  status: ('A' for Active; 'I' for Inactive)
    1  A    between atoms: C_3  and  C_24
    2  A    between atoms: C_3  and  N_25
    3  A    between atoms: C_7  and  C_11
    4  A    between atoms: C_18  and  C_30
                            x       y       z     vdW  Elec       q    Type
                         _______ _______ _______ _____ _____    ______ ____

>  <TORSDO>
F 4

$$$$
=
 OpenBabel11052415513D

 34 38  0  0  1  0  0  0  0  0999 V2000
  186.5550  178.3870  143.0460 C   0  0  2  0  0  3  0  0  0  0  0  0
  182.9630  179.2130  144.3120 C   0  0  0  0  0  2  0  0  0  0  0  0
  185.2400  178.9500  145.4560 C   0  0  0  0  0  2  0  0  0  0  0  0
  186.8560  178.9600  140.6800 N   0  0  0  0  0  1  0  0  0  0  0  0
  187.2430  178.0180  141.7210 C   0  0  1  0  0  3  0  0  0  0  0  0
  188.4350  177.2300  144.2600 C   0  0  0  0  0  0  0  0  0  0  0  0
  188.9720  176.7890  145.3100 O   0  0  0  0  0  0  0  0  0  0  0  0
  189.2340  177.3920  143.0870 N   0  0  0  0  0  2  0  0  0  0  0  0
  188.7670  178.0950  141.8960 C   0  0  1  0  0  3  0  0  0  0  0  0
  186.3050  177.8840  145.4820 C   0  0  0  0  0  0  0  0  0  0  0  0
  186.9430  177.4270  144.1840 C   0  0  1  0  0  3  0  0  0  0  0  0
  186.5950  177.3570  146.5430 O   0  0  0  0  0  0  0  0  0  0  0  0
  182.0620  178.3420  143.4460 C   0  0  0  0  0  2  0  0  0  0  0  0
  181.8990  178.9240  142.1080 N   0  0  0  0  0  0  0  0  0  0  0  0
  183.1790  179.2240  141.4460 C   0  0  0  0  0  2  0  0  0  0  0  0
  184.4220  178.8500  144.1900 C   0  0  2  0  0  3  0  0  0  0  0  0
  184.2700  178.1980  141.7570 C   0  0  0  0  0  2  0  0  0  0  0  0
  185.0390  178.5400  143.0140 C   0  0  2  0  0  3  0  0  0  0  0  0
  189.4820  176.7600  138.3940 C   0  0  0  0  0  3  0  0  0  0  0  0
  190.8930  177.4870  140.7240 C   0  0  0  0  0  3  0  0  0  0  0  0
  193.1720  176.2990  138.0030 C   0  0  1  0  0  3  0  0  0  0  0  0
  191.7680  176.1860  137.3850 C   0  0  0  0  0  2  0  0  0  0  0  0
  190.8720  176.6680  138.4560 C   0  0  0  0  0  0  0  0  0  0  0  0
  193.0190  176.8320  139.4380 C   0  0  2  0  0  3  0  0  0  0  0  0
  191.5600  177.0220  139.5880 C   0  0  0  0  0  0  0  0  0  0  0  0
  193.6700  178.0600  139.5470 O   0  0  0  0  0  1  0  0  0  0  0  0
  189.4930  177.5930  140.6880 C   0  0  0  0  0  0  0  0  0  0  0  0
  188.7910  177.2290  139.5200 C   0  0  0  0  0  3  0  0  0  0  0  0
  193.8600  174.9730  138.0000 C   0  0  0  0  0  0  0  0  0  0  0  0
  193.2850  173.9510  137.5380 O   0  0  0  0  0  0  0  0  0  0  0  0
  195.1440  174.8670  138.5140 O   0  0  0  0  0  1  0  0  0  0  0  0
  181.1960  177.9450  141.2900 C   0  0  0  0  0  2  0  0  0  0  0  0
  179.3220  176.5270  141.7020 O   0  0  0  0  0  1  0  0  0  0  0  0
  179.7390  177.8580  141.7080 C   0  0  0  0  0  2  0  0  0  0  0  0
  1 11  1  0  0  0  0
  3 10  1  0  0  0  0
  4  5  1  0  0  0  0
  5  9  1  0  0  0  0
  5  1  1  0  0  0  0
  6  7  2  0  0  0  0
  8  6  1  0  0  0  0
  9  8  1  0  0  0  0
 10 12  2  0  0  0  0
 11  6  1  0  0  0  0
 11 10  1  0  0  0  0
 13  2  1  0  0  0  0
 14 13  1  0  0  0  0
 15 17  1  0  0  0  0
 15 14  1  0  0  0  0
 16  2  1  0  0  0  0
 16  3  1  0  0  0  0
 17 18  1  0  0  0  0
 18  1  1  0  0  0  0
 18 16  1  0  0  0  0
 19 23  2  0  0  0  0
 19 28  1  0  0  0  0
 21 24  1  0  0  0  0
 22 21  1  0  0  0  0
 22 23  1  0  0  0  0
 23 25  1  0  0  0  0
 24 26  1  0  0  0  0
 24 25  1  0  0  0  0
 25 20  2  0  0  0  0
 27 20  1  0  0  0  0
 27  9  1  0  0  0  0
 28 27  2  0  0  0  0
 29 21  1  0  0  0  0
 29 31  1  0  0  0  0
 30 29  2  0  0  0  0
 32 34  1  0  0  0  0
 32 14  1  0  0  0  0
 33 34  1  0  0  0  0
M  END
>  <MODEL>
2

>  <REMARK>
 VINA RESULT:      -9.4      4.233      6.743
  Name = 
  4 active torsions:
  status: ('A' for Active; 'I' for Inactive)
    1  A    between atoms: C_3  and  C_24
    2  A    between atoms: C_3  and  N_25
    3  A    between atoms: C_7  and  C_11
    4  A    between atoms: C_18  and  C_30
                            x       y       z     vdW  Elec       q    Type
                         _______ _______ _______ _____ _____    ______ ____

>  <TORSDO>
F 4

$$$$
=
 OpenBabel11052415513D

 34 38  0  0  1  0  0  0  0  0999 V2000
  187.4160  177.5760  145.3800 C   0  0  2  0  0  3  0  0  0  0  0  0
  191.2050  176.7420  145.7400 C   0  0  0  0  0  2  0  0  0  0  0  0
  189.3040  177.1540  147.4070 C   0  0  0  0  0  2  0  0  0  0  0  0
  186.5070  176.8400  143.2240 N   0  0  0  0  0  1  0  0  0  0  0  0
  186.4110  177.8660  144.2510 C   0  0  1  0  0  3  0  0  0  0  0  0
  185.9230  178.8720  146.9410 C   0  0  0  0  0  0  0  0  0  0  0  0
  185.6810  179.4050  148.0560 O   0  0  0  0  0  0  0  0  0  0  0  0
  184.8470  178.6480  146.0310 N   0  0  0  0  0  2  0  0  0  0  0  0
  184.9830  177.8460  144.8180 C   0  0  1  0  0  3  0  0  0  0  0  0
  188.2920  178.2490  147.6220 C   0  0  0  0  0  0  0  0  0  0  0  0
  187.3430  178.6280  146.5000 C   0  0  1  0  0  3  0  0  0  0  0  0
  188.2900  178.8610  148.6780 O   0  0  0  0  0  0  0  0  0  0  0  0
  191.8590  177.5210  144.6070 C   0  0  0  0  0  2  0  0  0  0  0  0
  191.6660  176.8370  143.3220 N   0  0  0  0  0  0  0  0  0  0  0  0
  190.2550  176.5270  143.0360 C   0  0  0  0  0  2  0  0  0  0  0  0
  189.7680  177.1370  145.9690 C   0  0  2  0  0  3  0  0  0  0  0  0
  189.2910  177.6040  143.5360 C   0  0  0  0  0  2  0  0  0  0  0  0
  188.8700  177.3770  144.9710 C   0  0  2  0  0  3  0  0  0  0  0  0
  181.7350  179.0620  143.2280 C   0  0  0  0  0  3  0  0  0  0  0  0
  184.3360  178.3080  142.4450 C   0  0  0  0  0  3  0  0  0  0  0  0
  182.2130  179.3010  139.5280 C   0  0  1  0  0  3  0  0  0  0  0  0
  181.2770  179.4640  140.7380 C   0  0  0  0  0  2  0  0  0  0  0  0
  182.1220  179.0840  141.8890 C   0  0  0  0  0  0  0  0  0  0  0  0
  183.5760  178.8050  140.0420 C   0  0  2  0  0  3  0  0  0  0  0  0
  183.3870  178.7200  141.5060 C   0  0  0  0  0  0  0  0  0  0  0  0
  184.5550  179.7530  139.7450 O   0  0  0  0  0  1  0  0  0  0  0  0
  183.9740  178.2790  143.8020 C   0  0  0  0  0  0  0  0  0  0  0  0
  182.6720  178.6570  144.1900 C   0  0  0  0  0  3  0  0  0  0  0  0
  181.6370  178.3400  138.5400 C   0  0  0  0  0  0  0  0  0  0  0  0
  181.0380  177.3020  138.9270 O   0  0  0  0  0  1  0  0  0  0  0  0
  181.7660  178.5950  137.1820 O   0  0  0  0  0  0  0  0  0  0  0  0
  192.1410  177.7320  142.2750 C   0  0  0  0  0  2  0  0  0  0  0  0
  192.6370  177.5030  139.9520 O   0  0  0  0  0  1  0  0  0  0  0  0
  191.6590  177.2570  140.9160 C   0  0  0  0  0  2  0  0  0  0  0  0
  1 11  1  0  0  0  0
  2 16  1  0  0  0  0
  3 10  1  0  0  0  0
  4  5  1  0  0  0  0
  5  9  1  0  0  0  0
  5  1  1  0  0  0  0
  6  7  2  0  0  0  0
  8  6  1  0  0  0  0
  9  8  1  0  0  0  0
 10 12  2  0  0  0  0
 11  6  1  0  0  0  0
 11 10  1  0  0  0  0
 13  2  1  0  0  0  0
 14 13  1  0  0  0  0
 15 14  1  0  0  0  0
 15 17  1  0  0  0  0
 16  3  1  0  0  0  0
 17 18  1  0  0  0  0
 18  1  1  0  0  0  0
 18 16  1  0  0  0  0
 19 28  1  0  0  0  0
 20 27  1  0  0  0  0
 21 24  1  0  0  0  0
 21 22  1  0  0  0  0
 22 23  1  0  0  0  0
 23 19  2  0  0  0  0
 24 25  1  0  0  0  0
 25 23  1  0  0  0  0
 25 20  2  0  0  0  0
 26 24  1  0  0  0  0
 27 28  2  0  0  0  0
 27  9  1  0  0  0  0
 29 30  1  0  0  0  0
 29 21  1  0  0  0  0
 31 29  2  0  0  0  0
 32 14  1  0  0  0  0
 33 34  1  0  0  0  0
 34 32  1  0  0  0  0
M  END
>  <MODEL>
3

>  <REMARK>
 VINA RESULT:      -9.1      2.924      8.496
  Name = 
  4 active torsions:
  status: ('A' for Active; 'I' for Inactive)
    1  A    between atoms: C_3  and  C_24
    2  A    between atoms: C_3  and  N_25
    3  A    between atoms: C_7  and  C_11
    4  A    between atoms: C_18  and  C_30
                            x       y       z     vdW  Elec       q    Type
                         _______ _______ _______ _____ _____    ______ ____

>  <TORSDO>
F 4

$$$$
=
 OpenBabel11052415513D

 34 38  0  0  1  0  0  0  0  0999 V2000
  188.6200  177.9450  144.1310 C   0  0  2  0  0  3  0  0  0  0  0  0
  186.0660  178.8680  146.9260 C   0  0  0  0  0  2  0  0  0  0  0  0
  188.5390  178.2010  146.9210 C   0  0  0  0  0  2  0  0  0  0  0  0
  187.9930  178.8900  141.9560 N   0  0  0  0  0  1  0  0  0  0  0  0
  188.6240  177.7500  142.6050 C   0  0  1  0  0  3  0  0  0  0  0  0
  190.6270  176.4270  144.2570 C   0  0  0  0  0  0  0  0  0  0  0  0
  191.4750  175.7620  144.9080 O   0  0  0  0  0  0  0  0  0  0  0  0
  190.8770  176.7150  142.8820 N   0  0  0  0  0  2  0  0  0  0  0  0
  190.0740  177.6550  142.1040 C   0  0  1  0  0  3  0  0  0  0  0  0
  189.3340  177.0530  146.3550 C   0  0  0  0  0  0  0  0  0  0  0  0
  189.2910  176.7710  144.8640 C   0  0  1  0  0  3  0  0  0  0  0  0
  189.9540  176.3250  147.1130 O   0  0  0  0  0  0  0  0  0  0  0  0
  184.7600  178.2470  146.4460 C   0  0  0  0  0  2  0  0  0  0  0  0
  184.1470  179.0650  145.3920 N   0  0  0  0  0  0  0  0  0  0  0  0
  185.0640  179.3550  144.2770 C   0  0  0  0  0  2  0  0  0  0  0  0
  187.2620  178.3980  146.1370 C   0  0  2  0  0  3  0  0  0  0  0  0
  186.0070  178.1950  143.9580 C   0  0  0  0  0  2  0  0  0  0  0  0
  187.2740  178.2410  144.7820 C   0  0  2  0  0  3  0  0  0  0  0  0
  189.0750  177.0890  138.4660 C   0  0  0  0  0  3  0  0  0  0  0  0
  191.3540  176.8570  140.1080 C   0  0  0  0  0  3  0  0  0  0  0  0
  192.0530  175.8600  136.5690 C   0  0  1  0  0  3  0  0  0  0  0  0
  190.5630  176.2450  136.5570 C   0  0  0  0  0  2  0  0  0  0  0  0
  190.2940  176.6510  137.9520 C   0  0  0  0  0  0  0  0  0  0  0  0
  192.5820  176.0440  138.0020 C   0  0  2  0  0  3  0  0  0  0  0  0
  191.4050  176.5390  138.7490 C   0  0  0  0  0  0  0  0  0  0  0  0
  193.5850  177.0130  138.0040 O   0  0  0  0  0  1  0  0  0  0  0  0
  190.1390  177.3040  140.6510 C   0  0  0  0  0  0  0  0  0  0  0  0
  189.0010  177.4200  139.8260 C   0  0  0  0  0  3  0  0  0  0  0  0
  192.2380  174.4490  136.1130 C   0  0  0  0  0  0  0  0  0  0  0  0
  191.5040  173.5280  136.5580 O   0  0  0  0  0  1  0  0  0  0  0  0
  193.2310  174.1530  135.1900 O   0  0  0  0  0  0  0  0  0  0  0  0
  183.0220  178.3120  144.8540 C   0  0  0  0  0  2  0  0  0  0  0  0
  181.0260  178.8450  143.6600 O   0  0  0  0  0  1  0  0  0  0  0  0
  182.4050  179.0530  143.6810 C   0  0  0  0  0  2  0  0  0  0  0  0
  1 18  1  0  0  0  0
  1 11  1  0  0  0  0
  4  5  1  0  0  0  0
  5  1  1  0  0  0  0
  6 11  1  0  0  0  0
  6  7  2  0  0  0  0
  8  6  1  0  0  0  0
  9  5  1  0  0  0  0
  9  8  1  0  0  0  0
 10  3  1  0  0  0  0
 10 12  2  0  0  0  0
 11 10  1  0  0  0  0
 13  2  1  0  0  0  0
 14 13  1  0  0  0  0
 15 14  1  0  0  0  0
 16  3  1  0  0  0  0
 16  2  1  0  0  0  0
 17 15  1  0  0  0  0
 17 18  1  0  0  0  0
 18 16  1  0  0  0  0
 19 28  1  0  0  0  0
 20 27  1  0  0  0  0
 21 24  1  0  0  0  0
 22 21  1  0  0  0  0
 22 23  1  0  0  0  0
 23 19  2  0  0  0  0
 23 25  1  0  0  0  0
 24 26  1  0  0  0  0
 24 25  1  0  0  0  0
 25 20  2  0  0  0  0
 27  9  1  0  0  0  0
 28 27  2  0  0  0  0
 29 30  1  0  0  0  0
 29 21  1  0  0  0  0
 31 29  2  0  0  0  0
 32 14  1  0  0  0  0
 33 34  1  0  0  0  0
 34 32  1  0  0  0  0
M  END
>  <MODEL>
4

>  <REMARK>
 VINA RESULT:      -9.0      4.548      8.574
  Name = 
  4 active torsions:
  status: ('A' for Active; 'I' for Inactive)
    1  A    between atoms: C_3  and  C_24
    2  A    between atoms: C_3  and  N_25
    3  A    between atoms: C_7  and  C_11
    4  A    between atoms: C_18  and  C_30
                            x       y       z     vdW  Elec       q    Type
                         _______ _______ _______ _____ _____    ______ ____

>  <TORSDO>
F 4

$$$$
=
 OpenBabel11052415513D

 34 38  0  0  1  0  0  0  0  0999 V2000
  189.3120  177.8680  139.5460 C   0  0  2  0  0  3  0  0  0  0  0  0
  190.4770  177.0530  135.9170 C   0  0  0  0  0  2  0  0  0  0  0  0
  188.6880  178.5940  136.9120 C   0  0  0  0  0  2  0  0  0  0  0  0
  191.0680  177.4290  141.2020 N   0  0  0  0  0  1  0  0  0  0  0  0
  189.6290  177.4070  140.9790 C   0  0  1  0  0  3  0  0  0  0  0  0
  187.0350  178.5790  140.3570 C   0  0  0  0  0  0  0  0  0  0  0  0
  185.8680  179.0030  140.1520 O   0  0  0  0  0  0  0  0  0  0  0  0
  187.5680  178.6260  141.6800 N   0  0  0  0  0  2  0  0  0  0  0  0
  188.9730  178.3680  141.9830 C   0  0  1  0  0  3  0  0  0  0  0  0
  187.5390  178.4160  137.8710 C   0  0  0  0  0  0  0  0  0  0  0  0
  187.8000  177.8760  139.2650 C   0  0  1  0  0  3  0  0  0  0  0  0
  186.4040  178.6500  137.4910 O   0  0  0  0  0  0  0  0  0  0  0  0
  190.7910  175.5640  135.9610 C   0  0  0  0  0  2  0  0  0  0  0  0
  192.0880  175.3200  136.6050 N   0  0  0  0  0  0  0  0  0  0  0  0
  192.2040  175.9480  137.9320 C   0  0  0  0  0  2  0  0  0  0  0  0
  189.7390  177.5330  137.1420 C   0  0  2  0  0  3  0  0  0  0  0  0
  190.8930  175.9350  138.7180 C   0  0  0  0  0  2  0  0  0  0  0  0
  190.0290  177.1400  138.4160 C   0  0  2  0  0  3  0  0  0  0  0  0
  188.1620  177.4640  145.6000 C   0  0  0  0  0  3  0  0  0  0  0  0
  190.3490  177.3770  143.8230 C   0  0  0  0  0  3  0  0  0  0  0  0
  191.2240  176.0480  147.2110 C   0  0  1  0  0  3  0  0  0  0  0  0
  189.7460  176.4530  147.3440 C   0  0  0  0  0  2  0  0  0  0  0  0
  189.4000  176.9650  146.0020 C   0  0  0  0  0  0  0  0  0  0  0  0
  191.6800  176.3680  145.7770 C   0  0  2  0  0  3  0  0  0  0  0  0
  190.4650  176.9200  145.1390 C   0  0  0  0  0  0  0  0  0  0  0  0
  192.0560  175.1880  145.1360 O   0  0  0  0  0  1  0  0  0  0  0  0
  189.1120  177.8810  143.3910 C   0  0  0  0  0  0  0  0  0  0  0  0
  188.0200  177.9230  144.2830 C   0  0  0  0  0  3  0  0  0  0  0  0
  192.0650  176.7750  148.2090 C   0  0  0  0  0  0  0  0  0  0  0  0
  191.6870  177.8790  148.6850 O   0  0  0  0  0  1  0  0  0  0  0  0
  193.2740  176.2280  148.6140 O   0  0  0  0  0  0  0  0  0  0  0  0
  192.2220  173.8800  136.7840 C   0  0  0  0  0  2  0  0  0  0  0  0
  194.3890  173.2670  137.5740 O   0  0  0  0  0  1  0  0  0  0  0  0
  193.6260  173.4330  136.4180 C   0  0  0  0  0  2  0  0  0  0  0  0
  1  5  1  0  0  0  0
  2 13  1  0  0  0  0
  2 16  1  0  0  0  0
  3 16  1  0  0  0  0
  3 10  1  0  0  0  0
  5  4  1  0  0  0  0
  5  9  1  0  0  0  0
  6  8  1  0  0  0  0
  7  6  2  0  0  0  0
  8  9  1  0  0  0  0
  9 27  1  0  0  0  0
 10 11  1  0  0  0  0
 11  1  1  0  0  0  0
 11  6  1  0  0  0  0
 12 10  2  0  0  0  0
 13 14  1  0  0  0  0
 14 32  1  0  0  0  0
 14 15  1  0  0  0  0
 15 17  1  0  0  0  0
 16 18  1  0  0  0  0
 18 17  1  0  0  0  0
 18  1  1  0  0  0  0
 19 23  1  0  0  0  0
 20 25  1  0  0  0  0
 21 22  1  0  0  0  0
 21 29  1  0  0  0  0
 23 22  1  0  0  0  0
 24 21  1  0  0  0  0
 25 24  1  0  0  0  0
 25 23  2  0  0  0  0
 26 24  1  0  0  0  0
 27 20  2  0  0  0  0
 27 28  1  0  0  0  0
 28 19  2  0  0  0  0
 29 31  2  0  0  0  0
 29 30  1  0  0  0  0
 34 32  1  0  0  0  0
 34 33  1  0  0  0  0
M  END
>  <MODEL>
5

>  <REMARK>
 VINA RESULT:      -9.0      5.024      6.851
  Name = 
  4 active torsions:
  status: ('A' for Active; 'I' for Inactive)
    1  A    between atoms: C_3  and  C_24
    2  A    between atoms: C_3  and  N_25
    3  A    between atoms: C_7  and  C_11
    4  A    between atoms: C_18  and  C_30
                            x       y       z     vdW  Elec       q    Type
                         _______ _______ _______ _____ _____    ______ ____

>  <TORSDO>
F 4

$$$$
=
 OpenBabel11052415513D

 34 38  0  0  1  0  0  0  0  0999 V2000
  189.0690  177.6670  138.8090 C   0  0  2  0  0  3  0  0  0  0  0  0
  190.8710  176.5920  135.5250 C   0  0  0  0  0  2  0  0  0  0  0  0
  189.0120  178.2670  136.0710 C   0  0  0  0  0  2  0  0  0  0  0  0
  190.4400  177.2450  140.7980 N   0  0  0  0  0  1  0  0  0  0  0  0
  189.0740  177.2760  140.2960 C   0  0  1  0  0  3  0  0  0  0  0  0
  186.7210  178.5270  139.1180 C   0  0  0  0  0  0  0  0  0  0  0  0
  185.6420  178.9910  138.6660 O   0  0  0  0  0  0  0  0  0  0  0  0
  186.9880  178.6270  140.5170 N   0  0  0  0  0  2  0  0  0  0  0  0
  188.2900  178.3220  141.1040 C   0  0  1  0  0  3  0  0  0  0  0  0
  187.6900  178.1980  136.7910 C   0  0  0  0  0  0  0  0  0  0  0  0
  187.6430  177.7280  138.2340 C   0  0  1  0  0  3  0  0  0  0  0  0
  186.6660  178.4610  136.1840 O   0  0  0  0  0  0  0  0  0  0  0  0
  191.0860  175.0940  135.7010 C   0  0  0  0  0  2  0  0  0  0  0  0
  192.2170  174.8290  136.6000 N   0  0  0  0  0  0  0  0  0  0  0  0
  192.1070  175.5270  137.8910 C   0  0  0  0  0  2  0  0  0  0  0  0
  189.9360  177.1740  136.5550 C   0  0  2  0  0  3  0  0  0  0  0  0
  190.6690  175.6190  138.4030 C   0  0  0  0  0  2  0  0  0  0  0  0
  189.9500  176.8430  137.8790 C   0  0  2  0  0  3  0  0  0  0  0  0
  186.7240  177.1290  144.3720 C   0  0  0  0  0  3  0  0  0  0  0  0
  189.2400  177.9280  143.3850 C   0  0  0  0  0  3  0  0  0  0  0  0
  189.3700  177.0090  147.0100 C   0  0  1  0  0  3  0  0  0  0  0  0
  187.8940  176.8000  146.6290 C   0  0  0  0  0  2  0  0  0  0  0  0
  187.8490  177.1510  145.1950 C   0  0  0  0  0  0  0  0  0  0  0  0
  190.1210  177.5000  145.7610 C   0  0  2  0  0  3  0  0  0  0  0  0
  189.0740  177.5380  144.7160 C   0  0  0  0  0  0  0  0  0  0  0  0
  191.1010  176.5700  145.4150 O   0  0  0  0  0  1  0  0  0  0  0  0
  188.1240  177.9120  142.5330 C   0  0  0  0  0  0  0  0  0  0  0  0
  186.8670  177.5110  143.0300 C   0  0  0  0  0  3  0  0  0  0  0  0
  189.4930  177.9960  148.1260 C   0  0  0  0  0  0  0  0  0  0  0  0
  190.6170  178.2570  148.6320 O   0  0  0  0  0  1  0  0  0  0  0  0
  188.3570  178.6290  148.6080 O   0  0  0  0  0  0  0  0  0  0  0  0
  192.2320  173.3980  136.8700 C   0  0  0  0  0  2  0  0  0  0  0  0
  194.6080  173.3090  136.6600 O   0  0  0  0  0  1  0  0  0  0  0  0
  193.4220  172.7460  136.1880 C   0  0  0  0  0  2  0  0  0  0  0  0
  1  5  1  0  0  0  0
  2 13  1  0  0  0  0
  2 16  1  0  0  0  0
  3 16  1  0  0  0  0
  3 10  1  0  0  0  0
  5  4  1  0  0  0  0
  5  9  1  0  0  0  0
  6  8  1  0  0  0  0
  7  6  2  0  0  0  0
  8  9  1  0  0  0  0
  9 27  1  0  0  0  0
 10 11  1  0  0  0  0
 11  1  1  0  0  0  0
 11  6  1  0  0  0  0
 12 10  2  0  0  0  0
 13 14  1  0  0  0  0
 14 32  1  0  0  0  0
 14 15  1  0  0  0  0
 15 17  1  0  0  0  0
 16 18  1  0  0  0  0
 18 17  1  0  0  0  0
 18  1  1  0  0  0  0
 19 23  1  0  0  0  0
 20 25  1  0  0  0  0
 21 29  1  0  0  0  0
 22 21  1  0  0  0  0
 23 22  1  0  0  0  0
 24 21  1  0  0  0  0
 25 23  2  0  0  0  0
 25 24  1  0  0  0  0
 26 24  1  0  0  0  0
 27 28  1  0  0  0  0
 27 20  2  0  0  0  0
 28 19  2  0  0  0  0
 29 31  2  0  0  0  0
 29 30  1  0  0  0  0
 34 33  1  0  0  0  0
 34 32  1  0  0  0  0
M  END
>  <MODEL>
6

>  <REMARK>
 VINA RESULT:      -8.7      5.198      6.969
  Name = 
  4 active torsions:
  status: ('A' for Active; 'I' for Inactive)
    1  A    between atoms: C_3  and  C_24
    2  A    between atoms: C_3  and  N_25
    3  A    between atoms: C_7  and  C_11
    4  A    between atoms: C_18  and  C_30
                            x       y       z     vdW  Elec       q    Type
                         _______ _______ _______ _____ _____    ______ ____

>  <TORSDO>
F 4

$$$$
=
 OpenBabel11052415513D

 34 38  0  0  1  0  0  0  0  0999 V2000
  186.5240  178.4270  143.1670 C   0  0  2  0  0  3  0  0  0  0  0  0
  182.9180  179.3110  144.3510 C   0  0  0  0  0  2  0  0  0  0  0  0
  185.1750  179.0720  145.5370 C   0  0  0  0  0  2  0  0  0  0  0  0
  186.8650  178.9240  140.7890 N   0  0  0  0  0  1  0  0  0  0  0  0
  187.2310  178.0130  141.8640 C   0  0  1  0  0  3  0  0  0  0  0  0
  188.3790  177.3000  144.4450 C   0  0  0  0  0  0  0  0  0  0  0  0
  188.8970  176.8880  145.5160 O   0  0  0  0  0  0  0  0  0  0  0  0
  189.1970  177.4210  143.2810 N   0  0  0  0  0  2  0  0  0  0  0  0
  188.7530  178.0880  142.0600 C   0  0  1  0  0  3  0  0  0  0  0  0
  186.2340  178.0020  145.6130 C   0  0  0  0  0  0  0  0  0  0  0  0
  186.8900  177.5010  144.3400 C   0  0  1  0  0  3  0  0  0  0  0  0
  186.5050  177.5070  146.6950 O   0  0  0  0  0  0  0  0  0  0  0  0
  182.0260  178.4170  143.4990 C   0  0  0  0  0  2  0  0  0  0  0  0
  181.8860  178.9580  142.1410 N   0  0  0  0  0  0  0  0  0  0  0  0
  183.1780  179.2300  141.4890 C   0  0  0  0  0  2  0  0  0  0  0  0
  184.3760  178.9360  144.2620 C   0  0  2  0  0  3  0  0  0  0  0  0
  184.2580  178.2090  141.8490 C   0  0  0  0  0  2  0  0  0  0  0  0
  185.0100  178.5860  143.1060 C   0  0  2  0  0  3  0  0  0  0  0  0
  191.5780  176.8650  139.8070 C   0  0  0  0  0  3  0  0  0  0  0  0
  188.7800  177.1990  139.7220 C   0  0  0  0  0  3  0  0  0  0  0  0
  190.1370  175.8110  136.5220 C   0  0  1  0  0  3  0  0  0  0  0  0
  191.3840  175.9910  137.4050 C   0  0  0  0  0  2  0  0  0  0  0  0
  190.8430  176.5260  138.6710 C   0  0  0  0  0  0  0  0  0  0  0  0
  188.9120  176.2780  137.3260 C   0  0  2  0  0  3  0  0  0  0  0  0
  189.4820  176.6860  138.6290 C   0  0  0  0  0  0  0  0  0  0  0  0
  188.0400  175.2050  137.5070 O   0  0  0  0  0  1  0  0  0  0  0  0
  189.4940  177.5450  140.8800 C   0  0  0  0  0  0  0  0  0  0  0  0
  190.8940  177.3760  140.9200 C   0  0  0  0  0  3  0  0  0  0  0  0
  190.2690  176.5910  135.2550 C   0  0  0  0  0  0  0  0  0  0  0  0
  191.3410  176.5690  134.5940 O   0  0  0  0  0  0  0  0  0  0  0  0
  189.1970  177.3490  134.8040 O   0  0  0  0  0  1  0  0  0  0  0  0
  181.1910  177.9580  141.3420 C   0  0  0  0  0  2  0  0  0  0  0  0
  179.7110  179.8230  141.1760 O   0  0  0  0  0  1  0  0  0  0  0  0
  180.0270  178.5920  140.6010 C   0  0  0  0  0  2  0  0  0  0  0  0
  1 11  1  0  0  0  0
  3 10  1  0  0  0  0
  4  5  1  0  0  0  0
  5  9  1  0  0  0  0
  5  1  1  0  0  0  0
  6  7  2  0  0  0  0
  8  6  1  0  0  0  0
  9  8  1  0  0  0  0
 10 12  2  0  0  0  0
 11  6  1  0  0  0  0
 11 10  1  0  0  0  0
 13  2  1  0  0  0  0
 14 13  1  0  0  0  0
 15 17  1  0  0  0  0
 15 14  1  0  0  0  0
 16  2  1  0  0  0  0
 16  3  1  0  0  0  0
 17 18  1  0  0  0  0
 18  1  1  0  0  0  0
 18 16  1  0  0  0  0
 19 28  1  0  0  0  0
 20 27  1  0  0  0  0
 21 24  1  0  0  0  0
 21 22  1  0  0  0  0
 22 23  1  0  0  0  0
 23 19  2  0  0  0  0
 24 26  1  0  0  0  0
 24 25  1  0  0  0  0
 25 23  1  0  0  0  0
 25 20  2  0  0  0  0
 27 28  2  0  0  0  0
 27  9  1  0  0  0  0
 29 21  1  0  0  0  0
 30 29  2  0  0  0  0
 31 29  1  0  0  0  0
 32 14  1  0  0  0  0
 34 33  1  0  0  0  0
 34 32  1  0  0  0  0
M  END
>  <MODEL>
7

>  <REMARK>
 VINA RESULT:      -8.6      3.985      6.979
  Name = 
  4 active torsions:
  status: ('A' for Active; 'I' for Inactive)
    1  A    between atoms: C_3  and  C_24
    2  A    between atoms: C_3  and  N_25
    3  A    between atoms: C_7  and  C_11
    4  A    between atoms: C_18  and  C_30
                            x       y       z     vdW  Elec       q    Type
                         _______ _______ _______ _____ _____    ______ ____

>  <TORSDO>
F 4

$$$$
=
 OpenBabel11052415513D

 34 38  0  0  1  0  0  0  0  0999 V2000
  186.0560  178.6170  142.4600 C   0  0  2  0  0  3  0  0  0  0  0  0
  182.7280  179.1200  144.4240 C   0  0  0  0  0  2  0  0  0  0  0  0
  185.1900  178.9290  145.1070 C   0  0  0  0  0  2  0  0  0  0  0  0
  185.8780  179.3660  140.1310 N   0  0  0  0  0  1  0  0  0  0  0  0
  186.5010  178.3840  141.0060 C   0  0  1  0  0  3  0  0  0  0  0  0
  188.1880  177.5060  143.2130 C   0  0  0  0  0  0  0  0  0  0  0  0
  188.9340  177.0300  144.1090 O   0  0  0  0  0  0  0  0  0  0  0  0
  188.7430  177.7980  141.9310 N   0  0  0  0  0  2  0  0  0  0  0  0
  188.0250  178.5480  140.9040 C   0  0  1  0  0  3  0  0  0  0  0  0
  186.2940  177.9360  144.8540 C   0  0  0  0  0  0  0  0  0  0  0  0
  186.7000  177.6090  143.4280 C   0  0  1  0  0  3  0  0  0  0  0  0
  186.8050  177.3580  145.7990 O   0  0  0  0  0  0  0  0  0  0  0  0
  181.7270  178.2520  143.6730 C   0  0  0  0  0  2  0  0  0  0  0  0
  181.2850  178.9120  142.4380 N   0  0  0  0  0  0  0  0  0  0  0  0
  182.4020  179.3380  141.5770 C   0  0  0  0  0  2  0  0  0  0  0  0
  184.1550  178.8610  144.0080 C   0  0  2  0  0  3  0  0  0  0  0  0
  183.5820  178.3670  141.6010 C   0  0  0  0  0  2  0  0  0  0  0  0
  184.5550  178.6720  142.7180 C   0  0  2  0  0  3  0  0  0  0  0  0
  189.0550  178.7640  137.2370 C   0  0  0  0  0  3  0  0  0  0  0  0
  188.9850  176.8660  139.3200 C   0  0  0  0  0  3  0  0  0  0  0  0
  190.3450  175.4300  136.1420 C   0  0  1  0  0  3  0  0  0  0  0  0
  190.0210  176.8900  135.7790 C   0  0  0  0  0  2  0  0  0  0  0  0
  189.4970  177.4570  137.0390 C   0  0  0  0  0  0  0  0  0  0  0  0
  189.9670  175.2100  137.6170 C   0  0  2  0  0  3  0  0  0  0  0  0
  189.4660  176.5330  138.0510 C   0  0  0  0  0  0  0  0  0  0  0  0
  191.1100  174.8770  138.3430 O   0  0  0  0  0  1  0  0  0  0  0  0
  188.5360  178.1770  139.5480 C   0  0  0  0  0  0  0  0  0  0  0  0
  188.5740  179.1240  138.5030 C   0  0  0  0  0  3  0  0  0  0  0  0
  189.5980  174.4870  135.2570 C   0  0  0  0  0  0  0  0  0  0  0  0
  188.5810  174.8700  134.6210 O   0  0  0  0  0  0  0  0  0  0  0  0
  190.0300  173.1740  135.1370 O   0  0  0  0  0  1  0  0  0  0  0  0
  180.4930  177.9470  141.6870 C   0  0  0  0  0  2  0  0  0  0  0  0
  179.7900  177.9410  139.4070 O   0  0  0  0  0  1  0  0  0  0  0  0
  179.6940  178.6500  140.6040 C   0  0  0  0  0  2  0  0  0  0  0  0
  1 18  1  0  0  0  0
  1 11  1  0  0  0  0
  4  5  1  0  0  0  0
  5  1  1  0  0  0  0
  6 11  1  0  0  0  0
  6  7  2  0  0  0  0
  8  6  1  0  0  0  0
  9  5  1  0  0  0  0
  9  8  1  0  0  0  0
 10  3  1  0  0  0  0
 10 12  2  0  0  0  0
 11 10  1  0  0  0  0
 13  2  1  0  0  0  0
 14 13  1  0  0  0  0
 15 17  1  0  0  0  0
 15 14  1  0  0  0  0
 16  2  1  0  0  0  0
 16  3  1  0  0  0  0
 17 18  1  0  0  0  0
 18 16  1  0  0  0  0
 19 28  1  0  0  0  0
 20 27  1  0  0  0  0
 21 24  1  0  0  0  0
 22 21  1  0  0  0  0
 22 23  1  0  0  0  0
 23 19  2  0  0  0  0
 23 25  1  0  0  0  0
 24 25  1  0  0  0  0
 24 26  1  0  0  0  0
 25 20  2  0  0  0  0
 27  9  1  0  0  0  0
 28 27  2  0  0  0  0
 29 21  1  0  0  0  0
 30 29  2  0  0  0  0
 31 29  1  0  0  0  0
 32 14  1  0  0  0  0
 33 34  1  0  0  0  0
 34 32  1  0  0  0  0
M  END
>  <MODEL>
8

>  <REMARK>
 VINA RESULT:      -8.4      3.956      7.108
  Name = 
  4 active torsions:
  status: ('A' for Active; 'I' for Inactive)
    1  A    between atoms: C_3  and  C_24
    2  A    between atoms: C_3  and  N_25
    3  A    between atoms: C_7  and  C_11
    4  A    between atoms: C_18  and  C_30
                            x       y       z     vdW  Elec       q    Type
                         _______ _______ _______ _____ _____    ______ ____

>  <TORSDO>
F 4

$$$$
=
 OpenBabel11052415513D

 34 38  0  0  1  0  0  0  0  0999 V2000
  187.2690  177.6070  144.8900 C   0  0  2  0  0  3  0  0  0  0  0  0
  191.0170  176.7700  145.5520 C   0  0  0  0  0  2  0  0  0  0  0  0
  188.9760  177.1220  147.0590 C   0  0  0  0  0  2  0  0  0  0  0  0
  186.5550  176.9400  142.6400 N   0  0  0  0  0  1  0  0  0  0  0  0
  186.3650  177.9320  143.6890 C   0  0  1  0  0  3  0  0  0  0  0  0
  185.6400  178.8480  146.3580 C   0  0  0  0  0  0  0  0  0  0  0  0
  185.2990  179.3430  147.4640 O   0  0  0  0  0  0  0  0  0  0  0  0
  184.6480  178.6510  145.3500 N   0  0  0  0  0  2  0  0  0  0  0  0
  184.8930  177.8900  144.1280 C   0  0  1  0  0  3  0  0  0  0  0  0
  187.9430  178.2070  147.2220 C   0  0  0  0  0  0  0  0  0  0  0  0
  187.0940  178.6210  146.0340 C   0  0  1  0  0  3  0  0  0  0  0  0
  187.8470  178.7840  148.2920 O   0  0  0  0  0  0  0  0  0  0  0  0
  191.7630  177.5880  144.5050 C   0  0  0  0  0  2  0  0  0  0  0  0
  191.6860  176.9470  143.1870 N   0  0  0  0  0  0  0  0  0  0  0  0
  190.3070  176.6430  142.7700 C   0  0  0  0  0  2  0  0  0  0  0  0
  189.5630  177.1540  145.6680 C   0  0  2  0  0  3  0  0  0  0  0  0
  189.2980  177.7000  143.2180 C   0  0  0  0  0  2  0  0  0  0  0  0
  188.7550  177.4260  144.6030 C   0  0  2  0  0  3  0  0  0  0  0  0
  183.5800  179.0020  140.7230 C   0  0  0  0  0  3  0  0  0  0  0  0
  182.6200  178.5760  143.3400 C   0  0  0  0  0  3  0  0  0  0  0  0
  179.9240  179.7300  141.0140 C   0  0  1  0  0  3  0  0  0  0  0  0
  181.1800  179.6800  140.1270 C   0  0  0  0  0  2  0  0  0  0  0  0
  182.2390  179.2120  141.0450 C   0  0  0  0  0  0  0  0  0  0  0  0
  180.3260  179.3000  142.4360 C   0  0  2  0  0  3  0  0  0  0  0  0
  181.7700  179.0040  142.3160 C   0  0  0  0  0  0  0  0  0  0  0  0
  179.6320  178.1410  142.7820 O   0  0  0  0  0  1  0  0  0  0  0  0
  183.9740  178.3540  143.0430 C   0  0  0  0  0  0  0  0  0  0  0  0
  184.4510  178.5670  141.7320 C   0  0  0  0  0  3  0  0  0  0  0  0
  179.3360  181.1040  141.0220 C   0  0  0  0  0  0  0  0  0  0  0  0
  178.9310  181.6230  142.0950 O   0  0  0  0  0  1  0  0  0  0  0  0
  179.2370  181.8120  139.8330 O   0  0  0  0  0  0  0  0  0  0  0  0
  192.2460  177.8770  142.2160 C   0  0  0  0  0  2  0  0  0  0  0  0
  193.0340  177.2050  140.0660 O   0  0  0  0  0  1  0  0  0  0  0  0
  191.8770  177.4520  140.8050 C   0  0  0  0  0  2  0  0  0  0  0  0
  1 11  1  0  0  0  0
  2 16  1  0  0  0  0
  3 10  1  0  0  0  0
  4  5  1  0  0  0  0
  5  9  1  0  0  0  0
  5  1  1  0  0  0  0
  6  7  2  0  0  0  0
  8  6  1  0  0  0  0
  9  8  1  0  0  0  0
 10 12  2  0  0  0  0
 11  6  1  0  0  0  0
 11 10  1  0  0  0  0
 13  2  1  0  0  0  0
 14 13  1  0  0  0  0
 15 14  1  0  0  0  0
 15 17  1  0  0  0  0
 16  3  1  0  0  0  0
 17 18  1  0  0  0  0
 18  1  1  0  0  0  0
 18 16  1  0  0  0  0
 19 23  2  0  0  0  0
 19 28  1  0  0  0  0
 21 29  1  0  0  0  0
 21 24  1  0  0  0  0
 22 21  1  0  0  0  0
 22 23  1  0  0  0  0
 23 25  1  0  0  0  0
 24 26  1  0  0  0  0
 25 24  1  0  0  0  0
 25 20  2  0  0  0  0
 27 20  1  0  0  0  0
 27  9  1  0  0  0  0
 28 27  2  0  0  0  0
 29 30  1  0  0  0  0
 31 29  2  0  0  0  0
 32 14  1  0  0  0  0
 33 34  1  0  0  0  0
 34 32  1  0  0  0  0
M  END
>  <MODEL>
9

>  <REMARK>
 VINA RESULT:      -8.3      2.985      8.768
  Name = 
  4 active torsions:
  status: ('A' for Active; 'I' for Inactive)
    1  A    between atoms: C_3  and  C_24
    2  A    between atoms: C_3  and  N_25
    3  A    between atoms: C_7  and  C_11
    4  A    between atoms: C_18  and  C_30
                            x       y       z     vdW  Elec       q    Type
                         _______ _______ _______ _____ _____    ______ ____

>  <TORSDO>
F 4

$$$$
