=
 OpenBabel11052413463D

 27 31  0  0  1  0  0  0  0  0999 V2000
  187.4110  178.4530  142.0610 N   0  0  0  0  0  2  0  0  0  0  0  0
  187.8510  177.5490  144.2600 C   0  0  0  0  0  0  0  0  0  0  0  0
  189.3830  176.3020  142.8040 O   0  0  0  0  0  0  0  0  0  0  0  0
  190.5710  177.1290  147.4400 C   0  0  0  0  0  3  0  0  0  0  0  0
  192.6540  176.2800  148.3090 O   0  0  0  0  0  1  0  0  0  0  0  0
  187.5790  178.1130  145.5180 C   0  0  0  0  0  3  0  0  0  0  0  0
  191.1610  176.0010  144.9460 C   0  0  0  0  0  3  0  0  0  0  0  0
  190.4290  177.1790  139.3860 C   0  0  0  0  0  0  0  0  0  0  0  0
  192.0570  175.8590  146.0100 C   0  0  0  0  0  3  0  0  0  0  0  0
  191.3710  176.7410  138.4660 O   0  0  0  0  0  1  0  0  0  0  0  0
  189.9610  176.7050  145.1180 C   0  0  0  0  0  0  0  0  0  0  0  0
  186.8670  177.6380  143.1320 C   0  0  1  0  0  3  0  0  0  0  0  0
  191.7610  176.4220  147.2550 C   0  0  0  0  0  0  0  0  0  0  0  0
  189.6690  177.2730  146.3810 C   0  0  0  0  0  0  0  0  0  0  0  0
  188.5020  178.0420  141.2340 C   0  0  0  0  0  0  0  0  0  0  0  0
  189.0600  176.8630  144.0490 C   0  0  0  0  0  0  0  0  0  0  0  0
  190.3040  176.5350  140.6170 C   0  0  0  0  0  3  0  0  0  0  0  0
  188.4840  177.9790  146.5700 C   0  0  0  0  0  3  0  0  0  0  0  0
  189.6130  178.2680  139.0860 C   0  0  0  0  0  3  0  0  0  0  0  0
  188.6530  178.6910  140.0040 C   0  0  0  0  0  3  0  0  0  0  0  0
  189.3660  176.9630  141.5650 C   0  0  0  0  0  0  0  0  0  0  0  0
  182.9150  178.9570  144.2130 C   0  0  0  0  0  3  0  0  0  0  0  0
  185.4970  178.1150  143.5250 C   0  0  0  0  0  0  0  0  0  0  0  0
  184.5280  178.2970  142.5310 C   0  0  0  0  0  3  0  0  0  0  0  0
  183.2400  178.7190  142.8740 C   0  0  0  0  0  3  0  0  0  0  0  0
  183.8770  178.7710  145.2090 C   0  0  0  0  0  3  0  0  0  0  0  0
  185.1650  178.3490  144.8680 C   0  0  0  0  0  3  0  0  0  0  0  0
  1 12  1  0  0  0  0
  2  6  1  0  0  0  0
  3 16  1  0  0  0  0
  6 18  2  0  0  0  0
  7 11  2  0  0  0  0
  7  9  1  0  0  0  0
  8 17  1  0  0  0  0
  9 13  2  0  0  0  0
 10  8  1  0  0  0  0
 11 14  1  0  0  0  0
 12 23  1  1  0  0  0
 12  2  1  0  0  0  0
 13  4  1  0  0  0  0
 13  5  1  0  0  0  0
 14 18  1  0  0  0  0
 14  4  2  0  0  0  0
 15 21  1  0  0  0  0
 15  1  1  0  0  0  0
 16  2  2  0  0  0  0
 16 11  1  0  0  0  0
 17 21  2  0  0  0  0
 19  8  2  0  0  0  0
 19 20  1  0  0  0  0
 20 15  2  0  0  0  0
 21  3  1  0  0  0  0
 22 26  1  0  0  0  0
 23 27  1  0  0  0  0
 24 25  1  0  0  0  0
 24 23  2  0  0  0  0
 25 22  2  0  0  0  0
 27 26  2  0  0  0  0
M  END
>  <MODEL>
1

>  <REMARK>
 VINA RESULT:     -11.8      0.000      0.000
  Name = 
  1 active torsions:
  status: ('A' for Active; 'I' for Inactive)
    1  A    between atoms: C_9  and  C_15
                            x       y       z     vdW  Elec       q    Type
                         _______ _______ _______ _____ _____    ______ ____

>  <TORSDO>
F 1

$$$$
=
 OpenBabel11052413463D

 27 31  0  0  1  0  0  0  0  0999 V2000
  186.2050  178.6290  141.6170 N   0  0  0  0  0  2  0  0  0  0  0  0
  185.9300  178.1840  143.9770 C   0  0  0  0  0  0  0  0  0  0  0  0
  187.9110  176.8720  143.3680 O   0  0  0  0  0  0  0  0  0  0  0  0
  187.4550  178.6350  147.8700 C   0  0  0  0  0  3  0  0  0  0  0  0
  189.1670  178.1850  149.5080 O   0  0  0  0  0  1  0  0  0  0  0  0
  185.2310  178.9300  144.9410 C   0  0  0  0  0  3  0  0  0  0  0  0
  188.8890  177.1510  145.9770 C   0  0  0  0  0  3  0  0  0  0  0  0
  189.9930  177.2340  140.3540 C   0  0  0  0  0  0  0  0  0  0  0  0
  189.3860  177.3000  147.2750 C   0  0  0  0  0  3  0  0  0  0  0  0
  191.2050  176.7440  139.8900 O   0  0  0  0  0  1  0  0  0  0  0  0
  187.6700  177.7400  145.6130 C   0  0  0  0  0  0  0  0  0  0  0  0
  185.3730  177.9640  142.6030 C   0  0  1  0  0  3  0  0  0  0  0  0
  188.6700  178.0400  148.2200 C   0  0  0  0  0  0  0  0  0  0  0  0
  186.9510  178.4890  146.5750 C   0  0  0  0  0  0  0  0  0  0  0  0
  187.5260  178.1980  141.2800 C   0  0  0  0  0  0  0  0  0  0  0  0
  187.1690  177.6070  144.3050 C   0  0  0  0  0  0  0  0  0  0  0  0
  189.4950  176.8090  141.5860 C   0  0  0  0  0  3  0  0  0  0  0  0
  185.7400  179.0850  146.2300 C   0  0  0  0  0  3  0  0  0  0  0  0
  189.2760  178.1570  139.5960 C   0  0  0  0  0  3  0  0  0  0  0  0
  188.0480  178.6300  140.0560 C   0  0  0  0  0  3  0  0  0  0  0  0
  188.2780  177.2960  142.0800 C   0  0  0  0  0  0  0  0  0  0  0  0
  181.2330  179.0190  142.0790 C   0  0  0  0  0  3  0  0  0  0  0  0
  183.9310  178.3510  142.4350 C   0  0  0  0  0  0  0  0  0  0  0  0
  183.3600  178.3190  141.1570 C   0  0  0  0  0  3  0  0  0  0  0  0
  182.0150  178.6540  140.9790 C   0  0  0  0  0  3  0  0  0  0  0  0
  181.7970  179.0470  143.3580 C   0  0  0  0  0  3  0  0  0  0  0  0
  183.1410  178.7130  143.5380 C   0  0  0  0  0  3  0  0  0  0  0  0
  1 12  1  0  0  0  0
  2 16  2  0  0  0  0
  2  6  1  0  0  0  0
  3 16  1  0  0  0  0
  4 13  1  0  0  0  0
  6 18  2  0  0  0  0
  7  9  1  0  0  0  0
  8 17  1  0  0  0  0
  9 13  2  0  0  0  0
 10  8  1  0  0  0  0
 11  7  2  0  0  0  0
 11 14  1  0  0  0  0
 12 23  1  1  0  0  0
 12  2  1  0  0  0  0
 13  5  1  0  0  0  0
 14  4  2  0  0  0  0
 15  1  1  0  0  0  0
 15 21  1  0  0  0  0
 16 11  1  0  0  0  0
 17 21  2  0  0  0  0
 18 14  1  0  0  0  0
 19 20  1  0  0  0  0
 19  8  2  0  0  0  0
 20 15  2  0  0  0  0
 21  3  1  0  0  0  0
 22 26  1  0  0  0  0
 23 27  1  0  0  0  0
 24 23  2  0  0  0  0
 25 24  1  0  0  0  0
 25 22  2  0  0  0  0
 26 27  2  0  0  0  0
M  END
>  <MODEL>
2

>  <REMARK>
 VINA RESULT:     -10.9      1.583      2.346
  Name = 
  1 active torsions:
  status: ('A' for Active; 'I' for Inactive)
    1  A    between atoms: C_9  and  C_15
                            x       y       z     vdW  Elec       q    Type
                         _______ _______ _______ _____ _____    ______ ____

>  <TORSDO>
F 1

$$$$
=
 OpenBabel11052413463D

 27 31  0  0  1  0  0  0  0  0999 V2000
  189.9800  176.6790  142.5670 N   0  0  0  0  0  2  0  0  0  0  0  0
  188.1340  177.7110  143.7380 C   0  0  0  0  0  0  0  0  0  0  0  0
  188.1160  178.8100  141.5450 O   0  0  0  0  0  0  0  0  0  0  0  0
  183.9720  178.2530  144.0160 C   0  0  0  0  0  3  0  0  0  0  0  0
  181.9090  179.0910  143.0920 O   0  0  0  0  0  1  0  0  0  0  0  0
  187.4200  177.2400  144.8530 C   0  0  0  0  0  3  0  0  0  0  0  0
  185.3510  179.1950  141.7680 C   0  0  0  0  0  3  0  0  0  0  0  0
  189.7790  177.6780  138.4620 C   0  0  0  0  0  0  0  0  0  0  0  0
  183.9690  179.3780  141.8720 C   0  0  0  0  0  3  0  0  0  0  0  0
  189.7770  178.0240  137.1190 O   0  0  0  0  0  1  0  0  0  0  0  0
  186.0580  178.5420  142.7880 C   0  0  0  0  0  0  0  0  0  0  0  0
  189.6240  177.5780  143.6480 C   0  0  1  0  0  3  0  0  0  0  0  0
  183.2810  178.9080  142.9940 C   0  0  0  0  0  0  0  0  0  0  0  0
  185.3550  178.0680  143.9210 C   0  0  0  0  0  0  0  0  0  0  0  0
  189.8070  177.0000  141.1850 C   0  0  0  0  0  0  0  0  0  0  0  0
  187.4470  178.3420  142.6860 C   0  0  0  0  0  0  0  0  0  0  0  0
  189.0100  178.4050  139.3710 C   0  0  0  0  0  3  0  0  0  0  0  0
  186.0400  177.4140  144.9420 C   0  0  0  0  0  3  0  0  0  0  0  0
  190.5400  176.5970  138.9040 C   0  0  0  0  0  3  0  0  0  0  0  0
  190.5560  176.2660  140.2590 C   0  0  0  0  0  3  0  0  0  0  0  0
  188.9890  178.0690  140.7310 C   0  0  0  0  0  0  0  0  0  0  0  0
  191.4990  176.4000  147.3390 C   0  0  0  0  0  3  0  0  0  0  0  0
  190.3010  177.1720  144.9280 C   0  0  0  0  0  0  0  0  0  0  0  0
  189.7440  177.5700  146.1490 C   0  0  0  0  0  3  0  0  0  0  0  0
  190.3430  177.1860  147.3520 C   0  0  0  0  0  3  0  0  0  0  0  0
  192.0550  175.9960  146.1230 C   0  0  0  0  0  3  0  0  0  0  0  0
  191.4580  176.3780  144.9190 C   0  0  0  0  0  3  0  0  0  0  0  0
  1 12  1  0  0  0  0
  2  6  1  0  0  0  0
  3 16  1  0  0  0  0
  6 18  2  0  0  0  0
  7  9  2  0  0  0  0
  7 11  1  0  0  0  0
  8 19  2  0  0  0  0
  8 17  1  0  0  0  0
  9 13  1  0  0  0  0
 10  8  1  0  0  0  0
 11 14  2  0  0  0  0
 12  2  1  0  0  0  0
 12 23  1  1  0  0  0
 13  5  1  0  0  0  0
 13  4  2  0  0  0  0
 14  4  1  0  0  0  0
 14 18  1  0  0  0  0
 15  1  1  0  0  0  0
 16 11  1  0  0  0  0
 16  2  2  0  0  0  0
 17 21  2  0  0  0  0
 19 20  1  0  0  0  0
 20 15  2  0  0  0  0
 21 15  1  0  0  0  0
 21  3  1  0  0  0  0
 22 25  1  0  0  0  0
 23 24  1  0  0  0  0
 24 25  2  0  0  0  0
 26 22  2  0  0  0  0
 27 23  2  0  0  0  0
 27 26  1  0  0  0  0
M  END
>  <MODEL>
3

>  <REMARK>
 VINA RESULT:     -10.5      2.054      5.860
  Name = 
  1 active torsions:
  status: ('A' for Active; 'I' for Inactive)
    1  A    between atoms: C_9  and  C_15
                            x       y       z     vdW  Elec       q    Type
                         _______ _______ _______ _____ _____    ______ ____

>  <TORSDO>
F 1

$$$$
=
 OpenBabel11052413463D

 27 31  0  0  1  0  0  0  0  0999 V2000
  189.8690  176.8300  141.2300 N   0  0  0  0  0  2  0  0  0  0  0  0
  188.0330  177.8350  142.4420 C   0  0  0  0  0  0  0  0  0  0  0  0
  187.9020  178.8760  140.2240 O   0  0  0  0  0  0  0  0  0  0  0  0
  183.8690  178.2540  142.8580 C   0  0  0  0  0  3  0  0  0  0  0  0
  181.7480  179.0030  141.9900 O   0  0  0  0  0  1  0  0  0  0  0  0
  187.3760  177.3700  143.5940 C   0  0  0  0  0  3  0  0  0  0  0  0
  185.1360  179.1800  140.5390 C   0  0  0  0  0  3  0  0  0  0  0  0
  189.4900  177.7170  137.1120 C   0  0  0  0  0  0  0  0  0  0  0  0
  183.7540  179.3220  140.6880 C   0  0  0  0  0  3  0  0  0  0  0  0
  189.4300  178.0280  135.7620 O   0  0  0  0  0  1  0  0  0  0  0  0
  185.9000  178.5760  141.5480 C   0  0  0  0  0  0  0  0  0  0  0  0
  189.5230  177.7460  142.3020 C   0  0  1  0  0  3  0  0  0  0  0  0
  183.1220  178.8600  141.8460 C   0  0  0  0  0  0  0  0  0  0  0  0
  185.2530  178.1100  142.7180 C   0  0  0  0  0  0  0  0  0  0  0  0
  189.6360  177.1100  139.8480 C   0  0  0  0  0  0  0  0  0  0  0  0
  187.2900  178.4170  141.4010 C   0  0  0  0  0  0  0  0  0  0  0  0
  188.7320  178.4430  138.0310 C   0  0  0  0  0  3  0  0  0  0  0  0
  185.9940  177.5030  143.7280 C   0  0  0  0  0  3  0  0  0  0  0  0
  190.3010  176.6720  137.5530 C   0  0  0  0  0  3  0  0  0  0  0  0
  190.3760  176.3770  138.9140 C   0  0  0  0  0  3  0  0  0  0  0  0
  188.7700  178.1420  139.3980 C   0  0  0  0  0  0  0  0  0  0  0  0
  191.6800  176.7180  145.8820 C   0  0  0  0  0  3  0  0  0  0  0  0
  190.2570  177.3940  143.5650 C   0  0  0  0  0  0  0  0  0  0  0  0
  190.9820  176.1980  143.6220 C   0  0  0  0  0  3  0  0  0  0  0  0
  191.6910  175.8600  144.7780 C   0  0  0  0  0  3  0  0  0  0  0  0
  190.9630  177.9160  145.8280 C   0  0  0  0  0  3  0  0  0  0  0  0
  190.2540  178.2560  144.6730 C   0  0  0  0  0  3  0  0  0  0  0  0
  1 12  1  0  0  0  0
  2  6  1  0  0  0  0
  3 16  1  0  0  0  0
  6 18  2  0  0  0  0
  7  9  2  0  0  0  0
  7 11  1  0  0  0  0
  8 19  2  0  0  0  0
  8 17  1  0  0  0  0
  9 13  1  0  0  0  0
 10  8  1  0  0  0  0
 11 14  2  0  0  0  0
 12  2  1  0  0  0  0
 12 23  1  1  0  0  0
 13  5  1  0  0  0  0
 13  4  2  0  0  0  0
 14  4  1  0  0  0  0
 14 18  1  0  0  0  0
 15  1  1  0  0  0  0
 16 11  1  0  0  0  0
 16  2  2  0  0  0  0
 17 21  2  0  0  0  0
 19 20  1  0  0  0  0
 20 15  2  0  0  0  0
 21 15  1  0  0  0  0
 21  3  1  0  0  0  0
 23 24  2  0  0  0  0
 23 27  1  0  0  0  0
 24 25  1  0  0  0  0
 25 22  2  0  0  0  0
 26 22  1  0  0  0  0
 27 26  2  0  0  0  0
M  END
>  <MODEL>
4

>  <REMARK>
 VINA RESULT:     -10.4      2.569      6.161
  Name = 
  1 active torsions:
  status: ('A' for Active; 'I' for Inactive)
    1  A    between atoms: C_9  and  C_15
                            x       y       z     vdW  Elec       q    Type
                         _______ _______ _______ _____ _____    ______ ____

>  <TORSDO>
F 1

$$$$
=
 OpenBabel11052413463D

 27 31  0  0  1  0  0  0  0  0999 V2000
  188.2460  177.1880  143.0590 N   0  0  0  0  0  2  0  0  0  0  0  0
  186.1250  178.3480  143.0530 C   0  0  0  0  0  0  0  0  0  0  0  0
  187.1600  179.0220  140.9330 O   0  0  0  0  0  0  0  0  0  0  0  0
  182.3240  178.7750  141.3050 C   0  0  0  0  0  3  0  0  0  0  0  0
  180.9490  179.3490  139.4090 O   0  0  0  0  0  1  0  0  0  0  0  0
  184.9610  178.0640  143.7860 C   0  0  0  0  0  3  0  0  0  0  0  0
  184.6180  179.3370  139.8010 C   0  0  0  0  0  3  0  0  0  0  0  0
  189.9800  177.4030  139.2070 C   0  0  0  0  0  0  0  0  0  0  0  0
  183.3510  179.4830  139.2300 C   0  0  0  0  0  3  0  0  0  0  0  0
  190.6050  177.4940  137.9720 O   0  0  0  0  0  1  0  0  0  0  0  0
  184.7520  178.9110  141.1300 C   0  0  0  0  0  0  0  0  0  0  0  0
  187.4850  178.2580  143.6770 C   0  0  1  0  0  3  0  0  0  0  0  0
  182.2060  179.2030  139.9810 C   0  0  0  0  0  0  0  0  0  0  0  0
  183.5880  178.6280  141.8840 C   0  0  0  0  0  0  0  0  0  0  0  0
  188.7350  177.2410  141.7170 C   0  0  0  0  0  0  0  0  0  0  0  0
  186.0230  178.7480  141.7090 C   0  0  0  0  0  0  0  0  0  0  0  0
  188.9210  178.2560  139.5180 C   0  0  0  0  0  3  0  0  0  0  0  0
  183.7010  178.2000  143.2050 C   0  0  0  0  0  3  0  0  0  0  0  0
  190.4020  176.4520  140.1350 C   0  0  0  0  0  3  0  0  0  0  0  0
  189.7850  176.3780  141.3830 C   0  0  0  0  0  3  0  0  0  0  0  0
  188.2690  178.1770  140.7550 C   0  0  0  0  0  0  0  0  0  0  0  0
  187.5560  177.8840  147.9640 C   0  0  0  0  0  3  0  0  0  0  0  0
  187.4870  178.1210  145.1740 C   0  0  0  0  0  0  0  0  0  0  0  0
  188.5750  177.5020  145.8010 C   0  0  0  0  0  3  0  0  0  0  0  0
  188.6090  177.3830  147.1930 C   0  0  0  0  0  3  0  0  0  0  0  0
  186.4700  178.5070  147.3430 C   0  0  0  0  0  3  0  0  0  0  0  0
  186.4340  178.6280  145.9520 C   0  0  0  0  0  3  0  0  0  0  0  0
  1 12  1  0  0  0  0
  2 12  1  0  0  0  0
  2  6  1  0  0  0  0
  3 16  1  0  0  0  0
  4 14  1  0  0  0  0
  5 13  1  0  0  0  0
  7 11  1  0  0  0  0
  8 17  2  0  0  0  0
  8 19  1  0  0  0  0
  9  7  2  0  0  0  0
  9 13  1  0  0  0  0
 10  8  1  0  0  0  0
 11 16  1  0  0  0  0
 11 14  2  0  0  0  0
 12 23  1  1  0  0  0
 13  4  2  0  0  0  0
 14 18  1  0  0  0  0
 15  1  1  0  0  0  0
 16  2  2  0  0  0  0
 17 21  1  0  0  0  0
 18  6  2  0  0  0  0
 19 20  2  0  0  0  0
 20 15  1  0  0  0  0
 21  3  1  0  0  0  0
 21 15  2  0  0  0  0
 23 24  2  0  0  0  0
 23 27  1  0  0  0  0
 24 25  1  0  0  0  0
 25 22  2  0  0  0  0
 26 22  1  0  0  0  0
 27 26  2  0  0  0  0
M  END
>  <MODEL>
5

>  <REMARK>
 VINA RESULT:     -10.0      2.546      6.254
  Name = 
  1 active torsions:
  status: ('A' for Active; 'I' for Inactive)
    1  A    between atoms: C_9  and  C_15
                            x       y       z     vdW  Elec       q    Type
                         _______ _______ _______ _____ _____    ______ ____

>  <TORSDO>
F 1

$$$$
=
 OpenBabel11052413463D

 27 31  0  0  1  0  0  0  0  0999 V2000
  189.8590  178.1630  141.5260 N   0  0  0  0  0  2  0  0  0  0  0  0
  187.4490  177.9830  141.4820 C   0  0  0  0  0  0  0  0  0  0  0  0
  188.0620  177.0090  143.6490 O   0  0  0  0  0  0  0  0  0  0  0  0
  183.7720  179.2210  143.1070 C   0  0  0  0  0  3  0  0  0  0  0  0
  182.2400  179.3260  144.9660 O   0  0  0  0  0  1  0  0  0  0  0  0
  186.5230  178.7000  140.7040 C   0  0  0  0  0  3  0  0  0  0  0  0
  185.5920  177.8090  144.6990 C   0  0  0  0  0  3  0  0  0  0  0  0
  191.2580  177.3720  145.4390 C   0  0  0  0  0  0  0  0  0  0  0  0
  184.3660  178.2170  145.2290 C   0  0  0  0  0  3  0  0  0  0  0  0
  191.7610  177.0690  146.6960 O   0  0  0  0  0  1  0  0  0  0  0  0
  185.9210  178.1000  143.3670 C   0  0  0  0  0  0  0  0  0  0  0  0
  188.7380  177.4840  140.9030 C   0  0  1  0  0  3  0  0  0  0  0  0
  183.4570  178.9220  144.4340 C   0  0  0  0  0  0  0  0  0  0  0  0
  184.9970  178.8140  142.5680 C   0  0  0  0  0  0  0  0  0  0  0  0
  190.2510  177.9540  142.8850 C   0  0  0  0  0  0  0  0  0  0  0  0
  187.1590  177.7040  142.8290 C   0  0  0  0  0  0  0  0  0  0  0  0
  189.9480  177.0230  145.1080 C   0  0  0  0  0  3  0  0  0  0  0  0
  185.3080  179.1160  141.2450 C   0  0  0  0  0  3  0  0  0  0  0  0
  192.0570  178.0330  144.5080 C   0  0  0  0  0  3  0  0  0  0  0  0
  191.5560  178.3160  143.2380 C   0  0  0  0  0  3  0  0  0  0  0  0
  189.4160  177.3250  143.8480 C   0  0  0  0  0  0  0  0  0  0  0  0
  189.0590  177.7460  136.6190 C   0  0  0  0  0  3  0  0  0  0  0  0
  188.8310  177.5610  139.4050 C   0  0  0  0  0  0  0  0  0  0  0  0
  189.0920  178.7960  138.8010 C   0  0  0  0  0  3  0  0  0  0  0  0
  189.2040  178.8890  137.4110 C   0  0  0  0  0  3  0  0  0  0  0  0
  188.8030  176.5090  137.2180 C   0  0  0  0  0  3  0  0  0  0  0  0
  188.6910  176.4150  138.6070 C   0  0  0  0  0  3  0  0  0  0  0  0
  1 15  1  0  0  0  0
  2 16  1  0  0  0  0
  3 21  1  0  0  0  0
  4 13  2  0  0  0  0
  6 18  1  0  0  0  0
  6  2  2  0  0  0  0
  7  9  2  0  0  0  0
  8 10  1  0  0  0  0
 11  7  1  0  0  0  0
 12 23  1  6  0  0  0
 12  2  1  0  0  0  0
 12  1  1  0  0  0  0
 13  5  1  0  0  0  0
 13  9  1  0  0  0  0
 14  4  1  0  0  0  0
 14 11  1  0  0  0  0
 15 20  2  0  0  0  0
 15 21  1  0  0  0  0
 16 11  2  0  0  0  0
 16  3  1  0  0  0  0
 17  8  1  0  0  0  0
 18 14  2  0  0  0  0
 19  8  2  0  0  0  0
 20 19  1  0  0  0  0
 21 17  2  0  0  0  0
 22 26  2  0  0  0  0
 22 25  1  0  0  0  0
 24 23  1  0  0  0  0
 25 24  2  0  0  0  0
 26 27  1  0  0  0  0
 27 23  2  0  0  0  0
M  END
>  <MODEL>
6

>  <REMARK>
 VINA RESULT:      -9.8      2.222      6.392
  Name = 
  1 active torsions:
  status: ('A' for Active; 'I' for Inactive)
    1  A    between atoms: C_9  and  C_15
                            x       y       z     vdW  Elec       q    Type
                         _______ _______ _______ _____ _____    ______ ____

>  <TORSDO>
F 1

$$$$
=
 OpenBabel11052413463D

 27 31  0  0  1  0  0  0  0  0999 V2000
  184.6550  178.0210  140.9490 N   0  0  0  0  0  2  0  0  0  0  0  0
  186.5080  178.2320  142.4870 C   0  0  0  0  0  0  0  0  0  0  0  0
  184.6530  179.3280  143.6610 O   0  0  0  0  0  0  0  0  0  0  0  0
  188.1790  177.1480  146.1910 C   0  0  0  0  0  3  0  0  0  0  0  0
  188.1130  177.1790  148.6020 O   0  0  0  0  0  1  0  0  0  0  0  0
  187.6950  177.4820  142.5490 C   0  0  0  0  0  3  0  0  0  0  0  0
  185.8040  178.6290  146.1170 C   0  0  0  0  0  3  0  0  0  0  0  0
  181.0580  179.0310  142.9310 C   0  0  0  0  0  0  0  0  0  0  0  0
  186.3690  178.2720  147.3430 C   0  0  0  0  0  3  0  0  0  0  0  0
  179.8630  179.4030  143.5300 O   0  0  0  0  0  1  0  0  0  0  0  0
  186.4210  178.2530  144.9150 C   0  0  0  0  0  0  0  0  0  0  0  0
  185.9290  178.6760  141.1780 C   0  0  1  0  0  3  0  0  0  0  0  0
  187.5550  177.5320  147.3810 C   0  0  0  0  0  0  0  0  0  0  0  0
  187.6210  177.5040  144.9600 C   0  0  0  0  0  0  0  0  0  0  0  0
  183.4750  178.3070  141.7030 C   0  0  0  0  0  0  0  0  0  0  0  0
  185.8510  178.5970  143.6750 C   0  0  0  0  0  0  0  0  0  0  0  0
  182.2730  179.3770  143.5220 C   0  0  0  0  0  3  0  0  0  0  0  0
  188.2450  177.1170  143.7770 C   0  0  0  0  0  3  0  0  0  0  0  0
  181.0460  178.3020  141.7420 C   0  0  0  0  0  3  0  0  0  0  0  0
  182.2480  177.9490  141.1320 C   0  0  0  0  0  3  0  0  0  0  0  0
  183.4910  179.0050  142.9400 C   0  0  0  0  0  0  0  0  0  0  0  0
  188.4930  178.2280  137.7500 C   0  0  0  0  0  3  0  0  0  0  0  0
  186.8400  178.5060  139.9940 C   0  0  0  0  0  0  0  0  0  0  0  0
  186.2810  178.2530  138.7360 C   0  0  0  0  0  3  0  0  0  0  0  0
  187.1060  178.1120  137.6160 C   0  0  0  0  0  3  0  0  0  0  0  0
  189.0550  178.4870  139.0030 C   0  0  0  0  0  3  0  0  0  0  0  0
  188.2320  178.6280  140.1230 C   0  0  0  0  0  3  0  0  0  0  0  0
  1 12  1  0  0  0  0
  1 15  1  0  0  0  0
  2  6  2  0  0  0  0
  2 16  1  0  0  0  0
  3 16  1  0  0  0  0
  4 13  2  0  0  0  0
  6 18  1  0  0  0  0
  7  9  2  0  0  0  0
  8 17  1  0  0  0  0
  8 10  1  0  0  0  0
  9 13  1  0  0  0  0
 11 14  1  0  0  0  0
 11  7  1  0  0  0  0
 12 23  1  6  0  0  0
 12  2  1  0  0  0  0
 13  5  1  0  0  0  0
 14  4  1  0  0  0  0
 15 21  1  0  0  0  0
 16 11  2  0  0  0  0
 18 14  2  0  0  0  0
 19  8  2  0  0  0  0
 20 15  2  0  0  0  0
 20 19  1  0  0  0  0
 21 17  2  0  0  0  0
 21  3  1  0  0  0  0
 22 26  1  0  0  0  0
 23 27  1  0  0  0  0
 24 23  2  0  0  0  0
 25 22  2  0  0  0  0
 25 24  1  0  0  0  0
 26 27  2  0  0  0  0
M  END
>  <MODEL>
7

>  <REMARK>
 VINA RESULT:      -9.7      2.914      6.131
  Name = 
  1 active torsions:
  status: ('A' for Active; 'I' for Inactive)
    1  A    between atoms: C_9  and  C_15
                            x       y       z     vdW  Elec       q    Type
                         _______ _______ _______ _____ _____    ______ ____

>  <TORSDO>
F 1

$$$$
=
 OpenBabel11052413463D

 27 31  0  0  1  0  0  0  0  0999 V2000
  189.0060  178.0190  146.8430 N   0  0  0  0  0  2  0  0  0  0  0  0
  190.1690  177.1420  144.9130 C   0  0  0  0  0  0  0  0  0  0  0  0
  187.8000  176.9220  144.3120 O   0  0  0  0  0  0  0  0  0  0  0  0
  191.1330  177.6000  140.8450 C   0  0  0  0  0  3  0  0  0  0  0  0
  190.4510  177.6850  138.5340 O   0  0  0  0  0  1  0  0  0  0  0  0
  191.4970  177.3560  144.5090 C   0  0  0  0  0  3  0  0  0  0  0  0
  188.4690  177.1900  141.6060 C   0  0  0  0  0  3  0  0  0  0  0  0
  184.9290  178.6050  145.8840 C   0  0  0  0  0  0  0  0  0  0  0  0
  188.7990  177.3360  140.2560 C   0  0  0  0  0  3  0  0  0  0  0  0
  183.5750  178.7630  145.6260 O   0  0  0  0  0  1  0  0  0  0  0  0
  189.4670  177.2450  142.5900 C   0  0  0  0  0  0  0  0  0  0  0  0
  189.8140  176.9180  146.3530 C   0  0  1  0  0  3  0  0  0  0  0  0
  190.1280  177.5400  139.8760 C   0  0  0  0  0  0  0  0  0  0  0  0
  190.8110  177.4530  142.1980 C   0  0  0  0  0  0  0  0  0  0  0  0
  187.6600  178.2570  146.4250 C   0  0  0  0  0  0  0  0  0  0  0  0
  189.1430  177.1120  143.9520 C   0  0  0  0  0  0  0  0  0  0  0  0
  185.7150  177.8230  145.0380 C   0  0  0  0  0  3  0  0  0  0  0  0
  191.8150  177.5140  143.1610 C   0  0  0  0  0  3  0  0  0  0  0  0
  185.5070  179.2340  146.9850 C   0  0  0  0  0  3  0  0  0  0  0  0
  186.8640  179.0550  147.2540 C   0  0  0  0  0  3  0  0  0  0  0  0
  187.0850  177.6550  145.2740 C   0  0  0  0  0  0  0  0  0  0  0  0
  193.1300  176.2190  149.0070 C   0  0  0  0  0  3  0  0  0  0  0  0
  190.9850  176.6670  147.2600 C   0  0  0  0  0  0  0  0  0  0  0  0
  191.2650  177.5840  148.2810 C   0  0  0  0  0  3  0  0  0  0  0  0
  192.3360  177.3610  149.1520 C   0  0  0  0  0  3  0  0  0  0  0  0
  192.8510  175.2980  147.9930 C   0  0  0  0  0  3  0  0  0  0  0  0
  191.7810  175.5190  147.1220 C   0  0  0  0  0  3  0  0  0  0  0  0
  2 12  1  0  0  0  0
  3 21  1  0  0  0  0
  4 14  1  0  0  0  0
  5 13  1  0  0  0  0
  6  2  1  0  0  0  0
  7 11  1  0  0  0  0
  8 19  1  0  0  0  0
  9  7  2  0  0  0  0
 10  8  1  0  0  0  0
 11 16  1  0  0  0  0
 12  1  1  0  0  0  0
 12 23  1  1  0  0  0
 13  9  1  0  0  0  0
 13  4  2  0  0  0  0
 14 11  2  0  0  0  0
 14 18  1  0  0  0  0
 15  1  1  0  0  0  0
 15 20  1  0  0  0  0
 16  3  1  0  0  0  0
 16  2  2  0  0  0  0
 17 21  1  0  0  0  0
 17  8  2  0  0  0  0
 18  6  2  0  0  0  0
 19 20  2  0  0  0  0
 21 15  2  0  0  0  0
 22 25  1  0  0  0  0
 23 24  1  0  0  0  0
 24 25  2  0  0  0  0
 26 22  2  0  0  0  0
 27 23  2  0  0  0  0
 27 26  1  0  0  0  0
M  END
>  <MODEL>
8

>  <REMARK>
 VINA RESULT:      -9.5      2.156      7.070
  Name = 
  1 active torsions:
  status: ('A' for Active; 'I' for Inactive)
    1  A    between atoms: C_9  and  C_15
                            x       y       z     vdW  Elec       q    Type
                         _______ _______ _______ _____ _____    ______ ____

>  <TORSDO>
F 1

$$$$
=
 OpenBabel11052413463D

 27 31  0  0  1  0  0  0  0  0999 V2000
  187.4430  177.5220  142.0000 N   0  0  0  0  0  2  0  0  0  0  0  0
  189.6480  177.3260  142.9730 C   0  0  0  0  0  0  0  0  0  0  0  0
  188.3780  178.5730  144.6620 O   0  0  0  0  0  0  0  0  0  0  0  0
  192.0460  175.6920  146.0160 C   0  0  0  0  0  3  0  0  0  0  0  0
  192.6320  175.5210  148.3500 O   0  0  0  0  0  1  0  0  0  0  0  0
  190.6690  176.4100  142.6700 C   0  0  0  0  0  3  0  0  0  0  0  0
  190.0130  177.5030  146.6690 C   0  0  0  0  0  3  0  0  0  0  0  0
  184.7200  178.8650  144.9450 C   0  0  0  0  0  0  0  0  0  0  0  0
  190.8180  176.9610  147.6740 C   0  0  0  0  0  3  0  0  0  0  0  0
  183.8060  179.3530  145.8680 O   0  0  0  0  0  1  0  0  0  0  0  0
  190.2160  177.1470  145.3280 C   0  0  0  0  0  0  0  0  0  0  0  0
  188.8220  177.9630  141.8960 C   0  0  1  0  0  3  0  0  0  0  0  0
  191.8340  176.0570  147.3480 C   0  0  0  0  0  0  0  0  0  0  0  0
  191.2460  176.2310  145.0050 C   0  0  0  0  0  0  0  0  0  0  0  0
  186.5700  177.9090  143.0640 C   0  0  0  0  0  0  0  0  0  0  0  0
  189.4010  177.6780  144.3120 C   0  0  0  0  0  0  0  0  0  0  0  0
  186.0890  178.9790  145.1910 C   0  0  0  0  0  3  0  0  0  0  0  0
  191.4600  175.8640  143.6790 C   0  0  0  0  0  3  0  0  0  0  0  0
  184.2720  178.2530  143.7750 C   0  0  0  0  0  3  0  0  0  0  0  0
  185.1940  177.7840  142.8400 C   0  0  0  0  0  3  0  0  0  0  0  0
  187.0300  178.4870  144.2780 C   0  0  0  0  0  0  0  0  0  0  0  0
  190.2960  177.4670  137.8830 C   0  0  0  0  0  3  0  0  0  0  0  0
  189.3430  177.7670  140.5000 C   0  0  0  0  0  0  0  0  0  0  0  0
  188.5970  178.2530  139.4200 C   0  0  0  0  0  3  0  0  0  0  0  0
  189.0710  178.1010  138.1140 C   0  0  0  0  0  3  0  0  0  0  0  0
  191.0470  176.9860  138.9590 C   0  0  0  0  0  3  0  0  0  0  0  0
  190.5740  177.1360  140.2650 C   0  0  0  0  0  3  0  0  0  0  0  0
  1 15  1  0  0  0  0
  2 16  1  0  0  0  0
  4 13  2  0  0  0  0
  6  2  2  0  0  0  0
  6 18  1  0  0  0  0
  7  9  2  0  0  0  0
  8 17  1  0  0  0  0
  8 10  1  0  0  0  0
 11  7  1  0  0  0  0
 12 23  1  6  0  0  0
 12  1  1  0  0  0  0
 12  2  1  0  0  0  0
 13  9  1  0  0  0  0
 13  5  1  0  0  0  0
 14 11  1  0  0  0  0
 14  4  1  0  0  0  0
 15 21  1  0  0  0  0
 16  3  1  0  0  0  0
 16 11  2  0  0  0  0
 18 14  2  0  0  0  0
 19  8  2  0  0  0  0
 20 15  2  0  0  0  0
 20 19  1  0  0  0  0
 21  3  1  0  0  0  0
 21 17  2  0  0  0  0
 22 25  2  0  0  0  0
 22 26  1  0  0  0  0
 24 23  2  0  0  0  0
 25 24  1  0  0  0  0
 26 27  2  0  0  0  0
 27 23  1  0  0  0  0
M  END
>  <MODEL>
9

>  <REMARK>
 VINA RESULT:      -9.5      1.746      5.312
  Name = 
  1 active torsions:
  status: ('A' for Active; 'I' for Inactive)
    1  A    between atoms: C_9  and  C_15
                            x       y       z     vdW  Elec       q    Type
                         _______ _______ _______ _____ _____    ______ ____

>  <TORSDO>
F 1

$$$$
