=
 OpenBabel11052413473D

 27 29  0  0  1  0  0  0  0  0999 V2000
  188.3520  177.7040  144.1750 C   0  0  2  0  0  3  0  0  0  0  0  0
  191.2610  176.5640  147.1300 C   0  0  0  0  0  2  0  0  0  0  0  0
  189.4680  177.7580  145.2270 C   0  0  2  0  0  3  0  0  0  0  0  0
  190.7050  176.9330  144.8520 C   0  0  0  0  0  2  0  0  0  0  0  0
  191.7480  177.1020  145.8620 N   0  0  0  0  0  2  0  0  0  0  0  0
  190.0840  177.3950  147.6310 C   0  0  0  0  0  2  0  0  0  0  0  0
  188.9540  177.3500  146.6080 C   0  0  0  0  0  2  0  0  0  0  0  0
  186.7470  177.0180  144.7500 S   0  0  0  0  0  0  0  0  0  0  0  0
  183.4420  179.0720  145.0020 C   0  0  0  0  0  3  0  0  0  0  0  0
  182.8470  178.8700  143.6380 C   0  0  0  0  0  2  0  0  0  0  0  0
  185.7080  178.4090  144.1970 C   0  0  1  0  0  3  0  0  0  0  0  0
  185.1830  179.0200  146.5690 O   0  0  0  0  0  1  0  0  0  0  0  0
  183.9070  178.9970  142.5520 C   0  0  0  0  0  2  0  0  0  0  0  0
  185.0400  178.0330  142.8700 C   0  0  0  0  0  2  0  0  0  0  0  0
  184.7260  178.8170  145.2740 C   0  0  0  0  0  0  0  0  0  0  0  0
  188.8080  177.0970  142.8600 C   0  0  0  0  0  2  0  0  0  0  0  0
  188.4190  178.0160  141.7150 C   0  0  0  0  0  2  0  0  0  0  0  0
  191.1950  176.6340  139.5710 C   0  0  0  0  0  3  0  0  0  0  0  0
  191.5320  176.5390  137.1910 O   0  0  0  0  0  1  0  0  0  0  0  0
  189.5620  177.6240  138.0840 C   0  0  0  0  0  0  0  0  0  0  0  0
  189.1420  177.9170  136.7920 O   0  0  0  0  0  1  0  0  0  0  0  0
  188.7840  178.0330  139.1820 C   0  0  0  0  0  0  0  0  0  0  0  0
  190.7630  176.9310  138.2800 C   0  0  0  0  0  0  0  0  0  0  0  0
  189.2190  177.7030  140.4940 C   0  0  0  0  0  0  0  0  0  0  0  0
  190.4260  177.0130  140.6690 C   0  0  0  0  0  3  0  0  0  0  0  0
  186.3560  178.1700  138.5660 C   0  0  0  0  0  1  0  0  0  0  0  0
  187.6080  178.7510  138.9020 O   0  0  0  0  0  0  0  0  0  0  0  0
  1 16  1  6  0  0  0
  1  8  1  0  0  0  0
  2  6  1  0  0  0  0
  3  1  1  6  0  0  0
  3  7  1  0  0  0  0
  4  3  1  0  0  0  0
  4  5  1  0  0  0  0
  5  2  1  0  0  0  0
  7  6  1  0  0  0  0
  9 15  2  0  0  0  0
 10  9  1  0  0  0  0
 11  8  1  1  0  0  0
 11 15  1  0  0  0  0
 13 14  1  0  0  0  0
 13 10  1  0  0  0  0
 14 11  1  0  0  0  0
 15 12  1  0  0  0  0
 17 16  1  0  0  0  0
 18 25  1  0  0  0  0
 19 23  1  0  0  0  0
 20 23  1  0  0  0  0
 20 22  2  0  0  0  0
 21 20  1  0  0  0  0
 22 24  1  0  0  0  0
 23 18  2  0  0  0  0
 24 25  2  0  0  0  0
 24 17  1  0  0  0  0
 26 27  1  0  0  0  0
 27 22  1  0  0  0  0
M  END
>  <MODEL>
1

>  <REMARK>
 VINA RESULT:      -8.4      0.000      0.000
  Name = 
  7 active torsions:
  status: ('A' for Active; 'I' for Inactive)
    1  A    between atoms: S_1  and  C_15
    2  A    between atoms: S_1  and  C_18
    3  A    between atoms: C_2  and  C_6
    4  A    between atoms: C_2  and  C_15
    5  A    between atoms: C_6  and  C_17
    6  A    between atoms: C_9  and  C_15
    7  A    between atoms: C_14  and  O_19
                            x       y       z     vdW  Elec       q    Type
                         _______ _______ _______ _____ _____    ______ ____

>  <TORSDO>
F 7

$$$$
=
 OpenBabel11052413473D

 27 29  0  0  1  0  0  0  0  0999 V2000
  188.3780  177.8070  144.3630 C   0  0  2  0  0  3  0  0  0  0  0  0
  191.3750  176.3990  147.1080 C   0  0  0  0  0  2  0  0  0  0  0  0
  189.5340  177.7630  145.3730 C   0  0  2  0  0  3  0  0  0  0  0  0
  190.7420  176.9530  144.8880 C   0  0  0  0  0  2  0  0  0  0  0  0
  191.8240  177.0280  145.8670 N   0  0  0  0  0  2  0  0  0  0  0  0
  190.2320  177.2060  147.7160 C   0  0  0  0  0  2  0  0  0  0  0  0
  189.0640  177.2560  146.7360 C   0  0  0  0  0  2  0  0  0  0  0  0
  186.7710  177.1460  144.9620 S   0  0  0  0  0  0  0  0  0  0  0  0
  183.3650  179.0440  144.8850 C   0  0  0  0  0  3  0  0  0  0  0  0
  182.9210  178.8250  143.4670 C   0  0  0  0  0  2  0  0  0  0  0  0
  185.7290  178.4930  144.3110 C   0  0  1  0  0  3  0  0  0  0  0  0
  184.9400  179.0590  146.6200 O   0  0  0  0  0  1  0  0  0  0  0  0
  184.0780  179.0100  142.4940 C   0  0  0  0  0  2  0  0  0  0  0  0
  185.2170  178.0960  142.9220 C   0  0  0  0  0  2  0  0  0  0  0  0
  184.6260  178.8450  145.2850 C   0  0  0  0  0  0  0  0  0  0  0  0
  188.7630  177.2590  143.0000 C   0  0  0  0  0  2  0  0  0  0  0  0
  188.9160  178.4070  142.0170 C   0  0  0  0  0  2  0  0  0  0  0  0
  187.2590  177.9700  138.6590 C   0  0  0  0  0  3  0  0  0  0  0  0
  187.9470  176.8900  136.6220 O   0  0  0  0  0  1  0  0  0  0  0  0
  189.3890  176.8240  138.5650 C   0  0  0  0  0  0  0  0  0  0  0  0
  190.3180  176.0820  137.8450 O   0  0  0  0  0  1  0  0  0  0  0  0
  189.6450  177.1540  139.9070 C   0  0  0  0  0  0  0  0  0  0  0  0
  188.1990  177.2280  137.9470 C   0  0  0  0  0  0  0  0  0  0  0  0
  188.6930  177.9330  140.6180 C   0  0  0  0  0  0  0  0  0  0  0  0
  187.5060  178.3230  139.9830 C   0  0  0  0  0  3  0  0  0  0  0  0
  192.0350  177.4510  140.6100 C   0  0  0  0  0  1  0  0  0  0  0  0
  190.8480  176.6850  140.4640 O   0  0  0  0  0  0  0  0  0  0  0  0
  1 16  1  6  0  0  0
  1  8  1  0  0  0  0
  2  6  1  0  0  0  0
  3  1  1  6  0  0  0
  3  7  1  0  0  0  0
  4  3  1  0  0  0  0
  4  5  1  0  0  0  0
  5  2  1  0  0  0  0
  7  6  1  0  0  0  0
  9 15  2  0  0  0  0
 10  9  1  0  0  0  0
 11  8  1  1  0  0  0
 11 15  1  0  0  0  0
 13 14  1  0  0  0  0
 13 10  1  0  0  0  0
 14 11  1  0  0  0  0
 15 12  1  0  0  0  0
 17 16  1  0  0  0  0
 18 25  1  0  0  0  0
 19 23  1  0  0  0  0
 20 22  2  0  0  0  0
 21 20  1  0  0  0  0
 22 27  1  0  0  0  0
 22 24  1  0  0  0  0
 23 20  1  0  0  0  0
 23 18  2  0  0  0  0
 24 17  1  0  0  0  0
 25 24  2  0  0  0  0
 27 26  1  0  0  0  0
M  END
>  <MODEL>
2

>  <REMARK>
 VINA RESULT:      -8.3      0.994      2.048
  Name = 
  7 active torsions:
  status: ('A' for Active; 'I' for Inactive)
    1  A    between atoms: S_1  and  C_15
    2  A    between atoms: S_1  and  C_18
    3  A    between atoms: C_2  and  C_6
    4  A    between atoms: C_2  and  C_15
    5  A    between atoms: C_6  and  C_17
    6  A    between atoms: C_9  and  C_15
    7  A    between atoms: C_14  and  O_19
                            x       y       z     vdW  Elec       q    Type
                         _______ _______ _______ _____ _____    ______ ____

>  <TORSDO>
F 7

$$$$
=
 OpenBabel11052413473D

 27 29  0  0  1  0  0  0  0  0999 V2000
  188.0680  177.9130  142.5180 C   0  0  2  0  0  3  0  0  0  0  0  0
  190.9140  176.9910  139.4280 C   0  0  0  0  0  2  0  0  0  0  0  0
  189.1670  178.0420  141.4540 C   0  0  2  0  0  3  0  0  0  0  0  0
  188.7130  177.6270  140.0490 C   0  0  0  0  0  2  0  0  0  0  0  0
  189.7870  177.8550  139.0850 N   0  0  0  0  0  2  0  0  0  0  0  0
  191.4960  177.4050  140.7770 C   0  0  0  0  0  2  0  0  0  0  0  0
  190.4260  177.2750  141.8560 C   0  0  0  0  0  2  0  0  0  0  0  0
  188.3400  176.6170  143.7920 S   0  0  0  0  0  0  0  0  0  0  0  0
  189.3790  177.3950  147.4690 C   0  0  0  0  0  3  0  0  0  0  0  0
  188.0470  177.4470  148.1620 C   0  0  0  0  0  2  0  0  0  0  0  0
  188.3160  177.7270  145.2370 C   0  0  1  0  0  3  0  0  0  0  0  0
  190.7740  177.3980  145.5870 O   0  0  0  0  0  1  0  0  0  0  0  0
  187.0250  178.2130  147.3330 C   0  0  0  0  0  2  0  0  0  0  0  0
  186.9650  177.5880  145.9470 C   0  0  0  0  0  2  0  0  0  0  0  0
  189.5030  177.4700  146.1390 C   0  0  0  0  0  0  0  0  0  0  0  0
  186.6720  177.8620  141.9230 C   0  0  0  0  0  2  0  0  0  0  0  0
  185.9890  179.2050  142.1120 C   0  0  0  0  0  2  0  0  0  0  0  0
  183.0400  179.0740  144.4560 C   0  0  0  0  0  3  0  0  0  0  0  0
  180.6830  178.7430  144.1050 O   0  0  0  0  0  1  0  0  0  0  0  0
  182.2030  178.6680  142.2220 C   0  0  0  0  0  0  0  0  0  0  0  0
  181.1310  178.4210  141.3720 O   0  0  0  0  0  1  0  0  0  0  0  0
  183.5060  178.7430  141.7000 C   0  0  0  0  0  0  0  0  0  0  0  0
  181.9730  178.8290  143.5940 C   0  0  0  0  0  0  0  0  0  0  0  0
  184.5850  179.0190  142.5840 C   0  0  0  0  0  0  0  0  0  0  0  0
  184.3350  179.1730  143.9530 C   0  0  0  0  0  3  0  0  0  0  0  0
  183.6830  179.5670  139.3380 C   0  0  0  0  0  1  0  0  0  0  0  0
  183.6560  178.5390  140.3180 O   0  0  0  0  0  0  0  0  0  0  0  0
  1 16  1  6  0  0  0
  1  8  1  0  0  0  0
  2  6  1  0  0  0  0
  3  7  1  0  0  0  0
  3  1  1  1  0  0  0
  4  3  1  0  0  0  0
  5  2  1  0  0  0  0
  5  4  1  0  0  0  0
  6  7  1  0  0  0  0
  9 10  1  0  0  0  0
 11  8  1  6  0  0  0
 11 14  1  0  0  0  0
 11 15  1  0  0  0  0
 12 15  1  0  0  0  0
 13 10  1  0  0  0  0
 14 13  1  0  0  0  0
 15  9  2  0  0  0  0
 16 17  1  0  0  0  0
 17 24  1  0  0  0  0
 20 23  1  0  0  0  0
 21 20  1  0  0  0  0
 22 20  2  0  0  0  0
 22 24  1  0  0  0  0
 23 19  1  0  0  0  0
 23 18  2  0  0  0  0
 24 25  2  0  0  0  0
 25 18  1  0  0  0  0
 26 27  1  0  0  0  0
 27 22  1  0  0  0  0
M  END
>  <MODEL>
3

>  <REMARK>
 VINA RESULT:      -8.1      3.039      6.470
  Name = 
  7 active torsions:
  status: ('A' for Active; 'I' for Inactive)
    1  A    between atoms: S_1  and  C_15
    2  A    between atoms: S_1  and  C_18
    3  A    between atoms: C_2  and  C_6
    4  A    between atoms: C_2  and  C_15
    5  A    between atoms: C_6  and  C_17
    6  A    between atoms: C_9  and  C_15
    7  A    between atoms: C_14  and  O_19
                            x       y       z     vdW  Elec       q    Type
                         _______ _______ _______ _____ _____    ______ ____

>  <TORSDO>
F 7

$$$$
=
 OpenBabel11052413473D

 27 29  0  0  1  0  0  0  0  0999 V2000
  189.3650  177.1930  141.4350 C   0  0  2  0  0  3  0  0  0  0  0  0
  191.6220  176.9620  145.0890 C   0  0  0  0  0  2  0  0  0  0  0  0
  190.5250  177.1550  142.4390 C   0  0  2  0  0  3  0  0  0  0  0  0
  190.5880  175.8610  143.2570 C   0  0  0  0  0  2  0  0  0  0  0  0
  191.7620  175.8710  144.1270 N   0  0  0  0  0  2  0  0  0  0  0  0
  191.6530  178.3030  144.3620 C   0  0  0  0  0  2  0  0  0  0  0  0
  190.5010  178.3710  143.3640 C   0  0  0  0  0  2  0  0  0  0  0  0
  189.7740  177.8460  139.7660 S   0  0  0  0  0  0  0  0  0  0  0  0
  192.8500  176.3470  137.8980 C   0  0  0  0  0  3  0  0  0  0  0  0
  192.1960  175.6150  136.7620 C   0  0  0  0  0  2  0  0  0  0  0  0
  190.7200  176.3970  139.1950 C   0  0  1  0  0  3  0  0  0  0  0  0
  192.8630  177.4340  139.9740 O   0  0  0  0  0  1  0  0  0  0  0  0
  190.9680  174.8490  137.2370 C   0  0  0  0  0  2  0  0  0  0  0  0
  190.0400  175.8210  137.9490 C   0  0  0  0  0  2  0  0  0  0  0  0
  192.1760  176.7490  138.9810 C   0  0  0  0  0  0  0  0  0  0  0  0
  188.1040  177.8150  142.0110 C   0  0  0  0  0  2  0  0  0  0  0  0
  187.3980  176.8030  142.8970 C   0  0  0  0  0  2  0  0  0  0  0  0
  187.1690  178.1750  146.4010 C   0  0  0  0  0  3  0  0  0  0  0  0
  185.4960  179.4710  147.5450 O   0  0  0  0  0  1  0  0  0  0  0  0
  185.1190  178.7690  145.2600 C   0  0  0  0  0  0  0  0  0  0  0  0
  183.8810  179.4010  145.2740 O   0  0  0  0  0  1  0  0  0  0  0  0
  185.5440  178.0900  144.1040 C   0  0  0  0  0  0  0  0  0  0  0  0
  185.9270  178.8070  146.4020 C   0  0  0  0  0  0  0  0  0  0  0  0
  186.8240  177.4700  144.1030 C   0  0  0  0  0  0  0  0  0  0  0  0
  187.6150  177.5150  145.2580 C   0  0  0  0  0  3  0  0  0  0  0  0
  184.6360  179.0340  141.9650 C   0  0  0  0  0  1  0  0  0  0  0  0
  184.6620  178.0720  143.0100 O   0  0  0  0  0  0  0  0  0  0  0  0
  1 16  1  1  0  0  0
  3  1  1  1  0  0  0
  3  4  1  0  0  0  0
  3  7  1  0  0  0  0
  4  5  1  0  0  0  0
  5  2  1  0  0  0  0
  6  2  1  0  0  0  0
  7  6  1  0  0  0  0
  8  1  1  0  0  0  0
  9 15  2  0  0  0  0
 10 13  1  0  0  0  0
 10  9  1  0  0  0  0
 11  8  1  6  0  0  0
 13 14  1  0  0  0  0
 14 11  1  0  0  0  0
 15 11  1  0  0  0  0
 15 12  1  0  0  0  0
 16 17  1  0  0  0  0
 17 24  1  0  0  0  0
 18 23  1  0  0  0  0
 20 21  1  0  0  0  0
 20 23  2  0  0  0  0
 22 20  1  0  0  0  0
 23 19  1  0  0  0  0
 24 22  2  0  0  0  0
 24 25  1  0  0  0  0
 25 18  2  0  0  0  0
 26 27  1  0  0  0  0
 27 22  1  0  0  0  0
M  END
>  <MODEL>
4

>  <REMARK>
 VINA RESULT:      -8.1      2.489      7.220
  Name = 
  7 active torsions:
  status: ('A' for Active; 'I' for Inactive)
    1  A    between atoms: S_1  and  C_15
    2  A    between atoms: S_1  and  C_18
    3  A    between atoms: C_2  and  C_6
    4  A    between atoms: C_2  and  C_15
    5  A    between atoms: C_6  and  C_17
    6  A    between atoms: C_9  and  C_15
    7  A    between atoms: C_14  and  O_19
                            x       y       z     vdW  Elec       q    Type
                         _______ _______ _______ _____ _____    ______ ____

>  <TORSDO>
F 7

$$$$
=
 OpenBabel11052413473D

 27 29  0  0  1  0  0  0  0  0999 V2000
  187.4980  178.1160  141.3880 C   0  0  2  0  0  3  0  0  0  0  0  0
  189.7660  176.7250  138.0090 C   0  0  0  0  0  2  0  0  0  0  0  0
  188.4800  178.0520  140.2110 C   0  0  2  0  0  3  0  0  0  0  0  0
  187.8080  177.7590  138.8650 C   0  0  0  0  0  2  0  0  0  0  0  0
  188.7960  177.7950  137.7890 N   0  0  0  0  0  2  0  0  0  0  0  0
  190.5570  176.9930  139.2870 C   0  0  0  0  0  2  0  0  0  0  0  0
  189.6030  177.0500  140.4760 C   0  0  0  0  0  2  0  0  0  0  0  0
  186.1190  179.3180  141.2130 S   0  0  0  0  0  0  0  0  0  0  0  0
  182.4570  178.4510  142.2310 C   0  0  0  0  0  3  0  0  0  0  0  0
  182.3570  179.0790  143.5910 C   0  0  0  0  0  2  0  0  0  0  0  0
  184.9500  178.4680  142.3210 C   0  0  1  0  0  3  0  0  0  0  0  0
  183.6200  177.6470  140.3630 O   0  0  0  0  0  1  0  0  0  0  0  0
  183.6090  178.8090  144.4150 C   0  0  0  0  0  2  0  0  0  0  0  0
  184.8180  179.2750  143.6170 C   0  0  0  0  0  2  0  0  0  0  0  0
  183.6280  178.2180  141.6280 C   0  0  0  0  0  0  0  0  0  0  0  0
  188.1940  178.2190  142.7350 C   0  0  0  0  0  2  0  0  0  0  0  0
  187.8710  176.9930  143.5690 C   0  0  0  0  0  2  0  0  0  0  0  0
  186.9930  177.9210  147.1160 C   0  0  0  0  0  3  0  0  0  0  0  0
  188.2630  177.9640  149.1590 O   0  0  0  0  0  1  0  0  0  0  0  0
  189.3430  177.3410  147.0840 C   0  0  0  0  0  0  0  0  0  0  0  0
  190.5420  177.1680  147.7650 O   0  0  0  0  0  1  0  0  0  0  0  0
  189.2890  177.1240  145.6960 C   0  0  0  0  0  0  0  0  0  0  0  0
  188.2000  177.7410  147.7880 C   0  0  0  0  0  0  0  0  0  0  0  0
  188.0470  177.2850  145.0230 C   0  0  0  0  0  0  0  0  0  0  0  0
  186.9170  177.6910  145.7440 C   0  0  0  0  0  3  0  0  0  0  0  0
  191.4250  177.6590  144.4950 C   0  0  0  0  0  1  0  0  0  0  0  0
  190.4850  176.7550  145.0580 O   0  0  0  0  0  0  0  0  0  0  0  0
  1 16  1  1  0  0  0
  2  6  1  0  0  0  0
  3  7  1  0  0  0  0
  3  1  1  1  0  0  0
  4  3  1  0  0  0  0
  5  2  1  0  0  0  0
  5  4  1  0  0  0  0
  6  7  1  0  0  0  0
  8  1  1  0  0  0  0
  9 10  1  0  0  0  0
 10 13  1  0  0  0  0
 11  8  1  6  0  0  0
 11 14  1  0  0  0  0
 12 15  1  0  0  0  0
 14 13  1  0  0  0  0
 15  9  2  0  0  0  0
 15 11  1  0  0  0  0
 16 17  1  0  0  0  0
 17 24  1  0  0  0  0
 18 23  1  0  0  0  0
 20 21  1  0  0  0  0
 20 23  2  0  0  0  0
 22 20  1  0  0  0  0
 23 19  1  0  0  0  0
 24 22  2  0  0  0  0
 24 25  1  0  0  0  0
 25 18  2  0  0  0  0
 26 27  1  0  0  0  0
 27 22  1  0  0  0  0
M  END
>  <MODEL>
5

>  <REMARK>
 VINA RESULT:      -8.0      3.103      6.662
  Name = 
  7 active torsions:
  status: ('A' for Active; 'I' for Inactive)
    1  A    between atoms: S_1  and  C_15
    2  A    between atoms: S_1  and  C_18
    3  A    between atoms: C_2  and  C_6
    4  A    between atoms: C_2  and  C_15
    5  A    between atoms: C_6  and  C_17
    6  A    between atoms: C_9  and  C_15
    7  A    between atoms: C_14  and  O_19
                            x       y       z     vdW  Elec       q    Type
                         _______ _______ _______ _____ _____    ______ ____

>  <TORSDO>
F 7

$$$$
=
 OpenBabel11052413473D

 27 29  0  0  1  0  0  0  0  0999 V2000
  188.2950  177.4310  143.2730 C   0  0  2  0  0  3  0  0  0  0  0  0
  189.9150  176.8500  147.2150 C   0  0  0  0  0  2  0  0  0  0  0  0
  188.9620  177.6800  144.6330 C   0  0  2  0  0  3  0  0  0  0  0  0
  190.2240  176.8400  144.8610 C   0  0  0  0  0  2  0  0  0  0  0  0
  190.8410  177.1940  146.1380 N   0  0  0  0  0  2  0  0  0  0  0  0
  188.6640  177.7190  147.1220 C   0  0  0  0  0  2  0  0  0  0  0  0
  187.9740  177.4830  145.7820 C   0  0  0  0  0  2  0  0  0  0  0  0
  188.8400  178.5310  141.9040 S   0  0  0  0  0  0  0  0  0  0  0  0
  191.4010  177.0270  139.3770 C   0  0  0  0  0  3  0  0  0  0  0  0
  190.6130  177.0330  138.0980 C   0  0  0  0  0  2  0  0  0  0  0  0
  189.3240  177.2090  140.7470 C   0  0  1  0  0  3  0  0  0  0  0  0
  191.6380  177.1550  141.7040 O   0  0  0  0  0  1  0  0  0  0  0  0
  189.1860  176.5540  138.3290 C   0  0  0  0  0  2  0  0  0  0  0  0
  188.5660  177.4020  139.4290 C   0  0  0  0  0  2  0  0  0  0  0  0
  190.8260  177.1570  140.5780 C   0  0  0  0  0  0  0  0  0  0  0  0
  186.7830  177.3230  143.3670 C   0  0  0  0  0  2  0  0  0  0  0  0
  186.1430  178.3580  142.4590 C   0  0  0  0  0  2  0  0  0  0  0  0
  182.9880  178.8860  144.4540 C   0  0  0  0  0  3  0  0  0  0  0  0
  180.6760  179.1130  143.8290 O   0  0  0  0  0  1  0  0  0  0  0  0
  182.3470  178.7100  142.1260 C   0  0  0  0  0  0  0  0  0  0  0  0
  181.3540  178.7280  141.1530 O   0  0  0  0  0  1  0  0  0  0  0  0
  183.6850  178.4880  141.7560 C   0  0  0  0  0  0  0  0  0  0  0  0
  182.0020  178.9040  143.4690 C   0  0  0  0  0  0  0  0  0  0  0  0
  184.6880  178.4970  142.7640 C   0  0  0  0  0  0  0  0  0  0  0  0
  184.3210  178.6880  144.1020 C   0  0  0  0  0  3  0  0  0  0  0  0
  184.3100  179.2780  139.4590 C   0  0  0  0  0  1  0  0  0  0  0  0
  183.9460  178.2710  140.3920 O   0  0  0  0  0  0  0  0  0  0  0  0
  1 16  1  1  0  0  0
  3  1  1  6  0  0  0
  3  4  1  0  0  0  0
  3  7  1  0  0  0  0
  4  5  1  0  0  0  0
  5  2  1  0  0  0  0
  6  2  1  0  0  0  0
  7  6  1  0  0  0  0
  8  1  1  0  0  0  0
  9 15  2  0  0  0  0
 10 13  1  0  0  0  0
 10  9  1  0  0  0  0
 11  8  1  1  0  0  0
 13 14  1  0  0  0  0
 14 11  1  0  0  0  0
 15 11  1  0  0  0  0
 15 12  1  0  0  0  0
 17 24  1  0  0  0  0
 17 16  1  0  0  0  0
 20 23  1  0  0  0  0
 21 20  1  0  0  0  0
 22 20  2  0  0  0  0
 22 24  1  0  0  0  0
 23 19  1  0  0  0  0
 23 18  2  0  0  0  0
 24 25  2  0  0  0  0
 25 18  1  0  0  0  0
 26 27  1  0  0  0  0
 27 22  1  0  0  0  0
M  END
>  <MODEL>
6

>  <REMARK>
 VINA RESULT:      -7.9      2.344      6.429
  Name = 
  7 active torsions:
  status: ('A' for Active; 'I' for Inactive)
    1  A    between atoms: S_1  and  C_15
    2  A    between atoms: S_1  and  C_18
    3  A    between atoms: C_2  and  C_6
    4  A    between atoms: C_2  and  C_15
    5  A    between atoms: C_6  and  C_17
    6  A    between atoms: C_9  and  C_15
    7  A    between atoms: C_14  and  O_19
                            x       y       z     vdW  Elec       q    Type
                         _______ _______ _______ _____ _____    ______ ____

>  <TORSDO>
F 7

$$$$
=
 OpenBabel11052413473D

 27 29  0  0  1  0  0  0  0  0999 V2000
  189.5240  177.4690  141.2850 C   0  0  2  0  0  3  0  0  0  0  0  0
  191.4700  176.7340  145.0490 C   0  0  0  0  0  2  0  0  0  0  0  0
  190.5980  177.2580  142.3610 C   0  0  2  0  0  3  0  0  0  0  0  0
  190.5220  175.8880  143.0440 C   0  0  0  0  0  2  0  0  0  0  0  0
  191.6230  175.7360  143.9920 N   0  0  0  0  0  2  0  0  0  0  0  0
  191.6340  178.1360  144.4690 C   0  0  0  0  0  2  0  0  0  0  0  0
  190.5700  178.3760  143.4030 C   0  0  0  0  0  2  0  0  0  0  0  0
  190.1490  177.7450  139.5780 S   0  0  0  0  0  0  0  0  0  0  0  0
  189.0280  175.6180  136.5090 C   0  0  0  0  0  3  0  0  0  0  0  0
  187.9010  176.4420  135.9560 C   0  0  0  0  0  2  0  0  0  0  0  0
  188.8780  176.7580  138.7220 C   0  0  1  0  0  3  0  0  0  0  0  0
  190.5640  174.9920  138.1630 O   0  0  0  0  0  1  0  0  0  0  0  0
  187.0020  176.9610  137.0700 C   0  0  0  0  0  2  0  0  0  0  0  0
  187.8640  177.7080  138.0760 C   0  0  0  0  0  2  0  0  0  0  0  0
  189.5100  175.7910  137.7450 C   0  0  0  0  0  0  0  0  0  0  0  0
  188.4710  178.4860  141.6910 C   0  0  0  0  0  2  0  0  0  0  0  0
  187.1100  177.8150  141.7400 C   0  0  0  0  0  2  0  0  0  0  0  0
  186.7020  177.7490  145.4870 C   0  0  0  0  0  3  0  0  0  0  0  0
  185.0000  178.5930  146.9630 O   0  0  0  0  0  1  0  0  0  0  0  0
  184.7470  178.8400  144.5690 C   0  0  0  0  0  0  0  0  0  0  0  0
  183.5290  179.4820  144.7690 O   0  0  0  0  0  1  0  0  0  0  0  0
  185.2230  178.6350  143.2630 C   0  0  0  0  0  0  0  0  0  0  0  0
  185.4820  178.3960  145.6750 C   0  0  0  0  0  0  0  0  0  0  0  0
  186.4810  177.9980  143.0820 C   0  0  0  0  0  0  0  0  0  0  0  0
  187.1990  177.5560  144.2000 C   0  0  0  0  0  3  0  0  0  0  0  0
  183.5130  178.2710  141.4640 C   0  0  0  0  0  1  0  0  0  0  0  0
  184.4110  179.0830  142.2060 O   0  0  0  0  0  0  0  0  0  0  0  0
  1 16  1  1  0  0  0
  3  1  1  6  0  0  0
  3  4  1  0  0  0  0
  3  7  1  0  0  0  0
  4  5  1  0  0  0  0
  5  2  1  0  0  0  0
  6  2  1  0  0  0  0
  7  6  1  0  0  0  0
  8  1  1  0  0  0  0
  9 15  2  0  0  0  0
 10  9  1  0  0  0  0
 10 13  1  0  0  0  0
 11  8  1  6  0  0  0
 13 14  1  0  0  0  0
 14 11  1  0  0  0  0
 15 12  1  0  0  0  0
 15 11  1  0  0  0  0
 16 17  1  0  0  0  0
 17 24  1  0  0  0  0
 18 23  1  0  0  0  0
 20 21  1  0  0  0  0
 20 23  2  0  0  0  0
 22 20  1  0  0  0  0
 23 19  1  0  0  0  0
 24 22  2  0  0  0  0
 24 25  1  0  0  0  0
 25 18  2  0  0  0  0
 26 27  1  0  0  0  0
 27 22  1  0  0  0  0
M  END
>  <MODEL>
7

>  <REMARK>
 VINA RESULT:      -7.8      2.285      6.625
  Name = 
  7 active torsions:
  status: ('A' for Active; 'I' for Inactive)
    1  A    between atoms: S_1  and  C_15
    2  A    between atoms: S_1  and  C_18
    3  A    between atoms: C_2  and  C_6
    4  A    between atoms: C_2  and  C_15
    5  A    between atoms: C_6  and  C_17
    6  A    between atoms: C_9  and  C_15
    7  A    between atoms: C_14  and  O_19
                            x       y       z     vdW  Elec       q    Type
                         _______ _______ _______ _____ _____    ______ ____

>  <TORSDO>
F 7

$$$$
=
 OpenBabel11052413473D

 27 29  0  0  1  0  0  0  0  0999 V2000
  187.4120  178.0670  141.4960 C   0  0  2  0  0  3  0  0  0  0  0  0
  190.1040  176.7740  138.4010 C   0  0  0  0  0  2  0  0  0  0  0  0
  188.5460  178.0330  140.4630 C   0  0  2  0  0  3  0  0  0  0  0  0
  188.0620  177.8110  139.0260 C   0  0  0  0  0  2  0  0  0  0  0  0
  189.1890  177.8730  138.0990 N   0  0  0  0  0  2  0  0  0  0  0  0
  190.7150  176.9710  139.7860 C   0  0  0  0  0  2  0  0  0  0  0  0
  189.6080  176.9980  140.8350 C   0  0  0  0  0  2  0  0  0  0  0  0
  185.9780  179.1350  141.0720 S   0  0  0  0  0  0  0  0  0  0  0  0
  182.2900  178.4300  142.1230 C   0  0  0  0  0  3  0  0  0  0  0  0
  182.2240  179.0800  143.4750 C   0  0  0  0  0  2  0  0  0  0  0  0
  184.7820  178.3480  142.1990 C   0  0  1  0  0  3  0  0  0  0  0  0
  183.4080  177.5560  140.2590 O   0  0  0  0  0  1  0  0  0  0  0  0
  183.4700  178.7700  144.2950 C   0  0  0  0  0  2  0  0  0  0  0  0
  184.6920  179.1760  143.4840 C   0  0  0  0  0  2  0  0  0  0  0  0
  183.4470  178.1420  141.5170 C   0  0  0  0  0  0  0  0  0  0  0  0
  187.9100  178.2960  142.9130 C   0  0  0  0  0  2  0  0  0  0  0  0
  187.7780  177.0110  143.7110 C   0  0  0  0  0  2  0  0  0  0  0  0
  191.0730  176.8150  145.5330 C   0  0  0  0  0  3  0  0  0  0  0  0
  191.6860  177.1050  147.8410 O   0  0  0  0  0  1  0  0  0  0  0  0
  189.3630  177.2730  147.1840 C   0  0  0  0  0  0  0  0  0  0  0  0
  189.0110  177.5200  148.5060 O   0  0  0  0  0  1  0  0  0  0  0  0
  188.3670  177.2240  146.1930 C   0  0  0  0  0  0  0  0  0  0  0  0
  190.7080  177.0660  146.8540 C   0  0  0  0  0  0  0  0  0  0  0  0
  188.7510  176.9930  144.8440 C   0  0  0  0  0  0  0  0  0  0  0  0
  190.1010  176.7830  144.5350 C   0  0  0  0  0  3  0  0  0  0  0  0
  186.3720  178.6640  146.6810 C   0  0  0  0  0  1  0  0  0  0  0  0
  187.0380  177.4110  146.6090 O   0  0  0  0  0  0  0  0  0  0  0  0
  1 16  1  1  0  0  0
  2  6  1  0  0  0  0
  3  7  1  0  0  0  0
  3  1  1  1  0  0  0
  4  3  1  0  0  0  0
  5  2  1  0  0  0  0
  5  4  1  0  0  0  0
  6  7  1  0  0  0  0
  8  1  1  0  0  0  0
  9 10  1  0  0  0  0
 10 13  1  0  0  0  0
 11  8  1  6  0  0  0
 11 14  1  0  0  0  0
 12 15  1  0  0  0  0
 14 13  1  0  0  0  0
 15  9  2  0  0  0  0
 15 11  1  0  0  0  0
 16 17  1  0  0  0  0
 17 24  1  0  0  0  0
 18 23  1  0  0  0  0
 20 21  1  0  0  0  0
 22 27  1  0  0  0  0
 22 20  1  0  0  0  0
 23 20  2  0  0  0  0
 23 19  1  0  0  0  0
 24 22  2  0  0  0  0
 25 24  1  0  0  0  0
 25 18  2  0  0  0  0
 27 26  1  0  0  0  0
M  END
>  <MODEL>
8

>  <REMARK>
 VINA RESULT:      -7.7      3.083      6.319
  Name = 
  7 active torsions:
  status: ('A' for Active; 'I' for Inactive)
    1  A    between atoms: S_1  and  C_15
    2  A    between atoms: S_1  and  C_18
    3  A    between atoms: C_2  and  C_6
    4  A    between atoms: C_2  and  C_15
    5  A    between atoms: C_6  and  C_17
    6  A    between atoms: C_9  and  C_15
    7  A    between atoms: C_14  and  O_19
                            x       y       z     vdW  Elec       q    Type
                         _______ _______ _______ _____ _____    ______ ____

>  <TORSDO>
F 7

$$$$
=
 OpenBabel11052413473D

 27 29  0  0  1  0  0  0  0  0999 V2000
  188.5160  177.7630  142.0650 C   0  0  2  0  0  3  0  0  0  0  0  0
  190.6530  177.1580  138.3820 C   0  0  0  0  0  2  0  0  0  0  0  0
  188.9810  177.1880  140.7200 C   0  0  2  0  0  3  0  0  0  0  0  0
  190.4520  176.7560  140.7130 C   0  0  0  0  0  2  0  0  0  0  0  0
  190.7920  176.1470  139.4290 N   0  0  0  0  0  2  0  0  0  0  0  0
  189.1900  177.5740  138.2510 C   0  0  0  0  0  2  0  0  0  0  0  0
  188.7050  178.1600  139.5730 C   0  0  0  0  0  2  0  0  0  0  0  0
  188.1420  176.5280  143.3740 S   0  0  0  0  0  0  0  0  0  0  0  0
  190.4320  176.9140  146.5050 C   0  0  0  0  0  3  0  0  0  0  0  0
  189.4250  177.0460  147.6120 C   0  0  0  0  0  2  0  0  0  0  0  0
  188.7340  177.5210  144.7820 C   0  0  1  0  0  3  0  0  0  0  0  0
  191.1100  176.9220  144.2630 O   0  0  0  0  0  1  0  0  0  0  0  0
  188.2840  177.9720  147.2090 C   0  0  0  0  0  2  0  0  0  0  0  0
  187.6910  177.4640  145.9030 C   0  0  0  0  0  2  0  0  0  0  0  0
  190.1140  177.0790  145.2170 C   0  0  0  0  0  0  0  0  0  0  0  0
  187.4200  178.8040  141.9150 C   0  0  0  0  0  2  0  0  0  0  0  0
  186.1300  178.2730  142.5150 C   0  0  0  0  0  2  0  0  0  0  0  0
  184.1870  179.2620  139.4380 C   0  0  0  0  0  3  0  0  0  0  0  0
  181.8330  179.4500  138.9800 O   0  0  0  0  0  1  0  0  0  0  0  0
  182.5810  178.8270  141.1960 C   0  0  0  0  0  0  0  0  0  0  0  0
  181.2580  178.7500  141.6160 O   0  0  0  0  0  1  0  0  0  0  0  0
  183.6200  178.5620  142.1050 C   0  0  0  0  0  0  0  0  0  0  0  0
  182.8650  179.1790  139.8700 C   0  0  0  0  0  0  0  0  0  0  0  0
  184.9650  178.6230  141.6480 C   0  0  0  0  0  0  0  0  0  0  0  0
  185.2290  178.9820  140.3200 C   0  0  0  0  0  3  0  0  0  0  0  0
  183.1480  179.1790  144.4900 C   0  0  0  0  0  1  0  0  0  0  0  0
  183.2520  178.2460  143.4240 O   0  0  0  0  0  0  0  0  0  0  0  0
  1 16  1  6  0  0  0
  1  8  1  0  0  0  0
  2  5  1  0  0  0  0
  3  1  1  1  0  0  0
  4  3  1  0  0  0  0
  5  4  1  0  0  0  0
  6  2  1  0  0  0  0
  6  7  1  0  0  0  0
  7  3  1  0  0  0  0
  9 10  1  0  0  0  0
 11  8  1  6  0  0  0
 11 15  1  0  0  0  0
 11 14  1  0  0  0  0
 12 15  1  0  0  0  0
 13 10  1  0  0  0  0
 14 13  1  0  0  0  0
 15  9  2  0  0  0  0
 16 17  1  0  0  0  0
 18 23  2  0  0  0  0
 18 25  1  0  0  0  0
 19 23  1  0  0  0  0
 20 21  1  0  0  0  0
 20 22  2  0  0  0  0
 22 27  1  0  0  0  0
 23 20  1  0  0  0  0
 24 22  1  0  0  0  0
 24 17  1  0  0  0  0
 25 24  2  0  0  0  0
 27 26  1  0  0  0  0
M  END
>  <MODEL>
9

>  <REMARK>
 VINA RESULT:      -7.7      2.916      6.476
  Name = 
  7 active torsions:
  status: ('A' for Active; 'I' for Inactive)
    1  A    between atoms: S_1  and  C_15
    2  A    between atoms: S_1  and  C_18
    3  A    between atoms: C_2  and  C_6
    4  A    between atoms: C_2  and  C_15
    5  A    between atoms: C_6  and  C_17
    6  A    between atoms: C_9  and  C_15
    7  A    between atoms: C_14  and  O_19
                            x       y       z     vdW  Elec       q    Type
                         _______ _______ _______ _____ _____    ______ ____

>  <TORSDO>
F 7

$$$$
