=
 OpenBabel11052412353D

 30 33  0  0  1  0  0  0  0  0999 V2000
  189.8290  176.6810  136.2090 C   0  0  0  0  0  0  0  0  0  0  0  0
  191.4520  174.9160  136.4890 C   0  0  0  0  0  3  0  0  0  0  0  0
  192.9080  177.4090  140.0360 C   0  0  0  0  0  2  0  0  0  0  0  0
  188.8260  176.4610  139.0480 C   0  0  0  0  0  2  0  0  0  0  0  0
  189.2710  177.8820  136.6520 O   0  0  0  0  0  0  0  0  0  0  0  0
  187.0380  177.5800  137.6450 C   0  0  2  0  0  3  0  0  0  0  0  0
  187.7050  179.6850  136.4980 C   0  0  0  0  0  1  0  0  0  0  0  0
  189.4080  177.7490  141.5780 C   0  0  2  0  0  3  0  0  0  0  0  0
  191.8210  177.4050  141.0500 C   0  0  0  0  0  0  0  0  0  0  0  0
  187.8850  178.1810  136.5040 C   0  0  1  0  0  3  0  0  0  0  0  0
  187.7590  177.4450  138.9180 N   0  0  0  0  0  0  0  0  0  0  0  0
  192.4960  174.1150  137.1840 C   0  0  0  0  0  2  0  0  0  0  0  0
  188.4380  178.8000  141.0070 C   0  0  0  0  0  2  0  0  0  0  0  0
  189.3930  176.1420  135.1540 O   0  0  0  0  0  0  0  0  0  0  0  0
  192.5470  176.6030  138.8230 C   0  0  0  0  0  0  0  0  0  0  0  0
  193.7150  174.9470  137.3620 C   0  0  0  0  0  3  0  0  0  0  0  0
  190.9020  176.0240  137.0030 C   0  0  0  0  0  0  0  0  0  0  0  0
  190.1500  177.1930  139.1980 C   0  0  1  0  0  3  0  0  0  0  0  0
  192.1120  177.4940  142.2730 O   0  0  0  0  0  0  0  0  0  0  0  0
  190.4570  177.3680  140.6240 N   0  0  0  0  0  0  0  0  0  0  0  0
  186.2290  178.7150  140.1350 O   0  0  0  0  0  0  0  0  0  0  0  0
  193.7170  176.0480  138.1090 C   0  0  0  0  0  3  0  0  0  0  0  0
  191.2590  176.5390  138.3760 C   0  0  0  0  0  0  0  0  0  0  0  0
  187.4100  178.2930  140.0260 C   0  0  0  0  0  0  0  0  0  0  0  0
  186.2910  176.3090  137.2480 C   0  0  0  0  0  2  0  0  0  0  0  0
  184.3460  177.3310  137.4480 C   0  0  0  0  0  1  0  0  0  0  0  0
  185.1210  176.6050  136.5460 O   0  0  0  0  0  0  0  0  0  0  0  0
  188.7140  176.5240  142.1700 C   0  0  0  0  0  2  0  0  0  0  0  0
  188.9520  177.3180  144.5220 C   0  0  0  0  0  1  0  0  0  0  0  0
  187.9740  176.8730  143.4520 C   0  0  0  0  0  2  0  0  0  0  0  0
  1  5  1  0  0  0  0
  1 17  1  0  0  0  0
  2 17  2  0  0  0  0
  2 12  1  0  0  0  0
  3  9  1  0  0  0  0
  6 25  1  6  0  0  0
  6 11  1  0  0  0  0
  8 28  1  6  0  0  0
  9 19  2  0  0  0  0
 10  7  1  1  0  0  0
 10  5  1  0  0  0  0
 10  6  1  0  0  0  0
 11  4  1  0  0  0  0
 11 24  1  0  0  0  0
 12 16  1  0  0  0  0
 13  8  1  0  0  0  0
 14  1  2  0  0  0  0
 15  3  1  0  0  0  0
 16 22  2  0  0  0  0
 17 23  1  0  0  0  0
 18  4  1  1  0  0  0
 18 20  1  0  0  0  0
 20  9  1  0  0  0  0
 20  8  1  0  0  0  0
 22 15  1  0  0  0  0
 23 15  2  0  0  0  0
 23 18  1  0  0  0  0
 24 21  2  0  0  0  0
 24 13  1  0  0  0  0
 27 25  1  0  0  0  0
 27 26  1  0  0  0  0
 28 30  1  0  0  0  0
 30 29  1  0  0  0  0
M  END
>  <MODEL>
1

>  <REMARK>
 VINA RESULT:      -6.1      0.000      0.000
  Name = 
  4 active torsions:
  status: ('A' for Active; 'I' for Inactive)
    1  A    between atoms: C_6  and  C_8
    2  A    between atoms: C_6  and  O_21
    3  A    between atoms: C_7  and  C_10
    4  A    between atoms: C_7  and  C_26
                            x       y       z     vdW  Elec       q    Type
                         _______ _______ _______ _____ _____    ______ ____

>  <TORSDO>
F 4

$$$$
=
 OpenBabel11052412353D

 30 33  0  0  1  0  0  0  0  0999 V2000
  181.8910  174.0100  137.1770 C   0  0  0  0  0  0  0  0  0  0  0  0
  184.0960  173.0360  137.3150 C   0  0  0  0  0  3  0  0  0  0  0  0
  185.5500  177.3670  137.1060 C   0  0  0  0  0  2  0  0  0  0  0  0
  182.3470  175.8320  139.5400 C   0  0  0  0  0  2  0  0  0  0  0  0
  181.0810  175.1460  137.1140 O   0  0  0  0  0  0  0  0  0  0  0  0
  179.8510  175.5490  139.2090 C   0  0  2  0  0  3  0  0  0  0  0  0
  178.9550  176.2390  136.9930 C   0  0  0  0  0  1  0  0  0  0  0  0
  183.2460  178.5590  139.9370 C   0  0  2  0  0  3  0  0  0  0  0  0
  185.1000  178.0410  138.3530 C   0  0  0  0  0  0  0  0  0  0  0  0
  179.7860  175.1940  137.7090 C   0  0  1  0  0  3  0  0  0  0  0  0
  181.0000  176.3880  139.5760 N   0  0  0  0  0  0  0  0  0  0  0  0
  185.5690  173.0100  137.5170 C   0  0  0  0  0  2  0  0  0  0  0  0
  181.7660  178.8520  139.6240 C   0  0  0  0  0  2  0  0  0  0  0  0
  181.3640  172.8650  137.1300 O   0  0  0  0  0  0  0  0  0  0  0  0
  185.1390  175.9240  137.0690 C   0  0  0  0  0  0  0  0  0  0  0  0
  186.2280  173.7700  136.4220 C   0  0  0  0  0  3  0  0  0  0  0  0
  183.3620  174.1570  137.3400 C   0  0  0  0  0  0  0  0  0  0  0  0
  183.1230  176.5070  138.4200 C   0  0  1  0  0  3  0  0  0  0  0  0
  185.7860  178.9840  138.8300 O   0  0  0  0  0  0  0  0  0  0  0  0
  183.8640  177.6560  138.9580 N   0  0  0  0  0  0  0  0  0  0  0  0
  179.7010  178.0830  140.5140 O   0  0  0  0  0  0  0  0  0  0  0  0
  186.0300  175.0750  136.2480 C   0  0  0  0  0  3  0  0  0  0  0  0
  183.9670  175.5090  137.6300 C   0  0  0  0  0  0  0  0  0  0  0  0
  180.7850  177.7570  139.9620 C   0  0  0  0  0  0  0  0  0  0  0  0
  179.6780  174.3430  140.1300 C   0  0  0  0  0  2  0  0  0  0  0  0
  179.1830  173.5530  142.1290 C   0  0  0  0  0  1  0  0  0  0  0  0
  179.1510  174.7190  141.3670 O   0  0  0  0  0  0  0  0  0  0  0  0
  183.4940  178.0910  141.3700 C   0  0  0  0  0  2  0  0  0  0  0  0
  184.5560  178.7120  143.5390 C   0  0  0  0  0  1  0  0  0  0  0  0
  184.5910  178.9080  142.0350 C   0  0  0  0  0  2  0  0  0  0  0  0
  1 17  1  0  0  0  0
  2 17  2  0  0  0  0
  2 12  1  0  0  0  0
  3  9  1  0  0  0  0
  4 11  1  0  0  0  0
  5  1  1  0  0  0  0
  5 10  1  0  0  0  0
  6 11  1  0  0  0  0
  6 25  1  1  0  0  0
  8 28  1  1  0  0  0
  9 19  2  0  0  0  0
  9 20  1  0  0  0  0
 10  7  1  6  0  0  0
 10  6  1  0  0  0  0
 11 24  1  0  0  0  0
 13  8  1  0  0  0  0
 13 24  1  0  0  0  0
 14  1  2  0  0  0  0
 15  3  1  0  0  0  0
 15 23  2  0  0  0  0
 16 12  1  0  0  0  0
 17 23  1  0  0  0  0
 18 20  1  0  0  0  0
 18  4  1  1  0  0  0
 20  8  1  0  0  0  0
 22 16  2  0  0  0  0
 22 15  1  0  0  0  0
 23 18  1  0  0  0  0
 24 21  2  0  0  0  0
 25 27  1  0  0  0  0
 27 26  1  0  0  0  0
 28 30  1  0  0  0  0
 30 29  1  0  0  0  0
M  END
>  <MODEL>
2

>  <REMARK>
 VINA RESULT:      -5.9      5.123      7.379
  Name = 
  4 active torsions:
  status: ('A' for Active; 'I' for Inactive)
    1  A    between atoms: C_6  and  C_8
    2  A    between atoms: C_6  and  O_21
    3  A    between atoms: C_7  and  C_10
    4  A    between atoms: C_7  and  C_26
                            x       y       z     vdW  Elec       q    Type
                         _______ _______ _______ _____ _____    ______ ____

>  <TORSDO>
F 4

$$$$
=
 OpenBabel11052412353D

 30 33  0  0  1  0  0  0  0  0999 V2000
  183.5570  178.3970  142.3760 C   0  0  0  0  0  0  0  0  0  0  0  0
  184.5810  179.4070  144.3150 C   0  0  0  0  0  3  0  0  0  0  0  0
  188.0530  176.5670  143.4240 C   0  0  0  0  0  2  0  0  0  0  0  0
  185.9140  179.0010  140.5890 C   0  0  0  0  0  2  0  0  0  0  0  0
  183.6320  177.5040  141.3060 O   0  0  0  0  0  0  0  0  0  0  0  0
  183.8700  178.6430  139.1360 C   0  0  2  0  0  3  0  0  0  0  0  0
  182.7410  176.4370  139.3570 C   0  0  0  0  0  1  0  0  0  0  0  0
  188.3050  177.6030  139.7350 C   0  0  2  0  0  3  0  0  0  0  0  0
  188.6460  176.9930  142.1290 C   0  0  0  0  0  0  0  0  0  0  0  0
  183.0010  177.7580  140.0530 C   0  0  1  0  0  3  0  0  0  0  0  0
  185.3140  178.4990  139.3580 N   0  0  0  0  0  0  0  0  0  0  0  0
  185.6770  179.7510  145.2600 C   0  0  0  0  0  2  0  0  0  0  0  0
  187.3160  177.0000  138.7200 C   0  0  0  0  0  2  0  0  0  0  0  0
  182.4970  179.0560  142.5650 O   0  0  0  0  0  0  0  0  0  0  0  0
  186.9040  177.4430  143.8300 C   0  0  0  0  0  0  0  0  0  0  0  0
  186.1350  178.5170  145.9510 C   0  0  0  0  0  3  0  0  0  0  0  0
  184.7370  178.5980  143.2600 C   0  0  0  0  0  0  0  0  0  0  0  0
  186.3930  177.8190  141.4160 C   0  0  1  0  0  3  0  0  0  0  0  0
  189.8740  176.8060  141.9180 O   0  0  0  0  0  0  0  0  0  0  0  0
  187.8050  177.5470  141.1150 N   0  0  0  0  0  0  0  0  0  0  0  0
  185.7870  177.9200  137.1500 O   0  0  0  0  0  0  0  0  0  0  0  0
  186.6910  177.5030  145.2930 C   0  0  0  0  0  3  0  0  0  0  0  0
  186.0720  177.9930  142.8990 C   0  0  0  0  0  0  0  0  0  0  0  0
  186.1260  177.8560  138.3610 C   0  0  0  0  0  0  0  0  0  0  0  0
  183.4180  180.1010  139.0880 C   0  0  0  0  0  2  0  0  0  0  0  0
  181.7530  181.3420  138.3440 C   0  0  0  0  0  1  0  0  0  0  0  0
  182.0260  180.2040  139.1000 O   0  0  0  0  0  0  0  0  0  0  0  0
  188.7910  179.0040  139.3690 C   0  0  0  0  0  2  0  0  0  0  0  0
  190.1800  177.7340  137.7330 C   0  0  0  0  0  1  0  0  0  0  0  0
  189.4260  179.0250  137.9870 C   0  0  0  0  0  2  0  0  0  0  0  0
  1 14  2  0  0  0  0
  1 17  1  0  0  0  0
  2 12  1  0  0  0  0
  3 15  1  0  0  0  0
  5  1  1  0  0  0  0
  6 25  1  1  0  0  0
  6 11  1  0  0  0  0
  6 10  1  0  0  0  0
  8 28  1  6  0  0  0
  8 20  1  0  0  0  0
  9  3  1  0  0  0  0
 10  7  1  6  0  0  0
 10  5  1  0  0  0  0
 11  4  1  0  0  0  0
 12 16  1  0  0  0  0
 13  8  1  0  0  0  0
 15 22  1  0  0  0  0
 17  2  2  0  0  0  0
 18  4  1  6  0  0  0
 18 23  1  0  0  0  0
 19  9  2  0  0  0  0
 20 18  1  0  0  0  0
 20  9  1  0  0  0  0
 21 24  2  0  0  0  0
 22 16  2  0  0  0  0
 23 17  1  0  0  0  0
 23 15  2  0  0  0  0
 24 13  1  0  0  0  0
 24 11  1  0  0  0  0
 25 27  1  0  0  0  0
 26 27  1  0  0  0  0
 29 30  1  0  0  0  0
 30 28  1  0  0  0  0
M  END
>  <MODEL>
3

>  <REMARK>
 VINA RESULT:      -5.7      2.832      6.729
  Name = 
  4 active torsions:
  status: ('A' for Active; 'I' for Inactive)
    1  A    between atoms: C_6  and  C_8
    2  A    between atoms: C_6  and  O_21
    3  A    between atoms: C_7  and  C_10
    4  A    between atoms: C_7  and  C_26
                            x       y       z     vdW  Elec       q    Type
                         _______ _______ _______ _____ _____    ______ ____

>  <TORSDO>
F 4

$$$$
=
 OpenBabel11052412353D

 30 33  0  0  1  0  0  0  0  0999 V2000
  192.6210  176.8900  138.7520 C   0  0  0  0  0  0  0  0  0  0  0  0
  191.0620  177.1380  140.5780 C   0  0  0  0  0  3  0  0  0  0  0  0
  187.8880  177.2400  137.2880 C   0  0  0  0  0  2  0  0  0  0  0  0
  191.1870  174.4910  137.6110 C   0  0  0  0  0  2  0  0  0  0  0  0
  192.8540  176.7550  137.3810 O   0  0  0  0  0  0  0  0  0  0  0  0
  193.5740  174.4830  136.7630 C   0  0  2  0  0  3  0  0  0  0  0  0
  194.2880  176.4930  135.4830 C   0  0  0  0  0  1  0  0  0  0  0  0
  189.1520  174.0310  135.5990 C   0  0  2  0  0  3  0  0  0  0  0  0
  187.8740  175.8960  136.6510 C   0  0  0  0  0  0  0  0  0  0  0  0
  193.9320  175.9800  136.8630 C   0  0  1  0  0  3  0  0  0  0  0  0
  192.1440  174.2230  136.5460 N   0  0  0  0  0  0  0  0  0  0  0  0
  189.7370  177.1500  141.2540 C   0  0  0  0  0  2  0  0  0  0  0  0
  190.3760  174.1080  134.6680 C   0  0  0  0  0  2  0  0  0  0  0  0
  193.5980  176.9440  139.5480 O   0  0  0  0  0  0  0  0  0  0  0  0
  188.8900  177.3220  138.4020 C   0  0  0  0  0  0  0  0  0  0  0  0
  188.9210  178.2700  140.7130 C   0  0  0  0  0  3  0  0  0  0  0  0
  191.2250  176.9280  139.2660 C   0  0  0  0  0  0  0  0  0  0  0  0
  190.3060  175.6580  137.1950 C   0  0  1  0  0  3  0  0  0  0  0  0
  186.8020  175.4550  136.1570 O   0  0  0  0  0  0  0  0  0  0  0  0
  189.0890  175.1510  136.5470 N   0  0  0  0  0  0  0  0  0  0  0  0
  192.4730  172.9910  134.5940 O   0  0  0  0  0  0  0  0  0  0  0  0
  188.5440  178.3190  139.4380 C   0  0  0  0  0  3  0  0  0  0  0  0
  190.0650  176.6310  138.3470 C   0  0  0  0  0  0  0  0  0  0  0  0
  191.7000  173.7130  135.2760 C   0  0  0  0  0  0  0  0  0  0  0  0
  194.1670  173.6350  137.8870 C   0  0  0  0  0  2  0  0  0  0  0  0
  196.3180  173.4690  138.3470 C   0  0  0  0  0  1  0  0  0  0  0  0
  195.2140  174.3000  138.5270 O   0  0  0  0  0  0  0  0  0  0  0  0
  188.9950  172.6850  136.3060 C   0  0  0  0  0  2  0  0  0  0  0  0
  186.6000  172.0110  136.1340 C   0  0  0  0  0  1  0  0  0  0  0  0
  187.9970  171.7950  135.5830 C   0  0  0  0  0  2  0  0  0  0  0  0
  1 17  1  0  0  0  0
  1 14  2  0  0  0  0
  2 12  1  0  0  0  0
  3 15  1  0  0  0  0
  5  1  1  0  0  0  0
  6 10  1  0  0  0  0
  6 25  1  1  0  0  0
  8 28  1  1  0  0  0
  8 20  1  0  0  0  0
  9  3  1  0  0  0  0
 10  7  1  6  0  0  0
 10  5  1  0  0  0  0
 11  6  1  0  0  0  0
 11  4  1  0  0  0  0
 13 24  1  0  0  0  0
 13  8  1  0  0  0  0
 15 22  1  0  0  0  0
 16 12  1  0  0  0  0
 17  2  2  0  0  0  0
 18  4  1  1  0  0  0
 18 23  1  0  0  0  0
 19  9  2  0  0  0  0
 20  9  1  0  0  0  0
 20 18  1  0  0  0  0
 21 24  2  0  0  0  0
 22 16  2  0  0  0  0
 23 15  2  0  0  0  0
 23 17  1  0  0  0  0
 24 11  1  0  0  0  0
 25 27  1  0  0  0  0
 26 27  1  0  0  0  0
 30 29  1  0  0  0  0
 30 28  1  0  0  0  0
M  END
>  <MODEL>
4

>  <REMARK>
 VINA RESULT:      -5.6      2.745      6.949
  Name = 
  4 active torsions:
  status: ('A' for Active; 'I' for Inactive)
    1  A    between atoms: C_6  and  C_8
    2  A    between atoms: C_6  and  O_21
    3  A    between atoms: C_7  and  C_10
    4  A    between atoms: C_7  and  C_26
                            x       y       z     vdW  Elec       q    Type
                         _______ _______ _______ _____ _____    ______ ____

>  <TORSDO>
F 4

$$$$
=
 OpenBabel11052412353D

 30 33  0  0  1  0  0  0  0  0999 V2000
  184.1100  179.5660  139.7880 C   0  0  0  0  0  0  0  0  0  0  0  0
  185.3970  178.6160  141.5960 C   0  0  0  0  0  3  0  0  0  0  0  0
  181.5040  178.9540  143.9710 C   0  0  0  0  0  2  0  0  0  0  0  0
  181.9620  177.4520  139.9630 C   0  0  0  0  0  2  0  0  0  0  0  0
  182.8880  180.0330  139.2990 O   0  0  0  0  0  0  0  0  0  0  0  0
  181.8760  178.5010  137.6580 C   0  0  2  0  0  3  0  0  0  0  0  0
  181.4940  180.9580  137.5870 C   0  0  0  0  0  1  0  0  0  0  0  0
  179.4030  177.1730  141.2960 C   0  0  2  0  0  3  0  0  0  0  0  0
  180.5310  178.0140  143.3550 C   0  0  0  0  0  0  0  0  0  0  0  0
  182.5030  179.8830  137.9350 C   0  0  1  0  0  3  0  0  0  0  0  0
  181.1890  177.9130  138.8160 N   0  0  0  0  0  0  0  0  0  0  0  0
  185.6330  177.9640  142.9120 C   0  0  0  0  0  2  0  0  0  0  0  0
  178.9310  177.9670  140.0640 C   0  0  0  0  0  2  0  0  0  0  0  0
  185.1350  179.6170  139.0550 O   0  0  0  0  0  0  0  0  0  0  0  0
  182.8340  178.9190  143.2790 C   0  0  0  0  0  0  0  0  0  0  0  0
  185.2260  178.8920  144.0000 C   0  0  0  0  0  3  0  0  0  0  0  0
  184.1860  178.9750  141.1520 C   0  0  0  0  0  0  0  0  0  0  0  0
  181.6630  178.3560  141.1480 C   0  0  1  0  0  3  0  0  0  0  0  0
  179.6430  177.4810  144.0720 O   0  0  0  0  0  0  0  0  0  0  0  0
  180.5730  177.7770  141.9460 N   0  0  0  0  0  0  0  0  0  0  0  0
  179.1480  177.6680  137.7160 O   0  0  0  0  0  0  0  0  0  0  0  0
  183.9680  179.2960  144.1520 C   0  0  0  0  0  3  0  0  0  0  0  0
  182.9250  178.6990  141.9350 C   0  0  0  0  0  0  0  0  0  0  0  0
  179.7550  177.8050  138.8110 C   0  0  0  0  0  0  0  0  0  0  0  0
  182.8300  177.5230  136.9740 C   0  0  0  0  0  2  0  0  0  0  0  0
  183.2590  175.3940  136.5900 C   0  0  0  0  0  1  0  0  0  0  0  0
  182.2080  176.3000  136.7190 O   0  0  0  0  0  0  0  0  0  0  0  0
  179.6150  175.6840  141.0280 C   0  0  0  0  0  2  0  0  0  0  0  0
  179.3150  173.3680  141.9030 C   0  0  0  0  0  1  0  0  0  0  0  0
  178.9690  174.8310  142.1070 C   0  0  0  0  0  2  0  0  0  0  0  0
  1 17  1  0  0  0  0
  2 12  1  0  0  0  0
  5  1  1  0  0  0  0
  6 25  1  1  0  0  0
  6 10  1  0  0  0  0
  6 11  1  0  0  0  0
  8 28  1  6  0  0  0
  8 20  1  0  0  0  0
  9  3  1  0  0  0  0
  9 19  2  0  0  0  0
 10  7  1  1  0  0  0
 10  5  1  0  0  0  0
 11  4  1  0  0  0  0
 12 16  1  0  0  0  0
 13  8  1  0  0  0  0
 14  1  2  0  0  0  0
 15  3  1  0  0  0  0
 15 22  1  0  0  0  0
 16 22  2  0  0  0  0
 17  2  2  0  0  0  0
 17 23  1  0  0  0  0
 18  4  1  6  0  0  0
 18 23  1  0  0  0  0
 18 20  1  0  0  0  0
 20  9  1  0  0  0  0
 21 24  2  0  0  0  0
 23 15  2  0  0  0  0
 24 11  1  0  0  0  0
 24 13  1  0  0  0  0
 26 27  1  0  0  0  0
 27 25  1  0  0  0  0
 28 30  1  0  0  0  0
 29 30  1  0  0  0  0
M  END
>  <MODEL>
5

>  <REMARK>
 VINA RESULT:      -5.6      6.161      8.776
  Name = 
  4 active torsions:
  status: ('A' for Active; 'I' for Inactive)
    1  A    between atoms: C_6  and  C_8
    2  A    between atoms: C_6  and  O_21
    3  A    between atoms: C_7  and  C_10
    4  A    between atoms: C_7  and  C_26
                            x       y       z     vdW  Elec       q    Type
                         _______ _______ _______ _____ _____    ______ ____

>  <TORSDO>
F 4

$$$$
=
 OpenBabel11052412353D

 30 33  0  0  1  0  0  0  0  0999 V2000
  181.8590  174.9560  137.0780 C   0  0  0  0  0  0  0  0  0  0  0  0
  183.6710  173.3740  137.2880 C   0  0  0  0  0  3  0  0  0  0  0  0
  186.3570  177.0400  136.7740 C   0  0  0  0  0  2  0  0  0  0  0  0
  182.8890  176.7130  139.3060 C   0  0  0  0  0  2  0  0  0  0  0  0
  181.4270  176.2760  136.9330 O   0  0  0  0  0  0  0  0  0  0  0  0
  180.4180  177.1740  138.9920 C   0  0  2  0  0  3  0  0  0  0  0  0
  179.7270  177.9490  136.7310 C   0  0  0  0  0  1  0  0  0  0  0  0
  184.5750  179.0620  139.5090 C   0  0  2  0  0  3  0  0  0  0  0  0
  186.1560  177.9020  137.9690 C   0  0  0  0  0  0  0  0  0  0  0  0
  180.2200  176.7540  137.5210 C   0  0  1  0  0  3  0  0  0  0  0  0
  181.7730  177.6500  139.3000 N   0  0  0  0  0  0  0  0  0  0  0  0
  185.0720  172.9190  137.4950 C   0  0  0  0  0  2  0  0  0  0  0  0
  183.2470  179.7660  139.1740 C   0  0  0  0  0  2  0  0  0  0  0  0
  181.0110  174.0230  137.1120 O   0  0  0  0  0  0  0  0  0  0  0  0
  185.5300  175.7890  136.8390 C   0  0  0  0  0  0  0  0  0  0  0  0
  185.9070  173.3680  136.3500 C   0  0  0  0  0  3  0  0  0  0  0  0
  183.3090  174.6630  137.2320 C   0  0  0  0  0  0  0  0  0  0  0  0
  183.8100  177.0440  138.1420 C   0  0  1  0  0  3  0  0  0  0  0  0
  187.1030  178.6240  138.3790 O   0  0  0  0  0  0  0  0  0  0  0  0
  184.8730  177.9500  138.5980 N   0  0  0  0  0  0  0  0  0  0  0  0
  181.0640  179.7180  140.1130 O   0  0  0  0  0  0  0  0  0  0  0  0
  186.1080  174.6560  136.0830 C   0  0  0  0  0  3  0  0  0  0  0  0
  184.2990  175.7860  137.4260 C   0  0  0  0  0  0  0  0  0  0  0  0
  181.9880  179.0430  139.5870 C   0  0  0  0  0  0  0  0  0  0  0  0
  179.9080  176.1430  139.9960 C   0  0  0  0  0  2  0  0  0  0  0  0
  179.0560  174.1220  140.2340 C   0  0  0  0  0  1  0  0  0  0  0  0
  179.0370  175.2330  139.3940 O   0  0  0  0  0  0  0  0  0  0  0  0
  184.7000  178.6400  140.9720 C   0  0  0  0  0  2  0  0  0  0  0  0
  186.3310  178.2250  142.8120 C   0  0  0  0  0  1  0  0  0  0  0  0
  186.0640  179.0020  141.5370 C   0  0  0  0  0  2  0  0  0  0  0  0
  1 14  2  0  0  0  0
  1 17  1  0  0  0  0
  2 12  1  0  0  0  0
  3 15  1  0  0  0  0
  3  9  1  0  0  0  0
  5  1  1  0  0  0  0
  5 10  1  0  0  0  0
  6 11  1  0  0  0  0
  6 25  1  1  0  0  0
  8 28  1  1  0  0  0
  9 19  2  0  0  0  0
  9 20  1  0  0  0  0
 10  7  1  6  0  0  0
 10  6  1  0  0  0  0
 11  4  1  0  0  0  0
 11 24  1  0  0  0  0
 13  8  1  0  0  0  0
 13 24  1  0  0  0  0
 15 23  2  0  0  0  0
 16 12  1  0  0  0  0
 17  2  2  0  0  0  0
 17 23  1  0  0  0  0
 18 20  1  0  0  0  0
 18  4  1  1  0  0  0
 20  8  1  0  0  0  0
 22 16  2  0  0  0  0
 22 15  1  0  0  0  0
 23 18  1  0  0  0  0
 24 21  2  0  0  0  0
 27 25  1  0  0  0  0
 27 26  1  0  0  0  0
 28 30  1  0  0  0  0
 30 29  1  0  0  0  0
M  END
>  <MODEL>
6

>  <REMARK>
 VINA RESULT:      -5.5      4.452      6.797
  Name = 
  4 active torsions:
  status: ('A' for Active; 'I' for Inactive)
    1  A    between atoms: C_6  and  C_8
    2  A    between atoms: C_6  and  O_21
    3  A    between atoms: C_7  and  C_10
    4  A    between atoms: C_7  and  C_26
                            x       y       z     vdW  Elec       q    Type
                         _______ _______ _______ _____ _____    ______ ____

>  <TORSDO>
F 4

$$$$
=
 OpenBabel11052412353D

 30 33  0  0  1  0  0  0  0  0999 V2000
  189.0370  177.8610  145.4770 C   0  0  0  0  0  0  0  0  0  0  0  0
  186.8030  177.1380  146.0360 C   0  0  0  0  0  3  0  0  0  0  0  0
  185.5390  179.7530  142.5040 C   0  0  0  0  0  2  0  0  0  0  0  0
  188.8100  176.9550  142.6060 C   0  0  0  0  0  2  0  0  0  0  0  0
  189.8930  178.5810  144.6410 O   0  0  0  0  0  0  0  0  0  0  0  0
  191.2650  177.1230  143.2070 C   0  0  2  0  0  3  0  0  0  0  0  0
  192.0560  179.3560  143.9680 C   0  0  0  0  0  1  0  0  0  0  0  0
  188.0630  178.1680  140.0820 C   0  0  2  0  0  3  0  0  0  0  0  0
  186.0930  179.1270  141.2740 C   0  0  0  0  0  0  0  0  0  0  0  0
  191.2220  178.1510  144.3560 C   0  0  1  0  0  3  0  0  0  0  0  0
  190.1810  177.2750  142.2280 N   0  0  0  0  0  0  0  0  0  0  0  0
  185.3440  176.9230  145.8360 C   0  0  0  0  0  2  0  0  0  0  0  0
  189.5320  178.6270  140.1270 C   0  0  0  0  0  2  0  0  0  0  0  0
  189.5080  177.2560  146.4800 O   0  0  0  0  0  0  0  0  0  0  0  0
  185.8790  178.9680  143.7360 C   0  0  0  0  0  0  0  0  0  0  0  0
  184.6560  178.2400  145.7890 C   0  0  0  0  0  3  0  0  0  0  0  0
  187.5860  177.7760  145.1580 C   0  0  0  0  0  0  0  0  0  0  0  0
  187.9990  178.2400  142.6350 C   0  0  1  0  0  3  0  0  0  0  0  0
  185.4820  179.2590  140.1800 O   0  0  0  0  0  0  0  0  0  0  0  0
  187.3450  178.4400  141.3340 N   0  0  0  0  0  0  0  0  0  0  0  0
  191.6100  177.5060  140.4000 O   0  0  0  0  0  0  0  0  0  0  0  0
  184.9020  179.1330  144.8340 C   0  0  0  0  0  3  0  0  0  0  0  0
  187.0640  178.2980  143.8410 C   0  0  0  0  0  0  0  0  0  0  0  0
  190.4810  177.7460  140.9030 C   0  0  0  0  0  0  0  0  0  0  0  0
  191.4390  175.6820  143.6830 C   0  0  0  0  0  2  0  0  0  0  0  0
  192.4300  174.3010  145.0880 C   0  0  0  0  0  1  0  0  0  0  0  0
  192.0400  175.6300  144.9410 O   0  0  0  0  0  0  0  0  0  0  0  0
  187.8800  176.7200  139.6320 C   0  0  0  0  0  2  0  0  0  0  0  0
  187.0880  177.6200  137.4460 C   0  0  0  0  0  1  0  0  0  0  0  0
  187.9790  176.5950  138.1200 C   0  0  0  0  0  2  0  0  0  0  0  0
  1 14  2  0  0  0  0
  3 15  1  0  0  0  0
  5  1  1  0  0  0  0
  6 25  1  1  0  0  0
  6 10  1  0  0  0  0
  8 28  1  1  0  0  0
  8 13  1  0  0  0  0
  8 20  1  0  0  0  0
  9 20  1  0  0  0  0
  9  3  1  0  0  0  0
 10  7  1  6  0  0  0
 10  5  1  0  0  0  0
 11  4  1  0  0  0  0
 11  6  1  0  0  0  0
 12  2  1  0  0  0  0
 13 24  1  0  0  0  0
 15 23  2  0  0  0  0
 15 22  1  0  0  0  0
 16 12  1  0  0  0  0
 17  1  1  0  0  0  0
 17  2  2  0  0  0  0
 18  4  1  6  0  0  0
 18 23  1  0  0  0  0
 19  9  2  0  0  0  0
 20 18  1  0  0  0  0
 21 24  2  0  0  0  0
 22 16  2  0  0  0  0
 23 17  1  0  0  0  0
 24 11  1  0  0  0  0
 25 27  1  0  0  0  0
 27 26  1  0  0  0  0
 29 30  1  0  0  0  0
 30 28  1  0  0  0  0
M  END
>  <MODEL>
7

>  <REMARK>
 VINA RESULT:      -5.3      2.934      7.960
  Name = 
  4 active torsions:
  status: ('A' for Active; 'I' for Inactive)
    1  A    between atoms: C_6  and  C_8
    2  A    between atoms: C_6  and  O_21
    3  A    between atoms: C_7  and  C_10
    4  A    between atoms: C_7  and  C_26
                            x       y       z     vdW  Elec       q    Type
                         _______ _______ _______ _____ _____    ______ ____

>  <TORSDO>
F 4

$$$$
=
 OpenBabel11052412353D

 30 33  0  0  1  0  0  0  0  0999 V2000
  187.6900  178.2810  137.8170 C   0  0  0  0  0  0  0  0  0  0  0  0
  186.1020  178.6240  139.6030 C   0  0  0  0  0  3  0  0  0  0  0  0
  183.0110  177.2070  136.5460 C   0  0  0  0  0  2  0  0  0  0  0  0
  186.8420  175.4200  137.3650 C   0  0  0  0  0  2  0  0  0  0  0  0
  187.9580  177.8660  136.5110 O   0  0  0  0  0  0  0  0  0  0  0  0
  189.1760  175.7270  136.4280 C   0  0  2  0  0  3  0  0  0  0  0  0
  189.4280  177.4640  134.6650 C   0  0  0  0  0  1  0  0  0  0  0  0
  184.9780  174.0390  135.6270 C   0  0  2  0  0  3  0  0  0  0  0  0
  183.3050  175.7780  136.2550 C   0  0  0  0  0  0  0  0  0  0  0  0
  189.1870  177.2430  136.1450 C   0  0  1  0  0  3  0  0  0  0  0  0
  187.8430  175.1140  136.3510 N   0  0  0  0  0  0  0  0  0  0  0  0
  184.8030  178.5110  140.3200 C   0  0  0  0  0  2  0  0  0  0  0  0
  186.1600  174.1510  134.6460 C   0  0  0  0  0  2  0  0  0  0  0  0
  188.6240  178.7440  138.5280 O   0  0  0  0  0  0  0  0  0  0  0  0
  183.9600  177.7800  137.5560 C   0  0  0  0  0  0  0  0  0  0  0  0
  183.7600  179.2540  139.5640 C   0  0  0  0  0  3  0  0  0  0  0  0
  186.3180  178.1370  138.3750 C   0  0  0  0  0  0  0  0  0  0  0  0
  185.7240  176.2240  136.7210 C   0  0  1  0  0  3  0  0  0  0  0  0
  182.3630  175.0030  135.9370 O   0  0  0  0  0  0  0  0  0  0  0  0
  184.6570  175.3170  136.2770 N   0  0  0  0  0  0  0  0  0  0  0  0
  188.4550  173.5400  134.7420 O   0  0  0  0  0  0  0  0  0  0  0  0
  183.3910  178.9020  138.3350 C   0  0  0  0  0  3  0  0  0  0  0  0
  185.2620  177.3730  137.6140 C   0  0  0  0  0  0  0  0  0  0  0  0
  187.5340  174.2210  135.2670 C   0  0  0  0  0  0  0  0  0  0  0  0
  189.9360  175.3370  137.6940 C   0  0  0  0  0  2  0  0  0  0  0  0
  191.6020  174.2110  136.7860 C   0  0  0  0  0  1  0  0  0  0  0  0
  190.4750  174.0530  137.5890 O   0  0  0  0  0  0  0  0  0  0  0  0
  185.1230  172.9100  136.6460 C   0  0  0  0  0  2  0  0  0  0  0  0
  183.0920  171.4730  136.8170 C   0  0  0  0  0  1  0  0  0  0  0  0
  184.4500  171.6370  136.1590 C   0  0  0  0  0  2  0  0  0  0  0  0
  1 17  1  0  0  0  0
  1 14  2  0  0  0  0
  2 12  1  0  0  0  0
  3 15  1  0  0  0  0
  5  1  1  0  0  0  0
  6 25  1  1  0  0  0
  8 20  1  0  0  0  0
  8 28  1  1  0  0  0
  9 20  1  0  0  0  0
  9  3  1  0  0  0  0
 10  7  1  6  0  0  0
 10  6  1  0  0  0  0
 10  5  1  0  0  0  0
 11  6  1  0  0  0  0
 11  4  1  0  0  0  0
 13 24  1  0  0  0  0
 13  8  1  0  0  0  0
 15 23  2  0  0  0  0
 15 22  1  0  0  0  0
 16 12  1  0  0  0  0
 17  2  2  0  0  0  0
 18  4  1  1  0  0  0
 18 23  1  0  0  0  0
 19  9  2  0  0  0  0
 20 18  1  0  0  0  0
 21 24  2  0  0  0  0
 22 16  2  0  0  0  0
 23 17  1  0  0  0  0
 24 11  1  0  0  0  0
 26 27  1  0  0  0  0
 27 25  1  0  0  0  0
 30 28  1  0  0  0  0
 30 29  1  0  0  0  0
M  END
>  <MODEL>
8

>  <REMARK>
 VINA RESULT:      -5.2      3.068      7.422
  Name = 
  4 active torsions:
  status: ('A' for Active; 'I' for Inactive)
    1  A    between atoms: C_6  and  C_8
    2  A    between atoms: C_6  and  O_21
    3  A    between atoms: C_7  and  C_10
    4  A    between atoms: C_7  and  C_26
                            x       y       z     vdW  Elec       q    Type
                         _______ _______ _______ _____ _____    ______ ____

>  <TORSDO>
F 4

$$$$
=
 OpenBabel11052412353D

 30 33  0  0  1  0  0  0  0  0999 V2000
  189.9820  177.5050  139.9660 C   0  0  0  0  0  0  0  0  0  0  0  0
  189.4300  178.9520  138.1130 C   0  0  0  0  0  3  0  0  0  0  0  0
  185.1280  177.6330  138.9260 C   0  0  0  0  0  2  0  0  0  0  0  0
  188.0470  178.8640  141.8420 C   0  0  0  0  0  2  0  0  0  0  0  0
  189.5650  176.6460  140.9850 O   0  0  0  0  0  0  0  0  0  0  0  0
  189.7910  177.6510  143.2220 C   0  0  2  0  0  3  0  0  0  0  0  0
  189.9730  175.1980  142.8470 C   0  0  0  0  0  1  0  0  0  0  0  0
  185.3000  178.4530  142.6740 C   0  0  2  0  0  3  0  0  0  0  0  0
  184.7470  178.1740  140.2580 C   0  0  0  0  0  0  0  0  0  0  0  0
  190.2460  176.5570  142.2340 C   0  0  1  0  0  3  0  0  0  0  0  0
  188.4040  178.0930  143.0270 N   0  0  0  0  0  0  0  0  0  0  0  0
  188.5540  179.7530  137.2170 C   0  0  0  0  0  2  0  0  0  0  0  0
  185.9770  177.4520  143.6280 C   0  0  0  0  0  2  0  0  0  0  0  0
  191.2140  177.7110  139.7890 O   0  0  0  0  0  0  0  0  0  0  0  0
  186.5260  178.0180  138.5430 C   0  0  0  0  0  0  0  0  0  0  0  0
  187.6520  178.8390  136.4690 C   0  0  0  0  0  3  0  0  0  0  0  0
  188.9720  178.2030  139.1240 C   0  0  0  0  0  0  0  0  0  0  0  0
  187.1450  178.0140  140.9610 C   0  0  1  0  0  3  0  0  0  0  0  0
  183.5430  178.4660  140.4890 O   0  0  0  0  0  0  0  0  0  0  0  0
  185.7390  178.2940  141.2810 N   0  0  0  0  0  0  0  0  0  0  0  0
  187.7440  177.6060  145.2100 O   0  0  0  0  0  0  0  0  0  0  0  0
  186.7450  178.0810  137.0810 C   0  0  0  0  0  3  0  0  0  0  0  0
  187.5070  178.1420  139.4830 C   0  0  0  0  0  0  0  0  0  0  0  0
  187.4060  177.7550  144.0060 C   0  0  0  0  0  0  0  0  0  0  0  0
  190.7750  178.8130  143.3410 C   0  0  0  0  0  2  0  0  0  0  0  0
  191.3060  177.7930  145.2240 C   0  0  0  0  0  1  0  0  0  0  0  0
  191.8640  178.4780  144.1460 O   0  0  0  0  0  0  0  0  0  0  0  0
  185.3980  179.9070  143.1310 C   0  0  0  0  0  2  0  0  0  0  0  0
  183.2270  179.3780  144.2390 C   0  0  0  0  0  1  0  0  0  0  0  0
  184.5190  180.1650  144.3450 C   0  0  0  0  0  2  0  0  0  0  0  0
  1  5  1  0  0  0  0
  2 17  2  0  0  0  0
  3  9  1  0  0  0  0
  4 11  1  0  0  0  0
  5 10  1  0  0  0  0
  6 25  1  6  0  0  0
  8 28  1  1  0  0  0
  8 13  1  0  0  0  0
  9 19  2  0  0  0  0
  9 20  1  0  0  0  0
 10  7  1  1  0  0  0
 10  6  1  0  0  0  0
 11  6  1  0  0  0  0
 11 24  1  0  0  0  0
 12  2  1  0  0  0  0
 13 24  1  0  0  0  0
 14  1  2  0  0  0  0
 15  3  1  0  0  0  0
 15 23  2  0  0  0  0
 16 22  2  0  0  0  0
 16 12  1  0  0  0  0
 17 23  1  0  0  0  0
 17  1  1  0  0  0  0
 18 20  1  0  0  0  0
 18  4  1  1  0  0  0
 20  8  1  0  0  0  0
 22 15  1  0  0  0  0
 23 18  1  0  0  0  0
 24 21  2  0  0  0  0
 25 27  1  0  0  0  0
 27 26  1  0  0  0  0
 28 30  1  0  0  0  0
 29 30  1  0  0  0  0
M  END
>  <MODEL>
9

>  <REMARK>
 VINA RESULT:      -5.1      2.933      6.204
  Name = 
  4 active torsions:
  status: ('A' for Active; 'I' for Inactive)
    1  A    between atoms: C_6  and  C_8
    2  A    between atoms: C_6  and  O_21
    3  A    between atoms: C_7  and  C_10
    4  A    between atoms: C_7  and  C_26
                            x       y       z     vdW  Elec       q    Type
                         _______ _______ _______ _____ _____    ______ ____

>  <TORSDO>
F 4

$$$$
