=
 OpenBabel11052412583D

 31 35  0  0  1  0  0  0  0  0999 V2000
  188.3480  178.4550  140.2020 C   0  0  0  0  0  0  0  0  0  0  0  0
  185.7720  178.1190  143.0510 C   0  0  0  0  0  0  0  0  0  0  0  0
  184.4730  178.5330  142.6710 C   0  0  0  0  0  0  0  0  0  0  0  0
  182.9280  177.6590  140.9470 C   0  0  0  0  0  3  0  0  0  0  0  0
  186.7650  177.6680  141.9930 C   0  0  1  0  0  3  0  0  0  0  0  0
  188.9980  177.1010  140.3190 C   0  0  0  0  0  2  0  0  0  0  0  0
  184.0890  178.5540  141.2220 C   0  0  0  0  0  2  0  0  0  0  0  0
  187.5170  177.6750  144.8520 C   0  0  1  0  0  3  0  0  0  0  0  0
  188.7090  179.2240  139.3270 O   0  0  0  0  0  0  0  0  0  0  0  0
  183.9910  179.1220  144.9740 C   0  0  0  0  0  3  0  0  0  0  0  0
  181.7160  177.8770  141.4550 C   0  0  0  0  0  3  0  0  0  0  0  0
  188.0040  176.5150  143.9870 C   0  0  0  0  0  2  0  0  0  0  0  0
  186.1440  178.1510  144.4180 C   0  0  0  0  0  0  0  0  0  0  0  0
  187.2380  178.8580  141.1410 C   0  0  0  0  0  2  0  0  0  0  0  0
  181.3840  178.9530  142.4070 C   0  0  0  0  0  3  0  0  0  0  0  0
  187.9570  176.9140  142.5500 C   0  0  0  0  0  0  0  0  0  0  0  0
  189.0050  176.6540  141.7560 C   0  0  0  0  0  3  0  0  0  0  0  0
  185.2580  178.6950  145.3570 C   0  0  0  0  0  3  0  0  0  0  0  0
  183.5740  179.0180  143.6480 C   0  0  0  0  0  0  0  0  0  0  0  0
  182.1920  179.4500  143.3510 C   0  0  0  0  0  3  0  0  0  0  0  0
  187.6150  177.3090  146.3380 C   0  0  0  0  0  2  0  0  0  0  0  0
  188.8170  176.4160  146.6330 C   0  0  0  0  0  2  0  0  0  0  0  0
  189.8080  178.5040  147.8820 C   0  0  0  0  0  1  0  0  0  0  0  0
  191.9400  175.8090  147.9510 O   0  0  0  0  0  0  0  0  0  0  0  0
  191.2000  176.5640  147.2700 C   0  0  0  0  0  0  0  0  0  0  0  0
  190.9340  177.4260  146.0280 N   0  0  0  0  0  0  0  0  0  0  0  0
  190.0150  177.2470  147.0580 C   0  0  1  0  0  0  0  0  0  0  0  0
  191.3440  177.9840  144.7510 C   0  0  0  0  0  0  0  0  0  0  0  0
  192.5400  178.6820  144.9120 O   0  0  0  0  0  1  0  0  0  0  0  0
  190.2740  178.9290  144.2450 C   0  0  0  0  0  1  0  0  0  0  0  0
  191.5450  176.8690  143.7460 C   0  0  0  0  0  1  0  0  0  0  0  0
  1  6  1  0  0  0  0
  1 14  1  0  0  0  0
  2 13  1  0  0  0  0
  3  2  2  0  0  0  0
  3 19  1  0  0  0  0
  4  7  1  0  0  0  0
  4 11  2  0  0  0  0
  5 14  1  1  0  0  0
  5 16  1  0  0  0  0
  5  2  1  0  0  0  0
  6 17  1  0  0  0  0
  7  3  1  0  0  0  0
  8 21  1  1  0  0  0
  9  1  2  0  0  0  0
 10 18  1  0  0  0  0
 11 15  1  0  0  0  0
 12  8  1  0  0  0  0
 13  8  1  0  0  0  0
 13 18  2  0  0  0  0
 15 20  2  0  0  0  0
 16 12  1  0  0  0  0
 17 16  2  0  0  0  0
 19 10  2  0  0  0  0
 20 19  1  0  0  0  0
 21 22  1  0  0  0  0
 22 27  1  0  0  0  0
 25 24  2  0  0  0  0
 26 27  1  0  0  0  0
 26 25  1  0  0  0  0
 27 25  1  0  0  0  0
 27 23  1  1  0  0  0
 28 29  1  0  0  0  0
 28 26  1  0  0  0  0
 30 28  1  0  0  0  0
 31 28  1  0  0  0  0
M  END
>  <MODEL>
1

>  <REMARK>
 VINA RESULT:      -8.9      0.000      0.000
  Name = 
  4 active torsions:
  status: ('A' for Active; 'I' for Inactive)
    1  A    between atoms: C_1  and  N_19
    2  A    between atoms: C_9  and  C_22
    3  A    between atoms: C_9  and  C_23
    4  A    between atoms: C_15  and  C_23
                            x       y       z     vdW  Elec       q    Type
                         _______ _______ _______ _____ _____    ______ ____

>  <TORSDO>
F 4

$$$$
=
 OpenBabel11052412583D

 31 35  0  0  1  0  0  0  0  0999 V2000
  190.1550  176.5550  139.8100 C   0  0  0  0  0  0  0  0  0  0  0  0
  188.3460  177.6560  143.0310 C   0  0  0  0  0  0  0  0  0  0  0  0
  189.0400  177.2840  144.2080 C   0  0  0  0  0  0  0  0  0  0  0  0
  191.2780  177.9270  145.0470 C   0  0  0  0  0  3  0  0  0  0  0  0
  189.0990  177.8070  141.7210 C   0  0  1  0  0  3  0  0  0  0  0  0
  190.0620  177.8470  139.0410 C   0  0  0  0  0  2  0  0  0  0  0  0
  190.5130  177.0120  144.1520 C   0  0  0  0  0  2  0  0  0  0  0  0
  186.1870  178.3000  141.8430 C   0  0  1  0  0  3  0  0  0  0  0  0
  190.7380  175.6020  139.3200 O   0  0  0  0  0  0  0  0  0  0  0  0
  186.9390  177.2010  145.4170 C   0  0  0  0  0  3  0  0  0  0  0  0
  191.1450  177.9140  146.3720 C   0  0  0  0  0  3  0  0  0  0  0  0
  187.0330  179.2230  140.9700 C   0  0  0  0  0  2  0  0  0  0  0  0
  186.9450  177.8620  143.0820 C   0  0  0  0  0  0  0  0  0  0  0  0
  189.5570  176.4380  141.1900 C   0  0  0  0  0  2  0  0  0  0  0  0
  190.1830  177.0780  147.1130 C   0  0  0  0  0  3  0  0  0  0  0  0
  188.3280  178.5540  140.6510 C   0  0  0  0  0  0  0  0  0  0  0  0
  188.7860  178.5660  139.3920 C   0  0  0  0  0  3  0  0  0  0  0  0
  186.2540  177.5880  144.2700 C   0  0  0  0  0  3  0  0  0  0  0  0
  188.3270  177.0770  145.4110 C   0  0  0  0  0  0  0  0  0  0  0  0
  188.9660  176.7110  146.6920 C   0  0  0  0  0  3  0  0  0  0  0  0
  184.8250  178.9410  142.1320 C   0  0  0  0  0  2  0  0  0  0  0  0
  183.6640  178.0440  141.7110 C   0  0  0  0  0  2  0  0  0  0  0  0
  181.4900  179.2530  140.8670 C   0  0  0  0  0  1  0  0  0  0  0  0
  184.2930  180.2630  139.1540 O   0  0  0  0  0  0  0  0  0  0  0  0
  183.5970  179.3100  139.5900 C   0  0  0  0  0  0  0  0  0  0  0  0
  182.9160  177.9460  139.4090 N   0  0  0  0  0  0  0  0  0  0  0  0
  182.8690  178.6850  140.5870 C   0  0  1  0  0  0  0  0  0  0  0  0
  182.5900  176.7810  138.6060 C   0  0  0  0  0  0  0  0  0  0  0  0
  183.7620  176.2320  138.0880 O   0  0  0  0  0  1  0  0  0  0  0  0
  181.6780  177.1890  137.4680 C   0  0  0  0  0  1  0  0  0  0  0  0
  181.8890  175.7470  139.4640 C   0  0  0  0  0  1  0  0  0  0  0  0
  1 14  1  0  0  0  0
  2 13  2  0  0  0  0
  2  3  1  0  0  0  0
  3 19  2  0  0  0  0
  4 11  2  0  0  0  0
  5 14  1  6  0  0  0
  5  2  1  0  0  0  0
  6 17  1  0  0  0  0
  6  1  1  0  0  0  0
  7  3  1  0  0  0  0
  7  4  1  0  0  0  0
  8 21  1  1  0  0  0
  8 13  1  0  0  0  0
  9  1  2  0  0  0  0
 11 15  1  0  0  0  0
 12  8  1  0  0  0  0
 13 18  1  0  0  0  0
 16 12  1  0  0  0  0
 16  5  1  0  0  0  0
 17 16  2  0  0  0  0
 18 10  2  0  0  0  0
 19 10  1  0  0  0  0
 19 20  1  0  0  0  0
 20 15  2  0  0  0  0
 22 21  1  0  0  0  0
 24 25  2  0  0  0  0
 25 27  1  0  0  0  0
 26 25  1  0  0  0  0
 26 27  1  0  0  0  0
 27 23  1  1  0  0  0
 27 22  1  0  0  0  0
 28 26  1  0  0  0  0
 28 31  1  0  0  0  0
 29 28  1  0  0  0  0
 30 28  1  0  0  0  0
M  END
>  <MODEL>
2

>  <REMARK>
 VINA RESULT:      -8.3      3.074      7.520
  Name = 
  4 active torsions:
  status: ('A' for Active; 'I' for Inactive)
    1  A    between atoms: C_1  and  N_19
    2  A    between atoms: C_9  and  C_22
    3  A    between atoms: C_9  and  C_23
    4  A    between atoms: C_15  and  C_23
                            x       y       z     vdW  Elec       q    Type
                         _______ _______ _______ _____ _____    ______ ____

>  <TORSDO>
F 4

$$$$
=
 OpenBabel11052412583D

 31 35  0  0  1  0  0  0  0  0999 V2000
  187.0280  178.0590  137.9240 C   0  0  0  0  0  0  0  0  0  0  0  0
  189.9080  177.1730  140.3300 C   0  0  0  0  0  0  0  0  0  0  0  0
  189.6240  177.5080  141.6760 C   0  0  0  0  0  0  0  0  0  0  0  0
  187.8650  176.6940  143.2170 C   0  0  0  0  0  3  0  0  0  0  0  0
  188.7710  176.9360  139.3510 C   0  0  1  0  0  3  0  0  0  0  0  0
  186.9650  176.7650  137.1560 C   0  0  0  0  0  2  0  0  0  0  0  0
  188.2010  177.6540  142.1260 C   0  0  0  0  0  2  0  0  0  0  0  0
  191.5830  176.6920  138.4740 C   0  0  1  0  0  3  0  0  0  0  0  0
  186.2350  178.9510  137.6720 O   0  0  0  0  0  0  0  0  0  0  0  0
  191.9950  177.7890  142.1030 C   0  0  0  0  0  3  0  0  0  0  0  0
  188.4370  176.7430  144.4180 C   0  0  0  0  0  3  0  0  0  0  0  0
  190.5740  175.6850  137.9280 C   0  0  0  0  0  2  0  0  0  0  0  0
  191.2550  177.0870  139.9010 C   0  0  0  0  0  0  0  0  0  0  0  0
  188.0450  178.2520  139.0210 C   0  0  0  0  0  2  0  0  0  0  0  0
  189.5180  177.6710  144.7980 C   0  0  0  0  0  3  0  0  0  0  0  0
  189.1950  176.2360  138.0740 C   0  0  0  0  0  0  0  0  0  0  0  0
  188.3400  176.1630  137.0450 C   0  0  0  0  0  3  0  0  0  0  0  0
  192.2810  177.4390  140.7880 C   0  0  0  0  0  3  0  0  0  0  0  0
  190.6810  177.7960  142.5690 C   0  0  0  0  0  0  0  0  0  0  0  0
  190.4850  178.1310  143.9940 C   0  0  0  0  0  3  0  0  0  0  0  0
  193.0120  176.1720  138.2770 C   0  0  0  0  0  2  0  0  0  0  0  0
  193.0390  174.7830  137.6470 C   0  0  0  0  0  2  0  0  0  0  0  0
  194.0750  173.6040  135.5400 C   0  0  0  0  0  1  0  0  0  0  0  0
  194.7510  176.9730  135.6130 O   0  0  0  0  0  0  0  0  0  0  0  0
  194.7420  175.8740  136.2270 C   0  0  0  0  0  0  0  0  0  0  0  0
  195.4080  174.8380  137.1430 N   0  0  0  0  0  0  0  0  0  0  0  0
  194.1350  174.6880  136.6000 C   0  0  1  0  0  0  0  0  0  0  0  0
  196.5220  174.3840  137.9560 C   0  0  0  0  0  0  0  0  0  0  0  0
  197.6260  175.2050  137.7290 O   0  0  0  0  0  1  0  0  0  0  0  0
  196.8710  172.9580  137.5860 C   0  0  0  0  0  1  0  0  0  0  0  0
  196.1450  174.4450  139.4220 C   0  0  0  0  0  1  0  0  0  0  0  0
  1 14  1  0  0  0  0
  2  3  1  0  0  0  0
  3  7  1  0  0  0  0
  3 19  2  0  0  0  0
  4 11  2  0  0  0  0
  5 14  1  6  0  0  0
  5  2  1  0  0  0  0
  6  1  1  0  0  0  0
  7  4  1  0  0  0  0
  8 21  1  1  0  0  0
  8 13  1  0  0  0  0
  9  1  2  0  0  0  0
 10 19  1  0  0  0  0
 11 15  1  0  0  0  0
 12 16  1  0  0  0  0
 12  8  1  0  0  0  0
 13  2  2  0  0  0  0
 13 18  1  0  0  0  0
 16  5  1  0  0  0  0
 17  6  1  0  0  0  0
 17 16  2  0  0  0  0
 18 10  2  0  0  0  0
 19 20  1  0  0  0  0
 20 15  2  0  0  0  0
 22 21  1  0  0  0  0
 24 25  2  0  0  0  0
 25 27  1  0  0  0  0
 25 26  1  0  0  0  0
 26 28  1  0  0  0  0
 27 23  1  6  0  0  0
 27 26  1  0  0  0  0
 27 22  1  0  0  0  0
 28 31  1  0  0  0  0
 29 28  1  0  0  0  0
 30 28  1  0  0  0  0
M  END
>  <MODEL>
3

>  <REMARK>
 VINA RESULT:      -8.3      4.919      8.061
  Name = 
  4 active torsions:
  status: ('A' for Active; 'I' for Inactive)
    1  A    between atoms: C_1  and  N_19
    2  A    between atoms: C_9  and  C_22
    3  A    between atoms: C_9  and  C_23
    4  A    between atoms: C_15  and  C_23
                            x       y       z     vdW  Elec       q    Type
                         _______ _______ _______ _____ _____    ______ ____

>  <TORSDO>
F 4

$$$$
=
 OpenBabel11052412583D

 31 35  0  0  1  0  0  0  0  0999 V2000
  190.0450  175.8050  142.7370 C   0  0  0  0  0  0  0  0  0  0  0  0
  186.9210  177.9430  143.4650 C   0  0  0  0  0  0  0  0  0  0  0  0
  186.5590  177.9410  144.8340 C   0  0  0  0  0  0  0  0  0  0  0  0
  187.7740  178.7360  146.8390 C   0  0  0  0  0  3  0  0  0  0  0  0
  188.3530  177.6390  143.0590 C   0  0  1  0  0  3  0  0  0  0  0  0
  190.8000  176.7860  141.8790 C   0  0  0  0  0  2  0  0  0  0  0  0
  187.5830  177.6110  145.8780 C   0  0  0  0  0  2  0  0  0  0  0  0
  186.3090  178.2530  141.0130 C   0  0  1  0  0  3  0  0  0  0  0  0
  190.5460  174.7240  143.0010 O   0  0  0  0  0  0  0  0  0  0  0  0
  184.2450  178.3270  144.2180 C   0  0  0  0  0  3  0  0  0  0  0  0
  186.8120  179.1520  147.6590 C   0  0  0  0  0  3  0  0  0  0  0  0
  187.7140  178.8170  140.8130 C   0  0  0  0  0  2  0  0  0  0  0  0
  185.9360  178.2070  142.4820 C   0  0  0  0  0  0  0  0  0  0  0  0
  188.6880  176.1570  143.2930 C   0  0  0  0  0  2  0  0  0  0  0  0
  185.4320  178.6320  147.6700 C   0  0  0  0  0  3  0  0  0  0  0  0
  188.6840  178.0340  141.6330 C   0  0  0  0  0  0  0  0  0  0  0  0
  189.8370  177.6260  141.0840 C   0  0  0  0  0  3  0  0  0  0  0  0
  184.5990  178.3520  142.8740 C   0  0  0  0  0  3  0  0  0  0  0  0
  185.2130  178.1560  145.2070 C   0  0  0  0  0  0  0  0  0  0  0  0
  184.7440  178.1950  146.6080 C   0  0  0  0  0  3  0  0  0  0  0  0
  185.3040  179.0030  140.1310 C   0  0  0  0  0  2  0  0  0  0  0  0
  185.2900  178.4780  138.6980 C   0  0  0  0  0  2  0  0  0  0  0  0
  183.6750  177.3590  136.9550 C   0  0  0  0  0  1  0  0  0  0  0  0
  182.9010  176.4990  140.1910 O   0  0  0  0  0  0  0  0  0  0  0  0
  183.1640  177.4100  139.3650 C   0  0  0  0  0  0  0  0  0  0  0  0
  182.8880  178.7870  138.7450 N   0  0  0  0  0  0  0  0  0  0  0  0
  183.9160  177.9440  138.3330 C   0  0  1  0  0  0  0  0  0  0  0  0
  182.1270  180.0220  138.6700 C   0  0  0  0  0  0  0  0  0  0  0  0
  183.0000  181.1080  138.7190 O   0  0  0  0  0  1  0  0  0  0  0  0
  181.1670  180.0960  139.8390 C   0  0  0  0  0  1  0  0  0  0  0  0
  181.3450  180.0640  137.3740 C   0  0  0  0  0  1  0  0  0  0  0  0
  1  9  2  0  0  0  0
  1 14  1  0  0  0  0
  2  3  1  0  0  0  0
  3 19  2  0  0  0  0
  3  7  1  0  0  0  0
  4 11  2  0  0  0  0
  5 14  1  6  0  0  0
  5  2  1  0  0  0  0
  6  1  1  0  0  0  0
  7  4  1  0  0  0  0
  8 21  1  6  0  0  0
  8 13  1  0  0  0  0
 10 19  1  0  0  0  0
 11 15  1  0  0  0  0
 12  8  1  0  0  0  0
 12 16  1  0  0  0  0
 13 18  1  0  0  0  0
 13  2  2  0  0  0  0
 16  5  1  0  0  0  0
 17 16  2  0  0  0  0
 17  6  1  0  0  0  0
 18 10  2  0  0  0  0
 19 20  1  0  0  0  0
 20 15  2  0  0  0  0
 22 21  1  0  0  0  0
 25 24  2  0  0  0  0
 26 25  1  0  0  0  0
 27 23  1  6  0  0  0
 27 22  1  0  0  0  0
 27 26  1  0  0  0  0
 27 25  1  0  0  0  0
 28 29  1  0  0  0  0
 28 26  1  0  0  0  0
 28 30  1  0  0  0  0
 31 28  1  0  0  0  0
M  END
>  <MODEL>
4

>  <REMARK>
 VINA RESULT:      -8.2      3.275      7.347
  Name = 
  4 active torsions:
  status: ('A' for Active; 'I' for Inactive)
    1  A    between atoms: C_1  and  N_19
    2  A    between atoms: C_9  and  C_22
    3  A    between atoms: C_9  and  C_23
    4  A    between atoms: C_15  and  C_23
                            x       y       z     vdW  Elec       q    Type
                         _______ _______ _______ _____ _____    ______ ____

>  <TORSDO>
F 4

$$$$
=
 OpenBabel11052412583D

 31 35  0  0  1  0  0  0  0  0999 V2000
  190.0330  176.5840  139.8730 C   0  0  0  0  0  0  0  0  0  0  0  0
  188.3200  177.6810  143.1480 C   0  0  0  0  0  0  0  0  0  0  0  0
  189.0400  177.2910  144.3040 C   0  0  0  0  0  0  0  0  0  0  0  0
  191.3060  177.9000  145.0900 C   0  0  0  0  0  3  0  0  0  0  0  0
  189.0420  177.8330  141.8200 C   0  0  1  0  0  3  0  0  0  0  0  0
  189.9370  177.8830  139.1170 C   0  0  0  0  0  2  0  0  0  0  0  0
  190.5070  177.0010  144.2080 C   0  0  0  0  0  2  0  0  0  0  0  0
  186.1400  178.3600  142.0200 C   0  0  1  0  0  3  0  0  0  0  0  0
  190.5920  175.6280  139.3610 O   0  0  0  0  0  0  0  0  0  0  0  0
  186.9690  177.2240  145.5650 C   0  0  0  0  0  3  0  0  0  0  0  0
  191.2060  177.8780  146.4180 C   0  0  0  0  0  3  0  0  0  0  0  0
  186.9750  179.2800  141.1330 C   0  0  0  0  0  2  0  0  0  0  0  0
  186.9240  177.9040  143.2360 C   0  0  0  0  0  0  0  0  0  0  0  0
  189.4690  176.4630  141.2670 C   0  0  0  0  0  2  0  0  0  0  0  0
  190.2530  177.0470  147.1760 C   0  0  0  0  0  3  0  0  0  0  0  0
  188.2530  178.5980  140.7760 C   0  0  0  0  0  0  0  0  0  0  0  0
  188.6800  178.6150  139.5050 C   0  0  0  0  0  3  0  0  0  0  0  0
  186.2610  177.6290  144.4390 C   0  0  0  0  0  3  0  0  0  0  0  0
  188.3550  177.0830  145.5220 C   0  0  0  0  0  0  0  0  0  0  0  0
  189.0220  176.6990  146.7840 C   0  0  0  0  0  3  0  0  0  0  0  0
  184.7940  179.0150  142.3490 C   0  0  0  0  0  2  0  0  0  0  0  0
  183.6230  178.0560  142.1550 C   0  0  0  0  0  2  0  0  0  0  0  0
  183.4620  179.3780  139.8900 C   0  0  0  0  0  1  0  0  0  0  0  0
  182.6800  176.0520  139.5190 O   0  0  0  0  0  0  0  0  0  0  0  0
  182.5080  177.1210  140.1580 C   0  0  0  0  0  0  0  0  0  0  0  0
  181.5960  178.1550  140.8330 N   0  0  0  0  0  0  0  0  0  0  0  0
  182.9830  178.2560  140.7920 C   0  0  1  0  0  0  0  0  0  0  0  0
  180.2800  178.6360  141.2180 C   0  0  0  0  0  0  0  0  0  0  0  0
  179.5500  177.5900  141.7790 O   0  0  0  0  0  1  0  0  0  0  0  0
  179.5550  179.1570  139.9950 C   0  0  0  0  0  1  0  0  0  0  0  0
  180.4200  179.7530  142.2320 C   0  0  0  0  0  1  0  0  0  0  0  0
  1 14  1  0  0  0  0
  2 13  2  0  0  0  0
  2  3  1  0  0  0  0
  3 19  2  0  0  0  0
  4 11  2  0  0  0  0
  5 14  1  6  0  0  0
  5  2  1  0  0  0  0
  6 17  1  0  0  0  0
  6  1  1  0  0  0  0
  7  3  1  0  0  0  0
  7  4  1  0  0  0  0
  8 21  1  1  0  0  0
  8 13  1  0  0  0  0
  9  1  2  0  0  0  0
 11 15  1  0  0  0  0
 12  8  1  0  0  0  0
 13 18  1  0  0  0  0
 16 12  1  0  0  0  0
 16  5  1  0  0  0  0
 17 16  2  0  0  0  0
 18 10  2  0  0  0  0
 19 10  1  0  0  0  0
 19 20  1  0  0  0  0
 20 15  2  0  0  0  0
 22 21  1  0  0  0  0
 24 25  2  0  0  0  0
 25 27  1  0  0  0  0
 25 26  1  0  0  0  0
 26 28  1  0  0  0  0
 27 23  1  6  0  0  0
 27 26  1  0  0  0  0
 27 22  1  0  0  0  0
 28 29  1  0  0  0  0
 28 31  1  0  0  0  0
 30 28  1  0  0  0  0
M  END
>  <MODEL>
5

>  <REMARK>
 VINA RESULT:      -8.1      3.153      7.707
  Name = 
  4 active torsions:
  status: ('A' for Active; 'I' for Inactive)
    1  A    between atoms: C_1  and  N_19
    2  A    between atoms: C_9  and  C_22
    3  A    between atoms: C_9  and  C_23
    4  A    between atoms: C_15  and  C_23
                            x       y       z     vdW  Elec       q    Type
                         _______ _______ _______ _____ _____    ______ ____

>  <TORSDO>
F 4

$$$$
=
 OpenBabel11052412583D

 31 35  0  0  1  0  0  0  0  0999 V2000
  189.9880  175.7510  142.7330 C   0  0  0  0  0  0  0  0  0  0  0  0
  186.9420  177.9640  143.5650 C   0  0  0  0  0  0  0  0  0  0  0  0
  186.6120  177.9530  144.9410 C   0  0  0  0  0  0  0  0  0  0  0  0
  187.8960  178.6870  146.9260 C   0  0  0  0  0  3  0  0  0  0  0  0
  188.3550  177.6270  143.1190 C   0  0  1  0  0  3  0  0  0  0  0  0
  190.7490  176.7230  141.8710 C   0  0  0  0  0  2  0  0  0  0  0  0
  187.6510  177.5810  145.9560 C   0  0  0  0  0  2  0  0  0  0  0  0
  186.2810  178.3230  141.1310 C   0  0  1  0  0  3  0  0  0  0  0  0
  190.4640  174.6540  142.9720 O   0  0  0  0  0  0  0  0  0  0  0  0
  184.2960  178.4100  144.3870 C   0  0  0  0  0  3  0  0  0  0  0  0
  186.9650  179.1180  147.7750 C   0  0  0  0  0  3  0  0  0  0  0  0
  187.6950  178.8510  140.9050 C   0  0  0  0  0  2  0  0  0  0  0  0
  185.9410  178.2670  142.6090 C   0  0  0  0  0  0  0  0  0  0  0  0
  188.6540  176.1320  143.3260 C   0  0  0  0  0  2  0  0  0  0  0  0
  185.5730  178.6360  147.8120 C   0  0  0  0  0  3  0  0  0  0  0  0
  188.6630  178.0310  141.6910 C   0  0  0  0  0  0  0  0  0  0  0  0
  189.7900  177.5990  141.1100 C   0  0  0  0  0  3  0  0  0  0  0  0
  184.6180  178.4440  143.0340 C   0  0  0  0  0  3  0  0  0  0  0  0
  185.2820  178.1990  145.3490 C   0  0  0  0  0  0  0  0  0  0  0  0
  184.8480  178.2320  146.7610 C   0  0  0  0  0  3  0  0  0  0  0  0
  185.2760  179.1120  140.2840 C   0  0  0  0  0  2  0  0  0  0  0  0
  185.0280  178.4590  138.9270 C   0  0  0  0  0  2  0  0  0  0  0  0
  183.0190  177.1570  140.0090 C   0  0  0  0  0  1  0  0  0  0  0  0
  181.9690  179.6360  137.8730 O   0  0  0  0  0  0  0  0  0  0  0  0
  182.7190  178.6450  138.0680 C   0  0  0  0  0  0  0  0  0  0  0  0
  183.3420  177.3180  137.6140 N   0  0  0  0  0  0  0  0  0  0  0  0
  183.6100  177.9210  138.8390 C   0  0  1  0  0  0  0  0  0  0  0  0
  183.5130  176.2580  136.6350 C   0  0  0  0  0  0  0  0  0  0  0  0
  182.2760  175.6830  136.3530 O   0  0  0  0  0  1  0  0  0  0  0  0
  184.4450  175.2020  137.1910 C   0  0  0  0  0  1  0  0  0  0  0  0
  184.1040  176.8280  135.3620 C   0  0  0  0  0  1  0  0  0  0  0  0
  1  9  2  0  0  0  0
  1 14  1  0  0  0  0
  2  3  1  0  0  0  0
  3 19  2  0  0  0  0
  3  7  1  0  0  0  0
  4 11  2  0  0  0  0
  5 14  1  6  0  0  0
  5  2  1  0  0  0  0
  6  1  1  0  0  0  0
  7  4  1  0  0  0  0
  8 21  1  6  0  0  0
  8 13  1  0  0  0  0
 10 19  1  0  0  0  0
 11 15  1  0  0  0  0
 12  8  1  0  0  0  0
 12 16  1  0  0  0  0
 13 18  1  0  0  0  0
 13  2  2  0  0  0  0
 16  5  1  0  0  0  0
 17 16  2  0  0  0  0
 17  6  1  0  0  0  0
 18 10  2  0  0  0  0
 19 20  1  0  0  0  0
 20 15  2  0  0  0  0
 22 21  1  0  0  0  0
 24 25  2  0  0  0  0
 25 27  1  0  0  0  0
 26 25  1  0  0  0  0
 26 27  1  0  0  0  0
 27 22  1  0  0  0  0
 27 23  1  1  0  0  0
 28 30  1  0  0  0  0
 28 26  1  0  0  0  0
 29 28  1  0  0  0  0
 31 28  1  0  0  0  0
M  END
>  <MODEL>
6

>  <REMARK>
 VINA RESULT:      -8.0      3.579      7.541
  Name = 
  4 active torsions:
  status: ('A' for Active; 'I' for Inactive)
    1  A    between atoms: C_1  and  N_19
    2  A    between atoms: C_9  and  C_22
    3  A    between atoms: C_9  and  C_23
    4  A    between atoms: C_15  and  C_23
                            x       y       z     vdW  Elec       q    Type
                         _______ _______ _______ _____ _____    ______ ____

>  <TORSDO>
F 4

$$$$
=
 OpenBabel11052412583D

 31 35  0  0  1  0  0  0  0  0999 V2000
  189.9980  176.5990  141.5910 C   0  0  0  0  0  0  0  0  0  0  0  0
  187.4630  177.9180  144.1780 C   0  0  0  0  0  0  0  0  0  0  0  0
  187.8700  177.6880  145.5150 C   0  0  0  0  0  0  0  0  0  0  0  0
  189.8360  178.5030  146.7790 C   0  0  0  0  0  3  0  0  0  0  0  0
  188.4990  177.9770  143.0690 C   0  0  1  0  0  3  0  0  0  0  0  0
  190.0620  177.8080  140.6950 C   0  0  0  0  0  2  0  0  0  0  0  0
  189.3200  177.4750  145.8290 C   0  0  0  0  0  2  0  0  0  0  0  0
  185.6300  178.3540  142.4650 C   0  0  1  0  0  3  0  0  0  0  0  0
  190.6980  175.6300  141.3480 O   0  0  0  0  0  0  0  0  0  0  0  0
  185.5460  177.6290  146.2080 C   0  0  0  0  0  3  0  0  0  0  0  0
  189.3960  178.6090  148.0310 C   0  0  0  0  0  3  0  0  0  0  0  0
  186.6380  179.2260  141.7220 C   0  0  0  0  0  2  0  0  0  0  0  0
  186.0860  178.0680  143.8830 C   0  0  0  0  0  0  0  0  0  0  0  0
  189.0960  176.5860  142.8000 C   0  0  0  0  0  2  0  0  0  0  0  0
  188.3040  177.8050  148.6110 C   0  0  0  0  0  3  0  0  0  0  0  0
  187.9860  178.5870  141.7800 C   0  0  0  0  0  0  0  0  0  0  0  0
  188.7260  178.5000  140.6660 C   0  0  0  0  0  3  0  0  0  0  0  0
  185.1420  177.8770  144.9010 C   0  0  0  0  0  3  0  0  0  0  0  0
  186.9000  177.5640  146.5350 C   0  0  0  0  0  0  0  0  0  0  0  0
  187.2280  177.3480  147.9600 C   0  0  0  0  0  3  0  0  0  0  0  0
  184.2260  178.9600  142.3650 C   0  0  0  0  0  2  0  0  0  0  0  0
  183.2560  178.0490  141.6180 C   0  0  0  0  0  2  0  0  0  0  0  0
  181.3880  179.4340  140.3970 C   0  0  0  0  0  1  0  0  0  0  0  0
  184.5280  180.1240  139.1820 O   0  0  0  0  0  0  0  0  0  0  0  0
  183.6770  179.2550  139.5030 C   0  0  0  0  0  0  0  0  0  0  0  0
  182.9060  177.9580  139.2230 N   0  0  0  0  0  0  0  0  0  0  0  0
  182.7310  178.7310  140.3660 C   0  0  1  0  0  0  0  0  0  0  0  0
  182.6090  176.8060  138.3890 C   0  0  0  0  0  0  0  0  0  0  0  0
  183.7970  176.2770  137.8870 O   0  0  0  0  0  1  0  0  0  0  0  0
  181.7210  177.2300  137.2380 C   0  0  0  0  0  1  0  0  0  0  0  0
  181.8970  175.7500  139.2090 C   0  0  0  0  0  1  0  0  0  0  0  0
  1 14  1  0  0  0  0
  2  3  1  0  0  0  0
  3  7  1  0  0  0  0
  3 19  2  0  0  0  0
  4 11  2  0  0  0  0
  5 14  1  6  0  0  0
  5  2  1  0  0  0  0
  6  1  1  0  0  0  0
  7  4  1  0  0  0  0
  8 21  1  1  0  0  0
  8 13  1  0  0  0  0
  9  1  2  0  0  0  0
 10 19  1  0  0  0  0
 11 15  1  0  0  0  0
 12 16  1  0  0  0  0
 12  8  1  0  0  0  0
 13  2  2  0  0  0  0
 13 18  1  0  0  0  0
 16  5  1  0  0  0  0
 17  6  1  0  0  0  0
 17 16  2  0  0  0  0
 18 10  2  0  0  0  0
 19 20  1  0  0  0  0
 20 15  2  0  0  0  0
 22 21  1  0  0  0  0
 24 25  2  0  0  0  0
 25 27  1  0  0  0  0
 26 25  1  0  0  0  0
 26 27  1  0  0  0  0
 27 23  1  1  0  0  0
 27 22  1  0  0  0  0
 28 31  1  0  0  0  0
 28 26  1  0  0  0  0
 29 28  1  0  0  0  0
 30 28  1  0  0  0  0
M  END
>  <MODEL>
7

>  <REMARK>
 VINA RESULT:      -7.9      2.892      7.400
  Name = 
  4 active torsions:
  status: ('A' for Active; 'I' for Inactive)
    1  A    between atoms: C_1  and  N_19
    2  A    between atoms: C_9  and  C_22
    3  A    between atoms: C_9  and  C_23
    4  A    between atoms: C_15  and  C_23
                            x       y       z     vdW  Elec       q    Type
                         _______ _______ _______ _____ _____    ______ ____

>  <TORSDO>
F 4

$$$$
=
 OpenBabel11052412583D

 31 35  0  0  1  0  0  0  0  0999 V2000
  190.1790  175.6770  142.9030 C   0  0  0  0  0  0  0  0  0  0  0  0
  187.0190  177.8800  143.0640 C   0  0  0  0  0  0  0  0  0  0  0  0
  186.4220  177.8940  144.3470 C   0  0  0  0  0  0  0  0  0  0  0  0
  187.2830  178.6800  146.5310 C   0  0  0  0  0  3  0  0  0  0  0  0
  188.4940  177.5460  142.9160 C   0  0  1  0  0  3  0  0  0  0  0  0
  191.0920  176.6370  142.1870 C   0  0  0  0  0  2  0  0  0  0  0  0
  187.2400  177.5520  145.5560 C   0  0  0  0  0  2  0  0  0  0  0  0
  186.8530  178.1830  140.5400 C   0  0  1  0  0  3  0  0  0  0  0  0
  190.6040  174.5890  143.2550 O   0  0  0  0  0  0  0  0  0  0  0  0
  184.2600  178.3190  143.3330 C   0  0  0  0  0  3  0  0  0  0  0  0
  186.2000  179.1200  147.1680 C   0  0  0  0  0  3  0  0  0  0  0  0
  188.2820  178.7180  140.5880 C   0  0  0  0  0  2  0  0  0  0  0  0
  186.2270  178.1540  141.9220 C   0  0  0  0  0  0  0  0  0  0  0  0
  188.7530  176.0580  143.2100 C   0  0  0  0  0  2  0  0  0  0  0  0
  184.8290  178.6260  146.9380 C   0  0  0  0  0  3  0  0  0  0  0  0
  189.0780  177.9230  141.5690 C   0  0  0  0  0  0  0  0  0  0  0  0
  190.3000  177.4890  141.2320 C   0  0  0  0  0  3  0  0  0  0  0  0
  184.8450  178.3290  142.0720 C   0  0  0  0  0  3  0  0  0  0  0  0
  185.0360  178.1370  144.4770 C   0  0  0  0  0  0  0  0  0  0  0  0
  184.3300  178.1950  145.7740 C   0  0  0  0  0  3  0  0  0  0  0  0
  186.0340  178.9450  139.4930 C   0  0  0  0  0  2  0  0  0  0  0  0
  185.5230  178.0310  138.3830 C   0  0  0  0  0  2  0  0  0  0  0  0
  187.2100  178.9760  136.6050 C   0  0  0  0  0  1  0  0  0  0  0  0
  188.3770  176.1220  138.1240 O   0  0  0  0  0  0  0  0  0  0  0  0
  187.4290  176.7060  137.5380 C   0  0  0  0  0  0  0  0  0  0  0  0
  186.3040  176.7320  136.4940 N   0  0  0  0  0  0  0  0  0  0  0  0
  186.6010  177.7970  137.3400 C   0  0  1  0  0  0  0  0  0  0  0  0
  185.5290  176.1040  135.4380 C   0  0  0  0  0  0  0  0  0  0  0  0
  186.3820  175.3950  134.5950 O   0  0  0  0  0  1  0  0  0  0  0  0
  184.8040  177.1680  134.6410 C   0  0  0  0  0  1  0  0  0  0  0  0
  184.5160  175.1530  136.0430 C   0  0  0  0  0  1  0  0  0  0  0  0
  1 14  1  0  0  0  0
  1  9  2  0  0  0  0
  2  3  1  0  0  0  0
  3 19  2  0  0  0  0
  3  7  1  0  0  0  0
  4 11  2  0  0  0  0
  5  2  1  0  0  0  0
  5 14  1  6  0  0  0
  6  1  1  0  0  0  0
  7  4  1  0  0  0  0
  8 21  1  6  0  0  0
  8 12  1  0  0  0  0
  8 13  1  0  0  0  0
 10 19  1  0  0  0  0
 12 16  1  0  0  0  0
 13 18  1  0  0  0  0
 13  2  2  0  0  0  0
 15 11  1  0  0  0  0
 16  5  1  0  0  0  0
 17 16  2  0  0  0  0
 17  6  1  0  0  0  0
 18 10  2  0  0  0  0
 19 20  1  0  0  0  0
 20 15  2  0  0  0  0
 22 21  1  0  0  0  0
 25 24  2  0  0  0  0
 26 27  1  0  0  0  0
 26 25  1  0  0  0  0
 27 23  1  6  0  0  0
 27 25  1  0  0  0  0
 27 22  1  0  0  0  0
 28 31  1  0  0  0  0
 28 26  1  0  0  0  0
 29 28  1  0  0  0  0
 30 28  1  0  0  0  0
M  END
>  <MODEL>
8

>  <REMARK>
 VINA RESULT:      -7.9      3.512      7.096
  Name = 
  4 active torsions:
  status: ('A' for Active; 'I' for Inactive)
    1  A    between atoms: C_1  and  N_19
    2  A    between atoms: C_9  and  C_22
    3  A    between atoms: C_9  and  C_23
    4  A    between atoms: C_15  and  C_23
                            x       y       z     vdW  Elec       q    Type
                         _______ _______ _______ _____ _____    ______ ____

>  <TORSDO>
F 4

$$$$
=
 OpenBabel11052412583D

 31 35  0  0  1  0  0  0  0  0999 V2000
  191.1330  175.8310  143.6050 C   0  0  0  0  0  0  0  0  0  0  0  0
  187.8210  177.7840  143.3310 C   0  0  0  0  0  0  0  0  0  0  0  0
  187.0890  177.8010  144.5430 C   0  0  0  0  0  0  0  0  0  0  0  0
  187.6480  178.7330  146.7670 C   0  0  0  0  0  3  0  0  0  0  0  0
  189.3230  177.5610  143.3540 C   0  0  1  0  0  3  0  0  0  0  0  0
  192.0450  176.8330  142.9460 C   0  0  0  0  0  2  0  0  0  0  0  0
  187.7940  177.5690  145.8450 C   0  0  0  0  0  2  0  0  0  0  0  0
  187.9070  177.9780  140.7930 C   0  0  1  0  0  3  0  0  0  0  0  0
  191.5960  174.7940  144.0490 O   0  0  0  0  0  0  0  0  0  0  0  0
  185.0240  178.0160  143.2890 C   0  0  0  0  0  3  0  0  0  0  0  0
  186.4720  179.1110  147.2660 C   0  0  0  0  0  3  0  0  0  0  0  0
  189.2790  178.6250  140.9660 C   0  0  0  0  0  2  0  0  0  0  0  0
  187.1380  177.9530  142.1010 C   0  0  0  0  0  0  0  0  0  0  0  0
  189.6580  176.1110  143.7430 C   0  0  0  0  0  2  0  0  0  0  0  0
  185.1750  178.5030  146.9160 C   0  0  0  0  0  3  0  0  0  0  0  0
  190.0200  177.9330  142.0600 C   0  0  0  0  0  0  0  0  0  0  0  0
  191.3000  177.5830  141.8750 C   0  0  0  0  0  3  0  0  0  0  0  0
  185.7390  178.0240  142.0970 C   0  0  0  0  0  3  0  0  0  0  0  0
  185.6830  177.9390  144.5150 C   0  0  0  0  0  0  0  0  0  0  0  0
  184.8380  177.9910  145.7260 C   0  0  0  0  0  3  0  0  0  0  0  0
  187.1520  178.6340  139.6320 C   0  0  0  0  0  2  0  0  0  0  0  0
  186.7960  177.6330  138.5370 C   0  0  0  0  0  2  0  0  0  0  0  0
  186.8720  177.8360  135.9190 C   0  0  0  0  0  1  0  0  0  0  0  0
  189.0090  180.0430  137.4610 O   0  0  0  0  0  0  0  0  0  0  0  0
  188.5880  178.8610  137.3600 C   0  0  0  0  0  0  0  0  0  0  0  0
  188.8320  177.3490  137.2550 N   0  0  0  0  0  0  0  0  0  0  0  0
  187.5680  177.9310  137.2630 C   0  0  1  0  0  0  0  0  0  0  0  0
  189.7210  176.2020  137.2010 C   0  0  0  0  0  0  0  0  0  0  0  0
  190.6320  176.3700  136.1590 O   0  0  0  0  0  1  0  0  0  0  0  0
  188.9110  174.9450  136.9640 C   0  0  0  0  0  1  0  0  0  0  0  0
  190.4740  176.0740  138.5100 C   0  0  0  0  0  1  0  0  0  0  0  0
  1 14  1  0  0  0  0
  1  9  2  0  0  0  0
  2  5  1  0  0  0  0
  2  3  1  0  0  0  0
  3  7  1  0  0  0  0
  4 11  2  0  0  0  0
  5 14  1  6  0  0  0
  6  1  1  0  0  0  0
  7  4  1  0  0  0  0
  8 21  1  6  0  0  0
  8 12  1  0  0  0  0
  8 13  1  0  0  0  0
 10 19  1  0  0  0  0
 12 16  1  0  0  0  0
 13  2  2  0  0  0  0
 15 11  1  0  0  0  0
 16  5  1  0  0  0  0
 17 16  2  0  0  0  0
 17  6  1  0  0  0  0
 18 13  1  0  0  0  0
 18 10  2  0  0  0  0
 19  3  2  0  0  0  0
 19 20  1  0  0  0  0
 20 15  2  0  0  0  0
 22 21  1  0  0  0  0
 25 24  2  0  0  0  0
 26 27  1  0  0  0  0
 26 25  1  0  0  0  0
 27 23  1  6  0  0  0
 27 25  1  0  0  0  0
 27 22  1  0  0  0  0
 28 26  1  0  0  0  0
 28 31  1  0  0  0  0
 29 28  1  0  0  0  0
 30 28  1  0  0  0  0
M  END
>  <MODEL>
9

>  <REMARK>
 VINA RESULT:      -7.9      2.758      6.622
  Name = 
  4 active torsions:
  status: ('A' for Active; 'I' for Inactive)
    1  A    between atoms: C_1  and  N_19
    2  A    between atoms: C_9  and  C_22
    3  A    between atoms: C_9  and  C_23
    4  A    between atoms: C_15  and  C_23
                            x       y       z     vdW  Elec       q    Type
                         _______ _______ _______ _____ _____    ______ ____

>  <TORSDO>
F 4

$$$$
