=
 OpenBabel11052412543D

 25 28  0  0  1  0  0  0  0  0999 V2000
  187.2440  177.3320  145.1480 C   0  0  2  0  0  3  0  0  0  0  0  0
  188.6170  177.9540  144.8390 C   0  0  1  0  0  3  0  0  0  0  0  0
  187.8550  177.4120  147.5160 N   0  0  0  0  0  0  0  0  0  0  0  0
  186.0700  178.0530  144.5810 C   0  0  0  0  0  0  0  0  0  0  0  0
  183.6420  179.2570  143.9670 C   0  0  0  0  0  3  0  0  0  0  0  0
  189.2370  177.2850  147.1460 C   0  0  0  0  0  3  0  0  0  0  0  0
  185.1660  178.3460  145.5850 C   0  0  0  0  0  0  0  0  0  0  0  0
  183.9450  178.9580  145.3050 C   0  0  0  0  0  3  0  0  0  0  0  0
  184.5520  178.9370  142.9420 C   0  0  0  0  0  3  0  0  0  0  0  0
  186.9310  177.4650  146.6080 C   0  0  0  0  0  0  0  0  0  0  0  0
  185.6310  177.9840  146.8760 N   0  0  0  0  0  2  0  0  0  0  0  0
  185.7750  178.3200  143.2430 C   0  0  0  0  0  3  0  0  0  0  0  0
  189.6480  177.5110  145.8840 C   0  0  0  0  0  0  0  0  0  0  0  0
  189.0120  177.6180  143.4280 C   0  0  0  0  0  0  0  0  0  0  0  0
  189.7790  176.0350  141.7560 C   0  0  0  0  0  3  0  0  0  0  0  0
  188.9530  178.6140  142.4480 C   0  0  0  0  0  3  0  0  0  0  0  0
  189.3060  178.3240  141.1280 C   0  0  0  0  0  3  0  0  0  0  0  0
  189.4250  176.3240  143.0770 C   0  0  0  0  0  3  0  0  0  0  0  0
  189.7230  177.0330  140.7740 C   0  0  0  0  0  0  0  0  0  0  0  0
  190.0970  176.7220  139.3850 C   0  0  0  0  0  0  0  0  0  0  0  0
  189.7210  177.5720  138.3510 O   0  0  0  0  0  0  0  0  0  0  0  0
  190.7610  175.6850  139.1190 O   0  0  0  0  0  1  0  0  0  0  0  0
  191.1060  177.5000  145.6140 C   0  0  0  0  0  0  0  0  0  0  0  0
  191.6250  178.3490  144.8420 O   0  0  0  0  0  0  0  0  0  0  0  0
  191.9470  176.5380  146.2450 N   0  0  0  0  0  1  0  0  0  0  0  0
  1  4  1  6  0  0  0
  1 10  1  0  0  0  0
  2 14  1  6  0  0  0
  2  1  1  0  0  0  0
  2 13  1  0  0  0  0
  4  7  1  0  0  0  0
  5  8  1  0  0  0  0
  6  3  1  0  0  0  0
  7 11  1  0  0  0  0
  8  7  2  0  0  0  0
  9 12  1  0  0  0  0
  9  5  2  0  0  0  0
 10 11  1  0  0  0  0
 10  3  2  0  0  0  0
 12  4  2  0  0  0  0
 13  6  2  0  0  0  0
 15 18  2  0  0  0  0
 16 14  2  0  0  0  0
 17 16  1  0  0  0  0
 18 14  1  0  0  0  0
 19 17  2  0  0  0  0
 19 15  1  0  0  0  0
 20 19  1  0  0  0  0
 21 20  2  0  0  0  0
 22 20  1  0  0  0  0
 23 13  1  0  0  0  0
 23 25  1  0  0  0  0
 24 23  2  0  0  0  0
M  END
>  <MODEL>
1

>  <REMARK>
 VINA RESULT:      -9.2      0.000      0.000
  Name = 
  3 active torsions:
  status: ('A' for Active; 'I' for Inactive)
    1  A    between atoms: C_2  and  C_25
    2  A    between atoms: C_3  and  C_6
    3  A    between atoms: C_13  and  C_24
                            x       y       z     vdW  Elec       q    Type
                         _______ _______ _______ _____ _____    ______ ____

>  <TORSDO>
F 3

$$$$
=
 OpenBabel11052412543D

 25 28  0  0  1  0  0  0  0  0999 V2000
  187.2670  178.5160  141.9110 C   0  0  2  0  0  3  0  0  0  0  0  0
  187.9940  177.2880  142.4880 C   0  0  1  0  0  3  0  0  0  0  0  0
  188.3310  178.0100  139.7660 N   0  0  0  0  0  0  0  0  0  0  0  0
  185.7900  178.5390  142.1070 C   0  0  0  0  0  0  0  0  0  0  0  0
  183.0270  178.8030  141.9990 C   0  0  0  0  0  3  0  0  0  0  0  0
  189.4340  177.4200  140.4720 C   0  0  0  0  0  3  0  0  0  0  0  0
  185.1550  178.7070  140.8910 C   0  0  0  0  0  0  0  0  0  0  0  0
  183.7700  178.8330  140.8080 C   0  0  0  0  0  3  0  0  0  0  0  0
  183.6750  178.6560  143.2400 C   0  0  0  0  0  3  0  0  0  0  0  0
  187.3150  178.4910  140.4130 C   0  0  0  0  0  0  0  0  0  0  0  0
  186.0520  178.7100  139.7900 N   0  0  0  0  0  2  0  0  0  0  0  0
  185.0710  178.5330  143.3030 C   0  0  0  0  0  3  0  0  0  0  0  0
  189.3330  177.0780  141.7700 C   0  0  0  0  0  0  0  0  0  0  0  0
  188.1300  177.4410  143.9770 C   0  0  0  0  0  0  0  0  0  0  0  0
  187.2970  177.1070  146.2320 C   0  0  0  0  0  3  0  0  0  0  0  0
  189.2700  178.0620  144.4960 C   0  0  0  0  0  3  0  0  0  0  0  0
  189.4240  178.2080  145.8780 C   0  0  0  0  0  3  0  0  0  0  0  0
  187.1430  176.9610  144.8500 C   0  0  0  0  0  3  0  0  0  0  0  0
  188.4370  177.7320  146.7540 C   0  0  0  0  0  0  0  0  0  0  0  0
  188.5940  177.8840  148.2100 C   0  0  0  0  0  0  0  0  0  0  0  0
  189.7370  178.4750  148.7340 O   0  0  0  0  0  0  0  0  0  0  0  0
  187.6940  177.4800  148.9940 O   0  0  0  0  0  1  0  0  0  0  0  0
  190.4640  176.3440  142.3870 C   0  0  0  0  0  0  0  0  0  0  0  0
  190.3090  175.1750  142.8290 O   0  0  0  0  0  0  0  0  0  0  0  0
  191.7530  176.9460  142.4670 N   0  0  0  0  0  1  0  0  0  0  0  0
  1 10  1  6  0  0  0
  1  4  1  0  0  0  0
  1  2  1  0  0  0  0
  2 14  1  1  0  0  0
  3 10  2  0  0  0  0
  3  6  1  0  0  0  0
  4 12  1  0  0  0  0
  5  9  1  0  0  0  0
  6 13  2  0  0  0  0
  7  4  2  0  0  0  0
  8  7  1  0  0  0  0
  8  5  2  0  0  0  0
  9 12  2  0  0  0  0
 11 10  1  0  0  0  0
 11  7  1  0  0  0  0
 13 23  1  0  0  0  0
 13  2  1  0  0  0  0
 14 16  2  0  0  0  0
 14 18  1  0  0  0  0
 15 19  1  0  0  0  0
 16 17  1  0  0  0  0
 17 19  2  0  0  0  0
 18 15  2  0  0  0  0
 19 20  1  0  0  0  0
 20 21  2  0  0  0  0
 20 22  1  0  0  0  0
 23 25  1  0  0  0  0
 23 24  2  0  0  0  0
M  END
>  <MODEL>
2

>  <REMARK>
 VINA RESULT:      -8.9      2.984      5.407
  Name = 
  3 active torsions:
  status: ('A' for Active; 'I' for Inactive)
    1  A    between atoms: C_2  and  C_25
    2  A    between atoms: C_3  and  C_6
    3  A    between atoms: C_13  and  C_24
                            x       y       z     vdW  Elec       q    Type
                         _______ _______ _______ _____ _____    ______ ____

>  <TORSDO>
F 3

$$$$
=
 OpenBabel11052412543D

 25 28  0  0  1  0  0  0  0  0999 V2000
  186.3860  178.8410  144.8280 C   0  0  2  0  0  3  0  0  0  0  0  0
  185.9550  177.9890  143.6220 C   0  0  1  0  0  3  0  0  0  0  0  0
  184.0220  179.3730  145.1660 N   0  0  0  0  0  0  0  0  0  0  0  0
  187.2220  178.1410  145.8440 C   0  0  0  0  0  0  0  0  0  0  0  0
  188.5150  177.1260  148.0840 C   0  0  0  0  0  3  0  0  0  0  0  0
  183.8020  179.2120  143.7560 C   0  0  0  0  0  3  0  0  0  0  0  0
  186.6470  178.2670  147.0950 C   0  0  0  0  0  0  0  0  0  0  0  0
  187.2700  177.7590  148.2340 C   0  0  0  0  0  3  0  0  0  0  0  0
  189.1120  177.0190  146.8140 C   0  0  0  0  0  3  0  0  0  0  0  0
  185.1970  179.1770  145.6770 C   0  0  0  0  0  0  0  0  0  0  0  0
  185.3900  178.9260  147.0670 N   0  0  0  0  0  2  0  0  0  0  0  0
  188.4700  177.5380  145.6800 C   0  0  0  0  0  3  0  0  0  0  0  0
  184.6980  178.5810  142.9740 C   0  0  0  0  0  0  0  0  0  0  0  0
  187.1100  177.8490  142.6690 C   0  0  0  0  0  0  0  0  0  0  0  0
  188.4680  178.6860  140.8400 C   0  0  0  0  0  3  0  0  0  0  0  0
  187.9320  176.7220  142.7560 C   0  0  0  0  0  3  0  0  0  0  0  0
  189.0180  176.5740  141.8880 C   0  0  0  0  0  3  0  0  0  0  0  0
  187.3830  178.8350  141.7090 C   0  0  0  0  0  3  0  0  0  0  0  0
  189.2910  177.5550  140.9230 C   0  0  0  0  0  0  0  0  0  0  0  0
  190.4320  177.4040  140.0060 C   0  0  0  0  0  0  0  0  0  0  0  0
  191.7340  177.4690  140.4900 O   0  0  0  0  0  1  0  0  0  0  0  0
  190.2410  177.2140  138.7750 O   0  0  0  0  0  0  0  0  0  0  0  0
  184.3330  178.3300  141.5600 C   0  0  0  0  0  0  0  0  0  0  0  0
  183.7660  177.2580  141.2210 O   0  0  0  0  0  0  0  0  0  0  0  0
  184.6000  179.3130  140.5630 N   0  0  0  0  0  1  0  0  0  0  0  0
  1 10  1  1  0  0  0
  1  4  1  0  0  0  0
  2 14  1  6  0  0  0
  2  1  1  0  0  0  0
  3 10  2  0  0  0  0
  4  7  1  0  0  0  0
  5  8  1  0  0  0  0
  6  3  1  0  0  0  0
  7  8  2  0  0  0  0
  9  5  2  0  0  0  0
 10 11  1  0  0  0  0
 11  7  1  0  0  0  0
 12  4  2  0  0  0  0
 12  9  1  0  0  0  0
 13  2  1  0  0  0  0
 13  6  2  0  0  0  0
 14 16  1  0  0  0  0
 15 19  2  0  0  0  0
 15 18  1  0  0  0  0
 17 16  2  0  0  0  0
 18 14  2  0  0  0  0
 19 17  1  0  0  0  0
 20 21  1  0  0  0  0
 20 19  1  0  0  0  0
 22 20  2  0  0  0  0
 23 13  1  0  0  0  0
 24 23  2  0  0  0  0
 25 23  1  0  0  0  0
M  END
>  <MODEL>
3

>  <REMARK>
 VINA RESULT:      -8.7      2.230      4.604
  Name = 
  3 active torsions:
  status: ('A' for Active; 'I' for Inactive)
    1  A    between atoms: C_2  and  C_25
    2  A    between atoms: C_3  and  C_6
    3  A    between atoms: C_13  and  C_24
                            x       y       z     vdW  Elec       q    Type
                         _______ _______ _______ _____ _____    ______ ____

>  <TORSDO>
F 3

$$$$
=
 OpenBabel11052412543D

 25 28  0  0  1  0  0  0  0  0999 V2000
  187.3770  178.6670  141.1070 C   0  0  2  0  0  3  0  0  0  0  0  0
  188.3190  177.4510  141.1440 C   0  0  1  0  0  3  0  0  0  0  0  0
  187.5690  178.6120  138.6680 N   0  0  0  0  0  0  0  0  0  0  0  0
  186.0850  178.5010  141.8300 C   0  0  0  0  0  0  0  0  0  0  0  0
  183.4780  178.4800  142.7890 C   0  0  0  0  0  3  0  0  0  0  0  0
  188.8810  178.0430  138.8010 C   0  0  0  0  0  3  0  0  0  0  0  0
  185.0300  178.7840  140.9820 C   0  0  0  0  0  0  0  0  0  0  0  0
  183.7120  178.7710  141.4360 C   0  0  0  0  0  3  0  0  0  0  0  0
  184.5530  178.2160  143.6580 C   0  0  0  0  0  3  0  0  0  0  0  0
  186.8550  178.8760  139.7170 C   0  0  0  0  0  0  0  0  0  0  0  0
  185.4420  179.0500  139.6500 N   0  0  0  0  0  2  0  0  0  0  0  0
  185.8730  178.2350  143.1830 C   0  0  0  0  0  3  0  0  0  0  0  0
  189.2940  177.4980  139.9610 C   0  0  0  0  0  0  0  0  0  0  0  0
  189.0030  177.3890  142.4810 C   0  0  0  0  0  0  0  0  0  0  0  0
  190.2210  178.4440  144.2950 C   0  0  0  0  0  3  0  0  0  0  0  0
  189.0300  176.1760  143.1760 C   0  0  0  0  0  3  0  0  0  0  0  0
  189.6520  176.0960  144.4250 C   0  0  0  0  0  3  0  0  0  0  0  0
  189.5990  178.5260  143.0460 C   0  0  0  0  0  3  0  0  0  0  0  0
  190.2530  177.2290  144.9920 C   0  0  0  0  0  0  0  0  0  0  0  0
  190.9090  177.1500  146.3070 C   0  0  0  0  0  0  0  0  0  0  0  0
  190.1940  177.4300  147.4660 O   0  0  0  0  0  1  0  0  0  0  0  0
  192.1240  176.8260  146.3950 O   0  0  0  0  0  0  0  0  0  0  0  0
  190.6050  176.8050  139.9770 C   0  0  0  0  0  0  0  0  0  0  0  0
  190.7370  175.6650  139.4590 O   0  0  0  0  0  0  0  0  0  0  0  0
  191.7430  177.4330  140.5610 N   0  0  0  0  0  1  0  0  0  0  0  0
  1 10  1  6  0  0  0
  1  2  1  0  0  0  0
  1  4  1  0  0  0  0
  2 14  1  1  0  0  0
  3  6  1  0  0  0  0
  3 10  2  0  0  0  0
  4 12  1  0  0  0  0
  5  9  1  0  0  0  0
  6 13  2  0  0  0  0
  7  8  1  0  0  0  0
  7  4  2  0  0  0  0
  8  5  2  0  0  0  0
 11 10  1  0  0  0  0
 11  7  1  0  0  0  0
 12  9  2  0  0  0  0
 13 23  1  0  0  0  0
 13  2  1  0  0  0  0
 14 18  2  0  0  0  0
 14 16  1  0  0  0  0
 15 19  2  0  0  0  0
 16 17  2  0  0  0  0
 17 19  1  0  0  0  0
 18 15  1  0  0  0  0
 19 20  1  0  0  0  0
 20 22  2  0  0  0  0
 20 21  1  0  0  0  0
 23 25  1  0  0  0  0
 24 23  2  0  0  0  0
M  END
>  <MODEL>
4

>  <REMARK>
 VINA RESULT:      -8.3      2.914      5.356
  Name = 
  3 active torsions:
  status: ('A' for Active; 'I' for Inactive)
    1  A    between atoms: C_2  and  C_25
    2  A    between atoms: C_3  and  C_6
    3  A    between atoms: C_13  and  C_24
                            x       y       z     vdW  Elec       q    Type
                         _______ _______ _______ _____ _____    ______ ____

>  <TORSDO>
F 3

$$$$
=
 OpenBabel11052412543D

 25 28  0  0  1  0  0  0  0  0999 V2000
  187.8690  178.4180  141.3620 C   0  0  2  0  0  3  0  0  0  0  0  0
  188.3660  177.1880  142.1410 C   0  0  1  0  0  3  0  0  0  0  0  0
  189.3040  177.7000  139.5150 N   0  0  0  0  0  0  0  0  0  0  0  0
  186.3890  178.5500  141.2450 C   0  0  0  0  0  0  0  0  0  0  0  0
  183.7340  178.9840  140.5510 C   0  0  0  0  0  3  0  0  0  0  0  0
  190.1920  177.0890  140.4650 C   0  0  0  0  0  3  0  0  0  0  0  0
  186.0300  178.6750  139.9160 C   0  0  0  0  0  0  0  0  0  0  0  0
  184.7040  178.8850  139.5400 C   0  0  0  0  0  3  0  0  0  0  0  0
  184.1030  178.8800  141.9050 C   0  0  0  0  0  3  0  0  0  0  0  0
  188.2190  178.2880  139.9100 C   0  0  0  0  0  0  0  0  0  0  0  0
  187.1290  178.5450  139.0270 N   0  0  0  0  0  2  0  0  0  0  0  0
  185.4430  178.6710  142.2640 C   0  0  0  0  0  3  0  0  0  0  0  0
  189.8020  176.8430  141.7300 C   0  0  0  0  0  0  0  0  0  0  0  0
  188.2070  177.4330  143.6160 C   0  0  0  0  0  0  0  0  0  0  0  0
  186.9510  177.2210  145.6810 C   0  0  0  0  0  3  0  0  0  0  0  0
  189.2210  178.1030  144.3080 C   0  0  0  0  0  3  0  0  0  0  0  0
  189.1010  178.3340  145.6810 C   0  0  0  0  0  3  0  0  0  0  0  0
  187.0710  176.9890  144.3080 C   0  0  0  0  0  3  0  0  0  0  0  0
  187.9640  177.8960  146.3760 C   0  0  0  0  0  0  0  0  0  0  0  0
  187.8320  178.1370  147.8220 C   0  0  0  0  0  0  0  0  0  0  0  0
  186.8150  178.9520  148.3070 O   0  0  0  0  0  0  0  0  0  0  0  0
  188.6380  177.6080  148.6330 O   0  0  0  0  0  1  0  0  0  0  0  0
  190.7240  176.0810  142.6070 C   0  0  0  0  0  0  0  0  0  0  0  0
  190.4280  174.9220  143.0000 O   0  0  0  0  0  0  0  0  0  0  0  0
  191.9730  176.6450  142.9990 N   0  0  0  0  0  1  0  0  0  0  0  0
  1 10  1  6  0  0  0
  1  2  1  0  0  0  0
  2 14  1  1  0  0  0
  3 10  2  0  0  0  0
  3  6  1  0  0  0  0
  4  1  1  0  0  0  0
  4 12  1  0  0  0  0
  5  9  1  0  0  0  0
  6 13  2  0  0  0  0
  7  4  2  0  0  0  0
  8  7  1  0  0  0  0
  8  5  2  0  0  0  0
  9 12  2  0  0  0  0
 11 10  1  0  0  0  0
 11  7  1  0  0  0  0
 13  2  1  0  0  0  0
 13 23  1  0  0  0  0
 14 16  2  0  0  0  0
 14 18  1  0  0  0  0
 15 19  1  0  0  0  0
 16 17  1  0  0  0  0
 17 19  2  0  0  0  0
 18 15  2  0  0  0  0
 19 20  1  0  0  0  0
 20 21  2  0  0  0  0
 20 22  1  0  0  0  0
 23 25  1  0  0  0  0
 23 24  2  0  0  0  0
M  END
>  <MODEL>
5

>  <REMARK>
 VINA RESULT:      -8.2      3.205      5.567
  Name = 
  3 active torsions:
  status: ('A' for Active; 'I' for Inactive)
    1  A    between atoms: C_2  and  C_25
    2  A    between atoms: C_3  and  C_6
    3  A    between atoms: C_13  and  C_24
                            x       y       z     vdW  Elec       q    Type
                         _______ _______ _______ _____ _____    ______ ____

>  <TORSDO>
F 3

$$$$
=
 OpenBabel11052412543D

 25 28  0  0  1  0  0  0  0  0999 V2000
  187.2630  177.2770  143.8830 C   0  0  2  0  0  3  0  0  0  0  0  0
  186.8120  178.4230  142.9620 C   0  0  1  0  0  3  0  0  0  0  0  0
  189.1810  176.9720  142.3940 N   0  0  0  0  0  0  0  0  0  0  0  0
  187.3930  177.6250  145.3260 C   0  0  0  0  0  0  0  0  0  0  0  0
  188.0450  177.9480  148.0070 C   0  0  0  0  0  3  0  0  0  0  0  0
  188.3910  177.4700  141.3030 C   0  0  0  0  0  3  0  0  0  0  0  0
  188.6560  177.2920  145.7790 C   0  0  0  0  0  0  0  0  0  0  0  0
  189.0120  177.4520  147.1170 C   0  0  0  0  0  3  0  0  0  0  0  0
  186.7510  178.2640  147.5510 C   0  0  0  0  0  3  0  0  0  0  0  0
  188.6850  176.9050  143.5910 C   0  0  0  0  0  0  0  0  0  0  0  0
  189.5090  176.8130  144.7510 N   0  0  0  0  0  2  0  0  0  0  0  0
  186.4120  178.0940  146.2000 C   0  0  0  0  0  3  0  0  0  0  0  0
  187.2480  178.1470  141.5170 C   0  0  0  0  0  0  0  0  0  0  0  0
  185.3310  178.6320  143.1110 C   0  0  0  0  0  0  0  0  0  0  0  0
  183.4370  179.7920  144.0890 C   0  0  0  0  0  3  0  0  0  0  0  0
  184.4530  177.8420  142.3630 C   0  0  0  0  0  3  0  0  0  0  0  0
  183.0720  178.0240  142.4770 C   0  0  0  0  0  3  0  0  0  0  0  0
  184.8180  179.6120  143.9740 C   0  0  0  0  0  3  0  0  0  0  0  0
  182.5550  178.9990  143.3420 C   0  0  0  0  0  0  0  0  0  0  0  0
  181.1020  179.1940  143.4670 C   0  0  0  0  0  0  0  0  0  0  0  0
  180.4880  180.2910  142.8720 O   0  0  0  0  0  0  0  0  0  0  0  0
  180.4000  178.3700  144.1130 O   0  0  0  0  0  1  0  0  0  0  0  0
  186.5660  178.7520  140.3480 C   0  0  0  0  0  0  0  0  0  0  0  0
  185.6780  179.6300  140.5030 O   0  0  0  0  0  0  0  0  0  0  0  0
  186.9270  178.3620  139.0250 N   0  0  0  0  0  1  0  0  0  0  0  0
  1 10  1  6  0  0  0
  1  4  1  0  0  0  0
  2 14  1  6  0  0  0
  2  1  1  0  0  0  0
  3 10  2  0  0  0  0
  4  7  2  0  0  0  0
  4 12  1  0  0  0  0
  6 13  2  0  0  0  0
  6  3  1  0  0  0  0
  7  8  1  0  0  0  0
  8  5  2  0  0  0  0
  9  5  1  0  0  0  0
 10 11  1  0  0  0  0
 11  7  1  0  0  0  0
 12  9  2  0  0  0  0
 13  2  1  0  0  0  0
 14 18  1  0  0  0  0
 16 17  1  0  0  0  0
 16 14  2  0  0  0  0
 17 19  2  0  0  0  0
 18 15  2  0  0  0  0
 19 20  1  0  0  0  0
 19 15  1  0  0  0  0
 20 22  1  0  0  0  0
 21 20  2  0  0  0  0
 23 24  2  0  0  0  0
 23 13  1  0  0  0  0
 25 23  1  0  0  0  0
M  END
>  <MODEL>
6

>  <REMARK>
 VINA RESULT:      -8.0      3.961      6.400
  Name = 
  3 active torsions:
  status: ('A' for Active; 'I' for Inactive)
    1  A    between atoms: C_2  and  C_25
    2  A    between atoms: C_3  and  C_6
    3  A    between atoms: C_13  and  C_24
                            x       y       z     vdW  Elec       q    Type
                         _______ _______ _______ _____ _____    ______ ____

>  <TORSDO>
F 3

$$$$
=
 OpenBabel11052412543D

 25 28  0  0  1  0  0  0  0  0999 V2000
  188.7130  178.0470  145.6690 C   0  0  2  0  0  3  0  0  0  0  0  0
  187.6340  177.4960  144.7200 C   0  0  1  0  0  3  0  0  0  0  0  0
  186.9430  178.3680  147.3280 N   0  0  0  0  0  0  0  0  0  0  0  0
  189.8900  177.1610  145.8880 C   0  0  0  0  0  0  0  0  0  0  0  0
  192.0710  175.6940  146.7860 C   0  0  0  0  0  3  0  0  0  0  0  0
  185.9980  178.5460  146.2610 C   0  0  0  0  0  3  0  0  0  0  0  0
  190.0760  176.9510  147.2420 C   0  0  0  0  0  0  0  0  0  0  0  0
  191.1570  176.2110  147.7190 C   0  0  0  0  0  3  0  0  0  0  0  0
  191.8950  175.9280  145.4100 C   0  0  0  0  0  3  0  0  0  0  0  0
  188.1870  178.1090  147.0710 C   0  0  0  0  0  0  0  0  0  0  0  0
  189.0600  177.5360  148.0420 N   0  0  0  0  0  2  0  0  0  0  0  0
  190.8020  176.6770  144.9490 C   0  0  0  0  0  3  0  0  0  0  0  0
  186.2850  178.1680  145.0010 C   0  0  0  0  0  0  0  0  0  0  0  0
  188.0940  177.6480  143.2970 C   0  0  0  0  0  0  0  0  0  0  0  0
  188.4660  179.0030  141.3180 C   0  0  0  0  0  3  0  0  0  0  0  0
  188.6130  176.5360  142.6260 C   0  0  0  0  0  3  0  0  0  0  0  0
  189.0550  176.6550  141.3060 C   0  0  0  0  0  3  0  0  0  0  0  0
  188.0240  178.8850  142.6390 C   0  0  0  0  0  3  0  0  0  0  0  0
  188.9840  177.8890  140.6430 C   0  0  0  0  0  0  0  0  0  0  0  0
  189.4480  178.0200  139.2530 C   0  0  0  0  0  0  0  0  0  0  0  0
  188.9400  179.0230  138.4350 O   0  0  0  0  0  0  0  0  0  0  0  0
  190.3100  177.2250  138.7910 O   0  0  0  0  0  1  0  0  0  0  0  0
  185.2070  178.2530  143.9860 C   0  0  0  0  0  0  0  0  0  0  0  0
  185.2150  177.5030  142.9750 O   0  0  0  0  0  0  0  0  0  0  0  0
  184.1310  179.1710  144.1550 N   0  0  0  0  0  1  0  0  0  0  0  0
  1  4  1  1  0  0  0
  1 10  1  0  0  0  0
  2 14  1  6  0  0  0
  2 13  1  0  0  0  0
  2  1  1  0  0  0  0
  4  7  1  0  0  0  0
  5  8  1  0  0  0  0
  6  3  1  0  0  0  0
  7  8  2  0  0  0  0
  7 11  1  0  0  0  0
  9  5  2  0  0  0  0
 10  3  2  0  0  0  0
 10 11  1  0  0  0  0
 12  9  1  0  0  0  0
 12  4  2  0  0  0  0
 13  6  2  0  0  0  0
 15 18  2  0  0  0  0
 16 14  2  0  0  0  0
 17 16  1  0  0  0  0
 18 14  1  0  0  0  0
 19 17  2  0  0  0  0
 19 15  1  0  0  0  0
 20 19  1  0  0  0  0
 21 20  2  0  0  0  0
 22 20  1  0  0  0  0
 23 25  1  0  0  0  0
 23 13  1  0  0  0  0
 24 23  2  0  0  0  0
M  END
>  <MODEL>
7

>  <REMARK>
 VINA RESULT:      -7.9      1.880      4.656
  Name = 
  3 active torsions:
  status: ('A' for Active; 'I' for Inactive)
    1  A    between atoms: C_2  and  C_25
    2  A    between atoms: C_3  and  C_6
    3  A    between atoms: C_13  and  C_24
                            x       y       z     vdW  Elec       q    Type
                         _______ _______ _______ _____ _____    ______ ____

>  <TORSDO>
F 3

$$$$
=
 OpenBabel11052412543D

 25 28  0  0  1  0  0  0  0  0999 V2000
  189.8350  178.1000  144.2040 C   0  0  2  0  0  3  0  0  0  0  0  0
  188.9150  177.2630  145.1090 C   0  0  1  0  0  3  0  0  0  0  0  0
  191.6800  177.4920  145.6920 N   0  0  0  0  0  0  0  0  0  0  0  0
  189.8030  177.7530  142.7560 C   0  0  0  0  0  0  0  0  0  0  0  0
  190.2540  177.2140  140.0680 C   0  0  0  0  0  3  0  0  0  0  0  0
  190.7460  177.3830  146.7780 C   0  0  0  0  0  3  0  0  0  0  0  0
  191.0830  177.4920  142.3040 C   0  0  0  0  0  0  0  0  0  0  0  0
  191.3360  177.2110  140.9630 C   0  0  0  0  0  3  0  0  0  0  0  0
  188.9540  177.5030  140.5220 C   0  0  0  0  0  3  0  0  0  0  0  0
  191.2720  177.7920  144.4990 C   0  0  0  0  0  0  0  0  0  0  0  0
  192.0560  177.5230  143.3380 N   0  0  0  0  0  2  0  0  0  0  0  0
  188.7200  177.7860  141.8770 C   0  0  0  0  0  3  0  0  0  0  0  0
  189.4210  177.2920  146.5560 C   0  0  0  0  0  0  0  0  0  0  0  0
  187.4970  177.7410  144.9600 C   0  0  0  0  0  0  0  0  0  0  0  0
  185.6000  179.0350  145.7430 C   0  0  0  0  0  3  0  0  0  0  0  0
  186.7530  177.3330  143.8490 C   0  0  0  0  0  3  0  0  0  0  0  0
  185.4370  177.7720  143.6850 C   0  0  0  0  0  3  0  0  0  0  0  0
  186.9170  178.5980  145.9080 C   0  0  0  0  0  3  0  0  0  0  0  0
  184.8510  178.6250  144.6320 C   0  0  0  0  0  0  0  0  0  0  0  0
  183.4650  179.0900  144.4630 C   0  0  0  0  0  0  0  0  0  0  0  0
  182.9170  179.2140  143.1920 O   0  0  0  0  0  0  0  0  0  0  0  0
  182.7620  179.3780  145.4690 O   0  0  0  0  0  1  0  0  0  0  0  0
  188.5360  177.0390  147.7180 C   0  0  0  0  0  0  0  0  0  0  0  0
  187.9540  175.9310  147.8540 O   0  0  0  0  0  0  0  0  0  0  0  0
  188.3510  178.0420  148.7130 N   0  0  0  0  0  1  0  0  0  0  0  0
  1  4  1  6  0  0  0
  1 10  1  0  0  0  0
  1  2  1  0  0  0  0
  2 14  1  1  0  0  0
  2 13  1  0  0  0  0
  3  6  1  0  0  0  0
  5  9  2  0  0  0  0
  5  8  1  0  0  0  0
  7  4  1  0  0  0  0
  7 11  1  0  0  0  0
  8  7  2  0  0  0  0
  9 12  1  0  0  0  0
 10  3  2  0  0  0  0
 11 10  1  0  0  0  0
 12  4  2  0  0  0  0
 13  6  2  0  0  0  0
 13 23  1  0  0  0  0
 14 18  1  0  0  0  0
 15 18  2  0  0  0  0
 16 14  2  0  0  0  0
 17 16  1  0  0  0  0
 17 19  2  0  0  0  0
 19 15  1  0  0  0  0
 20 19  1  0  0  0  0
 20 22  1  0  0  0  0
 21 20  2  0  0  0  0
 23 24  2  0  0  0  0
 23 25  1  0  0  0  0
M  END
>  <MODEL>
8

>  <REMARK>
 VINA RESULT:      -7.7      2.979      5.704
  Name = 
  3 active torsions:
  status: ('A' for Active; 'I' for Inactive)
    1  A    between atoms: C_2  and  C_25
    2  A    between atoms: C_3  and  C_6
    3  A    between atoms: C_13  and  C_24
                            x       y       z     vdW  Elec       q    Type
                         _______ _______ _______ _____ _____    ______ ____

>  <TORSDO>
F 3

$$$$
=
 OpenBabel11052412543D

 25 28  0  0  1  0  0  0  0  0999 V2000
  188.9000  176.8310  143.6210 C   0  0  2  0  0  3  0  0  0  0  0  0
  188.6310  177.8920  142.5400 C   0  0  1  0  0  3  0  0  0  0  0  0
  191.0150  176.3580  142.4850 N   0  0  0  0  0  0  0  0  0  0  0  0
  188.8170  177.3120  145.0290 C   0  0  0  0  0  0  0  0  0  0  0  0
  189.0560  177.8780  147.7390 C   0  0  0  0  0  3  0  0  0  0  0  0
  190.4180  176.7620  141.2430 C   0  0  0  0  0  3  0  0  0  0  0  0
  189.9840  177.0060  145.7030 C   0  0  0  0  0  0  0  0  0  0  0  0
  190.1330  177.2860  147.0600 C   0  0  0  0  0  3  0  0  0  0  0  0
  187.8580  178.1690  147.0590 C   0  0  0  0  0  3  0  0  0  0  0  0
  190.3390  176.4130  143.5900 C   0  0  0  0  0  0  0  0  0  0  0  0
  190.9710  176.4180  144.8680 N   0  0  0  0  0  2  0  0  0  0  0  0
  187.7260  177.8770  145.6930 C   0  0  0  0  0  3  0  0  0  0  0  0
  189.2760  177.4740  141.2130 C   0  0  0  0  0  0  0  0  0  0  0  0
  187.1510  178.1360  142.4360 C   0  0  0  0  0  0  0  0  0  0  0  0
  184.8790  177.7700  143.2050 C   0  0  0  0  0  3  0  0  0  0  0  0
  186.6710  179.0030  141.4500 C   0  0  0  0  0  3  0  0  0  0  0  0
  185.3010  179.2520  141.3390 C   0  0  0  0  0  3  0  0  0  0  0  0
  186.2490  177.5210  143.3170 C   0  0  0  0  0  3  0  0  0  0  0  0
  184.3950  178.6360  142.2160 C   0  0  0  0  0  0  0  0  0  0  0  0
  182.9510  178.8950  142.1030 C   0  0  0  0  0  0  0  0  0  0  0  0
  182.3470  178.9680  140.8530 O   0  0  0  0  0  0  0  0  0  0  0  0
  182.2490  179.0530  143.1370 O   0  0  0  0  0  1  0  0  0  0  0  0
  188.8010  177.9750  139.9010 C   0  0  0  0  0  0  0  0  0  0  0  0
  189.0550  179.1510  139.5300 O   0  0  0  0  0  0  0  0  0  0  0  0
  188.0680  177.1200  139.0280 N   0  0  0  0  0  1  0  0  0  0  0  0
  1 10  1  6  0  0  0
  1  4  1  0  0  0  0
  2 14  1  6  0  0  0
  2  1  1  0  0  0  0
  3 10  2  0  0  0  0
  4 12  2  0  0  0  0
  4  7  1  0  0  0  0
  6  3  1  0  0  0  0
  7  8  2  0  0  0  0
  8  5  1  0  0  0  0
  9  5  2  0  0  0  0
 10 11  1  0  0  0  0
 11  7  1  0  0  0  0
 12  9  1  0  0  0  0
 13  6  2  0  0  0  0
 13  2  1  0  0  0  0
 14 18  1  0  0  0  0
 15 18  2  0  0  0  0
 16 14  2  0  0  0  0
 17 16  1  0  0  0  0
 17 19  2  0  0  0  0
 19 15  1  0  0  0  0
 20 19  1  0  0  0  0
 20 22  1  0  0  0  0
 21 20  2  0  0  0  0
 23 13  1  0  0  0  0
 24 23  2  0  0  0  0
 25 23  1  0  0  0  0
M  END
>  <MODEL>
9

>  <REMARK>
 VINA RESULT:      -7.2      3.224      5.630
  Name = 
  3 active torsions:
  status: ('A' for Active; 'I' for Inactive)
    1  A    between atoms: C_2  and  C_25
    2  A    between atoms: C_3  and  C_6
    3  A    between atoms: C_13  and  C_24
                            x       y       z     vdW  Elec       q    Type
                         _______ _______ _______ _____ _____    ______ ____

>  <TORSDO>
F 3

$$$$
