=
 OpenBabel11052415283D

 37 44  0  0  1  0  0  0  0  0999 V2000
  181.4290  177.2940  137.8750 O   0  0  0  0  0  0  0  0  0  0  0  0
  179.2240  180.2140  142.3270 C   0  0  0  0  0  2  0  0  0  0  0  0
  183.4610  178.6920  141.9850 C   0  0  1  0  0  3  0  0  0  0  0  0
  181.1550  176.0720  137.2190 C   0  0  0  0  0  0  0  0  0  0  0  0
  184.9830  178.9330  138.7300 C   0  0  0  0  0  2  0  0  0  0  0  0
  181.4150  179.4150  143.1860 C   0  0  2  0  0  3  0  0  0  0  0  0
  183.8010  177.8800  140.7560 C   0  0  2  0  0  3  0  0  0  0  0  0
  180.0280  176.1050  136.2180 C   0  0  0  0  0  2  0  0  0  0  0  0
  181.9820  178.4340  142.1600 C   0  0  1  0  0  3  0  0  0  0  0  0
  185.1340  178.3080  140.1180 C   0  0  0  0  0  2  0  0  0  0  0  0
  182.0780  179.0940  144.5280 C   0  0  0  0  0  2  0  0  0  0  0  0
  182.2040  175.1550  136.9420 O   0  0  0  0  0  0  0  0  0  0  0  0
  181.3720  178.3050  140.7610 C   0  0  2  0  0  0  0  0  0  0  0  0
  180.6000  179.5510  140.3080 C   0  0  0  0  0  2  0  0  0  0  0  0
  179.8350  175.4360  137.5770 C   0  0  0  0  0  2  0  0  0  0  0  0
  183.6100  179.1650  144.4280 C   0  0  0  0  0  2  0  0  0  0  0  0
  180.5450  177.1760  140.7300 O   0  0  0  0  0  1  0  0  0  0  0  0
  183.4190  175.8620  136.7660 C   0  0  2  0  0  3  0  0  0  0  0  0
  184.6680  177.9170  137.6250 C   0  0  0  0  0  2  0  0  0  0  0  0
  184.1600  178.2900  143.2860 C   0  0  2  0  0  3  0  0  0  0  0  0
  182.5920  178.1150  139.8450 C   0  0  2  0  0  3  0  0  0  0  0  0
  179.9090  179.2840  143.3170 C   0  0  0  0  0  2  0  0  0  0  0  0
  179.2040  179.6310  140.9200 C   0  0  0  0  0  2  0  0  0  0  0  0
  183.7730  176.7150  138.0060 C   0  0  1  0  0  3  0  0  0  0  0  0
  182.4710  177.0280  138.7740 C   0  0  2  0  0  3  0  0  0  0  0  0
  183.3720  176.6220  135.5900 O   0  0  0  0  0  0  0  0  0  0  0  0
  183.5220  175.7450  134.6200 O   0  0  0  0  0  1  0  0  0  0  0  0
  185.6620  178.4950  143.1870 C   0  0  0  0  0  2  0  0  0  0  0  0
  188.7010  176.8180  144.6030 C   0  0  0  0  0  2  0  0  0  0  0  0
  186.7910  178.3590  145.3830 C   0  0  1  0  0  3  0  0  0  0  0  0
  186.8320  177.4280  146.5920 C   0  0  0  0  0  2  0  0  0  0  0  0
  187.8960  178.0800  148.6140 O   0  0  0  0  0  0  0  0  0  0  0  0
  189.4150  177.5270  146.8990 C   0  0  0  0  0  3  0  0  0  0  0  0
  188.0470  177.6990  147.4250 C   0  0  0  0  0  0  0  0  0  0  0  0
  187.8180  178.0250  144.2920 C   0  0  2  0  0  3  0  0  0  0  0  0
  189.7200  177.1480  145.6530 C   0  0  0  0  0  3  0  0  0  0  0  0
  186.3770  177.5740  144.1550 C   0  0  2  0  0  3  0  0  0  0  0  0
  1 25  1  0  0  0  0
  2 22  1  0  0  0  0
  3  9  1  0  0  0  0
  3 20  1  0  0  0  0
  4 15  1  0  0  0  0
  4  1  1  0  0  0  0
  5 10  1  0  0  0  0
  6 22  1  0  0  0  0
  6 11  1  0  0  0  0
  7  3  1  0  0  0  0
  8  4  1  0  0  0  0
  8 15  1  0  0  0  0
  9  6  1  0  0  0  0
 10  7  1  0  0  0  0
 12  4  1  0  0  0  0
 13  9  1  0  0  0  0
 14 13  1  0  0  0  0
 14 23  1  0  0  0  0
 16 11  1  0  0  0  0
 17 13  1  0  0  0  0
 18 12  1  0  0  0  0
 18 24  1  0  0  0  0
 19 24  1  0  0  0  0
 19  5  1  0  0  0  0
 20 16  1  0  0  0  0
 21  7  1  0  0  0  0
 21 13  1  0  0  0  0
 23  2  1  0  0  0  0
 24 25  1  0  0  0  0
 25 21  1  0  0  0  0
 26 18  1  0  0  0  0
 27 26  1  0  0  0  0
 28 20  1  0  0  0  0
 28 37  1  0  0  0  0
 29 36  1  0  0  0  0
 30 31  1  0  0  0  0
 31 34  1  0  0  0  0
 33 34  1  0  0  0  0
 34 32  2  0  0  0  0
 35 29  1  0  0  0  0
 35 30  1  0  0  0  0
 36 33  2  0  0  0  0
 37 35  1  0  0  0  0
 37 30  1  0  0  0  0
M  END
>  <MODEL>
1

>  <REMARK>
 VINA RESULT:      -9.4      0.000      0.000
  Name = 
  3 active torsions:
  status: ('A' for Active; 'I' for Inactive)
    1  A    between atoms: O_11  and  C_26
    2  A    between atoms: C_22  and  C_28
    3  A    between atoms: C_22  and  C_37
                            x       y       z     vdW  Elec       q    Type
                         _______ _______ _______ _____ _____    ______ ____

>  <TORSDO>
F 3

$$$$
=
 OpenBabel11052415283D

 37 44  0  0  1  0  0  0  0  0999 V2000
  191.8500  175.9200  136.5940 O   0  0  0  0  0  0  0  0  0  0  0  0
  186.9190  178.9000  136.6570 C   0  0  0  0  0  2  0  0  0  0  0  0
  189.3610  177.7310  140.2680 C   0  0  1  0  0  3  0  0  0  0  0  0
  192.2650  174.6420  136.1550 C   0  0  0  0  0  0  0  0  0  0  0  0
  192.9390  177.9070  139.8980 C   0  0  0  0  0  2  0  0  0  0  0  0
  187.2910  178.3460  139.0500 C   0  0  2  0  0  3  0  0  0  0  0  0
  190.5860  176.8800  140.0220 C   0  0  2  0  0  3  0  0  0  0  0  0
  192.5510  174.5180  134.6810 C   0  0  0  0  0  2  0  0  0  0  0  0
  188.4550  177.3580  139.1180 C   0  0  1  0  0  3  0  0  0  0  0  0
  191.8180  177.3820  140.7950 C   0  0  0  0  0  2  0  0  0  0  0  0
  186.4710  178.1640  140.3310 C   0  0  0  0  0  2  0  0  0  0  0  0
  193.0320  173.8040  137.0090 O   0  0  0  0  0  0  0  0  0  0  0  0
  189.3460  177.0930  137.9010 C   0  0  2  0  0  0  0  0  0  0  0  0
  189.3520  178.2380  136.8810 C   0  0  0  0  0  2  0  0  0  0  0  0
  191.2790  173.9170  135.2740 C   0  0  0  0  0  2  0  0  0  0  0  0
  187.3400  178.3610  141.5840 C   0  0  0  0  0  2  0  0  0  0  0  0
  188.9420  175.8970  137.2960 O   0  0  0  0  0  1  0  0  0  0  0  0
  193.8080  174.6010  137.8860 C   0  0  2  0  0  3  0  0  0  0  0  0
  193.7210  176.8030  139.1750 C   0  0  0  0  0  2  0  0  0  0  0  0
  188.5950  177.4690  141.5680 C   0  0  2  0  0  3  0  0  0  0  0  0
  190.7550  176.9540  138.5020 C   0  0  2  0  0  3  0  0  0  0  0  0
  186.4090  178.0940  137.8410 C   0  0  0  0  0  2  0  0  0  0  0  0
  188.1140  178.2350  135.9870 C   0  0  0  0  0  2  0  0  0  0  0  0
  192.9280  175.5540  138.7270 C   0  0  1  0  0  3  0  0  0  0  0  0
  191.6060  175.7990  137.9700 C   0  0  2  0  0  3  0  0  0  0  0  0
  194.8010  175.2830  137.1700 O   0  0  0  0  0  0  0  0  0  0  0  0
  195.9350  174.8400  137.6720 O   0  0  0  0  0  1  0  0  0  0  0  0
  189.4480  177.7970  142.7810 C   0  0  0  0  0  2  0  0  0  0  0  0
  189.3910  176.9750  146.4390 C   0  0  0  0  0  2  0  0  0  0  0  0
  187.9530  178.2210  144.7050 C   0  0  1  0  0  3  0  0  0  0  0  0
  186.8280  177.5150  145.4580 C   0  0  0  0  0  2  0  0  0  0  0  0
  185.5070  178.6640  147.0630 O   0  0  0  0  0  0  0  0  0  0  0  0
  187.6750  178.1540  147.8340 C   0  0  0  0  0  3  0  0  0  0  0  0
  186.6200  178.1390  146.8020 C   0  0  0  0  0  0  0  0  0  0  0  0
  189.3590  177.9270  145.2450 C   0  0  2  0  0  3  0  0  0  0  0  0
  188.9060  177.6520  147.6860 C   0  0  0  0  0  3  0  0  0  0  0  0
  188.8330  177.1910  144.0270 C   0  0  2  0  0  3  0  0  0  0  0  0
  1 25  1  0  0  0  0
  2 22  1  0  0  0  0
  3 20  1  0  0  0  0
  4  1  1  0  0  0  0
  4 12  1  0  0  0  0
  5 10  1  0  0  0  0
  6  9  1  0  0  0  0
  6 11  1  0  0  0  0
  7  3  1  0  0  0  0
  7 10  1  0  0  0  0
  8 15  1  0  0  0  0
  8  4  1  0  0  0  0
  9  3  1  0  0  0  0
 11 16  1  0  0  0  0
 12 18  1  0  0  0  0
 13 21  1  0  0  0  0
 13  9  1  0  0  0  0
 14 13  1  0  0  0  0
 15  4  1  0  0  0  0
 17 13  1  0  0  0  0
 18 24  1  0  0  0  0
 19  5  1  0  0  0  0
 20 16  1  0  0  0  0
 20 28  1  0  0  0  0
 21  7  1  0  0  0  0
 22  6  1  0  0  0  0
 23  2  1  0  0  0  0
 23 14  1  0  0  0  0
 24 19  1  0  0  0  0
 25 21  1  0  0  0  0
 25 24  1  0  0  0  0
 26 27  1  0  0  0  0
 26 18  1  0  0  0  0
 28 37  1  0  0  0  0
 29 36  1  0  0  0  0
 30 35  1  0  0  0  0
 30 31  1  0  0  0  0
 31 34  1  0  0  0  0
 34 32  2  0  0  0  0
 34 33  1  0  0  0  0
 35 29  1  0  0  0  0
 36 33  2  0  0  0  0
 37 30  1  0  0  0  0
 37 35  1  0  0  0  0
M  END
>  <MODEL>
2

>  <REMARK>
 VINA RESULT:      -9.2      5.762      7.975
  Name = 
  3 active torsions:
  status: ('A' for Active; 'I' for Inactive)
    1  A    between atoms: O_11  and  C_26
    2  A    between atoms: C_22  and  C_28
    3  A    between atoms: C_22  and  C_37
                            x       y       z     vdW  Elec       q    Type
                         _______ _______ _______ _____ _____    ______ ____

>  <TORSDO>
F 3

$$$$
=
 OpenBabel11052415283D

 37 44  0  0  1  0  0  0  0  0999 V2000
  182.1150  177.9700  137.5000 O   0  0  0  0  0  0  0  0  0  0  0  0
  185.7780  173.8210  135.8960 C   0  0  0  0  0  2  0  0  0  0  0  0
  186.7500  177.3420  138.5480 C   0  0  1  0  0  3  0  0  0  0  0  0
  181.3250  178.9430  136.8460 C   0  0  0  0  0  0  0  0  0  0  0  0
  184.2040  178.3170  140.9020 C   0  0  0  0  0  2  0  0  0  0  0  0
  187.2550  175.5270  136.9360 C   0  0  2  0  0  3  0  0  0  0  0  0
  185.6500  178.3530  138.7760 C   0  0  2  0  0  3  0  0  0  0  0  0
  180.0130  178.4530  136.2880 C   0  0  0  0  0  2  0  0  0  0  0  0
  186.4090  176.7750  137.1890 C   0  0  1  0  0  3  0  0  0  0  0  0
  185.5180  178.7570  140.2550 C   0  0  0  0  0  2  0  0  0  0  0  0
  188.7160  175.9800  136.8680 C   0  0  0  0  0  2  0  0  0  0  0  0
  181.3470  180.2960  137.2790 O   0  0  0  0  0  0  0  0  0  0  0  0
  184.8820  176.7370  137.0800 C   0  0  2  0  0  0  0  0  0  0  0  0
  184.2850  175.3370  137.2690 C   0  0  0  0  0  2  0  0  0  0  0  0
  181.1840  178.7560  135.3560 C   0  0  0  0  0  2  0  0  0  0  0  0
  189.1310  176.7250  138.1470 C   0  0  0  0  0  2  0  0  0  0  0  0
  184.5050  177.2700  135.8420 O   0  0  0  0  0  1  0  0  0  0  0  0
  181.6310  180.3470  138.6660 C   0  0  2  0  0  3  0  0  0  0  0  0
  182.9900  179.1480  140.4640 C   0  0  0  0  0  2  0  0  0  0  0  0
  188.1790  177.8880  138.4800 C   0  0  2  0  0  3  0  0  0  0  0  0
  184.4090  177.6400  138.2320 C   0  0  2  0  0  3  0  0  0  0  0  0
  186.8730  174.8430  135.6370 C   0  0  0  0  0  2  0  0  0  0  0  0
  184.4060  174.4730  136.0160 C   0  0  0  0  0  2  0  0  0  0  0  0
  182.9720  179.6580  139.0050 C   0  0  1  0  0  3  0  0  0  0  0  0
  183.2880  178.6270  137.9000 C   0  0  2  0  0  3  0  0  0  0  0  0
  180.5590  179.8200  139.3990 O   0  0  0  0  0  0  0  0  0  0  0  0
  179.9640  180.8710  139.9230 O   0  0  0  0  0  1  0  0  0  0  0  0
  188.5940  178.5020  139.8050 C   0  0  0  0  0  2  0  0  0  0  0  0
  190.3550  176.3630  142.3300 C   0  0  0  0  0  2  0  0  0  0  0  0
  188.4350  178.0740  142.2360 C   0  0  1  0  0  3  0  0  0  0  0  0
  187.7860  177.0650  143.1800 C   0  0  0  0  0  2  0  0  0  0  0  0
  187.7160  177.4370  145.5250 O   0  0  0  0  0  0  0  0  0  0  0  0
  189.8510  176.8170  144.7430 C   0  0  0  0  0  3  0  0  0  0  0  0
  188.4230  177.1230  144.5330 C   0  0  0  0  0  0  0  0  0  0  0  0
  189.8460  177.6900  141.7720 C   0  0  2  0  0  3  0  0  0  0  0  0
  190.7190  176.4890  143.7800 C   0  0  0  0  0  3  0  0  0  0  0  0
  188.6470  177.4340  140.8790 C   0  0  2  0  0  3  0  0  0  0  0  0
  1 25  1  0  0  0  0
  2 23  1  0  0  0  0
  3  7  1  0  0  0  0
  4 12  1  0  0  0  0
  4  1  1  0  0  0  0
  6  9  1  0  0  0  0
  7 10  1  0  0  0  0
  8  4  1  0  0  0  0
  9  3  1  0  0  0  0
 10  5  1  0  0  0  0
 11  6  1  0  0  0  0
 11 16  1  0  0  0  0
 12 18  1  0  0  0  0
 13  9  1  0  0  0  0
 13 14  1  0  0  0  0
 13 21  1  0  0  0  0
 15  8  1  0  0  0  0
 15  4  1  0  0  0  0
 16 20  1  0  0  0  0
 17 13  1  0  0  0  0
 18 24  1  0  0  0  0
 18 26  1  0  0  0  0
 19  5  1  0  0  0  0
 20  3  1  0  0  0  0
 20 28  1  0  0  0  0
 21  7  1  0  0  0  0
 22  2  1  0  0  0  0
 22  6  1  0  0  0  0
 23 14  1  0  0  0  0
 24 19  1  0  0  0  0
 25 21  1  0  0  0  0
 25 24  1  0  0  0  0
 26 27  1  0  0  0  0
 28 37  1  0  0  0  0
 29 36  1  0  0  0  0
 30 31  1  0  0  0  0
 31 34  1  0  0  0  0
 34 33  1  0  0  0  0
 34 32  2  0  0  0  0
 35 30  1  0  0  0  0
 35 29  1  0  0  0  0
 36 33  2  0  0  0  0
 37 35  1  0  0  0  0
 37 30  1  0  0  0  0
M  END
>  <MODEL>
3

>  <REMARK>
 VINA RESULT:      -8.4      2.578      5.619
  Name = 
  3 active torsions:
  status: ('A' for Active; 'I' for Inactive)
    1  A    between atoms: O_11  and  C_26
    2  A    between atoms: C_22  and  C_28
    3  A    between atoms: C_22  and  C_37
                            x       y       z     vdW  Elec       q    Type
                         _______ _______ _______ _____ _____    ______ ____

>  <TORSDO>
F 3

$$$$
=
 OpenBabel11052415283D

 37 44  0  0  1  0  0  0  0  0999 V2000
  186.2500  177.2050  136.7000 O   0  0  0  0  0  0  0  0  0  0  0  0
  182.1030  179.6810  139.8430 C   0  0  0  0  0  2  0  0  0  0  0  0
  186.2300  178.5690  141.2950 C   0  0  1  0  0  3  0  0  0  0  0  0
  186.4020  175.9980  135.9790 C   0  0  0  0  0  0  0  0  0  0  0  0
  188.9350  179.1130  138.9810 C   0  0  0  0  0  2  0  0  0  0  0  0
  183.8080  179.0410  141.5340 C   0  0  2  0  0  3  0  0  0  0  0  0
  187.1330  177.8550  140.3150 C   0  0  2  0  0  3  0  0  0  0  0  0
  185.7970  175.9810  134.5990 C   0  0  0  0  0  2  0  0  0  0  0  0
  184.8480  178.1690  140.8320 C   0  0  1  0  0  3  0  0  0  0  0  0
  188.5590  178.4340  140.2980 C   0  0  0  0  0  2  0  0  0  0  0  0
  183.8810  178.7130  143.0280 C   0  0  0  0  0  2  0  0  0  0  0  0
  187.5600  175.1960  136.1590 O   0  0  0  0  0  0  0  0  0  0  0  0
  184.8930  178.0580  139.3050 C   0  0  2  0  0  0  0  0  0  0  0  0
  184.2550  179.2500  138.5800 C   0  0  0  0  0  2  0  0  0  0  0  0
  185.1260  175.2280  135.7460 C   0  0  0  0  0  2  0  0  0  0  0  0
  185.2990  178.9270  143.5800 C   0  0  0  0  0  2  0  0  0  0  0  0
  184.2750  176.8610  138.9210 O   0  0  0  0  0  1  0  0  0  0  0  0
  188.6580  176.0170  136.5160 C   0  0  2  0  0  3  0  0  0  0  0  0
  189.2150  178.1300  137.8360 C   0  0  0  0  0  2  0  0  0  0  0  0
  186.3620  178.1650  142.7660 C   0  0  2  0  0  3  0  0  0  0  0  0
  186.3960  178.0250  138.9830 C   0  0  2  0  0  3  0  0  0  0  0  0
  182.4060  178.7690  141.0210 C   0  0  0  0  0  2  0  0  0  0  0  0
  182.7300  179.1720  138.5520 C   0  0  0  0  0  2  0  0  0  0  0  0
  188.3730  176.8340  137.7970 C   0  0  1  0  0  3  0  0  0  0  0  0
  186.8450  176.9880  137.9510 C   0  0  2  0  0  3  0  0  0  0  0  0
  189.0260  176.8290  135.4340 O   0  0  0  0  0  0  0  0  0  0  0  0
  190.1930  176.3590  135.0470 O   0  0  0  0  0  1  0  0  0  0  0  0
  187.7390  178.5100  143.3070 C   0  0  0  0  0  2  0  0  0  0  0  0
  190.2230  176.5300  145.2970 C   0  0  0  0  0  2  0  0  0  0  0  0
  188.3590  178.2620  145.6880 C   0  0  1  0  0  3  0  0  0  0  0  0
  188.0490  177.3340  146.8610 C   0  0  0  0  0  2  0  0  0  0  0  0
  188.7220  177.8760  149.0730 O   0  0  0  0  0  0  0  0  0  0  0  0
  190.5050  177.1660  147.7050 C   0  0  0  0  0  3  0  0  0  0  0  0
  189.0810  177.4790  147.9350 C   0  0  0  0  0  0  0  0  0  0  0  0
  189.5540  177.8210  144.8320 C   0  0  2  0  0  3  0  0  0  0  0  0
  191.0260  176.7540  146.5440 C   0  0  0  0  0  3  0  0  0  0  0  0
  188.1360  177.5220  144.3850 C   0  0  2  0  0  3  0  0  0  0  0  0
  1 25  1  0  0  0  0
  2 22  1  0  0  0  0
  3 20  1  0  0  0  0
  4 12  1  0  0  0  0
  4  1  1  0  0  0  0
  5 10  1  0  0  0  0
  6 11  1  0  0  0  0
  7  3  1  0  0  0  0
  8 15  1  0  0  0  0
  8  4  1  0  0  0  0
  9  3  1  0  0  0  0
  9  6  1  0  0  0  0
 10  7  1  0  0  0  0
 11 16  1  0  0  0  0
 12 18  1  0  0  0  0
 13  9  1  0  0  0  0
 14 13  1  0  0  0  0
 15  4  1  0  0  0  0
 17 13  1  0  0  0  0
 18 24  1  0  0  0  0
 19  5  1  0  0  0  0
 20 28  1  0  0  0  0
 20 16  1  0  0  0  0
 21 13  1  0  0  0  0
 21  7  1  0  0  0  0
 22  6  1  0  0  0  0
 23 14  1  0  0  0  0
 23  2  1  0  0  0  0
 24 19  1  0  0  0  0
 24 25  1  0  0  0  0
 25 21  1  0  0  0  0
 26 18  1  0  0  0  0
 27 26  1  0  0  0  0
 28 37  1  0  0  0  0
 29 36  1  0  0  0  0
 30 31  1  0  0  0  0
 31 34  1  0  0  0  0
 33 34  1  0  0  0  0
 34 32  2  0  0  0  0
 35 29  1  0  0  0  0
 35 30  1  0  0  0  0
 36 33  2  0  0  0  0
 37 35  1  0  0  0  0
 37 30  1  0  0  0  0
M  END
>  <MODEL>
4

>  <REMARK>
 VINA RESULT:      -7.6      2.657      3.784
  Name = 
  3 active torsions:
  status: ('A' for Active; 'I' for Inactive)
    1  A    between atoms: O_11  and  C_26
    2  A    between atoms: C_22  and  C_28
    3  A    between atoms: C_22  and  C_37
                            x       y       z     vdW  Elec       q    Type
                         _______ _______ _______ _____ _____    ______ ____

>  <TORSDO>
F 3

$$$$
=
 OpenBabel11052415283D

 37 44  0  0  1  0  0  0  0  0999 V2000
  189.2370  176.8890  146.3570 O   0  0  0  0  0  0  0  0  0  0  0  0
  185.3070  177.8340  142.2490 C   0  0  0  0  0  2  0  0  0  0  0  0
  189.7420  177.2870  141.6070 C   0  0  1  0  0  3  0  0  0  0  0  0
  189.6960  177.5720  147.5070 C   0  0  0  0  0  0  0  0  0  0  0  0
  191.3580  174.8130  143.6660 C   0  0  0  0  0  2  0  0  0  0  0  0
  187.4700  178.1130  141.0580 C   0  0  2  0  0  3  0  0  0  0  0  0
  190.5990  177.1270  142.8420 C   0  0  2  0  0  3  0  0  0  0  0  0
  188.8450  177.4170  148.7420 C   0  0  0  0  0  2  0  0  0  0  0  0
  188.5790  178.1110  142.1090 C   0  0  1  0  0  3  0  0  0  0  0  0
  191.6150  175.9780  142.7100 C   0  0  0  0  0  2  0  0  0  0  0  0
  188.0200  178.8380  139.8260 C   0  0  0  0  0  2  0  0  0  0  0  0
  191.0880  177.7460  147.7310 O   0  0  0  0  0  0  0  0  0  0  0  0
  188.3040  177.6810  143.5540 C   0  0  2  0  0  0  0  0  0  0  0  0
  187.0840  176.7650  143.7030 C   0  0  0  0  0  2  0  0  0  0  0  0
  188.8320  178.7250  147.9530 C   0  0  0  0  0  2  0  0  0  0  0  0
  189.3130  178.1780  139.3190 C   0  0  0  0  0  2  0  0  0  0  0  0
  188.1610  178.8260  144.3460 O   0  0  0  0  0  1  0  0  0  0  0  0
  191.8020  176.6740  147.1410 C   0  0  2  0  0  3  0  0  0  0  0  0
  191.7380  175.1130  145.1220 C   0  0  0  0  0  2  0  0  0  0  0  0
  190.3700  178.0380  140.4300 C   0  0  2  0  0  3  0  0  0  0  0  0
  189.5670  176.8970  143.9490 C   0  0  2  0  0  3  0  0  0  0  0  0
  186.2260  178.8260  141.5540 C   0  0  0  0  0  2  0  0  0  0  0  0
  185.7650  177.5340  143.6710 C   0  0  0  0  0  2  0  0  0  0  0  0
  191.5180  176.5570  145.6260 C   0  0  1  0  0  3  0  0  0  0  0  0
  190.1450  177.1980  145.3340 C   0  0  2  0  0  3  0  0  0  0  0  0
  191.5390  175.4810  147.8280 O   0  0  0  0  0  0  0  0  0  0  0  0
  192.6160  175.2710  148.5560 O   0  0  0  0  0  1  0  0  0  0  0  0
  191.5690  177.2860  139.8780 C   0  0  0  0  0  2  0  0  0  0  0  0
  192.5460  175.8120  136.5720 C   0  0  0  0  0  2  0  0  0  0  0  0
  190.8360  175.4030  138.4520 C   0  0  1  0  0  3  0  0  0  0  0  0
  189.9150  175.1630  137.2590 C   0  0  0  0  0  2  0  0  0  0  0  0
  189.3510  172.9640  136.5590 O   0  0  0  0  0  0  0  0  0  0  0  0
  191.5520  173.5860  135.9900 C   0  0  0  0  0  3  0  0  0  0  0  0
  190.2350  173.8580  136.6000 C   0  0  0  0  0  0  0  0  0  0  0  0
  192.2810  175.7570  138.0760 C   0  0  2  0  0  3  0  0  0  0  0  0
  192.5850  174.4360  135.9780 C   0  0  0  0  0  3  0  0  0  0  0  0
  191.2960  176.8470  138.4540 C   0  0  2  0  0  3  0  0  0  0  0  0
  1  4  1  0  0  0  0
  2 23  1  0  0  0  0
  3  9  1  0  0  0  0
  3  7  1  0  0  0  0
  4 12  1  0  0  0  0
  4 15  1  0  0  0  0
  4  8  1  0  0  0  0
  5 19  1  0  0  0  0
  6 22  1  0  0  0  0
  6  9  1  0  0  0  0
  7 21  1  0  0  0  0
  9 13  1  0  0  0  0
 10  7  1  0  0  0  0
 10  5  1  0  0  0  0
 11  6  1  0  0  0  0
 13 14  1  0  0  0  0
 13 21  1  0  0  0  0
 13 17  1  0  0  0  0
 15  8  1  0  0  0  0
 16 11  1  0  0  0  0
 16 20  1  0  0  0  0
 18 12  1  0  0  0  0
 18 26  1  0  0  0  0
 19 24  1  0  0  0  0
 20  3  1  0  0  0  0
 21 25  1  0  0  0  0
 22  2  1  0  0  0  0
 23 14  1  0  0  0  0
 24 18  1  0  0  0  0
 25 24  1  0  0  0  0
 25  1  1  0  0  0  0
 26 27  1  0  0  0  0
 28 20  1  0  0  0  0
 29 35  1  0  0  0  0
 30 37  1  0  0  0  0
 31 30  1  0  0  0  0
 32 34  2  0  0  0  0
 33 34  1  0  0  0  0
 34 31  1  0  0  0  0
 35 30  1  0  0  0  0
 35 37  1  0  0  0  0
 36 33  2  0  0  0  0
 36 29  1  0  0  0  0
 37 28  1  0  0  0  0
M  END
>  <MODEL>
5

>  <REMARK>
 VINA RESULT:      -6.9      4.819     10.161
  Name = 
  3 active torsions:
  status: ('A' for Active; 'I' for Inactive)
    1  A    between atoms: O_11  and  C_26
    2  A    between atoms: C_22  and  C_28
    3  A    between atoms: C_22  and  C_37
                            x       y       z     vdW  Elec       q    Type
                         _______ _______ _______ _____ _____    ______ ____

>  <TORSDO>
F 3

$$$$
=
 OpenBabel11052415283D

 37 44  0  0  1  0  0  0  0  0999 V2000
  182.8070  178.0840  142.6240 O   0  0  0  0  0  0  0  0  0  0  0  0
  182.1040  175.4480  137.5480 C   0  0  0  0  0  2  0  0  0  0  0  0
  185.6970  177.8730  138.8060 C   0  0  1  0  0  3  0  0  0  0  0  0
  182.1300  179.0870  143.3560 C   0  0  0  0  0  0  0  0  0  0  0  0
  186.7510  177.5030  142.2300 C   0  0  0  0  0  2  0  0  0  0  0  0
  184.1070  176.8740  137.1880 C   0  0  2  0  0  3  0  0  0  0  0  0
  185.6340  178.5410  140.1610 C   0  0  2  0  0  3  0  0  0  0  0  0
  180.9220  178.6280  144.1300 C   0  0  0  0  0  2  0  0  0  0  0  0
  184.2430  177.7910  138.4030 C   0  0  1  0  0  3  0  0  0  0  0  0
  186.9280  178.3530  140.9720 C   0  0  0  0  0  2  0  0  0  0  0  0
  184.8450  177.5500  136.0290 C   0  0  0  0  0  2  0  0  0  0  0  0
  182.8510  180.1740  143.9170 O   0  0  0  0  0  0  0  0  0  0  0  0
  183.4280  177.5500  139.6770 C   0  0  2  0  0  0  0  0  0  0  0  0
  182.9550  176.1000  139.8410 C   0  0  0  0  0  2  0  0  0  0  0  0
  180.7550  179.4330  142.8440 C   0  0  0  0  0  2  0  0  0  0  0  0
  186.3120  177.8350  136.3910 C   0  0  0  0  0  2  0  0  0  0  0  0
  182.3380  178.4280  139.6890 O   0  0  0  0  0  1  0  0  0  0  0  0
  184.1720  179.7630  144.2230 C   0  0  2  0  0  3  0  0  0  0  0  0
  186.0260  178.2290  143.3700 C   0  0  0  0  0  2  0  0  0  0  0  0
  186.4440  178.6290  137.7040 C   0  0  2  0  0  3  0  0  0  0  0  0
  184.4130  177.8840  140.8100 C   0  0  2  0  0  3  0  0  0  0  0  0
  182.6540  176.6560  136.8080 C   0  0  0  0  0  2  0  0  0  0  0  0
  181.7310  175.7820  138.9860 C   0  0  0  0  0  2  0  0  0  0  0  0
  184.9100  179.2240  142.9770 C   0  0  1  0  0  3  0  0  0  0  0  0
  183.8590  178.7300  141.9600 C   0  0  2  0  0  3  0  0  0  0  0  0
  184.1590  178.8400  145.2780 O   0  0  0  0  0  0  0  0  0  0  0  0
  184.9310  179.3780  146.2000 O   0  0  0  0  0  1  0  0  0  0  0  0
  187.9170  178.7780  138.0440 C   0  0  0  0  0  2  0  0  0  0  0  0
  189.6920  176.2420  135.9290 C   0  0  0  0  0  2  0  0  0  0  0  0
  190.1250  177.6640  138.0300 C   0  0  1  0  0  3  0  0  0  0  0  0
  190.7500  176.3580  138.5140 C   0  0  0  0  0  2  0  0  0  0  0  0
  193.1040  176.0410  138.5050 O   0  0  0  0  0  0  0  0  0  0  0  0
  192.1420  175.9310  136.3570 C   0  0  0  0  0  3  0  0  0  0  0  0
  192.0520  176.1080  137.8190 C   0  0  0  0  0  0  0  0  0  0  0  0
  189.5460  177.6010  136.6110 C   0  0  2  0  0  3  0  0  0  0  0  0
  191.1100  175.9960  135.5080 C   0  0  0  0  0  3  0  0  0  0  0  0
  188.6380  177.4650  137.8180 C   0  0  2  0  0  3  0  0  0  0  0  0
  1  4  1  0  0  0  0
  2 23  1  0  0  0  0
  3  7  1  0  0  0  0
  4 12  1  0  0  0  0
  4  8  1  0  0  0  0
  5 19  1  0  0  0  0
  6  9  1  0  0  0  0
  7 21  1  0  0  0  0
  7 10  1  0  0  0  0
  9  3  1  0  0  0  0
  9 13  1  0  0  0  0
 10  5  1  0  0  0  0
 11 16  1  0  0  0  0
 11  6  1  0  0  0  0
 12 18  1  0  0  0  0
 13 17  1  0  0  0  0
 13 14  1  0  0  0  0
 13 21  1  0  0  0  0
 15  4  1  0  0  0  0
 15  8  1  0  0  0  0
 16 20  1  0  0  0  0
 18 26  1  0  0  0  0
 20 28  1  0  0  0  0
 20  3  1  0  0  0  0
 21 25  1  0  0  0  0
 22  6  1  0  0  0  0
 22  2  1  0  0  0  0
 23 14  1  0  0  0  0
 24 19  1  0  0  0  0
 24 18  1  0  0  0  0
 25  1  1  0  0  0  0
 25 24  1  0  0  0  0
 26 27  1  0  0  0  0
 29 35  1  0  0  0  0
 30 31  1  0  0  0  0
 33 34  1  0  0  0  0
 34 32  2  0  0  0  0
 34 31  1  0  0  0  0
 35 37  1  0  0  0  0
 35 30  1  0  0  0  0
 36 29  1  0  0  0  0
 36 33  2  0  0  0  0
 37 30  1  0  0  0  0
 37 28  1  0  0  0  0
M  END
>  <MODEL>
6

>  <REMARK>
 VINA RESULT:      -6.7      3.805      7.298
  Name = 
  3 active torsions:
  status: ('A' for Active; 'I' for Inactive)
    1  A    between atoms: O_11  and  C_26
    2  A    between atoms: C_22  and  C_28
    3  A    between atoms: C_22  and  C_37
                            x       y       z     vdW  Elec       q    Type
                         _______ _______ _______ _____ _____    ______ ____

>  <TORSDO>
F 3

$$$$
=
 OpenBabel11052415283D

 37 44  0  0  1  0  0  0  0  0999 V2000
  181.3700  177.3230  139.5760 O   0  0  0  0  0  0  0  0  0  0  0  0
  183.5510  173.6180  135.7390 C   0  0  0  0  0  2  0  0  0  0  0  0
  185.6290  177.2760  137.3760 C   0  0  1  0  0  3  0  0  0  0  0  0
  180.2490  178.1820  139.6430 C   0  0  0  0  0  0  0  0  0  0  0  0
  185.1060  177.9770  140.8690 C   0  0  0  0  0  2  0  0  0  0  0  0
  185.1640  175.5080  135.7010 C   0  0  2  0  0  3  0  0  0  0  0  0
  184.8350  178.1510  138.3190 C   0  0  2  0  0  3  0  0  0  0  0  0
  178.9460  177.5270  140.0220 C   0  0  0  0  0  2  0  0  0  0  0  0
  184.5560  176.6480  136.5160 C   0  0  1  0  0  3  0  0  0  0  0  0
  185.6430  178.5620  139.5630 C   0  0  0  0  0  2  0  0  0  0  0  0
  186.1830  176.1330  134.7440 C   0  0  0  0  0  2  0  0  0  0  0  0
  180.4050  179.5350  140.0470 O   0  0  0  0  0  0  0  0  0  0  0  0
  183.3290  176.4250  137.4060 C   0  0  2  0  0  0  0  0  0  0  0  0
  183.1420  174.9670  137.8420 C   0  0  0  0  0  2  0  0  0  0  0  0
  179.2050  177.9540  138.5790 C   0  0  0  0  0  2  0  0  0  0  0  0
  187.2430  176.9440  135.5060 C   0  0  0  0  0  2  0  0  0  0  0  0
  182.1920  176.8870  136.7330 O   0  0  0  0  0  1  0  0  0  0  0  0
  181.5060  179.6430  140.9320 C   0  0  2  0  0  3  0  0  0  0  0  0
  183.8170  178.6480  141.3640 C   0  0  0  0  0  2  0  0  0  0  0  0
  186.6130  177.9890  136.4450 C   0  0  2  0  0  3  0  0  0  0  0  0
  183.6170  177.2840  138.6480 C   0  0  2  0  0  3  0  0  0  0  0  0
  184.1100  174.7600  134.9060 C   0  0  0  0  0  2  0  0  0  0  0  0
  182.5190  174.1020  136.7490 C   0  0  0  0  0  2  0  0  0  0  0  0
  182.8140  179.1270  140.2900 C   0  0  1  0  0  3  0  0  0  0  0  0
  182.4500  178.1230  139.1750 C   0  0  2  0  0  3  0  0  0  0  0  0
  181.2170  179.0040  142.1450 O   0  0  0  0  0  0  0  0  0  0  0  0
  180.8410  179.9730  142.9520 O   0  0  0  0  0  1  0  0  0  0  0  0
  187.7160  178.6720  137.2340 C   0  0  0  0  0  2  0  0  0  0  0  0
  190.7660  176.6540  138.0630 C   0  0  0  0  0  2  0  0  0  0  0  0
  189.1830  178.3370  139.1980 C   0  0  1  0  0  3  0  0  0  0  0  0
  189.3340  177.3580  140.3590 C   0  0  0  0  0  2  0  0  0  0  0  0
  190.7850  177.8210  142.1820 O   0  0  0  0  0  0  0  0  0  0  0  0
  191.9270  177.1960  140.2170 C   0  0  0  0  0  3  0  0  0  0  0  0
  190.6930  177.4760  140.9750 C   0  0  0  0  0  0  0  0  0  0  0  0
  189.9700  177.9520  137.9380 C   0  0  2  0  0  3  0  0  0  0  0  0
  191.9760  176.8410  138.9280 C   0  0  0  0  0  3  0  0  0  0  0  0
  188.4880  177.6470  138.0410 C   0  0  2  0  0  3  0  0  0  0  0  0
  1  4  1  0  0  0  0
  2 23  1  0  0  0  0
  3  7  1  0  0  0  0
  4  8  1  0  0  0  0
  4 12  1  0  0  0  0
  5 19  1  0  0  0  0
  6  9  1  0  0  0  0
  7 21  1  0  0  0  0
  7 10  1  0  0  0  0
  9  3  1  0  0  0  0
  9 13  1  0  0  0  0
 10  5  1  0  0  0  0
 11 16  1  0  0  0  0
 11  6  1  0  0  0  0
 12 18  1  0  0  0  0
 13 14  1  0  0  0  0
 13 21  1  0  0  0  0
 15  4  1  0  0  0  0
 15  8  1  0  0  0  0
 16 20  1  0  0  0  0
 17 13  1  0  0  0  0
 18 26  1  0  0  0  0
 20 28  1  0  0  0  0
 20  3  1  0  0  0  0
 21 25  1  0  0  0  0
 22  6  1  0  0  0  0
 22  2  1  0  0  0  0
 23 14  1  0  0  0  0
 24 18  1  0  0  0  0
 24 19  1  0  0  0  0
 25  1  1  0  0  0  0
 25 24  1  0  0  0  0
 26 27  1  0  0  0  0
 28 37  1  0  0  0  0
 29 36  1  0  0  0  0
 30 31  1  0  0  0  0
 31 34  1  0  0  0  0
 33 34  1  0  0  0  0
 34 32  2  0  0  0  0
 35 37  1  0  0  0  0
 35 29  1  0  0  0  0
 35 30  1  0  0  0  0
 36 33  2  0  0  0  0
 37 30  1  0  0  0  0
M  END
>  <MODEL>
7

>  <REMARK>
 VINA RESULT:      -6.7      3.193      6.438
  Name = 
  3 active torsions:
  status: ('A' for Active; 'I' for Inactive)
    1  A    between atoms: O_11  and  C_26
    2  A    between atoms: C_22  and  C_28
    3  A    between atoms: C_22  and  C_37
                            x       y       z     vdW  Elec       q    Type
                         _______ _______ _______ _____ _____    ______ ____

>  <TORSDO>
F 3

$$$$
=
 OpenBabel11052415283D

 37 44  0  0  1  0  0  0  0  0999 V2000
  188.2150  178.2540  144.2350 O   0  0  0  0  0  0  0  0  0  0  0  0
  188.7120  178.9400  138.5350 C   0  0  0  0  0  2  0  0  0  0  0  0
  184.8620  178.3290  140.8100 C   0  0  1  0  0  3  0  0  0  0  0  0
  188.6900  177.3350  145.1970 C   0  0  0  0  0  0  0  0  0  0  0  0
  184.6120  179.9900  143.9960 C   0  0  0  0  0  2  0  0  0  0  0  0
  186.3490  178.2310  138.8290 C   0  0  2  0  0  3  0  0  0  0  0  0
  184.9750  178.0930  142.2990 C   0  0  2  0  0  3  0  0  0  0  0  0
  190.1010  177.5600  145.6760 C   0  0  0  0  0  2  0  0  0  0  0  0
  186.1760  177.7990  140.2840 C   0  0  1  0  0  3  0  0  0  0  0  0
  183.9650  178.9280  143.1060 C   0  0  0  0  0  2  0  0  0  0  0  0
  185.2450  177.5420  138.0210 C   0  0  0  0  0  2  0  0  0  0  0  0
  187.7990  176.7600  146.1430 O   0  0  0  0  0  0  0  0  0  0  0  0
  187.2460  178.1040  141.3380 C   0  0  2  0  0  0  0  0  0  0  0  0
  188.1450  179.2930  140.9770 C   0  0  0  0  0  2  0  0  0  0  0  0
  189.7850  176.4150  144.7170 C   0  0  0  0  0  2  0  0  0  0  0  0
  183.8520  177.8820  138.5750 C   0  0  0  0  0  2  0  0  0  0  0  0
  188.0130  176.9530  141.5480 O   0  0  0  0  0  1  0  0  0  0  0  0
  186.7370  177.6610  146.4030 C   0  0  2  0  0  3  0  0  0  0  0  0
  185.2900  179.4190  145.2480 C   0  0  0  0  0  2  0  0  0  0  0  0
  183.7370  177.5880  140.0830 C   0  0  2  0  0  3  0  0  0  0  0  0
  186.4330  178.4570  142.5940 C   0  0  2  0  0  3  0  0  0  0  0  0
  187.7060  177.8290  138.2810 C   0  0  0  0  0  2  0  0  0  0  0  0
  189.2290  178.9240  139.9670 C   0  0  0  0  0  2  0  0  0  0  0  0
  185.9730  178.0390  145.1140 C   0  0  1  0  0  3  0  0  0  0  0  0
  186.9160  177.8390  143.9080 C   0  0  2  0  0  3  0  0  0  0  0  0
  187.2130  178.7850  147.0910 O   0  0  0  0  0  0  0  0  0  0  0  0
  187.5540  178.3290  148.2780 O   0  0  0  0  0  1  0  0  0  0  0  0
  182.3740  178.0460  140.5720 C   0  0  0  0  0  2  0  0  0  0  0  0
  179.4110  179.8080  139.0990 C   0  0  0  0  0  2  0  0  0  0  0  0
  181.9120  180.2390  139.5270 C   0  0  1  0  0  3  0  0  0  0  0  0
  181.8200  180.8430  138.1280 C   0  0  0  0  0  2  0  0  0  0  0  0
  181.6890  183.1930  137.8050 O   0  0  0  0  0  0  0  0  0  0  0  0
  179.6820  182.2500  138.6010 C   0  0  0  0  0  3  0  0  0  0  0  0
  181.0880  182.1480  138.1640 C   0  0  0  0  0  0  0  0  0  0  0  0
  180.5900  179.6730  140.0610 C   0  0  2  0  0  3  0  0  0  0  0  0
  178.9310  181.2270  139.0250 C   0  0  0  0  0  3  0  0  0  0  0  0
  181.6310  178.7520  139.4560 C   0  0  2  0  0  3  0  0  0  0  0  0
  1  4  1  0  0  0  0
  2 23  1  0  0  0  0
  3  7  1  0  0  0  0
  4  8  1  0  0  0  0
  4 12  1  0  0  0  0
  5 19  1  0  0  0  0
  6  9  1  0  0  0  0
  7 21  1  0  0  0  0
  7 10  1  0  0  0  0
  9  3  1  0  0  0  0
  9 13  1  0  0  0  0
 10  5  1  0  0  0  0
 11 16  1  0  0  0  0
 11  6  1  0  0  0  0
 12 18  1  0  0  0  0
 13 17  1  0  0  0  0
 13 21  1  0  0  0  0
 14 13  1  0  0  0  0
 15  4  1  0  0  0  0
 15  8  1  0  0  0  0
 16 20  1  0  0  0  0
 18 26  1  0  0  0  0
 20 28  1  0  0  0  0
 20  3  1  0  0  0  0
 21 25  1  0  0  0  0
 22  2  1  0  0  0  0
 22  6  1  0  0  0  0
 23 14  1  0  0  0  0
 24 19  1  0  0  0  0
 24 18  1  0  0  0  0
 25  1  1  0  0  0  0
 25 24  1  0  0  0  0
 26 27  1  0  0  0  0
 29 35  1  0  0  0  0
 30 35  1  0  0  0  0
 31 34  1  0  0  0  0
 31 30  1  0  0  0  0
 32 34  2  0  0  0  0
 33 36  2  0  0  0  0
 34 33  1  0  0  0  0
 36 29  1  0  0  0  0
 37 30  1  0  0  0  0
 37 35  1  0  0  0  0
 37 28  1  0  0  0  0
M  END
>  <MODEL>
8

>  <REMARK>
 VINA RESULT:      -6.6      3.190      9.180
  Name = 
  3 active torsions:
  status: ('A' for Active; 'I' for Inactive)
    1  A    between atoms: O_11  and  C_26
    2  A    between atoms: C_22  and  C_28
    3  A    between atoms: C_22  and  C_37
                            x       y       z     vdW  Elec       q    Type
                         _______ _______ _______ _____ _____    ______ ____

>  <TORSDO>
F 3

$$$$
=
 OpenBabel11052415283D

 37 44  0  0  1  0  0  0  0  0999 V2000
  184.9150  178.1860  143.6410 O   0  0  0  0  0  0  0  0  0  0  0  0
  183.6880  177.7070  138.0310 C   0  0  0  0  0  2  0  0  0  0  0  0
  187.8200  177.9290  139.8370 C   0  0  1  0  0  3  0  0  0  0  0  0
  184.6380  179.1140  144.6710 C   0  0  0  0  0  0  0  0  0  0  0  0
  188.3010  176.1630  142.9390 C   0  0  0  0  0  2  0  0  0  0  0  0
  186.1230  178.2080  138.0520 C   0  0  2  0  0  3  0  0  0  0  0  0
  187.9040  178.1310  141.3330 C   0  0  2  0  0  3  0  0  0  0  0  0
  183.2790  178.9930  145.3120 C   0  0  0  0  0  2  0  0  0  0  0  0
  186.5030  178.5820  139.4830 C   0  0  1  0  0  3  0  0  0  0  0  0
  188.9270  177.1920  141.9970 C   0  0  0  0  0  2  0  0  0  0  0  0
  187.1780  178.8250  137.1300 C   0  0  0  0  0  2  0  0  0  0  0  0
  185.6810  179.5850  145.5120 O   0  0  0  0  0  0  0  0  0  0  0  0
  185.5430  178.3370  140.6520 C   0  0  2  0  0  0  0  0  0  0  0  0
  184.5090  177.2380  140.3800 C   0  0  0  0  0  2  0  0  0  0  0  0
  183.5770  180.1350  144.3430 C   0  0  0  0  0  2  0  0  0  0  0  0
  188.5930  178.3540  137.5060 C   0  0  0  0  0  2  0  0  0  0  0  0
  184.9080  179.5420  140.9750 O   0  0  0  0  0  1  0  0  0  0  0  0
  186.6850  178.5920  145.6270 C   0  0  2  0  0  3  0  0  0  0  0  0
  187.8280  176.7530  144.2740 C   0  0  0  0  0  2  0  0  0  0  0  0
  188.9100  178.5950  138.9930 C   0  0  2  0  0  3  0  0  0  0  0  0
  186.4660  177.8820  141.7950 C   0  0  2  0  0  3  0  0  0  0  0  0
  184.7500  178.7370  137.6780 C   0  0  0  0  0  2  0  0  0  0  0  0
  183.3480  177.7250  139.5160 C   0  0  0  0  0  2  0  0  0  0  0  0
  187.2560  178.1890  144.2480 C   0  0  1  0  0  3  0  0  0  0  0  0
  186.1970  178.5000  143.1690 C   0  0  2  0  0  3  0  0  0  0  0  0
  186.1990  177.4920  146.3460 O   0  0  0  0  0  0  0  0  0  0  0  0
  186.8800  177.5030  147.4730 O   0  0  0  0  0  1  0  0  0  0  0  0
  190.2770  178.0110  139.3070 C   0  0  0  0  0  2  0  0  0  0  0  0
  192.9670  176.2420  137.3850 C   0  0  0  0  0  2  0  0  0  0  0  0
  190.5580  175.8220  138.1900 C   0  0  1  0  0  3  0  0  0  0  0  0
  190.4300  175.2280  136.7900 C   0  0  0  0  0  2  0  0  0  0  0  0
  190.4930  172.8790  136.4370 O   0  0  0  0  0  0  0  0  0  0  0  0
  192.6060  173.8060  136.9200 C   0  0  0  0  0  3  0  0  0  0  0  0
  191.1500  173.9180  136.7050 C   0  0  0  0  0  0  0  0  0  0  0  0
  191.9500  176.3770  138.5170 C   0  0  2  0  0  3  0  0  0  0  0  0
  193.4200  174.8210  137.2290 C   0  0  0  0  0  3  0  0  0  0  0  0
  190.8340  177.3080  138.0850 C   0  0  2  0  0  3  0  0  0  0  0  0
  1  4  1  0  0  0  0
  2 23  1  0  0  0  0
  3  7  1  0  0  0  0
  4  8  1  0  0  0  0
  4 12  1  0  0  0  0
  5 19  1  0  0  0  0
  6  9  1  0  0  0  0
  7 21  1  0  0  0  0
  7 10  1  0  0  0  0
  9  3  1  0  0  0  0
  9 13  1  0  0  0  0
 10  5  1  0  0  0  0
 11 16  1  0  0  0  0
 11  6  1  0  0  0  0
 12 18  1  0  0  0  0
 13 17  1  0  0  0  0
 13 21  1  0  0  0  0
 14 13  1  0  0  0  0
 15  4  1  0  0  0  0
 15  8  1  0  0  0  0
 16 20  1  0  0  0  0
 18 26  1  0  0  0  0
 20 28  1  0  0  0  0
 20  3  1  0  0  0  0
 21 25  1  0  0  0  0
 22  2  1  0  0  0  0
 22  6  1  0  0  0  0
 23 14  1  0  0  0  0
 24 19  1  0  0  0  0
 24 18  1  0  0  0  0
 25  1  1  0  0  0  0
 25 24  1  0  0  0  0
 26 27  1  0  0  0  0
 29 35  1  0  0  0  0
 30 35  1  0  0  0  0
 31 30  1  0  0  0  0
 32 34  2  0  0  0  0
 33 36  2  0  0  0  0
 34 31  1  0  0  0  0
 34 33  1  0  0  0  0
 36 29  1  0  0  0  0
 37 30  1  0  0  0  0
 37 35  1  0  0  0  0
 37 28  1  0  0  0  0
M  END
>  <MODEL>
9

>  <REMARK>
 VINA RESULT:      -6.6      4.365      8.169
  Name = 
  3 active torsions:
  status: ('A' for Active; 'I' for Inactive)
    1  A    between atoms: O_11  and  C_26
    2  A    between atoms: C_22  and  C_28
    3  A    between atoms: C_22  and  C_37
                            x       y       z     vdW  Elec       q    Type
                         _______ _______ _______ _____ _____    ______ ____

>  <TORSDO>
F 3

$$$$
