=
 OpenBabel11052414233D

 34 37  0  0  1  0  0  0  0  0999 V2000
  181.7380  179.3930  139.1510 N   0  0  0  0  0  0  0  0  0  0  0  0
  183.3410  179.1900  141.0980 C   0  0  2  0  0  3  0  0  0  0  0  0
  185.1020  178.7390  142.7630 C   0  0  0  0  0  0  0  0  0  0  0  0
  182.7210  179.0770  143.5450 C   0  0  0  0  0  2  0  0  0  0  0  0
  181.8840  179.0270  140.5860 C   0  0  2  0  0  3  0  0  0  0  0  0
  183.1870  178.5470  144.8940 C   0  0  0  0  0  2  0  0  0  0  0  0
  185.5300  178.9070  144.0190 C   0  0  0  0  0  3  0  0  0  0  0  0
  184.3130  178.7690  139.9890 C   0  0  2  0  0  3  0  0  0  0  0  0
  182.7600  180.3520  138.7120 C   0  0  0  0  0  2  0  0  0  0  0  0
  186.0650  178.6130  141.7130 N   0  0  0  0  0  0  0  0  0  0  0  0
  185.7630  178.6100  140.4450 C   0  0  0  0  0  0  0  0  0  0  0  0
  184.5920  179.0860  145.1820 C   0  0  2  0  0  3  0  0  0  0  0  0
  183.6400  178.5340  142.4450 C   0  0  1  0  0  3  0  0  0  0  0  0
  184.1750  179.7620  138.8240 C   0  0  0  0  0  2  0  0  0  0  0  0
  189.1900  177.9390  138.9690 C   0  0  0  0  0  0  0  0  0  0  0  0
  188.8650  177.6010  137.6520 C   0  0  0  0  0  3  0  0  0  0  0  0
  186.8320  178.2920  139.4660 C   0  0  0  0  0  0  0  0  0  0  0  0
  187.5310  177.6100  137.2350 C   0  0  0  0  0  3  0  0  0  0  0  0
  188.1800  178.2850  139.8700 C   0  0  0  0  0  3  0  0  0  0  0  0
  186.5200  177.9470  138.1390 C   0  0  0  0  0  3  0  0  0  0  0  0
  190.4850  177.9210  139.3770 F   0  0  0  0  0  0  0  0  0  0  0  0
  180.4230  179.9940  138.8670 C   0  0  0  0  0  3  0  0  0  0  0  0
  180.0250  180.9910  139.9460 C   0  0  0  0  0  1  0  0  0  0  0  0
  180.3190  180.6250  137.4800 C   0  0  0  0  0  1  0  0  0  0  0  0
  181.3160  177.6210  140.8420 C   0  0  0  0  0  2  0  0  0  0  0  0
  179.9730  177.6570  141.5570 C   0  0  0  0  0  1  0  0  0  0  0  0
  185.7330  179.5080  147.2600 O   0  0  0  0  0  1  0  0  0  0  0  0
  185.1990  178.4980  146.4570 C   0  0  2  0  0  3  0  0  0  0  0  0
  186.2390  177.5240  146.1400 N   0  0  0  0  0  2  0  0  0  0  0  0
  187.4980  177.9930  146.7070 C   0  0  0  0  0  3  0  0  0  0  0  0
  187.8060  177.2320  147.9900 C   0  0  0  0  0  2  0  0  0  0  0  0
  188.6130  178.0030  148.8380 O   0  0  0  0  0  1  0  0  0  0  0  0
  188.6320  177.8380  145.7000 C   0  0  0  0  0  2  0  0  0  0  0  0
  188.2920  176.8610  144.7600 O   0  0  0  0  0  1  0  0  0  0  0  0
  1  5  1  0  0  0  0
  2 13  1  0  0  0  0
  3  7  2  0  0  0  0
  4  6  1  0  0  0  0
  5 25  1  0  0  0  0
  5  2  1  0  0  0  0
  6 12  1  0  0  0  0
  7 12  1  0  0  0  0
  8 11  1  0  0  0  0
  8  2  1  0  0  0  0
  9 14  1  0  0  0  0
  9  1  1  0  0  0  0
 10  3  1  0  0  0  0
 11 10  2  0  0  0  0
 12 28  1  0  0  0  0
 13  3  1  0  0  0  0
 13  4  1  0  0  0  0
 14  8  1  0  0  0  0
 15 21  1  0  0  0  0
 15 19  1  0  0  0  0
 16 15  2  0  0  0  0
 17 19  2  0  0  0  0
 17 11  1  0  0  0  0
 18 16  1  0  0  0  0
 18 20  2  0  0  0  0
 20 17  1  0  0  0  0
 22  1  1  0  0  0  0
 22 23  1  0  0  0  0
 24 22  1  0  0  0  0
 25 26  1  0  0  0  0
 28 27  1  0  0  0  0
 29 28  1  0  0  0  0
 29 30  1  0  0  0  0
 30 31  1  0  0  0  0
 31 32  1  0  0  0  0
 33 30  1  0  0  0  0
 34 33  1  0  0  0  0
M  END
>  <MODEL>
1

>  <REMARK>
 VINA RESULT:      -7.9      0.000      0.000
  Name = 
  8 active torsions:
  status: ('A' for Active; 'I' for Inactive)
    1  A    between atoms: N_1  and  C_6
    2  A    between atoms: C_2  and  C_15
    3  A    between atoms: C_11  and  CA_20
    4  A    between atoms: C_12  and  C_28
    5  A    between atoms: N_13  and  CA_20
    6  A    between atoms: N_13  and  C_33
    7  A    between atoms: CB_14  and  CA_20
    8  A    between atoms: C_29  and  C_33
                            x       y       z     vdW  Elec       q    Type
                         _______ _______ _______ _____ _____    ______ ____

>  <TORSDO>
F 8

$$$$
=
 OpenBabel11052414233D

 34 37  0  0  1  0  0  0  0  0999 V2000
  181.3740  179.4610  139.2380 N   0  0  0  0  0  0  0  0  0  0  0  0
  183.1670  179.1800  140.9990 C   0  0  2  0  0  3  0  0  0  0  0  0
  185.0860  178.6570  142.4570 C   0  0  0  0  0  0  0  0  0  0  0  0
  182.8050  179.0020  143.4940 C   0  0  0  0  0  2  0  0  0  0  0  0
  181.6630  179.0510  140.6380 C   0  0  2  0  0  3  0  0  0  0  0  0
  183.4010  178.4260  144.7710 C   0  0  0  0  0  2  0  0  0  0  0  0
  185.6450  178.7820  143.6660 C   0  0  0  0  0  3  0  0  0  0  0  0
  184.0120  178.7800  139.7830 C   0  0  2  0  0  3  0  0  0  0  0  0
  182.3590  180.4200  138.7220 C   0  0  0  0  0  2  0  0  0  0  0  0
  185.9320  178.5510  141.3090 N   0  0  0  0  0  0  0  0  0  0  0  0
  185.5000  178.5900  140.0800 C   0  0  0  0  0  0  0  0  0  0  0  0
  184.8360  178.9380  144.9250 C   0  0  2  0  0  3  0  0  0  0  0  0
  183.5950  178.4800  142.2880 C   0  0  1  0  0  3  0  0  0  0  0  0
  183.7680  179.8090  138.6680 C   0  0  0  0  0  2  0  0  0  0  0  0
  188.7400  177.9000  138.2380 C   0  0  0  0  0  0  0  0  0  0  0  0
  188.2750  177.6250  136.9490 C   0  0  0  0  0  3  0  0  0  0  0  0
  186.4550  178.2880  138.9850 C   0  0  0  0  0  0  0  0  0  0  0  0
  186.9060  177.6840  136.6700 C   0  0  0  0  0  3  0  0  0  0  0  0
  187.8360  178.2310  139.2510 C   0  0  0  0  0  3  0  0  0  0  0  0
  186.0010  178.0070  137.6840 C   0  0  0  0  0  3  0  0  0  0  0  0
  190.0680  177.8330  138.5110 F   0  0  0  0  0  0  0  0  0  0  0  0
  180.0460  180.0870  139.1110 C   0  0  0  0  0  3  0  0  0  0  0  0
  179.8670  181.2170  140.1140 C   0  0  0  0  0  1  0  0  0  0  0  0
  179.7200  180.5610  137.6960 C   0  0  0  0  0  1  0  0  0  0  0  0
  181.1030  177.6450  140.9130 C   0  0  0  0  0  2  0  0  0  0  0  0
  181.1970  176.7320  139.6990 C   0  0  0  0  0  1  0  0  0  0  0  0
  184.9390  178.6470  147.3140 O   0  0  0  0  0  1  0  0  0  0  0  0
  185.5640  178.3050  146.1120 C   0  0  2  0  0  3  0  0  0  0  0  0
  186.9620  178.7230  146.1520 N   0  0  0  0  0  2  0  0  0  0  0  0
  187.7860  177.5530  146.4300 C   0  0  0  0  0  3  0  0  0  0  0  0
  188.7080  177.2740  145.2510 C   0  0  0  0  0  2  0  0  0  0  0  0
  188.0330  176.5480  144.2600 O   0  0  0  0  0  1  0  0  0  0  0  0
  188.5890  177.7530  147.7110 C   0  0  0  0  0  2  0  0  0  0  0  0
  187.7730  177.5070  148.8180 O   0  0  0  0  0  1  0  0  0  0  0  0
  1  5  1  0  0  0  0
  2 13  1  0  0  0  0
  3  7  2  0  0  0  0
  4  6  1  0  0  0  0
  5 25  1  0  0  0  0
  5  2  1  0  0  0  0
  6 12  1  0  0  0  0
  7 12  1  0  0  0  0
  8 11  1  0  0  0  0
  8  2  1  0  0  0  0
  9  1  1  0  0  0  0
 10  3  1  0  0  0  0
 11 10  2  0  0  0  0
 12 28  1  0  0  0  0
 13  3  1  0  0  0  0
 13  4  1  0  0  0  0
 14  9  1  0  0  0  0
 14  8  1  0  0  0  0
 15 21  1  0  0  0  0
 15 19  1  0  0  0  0
 16 15  2  0  0  0  0
 17 19  2  0  0  0  0
 17 11  1  0  0  0  0
 18 16  1  0  0  0  0
 18 20  2  0  0  0  0
 20 17  1  0  0  0  0
 22  1  1  0  0  0  0
 22 23  1  0  0  0  0
 24 22  1  0  0  0  0
 26 25  1  0  0  0  0
 28 29  1  0  0  0  0
 28 27  1  0  0  0  0
 29 30  1  0  0  0  0
 30 33  1  0  0  0  0
 31 30  1  0  0  0  0
 32 31  1  0  0  0  0
 33 34  1  0  0  0  0
M  END
>  <MODEL>
2

>  <REMARK>
 VINA RESULT:      -7.4      0.674      1.432
  Name = 
  8 active torsions:
  status: ('A' for Active; 'I' for Inactive)
    1  A    between atoms: N_1  and  C_6
    2  A    between atoms: C_2  and  C_15
    3  A    between atoms: C_11  and  CA_20
    4  A    between atoms: C_12  and  C_28
    5  A    between atoms: N_13  and  CA_20
    6  A    between atoms: N_13  and  C_33
    7  A    between atoms: CB_14  and  CA_20
    8  A    between atoms: C_29  and  C_33
                            x       y       z     vdW  Elec       q    Type
                         _______ _______ _______ _____ _____    ______ ____

>  <TORSDO>
F 8

$$$$
=
 OpenBabel11052414233D

 34 37  0  0  1  0  0  0  0  0999 V2000
  191.3620  176.5590  144.5300 N   0  0  0  0  0  0  0  0  0  0  0  0
  189.0010  177.1440  143.8370 C   0  0  2  0  0  3  0  0  0  0  0  0
  186.8690  177.8920  142.8490 C   0  0  0  0  0  0  0  0  0  0  0  0
  187.1260  177.8740  145.3650 C   0  0  0  0  0  2  0  0  0  0  0  0
  190.1050  177.2520  144.9220 C   0  0  2  0  0  3  0  0  0  0  0  0
  185.8410  178.6900  145.4090 C   0  0  0  0  0  2  0  0  0  0  0  0
  185.5450  178.0100  142.9930 C   0  0  0  0  0  3  0  0  0  0  0  0
  189.6490  177.2340  142.4500 C   0  0  2  0  0  3  0  0  0  0  0  0
  191.1260  175.4720  143.5730 C   0  0  0  0  0  2  0  0  0  0  0  0
  187.4110  177.7110  141.5380 N   0  0  0  0  0  0  0  0  0  0  0  0
  188.6600  177.4240  141.2990 C   0  0  0  0  0  0  0  0  0  0  0  0
  184.8820  178.1650  144.3350 C   0  0  2  0  0  3  0  0  0  0  0  0
  187.8130  178.0880  144.0120 C   0  0  1  0  0  3  0  0  0  0  0  0
  190.5400  175.9980  142.2530 C   0  0  0  0  0  2  0  0  0  0  0  0
  188.9390  178.2980  137.6210 C   0  0  0  0  0  0  0  0  0  0  0  0
  190.0670  177.5620  137.2450 C   0  0  0  0  0  3  0  0  0  0  0  0
  189.1320  177.4410  139.8930 C   0  0  0  0  0  0  0  0  0  0  0  0
  190.7270  176.7630  138.1830 C   0  0  0  0  0  3  0  0  0  0  0  0
  188.4730  178.2360  138.9380 C   0  0  0  0  0  3  0  0  0  0  0  0
  190.2670  176.7080  139.5010 C   0  0  0  0  0  3  0  0  0  0  0  0
  188.3040  179.0810  136.7140 F   0  0  0  0  0  0  0  0  0  0  0  0
  192.0540  175.9760  145.6940 C   0  0  0  0  0  3  0  0  0  0  0  0
  191.2570  176.1810  146.9730 C   0  0  0  0  0  1  0  0  0  0  0  0
  192.4260  174.5050  145.5160 C   0  0  0  0  0  1  0  0  0  0  0  0
  190.3980  178.7060  145.3310 C   0  0  0  0  0  2  0  0  0  0  0  0
  191.3180  179.4140  144.3480 C   0  0  0  0  0  1  0  0  0  0  0  0
  183.1440  179.3810  145.4750 O   0  0  0  0  0  1  0  0  0  0  0  0
  183.6140  179.0110  144.2130 C   0  0  2  0  0  3  0  0  0  0  0  0
  182.5690  178.2860  143.4960 N   0  0  0  0  0  2  0  0  0  0  0  0
  181.8660  179.2260  142.6300 C   0  0  0  0  0  3  0  0  0  0  0  0
  181.7230  178.6390  141.2330 C   0  0  0  0  0  2  0  0  0  0  0  0
  182.9830  178.4290  140.6560 O   0  0  0  0  0  1  0  0  0  0  0  0
  180.5030  179.5770  143.2140 C   0  0  0  0  0  2  0  0  0  0  0  0
  180.0510  180.7780  142.6610 O   0  0  0  0  0  1  0  0  0  0  0  0
  1  5  1  0  0  0  0
  1 22  1  0  0  0  0
  2 13  1  0  0  0  0
  2  5  1  0  0  0  0
  3  7  2  0  0  0  0
  3 13  1  0  0  0  0
  4  6  1  0  0  0  0
  5 25  1  0  0  0  0
  7 12  1  0  0  0  0
  8  2  1  0  0  0  0
  9  1  1  0  0  0  0
 10  3  1  0  0  0  0
 11 10  2  0  0  0  0
 11  8  1  0  0  0  0
 12  6  1  0  0  0  0
 13  4  1  0  0  0  0
 14  8  1  0  0  0  0
 14  9  1  0  0  0  0
 15 19  1  0  0  0  0
 16 15  2  0  0  0  0
 16 18  1  0  0  0  0
 17 11  1  0  0  0  0
 18 20  2  0  0  0  0
 19 17  2  0  0  0  0
 20 17  1  0  0  0  0
 21 15  1  0  0  0  0
 22 23  1  0  0  0  0
 24 22  1  0  0  0  0
 26 25  1  0  0  0  0
 28 12  1  0  0  0  0
 28 27  1  0  0  0  0
 29 28  1  0  0  0  0
 30 33  1  0  0  0  0
 30 29  1  0  0  0  0
 31 30  1  0  0  0  0
 32 31  1  0  0  0  0
 34 33  1  0  0  0  0
M  END
>  <MODEL>
3

>  <REMARK>
 VINA RESULT:      -7.4      3.097      7.539
  Name = 
  8 active torsions:
  status: ('A' for Active; 'I' for Inactive)
    1  A    between atoms: N_1  and  C_6
    2  A    between atoms: C_2  and  C_15
    3  A    between atoms: C_11  and  CA_20
    4  A    between atoms: C_12  and  C_28
    5  A    between atoms: N_13  and  CA_20
    6  A    between atoms: N_13  and  C_33
    7  A    between atoms: CB_14  and  CA_20
    8  A    between atoms: C_29  and  C_33
                            x       y       z     vdW  Elec       q    Type
                         _______ _______ _______ _____ _____    ______ ____

>  <TORSDO>
F 8

$$$$
=
 OpenBabel11052414233D

 34 37  0  0  1  0  0  0  0  0999 V2000
  192.0510  175.6760  137.6730 N   0  0  0  0  0  0  0  0  0  0  0  0
  189.9580  176.8450  138.4790 C   0  0  2  0  0  3  0  0  0  0  0  0
  187.9840  177.7960  139.6090 C   0  0  0  0  0  0  0  0  0  0  0  0
  187.8400  177.2140  137.1530 C   0  0  0  0  0  2  0  0  0  0  0  0
  190.5950  175.8790  137.4450 C   0  0  2  0  0  3  0  0  0  0  0  0
  186.3350  177.4020  137.2910 C   0  0  0  0  0  2  0  0  0  0  0  0
  186.8640  178.5190  139.4950 C   0  0  0  0  0  3  0  0  0  0  0  0
  190.6000  176.6070  139.8520 C   0  0  2  0  0  3  0  0  0  0  0  0
  192.6720  176.8130  138.3650 C   0  0  0  0  0  2  0  0  0  0  0  0
  188.7000  177.8170  140.8480 N   0  0  0  0  0  0  0  0  0  0  0  0
  189.8780  177.2860  141.0160 C   0  0  0  0  0  0  0  0  0  0  0  0
  186.0660  178.5890  138.2210 C   0  0  2  0  0  3  0  0  0  0  0  0
  188.4310  176.8510  138.5190 C   0  0  1  0  0  3  0  0  0  0  0  0
  192.0800  177.0120  139.7690 C   0  0  0  0  0  2  0  0  0  0  0  0
  191.6300  175.9820  144.1140 C   0  0  0  0  0  0  0  0  0  0  0  0
  191.5710  177.0970  144.9570 C   0  0  0  0  0  3  0  0  0  0  0  0
  190.4320  177.2170  142.3910 C   0  0  0  0  0  0  0  0  0  0  0  0
  190.9420  178.2680  144.5260 C   0  0  0  0  0  3  0  0  0  0  0  0
  191.0620  176.0410  142.8390 C   0  0  0  0  0  3  0  0  0  0  0  0
  190.3830  178.3300  143.2480 C   0  0  0  0  0  3  0  0  0  0  0  0
  192.2490  174.8470  144.5280 F   0  0  0  0  0  0  0  0  0  0  0  0
  192.7830  175.4800  136.4090 C   0  0  0  0  0  3  0  0  0  0  0  0
  193.9540  176.4450  136.2910 C   0  0  0  0  0  1  0  0  0  0  0  0
  193.2410  174.0410  136.1790 C   0  0  0  0  0  1  0  0  0  0  0  0
  189.8690  174.5250  137.3700 C   0  0  0  0  0  2  0  0  0  0  0  0
  189.4330  174.1750  135.9550 C   0  0  0  0  0  1  0  0  0  0  0  0
  184.3200  180.0760  138.9570 O   0  0  0  0  0  1  0  0  0  0  0  0
  184.5790  178.7720  138.5290 C   0  0  2  0  0  3  0  0  0  0  0  0
  184.1350  177.8260  139.5480 N   0  0  0  0  0  2  0  0  0  0  0  0
  183.4310  178.5650  140.5890 C   0  0  0  0  0  3  0  0  0  0  0  0
  181.9540  178.1970  140.5790 C   0  0  0  0  0  2  0  0  0  0  0  0
  181.1690  179.3190  140.2790 O   0  0  0  0  0  1  0  0  0  0  0  0
  184.0500  178.2910  141.9550 C   0  0  0  0  0  2  0  0  0  0  0  0
  184.9050  179.3410  142.3010 O   0  0  0  0  0  1  0  0  0  0  0  0
  1  9  1  0  0  0  0
  2 13  1  0  0  0  0
  2  8  1  0  0  0  0
  3 10  1  0  0  0  0
  4  6  1  0  0  0  0
  4 13  1  0  0  0  0
  5  1  1  0  0  0  0
  5  2  1  0  0  0  0
  6 12  1  0  0  0  0
  7  3  2  0  0  0  0
  8 11  1  0  0  0  0
  9 14  1  0  0  0  0
 10 11  2  0  0  0  0
 11 17  1  0  0  0  0
 12 28  1  0  0  0  0
 12  7  1  0  0  0  0
 13  3  1  0  0  0  0
 14  8  1  0  0  0  0
 15 21  1  0  0  0  0
 15 16  1  0  0  0  0
 17 19  1  0  0  0  0
 17 20  2  0  0  0  0
 18 16  2  0  0  0  0
 19 15  2  0  0  0  0
 20 18  1  0  0  0  0
 22  1  1  0  0  0  0
 23 22  1  0  0  0  0
 24 22  1  0  0  0  0
 25  5  1  0  0  0  0
 26 25  1  0  0  0  0
 28 27  1  0  0  0  0
 28 29  1  0  0  0  0
 29 30  1  0  0  0  0
 30 33  1  0  0  0  0
 31 30  1  0  0  0  0
 32 31  1  0  0  0  0
 33 34  1  0  0  0  0
M  END
>  <MODEL>
4

>  <REMARK>
 VINA RESULT:      -7.2      3.829      8.491
  Name = 
  8 active torsions:
  status: ('A' for Active; 'I' for Inactive)
    1  A    between atoms: N_1  and  C_6
    2  A    between atoms: C_2  and  C_15
    3  A    between atoms: C_11  and  CA_20
    4  A    between atoms: C_12  and  C_28
    5  A    between atoms: N_13  and  CA_20
    6  A    between atoms: N_13  and  C_33
    7  A    between atoms: CB_14  and  CA_20
    8  A    between atoms: C_29  and  C_33
                            x       y       z     vdW  Elec       q    Type
                         _______ _______ _______ _____ _____    ______ ____

>  <TORSDO>
F 8

$$$$
=
 OpenBabel11052414233D

 34 37  0  0  1  0  0  0  0  0999 V2000
  188.6970  176.9950  145.3530 N   0  0  0  0  0  0  0  0  0  0  0  0
  188.2920  177.7610  142.9760 C   0  0  2  0  0  3  0  0  0  0  0  0
  187.5300  178.3640  140.7100 C   0  0  0  0  0  0  0  0  0  0  0  0
  189.9090  177.5740  141.0440 C   0  0  0  0  0  2  0  0  0  0  0  0
  189.1280  176.8700  143.9340 C   0  0  2  0  0  3  0  0  0  0  0  0
  189.9840  177.4540  139.5280 C   0  0  0  0  0  2  0  0  0  0  0  0
  187.8620  178.8260  139.4990 C   0  0  0  0  0  3  0  0  0  0  0  0
  186.8310  177.7700  143.4440 C   0  0  2  0  0  3  0  0  0  0  0  0
  188.0560  178.2870  145.6310 C   0  0  0  0  0  2  0  0  0  0  0  0
  186.2200  178.6310  141.2190 N   0  0  0  0  0  0  0  0  0  0  0  0
  185.8480  178.3730  142.4420 C   0  0  0  0  0  0  0  0  0  0  0  0
  189.2270  178.6280  138.8980 C   0  0  2  0  0  3  0  0  0  0  0  0
  188.4470  177.4510  141.4890 C   0  0  1  0  0  3  0  0  0  0  0  0
  186.7680  178.4670  144.8120 C   0  0  0  0  0  2  0  0  0  0  0  0
  182.0810  178.6280  142.0980 C   0  0  0  0  0  0  0  0  0  0  0  0
  181.6860  178.7280  143.4360 C   0  0  0  0  0  3  0  0  0  0  0  0
  184.4140  178.5290  142.7910 C   0  0  0  0  0  0  0  0  0  0  0  0
  182.6460  178.7340  144.4520 C   0  0  0  0  0  3  0  0  0  0  0  0
  183.4380  178.5310  141.7770 C   0  0  0  0  0  3  0  0  0  0  0  0
  184.0010  178.6280  144.1310 C   0  0  0  0  0  3  0  0  0  0  0  0
  181.1490  178.6130  141.1120 F   0  0  0  0  0  0  0  0  0  0  0  0
  189.8290  176.8570  146.2860 C   0  0  0  0  0  3  0  0  0  0  0  0
  191.0950  177.4800  145.7170 C   0  0  0  0  0  1  0  0  0  0  0  0
  189.5420  177.3940  147.6870 C   0  0  0  0  0  1  0  0  0  0  0  0
  189.1500  175.3930  143.5070 C   0  0  0  0  0  2  0  0  0  0  0  0
  190.5570  174.8910  143.2190 C   0  0  0  0  0  1  0  0  0  0  0  0
  188.1070  179.3320  136.8850 O   0  0  0  0  0  1  0  0  0  0  0  0
  189.1320  178.5200  137.3760 C   0  0  2  0  0  3  0  0  0  0  0  0
  188.9020  177.1390  136.9630 N   0  0  0  0  0  2  0  0  0  0  0  0
  187.6570  177.0850  136.2040 C   0  0  0  0  0  3  0  0  0  0  0  0
  187.9150  176.5000  134.8220 C   0  0  0  0  0  2  0  0  0  0  0  0
  188.7670  175.3910  134.9090 O   0  0  0  0  0  1  0  0  0  0  0  0
  186.6080  176.2710  136.9510 C   0  0  0  0  0  2  0  0  0  0  0  0
  185.5980  177.1190  137.4120 O   0  0  0  0  0  1  0  0  0  0  0  0
  1  9  1  0  0  0  0
  1 22  1  0  0  0  0
  2  8  1  0  0  0  0
  2  5  1  0  0  0  0
  3 10  1  0  0  0  0
  3 13  1  0  0  0  0
  4 13  1  0  0  0  0
  5  1  1  0  0  0  0
  6  4  1  0  0  0  0
  7  3  2  0  0  0  0
  8 14  1  0  0  0  0
 10 11  2  0  0  0  0
 11 17  1  0  0  0  0
 11  8  1  0  0  0  0
 12  7  1  0  0  0  0
 12  6  1  0  0  0  0
 13  2  1  0  0  0  0
 14  9  1  0  0  0  0
 15 16  1  0  0  0  0
 16 18  2  0  0  0  0
 17 20  2  0  0  0  0
 19 15  2  0  0  0  0
 19 17  1  0  0  0  0
 20 18  1  0  0  0  0
 21 15  1  0  0  0  0
 22 24  1  0  0  0  0
 23 22  1  0  0  0  0
 25  5  1  0  0  0  0
 26 25  1  0  0  0  0
 27 28  1  0  0  0  0
 28 12  1  0  0  0  0
 29 28  1  0  0  0  0
 30 33  1  0  0  0  0
 30 29  1  0  0  0  0
 31 32  1  0  0  0  0
 31 30  1  0  0  0  0
 33 34  1  0  0  0  0
M  END
>  <MODEL>
5

>  <REMARK>
 VINA RESULT:      -7.0      4.038      8.826
  Name = 
  8 active torsions:
  status: ('A' for Active; 'I' for Inactive)
    1  A    between atoms: N_1  and  C_6
    2  A    between atoms: C_2  and  C_15
    3  A    between atoms: C_11  and  CA_20
    4  A    between atoms: C_12  and  C_28
    5  A    between atoms: N_13  and  CA_20
    6  A    between atoms: N_13  and  C_33
    7  A    between atoms: CB_14  and  CA_20
    8  A    between atoms: C_29  and  C_33
                            x       y       z     vdW  Elec       q    Type
                         _______ _______ _______ _____ _____    ______ ____

>  <TORSDO>
F 8

$$$$
=
 OpenBabel11052414233D

 34 37  0  0  1  0  0  0  0  0999 V2000
  193.0520  175.6390  137.9730 N   0  0  0  0  0  0  0  0  0  0  0  0
  190.7710  176.6090  138.4760 C   0  0  2  0  0  3  0  0  0  0  0  0
  188.5990  177.4030  139.3300 C   0  0  0  0  0  0  0  0  0  0  0  0
  188.7720  176.6210  136.9320 C   0  0  0  0  0  2  0  0  0  0  0  0
  191.6140  175.6480  137.5950 C   0  0  2  0  0  3  0  0  0  0  0  0
  187.2490  176.6390  136.9130 C   0  0  0  0  0  2  0  0  0  0  0  0
  187.4240  177.9760  139.0500 C   0  0  0  0  0  3  0  0  0  0  0  0
  191.2920  176.5550  139.9180 C   0  0  2  0  0  3  0  0  0  0  0  0
  193.4700  176.8900  138.6170 C   0  0  0  0  0  2  0  0  0  0  0  0
  189.1780  177.6030  140.6230 N   0  0  0  0  0  0  0  0  0  0  0  0
  190.3850  177.2300  140.9460 C   0  0  0  0  0  0  0  0  0  0  0  0
  186.7570  177.8540  137.7060 C   0  0  2  0  0  3  0  0  0  0  0  0
  189.2570  176.4370  138.3740 C   0  0  1  0  0  3  0  0  0  0  0  0
  192.7190  177.1250  139.9370 C   0  0  0  0  0  2  0  0  0  0  0  0
  191.6450  176.2760  144.3910 C   0  0  0  0  0  0  0  0  0  0  0  0
  191.6790  177.5200  145.0300 C   0  0  0  0  0  3  0  0  0  0  0  0
  190.7990  177.3330  142.3670 C   0  0  0  0  0  0  0  0  0  0  0  0
  191.2710  178.6690  144.3470 C   0  0  0  0  0  3  0  0  0  0  0  0
  191.2060  176.1830  143.0680 C   0  0  0  0  0  3  0  0  0  0  0  0
  190.8410  178.5770  143.0210 C   0  0  0  0  0  3  0  0  0  0  0  0
  192.0500  175.1610  145.0510 F   0  0  0  0  0  0  0  0  0  0  0  0
  193.9270  175.4340  136.8050 C   0  0  0  0  0  3  0  0  0  0  0  0
  194.2240  176.7480  136.0970 C   0  0  0  0  0  1  0  0  0  0  0  0
  195.2200  174.6870  137.1260 C   0  0  0  0  0  1  0  0  0  0  0  0
  191.0540  174.2160  137.5720 C   0  0  0  0  0  2  0  0  0  0  0  0
  190.9160  173.6670  136.1600 C   0  0  0  0  0  1  0  0  0  0  0  0
  184.6140  177.8100  136.6090 O   0  0  0  0  0  1  0  0  0  0  0  0
  185.2350  177.8820  137.8580 C   0  0  2  0  0  3  0  0  0  0  0  0
  184.8010  179.0900  138.5510 N   0  0  0  0  0  2  0  0  0  0  0  0
  183.7050  178.7400  139.4470 C   0  0  0  0  0  3  0  0  0  0  0  0
  184.2100  178.6610  140.8810 C   0  0  0  0  0  2  0  0  0  0  0  0
  185.2660  179.5610  141.0810 O   0  0  0  0  0  1  0  0  0  0  0  0
  182.5690  179.7500  139.3270 C   0  0  0  0  0  2  0  0  0  0  0  0
  183.0430  180.9180  138.7240 O   0  0  0  0  0  1  0  0  0  0  0  0
  1  9  1  0  0  0  0
  2  8  1  0  0  0  0
  3 10  1  0  0  0  0
  4 13  1  0  0  0  0
  5  1  1  0  0  0  0
  5  2  1  0  0  0  0
  6  4  1  0  0  0  0
  6 12  1  0  0  0  0
  7  3  2  0  0  0  0
  8 14  1  0  0  0  0
  8 11  1  0  0  0  0
  9 14  1  0  0  0  0
 10 11  2  0  0  0  0
 11 17  1  0  0  0  0
 12 28  1  0  0  0  0
 12  7  1  0  0  0  0
 13  2  1  0  0  0  0
 13  3  1  0  0  0  0
 15 16  1  0  0  0  0
 15 21  1  0  0  0  0
 17 20  2  0  0  0  0
 17 19  1  0  0  0  0
 18 16  2  0  0  0  0
 19 15  2  0  0  0  0
 20 18  1  0  0  0  0
 22 24  1  0  0  0  0
 22  1  1  0  0  0  0
 23 22  1  0  0  0  0
 25  5  1  0  0  0  0
 26 25  1  0  0  0  0
 27 28  1  0  0  0  0
 28 29  1  0  0  0  0
 29 30  1  0  0  0  0
 30 31  1  0  0  0  0
 31 32  1  0  0  0  0
 33 30  1  0  0  0  0
 34 33  1  0  0  0  0
M  END
>  <MODEL>
6

>  <REMARK>
 VINA RESULT:      -6.9      4.289      9.184
  Name = 
  8 active torsions:
  status: ('A' for Active; 'I' for Inactive)
    1  A    between atoms: N_1  and  C_6
    2  A    between atoms: C_2  and  C_15
    3  A    between atoms: C_11  and  CA_20
    4  A    between atoms: C_12  and  C_28
    5  A    between atoms: N_13  and  CA_20
    6  A    between atoms: N_13  and  C_33
    7  A    between atoms: CB_14  and  CA_20
    8  A    between atoms: C_29  and  C_33
                            x       y       z     vdW  Elec       q    Type
                         _______ _______ _______ _____ _____    ______ ____

>  <TORSDO>
F 8

$$$$
=
 OpenBabel11052414233D

 34 37  0  0  1  0  0  0  0  0999 V2000
  187.5200  177.3610  136.9370 N   0  0  0  0  0  0  0  0  0  0  0  0
  187.2830  177.6190  139.4420 C   0  0  2  0  0  3  0  0  0  0  0  0
  186.8040  178.1670  141.7980 C   0  0  0  0  0  0  0  0  0  0  0  0
  189.1340  177.4290  141.1520 C   0  0  0  0  0  2  0  0  0  0  0  0
  188.2350  177.6180  138.2160 C   0  0  2  0  0  3  0  0  0  0  0  0
  189.5670  177.9000  142.5340 C   0  0  0  0  0  2  0  0  0  0  0  0
  187.1010  177.9530  143.0840 C   0  0  0  0  0  3  0  0  0  0  0  0
  185.9520  178.2680  139.0440 C   0  0  2  0  0  3  0  0  0  0  0  0
  186.2810  176.5980  137.1330 C   0  0  0  0  0  2  0  0  0  0  0  0
  185.4630  178.5190  141.4450 N   0  0  0  0  0  0  0  0  0  0  0  0
  185.0280  178.5900  140.2180 C   0  0  0  0  0  0  0  0  0  0  0  0
  188.4730  177.5420  143.5450 C   0  0  2  0  0  3  0  0  0  0  0  0
  187.8730  178.1900  140.7310 C   0  0  1  0  0  3  0  0  0  0  0  0
  185.2720  177.3710  137.9980 C   0  0  0  0  0  2  0  0  0  0  0  0
  182.1950  180.6430  138.7570 C   0  0  0  0  0  0  0  0  0  0  0  0
  181.0940  180.1290  139.4480 C   0  0  0  0  0  3  0  0  0  0  0  0
  183.6700  179.1400  139.9810 C   0  0  0  0  0  0  0  0  0  0  0  0
  181.2730  179.1280  140.4070 C   0  0  0  0  0  3  0  0  0  0  0  0
  183.4770  180.1530  139.0240 C   0  0  0  0  0  3  0  0  0  0  0  0
  182.5530  178.6310  140.6670 C   0  0  0  0  0  3  0  0  0  0  0  0
  182.0210  181.6090  137.8200 F   0  0  0  0  0  0  0  0  0  0  0  0
  188.3530  176.6070  135.9830 C   0  0  0  0  0  3  0  0  0  0  0  0
  189.0060  175.4040  136.6480 C   0  0  0  0  0  1  0  0  0  0  0  0
  187.6120  176.1900  134.7140 C   0  0  0  0  0  1  0  0  0  0  0  0
  189.0770  178.9010  138.1140 C   0  0  0  0  0  2  0  0  0  0  0  0
  188.6910  179.7570  136.9170 C   0  0  0  0  0  1  0  0  0  0  0  0
  190.1340  178.1710  145.1730 O   0  0  0  0  0  1  0  0  0  0  0  0
  188.7580  178.0960  144.9420 C   0  0  2  0  0  3  0  0  0  0  0  0
  188.1350  177.2690  145.9710 N   0  0  0  0  0  2  0  0  0  0  0  0
  187.5000  178.1470  146.9470 C   0  0  0  0  0  3  0  0  0  0  0  0
  185.9870  178.0990  146.7830 C   0  0  0  0  0  2  0  0  0  0  0  0
  185.4630  179.3950  146.6770 O   0  0  0  0  0  1  0  0  0  0  0  0
  187.9050  177.7550  148.3640 C   0  0  0  0  0  2  0  0  0  0  0  0
  189.1830  178.2500  148.6390 O   0  0  0  0  0  1  0  0  0  0  0  0
  1  9  1  0  0  0  0
  1  5  1  0  0  0  0
  2 13  1  0  0  0  0
  3  7  2  0  0  0  0
  4  6  1  0  0  0  0
  5  2  1  0  0  0  0
  6 12  1  0  0  0  0
  7 12  1  0  0  0  0
  8  2  1  0  0  0  0
  8 11  1  0  0  0  0
  9 14  1  0  0  0  0
 10  3  1  0  0  0  0
 11 10  2  0  0  0  0
 12 28  1  0  0  0  0
 13  4  1  0  0  0  0
 13  3  1  0  0  0  0
 14  8  1  0  0  0  0
 15 19  2  0  0  0  0
 15 16  1  0  0  0  0
 16 18  2  0  0  0  0
 17 11  1  0  0  0  0
 17 20  2  0  0  0  0
 18 20  1  0  0  0  0
 19 17  1  0  0  0  0
 21 15  1  0  0  0  0
 22 23  1  0  0  0  0
 22  1  1  0  0  0  0
 24 22  1  0  0  0  0
 25  5  1  0  0  0  0
 26 25  1  0  0  0  0
 28 27  1  0  0  0  0
 28 29  1  0  0  0  0
 29 30  1  0  0  0  0
 30 33  1  0  0  0  0
 31 30  1  0  0  0  0
 32 31  1  0  0  0  0
 33 34  1  0  0  0  0
M  END
>  <MODEL>
7

>  <REMARK>
 VINA RESULT:      -6.7      2.346      5.873
  Name = 
  8 active torsions:
  status: ('A' for Active; 'I' for Inactive)
    1  A    between atoms: N_1  and  C_6
    2  A    between atoms: C_2  and  C_15
    3  A    between atoms: C_11  and  CA_20
    4  A    between atoms: C_12  and  C_28
    5  A    between atoms: N_13  and  CA_20
    6  A    between atoms: N_13  and  C_33
    7  A    between atoms: CB_14  and  CA_20
    8  A    between atoms: C_29  and  C_33
                            x       y       z     vdW  Elec       q    Type
                         _______ _______ _______ _____ _____    ______ ____

>  <TORSDO>
F 8

$$$$
=
 OpenBabel11052414233D

 34 37  0  0  1  0  0  0  0  0999 V2000
  192.3950  175.3120  137.4200 N   0  0  0  0  0  0  0  0  0  0  0  0
  190.2890  176.5250  138.1200 C   0  0  2  0  0  3  0  0  0  0  0  0
  188.2970  177.5420  139.1580 C   0  0  0  0  0  0  0  0  0  0  0  0
  188.1890  176.8020  136.7420 C   0  0  0  0  0  2  0  0  0  0  0  0
  190.9420  175.4950  137.1590 C   0  0  2  0  0  3  0  0  0  0  0  0
  186.6820  176.9950  136.8470 C   0  0  0  0  0  2  0  0  0  0  0  0
  187.1770  178.2520  138.9820 C   0  0  0  0  0  3  0  0  0  0  0  0
  190.9110  176.3770  139.5140 C   0  0  2  0  0  3  0  0  0  0  0  0
  193.0040  176.4920  138.0460 C   0  0  0  0  0  2  0  0  0  0  0  0
  188.9950  177.6440  140.4020 N   0  0  0  0  0  0  0  0  0  0  0  0
  190.1710  177.1270  140.6210 C   0  0  0  0  0  0  0  0  0  0  0  0
  186.3980  178.2390  137.6950 C   0  0  2  0  0  3  0  0  0  0  0  0
  188.7610  176.5290  138.1370 C   0  0  1  0  0  3  0  0  0  0  0  0
  192.3910  176.7790  139.4260 C   0  0  0  0  0  2  0  0  0  0  0  0
  191.6810  178.3850  143.8630 C   0  0  0  0  0  0  0  0  0  0  0  0
  191.6330  177.2350  144.6570 C   0  0  0  0  0  3  0  0  0  0  0  0
  190.7050  177.1480  142.0050 C   0  0  0  0  0  0  0  0  0  0  0  0
  191.1290  176.0410  144.1320 C   0  0  0  0  0  3  0  0  0  0  0  0
  191.2210  178.3420  142.5440 C   0  0  0  0  0  3  0  0  0  0  0  0
  190.6610  176.0010  142.8160 C   0  0  0  0  0  3  0  0  0  0  0  0
  192.1610  179.5460  144.3750 F   0  0  0  0  0  0  0  0  0  0  0  0
  193.1450  175.0360  136.1820 C   0  0  0  0  0  3  0  0  0  0  0  0
  194.1310  176.1530  135.8710 C   0  0  0  0  0  1  0  0  0  0  0  0
  193.8450  173.6780  136.1750 C   0  0  0  0  0  1  0  0  0  0  0  0
  190.2190  174.1370  137.1600 C   0  0  0  0  0  2  0  0  0  0  0  0
  189.8410  173.6770  135.7610 C   0  0  0  0  0  1  0  0  0  0  0  0
  184.7100  179.4090  138.9530 O   0  0  0  0  0  1  0  0  0  0  0  0
  184.9060  178.4380  137.9680 C   0  0  2  0  0  3  0  0  0  0  0  0
  184.2800  177.1860  138.3850 N   0  0  0  0  0  2  0  0  0  0  0  0
  183.0510  177.0090  137.6200 C   0  0  0  0  0  3  0  0  0  0  0  0
  183.0520  175.6450  136.9430 C   0  0  0  0  0  2  0  0  0  0  0  0
  183.7090  174.7000  137.7430 O   0  0  0  0  0  1  0  0  0  0  0  0
  181.8310  177.1670  138.5200 C   0  0  0  0  0  2  0  0  0  0  0  0
  182.1680  176.8200  139.8300 O   0  0  0  0  0  1  0  0  0  0  0  0
  1  9  1  0  0  0  0
  2 13  1  0  0  0  0
  2  8  1  0  0  0  0
  3 10  1  0  0  0  0
  4  6  1  0  0  0  0
  4 13  1  0  0  0  0
  5 25  1  0  0  0  0
  5  1  1  0  0  0  0
  5  2  1  0  0  0  0
  6 12  1  0  0  0  0
  7  3  2  0  0  0  0
  8 11  1  0  0  0  0
  9 14  1  0  0  0  0
 10 11  2  0  0  0  0
 11 17  1  0  0  0  0
 12 28  1  0  0  0  0
 12  7  1  0  0  0  0
 13  3  1  0  0  0  0
 14  8  1  0  0  0  0
 15 21  1  0  0  0  0
 15 16  1  0  0  0  0
 17 19  1  0  0  0  0
 17 20  2  0  0  0  0
 18 16  2  0  0  0  0
 19 15  2  0  0  0  0
 20 18  1  0  0  0  0
 22  1  1  0  0  0  0
 23 22  1  0  0  0  0
 24 22  1  0  0  0  0
 26 25  1  0  0  0  0
 28 29  1  0  0  0  0
 28 27  1  0  0  0  0
 30 29  1  0  0  0  0
 30 33  1  0  0  0  0
 31 30  1  0  0  0  0
 31 32  1  0  0  0  0
 33 34  1  0  0  0  0
M  END
>  <MODEL>
8

>  <REMARK>
 VINA RESULT:      -6.7      4.649      9.173
  Name = 
  8 active torsions:
  status: ('A' for Active; 'I' for Inactive)
    1  A    between atoms: N_1  and  C_6
    2  A    between atoms: C_2  and  C_15
    3  A    between atoms: C_11  and  CA_20
    4  A    between atoms: C_12  and  C_28
    5  A    between atoms: N_13  and  CA_20
    6  A    between atoms: N_13  and  C_33
    7  A    between atoms: CB_14  and  CA_20
    8  A    between atoms: C_29  and  C_33
                            x       y       z     vdW  Elec       q    Type
                         _______ _______ _______ _____ _____    ______ ____

>  <TORSDO>
F 8

$$$$
=
 OpenBabel11052414233D

 34 37  0  0  1  0  0  0  0  0999 V2000
  187.5570  177.5700  137.1540 N   0  0  0  0  0  0  0  0  0  0  0  0
  187.0510  177.6670  139.6300 C   0  0  2  0  0  3  0  0  0  0  0  0
  186.3330  178.0760  141.9530 C   0  0  0  0  0  0  0  0  0  0  0  0
  188.6900  177.2710  141.5130 C   0  0  0  0  0  2  0  0  0  0  0  0
  188.1340  177.7030  138.5190 C   0  0  2  0  0  3  0  0  0  0  0  0
  188.9830  177.6250  142.9640 C   0  0  0  0  0  2  0  0  0  0  0  0
  186.4760  177.7610  143.2450 C   0  0  0  0  0  3  0  0  0  0  0  0
  185.8010  178.4060  139.1380 C   0  0  2  0  0  3  0  0  0  0  0  0
  186.2730  176.8570  137.1570 C   0  0  0  0  0  2  0  0  0  0  0  0
  185.0560  178.5160  141.4830 N   0  0  0  0  0  0  0  0  0  0  0  0
  184.7640  178.6920  140.2250 C   0  0  0  0  0  0  0  0  0  0  0  0
  187.7700  177.2530  143.8220 C   0  0  2  0  0  3  0  0  0  0  0  0
  187.5150  178.1200  141.0130 C   0  0  1  0  0  3  0  0  0  0  0  0
  185.2070  177.6170  137.9610 C   0  0  0  0  0  2  0  0  0  0  0  0
  181.0660  179.5230  140.2490 C   0  0  0  0  0  0  0  0  0  0  0  0
  181.0090  180.5660  139.3200 C   0  0  0  0  0  3  0  0  0  0  0  0
  183.4660  179.3220  139.8830 C   0  0  0  0  0  0  0  0  0  0  0  0
  182.1710  180.9880  138.6670 C   0  0  0  0  0  3  0  0  0  0  0  0
  182.2870  178.9030  140.5270 C   0  0  0  0  0  3  0  0  0  0  0  0
  183.3930  180.3740  138.9530 C   0  0  0  0  0  3  0  0  0  0  0  0
  179.9390  179.1190  140.8890 F   0  0  0  0  0  0  0  0  0  0  0  0
  188.4600  176.8430  136.2430 C   0  0  0  0  0  3  0  0  0  0  0  0
  188.9580  175.5500  136.8720 C   0  0  0  0  0  1  0  0  0  0  0  0
  187.8620  176.5800  134.8630 C   0  0  0  0  0  1  0  0  0  0  0  0
  189.0330  178.9480  138.6030 C   0  0  0  0  0  2  0  0  0  0  0  0
  189.0420  179.7500  137.3090 C   0  0  0  0  0  1  0  0  0  0  0  0
  186.9250  178.6170  145.6180 O   0  0  0  0  0  1  0  0  0  0  0  0
  187.9190  177.6960  145.2780 C   0  0  2  0  0  3  0  0  0  0  0  0
  189.2330  178.2870  145.5130 N   0  0  0  0  0  2  0  0  0  0  0  0
  189.7740  177.7320  146.7490 C   0  0  0  0  0  3  0  0  0  0  0  0
  188.6580  177.0890  147.5620 C   0  0  0  0  0  2  0  0  0  0  0  0
  188.4020  177.8340  148.7220 O   0  0  0  0  0  1  0  0  0  0  0  0
  190.8760  176.7240  146.4480 C   0  0  0  0  0  2  0  0  0  0  0  0
  191.8670  176.8060  147.4300 O   0  0  0  0  0  1  0  0  0  0  0  0
  1  9  1  0  0  0  0
  1  5  1  0  0  0  0
  2 13  1  0  0  0  0
  3  7  2  0  0  0  0
  4  6  1  0  0  0  0
  5 25  1  0  0  0  0
  5  2  1  0  0  0  0
  6 12  1  0  0  0  0
  7 12  1  0  0  0  0
  8  2  1  0  0  0  0
  8 11  1  0  0  0  0
  9 14  1  0  0  0  0
 10  3  1  0  0  0  0
 11 10  2  0  0  0  0
 12 28  1  0  0  0  0
 13  4  1  0  0  0  0
 13  3  1  0  0  0  0
 14  8  1  0  0  0  0
 15 19  1  0  0  0  0
 15 21  1  0  0  0  0
 16 15  2  0  0  0  0
 17 11  1  0  0  0  0
 17 19  2  0  0  0  0
 18 20  2  0  0  0  0
 18 16  1  0  0  0  0
 20 17  1  0  0  0  0
 22 23  1  0  0  0  0
 22  1  1  0  0  0  0
 24 22  1  0  0  0  0
 26 25  1  0  0  0  0
 28 29  1  0  0  0  0
 28 27  1  0  0  0  0
 29 30  1  0  0  0  0
 30 31  1  0  0  0  0
 31 32  1  0  0  0  0
 33 30  1  0  0  0  0
 33 34  1  0  0  0  0
M  END
>  <MODEL>
9

>  <REMARK>
 VINA RESULT:      -6.4      2.651      5.780
  Name = 
  8 active torsions:
  status: ('A' for Active; 'I' for Inactive)
    1  A    between atoms: N_1  and  C_6
    2  A    between atoms: C_2  and  C_15
    3  A    between atoms: C_11  and  CA_20
    4  A    between atoms: C_12  and  C_28
    5  A    between atoms: N_13  and  CA_20
    6  A    between atoms: N_13  and  C_33
    7  A    between atoms: CB_14  and  CA_20
    8  A    between atoms: C_29  and  C_33
                            x       y       z     vdW  Elec       q    Type
                         _______ _______ _______ _____ _____    ______ ____

>  <TORSDO>
F 8

$$$$
