=
 OpenBabel11052413583D

 34 39  0  0  1  0  0  0  0  0999 V2000
  190.4330  177.2740  146.7120 C   0  0  0  0  0  0  0  0  0  0  0  0
  191.6100  175.6790  145.3250 C   0  0  0  0  0  0  0  0  0  0  0  0
  189.7170  177.0940  144.3290 C   0  0  0  0  0  0  0  0  0  0  0  0
  189.1160  177.3880  142.0010 C   0  0  0  0  0  0  0  0  0  0  0  0
  192.2880  176.0540  147.5880 N   0  0  0  0  0  0  0  0  0  0  0  0
  192.4460  175.4000  146.4090 C   0  0  0  0  0  3  0  0  0  0  0  0
  191.7280  177.0530  142.3010 S   0  0  0  0  0  0  0  0  0  0  0  0
  190.6470  176.7080  145.4370 C   0  0  0  0  0  0  0  0  0  0  0  0
  189.6170  177.4690  140.6120 C   0  0  0  0  0  2  0  0  0  0  0  0
  191.2930  176.9600  147.7670 C   0  0  0  0  0  3  0  0  0  0  0  0
  188.4200  177.5260  144.6910 C   0  0  0  0  0  0  0  0  0  0  0  0
  189.2780  178.1940  146.9550 C   0  0  0  0  0  2  0  0  0  0  0  0
  191.7030  174.8820  144.1930 O   0  0  0  0  0  1  0  0  0  0  0  0
  187.8010  177.6760  142.3510 C   0  0  0  0  0  3  0  0  0  0  0  0
  187.4260  177.7410  143.7030 C   0  0  0  0  0  0  0  0  0  0  0  0
  191.1090  177.7480  140.7240 C   0  0  2  0  0  3  0  0  0  0  0  0
  190.0660  177.1000  142.9610 C   0  0  0  0  0  0  0  0  0  0  0  0
  188.1710  177.8540  146.0650 N   0  0  0  0  0  2  0  0  0  0  0  0
  183.7290  178.5670  143.3570 C   0  0  0  0  0  0  0  0  0  0  0  0
  183.3730  178.7910  144.6880 C   0  0  0  0  0  3  0  0  0  0  0  0
  186.0180  178.0860  144.0370 C   0  0  0  0  0  0  0  0  0  0  0  0
  184.3320  178.6710  145.6970 C   0  0  0  0  0  3  0  0  0  0  0  0
  185.0440  178.2210  143.0340 C   0  0  0  0  0  3  0  0  0  0  0  0
  185.6460  178.3240  145.3720 C   0  0  0  0  0  3  0  0  0  0  0  0
  182.8010  178.6880  142.3770 F   0  0  0  0  0  0  0  0  0  0  0  0
  191.8260  177.1410  139.5660 C   0  0  0  0  0  3  0  0  0  0  0  0
  191.1670  176.6300  138.5900 N   0  0  0  0  0  0  0  0  0  0  0  0
  193.3570  176.3180  137.5650 C   0  0  0  0  0  2  0  0  0  0  0  0
  191.8520  176.0450  137.4680 C   0  0  1  0  0  3  0  0  0  0  0  0
  194.1150  175.6620  136.4100 C   0  0  1  0  0  3  0  0  0  0  0  0
  193.8120  174.1630  136.3420 C   0  0  0  0  0  2  0  0  0  0  0  0
  192.3080  173.9060  136.2590 C   0  0  0  0  0  2  0  0  0  0  0  0
  191.5970  174.5410  137.4480 C   0  0  0  0  0  2  0  0  0  0  0  0
  193.7850  176.2780  135.2010 O   0  0  0  0  0  1  0  0  0  0  0  0
  1 12  1  0  0  0  0
  1 10  1  0  0  0  0
  2  8  1  0  0  0  0
  2  6  2  0  0  0  0
  3 11  1  0  0  0  0
  3  8  1  0  0  0  0
  4 14  2  0  0  0  0
  4 17  1  0  0  0  0
  5 10  2  0  0  0  0
  6  5  1  0  0  0  0
  7 17  1  0  0  0  0
  8  1  2  0  0  0  0
  9 16  1  0  0  0  0
  9  4  1  0  0  0  0
 11 18  1  0  0  0  0
 13  2  1  0  0  0  0
 14 15  1  0  0  0  0
 15 21  1  0  0  0  0
 15 11  2  0  0  0  0
 16 26  1  6  0  0  0
 16  7  1  0  0  0  0
 17  3  2  0  0  0  0
 18 12  1  0  0  0  0
 19 20  1  0  0  0  0
 20 22  2  0  0  0  0
 21 24  2  0  0  0  0
 23 19  2  0  0  0  0
 23 21  1  0  0  0  0
 24 22  1  0  0  0  0
 25 19  1  0  0  0  0
 27 26  2  0  0  0  0
 29 28  1  0  0  0  0
 29 27  1  1  0  0  0
 30 34  1  6  0  0  0
 30 28  1  0  0  0  0
 31 30  1  0  0  0  0
 32 31  1  0  0  0  0
 32 33  1  0  0  0  0
 33 29  1  0  0  0  0
M  END
>  <MODEL>
1

>  <REMARK>
 VINA RESULT:     -10.7      0.000      0.000
  Name = 
  3 active torsions:
  status: ('A' for Active; 'I' for Inactive)
    1  A    between atoms: C_3  and  C_29
    2  A    between atoms: C_12  and  C_28
    3  A    between atoms: C_13  and  N_17
                            x       y       z     vdW  Elec       q    Type
                         _______ _______ _______ _____ _____    ______ ____

>  <TORSDO>
F 3

$$$$
=
 OpenBabel11052413583D

 34 39  0  0  1  0  0  0  0  0999 V2000
  191.9170  177.3250  140.1810 C   0  0  0  0  0  0  0  0  0  0  0  0
  190.0560  176.4880  138.8840 C   0  0  0  0  0  0  0  0  0  0  0  0
  189.6770  177.3220  141.2790 C   0  0  0  0  0  0  0  0  0  0  0  0
  187.5820  177.7870  142.4030 C   0  0  0  0  0  0  0  0  0  0  0  0
  192.2300  176.6790  137.9050 N   0  0  0  0  0  0  0  0  0  0  0  0
  190.9220  176.3290  137.7990 C   0  0  0  0  0  3  0  0  0  0  0  0
  187.4370  178.3150  139.8090 S   0  0  0  0  0  0  0  0  0  0  0  0
  190.5300  177.0920  140.0700 C   0  0  0  0  0  0  0  0  0  0  0  0
  186.1930  178.2680  142.2450 C   0  0  0  0  0  2  0  0  0  0  0  0
  192.7450  177.1480  139.0700 C   0  0  0  0  0  3  0  0  0  0  0  0
  190.3020  177.2190  142.5440 C   0  0  0  0  0  0  0  0  0  0  0  0
  192.5190  177.7430  141.4860 C   0  0  0  0  0  2  0  0  0  0  0  0
  188.7700  175.9750  138.7850 O   0  0  0  0  0  1  0  0  0  0  0  0
  188.1650  177.5450  143.6430 C   0  0  0  0  0  3  0  0  0  0  0  0
  189.5340  177.2480  143.7350 C   0  0  0  0  0  0  0  0  0  0  0  0
  186.1610  179.0150  140.9190 C   0  0  2  0  0  3  0  0  0  0  0  0
  188.3110  177.6790  141.2350 C   0  0  0  0  0  0  0  0  0  0  0  0
  191.7350  177.2030  142.5940 N   0  0  0  0  0  2  0  0  0  0  0  0
  190.0650  177.3050  147.5010 C   0  0  0  0  0  0  0  0  0  0  0  0
  191.2950  176.6550  147.6150 C   0  0  0  0  0  3  0  0  0  0  0  0
  190.1280  177.0300  145.0820 C   0  0  0  0  0  0  0  0  0  0  0  0
  191.9500  176.1960  146.4690 C   0  0  0  0  0  3  0  0  0  0  0  0
  189.4880  177.4950  146.2420 C   0  0  0  0  0  3  0  0  0  0  0  0
  191.3710  176.3850  145.2110 C   0  0  0  0  0  3  0  0  0  0  0  0
  189.4310  177.7550  148.6110 F   0  0  0  0  0  0  0  0  0  0  0  0
  184.8080  178.8960  140.3040 C   0  0  0  0  0  3  0  0  0  0  0  0
  184.3950  179.7770  139.4660 N   0  0  0  0  0  0  0  0  0  0  0  0
  182.1730  178.8130  139.7500 C   0  0  0  0  0  2  0  0  0  0  0  0
  183.0910  179.6670  138.8680 C   0  0  1  0  0  3  0  0  0  0  0  0
  180.7650  178.7230  139.1600 C   0  0  1  0  0  3  0  0  0  0  0  0
  180.1860  180.1190  138.9190 C   0  0  0  0  0  2  0  0  0  0  0  0
  181.1170  180.9620  138.0490 C   0  0  0  0  0  2  0  0  0  0  0  0
  182.4950  181.0600  138.6920 C   0  0  0  0  0  2  0  0  0  0  0  0
  180.7830  177.9930  137.9700 O   0  0  0  0  0  1  0  0  0  0  0  0
  1 12  1  0  0  0  0
  2  8  2  0  0  0  0
  3 11  1  0  0  0  0
  4 14  2  0  0  0  0
  5 10  1  0  0  0  0
  6  5  2  0  0  0  0
  6  2  1  0  0  0  0
  7 16  1  0  0  0  0
  7 17  1  0  0  0  0
  8  1  1  0  0  0  0
  8  3  1  0  0  0  0
  9  4  1  0  0  0  0
 10  1  2  0  0  0  0
 11 18  1  0  0  0  0
 11 15  2  0  0  0  0
 12 18  1  0  0  0  0
 13  2  1  0  0  0  0
 14 15  1  0  0  0  0
 15 21  1  0  0  0  0
 16 26  1  6  0  0  0
 16  9  1  0  0  0  0
 17  3  2  0  0  0  0
 17  4  1  0  0  0  0
 19 20  1  0  0  0  0
 19 25  1  0  0  0  0
 21 24  2  0  0  0  0
 21 23  1  0  0  0  0
 22 20  2  0  0  0  0
 23 19  2  0  0  0  0
 24 22  1  0  0  0  0
 27 26  2  0  0  0  0
 29 27  1  1  0  0  0
 29 28  1  0  0  0  0
 30 34  1  6  0  0  0
 30 28  1  0  0  0  0
 31 30  1  0  0  0  0
 32 33  1  0  0  0  0
 32 31  1  0  0  0  0
 33 29  1  0  0  0  0
M  END
>  <MODEL>
2

>  <REMARK>
 VINA RESULT:      -9.7      4.175      8.021
  Name = 
  3 active torsions:
  status: ('A' for Active; 'I' for Inactive)
    1  A    between atoms: C_3  and  C_29
    2  A    between atoms: C_12  and  C_28
    3  A    between atoms: C_13  and  N_17
                            x       y       z     vdW  Elec       q    Type
                         _______ _______ _______ _____ _____    ______ ____

>  <TORSDO>
F 3

$$$$
=
 OpenBabel11052413583D

 34 39  0  0  1  0  0  0  0  0999 V2000
  186.6220  178.4080  145.7820 C   0  0  0  0  0  0  0  0  0  0  0  0
  188.1980  176.9270  144.7000 C   0  0  0  0  0  0  0  0  0  0  0  0
  186.3830  178.0980  143.3180 C   0  0  0  0  0  0  0  0  0  0  0  0
  186.1950  178.2720  140.9100 C   0  0  0  0  0  0  0  0  0  0  0  0
  188.4020  177.4250  147.0310 N   0  0  0  0  0  0  0  0  0  0  0  0
  188.8450  176.7670  145.9280 C   0  0  0  0  0  3  0  0  0  0  0  0
  188.7270  178.2400  141.6920 S   0  0  0  0  0  0  0  0  0  0  0  0
  187.1280  177.8430  144.5920 C   0  0  0  0  0  0  0  0  0  0  0  0
  186.9320  178.3790  139.6320 C   0  0  0  0  0  2  0  0  0  0  0  0
  187.3010  178.2160  146.9870 C   0  0  0  0  0  3  0  0  0  0  0  0
  185.0020  178.3890  143.4210 C   0  0  0  0  0  0  0  0  0  0  0  0
  185.3510  179.1980  145.7730 C   0  0  0  0  0  2  0  0  0  0  0  0
  188.5840  176.1210  143.6380 O   0  0  0  0  0  1  0  0  0  0  0  0
  184.8140  178.4170  141.0030 C   0  0  0  0  0  3  0  0  0  0  0  0
  184.1910  178.4690  142.2600 C   0  0  0  0  0  0  0  0  0  0  0  0
  188.3400  178.8270  140.0020 C   0  0  2  0  0  3  0  0  0  0  0  0
  186.9760  178.1130  142.0370 C   0  0  0  0  0  0  0  0  0  0  0  0
  184.4700  178.7160  144.7120 N   0  0  0  0  0  2  0  0  0  0  0  0
  180.6530  178.8820  143.5910 C   0  0  0  0  0  0  0  0  0  0  0  0
  179.9210  178.9680  142.4050 C   0  0  0  0  0  3  0  0  0  0  0  0
  182.7170  178.6600  142.3180 C   0  0  0  0  0  0  0  0  0  0  0  0
  180.5780  178.8950  141.1740 C   0  0  0  0  0  3  0  0  0  0  0  0
  182.0410  178.7240  143.5470 C   0  0  0  0  0  3  0  0  0  0  0  0
  181.9670  178.7390  141.1320 C   0  0  0  0  0  3  0  0  0  0  0  0
  180.0160  178.9480  144.7850 F   0  0  0  0  0  0  0  0  0  0  0  0
  189.3190  178.2800  139.0200 C   0  0  0  0  0  3  0  0  0  0  0  0
  190.1040  177.3200  139.3500 N   0  0  0  0  0  0  0  0  0  0  0  0
  192.4090  176.5740  139.0830 C   0  0  0  0  0  2  0  0  0  0  0  0
  191.0500  176.7860  138.4070 C   0  0  1  0  0  3  0  0  0  0  0  0
  193.4200  175.9590  138.1130 C   0  0  1  0  0  3  0  0  0  0  0  0
  192.8760  174.6620  137.5100 C   0  0  0  0  0  2  0  0  0  0  0  0
  191.5150  174.8870  136.8510 C   0  0  0  0  0  2  0  0  0  0  0  0
  190.5280  175.4610  137.8610 C   0  0  0  0  0  2  0  0  0  0  0  0
  193.7380  176.8680  137.1020 O   0  0  0  0  0  1  0  0  0  0  0  0
  1 10  1  0  0  0  0
  2  6  2  0  0  0  0
  3 11  1  0  0  0  0
  3  8  1  0  0  0  0
  4 14  2  0  0  0  0
  4 17  1  0  0  0  0
  6  5  1  0  0  0  0
  7 17  1  0  0  0  0
  8  2  1  0  0  0  0
  8  1  2  0  0  0  0
  9 16  1  0  0  0  0
  9  4  1  0  0  0  0
 10  5  2  0  0  0  0
 11 18  1  0  0  0  0
 12  1  1  0  0  0  0
 13  2  1  0  0  0  0
 14 15  1  0  0  0  0
 15 21  1  0  0  0  0
 15 11  2  0  0  0  0
 16 26  1  6  0  0  0
 16  7  1  0  0  0  0
 17  3  2  0  0  0  0
 18 12  1  0  0  0  0
 19 25  1  0  0  0  0
 20 19  2  0  0  0  0
 21 23  2  0  0  0  0
 22 20  1  0  0  0  0
 23 19  1  0  0  0  0
 24 22  2  0  0  0  0
 24 21  1  0  0  0  0
 26 27  2  0  0  0  0
 29 28  1  0  0  0  0
 29 27  1  1  0  0  0
 30 34  1  6  0  0  0
 30 28  1  0  0  0  0
 31 30  1  0  0  0  0
 32 31  1  0  0  0  0
 32 33  1  0  0  0  0
 33 29  1  0  0  0  0
M  END
>  <MODEL>
3

>  <REMARK>
 VINA RESULT:      -9.5      2.150      3.444
  Name = 
  3 active torsions:
  status: ('A' for Active; 'I' for Inactive)
    1  A    between atoms: C_3  and  C_29
    2  A    between atoms: C_12  and  C_28
    3  A    between atoms: C_13  and  N_17
                            x       y       z     vdW  Elec       q    Type
                         _______ _______ _______ _____ _____    ______ ____

>  <TORSDO>
F 3

$$$$
=
 OpenBabel11052413583D

 34 39  0  0  1  0  0  0  0  0999 V2000
  186.9570  178.3770  145.9570 C   0  0  0  0  0  0  0  0  0  0  0  0
  188.5120  176.9030  144.8350 C   0  0  0  0  0  0  0  0  0  0  0  0
  186.6490  178.0550  143.5020 C   0  0  0  0  0  0  0  0  0  0  0  0
  186.3900  178.2170  141.0990 C   0  0  0  0  0  0  0  0  0  0  0  0
  188.7790  177.4120  147.1570 N   0  0  0  0  0  0  0  0  0  0  0  0
  189.1950  176.7530  146.0450 C   0  0  0  0  0  3  0  0  0  0  0  0
  188.9440  178.2070  141.8080 S   0  0  0  0  0  0  0  0  0  0  0  0
  187.4320  177.8100  144.7550 C   0  0  0  0  0  0  0  0  0  0  0  0
  187.0890  178.3230  139.8010 C   0  0  0  0  0  2  0  0  0  0  0  0
  187.6710  178.1960  147.1420 C   0  0  0  0  0  3  0  0  0  0  0  0
  185.2690  178.3360  143.6430 C   0  0  0  0  0  0  0  0  0  0  0  0
  185.6800  179.1580  145.9800 C   0  0  0  0  0  2  0  0  0  0  0  0
  188.8720  176.0950  143.7660 O   0  0  0  0  0  1  0  0  0  0  0  0
  185.0110  178.3530  141.2320 C   0  0  0  0  0  3  0  0  0  0  0  0
  184.4250  178.4060  142.5060 C   0  0  0  0  0  0  0  0  0  0  0  0
  188.5040  178.7830  140.1270 C   0  0  2  0  0  3  0  0  0  0  0  0
  187.2040  178.0690  142.2040 C   0  0  0  0  0  0  0  0  0  0  0  0
  184.7730  178.6660  144.9480 N   0  0  0  0  0  2  0  0  0  0  0  0
  180.7640  178.8200  141.5630 C   0  0  0  0  0  0  0  0  0  0  0  0
  180.1730  178.9830  142.8180 C   0  0  0  0  0  3  0  0  0  0  0  0
  182.9520  178.5860  142.6070 C   0  0  0  0  0  0  0  0  0  0  0  0
  180.9640  178.9540  143.9690 C   0  0  0  0  0  3  0  0  0  0  0  0
  182.1440  178.6280  141.4580 C   0  0  0  0  0  3  0  0  0  0  0  0
  182.3450  178.7600  143.8630 C   0  0  0  0  0  3  0  0  0  0  0  0
  179.9980  178.8530  140.4450 F   0  0  0  0  0  0  0  0  0  0  0  0
  189.4580  178.2390  139.1190 C   0  0  0  0  0  3  0  0  0  0  0  0
  190.2550  177.2820  139.4290 N   0  0  0  0  0  0  0  0  0  0  0  0
  192.5680  176.5930  139.0860 C   0  0  0  0  0  2  0  0  0  0  0  0
  191.1770  176.7510  138.4610 C   0  0  1  0  0  3  0  0  0  0  0  0
  193.5560  175.9820  138.0910 C   0  0  1  0  0  3  0  0  0  0  0  0
  193.0250  174.6550  137.5420 C   0  0  0  0  0  2  0  0  0  0  0  0
  191.6330  174.8260  136.9340 C   0  0  0  0  0  2  0  0  0  0  0  0
  190.6720  175.3990  137.9690 C   0  0  0  0  0  2  0  0  0  0  0  0
  193.8070  176.8730  137.0460 O   0  0  0  0  0  1  0  0  0  0  0  0
  1 12  1  0  0  0  0
  1 10  1  0  0  0  0
  2  6  2  0  0  0  0
  3 11  1  0  0  0  0
  3  8  1  0  0  0  0
  4 14  2  0  0  0  0
  4 17  1  0  0  0  0
  6  5  1  0  0  0  0
  7 17  1  0  0  0  0
  8  2  1  0  0  0  0
  8  1  2  0  0  0  0
  9 16  1  0  0  0  0
  9  4  1  0  0  0  0
 10  5  2  0  0  0  0
 11 18  1  0  0  0  0
 13  2  1  0  0  0  0
 14 15  1  0  0  0  0
 15 21  1  0  0  0  0
 15 11  2  0  0  0  0
 16 26  1  6  0  0  0
 16  7  1  0  0  0  0
 17  3  2  0  0  0  0
 18 12  1  0  0  0  0
 19 20  1  0  0  0  0
 20 22  2  0  0  0  0
 21 24  2  0  0  0  0
 23 19  2  0  0  0  0
 23 21  1  0  0  0  0
 24 22  1  0  0  0  0
 25 19  1  0  0  0  0
 26 27  2  0  0  0  0
 29 28  1  0  0  0  0
 29 27  1  1  0  0  0
 30 34  1  6  0  0  0
 30 28  1  0  0  0  0
 31 30  1  0  0  0  0
 32 31  1  0  0  0  0
 32 33  1  0  0  0  0
 33 29  1  0  0  0  0
M  END
>  <MODEL>
4

>  <REMARK>
 VINA RESULT:      -9.5      1.971      3.063
  Name = 
  3 active torsions:
  status: ('A' for Active; 'I' for Inactive)
    1  A    between atoms: C_3  and  C_29
    2  A    between atoms: C_12  and  C_28
    3  A    between atoms: C_13  and  N_17
                            x       y       z     vdW  Elec       q    Type
                         _______ _______ _______ _____ _____    ______ ____

>  <TORSDO>
F 3

$$$$
=
 OpenBabel11052413583D

 34 39  0  0  1  0  0  0  0  0999 V2000
  185.2960  178.9580  144.8320 C   0  0  0  0  0  0  0  0  0  0  0  0
  187.0110  177.2950  144.4540 C   0  0  0  0  0  0  0  0  0  0  0  0
  185.7910  178.3550  142.4630 C   0  0  0  0  0  0  0  0  0  0  0  0
  186.3540  178.2370  140.1100 C   0  0  0  0  0  0  0  0  0  0  0  0
  186.5360  178.0690  146.6670 N   0  0  0  0  0  0  0  0  0  0  0  0
  187.2410  177.2630  145.8310 C   0  0  0  0  0  3  0  0  0  0  0  0
  188.5210  178.2060  141.6360 S   0  0  0  0  0  0  0  0  0  0  0  0
  186.0940  178.2310  143.9240 C   0  0  0  0  0  0  0  0  0  0  0  0
  187.4490  178.1570  139.1190 C   0  0  0  0  0  2  0  0  0  0  0  0
  185.5610  178.8900  146.2010 C   0  0  0  0  0  3  0  0  0  0  0  0
  184.4700  178.7090  142.1010 C   0  0  0  0  0  0  0  0  0  0  0  0
  184.1490  179.7880  144.3460 C   0  0  0  0  0  2  0  0  0  0  0  0
  187.6390  176.3500  143.6540 O   0  0  0  0  0  1  0  0  0  0  0  0
  185.0250  178.4460  139.7550 C   0  0  0  0  0  3  0  0  0  0  0  0
  184.0560  178.6760  140.7450 C   0  0  0  0  0  0  0  0  0  0  0  0
  188.7080  178.5930  139.8560 C   0  0  2  0  0  3  0  0  0  0  0  0
  186.7440  178.1890  141.4330 C   0  0  0  0  0  0  0  0  0  0  0  0
  183.5980  179.2130  143.1220 N   0  0  0  0  0  2  0  0  0  0  0  0
  180.2630  178.5070  140.5340 C   0  0  0  0  0  0  0  0  0  0  0  0
  180.0070  179.3820  139.4760 C   0  0  0  0  0  3  0  0  0  0  0  0
  182.6520  178.9290  140.3240 C   0  0  0  0  0  0  0  0  0  0  0  0
  181.0670  180.0280  138.8350 C   0  0  0  0  0  3  0  0  0  0  0  0
  181.5770  178.2790  140.9520 C   0  0  0  0  0  3  0  0  0  0  0  0
  182.3800  179.8010  139.2550 C   0  0  0  0  0  3  0  0  0  0  0  0
  179.2360  177.8760  141.1540 F   0  0  0  0  0  0  0  0  0  0  0  0
  189.8950  177.8920  139.2890 C   0  0  0  0  0  3  0  0  0  0  0  0
  189.8410  177.3660  138.1190 N   0  0  0  0  0  0  0  0  0  0  0  0
  192.1310  176.6690  138.5790 C   0  0  0  0  0  2  0  0  0  0  0  0
  190.9840  176.6900  137.5640 C   0  0  1  0  0  3  0  0  0  0  0  0
  193.3410  175.9100  138.0320 C   0  0  1  0  0  3  0  0  0  0  0  0
  192.9450  174.4990  137.5920 C   0  0  0  0  0  2  0  0  0  0  0  0
  191.7920  174.5350  136.5900 C   0  0  0  0  0  2  0  0  0  0  0  0
  190.5950  175.2630  137.1900 C   0  0  0  0  0  2  0  0  0  0  0  0
  193.9110  176.6080  136.9650 O   0  0  0  0  0  1  0  0  0  0  0  0
  1 10  1  0  0  0  0
  2  6  2  0  0  0  0
  3  8  1  0  0  0  0
  4 17  1  0  0  0  0
  6  5  1  0  0  0  0
  8  2  1  0  0  0  0
  8  1  2  0  0  0  0
  9 16  1  0  0  0  0
  9  4  1  0  0  0  0
 10  5  2  0  0  0  0
 11  3  1  0  0  0  0
 11 18  1  0  0  0  0
 12  1  1  0  0  0  0
 13  2  1  0  0  0  0
 14  4  2  0  0  0  0
 14 15  1  0  0  0  0
 15 11  2  0  0  0  0
 16 26  1  6  0  0  0
 16  7  1  0  0  0  0
 17  7  1  0  0  0  0
 17  3  2  0  0  0  0
 18 12  1  0  0  0  0
 19 23  1  0  0  0  0
 19 25  1  0  0  0  0
 20 19  2  0  0  0  0
 21 15  1  0  0  0  0
 21 23  2  0  0  0  0
 22 24  2  0  0  0  0
 22 20  1  0  0  0  0
 24 21  1  0  0  0  0
 27 26  2  0  0  0  0
 29 27  1  1  0  0  0
 29 28  1  0  0  0  0
 30 34  1  6  0  0  0
 30 28  1  0  0  0  0
 31 30  1  0  0  0  0
 32 33  1  0  0  0  0
 32 31  1  0  0  0  0
 33 29  1  0  0  0  0
M  END
>  <MODEL>
5

>  <REMARK>
 VINA RESULT:      -9.3      2.777      4.398
  Name = 
  3 active torsions:
  status: ('A' for Active; 'I' for Inactive)
    1  A    between atoms: C_3  and  C_29
    2  A    between atoms: C_12  and  C_28
    3  A    between atoms: C_13  and  N_17
                            x       y       z     vdW  Elec       q    Type
                         _______ _______ _______ _____ _____    ______ ____

>  <TORSDO>
F 3

$$$$
=
 OpenBabel11052413583D

 34 39  0  0  1  0  0  0  0  0999 V2000
  186.7990  177.3830  144.8270 C   0  0  0  0  0  0  0  0  0  0  0  0
  185.1750  179.1640  144.6330 C   0  0  0  0  0  0  0  0  0  0  0  0
  186.3050  178.2260  142.5310 C   0  0  0  0  0  0  0  0  0  0  0  0
  185.7160  178.5880  140.2100 C   0  0  0  0  0  0  0  0  0  0  0  0
  185.6370  178.1680  146.7580 N   0  0  0  0  0  0  0  0  0  0  0  0
  184.9670  179.0830  146.0120 C   0  0  0  0  0  3  0  0  0  0  0  0
  183.5760  178.5990  141.7740 S   0  0  0  0  0  0  0  0  0  0  0  0
  186.0300  178.2330  144.0030 C   0  0  0  0  0  0  0  0  0  0  0  0
  184.6130  178.8180  139.2520 C   0  0  0  0  0  2  0  0  0  0  0  0
  186.5580  177.3400  146.2010 C   0  0  0  0  0  3  0  0  0  0  0  0
  187.5990  177.8350  142.1140 C   0  0  0  0  0  0  0  0  0  0  0  0
  187.8900  176.5390  144.2460 C   0  0  0  0  0  2  0  0  0  0  0  0
  184.5900  180.2120  143.9350 O   0  0  0  0  0  1  0  0  0  0  0  0
  187.0260  178.3410  139.8130 C   0  0  0  0  0  3  0  0  0  0  0  0
  187.9940  177.9680  140.7590 C   0  0  0  0  0  0  0  0  0  0  0  0
  183.3420  178.3860  139.9710 C   0  0  2  0  0  3  0  0  0  0  0  0
  185.3490  178.5370  141.5400 C   0  0  0  0  0  0  0  0  0  0  0  0
  188.4560  177.1920  143.0680 N   0  0  0  0  0  2  0  0  0  0  0  0
  190.9290  177.0160  138.5340 C   0  0  0  0  0  0  0  0  0  0  0  0
  191.9910  177.0830  139.4380 C   0  0  0  0  0  3  0  0  0  0  0  0
  189.3760  177.6780  140.2900 C   0  0  0  0  0  0  0  0  0  0  0  0
  191.7540  177.4390  140.7670 C   0  0  0  0  0  3  0  0  0  0  0  0
  189.6300  177.3080  138.9590 C   0  0  0  0  0  3  0  0  0  0  0  0
  190.4540  177.7330  141.1910 C   0  0  0  0  0  3  0  0  0  0  0  0
  191.1570  176.6650  137.2450 F   0  0  0  0  0  0  0  0  0  0  0  0
  182.1890  179.2000  139.4920 C   0  0  0  0  0  3  0  0  0  0  0  0
  182.3540  180.0890  138.5810 N   0  0  0  0  0  0  0  0  0  0  0  0
  181.5980  182.3670  138.1590 C   0  0  0  0  0  2  0  0  0  0  0  0
  181.2450  180.8770  138.1120 C   0  0  1  0  0  3  0  0  0  0  0  0
  180.4530  183.2250  137.6180 C   0  0  1  0  0  3  0  0  0  0  0  0
  180.0570  182.7770  136.2090 C   0  0  0  0  0  2  0  0  0  0  0  0
  179.7200  181.2870  136.1760 C   0  0  0  0  0  2  0  0  0  0  0  0
  180.9010  180.4680  136.6840 C   0  0  0  0  0  2  0  0  0  0  0  0
  179.3510  183.1610  138.4740 O   0  0  0  0  0  1  0  0  0  0  0  0
  1 10  1  0  0  0  0
  2  6  2  0  0  0  0
  3  8  1  0  0  0  0
  4 17  1  0  0  0  0
  6  5  1  0  0  0  0
  8  2  1  0  0  0  0
  8  1  2  0  0  0  0
  9 16  1  0  0  0  0
  9  4  1  0  0  0  0
 10  5  2  0  0  0  0
 11  3  1  0  0  0  0
 11 18  1  0  0  0  0
 12  1  1  0  0  0  0
 13  2  1  0  0  0  0
 14  4  2  0  0  0  0
 14 15  1  0  0  0  0
 15 11  2  0  0  0  0
 16 26  1  6  0  0  0
 16  7  1  0  0  0  0
 17  7  1  0  0  0  0
 17  3  2  0  0  0  0
 18 12  1  0  0  0  0
 19 23  2  0  0  0  0
 19 20  1  0  0  0  0
 20 22  2  0  0  0  0
 21 15  1  0  0  0  0
 21 24  2  0  0  0  0
 22 24  1  0  0  0  0
 23 21  1  0  0  0  0
 25 19  1  0  0  0  0
 27 26  2  0  0  0  0
 29 28  1  0  0  0  0
 29 27  1  6  0  0  0
 30 28  1  0  0  0  0
 30 34  1  1  0  0  0
 31 30  1  0  0  0  0
 32 31  1  0  0  0  0
 32 33  1  0  0  0  0
 33 29  1  0  0  0  0
M  END
>  <MODEL>
6

>  <REMARK>
 VINA RESULT:      -8.9      5.566      8.891
  Name = 
  3 active torsions:
  status: ('A' for Active; 'I' for Inactive)
    1  A    between atoms: C_3  and  C_29
    2  A    between atoms: C_12  and  C_28
    3  A    between atoms: C_13  and  N_17
                            x       y       z     vdW  Elec       q    Type
                         _______ _______ _______ _____ _____    ______ ____

>  <TORSDO>
F 3

$$$$
=
 OpenBabel11052413583D

 34 39  0  0  1  0  0  0  0  0999 V2000
  191.4690  177.6810  141.1220 C   0  0  0  0  0  0  0  0  0  0  0  0
  189.9960  176.6350  139.5130 C   0  0  0  0  0  0  0  0  0  0  0  0
  189.0420  177.5870  141.6950 C   0  0  0  0  0  0  0  0  0  0  0  0
  186.7260  177.9710  142.2900 C   0  0  0  0  0  0  0  0  0  0  0  0
  192.3210  176.9190  139.0270 N   0  0  0  0  0  0  0  0  0  0  0  0
  191.0920  176.4710  138.6620 C   0  0  0  0  0  3  0  0  0  0  0  0
  187.1400  178.3270  139.6960 S   0  0  0  0  0  0  0  0  0  0  0  0
  190.1570  177.3440  140.7250 C   0  0  0  0  0  0  0  0  0  0  0  0
  185.3840  178.3430  141.7930 C   0  0  0  0  0  2  0  0  0  0  0  0
  192.5330  177.4940  140.2380 C   0  0  0  0  0  3  0  0  0  0  0  0
  189.3710  177.6070  143.0710 C   0  0  0  0  0  0  0  0  0  0  0  0
  191.7370  178.2190  142.4920 C   0  0  0  0  0  2  0  0  0  0  0  0
  188.7950  176.0280  139.1720 O   0  0  0  0  0  1  0  0  0  0  0  0
  187.0270  177.8490  143.6430 C   0  0  0  0  0  3  0  0  0  0  0  0
  188.3540  177.6550  144.0580 C   0  0  0  0  0  0  0  0  0  0  0  0
  185.6100  179.0030  140.4390 C   0  0  2  0  0  3  0  0  0  0  0  0
  187.7040  177.8440  141.3240 C   0  0  0  0  0  0  0  0  0  0  0  0
  190.7550  177.6950  143.4380 N   0  0  0  0  0  2  0  0  0  0  0  0
  190.1410  177.0250  147.3550 C   0  0  0  0  0  0  0  0  0  0  0  0
  189.1410  177.3480  148.2750 C   0  0  0  0  0  3  0  0  0  0  0  0
  188.6400  177.5640  145.5140 C   0  0  0  0  0  0  0  0  0  0  0  0
  187.8890  177.7730  147.8240 C   0  0  0  0  0  3  0  0  0  0  0  0
  189.8890  177.1280  145.9840 C   0  0  0  0  0  3  0  0  0  0  0  0
  187.6400  177.8780  146.4520 C   0  0  0  0  0  3  0  0  0  0  0  0
  191.3530  176.6070  147.7920 F   0  0  0  0  0  0  0  0  0  0  0  0
  184.4390  178.7500  139.5520 C   0  0  0  0  0  3  0  0  0  0  0  0
  183.5100  177.9420  139.9150 N   0  0  0  0  0  0  0  0  0  0  0  0
  182.7240  178.0310  137.6100 C   0  0  0  0  0  2  0  0  0  0  0  0
  182.3770  177.6950  139.0640 C   0  0  1  0  0  3  0  0  0  0  0  0
  181.5500  177.7280  136.6770 C   0  0  1  0  0  3  0  0  0  0  0  0
  181.0920  176.2760  136.8320 C   0  0  0  0  0  2  0  0  0  0  0  0
  180.7620  175.9530  138.2890 C   0  0  0  0  0  2  0  0  0  0  0  0
  181.9690  176.2300  139.1770 C   0  0  0  0  0  2  0  0  0  0  0  0
  180.4900  178.6010  136.9300 O   0  0  0  0  0  1  0  0  0  0  0  0
  1 12  1  0  0  0  0
  2  8  2  0  0  0  0
  3 11  1  0  0  0  0
  4 14  2  0  0  0  0
  5 10  1  0  0  0  0
  6  5  2  0  0  0  0
  6  2  1  0  0  0  0
  7 16  1  0  0  0  0
  7 17  1  0  0  0  0
  8  1  1  0  0  0  0
  8  3  1  0  0  0  0
  9  4  1  0  0  0  0
 10  1  2  0  0  0  0
 11 18  1  0  0  0  0
 11 15  2  0  0  0  0
 12 18  1  0  0  0  0
 13  2  1  0  0  0  0
 14 15  1  0  0  0  0
 15 21  1  0  0  0  0
 16 26  1  6  0  0  0
 16  9  1  0  0  0  0
 17  3  2  0  0  0  0
 17  4  1  0  0  0  0
 19 25  1  0  0  0  0
 19 20  1  0  0  0  0
 21 23  1  0  0  0  0
 21 24  2  0  0  0  0
 22 20  2  0  0  0  0
 23 19  2  0  0  0  0
 24 22  1  0  0  0  0
 26 27  2  0  0  0  0
 28 29  1  0  0  0  0
 29 33  1  0  0  0  0
 29 27  1  1  0  0  0
 30 31  1  0  0  0  0
 30 34  1  1  0  0  0
 30 28  1  0  0  0  0
 31 32  1  0  0  0  0
 32 33  1  0  0  0  0
M  END
>  <MODEL>
7

>  <REMARK>
 VINA RESULT:      -8.7      4.552      7.353
  Name = 
  3 active torsions:
  status: ('A' for Active; 'I' for Inactive)
    1  A    between atoms: C_3  and  C_29
    2  A    between atoms: C_12  and  C_28
    3  A    between atoms: C_13  and  N_17
                            x       y       z     vdW  Elec       q    Type
                         _______ _______ _______ _____ _____    ______ ____

>  <TORSDO>
F 3

$$$$
=
 OpenBabel11052413583D

 34 39  0  0  1  0  0  0  0  0999 V2000
  186.0920  178.7430  145.8040 C   0  0  0  0  0  0  0  0  0  0  0  0
  187.3700  177.1000  144.5730 C   0  0  0  0  0  0  0  0  0  0  0  0
  185.3760  178.2680  143.4620 C   0  0  0  0  0  0  0  0  0  0  0  0
  184.7410  178.2760  141.1250 C   0  0  0  0  0  0  0  0  0  0  0  0
  188.0340  177.7540  146.7760 N   0  0  0  0  0  0  0  0  0  0  0  0
  188.2310  176.9930  145.6690 C   0  0  0  0  0  3  0  0  0  0  0  0
  187.3720  178.1570  141.4220 S   0  0  0  0  0  0  0  0  0  0  0  0
  186.3380  178.0650  144.5920 C   0  0  0  0  0  0  0  0  0  0  0  0
  185.2260  178.2460  139.7280 C   0  0  0  0  0  2  0  0  0  0  0  0
  186.9790  178.6020  146.8740 C   0  0  0  0  0  3  0  0  0  0  0  0
  184.0530  178.6440  143.7960 C   0  0  0  0  0  0  0  0  0  0  0  0
  184.8770  179.6010  145.9660 C   0  0  0  0  0  2  0  0  0  0  0  0
  187.5120  176.1970  143.5280 O   0  0  0  0  0  1  0  0  0  0  0  0
  183.4100  178.5060  141.4610 C   0  0  0  0  0  3  0  0  0  0  0  0
  183.0400  178.6850  142.8040 C   0  0  0  0  0  0  0  0  0  0  0  0
  186.6950  178.6400  139.7910 C   0  0  2  0  0  3  0  0  0  0  0  0
  185.7150  178.1560  142.0960 C   0  0  0  0  0  0  0  0  0  0  0  0
  183.7910  179.0940  145.1320 N   0  0  0  0  0  2  0  0  0  0  0  0
  179.5930  180.2910  142.8300 C   0  0  0  0  0  0  0  0  0  0  0  0
  178.9310  179.5040  143.7730 C   0  0  0  0  0  3  0  0  0  0  0  0
  181.6140  178.9630  143.1200 C   0  0  0  0  0  0  0  0  0  0  0  0
  179.6030  178.4510  144.3970 C   0  0  0  0  0  3  0  0  0  0  0  0
  180.9270  180.0250  142.5090 C   0  0  0  0  0  3  0  0  0  0  0  0
  180.9360  178.1840  144.0750 C   0  0  0  0  0  3  0  0  0  0  0  0
  178.9440  181.3170  142.2270 F   0  0  0  0  0  0  0  0  0  0  0  0
  187.4460  177.9680  138.6920 C   0  0  0  0  0  3  0  0  0  0  0  0
  188.3520  177.0990  138.9600 N   0  0  0  0  0  0  0  0  0  0  0  0
  188.1150  175.9810  136.8070 C   0  0  0  0  0  2  0  0  0  0  0  0
  189.0790  176.4450  137.9050 C   0  0  1  0  0  3  0  0  0  0  0  0
  188.8690  175.3270  135.6480 C   0  0  1  0  0  3  0  0  0  0  0  0
  189.9460  176.2670  135.1000 C   0  0  0  0  0  2  0  0  0  0  0  0
  190.8910  176.7310  136.2080 C   0  0  0  0  0  2  0  0  0  0  0  0
  190.1040  177.4120  137.3220 C   0  0  0  0  0  2  0  0  0  0  0  0
  189.4420  174.1220  136.0590 O   0  0  0  0  0  1  0  0  0  0  0  0
  1 12  1  0  0  0  0
  1 10  1  0  0  0  0
  2  8  1  0  0  0  0
  2  6  2  0  0  0  0
  3 11  1  0  0  0  0
  3  8  1  0  0  0  0
  4 14  2  0  0  0  0
  4 17  1  0  0  0  0
  5 10  2  0  0  0  0
  6  5  1  0  0  0  0
  7 17  1  0  0  0  0
  8  1  2  0  0  0  0
  9 16  1  0  0  0  0
  9  4  1  0  0  0  0
 11 18  1  0  0  0  0
 13  2  1  0  0  0  0
 14 15  1  0  0  0  0
 15 21  1  0  0  0  0
 15 11  2  0  0  0  0
 16 26  1  6  0  0  0
 16  7  1  0  0  0  0
 17  3  2  0  0  0  0
 18 12  1  0  0  0  0
 19 20  1  0  0  0  0
 20 22  2  0  0  0  0
 21 24  2  0  0  0  0
 23 19  2  0  0  0  0
 23 21  1  0  0  0  0
 24 22  1  0  0  0  0
 25 19  1  0  0  0  0
 26 27  2  0  0  0  0
 28 29  1  0  0  0  0
 29 27  1  1  0  0  0
 30 34  1  1  0  0  0
 30 28  1  0  0  0  0
 31 30  1  0  0  0  0
 31 32  1  0  0  0  0
 32 33  1  0  0  0  0
 33 29  1  0  0  0  0
M  END
>  <MODEL>
8

>  <REMARK>
 VINA RESULT:      -8.2      2.971      4.510
  Name = 
  3 active torsions:
  status: ('A' for Active; 'I' for Inactive)
    1  A    between atoms: C_3  and  C_29
    2  A    between atoms: C_12  and  C_28
    3  A    between atoms: C_13  and  N_17
                            x       y       z     vdW  Elec       q    Type
                         _______ _______ _______ _____ _____    ______ ____

>  <TORSDO>
F 3

$$$$
=
 OpenBabel11052413583D

 34 39  0  0  1  0  0  0  0  0999 V2000
  191.0110  176.2330  145.4760 C   0  0  0  0  0  0  0  0  0  0  0  0
  189.4940  177.9260  146.3010 C   0  0  0  0  0  0  0  0  0  0  0  0
  189.4530  177.2660  143.8240 C   0  0  0  0  0  0  0  0  0  0  0  0
  187.8010  177.8190  142.1410 C   0  0  0  0  0  0  0  0  0  0  0  0
  190.9410  176.7540  147.8030 N   0  0  0  0  0  0  0  0  0  0  0  0
  189.9880  177.6980  147.5880 C   0  0  0  0  0  3  0  0  0  0  0  0
  186.7010  177.5510  144.5370 S   0  0  0  0  0  0  0  0  0  0  0  0
  189.9340  177.1120  145.2330 C   0  0  0  0  0  0  0  0  0  0  0  0
  186.3690  178.0770  141.8740 C   0  0  0  0  0  2  0  0  0  0  0  0
  191.4730  176.0400  146.7790 C   0  0  0  0  0  3  0  0  0  0  0  0
  190.3780  176.9940  142.7880 C   0  0  0  0  0  0  0  0  0  0  0  0
  191.6800  175.5150  144.3450 C   0  0  0  0  0  2  0  0  0  0  0  0
  188.6390  179.0010  146.1000 O   0  0  0  0  0  1  0  0  0  0  0  0
  188.7490  177.6890  141.1310 C   0  0  0  0  0  3  0  0  0  0  0  0
  190.0580  177.2830  141.4370 C   0  0  0  0  0  0  0  0  0  0  0  0
  185.6150  177.5030  143.0650 C   0  0  2  0  0  3  0  0  0  0  0  0
  188.1320  177.6160  143.4650 C   0  0  0  0  0  0  0  0  0  0  0  0
  191.5940  176.3130  143.1250 N   0  0  0  0  0  2  0  0  0  0  0  0
  191.5820  176.3890  138.0690 C   0  0  0  0  0  0  0  0  0  0  0  0
  192.9090  176.7790  138.2560 C   0  0  0  0  0  3  0  0  0  0  0  0
  191.0340  177.1230  140.3260 C   0  0  0  0  0  0  0  0  0  0  0  0
  193.3070  177.3350  139.4740 C   0  0  0  0  0  3  0  0  0  0  0  0
  190.6520  176.5560  139.0990 C   0  0  0  0  0  3  0  0  0  0  0  0
  192.3760  177.5030  140.5030 C   0  0  0  0  0  3  0  0  0  0  0  0
  191.1950  175.8450  136.8900 F   0  0  0  0  0  0  0  0  0  0  0  0
  184.3720  178.2900  143.3040 C   0  0  0  0  0  3  0  0  0  0  0  0
  183.4070  178.2550  142.4570 N   0  0  0  0  0  0  0  0  0  0  0  0
  181.1960  178.7480  141.5580 C   0  0  0  0  0  2  0  0  0  0  0  0
  182.2040  179.0120  142.6820 C   0  0  1  0  0  3  0  0  0  0  0  0
  179.8880  179.5020  141.8010 C   0  0  1  0  0  3  0  0  0  0  0  0
  179.3090  179.1600  143.1760 C   0  0  0  0  0  2  0  0  0  0  0  0
  180.3290  179.4160  144.2840 C   0  0  0  0  0  2  0  0  0  0  0  0
  181.6010  178.6150  144.0260 C   0  0  0  0  0  2  0  0  0  0  0  0
  180.0920  180.8790  141.6900 O   0  0  0  0  0  1  0  0  0  0  0  0
  1 10  1  0  0  0  0
  2  6  2  0  0  0  0
  3  8  1  0  0  0  0
  4 17  2  0  0  0  0
  6  5  1  0  0  0  0
  8  1  2  0  0  0  0
  8  2  1  0  0  0  0
  9  4  1  0  0  0  0
  9 16  1  0  0  0  0
 10  5  2  0  0  0  0
 11 18  1  0  0  0  0
 11  3  2  0  0  0  0
 12  1  1  0  0  0  0
 13  2  1  0  0  0  0
 14 15  2  0  0  0  0
 14  4  1  0  0  0  0
 15 11  1  0  0  0  0
 16 26  1  1  0  0  0
 16  7  1  0  0  0  0
 17  3  1  0  0  0  0
 17  7  1  0  0  0  0
 18 12  1  0  0  0  0
 19 20  2  0  0  0  0
 19 23  1  0  0  0  0
 20 22  1  0  0  0  0
 21 24  1  0  0  0  0
 21 15  1  0  0  0  0
 22 24  2  0  0  0  0
 23 21  2  0  0  0  0
 25 19  1  0  0  0  0
 27 26  2  0  0  0  0
 28 30  1  0  0  0  0
 28 29  1  0  0  0  0
 29 27  1  6  0  0  0
 29 33  1  0  0  0  0
 30 34  1  1  0  0  0
 30 31  1  0  0  0  0
 31 32  1  0  0  0  0
 33 32  1  0  0  0  0
M  END
>  <MODEL>
9

>  <REMARK>
 VINA RESULT:      -8.1      3.787      8.498
  Name = 
  3 active torsions:
  status: ('A' for Active; 'I' for Inactive)
    1  A    between atoms: C_3  and  C_29
    2  A    between atoms: C_12  and  C_28
    3  A    between atoms: C_13  and  N_17
                            x       y       z     vdW  Elec       q    Type
                         _______ _______ _______ _____ _____    ______ ____

>  <TORSDO>
F 3

$$$$
