=
 OpenBabel11052415343D

 37 37  0  0  1  0  0  0  0  0999 V2000
  190.4900  175.1490  142.5870 O   0  0  0  0  0  1  0  0  0  0  0  0
  189.8410  176.3910  142.6710 C   0  0  1  0  0  0  0  0  0  0  0  0
  191.8870  177.3480  143.5880 O   0  0  0  0  0  0  0  0  0  0  0  0
  191.4200  176.5370  144.6420 C   0  0  2  0  0  3  0  0  0  0  0  0
  190.4900  177.2780  143.7530 C   0  0  2  0  0  3  0  0  0  0  0  0
  191.5610  177.2890  145.9510 C   0  0  0  0  0  2  0  0  0  0  0  0
  192.2330  175.1930  146.8210 F   0  0  0  0  0  0  0  0  0  0  0  0
  191.5280  176.3380  147.1380 C   0  0  0  0  0  0  0  0  0  0  0  0
  190.2210  175.9940  147.4330 F   0  0  0  0  0  0  0  0  0  0  0  0
  192.1100  176.9340  148.2420 F   0  0  0  0  0  0  0  0  0  0  0  0
  189.9810  177.1170  141.3140 C   0  0  2  0  0  3  0  0  0  0  0  0
  192.0200  176.9420  139.7370 C   0  0  0  0  0  0  0  0  0  0  0  0
  191.3760  177.3780  140.9390 N   0  0  0  0  0  2  0  0  0  0  0  0
  191.4230  176.1980  138.9170 O   0  0  0  0  0  0  0  0  0  0  0  0
  193.3600  177.3380  139.4780 N   0  0  0  0  0  1  0  0  0  0  0  0
  189.0890  178.3480  141.1610 C   0  0  0  0  0  2  0  0  0  0  0  0
  188.7580  178.5950  139.7030 C   0  0  0  0  0  2  0  0  0  0  0  0
  188.2650  177.3080  139.0810 C   0  0  0  0  0  2  0  0  0  0  0  0
  187.2510  177.5880  138.1620 O   0  0  0  0  0  0  0  0  0  0  0  0
  186.4260  176.9200  136.0320 C   0  0  0  0  0  1  0  0  0  0  0  0
  187.4380  176.6620  137.1340 C   0  0  1  0  0  3  0  0  0  0  0  0
  188.8520  176.7900  136.5880 C   0  0  0  0  0  2  0  0  0  0  0  0
  189.2110  174.3430  136.9140 C   0  0  0  0  0  1  0  0  0  0  0  0
  189.3120  175.4950  135.9330 C   0  0  0  0  0  2  0  0  0  0  0  0
  188.3750  176.1790  143.0790 C   0  0  0  0  0  2  0  0  0  0  0  0
  188.0090  176.8460  144.3990 C   0  0  0  0  0  2  0  0  0  0  0  0
  187.0840  178.0300  144.1530 C   0  0  0  0  0  2  0  0  0  0  0  0
  186.1990  178.2440  145.2920 N   0  0  0  0  0  0  0  0  0  0  0  0
  184.2170  179.1300  146.1640 O   0  0  0  0  0  0  0  0  0  0  0  0
  184.9540  178.9540  145.1570 C   0  0  0  0  0  0  0  0  0  0  0  0
  186.5320  177.5880  146.5470 C   0  0  0  0  0  1  0  0  0  0  0  0
  184.5170  179.5040  143.8380 C   0  0  0  0  0  2  0  0  0  0  0  0
  183.6200  178.5160  143.1010 C   0  0  1  0  0  3  0  0  0  0  0  0
  182.2090  179.0680  142.9920 C   0  0  0  0  0  1  0  0  0  0  0  0
  184.1750  178.1330  141.7270 C   0  0  0  0  0  2  0  0  0  0  0  0
  185.2480  179.0990  141.2430 C   0  0  0  0  0  2  0  0  0  0  0  0
  184.8050  179.7420  140.0890 O   0  0  0  0  0  1  0  0  0  0  0  0
  2  1  1  6  0  0  0
  2 25  1  0  0  0  0
  3  5  1  0  0  0  0
  3  4  1  0  0  0  0
  4  6  1  1  0  0  0
  5  2  1  6  0  0  0
  5  4  1  0  0  0  0
  6  8  1  0  0  0  0
  7  8  1  0  0  0  0
  8  9  1  0  0  0  0
  8 10  1  0  0  0  0
 11 16  1  1  0  0  0
 11  2  1  0  0  0  0
 12 13  1  0  0  0  0
 13 11  1  0  0  0  0
 14 12  2  0  0  0  0
 15 12  1  0  0  0  0
 17 16  1  0  0  0  0
 18 17  1  0  0  0  0
 19 18  1  0  0  0  0
 21 20  1  6  0  0  0
 21 19  1  0  0  0  0
 22 21  1  0  0  0  0
 24 22  1  0  0  0  0
 24 23  1  0  0  0  0
 25 26  1  0  0  0  0
 27 26  1  0  0  0  0
 27 28  1  0  0  0  0
 28 31  1  0  0  0  0
 30 28  1  0  0  0  0
 30 29  2  0  0  0  0
 32 30  1  0  0  0  0
 33 34  1  6  0  0  0
 33 32  1  0  0  0  0
 35 33  1  0  0  0  0
 36 35  1  0  0  0  0
 37 36  1  0  0  0  0
M  END
>  <MODEL>
1

>  <REMARK>
 VINA RESULT:      -6.9      0.000      0.000
  Name = 
  20 active torsions:
  status: ('A' for Active; 'I' for Inactive)
    1  A    between atoms: C_1  and  N_5
    2  A    between atoms: C_1  and  C_36
    3  A    between atoms: C_6  and  O_8
    4  A    between atoms: C_6  and  C_31
    5  A    between atoms: C_7  and  C_33
    6  A    between atoms: O_8  and  C_19
    7  A    between atoms: C_10  and  C_14
    8  A    between atoms: C_10  and  C_20
    9  A    between atoms: C_10  and  N_22
   10  A    between atoms: C_11  and  C_26
   11  A    between atoms: C_11  and  C_33
   12  A    between atoms: C_14  and  C_31
   13  A    between atoms: C_16  and  C_30
   14  A    between atoms: C_17  and  C_26
   15  A    between atoms: C_18  and  C_19
   16  A    between atoms: C_18  and  C_35
   17  A    between atoms: C_20  and  C_24
   18  A    between atoms: C_20  and  C_29
   19  A    between atoms: C_21  and  C_30
   20  A    between atoms: C_29  and  C_36
                            x       y       z     vdW  Elec       q    Type
                         _______ _______ _______ _____ _____    ______ ____

>  <TORSDO>
F 20

$$$$
=
 OpenBabel11052415343D

 37 37  0  0  1  0  0  0  0  0999 V2000
  187.9730  179.5640  141.2820 O   0  0  0  0  0  1  0  0  0  0  0  0
  187.5310  178.2370  141.1460 C   0  0  1  0  0  0  0  0  0  0  0  0
  188.8350  178.1120  143.2030 O   0  0  0  0  0  0  0  0  0  0  0  0
  189.5870  177.3270  142.3060 C   0  0  2  0  0  3  0  0  0  0  0  0
  188.1030  177.3500  142.2710 C   0  0  2  0  0  3  0  0  0  0  0  0
  190.0470  176.0660  143.0100 C   0  0  0  0  0  2  0  0  0  0  0  0
  191.2280  176.8930  144.8870 F   0  0  0  0  0  0  0  0  0  0  0  0
  191.4040  176.2670  143.6680 C   0  0  0  0  0  0  0  0  0  0  0  0
  192.2050  177.0610  142.8670 F   0  0  0  0  0  0  0  0  0  0  0  0
  192.0200  175.0460  143.8730 F   0  0  0  0  0  0  0  0  0  0  0  0
  185.9900  178.2140  141.2590 C   0  0  2  0  0  3  0  0  0  0  0  0
  184.5740  179.3440  139.4160 C   0  0  0  0  0  0  0  0  0  0  0  0
  185.3460  179.3690  140.6210 N   0  0  0  0  0  2  0  0  0  0  0  0
  184.4590  178.2850  138.7440 O   0  0  0  0  0  0  0  0  0  0  0  0
  183.9470  180.5350  138.9600 N   0  0  0  0  0  1  0  0  0  0  0  0
  185.4640  177.9500  142.6690 C   0  0  0  0  0  2  0  0  0  0  0  0
  184.5450  179.0680  143.1180 C   0  0  0  0  0  2  0  0  0  0  0  0
  184.7340  179.3000  144.6010 C   0  0  0  0  0  2  0  0  0  0  0  0
  186.0940  179.2600  144.9140 O   0  0  0  0  0  0  0  0  0  0  0  0
  184.7470  178.3050  146.6280 C   0  0  0  0  0  1  0  0  0  0  0  0
  186.1510  178.6620  146.1740 C   0  0  1  0  0  3  0  0  0  0  0  0
  187.0130  177.4110  146.1020 C   0  0  0  0  0  2  0  0  0  0  0  0
  188.4780  177.5770  148.1160 C   0  0  0  0  0  1  0  0  0  0  0  0
  188.4250  177.6810  146.6040 C   0  0  0  0  0  2  0  0  0  0  0  0
  188.0350  177.6630  139.8140 C   0  0  0  0  0  2  0  0  0  0  0  0
  189.0170  178.5770  139.0910 C   0  0  0  0  0  2  0  0  0  0  0  0
  189.5370  177.9010  137.8300 C   0  0  0  0  0  2  0  0  0  0  0  0
  190.2240  176.6560  138.1530 N   0  0  0  0  0  0  0  0  0  0  0  0
  190.4780  174.3530  137.8300 O   0  0  0  0  0  0  0  0  0  0  0  0
  189.8700  175.4130  137.5210 C   0  0  0  0  0  0  0  0  0  0  0  0
  191.3850  176.7260  139.0260 C   0  0  0  0  0  1  0  0  0  0  0  0
  188.7780  175.3470  136.5020 C   0  0  0  0  0  2  0  0  0  0  0  0
  187.4350  175.0480  137.1570 C   0  0  1  0  0  3  0  0  0  0  0  0
  186.3770  176.0120  136.6470 C   0  0  0  0  0  1  0  0  0  0  0  0
  187.0000  173.5940  136.9640 C   0  0  0  0  0  2  0  0  0  0  0  0
  185.4880  173.4460  136.8680 C   0  0  0  0  0  2  0  0  0  0  0  0
  185.0110  172.8080  138.0110 O   0  0  0  0  0  1  0  0  0  0  0  0
  2 11  1  0  0  0  0
  2  1  1  1  0  0  0
  4  6  1  1  0  0  0
  4  3  1  0  0  0  0
  5  2  1  6  0  0  0
  5  4  1  0  0  0  0
  5  3  1  0  0  0  0
  6  8  1  0  0  0  0
  8 10  1  0  0  0  0
  8  7  1  0  0  0  0
  9  8  1  0  0  0  0
 11 16  1  1  0  0  0
 12 13  1  0  0  0  0
 13 11  1  0  0  0  0
 14 12  2  0  0  0  0
 15 12  1  0  0  0  0
 16 17  1  0  0  0  0
 17 18  1  0  0  0  0
 18 19  1  0  0  0  0
 19 21  1  0  0  0  0
 21 20  1  6  0  0  0
 22 21  1  0  0  0  0
 22 24  1  0  0  0  0
 24 23  1  0  0  0  0
 25  2  1  0  0  0  0
 26 25  1  0  0  0  0
 27 28  1  0  0  0  0
 27 26  1  0  0  0  0
 28 31  1  0  0  0  0
 30 29  2  0  0  0  0
 30 28  1  0  0  0  0
 32 33  1  0  0  0  0
 32 30  1  0  0  0  0
 33 34  1  6  0  0  0
 35 33  1  0  0  0  0
 36 35  1  0  0  0  0
 36 37  1  0  0  0  0
M  END
>  <MODEL>
2

>  <REMARK>
 VINA RESULT:      -6.8      2.570      7.269
  Name = 
  20 active torsions:
  status: ('A' for Active; 'I' for Inactive)
    1  A    between atoms: C_1  and  N_5
    2  A    between atoms: C_1  and  C_36
    3  A    between atoms: C_6  and  O_8
    4  A    between atoms: C_6  and  C_31
    5  A    between atoms: C_7  and  C_33
    6  A    between atoms: O_8  and  C_19
    7  A    between atoms: C_10  and  C_14
    8  A    between atoms: C_10  and  C_20
    9  A    between atoms: C_10  and  N_22
   10  A    between atoms: C_11  and  C_26
   11  A    between atoms: C_11  and  C_33
   12  A    between atoms: C_14  and  C_31
   13  A    between atoms: C_16  and  C_30
   14  A    between atoms: C_17  and  C_26
   15  A    between atoms: C_18  and  C_19
   16  A    between atoms: C_18  and  C_35
   17  A    between atoms: C_20  and  C_24
   18  A    between atoms: C_20  and  C_29
   19  A    between atoms: C_21  and  C_30
   20  A    between atoms: C_29  and  C_36
                            x       y       z     vdW  Elec       q    Type
                         _______ _______ _______ _____ _____    ______ ____

>  <TORSDO>
F 20

$$$$
=
 OpenBabel11052415343D

 37 37  0  0  1  0  0  0  0  0999 V2000
  190.3850  175.2490  142.5610 O   0  0  0  0  0  1  0  0  0  0  0  0
  189.7060  176.4660  142.7400 C   0  0  1  0  0  0  0  0  0  0  0  0
  191.7870  177.4210  143.5770 O   0  0  0  0  0  0  0  0  0  0  0  0
  191.3840  176.5750  144.6290 C   0  0  2  0  0  3  0  0  0  0  0  0
  190.4010  177.3290  143.8120 C   0  0  2  0  0  3  0  0  0  0  0  0
  191.5850  177.2910  145.9510 C   0  0  0  0  0  2  0  0  0  0  0  0
  190.2430  176.0160  147.4260 F   0  0  0  0  0  0  0  0  0  0  0  0
  191.5570  176.3130  147.1160 C   0  0  0  0  0  0  0  0  0  0  0  0
  192.1630  176.8780  148.2230 F   0  0  0  0  0  0  0  0  0  0  0  0
  192.2140  175.1460  146.7740 F   0  0  0  0  0  0  0  0  0  0  0  0
  189.7320  177.2480  141.4080 C   0  0  2  0  0  3  0  0  0  0  0  0
  188.0970  178.3970  139.7700 C   0  0  0  0  0  0  0  0  0  0  0  0
  188.3920  177.5690  140.9000 N   0  0  0  0  0  2  0  0  0  0  0  0
  189.0120  179.0020  139.1540 O   0  0  0  0  0  0  0  0  0  0  0  0
  186.7480  178.5550  139.3510 N   0  0  0  0  0  1  0  0  0  0  0  0
  190.6390  176.6430  140.3370 C   0  0  0  0  0  2  0  0  0  0  0  0
  191.9180  177.4430  140.2010 C   0  0  0  0  0  2  0  0  0  0  0  0
  192.7440  176.8720  139.0690 C   0  0  0  0  0  2  0  0  0  0  0  0
  191.9290  176.6530  137.9560 O   0  0  0  0  0  0  0  0  0  0  0  0
  192.9430  174.5240  137.6350 C   0  0  0  0  0  1  0  0  0  0  0  0
  192.7220  175.9180  137.0740 C   0  0  1  0  0  3  0  0  0  0  0  0
  192.0330  175.8360  135.7200 C   0  0  0  0  0  2  0  0  0  0  0  0
  194.1990  176.3790  134.6070 C   0  0  0  0  0  1  0  0  0  0  0  0
  193.0110  175.4360  134.6250 C   0  0  0  0  0  2  0  0  0  0  0  0
  188.2790  176.1890  143.2350 C   0  0  0  0  0  2  0  0  0  0  0  0
  187.8820  177.0310  144.4430 C   0  0  0  0  0  2  0  0  0  0  0  0
  186.7570  177.9880  144.0720 C   0  0  0  0  0  2  0  0  0  0  0  0
  185.8540  178.1900  145.1980 N   0  0  0  0  0  0  0  0  0  0  0  0
  183.8740  179.0970  146.0540 O   0  0  0  0  0  0  0  0  0  0  0  0
  184.6280  178.9320  145.0580 C   0  0  0  0  0  0  0  0  0  0  0  0
  186.1470  177.4930  146.4400 C   0  0  0  0  0  1  0  0  0  0  0  0
  184.2300  179.5280  143.7460 C   0  0  0  0  0  2  0  0  0  0  0  0
  183.3030  178.5930  142.9770 C   0  0  1  0  0  3  0  0  0  0  0  0
  181.8620  179.0540  143.1140 C   0  0  0  0  0  1  0  0  0  0  0  0
  183.7040  178.4500  141.5070 C   0  0  0  0  0  2  0  0  0  0  0  0
  182.5150  178.5770  140.5650 C   0  0  0  0  0  2  0  0  0  0  0  0
  182.9690  178.9130  139.2910 O   0  0  0  0  0  1  0  0  0  0  0  0
  2  1  1  6  0  0  0
  2 25  1  0  0  0  0
  3  5  1  0  0  0  0
  3  4  1  0  0  0  0
  4  6  1  1  0  0  0
  5  2  1  6  0  0  0
  5  4  1  0  0  0  0
  6  8  1  0  0  0  0
  8  7  1  0  0  0  0
  8  9  1  0  0  0  0
 10  8  1  0  0  0  0
 11 16  1  6  0  0  0
 11  2  1  0  0  0  0
 12 13  1  0  0  0  0
 13 11  1  0  0  0  0
 14 12  2  0  0  0  0
 15 12  1  0  0  0  0
 17 16  1  0  0  0  0
 18 17  1  0  0  0  0
 19 18  1  0  0  0  0
 21 20  1  1  0  0  0
 21 19  1  0  0  0  0
 22 21  1  0  0  0  0
 23 24  1  0  0  0  0
 24 22  1  0  0  0  0
 25 26  1  0  0  0  0
 27 26  1  0  0  0  0
 27 28  1  0  0  0  0
 28 31  1  0  0  0  0
 30 28  1  0  0  0  0
 30 29  2  0  0  0  0
 32 30  1  0  0  0  0
 33 34  1  6  0  0  0
 33 32  1  0  0  0  0
 35 33  1  0  0  0  0
 36 35  1  0  0  0  0
 37 36  1  0  0  0  0
M  END
>  <MODEL>
3

>  <REMARK>
 VINA RESULT:      -6.7      1.839      2.927
  Name = 
  20 active torsions:
  status: ('A' for Active; 'I' for Inactive)
    1  A    between atoms: C_1  and  N_5
    2  A    between atoms: C_1  and  C_36
    3  A    between atoms: C_6  and  O_8
    4  A    between atoms: C_6  and  C_31
    5  A    between atoms: C_7  and  C_33
    6  A    between atoms: O_8  and  C_19
    7  A    between atoms: C_10  and  C_14
    8  A    between atoms: C_10  and  C_20
    9  A    between atoms: C_10  and  N_22
   10  A    between atoms: C_11  and  C_26
   11  A    between atoms: C_11  and  C_33
   12  A    between atoms: C_14  and  C_31
   13  A    between atoms: C_16  and  C_30
   14  A    between atoms: C_17  and  C_26
   15  A    between atoms: C_18  and  C_19
   16  A    between atoms: C_18  and  C_35
   17  A    between atoms: C_20  and  C_24
   18  A    between atoms: C_20  and  C_29
   19  A    between atoms: C_21  and  C_30
   20  A    between atoms: C_29  and  C_36
                            x       y       z     vdW  Elec       q    Type
                         _______ _______ _______ _____ _____    ______ ____

>  <TORSDO>
F 20

$$$$
=
 OpenBabel11052415343D

 37 37  0  0  1  0  0  0  0  0999 V2000
  190.3310  175.3430  142.3450 O   0  0  0  0  0  1  0  0  0  0  0  0
  189.7290  176.5900  142.5850 C   0  0  1  0  0  0  0  0  0  0  0  0
  191.9110  177.2060  143.4810 O   0  0  0  0  0  0  0  0  0  0  0  0
  191.3080  176.5290  144.5600 C   0  0  2  0  0  3  0  0  0  0  0  0
  190.5230  177.3880  143.6390 C   0  0  2  0  0  3  0  0  0  0  0  0
  191.5770  177.2920  145.8430 C   0  0  0  0  0  2  0  0  0  0  0  0
  191.9180  177.0630  148.1730 F   0  0  0  0  0  0  0  0  0  0  0  0
  191.4700  176.3820  147.0570 C   0  0  0  0  0  0  0  0  0  0  0  0
  192.2500  175.2550  146.8750 F   0  0  0  0  0  0  0  0  0  0  0  0
  190.1540  176.0070  147.2570 F   0  0  0  0  0  0  0  0  0  0  0  0
  189.7320  177.4020  141.2700 C   0  0  2  0  0  3  0  0  0  0  0  0
  187.5420  178.5840  140.5730 C   0  0  0  0  0  0  0  0  0  0  0  0
  188.4170  177.4520  140.6190 N   0  0  0  0  0  2  0  0  0  0  0  0
  187.8230  179.6440  141.1910 O   0  0  0  0  0  0  0  0  0  0  0  0
  186.3300  178.5030  139.8360 N   0  0  0  0  0  1  0  0  0  0  0  0
  190.8560  177.0350  140.3030 C   0  0  0  0  0  2  0  0  0  0  0  0
  190.3130  176.2670  139.1150 C   0  0  0  0  0  2  0  0  0  0  0  0
  190.6860  176.9930  137.8410 C   0  0  0  0  0  2  0  0  0  0  0  0
  189.8230  178.0740  137.6470 O   0  0  0  0  0  0  0  0  0  0  0  0
  189.9680  176.8450  135.6140 C   0  0  0  0  0  1  0  0  0  0  0  0
  189.1250  177.7660  136.4780 C   0  0  1  0  0  3  0  0  0  0  0  0
  187.8100  177.0920  136.8360 C   0  0  0  0  0  2  0  0  0  0  0  0
  185.3340  177.0950  136.5240 C   0  0  0  0  0  1  0  0  0  0  0  0
  186.6260  177.8340  136.2320 C   0  0  0  0  0  2  0  0  0  0  0  0
  188.3150  176.3780  143.1460 C   0  0  0  0  0  2  0  0  0  0  0  0
  187.8510  177.5040  144.0620 C   0  0  0  0  0  2  0  0  0  0  0  0
  187.1440  176.9320  145.2830 C   0  0  0  0  0  2  0  0  0  0  0  0
  186.8950  177.9720  146.2740 N   0  0  0  0  0  0  0  0  0  0  0  0
  185.4150  179.4690  147.2940 O   0  0  0  0  0  0  0  0  0  0  0  0
  185.5940  178.5660  146.4340 C   0  0  0  0  0  0  0  0  0  0  0  0
  187.9620  178.2920  147.2090 C   0  0  0  0  0  1  0  0  0  0  0  0
  184.4390  178.1400  145.5850 C   0  0  0  0  0  2  0  0  0  0  0  0
  183.9130  179.3020  144.7510 C   0  0  1  0  0  3  0  0  0  0  0  0
  184.9460  179.7180  143.7190 C   0  0  0  0  0  1  0  0  0  0  0  0
  182.5660  178.9890  144.0950 C   0  0  0  0  0  2  0  0  0  0  0  0
  182.6730  178.8560  142.5820 C   0  0  0  0  0  2  0  0  0  0  0  0
  181.4190  178.5590  142.0530 O   0  0  0  0  0  1  0  0  0  0  0  0
  2  1  1  6  0  0  0
  2 25  1  0  0  0  0
  3  5  1  0  0  0  0
  3  4  1  0  0  0  0
  4  6  1  1  0  0  0
  5  2  1  6  0  0  0
  5  4  1  0  0  0  0
  6  8  1  0  0  0  0
  8 10  1  0  0  0  0
  8  7  1  0  0  0  0
  9  8  1  0  0  0  0
 11 16  1  6  0  0  0
 11  2  1  0  0  0  0
 12 13  1  0  0  0  0
 12 14  2  0  0  0  0
 13 11  1  0  0  0  0
 15 12  1  0  0  0  0
 17 16  1  0  0  0  0
 18 17  1  0  0  0  0
 19 18  1  0  0  0  0
 21 20  1  6  0  0  0
 21 22  1  0  0  0  0
 21 19  1  0  0  0  0
 24 23  1  0  0  0  0
 24 22  1  0  0  0  0
 25 26  1  0  0  0  0
 26 27  1  0  0  0  0
 27 28  1  0  0  0  0
 28 30  1  0  0  0  0
 28 31  1  0  0  0  0
 30 29  2  0  0  0  0
 32 30  1  0  0  0  0
 33 34  1  6  0  0  0
 33 32  1  0  0  0  0
 35 33  1  0  0  0  0
 36 35  1  0  0  0  0
 37 36  1  0  0  0  0
M  END
>  <MODEL>
4

>  <REMARK>
 VINA RESULT:      -6.6      1.692      2.729
  Name = 
  20 active torsions:
  status: ('A' for Active; 'I' for Inactive)
    1  A    between atoms: C_1  and  N_5
    2  A    between atoms: C_1  and  C_36
    3  A    between atoms: C_6  and  O_8
    4  A    between atoms: C_6  and  C_31
    5  A    between atoms: C_7  and  C_33
    6  A    between atoms: O_8  and  C_19
    7  A    between atoms: C_10  and  C_14
    8  A    between atoms: C_10  and  C_20
    9  A    between atoms: C_10  and  N_22
   10  A    between atoms: C_11  and  C_26
   11  A    between atoms: C_11  and  C_33
   12  A    between atoms: C_14  and  C_31
   13  A    between atoms: C_16  and  C_30
   14  A    between atoms: C_17  and  C_26
   15  A    between atoms: C_18  and  C_19
   16  A    between atoms: C_18  and  C_35
   17  A    between atoms: C_20  and  C_24
   18  A    between atoms: C_20  and  C_29
   19  A    between atoms: C_21  and  C_30
   20  A    between atoms: C_29  and  C_36
                            x       y       z     vdW  Elec       q    Type
                         _______ _______ _______ _____ _____    ______ ____

>  <TORSDO>
F 20

$$$$
=
 OpenBabel11052415343D

 37 37  0  0  1  0  0  0  0  0999 V2000
  188.1160  179.6150  141.2460 O   0  0  0  0  0  1  0  0  0  0  0  0
  187.7040  178.2770  141.1400 C   0  0  1  0  0  0  0  0  0  0  0  0
  189.0530  178.2190  143.1690 O   0  0  0  0  0  0  0  0  0  0  0  0
  189.7190  177.3090  142.3230 C   0  0  2  0  0  3  0  0  0  0  0  0
  188.2410  177.4420  142.3210 C   0  0  2  0  0  3  0  0  0  0  0  0
  190.1040  176.0770  143.1190 C   0  0  0  0  0  2  0  0  0  0  0  0
  192.2670  177.0140  142.9130 F   0  0  0  0  0  0  0  0  0  0  0  0
  191.4840  176.2320  143.7410 C   0  0  0  0  0  0  0  0  0  0  0  0
  192.0810  174.9930  143.8850 F   0  0  0  0  0  0  0  0  0  0  0  0
  191.3830  176.8450  144.9760 F   0  0  0  0  0  0  0  0  0  0  0  0
  186.1600  178.2280  141.1850 C   0  0  2  0  0  3  0  0  0  0  0  0
  184.5480  179.2490  139.4430 C   0  0  0  0  0  0  0  0  0  0  0  0
  185.5250  179.3510  140.4840 N   0  0  0  0  0  2  0  0  0  0  0  0
  184.2110  178.1280  138.9790 O   0  0  0  0  0  0  0  0  0  0  0  0
  183.9670  180.4310  138.9100 N   0  0  0  0  0  1  0  0  0  0  0  0
  185.5760  177.9980  142.5780 C   0  0  0  0  0  2  0  0  0  0  0  0
  185.0080  179.2840  143.1430 C   0  0  0  0  0  2  0  0  0  0  0  0
  184.8630  179.1470  144.6430 C   0  0  0  0  0  2  0  0  0  0  0  0
  185.5250  177.9960  145.0760 O   0  0  0  0  0  0  0  0  0  0  0  0
  185.8110  178.9680  147.2300 C   0  0  0  0  0  1  0  0  0  0  0  0
  186.4910  178.4590  145.9720 C   0  0  1  0  0  3  0  0  0  0  0  0
  187.4480  177.3270  146.3140 C   0  0  0  0  0  2  0  0  0  0  0  0
  189.0220  177.8380  148.1820 C   0  0  0  0  0  1  0  0  0  0  0  0
  188.8270  177.8590  146.6780 C   0  0  0  0  0  2  0  0  0  0  0  0
  188.2770  177.6640  139.8530 C   0  0  0  0  0  2  0  0  0  0  0  0
  188.5480  178.6910  138.7600 C   0  0  0  0  0  2  0  0  0  0  0  0
  189.4440  178.0930  137.6850 C   0  0  0  0  0  2  0  0  0  0  0  0
  188.6500  177.5010  136.6150 N   0  0  0  0  0  0  0  0  0  0  0  0
  188.4650  175.9750  134.8520 O   0  0  0  0  0  0  0  0  0  0  0  0
  189.1750  176.4580  135.7750 C   0  0  0  0  0  0  0  0  0  0  0  0
  187.2520  177.8880  136.5110 C   0  0  0  0  0  1  0  0  0  0  0  0
  190.5620  175.9350  135.9650 C   0  0  0  0  0  2  0  0  0  0  0  0
  190.6520  175.0600  137.2100 C   0  0  1  0  0  3  0  0  0  0  0  0
  190.1430  173.6610  136.9070 C   0  0  0  0  0  1  0  0  0  0  0  0
  192.0650  175.0220  137.7980 C   0  0  0  0  0  2  0  0  0  0  0  0
  192.6350  176.4130  138.0330 C   0  0  0  0  0  2  0  0  0  0  0  0
  193.8140  176.5590  137.3050 O   0  0  0  0  0  1  0  0  0  0  0  0
  2 11  1  0  0  0  0
  2  1  1  1  0  0  0
  4  6  1  1  0  0  0
  4  3  1  0  0  0  0
  5  2  1  6  0  0  0
  5  4  1  0  0  0  0
  5  3  1  0  0  0  0
  6  8  1  0  0  0  0
  7  8  1  0  0  0  0
  8  9  1  0  0  0  0
  8 10  1  0  0  0  0
 11 16  1  1  0  0  0
 12 13  1  0  0  0  0
 13 11  1  0  0  0  0
 14 12  2  0  0  0  0
 15 12  1  0  0  0  0
 16 17  1  0  0  0  0
 17 18  1  0  0  0  0
 18 19  1  0  0  0  0
 19 21  1  0  0  0  0
 21 22  1  0  0  0  0
 21 20  1  1  0  0  0
 22 24  1  0  0  0  0
 24 23  1  0  0  0  0
 25  2  1  0  0  0  0
 26 25  1  0  0  0  0
 27 26  1  0  0  0  0
 28 27  1  0  0  0  0
 29 30  2  0  0  0  0
 30 32  1  0  0  0  0
 30 28  1  0  0  0  0
 31 28  1  0  0  0  0
 32 33  1  0  0  0  0
 33 34  1  6  0  0  0
 33 35  1  0  0  0  0
 35 36  1  0  0  0  0
 37 36  1  0  0  0  0
M  END
>  <MODEL>
5

>  <REMARK>
 VINA RESULT:      -6.4      2.588      7.800
  Name = 
  20 active torsions:
  status: ('A' for Active; 'I' for Inactive)
    1  A    between atoms: C_1  and  N_5
    2  A    between atoms: C_1  and  C_36
    3  A    between atoms: C_6  and  O_8
    4  A    between atoms: C_6  and  C_31
    5  A    between atoms: C_7  and  C_33
    6  A    between atoms: O_8  and  C_19
    7  A    between atoms: C_10  and  C_14
    8  A    between atoms: C_10  and  C_20
    9  A    between atoms: C_10  and  N_22
   10  A    between atoms: C_11  and  C_26
   11  A    between atoms: C_11  and  C_33
   12  A    between atoms: C_14  and  C_31
   13  A    between atoms: C_16  and  C_30
   14  A    between atoms: C_17  and  C_26
   15  A    between atoms: C_18  and  C_19
   16  A    between atoms: C_18  and  C_35
   17  A    between atoms: C_20  and  C_24
   18  A    between atoms: C_20  and  C_29
   19  A    between atoms: C_21  and  C_30
   20  A    between atoms: C_29  and  C_36
                            x       y       z     vdW  Elec       q    Type
                         _______ _______ _______ _____ _____    ______ ____

>  <TORSDO>
F 20

$$$$
=
 OpenBabel11052415343D

 37 37  0  0  1  0  0  0  0  0999 V2000
  187.5410  176.2730  142.9610 O   0  0  0  0  0  1  0  0  0  0  0  0
  188.1930  177.5120  142.8520 C   0  0  1  0  0  0  0  0  0  0  0  0
  189.6100  176.4760  144.5440 O   0  0  0  0  0  0  0  0  0  0  0  0
  188.6870  177.2120  145.3140 C   0  0  2  0  0  3  0  0  0  0  0  0
  189.1910  177.7110  144.0110 C   0  0  2  0  0  3  0  0  0  0  0  0
  189.4230  177.9200  146.4350 C   0  0  0  0  0  2  0  0  0  0  0  0
  187.4820  178.5290  147.6440 F   0  0  0  0  0  0  0  0  0  0  0  0
  188.6600  177.8150  147.7470 C   0  0  0  0  0  0  0  0  0  0  0  0
  189.4160  178.3410  148.7780 F   0  0  0  0  0  0  0  0  0  0  0  0
  188.3620  176.4920  148.0200 F   0  0  0  0  0  0  0  0  0  0  0  0
  188.9900  177.5380  141.5270 C   0  0  2  0  0  3  0  0  0  0  0  0
  188.2190  178.1700  139.1440 C   0  0  0  0  0  0  0  0  0  0  0  0
  188.1410  177.3870  140.3390 N   0  0  0  0  0  2  0  0  0  0  0  0
  189.0090  179.1470  139.0610 O   0  0  0  0  0  0  0  0  0  0  0  0
  187.3770  177.8550  138.0440 N   0  0  0  0  0  1  0  0  0  0  0  0
  190.2070  176.6140  141.5050 C   0  0  0  0  0  2  0  0  0  0  0  0
  191.4620  177.3870  141.1500 C   0  0  0  0  0  2  0  0  0  0  0  0
  191.7940  177.1540  139.6930 C   0  0  0  0  0  2  0  0  0  0  0  0
  191.0910  176.0420  139.2230 O   0  0  0  0  0  0  0  0  0  0  0  0
  190.6700  176.4500  136.9160 C   0  0  0  0  0  1  0  0  0  0  0  0
  191.5970  175.8200  137.9400 C   0  0  1  0  0  3  0  0  0  0  0  0
  192.9880  176.4240  137.8320 C   0  0  0  0  0  2  0  0  0  0  0  0
  193.6470  174.0390  137.5130 C   0  0  0  0  0  1  0  0  0  0  0  0
  193.9510  175.4750  137.1330 C   0  0  0  0  0  2  0  0  0  0  0  0
  187.1610  178.6450  142.9420 C   0  0  0  0  0  2  0  0  0  0  0  0
  185.7190  178.1630  142.8310 C   0  0  0  0  0  2  0  0  0  0  0  0
  184.7630  179.3470  142.8610 C   0  0  0  0  0  2  0  0  0  0  0  0
  183.5810  179.0420  143.6570 N   0  0  0  0  0  0  0  0  0  0  0  0
  181.2790  178.6430  143.7730 O   0  0  0  0  0  0  0  0  0  0  0  0
  182.2820  178.8980  143.0550 C   0  0  0  0  0  0  0  0  0  0  0  0
  183.7690  178.7360  145.0660 C   0  0  0  0  0  1  0  0  0  0  0  0
  182.0910  179.0560  141.5800 C   0  0  0  0  0  2  0  0  0  0  0  0
  182.3660  177.7480  140.8480 C   0  0  1  0  0  3  0  0  0  0  0  0
  181.0970  177.2420  140.1830 C   0  0  0  0  0  1  0  0  0  0  0  0
  183.5110  177.8710  139.8400 C   0  0  0  0  0  2  0  0  0  0  0  0
  183.5550  179.2390  139.1740 C   0  0  0  0  0  2  0  0  0  0  0  0
  184.8090  179.8120  139.3750 O   0  0  0  0  0  1  0  0  0  0  0  0
  2 25  1  0  0  0  0
  2  1  1  1  0  0  0
  3  4  1  0  0  0  0
  4  6  1  1  0  0  0
  5  2  1  6  0  0  0
  5  3  1  0  0  0  0
  5  4  1  0  0  0  0
  6  8  1  0  0  0  0
  7  8  1  0  0  0  0
  8 10  1  0  0  0  0
  8  9  1  0  0  0  0
 11 16  1  1  0  0  0
 11  2  1  0  0  0  0
 12 13  1  0  0  0  0
 13 11  1  0  0  0  0
 14 12  2  0  0  0  0
 15 12  1  0  0  0  0
 17 16  1  0  0  0  0
 18 17  1  0  0  0  0
 19 18  1  0  0  0  0
 21 20  1  6  0  0  0
 21 19  1  0  0  0  0
 22 21  1  0  0  0  0
 24 23  1  0  0  0  0
 24 22  1  0  0  0  0
 26 27  1  0  0  0  0
 26 25  1  0  0  0  0
 27 28  1  0  0  0  0
 28 31  1  0  0  0  0
 30 28  1  0  0  0  0
 30 29  2  0  0  0  0
 32 30  1  0  0  0  0
 33 34  1  6  0  0  0
 33 32  1  0  0  0  0
 35 33  1  0  0  0  0
 36 37  1  0  0  0  0
 36 35  1  0  0  0  0
M  END
>  <MODEL>
6

>  <REMARK>
 VINA RESULT:      -6.3      2.383      3.475
  Name = 
  20 active torsions:
  status: ('A' for Active; 'I' for Inactive)
    1  A    between atoms: C_1  and  N_5
    2  A    between atoms: C_1  and  C_36
    3  A    between atoms: C_6  and  O_8
    4  A    between atoms: C_6  and  C_31
    5  A    between atoms: C_7  and  C_33
    6  A    between atoms: O_8  and  C_19
    7  A    between atoms: C_10  and  C_14
    8  A    between atoms: C_10  and  C_20
    9  A    between atoms: C_10  and  N_22
   10  A    between atoms: C_11  and  C_26
   11  A    between atoms: C_11  and  C_33
   12  A    between atoms: C_14  and  C_31
   13  A    between atoms: C_16  and  C_30
   14  A    between atoms: C_17  and  C_26
   15  A    between atoms: C_18  and  C_19
   16  A    between atoms: C_18  and  C_35
   17  A    between atoms: C_20  and  C_24
   18  A    between atoms: C_20  and  C_29
   19  A    between atoms: C_21  and  C_30
   20  A    between atoms: C_29  and  C_36
                            x       y       z     vdW  Elec       q    Type
                         _______ _______ _______ _____ _____    ______ ____

>  <TORSDO>
F 20

$$$$
=
 OpenBabel11052415343D

 37 37  0  0  1  0  0  0  0  0999 V2000
  184.5730  179.9440  139.3000 O   0  0  0  0  0  1  0  0  0  0  0  0
  183.6510  178.8840  139.3280 C   0  0  1  0  0  0  0  0  0  0  0  0
  181.9620  179.6530  137.7470 O   0  0  0  0  0  0  0  0  0  0  0  0
  182.1610  180.7810  138.5690 C   0  0  2  0  0  3  0  0  0  0  0  0
  182.2150  179.4010  139.1100 C   0  0  2  0  0  3  0  0  0  0  0  0
  180.8160  181.3950  138.9080 C   0  0  0  0  0  2  0  0  0  0  0  0
  180.0010  182.0500  136.7850 F   0  0  0  0  0  0  0  0  0  0  0  0
  180.4890  182.5520  137.9760 C   0  0  0  0  0  0  0  0  0  0  0  0
  181.6300  183.2900  137.7180 F   0  0  0  0  0  0  0  0  0  0  0  0
  179.5290  183.3670  138.5470 F   0  0  0  0  0  0  0  0  0  0  0  0
  183.9860  177.9050  138.1800 C   0  0  2  0  0  3  0  0  0  0  0  0
  182.4200  175.9520  137.5420 C   0  0  0  0  0  0  0  0  0  0  0  0
  183.4080  176.5690  138.3730 N   0  0  0  0  0  2  0  0  0  0  0  0
  181.8940  176.5800  136.5860 O   0  0  0  0  0  0  0  0  0  0  0  0
  182.0120  174.6180  137.8120 N   0  0  0  0  0  1  0  0  0  0  0  0
  185.4650  177.8590  137.8010 C   0  0  0  0  0  2  0  0  0  0  0  0
  185.6680  177.0710  136.5230 C   0  0  0  0  0  2  0  0  0  0  0  0
  187.1500  176.9520  136.2420 C   0  0  0  0  0  2  0  0  0  0  0  0
  187.7570  176.1840  137.2380 O   0  0  0  0  0  0  0  0  0  0  0  0
  189.1390  178.0000  136.5600 C   0  0  0  0  0  1  0  0  0  0  0  0
  189.0450  176.7110  137.3570 C   0  0  1  0  0  3  0  0  0  0  0  0
  189.3490  176.9780  138.8230 C   0  0  0  0  0  2  0  0  0  0  0  0
  187.9310  178.3800  140.3230 C   0  0  0  0  0  1  0  0  0  0  0  0
  188.9700  178.3980  139.2180 C   0  0  0  0  0  2  0  0  0  0  0  0
  183.6870  178.2100  140.7080 C   0  0  0  0  0  2  0  0  0  0  0  0
  184.4770  178.9960  141.7480 C   0  0  0  0  0  2  0  0  0  0  0  0
  184.9660  178.0680  142.8500 C   0  0  0  0  0  2  0  0  0  0  0  0
  185.0220  178.7650  144.1300 N   0  0  0  0  0  0  0  0  0  0  0  0
  185.8870  178.9290  146.2970 O   0  0  0  0  0  0  0  0  0  0  0  0
  185.8700  178.3090  145.2000 C   0  0  0  0  0  0  0  0  0  0  0  0
  184.3100  180.0270  144.2500 C   0  0  0  0  0  1  0  0  0  0  0  0
  186.7300  177.0970  145.0430 C   0  0  0  0  0  2  0  0  0  0  0  0
  188.0470  177.4450  144.3580 C   0  0  1  0  0  3  0  0  0  0  0  0
  189.1450  177.6260  145.3920 C   0  0  0  0  0  1  0  0  0  0  0  0
  188.4460  176.4140  143.3000 C   0  0  0  0  0  2  0  0  0  0  0  0
  189.9230  176.4890  142.9410 C   0  0  0  0  0  2  0  0  0  0  0  0
  190.4490  175.2010  142.8700 O   0  0  0  0  0  1  0  0  0  0  0  0
  2  1  1  6  0  0  0
  2 25  1  0  0  0  0
  3  4  1  0  0  0  0
  3  5  1  0  0  0  0
  4  6  1  1  0  0  0
  4  5  1  0  0  0  0
  5  2  1  6  0  0  0
  7  8  1  0  0  0  0
  8 10  1  0  0  0  0
  8  6  1  0  0  0  0
  9  8  1  0  0  0  0
 11 16  1  1  0  0  0
 11 13  1  0  0  0  0
 11  2  1  0  0  0  0
 12 15  1  0  0  0  0
 12 13  1  0  0  0  0
 14 12  2  0  0  0  0
 17 16  1  0  0  0  0
 18 17  1  0  0  0  0
 18 19  1  0  0  0  0
 19 21  1  0  0  0  0
 21 20  1  6  0  0  0
 21 22  1  0  0  0  0
 22 24  1  0  0  0  0
 24 23  1  0  0  0  0
 25 26  1  0  0  0  0
 26 27  1  0  0  0  0
 27 28  1  0  0  0  0
 28 31  1  0  0  0  0
 28 30  1  0  0  0  0
 30 29  2  0  0  0  0
 32 30  1  0  0  0  0
 33 32  1  0  0  0  0
 33 34  1  1  0  0  0
 35 33  1  0  0  0  0
 36 35  1  0  0  0  0
 37 36  1  0  0  0  0
M  END
>  <MODEL>
7

>  <REMARK>
 VINA RESULT:      -6.2      5.398      8.387
  Name = 
  20 active torsions:
  status: ('A' for Active; 'I' for Inactive)
    1  A    between atoms: C_1  and  N_5
    2  A    between atoms: C_1  and  C_36
    3  A    between atoms: C_6  and  O_8
    4  A    between atoms: C_6  and  C_31
    5  A    between atoms: C_7  and  C_33
    6  A    between atoms: O_8  and  C_19
    7  A    between atoms: C_10  and  C_14
    8  A    between atoms: C_10  and  C_20
    9  A    between atoms: C_10  and  N_22
   10  A    between atoms: C_11  and  C_26
   11  A    between atoms: C_11  and  C_33
   12  A    between atoms: C_14  and  C_31
   13  A    between atoms: C_16  and  C_30
   14  A    between atoms: C_17  and  C_26
   15  A    between atoms: C_18  and  C_19
   16  A    between atoms: C_18  and  C_35
   17  A    between atoms: C_20  and  C_24
   18  A    between atoms: C_20  and  C_29
   19  A    between atoms: C_21  and  C_30
   20  A    between atoms: C_29  and  C_36
                            x       y       z     vdW  Elec       q    Type
                         _______ _______ _______ _____ _____    ______ ____

>  <TORSDO>
F 20

$$$$
=
 OpenBabel11052415343D

 37 37  0  0  1  0  0  0  0  0999 V2000
  189.9700  175.9270  141.1330 O   0  0  0  0  0  1  0  0  0  0  0  0
  190.1690  177.2300  140.6490 C   0  0  1  0  0  0  0  0  0  0  0  0
  190.5940  176.0400  138.5630 O   0  0  0  0  0  0  0  0  0  0  0  0
  191.8680  176.0820  139.1660 C   0  0  2  0  0  3  0  0  0  0  0  0
  190.9050  177.2040  139.2930 C   0  0  2  0  0  3  0  0  0  0  0  0
  192.9050  176.4350  138.1180 C   0  0  0  0  0  2  0  0  0  0  0  0
  194.6430  174.8560  138.4170 F   0  0  0  0  0  0  0  0  0  0  0  0
  193.5920  175.1880  137.5830 C   0  0  0  0  0  0  0  0  0  0  0  0
  194.0850  175.4270  136.3130 F   0  0  0  0  0  0  0  0  0  0  0  0
  192.6990  174.1330  137.5420 F   0  0  0  0  0  0  0  0  0  0  0  0
  188.7910  177.8930  140.4310 C   0  0  2  0  0  3  0  0  0  0  0  0
  187.8780  178.3280  138.0530 C   0  0  0  0  0  0  0  0  0  0  0  0
  188.7050  178.6500  139.1760 N   0  0  0  0  0  2  0  0  0  0  0  0
  187.1930  177.2720  138.0360 O   0  0  0  0  0  0  0  0  0  0  0  0
  187.8460  179.2020  136.9330 N   0  0  0  0  0  1  0  0  0  0  0  0
  188.2740  178.6830  141.6320 C   0  0  0  0  0  2  0  0  0  0  0  0
  187.1870  177.9130  142.3550 C   0  0  0  0  0  2  0  0  0  0  0  0
  185.8500  178.5650  142.0820 C   0  0  0  0  0  2  0  0  0  0  0  0
  185.7420  178.8650  140.7230 O   0  0  0  0  0  0  0  0  0  0  0  0
  184.1230  179.3210  139.0390 C   0  0  0  0  0  1  0  0  0  0  0  0
  184.3820  179.1090  140.5200 C   0  0  1  0  0  3  0  0  0  0  0  0
  183.5730  177.9270  141.0310 C   0  0  0  0  0  2  0  0  0  0  0  0
  182.1000  176.4020  139.7140 C   0  0  0  0  0  1  0  0  0  0  0  0
  182.2510  177.7980  140.2870 C   0  0  0  0  0  2  0  0  0  0  0  0
  191.0530  178.0130  141.6300 C   0  0  0  0  0  2  0  0  0  0  0  0
  191.5810  177.1650  142.7820 C   0  0  0  0  0  2  0  0  0  0  0  0
  191.2560  177.8260  144.1140 C   0  0  0  0  0  2  0  0  0  0  0  0
  191.2300  176.8420  145.1900 N   0  0  0  0  0  0  0  0  0  0  0  0
  190.3270  176.0930  147.2140 O   0  0  0  0  0  0  0  0  0  0  0  0
  190.3160  176.9570  146.2960 C   0  0  0  0  0  0  0  0  0  0  0  0
  192.0510  175.6500  145.0430 C   0  0  0  0  0  1  0  0  0  0  0  0
  189.3520  178.0960  146.3880 C   0  0  0  0  0  2  0  0  0  0  0  0
  188.0400  177.6530  147.0250 C   0  0  1  0  0  3  0  0  0  0  0  0
  187.9220  178.2200  148.4300 C   0  0  0  0  0  1  0  0  0  0  0  0
  186.8230  178.0200  146.1740 C   0  0  0  0  0  2  0  0  0  0  0  0
  185.8300  178.8970  146.9240 C   0  0  0  0  0  2  0  0  0  0  0  0
  184.5870  178.2690  146.9510 O   0  0  0  0  0  1  0  0  0  0  0  0
  2  1  1  1  0  0  0
  2 25  1  0  0  0  0
  3  4  1  0  0  0  0
  3  5  1  0  0  0  0
  4  6  1  6  0  0  0
  4  5  1  0  0  0  0
  5  2  1  1  0  0  0
  8  6  1  0  0  0  0
  8  7  1  0  0  0  0
  9  8  1  0  0  0  0
 10  8  1  0  0  0  0
 11  2  1  0  0  0  0
 11 16  1  1  0  0  0
 12 13  1  0  0  0  0
 13 11  1  0  0  0  0
 14 12  2  0  0  0  0
 15 12  1  0  0  0  0
 16 17  1  0  0  0  0
 18 17  1  0  0  0  0
 19 18  1  0  0  0  0
 21 20  1  6  0  0  0
 21 19  1  0  0  0  0
 21 22  1  0  0  0  0
 23 24  1  0  0  0  0
 24 22  1  0  0  0  0
 25 26  1  0  0  0  0
 26 27  1  0  0  0  0
 27 28  1  0  0  0  0
 28 30  1  0  0  0  0
 30 32  1  0  0  0  0
 30 29  2  0  0  0  0
 31 28  1  0  0  0  0
 32 33  1  0  0  0  0
 33 34  1  1  0  0  0
 35 36  1  0  0  0  0
 35 33  1  0  0  0  0
 36 37  1  0  0  0  0
M  END
>  <MODEL>
8

>  <REMARK>
 VINA RESULT:      -6.1      3.560      6.114
  Name = 
  20 active torsions:
  status: ('A' for Active; 'I' for Inactive)
    1  A    between atoms: C_1  and  N_5
    2  A    between atoms: C_1  and  C_36
    3  A    between atoms: C_6  and  O_8
    4  A    between atoms: C_6  and  C_31
    5  A    between atoms: C_7  and  C_33
    6  A    between atoms: O_8  and  C_19
    7  A    between atoms: C_10  and  C_14
    8  A    between atoms: C_10  and  C_20
    9  A    between atoms: C_10  and  N_22
   10  A    between atoms: C_11  and  C_26
   11  A    between atoms: C_11  and  C_33
   12  A    between atoms: C_14  and  C_31
   13  A    between atoms: C_16  and  C_30
   14  A    between atoms: C_17  and  C_26
   15  A    between atoms: C_18  and  C_19
   16  A    between atoms: C_18  and  C_35
   17  A    between atoms: C_20  and  C_24
   18  A    between atoms: C_20  and  C_29
   19  A    between atoms: C_21  and  C_30
   20  A    between atoms: C_29  and  C_36
                            x       y       z     vdW  Elec       q    Type
                         _______ _______ _______ _____ _____    ______ ____

>  <TORSDO>
F 20

$$$$
=
 OpenBabel11052415343D

 37 37  0  0  1  0  0  0  0  0999 V2000
  185.1500  180.1640  142.8570 O   0  0  0  0  0  1  0  0  0  0  0  0
  184.6010  178.8720  142.9010 C   0  0  1  0  0  0  0  0  0  0  0  0
  183.9340  179.3950  145.1860 O   0  0  0  0  0  0  0  0  0  0  0  0
  185.3130  179.1320  145.3140 C   0  0  2  0  0  3  0  0  0  0  0  0
  184.4590  178.3850  144.3570 C   0  0  2  0  0  3  0  0  0  0  0  0
  185.5460  178.2760  146.5440 C   0  0  0  0  0  2  0  0  0  0  0  0
  187.2900  177.3350  147.8370 F   0  0  0  0  0  0  0  0  0  0  0  0
  186.9480  177.6850  146.5450 C   0  0  0  0  0  0  0  0  0  0  0  0
  187.8550  178.6180  146.0770 F   0  0  0  0  0  0  0  0  0  0  0  0
  186.9900  176.5570  145.7470 F   0  0  0  0  0  0  0  0  0  0  0  0
  183.1910  178.9110  142.2710 C   0  0  2  0  0  3  0  0  0  0  0  0
  180.8310  178.9960  143.3190 C   0  0  0  0  0  0  0  0  0  0  0  0
  182.1390  178.4340  143.1780 N   0  0  0  0  0  2  0  0  0  0  0  0
  180.5060  180.0430  142.7000 O   0  0  0  0  0  0  0  0  0  0  0  0
  179.8920  178.3760  144.1870 N   0  0  0  0  0  1  0  0  0  0  0  0
  183.1020  178.2790  140.8820 C   0  0  0  0  0  2  0  0  0  0  0  0
  183.4550  179.2890  139.8090 C   0  0  0  0  0  2  0  0  0  0  0  0
  183.8310  178.5560  138.5400 C   0  0  0  0  0  2  0  0  0  0  0  0
  185.2140  178.6240  138.3510 O   0  0  0  0  0  0  0  0  0  0  0  0
  184.8430  177.2030  136.4780 C   0  0  0  0  0  1  0  0  0  0  0  0
  185.5580  177.3860  137.8050 C   0  0  1  0  0  3  0  0  0  0  0  0
  187.0640  177.3240  137.6020 C   0  0  0  0  0  2  0  0  0  0  0  0
  189.0740  178.5000  136.7060 C   0  0  0  0  0  1  0  0  0  0  0  0
  187.6040  178.6360  137.0510 C   0  0  0  0  0  2  0  0  0  0  0  0
  185.5410  177.8910  142.1840 C   0  0  0  0  0  2  0  0  0  0  0  0
  186.9810  178.3840  142.0970 C   0  0  0  0  0  2  0  0  0  0  0  0
  187.9440  177.2700  142.4840 C   0  0  0  0  0  2  0  0  0  0  0  0
  189.2460  177.4670  141.8580 N   0  0  0  0  0  0  0  0  0  0  0  0
  191.5190  177.9810  142.0580 O   0  0  0  0  0  0  0  0  0  0  0  0
  190.4110  177.8080  142.6310 C   0  0  0  0  0  0  0  0  0  0  0  0
  189.3740  177.1610  140.4420 C   0  0  0  0  0  1  0  0  0  0  0  0
  190.3330  177.9770  144.1150 C   0  0  0  0  0  2  0  0  0  0  0  0
  190.5540  176.6490  144.8300 C   0  0  1  0  0  3  0  0  0  0  0  0
  191.6600  175.8630  144.1460 C   0  0  0  0  0  1  0  0  0  0  0  0
  190.8420  176.8280  146.3220 C   0  0  0  0  0  2  0  0  0  0  0  0
  192.0420  176.0150  146.7860 C   0  0  0  0  0  2  0  0  0  0  0  0
  192.4150  176.4270  148.0630 O   0  0  0  0  0  1  0  0  0  0  0  0
  2  1  1  6  0  0  0
  3  4  1  0  0  0  0
  4  6  1  1  0  0  0
  5  2  1  6  0  0  0
  5  3  1  0  0  0  0
  5  4  1  0  0  0  0
  6  8  1  0  0  0  0
  8  7  1  0  0  0  0
  9  8  1  0  0  0  0
 10  8  1  0  0  0  0
 11 16  1  6  0  0  0
 11  2  1  0  0  0  0
 11 13  1  0  0  0  0
 12 15  1  0  0  0  0
 13 12  1  0  0  0  0
 14 12  2  0  0  0  0
 17 16  1  0  0  0  0
 18 17  1  0  0  0  0
 19 18  1  0  0  0  0
 21 20  1  6  0  0  0
 21 19  1  0  0  0  0
 22 21  1  0  0  0  0
 23 24  1  0  0  0  0
 24 22  1  0  0  0  0
 25  2  1  0  0  0  0
 26 25  1  0  0  0  0
 26 27  1  0  0  0  0
 28 27  1  0  0  0  0
 28 30  1  0  0  0  0
 29 30  2  0  0  0  0
 30 32  1  0  0  0  0
 31 28  1  0  0  0  0
 32 33  1  0  0  0  0
 33 34  1  6  0  0  0
 33 35  1  0  0  0  0
 35 36  1  0  0  0  0
 36 37  1  0  0  0  0
M  END
>  <MODEL>
9

>  <REMARK>
 VINA RESULT:      -6.1      2.448      7.028
  Name = 
  20 active torsions:
  status: ('A' for Active; 'I' for Inactive)
    1  A    between atoms: C_1  and  N_5
    2  A    between atoms: C_1  and  C_36
    3  A    between atoms: C_6  and  O_8
    4  A    between atoms: C_6  and  C_31
    5  A    between atoms: C_7  and  C_33
    6  A    between atoms: O_8  and  C_19
    7  A    between atoms: C_10  and  C_14
    8  A    between atoms: C_10  and  C_20
    9  A    between atoms: C_10  and  N_22
   10  A    between atoms: C_11  and  C_26
   11  A    between atoms: C_11  and  C_33
   12  A    between atoms: C_14  and  C_31
   13  A    between atoms: C_16  and  C_30
   14  A    between atoms: C_17  and  C_26
   15  A    between atoms: C_18  and  C_19
   16  A    between atoms: C_18  and  C_35
   17  A    between atoms: C_20  and  C_24
   18  A    between atoms: C_20  and  C_29
   19  A    between atoms: C_21  and  C_30
   20  A    between atoms: C_29  and  C_36
                            x       y       z     vdW  Elec       q    Type
                         _______ _______ _______ _____ _____    ______ ____

>  <TORSDO>
F 20

$$$$
