=
 OpenBabel11052413363D

 28 32  0  0  1  0  0  0  0  0999 V2000
  181.1720  178.5340  137.1660 C   0  0  0  0  0  2  0  0  0  0  0  0
  181.4710  175.6740  136.8780 C   0  0  0  0  0  1  0  0  0  0  0  0
  180.3540  176.1650  137.7960 C   0  0  1  0  0  0  0  0  0  0  0  0
  180.7270  181.6270  136.9140 C   0  0  0  0  0  2  0  0  0  0  0  0
  181.4830  176.1230  139.9410 C   0  0  0  0  0  2  0  0  0  0  0  0
  181.0180  178.4990  140.6150 C   0  0  2  0  0  3  0  0  0  0  0  0
  180.4650  175.3660  139.1020 C   0  0  1  0  0  3  0  0  0  0  0  0
  180.9060  180.5820  139.1580 C   0  0  0  0  0  2  0  0  0  0  0  0
  181.4800  177.5740  139.4670 C   0  0  2  0  0  3  0  0  0  0  0  0
  180.8550  180.5880  135.9740 O   0  0  0  0  0  0  0  0  0  0  0  0
  180.1730  179.7000  140.1580 C   0  0  0  0  0  2  0  0  0  0  0  0
  180.0350  180.7470  137.9170 C   0  0  2  0  0  3  0  0  0  0  0  0
  180.2180  179.6860  136.8400 C   0  0  2  0  0  3  0  0  0  0  0  0
  180.5800  177.6170  138.2340 C   0  0  1  0  0  3  0  0  0  0  0  0
  184.2670  178.3580  142.6440 C   0  0  0  0  0  2  0  0  0  0  0  0
  181.8790  179.0480  143.0080 C   0  0  1  0  0  3  0  0  0  0  0  0
  183.2410  178.8520  143.6310 C   0  0  2  0  0  0  0  0  0  0  0  0
  182.1880  178.9670  141.5040 C   0  0  1  0  0  3  0  0  0  0  0  0
  183.6800  180.0480  144.2260 O   0  0  0  0  0  0  0  0  0  0  0  0
  183.5030  178.9450  145.0830 C   0  0  0  0  0  2  0  0  0  0  0  0
  183.4690  178.1390  141.3670 C   0  0  0  0  0  2  0  0  0  0  0  0
  180.8720  178.0020  143.5180 C   0  0  0  0  0  2  0  0  0  0  0  0
  179.7480  178.5990  144.3570 C   0  0  0  0  0  2  0  0  0  0  0  0
  179.1170  179.7510  143.6070 C   0  0  0  0  0  1  0  0  0  0  0  0
  179.3670  175.6260  141.4730 O   0  0  0  0  0  0  0  0  0  0  0  0
  178.9310  175.2500  140.0630 S   0  0  0  0  0  3  0  0  0  0  0  0
  179.0550  175.9860  137.0460 C   0  0  0  0  0  3  0  0  0  0  0  0
  178.9730  175.4490  135.8260 C   0  0  0  0  0  2  0  0  0  0  0  0
  3  2  1  6  0  0  0
  3 14  1  0  0  0  0
  3  7  1  0  0  0  0
  6 11  1  6  0  0  0
  6 18  1  0  0  0  0
  7  5  1  0  0  0  0
  7 26  1  1  0  0  0
  8 11  1  0  0  0  0
  9  5  1  1  0  0  0
  9  6  1  0  0  0  0
 10 13  1  0  0  0  0
 10  4  1  0  0  0  0
 12  4  1  6  0  0  0
 12  8  1  0  0  0  0
 13  1  1  1  0  0  0
 13 12  1  0  0  0  0
 14  1  1  6  0  0  0
 14  9  1  0  0  0  0
 16 22  1  1  0  0  0
 16 17  1  0  0  0  0
 17 15  1  6  0  0  0
 17 19  1  0  0  0  0
 17 20  1  0  0  0  0
 18 21  1  1  0  0  0
 18 16  1  0  0  0  0
 19 20  1  0  0  0  0
 21 15  1  0  0  0  0
 22 23  1  0  0  0  0
 24 23  1  0  0  0  0
 26 25  2  0  0  0  0
 27  3  1  0  0  0  0
 28 27  2  0  0  0  0
M  END
>  <MODEL>
1

>  <REMARK>
 VINA RESULT:      -5.2      0.000      0.000
  Name = 
  5 active torsions:
  status: ('A' for Active; 'I' for Inactive)
    1  A    between atoms: C_3  and  C_7
    2  A    between atoms: C_9  and  C_18
    3  A    between atoms: C_10  and  C_13
    4  A    between atoms: C_11  and  S_22
    5  A    between atoms: C_14  and  C_18
                            x       y       z     vdW  Elec       q    Type
                         _______ _______ _______ _____ _____    ______ ____

>  <TORSDO>
F 5

$$$$
=
 OpenBabel11052413363D

 28 32  0  0  1  0  0  0  0  0999 V2000
  188.6860  174.2700  135.5130 C   0  0  0  0  0  2  0  0  0  0  0  0
  190.2050  176.7280  135.5160 C   0  0  0  0  0  1  0  0  0  0  0  0
  189.5190  176.3350  136.8230 C   0  0  1  0  0  0  0  0  0  0  0  0
  187.5470  171.3510  135.4040 C   0  0  0  0  0  2  0  0  0  0  0  0
  187.4360  177.5580  136.6230 C   0  0  0  0  0  2  0  0  0  0  0  0
  185.8730  175.6240  136.9860 C   0  0  2  0  0  3  0  0  0  0  0  0
  188.7810  177.5810  137.3320 C   0  0  1  0  0  3  0  0  0  0  0  0
  186.1250  173.2030  136.2460 C   0  0  0  0  0  2  0  0  0  0  0  0
  187.1400  176.1090  136.2470 C   0  0  2  0  0  3  0  0  0  0  0  0
  188.7890  171.9170  135.0660 O   0  0  0  0  0  0  0  0  0  0  0  0
  185.9180  174.1490  137.4190 C   0  0  0  0  0  2  0  0  0  0  0  0
  187.3250  172.3080  136.5410 C   0  0  2  0  0  3  0  0  0  0  0  0
  188.6770  172.8570  136.1030 C   0  0  2  0  0  3  0  0  0  0  0  0
  188.3990  175.3150  136.5880 C   0  0  1  0  0  3  0  0  0  0  0  0
  183.4450  177.3790  134.5940 C   0  0  0  0  0  2  0  0  0  0  0  0
  183.4710  176.6260  136.9900 C   0  0  1  0  0  3  0  0  0  0  0  0
  182.7060  177.3480  135.9060 C   0  0  2  0  0  0  0  0  0  0  0  0
  184.5810  175.9170  136.1960 C   0  0  1  0  0  3  0  0  0  0  0  0
  181.4390  176.7650  135.7350 O   0  0  0  0  0  0  0  0  0  0  0  0
  181.4630  178.1120  136.1470 C   0  0  0  0  0  2  0  0  0  0  0  0
  184.7830  176.7290  134.9130 C   0  0  0  0  0  2  0  0  0  0  0  0
  183.9720  177.6010  138.0700 C   0  0  0  0  0  2  0  0  0  0  0  0
  183.3400  177.3700  139.4380 C   0  0  0  0  0  2  0  0  0  0  0  0
  182.6490  176.0240  139.4530 C   0  0  0  0  0  1  0  0  0  0  0  0
  187.3190  178.6010  139.2600 O   0  0  0  0  0  0  0  0  0  0  0  0
  188.4660  177.6090  139.1180 S   0  0  0  0  0  3  0  0  0  0  0  0
  190.5940  175.8080  137.7440 C   0  0  0  0  0  3  0  0  0  0  0  0
  191.8600  176.2330  137.7250 C   0  0  0  0  0  2  0  0  0  0  0  0
  3  2  1  6  0  0  0
  3  7  1  0  0  0  0
  3 27  1  0  0  0  0
  5  7  1  0  0  0  0
  6 11  1  6  0  0  0
  7 26  1  1  0  0  0
  8 12  1  0  0  0  0
  8 11  1  0  0  0  0
  9 14  1  0  0  0  0
  9  5  1  1  0  0  0
  9  6  1  0  0  0  0
 10  4  1  0  0  0  0
 10 13  1  0  0  0  0
 12  4  1  6  0  0  0
 13  1  1  6  0  0  0
 13 12  1  0  0  0  0
 14  1  1  6  0  0  0
 14  3  1  0  0  0  0
 15 21  1  0  0  0  0
 16 22  1  1  0  0  0
 17 15  1  6  0  0  0
 17 20  1  0  0  0  0
 17 16  1  0  0  0  0
 18 21  1  6  0  0  0
 18  6  1  0  0  0  0
 18 16  1  0  0  0  0
 19 17  1  0  0  0  0
 19 20  1  0  0  0  0
 22 23  1  0  0  0  0
 23 24  1  0  0  0  0
 26 25  2  0  0  0  0
 28 27  2  0  0  0  0
M  END
>  <MODEL>
2

>  <REMARK>
 VINA RESULT:      -4.6      6.279      8.985
  Name = 
  5 active torsions:
  status: ('A' for Active; 'I' for Inactive)
    1  A    between atoms: C_3  and  C_7
    2  A    between atoms: C_9  and  C_18
    3  A    between atoms: C_10  and  C_13
    4  A    between atoms: C_11  and  S_22
    5  A    between atoms: C_14  and  C_18
                            x       y       z     vdW  Elec       q    Type
                         _______ _______ _______ _____ _____    ______ ____

>  <TORSDO>
F 5

$$$$
=
 OpenBabel11052413363D

 28 32  0  0  1  0  0  0  0  0999 V2000
  185.9090  173.7920  135.6090 C   0  0  0  0  0  2  0  0  0  0  0  0
  187.9990  175.5790  134.7220 C   0  0  0  0  0  1  0  0  0  0  0  0
  187.5960  175.6590  136.1930 C   0  0  1  0  0  0  0  0  0  0  0  0
  184.0130  171.4340  136.4320 C   0  0  0  0  0  2  0  0  0  0  0  0
  185.9600  177.4460  136.1160 C   0  0  0  0  0  2  0  0  0  0  0  0
  184.0700  176.2210  137.2320 C   0  0  2  0  0  3  0  0  0  0  0  0
  187.3940  177.1450  136.5210 C   0  0  1  0  0  3  0  0  0  0  0  0
  183.4350  173.7640  137.0630 C   0  0  0  0  0  2  0  0  0  0  0  0
  185.1840  176.1320  136.1650 C   0  0  2  0  0  3  0  0  0  0  0  0
  185.2320  171.4960  135.7310 O   0  0  0  0  0  0  0  0  0  0  0  0
  183.8140  174.9090  137.9910 C   0  0  0  0  0  2  0  0  0  0  0  0
  184.3720  172.5880  137.3250 C   0  0  2  0  0  3  0  0  0  0  0  0
  185.6600  172.5810  136.5120 C   0  0  2  0  0  3  0  0  0  0  0  0
  186.2160  175.0390  136.4350 C   0  0  1  0  0  3  0  0  0  0  0  0
  181.6950  178.3150  135.0710 C   0  0  0  0  0  2  0  0  0  0  0  0
  182.0820  177.8760  137.5140 C   0  0  1  0  0  3  0  0  0  0  0  0
  181.3000  178.6580  136.4850 C   0  0  2  0  0  0  0  0  0  0  0  0
  182.7520  176.7840  136.6630 C   0  0  1  0  0  3  0  0  0  0  0  0
  179.9210  178.4550  136.6650 O   0  0  0  0  0  0  0  0  0  0  0  0
  180.3900  179.7740  136.8170 C   0  0  0  0  0  2  0  0  0  0  0  0
  182.8540  177.3440  135.2410 C   0  0  0  0  0  2  0  0  0  0  0  0
  183.0560  178.7820  138.2870 C   0  0  0  0  0  2  0  0  0  0  0  0
  182.7230  178.9090  139.7690 C   0  0  0  0  0  2  0  0  0  0  0  0
  183.3440  177.7550  140.5260 C   0  0  0  0  0  1  0  0  0  0  0  0
  186.5190  178.6510  138.4860 O   0  0  0  0  0  0  0  0  0  0  0  0
  187.5770  177.5750  138.2740 S   0  0  0  0  0  3  0  0  0  0  0  0
  188.6830  174.9720  136.9860 C   0  0  0  0  0  3  0  0  0  0  0  0
  189.5560  174.1120  136.4550 C   0  0  0  0  0  2  0  0  0  0  0  0
  3  2  1  6  0  0  0
  3 14  1  0  0  0  0
  3  7  1  0  0  0  0
  3 27  1  0  0  0  0
  5  7  1  0  0  0  0
  6 11  1  6  0  0  0
  7 26  1  1  0  0  0
  8 12  1  0  0  0  0
  8 11  1  0  0  0  0
  9  5  1  1  0  0  0
  9 14  1  0  0  0  0
  9  6  1  0  0  0  0
 10  4  1  0  0  0  0
 10 13  1  0  0  0  0
 12  4  1  6  0  0  0
 13  1  1  6  0  0  0
 13 12  1  0  0  0  0
 14  1  1  6  0  0  0
 15 21  1  0  0  0  0
 16 22  1  6  0  0  0
 17 15  1  6  0  0  0
 17 19  1  0  0  0  0
 17 20  1  0  0  0  0
 17 16  1  0  0  0  0
 18 21  1  6  0  0  0
 18  6  1  0  0  0  0
 18 16  1  0  0  0  0
 19 20  1  0  0  0  0
 22 23  1  0  0  0  0
 23 24  1  0  0  0  0
 26 25  2  0  0  0  0
 28 27  2  0  0  0  0
M  END
>  <MODEL>
3

>  <REMARK>
 VINA RESULT:      -4.4      4.867      7.662
  Name = 
  5 active torsions:
  status: ('A' for Active; 'I' for Inactive)
    1  A    between atoms: C_3  and  C_7
    2  A    between atoms: C_9  and  C_18
    3  A    between atoms: C_10  and  C_13
    4  A    between atoms: C_11  and  S_22
    5  A    between atoms: C_14  and  C_18
                            x       y       z     vdW  Elec       q    Type
                         _______ _______ _______ _____ _____    ______ ____

>  <TORSDO>
F 5

$$$$
=
 OpenBabel11052413363D

 28 32  0  0  1  0  0  0  0  0999 V2000
  184.7670  175.7020  135.4630 C   0  0  0  0  0  2  0  0  0  0  0  0
  186.6970  177.8080  135.0250 C   0  0  0  0  0  1  0  0  0  0  0  0
  186.7050  177.1340  136.3960 C   0  0  1  0  0  0  0  0  0  0  0  0
  182.9580  173.1420  135.5180 C   0  0  0  0  0  2  0  0  0  0  0  0
  185.2670  178.6350  137.6440 C   0  0  0  0  0  2  0  0  0  0  0  0
  183.6400  176.9170  138.4910 C   0  0  2  0  0  3  0  0  0  0  0  0
  186.7260  178.2550  137.4450 C   0  0  1  0  0  3  0  0  0  0  0  0
  182.7720  174.8260  137.3300 C   0  0  0  0  0  2  0  0  0  0  0  0
  184.4210  177.4250  137.2580 C   0  0  2  0  0  3  0  0  0  0  0  0
  183.9490  173.6070  134.6340 O   0  0  0  0  0  0  0  0  0  0  0  0
  183.4800  175.3890  138.5540 C   0  0  0  0  0  2  0  0  0  0  0  0
  183.6380  173.7280  136.7220 C   0  0  2  0  0  3  0  0  0  0  0  0
  184.6610  174.1920  135.6930 C   0  0  2  0  0  3  0  0  0  0  0  0
  185.3880  176.3990  136.6710 C   0  0  1  0  0  3  0  0  0  0  0  0
  180.9000  179.5750  138.1440 C   0  0  0  0  0  2  0  0  0  0  0  0
  182.0500  178.3260  139.9940 C   0  0  1  0  0  3  0  0  0  0  0  0
  181.0500  179.3980  139.6330 C   0  0  2  0  0  0  0  0  0  0  0  0
  182.2730  177.6120  138.6510 C   0  0  1  0  0  3  0  0  0  0  0  0
  179.8020  179.1140  140.2140 O   0  0  0  0  0  0  0  0  0  0  0  0
  180.4280  180.3090  140.6170 C   0  0  0  0  0  2  0  0  0  0  0  0
  181.9400  178.6320  137.5570 C   0  0  0  0  0  2  0  0  0  0  0  0
  183.3190  178.9300  140.6230 C   0  0  0  0  0  2  0  0  0  0  0  0
  183.7640  178.2190  141.8960 C   0  0  0  0  0  2  0  0  0  0  0  0
  183.2420  178.9690  143.1010 C   0  0  0  0  0  1  0  0  0  0  0  0
  188.5730  178.7350  139.2480 O   0  0  0  0  0  0  0  0  0  0  0  0
  187.4010  177.7800  139.0600 S   0  0  0  0  0  3  0  0  0  0  0  0
  187.8980  176.2080  136.4250 C   0  0  0  0  0  3  0  0  0  0  0  0
  188.7930  176.1220  135.4380 C   0  0  0  0  0  2  0  0  0  0  0  0
  3  2  1  6  0  0  0
  3 27  1  0  0  0  0
  3 14  1  0  0  0  0
  3  7  1  0  0  0  0
  6 11  1  6  0  0  0
  6 18  1  0  0  0  0
  7  5  1  0  0  0  0
  7 26  1  1  0  0  0
  8 11  1  0  0  0  0
  9  5  1  1  0  0  0
  9  6  1  0  0  0  0
 10  4  1  0  0  0  0
 10 13  1  0  0  0  0
 12  4  1  6  0  0  0
 12  8  1  0  0  0  0
 13  1  1  6  0  0  0
 13 12  1  0  0  0  0
 14  1  1  6  0  0  0
 14  9  1  0  0  0  0
 16 22  1  6  0  0  0
 17 15  1  6  0  0  0
 17 16  1  0  0  0  0
 17 19  1  0  0  0  0
 17 20  1  0  0  0  0
 18 21  1  6  0  0  0
 18 16  1  0  0  0  0
 19 20  1  0  0  0  0
 21 15  1  0  0  0  0
 22 23  1  0  0  0  0
 23 24  1  0  0  0  0
 26 25  2  0  0  0  0
 28 27  2  0  0  0  0
M  END
>  <MODEL>
4

>  <REMARK>
 VINA RESULT:      -4.2      4.254      6.332
  Name = 
  5 active torsions:
  status: ('A' for Active; 'I' for Inactive)
    1  A    between atoms: C_3  and  C_7
    2  A    between atoms: C_9  and  C_18
    3  A    between atoms: C_10  and  C_13
    4  A    between atoms: C_11  and  S_22
    5  A    between atoms: C_14  and  C_18
                            x       y       z     vdW  Elec       q    Type
                         _______ _______ _______ _____ _____    ______ ____

>  <TORSDO>
F 5

$$$$
=
 OpenBabel11052413363D

 28 32  0  0  1  0  0  0  0  0999 V2000
  187.0540  174.9530  135.7790 C   0  0  0  0  0  2  0  0  0  0  0  0
  186.8920  177.8070  135.3510 C   0  0  0  0  0  1  0  0  0  0  0  0
  186.5260  177.2920  136.7420 C   0  0  1  0  0  0  0  0  0  0  0  0
  187.7940  171.9280  136.1380 C   0  0  0  0  0  2  0  0  0  0  0  0
  184.1220  177.0660  136.5210 C   0  0  0  0  0  2  0  0  0  0  0  0
  183.9410  174.6660  137.2430 C   0  0  2  0  0  3  0  0  0  0  0  0
  185.1970  177.9550  137.1290 C   0  0  1  0  0  3  0  0  0  0  0  0
  185.5500  172.7420  136.8180 C   0  0  0  0  0  2  0  0  0  0  0  0
  184.7180  175.6700  136.3630 C   0  0  2  0  0  3  0  0  0  0  0  0
  188.4950  173.0430  135.6440 O   0  0  0  0  0  0  0  0  0  0  0  0
  184.8130  173.5630  137.8660 C   0  0  0  0  0  2  0  0  0  0  0  0
  187.0390  172.7440  137.1490 C   0  0  2  0  0  3  0  0  0  0  0  0
  187.8420  173.8930  136.5520 C   0  0  2  0  0  3  0  0  0  0  0  0
  186.1970  175.7950  136.7220 C   0  0  1  0  0  3  0  0  0  0  0  0
  181.0730  174.2990  134.7260 C   0  0  0  0  0  2  0  0  0  0  0  0
  181.3780  174.2210  137.2190 C   0  0  1  0  0  3  0  0  0  0  0  0
  180.4000  174.1720  136.0680 C   0  0  2  0  0  0  0  0  0  0  0  0
  182.7320  174.0510  136.5100 C   0  0  1  0  0  3  0  0  0  0  0  0
  179.6460  172.9860  136.1210 O   0  0  0  0  0  0  0  0  0  0  0  0
  178.9310  174.1940  136.2360 C   0  0  0  0  0  2  0  0  0  0  0  0
  182.5350  174.5430  135.0730 C   0  0  0  0  0  2  0  0  0  0  0  0
  181.2300  175.5220  138.0270 C   0  0  0  0  0  2  0  0  0  0  0  0
  180.7010  175.3040  139.4390 C   0  0  0  0  0  2  0  0  0  0  0  0
  180.5390  176.6400  140.1300 C   0  0  0  0  0  1  0  0  0  0  0  0
  184.9830  179.5560  139.1990 O   0  0  0  0  0  0  0  0  0  0  0  0
  184.8840  178.0630  138.9120 S   0  0  0  0  0  3  0  0  0  0  0  0
  187.6890  177.6140  137.6510 C   0  0  0  0  0  3  0  0  0  0  0  0
  188.5880  178.5680  137.3940 C   0  0  0  0  0  2  0  0  0  0  0  0
  3  2  1  6  0  0  0
  3  7  1  0  0  0  0
  3 27  1  0  0  0  0
  5  7  1  0  0  0  0
  6 11  1  6  0  0  0
  7 26  1  1  0  0  0
  8 12  1  0  0  0  0
  8 11  1  0  0  0  0
  9  5  1  1  0  0  0
  9 14  1  0  0  0  0
  9  6  1  0  0  0  0
 10  4  1  0  0  0  0
 10 13  1  0  0  0  0
 12  4  1  6  0  0  0
 13  1  1  6  0  0  0
 13 12  1  0  0  0  0
 14  1  1  6  0  0  0
 14  3  1  0  0  0  0
 15 21  1  0  0  0  0
 16 22  1  6  0  0  0
 17 15  1  6  0  0  0
 17 19  1  0  0  0  0
 17 20  1  0  0  0  0
 17 16  1  0  0  0  0
 18 21  1  6  0  0  0
 18 16  1  0  0  0  0
 18  6  1  0  0  0  0
 19 20  1  0  0  0  0
 22 23  1  0  0  0  0
 23 24  1  0  0  0  0
 26 25  2  0  0  0  0
 28 27  2  0  0  0  0
M  END
>  <MODEL>
5

>  <REMARK>
 VINA RESULT:      -4.1      4.882      8.145
  Name = 
  5 active torsions:
  status: ('A' for Active; 'I' for Inactive)
    1  A    between atoms: C_3  and  C_7
    2  A    between atoms: C_9  and  C_18
    3  A    between atoms: C_10  and  C_13
    4  A    between atoms: C_11  and  S_22
    5  A    between atoms: C_14  and  C_18
                            x       y       z     vdW  Elec       q    Type
                         _______ _______ _______ _____ _____    ______ ____

>  <TORSDO>
F 5

$$$$
=
 OpenBabel11052413363D

 28 32  0  0  1  0  0  0  0  0999 V2000
  186.6680  177.2450  144.7350 C   0  0  0  0  0  2  0  0  0  0  0  0
  188.5560  175.7800  143.1090 C   0  0  0  0  0  1  0  0  0  0  0  0
  188.5220  177.2970  142.9360 C   0  0  1  0  0  0  0  0  0  0  0  0
  184.9310  178.6370  146.9430 C   0  0  0  0  0  2  0  0  0  0  0  0
  186.9900  177.5030  141.0680 C   0  0  0  0  0  2  0  0  0  0  0  0
  185.3750  179.1090  142.1320 C   0  0  2  0  0  3  0  0  0  0  0  0
  188.4660  177.5730  141.4270 C   0  0  1  0  0  3  0  0  0  0  0  0
  184.6180  179.2450  144.5570 C   0  0  0  0  0  2  0  0  0  0  0  0
  186.1960  177.8150  142.3340 C   0  0  2  0  0  3  0  0  0  0  0  0
  185.9470  177.6640  146.9820 O   0  0  0  0  0  0  0  0  0  0  0  0
  185.2550  179.9850  143.3900 C   0  0  0  0  0  2  0  0  0  0  0  0
  185.5410  179.3470  145.7680 C   0  0  2  0  0  3  0  0  0  0  0  0
  186.5940  178.2540  145.8840 C   0  0  2  0  0  3  0  0  0  0  0  0
  187.2160  177.8980  143.4670 C   0  0  1  0  0  3  0  0  0  0  0  0
  182.5090  177.2260  140.4180 C   0  0  0  0  0  2  0  0  0  0  0  0
  183.7680  179.3770  140.1040 C   0  0  1  0  0  3  0  0  0  0  0  0
  182.7100  178.4470  139.5580 C   0  0  2  0  0  0  0  0  0  0  0  0
  183.9830  178.8360  141.5270 C   0  0  1  0  0  3  0  0  0  0  0  0
  181.4930  179.1340  139.4020 O   0  0  0  0  0  0  0  0  0  0  0  0
  182.0770  178.6090  138.2320 C   0  0  0  0  0  2  0  0  0  0  0  0
  183.5740  177.3610  141.4970 C   0  0  0  0  0  2  0  0  0  0  0  0
  185.0250  179.3810  139.2170 C   0  0  0  0  0  2  0  0  0  0  0  0
  185.0600  178.2400  138.2070 C   0  0  0  0  0  2  0  0  0  0  0  0
  186.3900  178.2460  137.4850 C   0  0  0  0  0  1  0  0  0  0  0  0
  189.0560  179.1350  139.4000 O   0  0  0  0  0  0  0  0  0  0  0  0
  189.0820  179.2030  140.9220 S   0  0  0  0  0  3  0  0  0  0  0  0
  189.7390  177.8490  143.6420 C   0  0  0  0  0  3  0  0  0  0  0  0
  190.3130  177.2630  144.6950 C   0  0  0  0  0  2  0  0  0  0  0  0
  3  2  1  1  0  0  0
  3 14  1  0  0  0  0
  3 27  1  0  0  0  0
  4 10  1  0  0  0  0
  5  7  1  0  0  0  0
  6  9  1  0  0  0  0
  6 11  1  1  0  0  0
  7 26  1  1  0  0  0
  7  3  1  0  0  0  0
  9  5  1  6  0  0  0
  9 14  1  0  0  0  0
 11  8  1  0  0  0  0
 12  8  1  6  0  0  0
 12 13  1  0  0  0  0
 12  4  1  0  0  0  0
 13  1  1  6  0  0  0
 13 10  1  0  0  0  0
 14  1  1  1  0  0  0
 15 21  1  0  0  0  0
 16 22  1  6  0  0  0
 16 18  1  0  0  0  0
 17 20  1  6  0  0  0
 17 16  1  0  0  0  0
 17 15  1  0  0  0  0
 18 21  1  6  0  0  0
 18  6  1  0  0  0  0
 19 17  1  0  0  0  0
 20 19  1  0  0  0  0
 23 22  1  0  0  0  0
 24 23  1  0  0  0  0
 25 26  2  0  0  0  0
 27 28  2  0  0  0  0
M  END
>  <MODEL>
6

>  <REMARK>
 VINA RESULT:      -4.1      4.066      8.461
  Name = 
  5 active torsions:
  status: ('A' for Active; 'I' for Inactive)
    1  A    between atoms: C_3  and  C_7
    2  A    between atoms: C_9  and  C_18
    3  A    between atoms: C_10  and  C_13
    4  A    between atoms: C_11  and  S_22
    5  A    between atoms: C_14  and  C_18
                            x       y       z     vdW  Elec       q    Type
                         _______ _______ _______ _____ _____    ______ ____

>  <TORSDO>
F 5

$$$$
=
 OpenBabel11052413363D

 28 32  0  0  1  0  0  0  0  0999 V2000
  185.8400  174.1980  137.2170 C   0  0  0  0  0  2  0  0  0  0  0  0
  184.0370  171.9400  137.2130 C   0  0  0  0  0  1  0  0  0  0  0  0
  183.8160  173.0060  136.1410 C   0  0  1  0  0  0  0  0  0  0  0  0
  188.2030  176.2550  137.1090 C   0  0  0  0  0  2  0  0  0  0  0  0
  182.1560  174.3990  137.2280 C   0  0  0  0  0  2  0  0  0  0  0  0
  183.3620  176.5930  137.0090 C   0  0  2  0  0  3  0  0  0  0  0  0
  182.3180  173.3410  136.1470 C   0  0  1  0  0  3  0  0  0  0  0  0
  185.8580  177.0670  137.1420 C   0  0  0  0  0  2  0  0  0  0  0  0
  183.5020  175.1010  137.3870 C   0  0  2  0  0  3  0  0  0  0  0  0
  188.1450  174.8500  137.1390 O   0  0  0  0  0  0  0  0  0  0  0  0
  184.5940  177.1860  136.3040 C   0  0  0  0  0  2  0  0  0  0  0  0
  186.9350  176.3750  136.3120 C   0  0  2  0  0  3  0  0  0  0  0  0
  186.9530  174.8540  136.3960 C   0  0  2  0  0  3  0  0  0  0  0  0
  184.4900  174.3310  136.5150 C   0  0  1  0  0  3  0  0  0  0  0  0
  181.8760  177.5630  140.4070 C   0  0  0  0  0  2  0  0  0  0  0  0
  181.6680  178.2940  138.0130 C   0  0  1  0  0  3  0  0  0  0  0  0
  181.1730  178.4680  139.4290 C   0  0  2  0  0  0  0  0  0  0  0  0
  182.9510  177.4700  138.2090 C   0  0  1  0  0  3  0  0  0  0  0  0
  181.3050  179.8090  139.8290 O   0  0  0  0  0  0  0  0  0  0  0  0
  179.9970  179.2870  139.7950 C   0  0  0  0  0  2  0  0  0  0  0  0
  182.7830  176.7120  139.5300 C   0  0  0  0  0  2  0  0  0  0  0  0
  180.6030  177.6290  137.1220 C   0  0  0  0  0  2  0  0  0  0  0  0
  180.1750  178.4910  135.9410 C   0  0  0  0  0  2  0  0  0  0  0  0
  180.8290  179.8510  136.0450 C   0  0  0  0  0  1  0  0  0  0  0  0
  180.4690  174.8400  135.0390 O   0  0  0  0  0  0  0  0  0  0  0  0
  181.6810  174.0320  134.5950 S   0  0  0  0  0  3  0  0  0  0  0  0
  184.3390  172.4400  134.8420 C   0  0  0  0  0  3  0  0  0  0  0  0
  185.2040  171.4250  134.7710 C   0  0  0  0  0  2  0  0  0  0  0  0
  3  7  1  0  0  0  0
  3 14  1  0  0  0  0
  3  2  1  1  0  0  0
  4 10  1  0  0  0  0
  6 11  1  1  0  0  0
  6  9  1  0  0  0  0
  6 18  1  0  0  0  0
  7 26  1  6  0  0  0
  7  5  1  0  0  0  0
  9  5  1  6  0  0  0
 11  8  1  0  0  0  0
 12 13  1  0  0  0  0
 12  4  1  1  0  0  0
 12  8  1  0  0  0  0
 13 10  1  0  0  0  0
 13  1  1  1  0  0  0
 14  1  1  1  0  0  0
 14  9  1  0  0  0  0
 16 22  1  6  0  0  0
 16 18  1  0  0  0  0
 16 17  1  0  0  0  0
 17 20  1  1  0  0  0
 17 19  1  0  0  0  0
 17 15  1  0  0  0  0
 18 21  1  1  0  0  0
 20 19  1  0  0  0  0
 21 15  1  0  0  0  0
 23 24  1  0  0  0  0
 23 22  1  0  0  0  0
 26 25  2  0  0  0  0
 27  3  1  0  0  0  0
 28 27  2  0  0  0  0
M  END
>  <MODEL>
7

>  <REMARK>
 VINA RESULT:      -3.9      4.109      6.184
  Name = 
  5 active torsions:
  status: ('A' for Active; 'I' for Inactive)
    1  A    between atoms: C_3  and  C_7
    2  A    between atoms: C_9  and  C_18
    3  A    between atoms: C_10  and  C_13
    4  A    between atoms: C_11  and  S_22
    5  A    between atoms: C_14  and  C_18
                            x       y       z     vdW  Elec       q    Type
                         _______ _______ _______ _____ _____    ______ ____

>  <TORSDO>
F 5

$$$$
=
 OpenBabel11052413363D

 28 32  0  0  1  0  0  0  0  0999 V2000
  180.5450  175.8600  137.4820 C   0  0  0  0  0  2  0  0  0  0  0  0
  180.7920  176.6690  140.2460 C   0  0  0  0  0  1  0  0  0  0  0  0
  181.2540  177.6680  139.1870 C   0  0  1  0  0  0  0  0  0  0  0  0
  179.7110  174.9730  134.5940 C   0  0  0  0  0  2  0  0  0  0  0  0
  183.6180  177.1430  139.0720 C   0  0  0  0  0  2  0  0  0  0  0  0
  183.7580  176.7580  136.5930 C   0  0  2  0  0  3  0  0  0  0  0  0
  182.6390  178.1700  139.6200 C   0  0  1  0  0  3  0  0  0  0  0  0
  182.0380  175.7150  135.0360 C   0  0  0  0  0  2  0  0  0  0  0  0
  182.9510  176.4660  137.8780 C   0  0  2  0  0  3  0  0  0  0  0  0
  179.0180  175.0690  135.8140 O   0  0  0  0  0  0  0  0  0  0  0  0
  182.8970  176.9360  135.3310 C   0  0  0  0  0  2  0  0  0  0  0  0
  180.5840  176.1570  134.9000 C   0  0  2  0  0  3  0  0  0  0  0  0
  179.7820  176.1830  136.1950 C   0  0  2  0  0  3  0  0  0  0  0  0
  181.5160  176.9840  137.8410 C   0  0  1  0  0  3  0  0  0  0  0  0
  186.3070  173.9850  137.3080 C   0  0  0  0  0  2  0  0  0  0  0  0
  186.3010  176.2880  136.3050 C   0  0  1  0  0  3  0  0  0  0  0  0
  187.1350  175.1020  136.7270 C   0  0  2  0  0  0  0  0  0  0  0  0
  184.8720  175.7210  136.3460 C   0  0  1  0  0  3  0  0  0  0  0  0
  187.8910  174.6280  135.6400 O   0  0  0  0  0  0  0  0  0  0  0  0
  188.6130  175.1030  136.7520 C   0  0  0  0  0  2  0  0  0  0  0  0
  184.8960  174.5560  137.3400 C   0  0  0  0  0  2  0  0  0  0  0  0
  186.5420  177.5000  137.2220 C   0  0  0  0  0  2  0  0  0  0  0  0
  187.2530  178.6560  136.5290 C   0  0  0  0  0  2  0  0  0  0  0  0
  188.7230  178.6290  136.8830 C   0  0  0  0  0  1  0  0  0  0  0  0
  184.5460  179.9650  139.4320 O   0  0  0  0  0  0  0  0  0  0  0  0
  183.1090  179.7910  138.9580 S   0  0  0  0  0  3  0  0  0  0  0  0
  180.1880  178.7350  139.0940 C   0  0  0  0  0  3  0  0  0  0  0  0
  179.6950  179.3840  140.1510 C   0  0  0  0  0  2  0  0  0  0  0  0
  3  7  1  0  0  0  0
  3  2  1  1  0  0  0
  4 10  1  0  0  0  0
  5  7  1  0  0  0  0
  6 11  1  6  0  0  0
  6  9  1  0  0  0  0
  7 26  1  6  0  0  0
  8 11  1  0  0  0  0
  9  5  1  1  0  0  0
 10 13  1  0  0  0  0
 12  4  1  6  0  0  0
 12  8  1  0  0  0  0
 12 13  1  0  0  0  0
 13  1  1  1  0  0  0
 14  1  1  1  0  0  0
 14  9  1  0  0  0  0
 14  3  1  0  0  0  0
 15 21  1  0  0  0  0
 16 18  1  0  0  0  0
 16 17  1  0  0  0  0
 16 22  1  1  0  0  0
 17 20  1  1  0  0  0
 17 15  1  0  0  0  0
 18  6  1  0  0  0  0
 18 21  1  1  0  0  0
 19 17  1  0  0  0  0
 19 20  1  0  0  0  0
 23 24  1  0  0  0  0
 23 22  1  0  0  0  0
 26 25  2  0  0  0  0
 27  3  1  0  0  0  0
 27 28  2  0  0  0  0
M  END
>  <MODEL>
8

>  <REMARK>
 VINA RESULT:      -3.9      4.190      6.707
  Name = 
  5 active torsions:
  status: ('A' for Active; 'I' for Inactive)
    1  A    between atoms: C_3  and  C_7
    2  A    between atoms: C_9  and  C_18
    3  A    between atoms: C_10  and  C_13
    4  A    between atoms: C_11  and  S_22
    5  A    between atoms: C_14  and  C_18
                            x       y       z     vdW  Elec       q    Type
                         _______ _______ _______ _____ _____    ______ ____

>  <TORSDO>
F 5

$$$$
=
 OpenBabel11052413363D

 28 32  0  0  1  0  0  0  0  0999 V2000
  181.2650  179.9210  135.7940 C   0  0  0  0  0  2  0  0  0  0  0  0
  181.6090  177.3140  134.5940 C   0  0  0  0  0  1  0  0  0  0  0  0
  180.8520  177.3730  135.9190 C   0  0  1  0  0  0  0  0  0  0  0  0
  180.5840  182.8670  136.6230 C   0  0  0  0  0  2  0  0  0  0  0  0
  182.6530  176.9500  137.4860 C   0  0  0  0  0  2  0  0  0  0  0  0
  182.3140  178.9690  138.9430 C   0  0  2  0  0  3  0  0  0  0  0  0
  181.4530  176.2890  136.8250 C   0  0  1  0  0  3  0  0  0  0  0  0
  181.5870  181.3160  138.2810 C   0  0  0  0  0  2  0  0  0  0  0  0
  182.4040  178.4560  137.4880 C   0  0  2  0  0  3  0  0  0  0  0  0
  180.4390  182.1400  135.4270 O   0  0  0  0  0  0  0  0  0  0  0  0
  181.2970  180.1030  139.1520 C   0  0  0  0  0  2  0  0  0  0  0  0
  180.3330  181.6610  137.4840 C   0  0  2  0  0  3  0  0  0  0  0  0
  180.1930  180.9560  136.1410 C   0  0  2  0  0  3  0  0  0  0  0  0
  181.1330  178.6780  136.6720 C   0  0  1  0  0  3  0  0  0  0  0  0
  186.0450  178.7550  139.7980 C   0  0  0  0  0  2  0  0  0  0  0  0
  183.8770  179.1050  141.0190 C   0  0  1  0  0  3  0  0  0  0  0  0
  185.3730  178.9290  141.1360 C   0  0  2  0  0  0  0  0  0  0  0  0
  183.6910  179.3650  139.5150 C   0  0  1  0  0  3  0  0  0  0  0  0
  185.9380  180.0170  141.8230 O   0  0  0  0  0  0  0  0  0  0  0  0
  186.0820  178.7500  142.4200 C   0  0  0  0  0  2  0  0  0  0  0  0
  184.8880  178.7200  138.8100 C   0  0  0  0  0  2  0  0  0  0  0  0
  183.1230  177.8780  141.5610 C   0  0  0  0  0  2  0  0  0  0  0  0
  181.9270  178.2370  142.4350 C   0  0  0  0  0  2  0  0  0  0  0  0
  182.4160  178.7980  143.7530 C   0  0  0  0  0  1  0  0  0  0  0  0
  181.1570  175.9410  139.4110 O   0  0  0  0  0  0  0  0  0  0  0  0
  180.3550  175.6940  138.1400 S   0  0  0  0  0  3  0  0  0  0  0  0
  179.3860  177.1970  135.5980 C   0  0  0  0  0  3  0  0  0  0  0  0
  178.9330  176.4200  134.6110 C   0  0  0  0  0  2  0  0  0  0  0  0
  3  2  1  6  0  0  0
  3 14  1  0  0  0  0
  3  7  1  0  0  0  0
  6 11  1  6  0  0  0
  6 18  1  0  0  0  0
  7  5  1  0  0  0  0
  7 26  1  1  0  0  0
  8 11  1  0  0  0  0
  9  5  1  1  0  0  0
  9  6  1  0  0  0  0
 10 13  1  0  0  0  0
 10  4  1  0  0  0  0
 12  4  1  6  0  0  0
 12  8  1  0  0  0  0
 13  1  1  1  0  0  0
 13 12  1  0  0  0  0
 14  1  1  6  0  0  0
 14  9  1  0  0  0  0
 16 17  1  0  0  0  0
 16 22  1  6  0  0  0
 17 15  1  6  0  0  0
 17 19  1  0  0  0  0
 17 20  1  0  0  0  0
 18 21  1  6  0  0  0
 18 16  1  0  0  0  0
 19 20  1  0  0  0  0
 21 15  1  0  0  0  0
 22 23  1  0  0  0  0
 23 24  1  0  0  0  0
 26 25  2  0  0  0  0
 27  3  1  0  0  0  0
 28 27  2  0  0  0  0
M  END
>  <MODEL>
9

>  <REMARK>
 VINA RESULT:      -3.8      1.880      2.515
  Name = 
  5 active torsions:
  status: ('A' for Active; 'I' for Inactive)
    1  A    between atoms: C_3  and  C_7
    2  A    between atoms: C_9  and  C_18
    3  A    between atoms: C_10  and  C_13
    4  A    between atoms: C_11  and  S_22
    5  A    between atoms: C_14  and  C_18
                            x       y       z     vdW  Elec       q    Type
                         _______ _______ _______ _____ _____    ______ ____

>  <TORSDO>
F 5

$$$$
