=
 OpenBabel11052414333D

 32 38  0  0  1  0  0  0  0  0999 V2000
  189.8650  177.7460  143.0500 C   0  0  0  0  0  0  0  0  0  0  0  0
  188.1060  176.8990  144.6950 C   0  0  1  0  0  3  0  0  0  0  0  0
  191.1710  178.2100  142.8250 C   0  0  0  0  0  3  0  0  0  0  0  0
  189.4720  177.4240  144.3670 C   0  0  0  0  0  0  0  0  0  0  0  0
  187.6570  177.6260  145.9680 C   0  0  1  0  0  3  0  0  0  0  0  0
  184.2640  179.5150  142.8180 C   0  0  0  0  0  2  0  0  0  0  0  0
  187.0750  176.9380  143.5460 C   0  0  2  0  0  3  0  0  0  0  0  0
  184.4670  179.1220  145.3050 C   0  0  0  0  0  2  0  0  0  0  0  0
  185.3040  177.8860  145.0040 C   0  0  2  0  0  3  0  0  0  0  0  0
  190.3700  177.6030  145.4370 C   0  0  0  0  0  0  0  0  0  0  0  0
  186.1490  177.4410  146.2120 C   0  0  0  0  0  2  0  0  0  0  0  0
  189.9190  177.4680  146.8790 C   0  0  0  0  0  2  0  0  0  0  0  0
  191.6710  178.0430  145.1840 C   0  0  0  0  0  3  0  0  0  0  0  0
  187.7070  176.7850  142.1620 C   0  0  0  0  0  2  0  0  0  0  0  0
  188.8440  177.7810  141.9340 C   0  0  2  0  0  3  0  0  0  0  0  0
  186.1130  178.1110  143.7150 C   0  0  2  0  0  3  0  0  0  0  0  0
  188.4870  177.1510  147.0860 N   0  0  0  0  0  0  0  0  0  0  0  0
  192.0750  178.3330  143.8810 C   0  0  0  0  0  3  0  0  0  0  0  0
  183.5050  179.3720  144.1410 C   0  0  0  0  0  2  0  0  0  0  0  0
  185.1380  178.2880  142.5530 C   0  0  0  0  0  2  0  0  0  0  0  0
  188.3340  176.8450  138.3050 C   0  0  1  0  0  3  0  0  0  0  0  0
  191.9190  176.7880  137.0080 C   0  0  0  0  0  1  0  0  0  0  0  0
  187.7120  177.4350  137.2030 O   0  0  0  0  0  1  0  0  0  0  0  0
  190.6780  175.9230  138.9670 C   0  0  2  0  0  3  0  0  0  0  0  0
  189.4610  177.6220  140.5330 C   0  0  1  0  0  3  0  0  0  0  0  0
  189.6670  176.2060  137.8560 C   0  0  2  0  0  3  0  0  0  0  0  0
  190.1930  176.2780  140.3850 C   0  0  0  0  0  2  0  0  0  0  0  0
  188.4410  177.8280  139.4470 C   0  0  0  0  0  0  0  0  0  0  0  0
  187.6960  178.7960  139.4930 O   0  0  0  0  0  0  0  0  0  0  0  0
  190.8700  177.1230  138.0480 C   0  0  2  0  0  3  0  0  0  0  0  0
  188.1020  177.8700  148.2950 C   0  0  0  0  0  2  0  0  0  0  0  0
  189.3240  178.5130  148.9200 C   0  0  0  0  0  1  0  0  0  0  0  0
  1  4  1  0  0  0  0
  2  4  1  6  0  0  0
  2  5  1  0  0  0  0
  3  1  2  0  0  0  0
  3 18  1  0  0  0  0
  4 10  2  0  0  0  0
  5 11  1  1  0  0  0
  5 17  1  0  0  0  0
  6 19  1  0  0  0  0
  7 14  1  6  0  0  0
  7 16  1  0  0  0  0
  7  2  1  0  0  0  0
  9  8  1  1  0  0  0
  9 11  1  0  0  0  0
 10 12  1  0  0  0  0
 12 17  1  0  0  0  0
 13 10  1  0  0  0  0
 15 14  1  1  0  0  0
 15  1  1  0  0  0  0
 16 20  1  6  0  0  0
 16  9  1  0  0  0  0
 17 31  1  0  0  0  0
 18 13  2  0  0  0  0
 19  8  1  0  0  0  0
 20  6  1  0  0  0  0
 21 23  1  6  0  0  0
 21 28  1  0  0  0  0
 22 30  1  0  0  0  0
 24 27  1  1  0  0  0
 25 27  1  1  0  0  0
 25 15  1  0  0  0  0
 26 30  1  0  0  0  0
 26 21  1  0  0  0  0
 26 24  1  0  0  0  0
 28 29  2  0  0  0  0
 28 25  1  0  0  0  0
 30 24  1  0  0  0  0
 31 32  1  0  0  0  0
M  END
>  <MODEL>
1

>  <REMARK>
 VINA RESULT:      -9.9      0.000      0.000
  Name = 
  2 active torsions:
  status: ('A' for Active; 'I' for Inactive)
    1  A    between atoms: C_13  and  N_29
    2  A    between atoms: C_16  and  C_27
                            x       y       z     vdW  Elec       q    Type
                         _______ _______ _______ _____ _____    ______ ____

>  <TORSDO>
F 2

$$$$
=
 OpenBabel11052414333D

 32 38  0  0  1  0  0  0  0  0999 V2000
  186.9230  178.1660  141.9420 C   0  0  0  0  0  0  0  0  0  0  0  0
  187.9520  176.7100  143.7680 C   0  0  1  0  0  3  0  0  0  0  0  0
  187.0420  178.7670  140.6790 C   0  0  0  0  0  3  0  0  0  0  0  0
  188.0030  177.4070  142.4410 C   0  0  0  0  0  0  0  0  0  0  0  0
  189.3130  176.9490  144.4350 C   0  0  1  0  0  3  0  0  0  0  0  0
  186.4680  179.5210  147.6430 C   0  0  0  0  0  2  0  0  0  0  0  0
  186.7400  177.0500  144.6620 C   0  0  2  0  0  3  0  0  0  0  0  0
  188.7090  178.3550  147.6770 C   0  0  0  0  0  2  0  0  0  0  0  0
  188.1560  177.3460  146.6790 C   0  0  2  0  0  3  0  0  0  0  0  0
  189.1910  177.2890  141.6940 C   0  0  0  0  0  0  0  0  0  0  0  0
  189.2710  176.5910  145.9300 C   0  0  0  0  0  2  0  0  0  0  0  0
  190.4380  176.6600  142.2850 C   0  0  0  0  0  2  0  0  0  0  0  0
  189.2750  177.8760  140.4290 C   0  0  0  0  0  3  0  0  0  0  0  0
  185.4820  177.4000  143.8680 C   0  0  0  0  0  2  0  0  0  0  0  0
  185.7420  178.4920  142.8290 C   0  0  2  0  0  3  0  0  0  0  0  0
  187.1320  178.0340  145.7620 C   0  0  2  0  0  3  0  0  0  0  0  0
  190.3300  176.1950  143.6860 N   0  0  0  0  0  0  0  0  0  0  0  0
  188.2000  178.6020  139.9170 C   0  0  0  0  0  3  0  0  0  0  0  0
  187.5580  178.9030  148.5250 C   0  0  0  0  0  2  0  0  0  0  0  0
  185.9580  178.5110  146.6140 C   0  0  0  0  0  2  0  0  0  0  0  0
  181.9630  178.6510  142.7860 C   0  0  1  0  0  3  0  0  0  0  0  0
  181.2610  179.4180  139.1180 C   0  0  0  0  0  1  0  0  0  0  0  0
  180.9940  179.4690  143.3700 O   0  0  0  0  0  1  0  0  0  0  0  0
  182.6800  177.8570  140.4110 C   0  0  2  0  0  3  0  0  0  0  0  0
  184.4640  178.8420  142.0460 C   0  0  1  0  0  3  0  0  0  0  0  0
  181.5570  178.3410  141.3280 C   0  0  2  0  0  3  0  0  0  0  0  0
  184.0510  177.7040  141.0990 C   0  0  0  0  0  2  0  0  0  0  0  0
  183.3400  179.2450  142.9610 C   0  0  0  0  0  0  0  0  0  0  0  0
  183.5480  180.0570  143.8520 O   0  0  0  0  0  0  0  0  0  0  0  0
  182.1830  179.2930  140.3130 C   0  0  2  0  0  3  0  0  0  0  0  0
  191.6360  176.4520  144.2810 C   0  0  0  0  0  2  0  0  0  0  0  0
  191.9340  177.9380  144.2430 C   0  0  0  0  0  1  0  0  0  0  0  0
  1  4  1  0  0  0  0
  1 15  1  0  0  0  0
  2  4  1  6  0  0  0
  2  5  1  0  0  0  0
  2  7  1  0  0  0  0
  3  1  2  0  0  0  0
  5 11  1  1  0  0  0
  6 19  1  0  0  0  0
  7 14  1  6  0  0  0
  7 16  1  0  0  0  0
  8 19  1  0  0  0  0
  9 11  1  6  0  0  0
  9  8  1  0  0  0  0
 10 12  1  0  0  0  0
 10  4  2  0  0  0  0
 12 17  1  0  0  0  0
 13 10  1  0  0  0  0
 15 14  1  1  0  0  0
 16 20  1  1  0  0  0
 16  9  1  0  0  0  0
 17 31  1  0  0  0  0
 17  5  1  0  0  0  0
 18 13  2  0  0  0  0
 18  3  1  0  0  0  0
 20  6  1  0  0  0  0
 21 28  1  0  0  0  0
 21 23  1  6  0  0  0
 22 30  1  0  0  0  0
 24 27  1  1  0  0  0
 24 26  1  0  0  0  0
 25 27  1  1  0  0  0
 25 15  1  0  0  0  0
 25 28  1  0  0  0  0
 26 21  1  0  0  0  0
 28 29  2  0  0  0  0
 30 24  1  0  0  0  0
 30 26  1  0  0  0  0
 32 31  1  0  0  0  0
M  END
>  <MODEL>
2

>  <REMARK>
 VINA RESULT:      -9.2      2.568      5.675
  Name = 
  2 active torsions:
  status: ('A' for Active; 'I' for Inactive)
    1  A    between atoms: C_13  and  N_29
    2  A    between atoms: C_16  and  C_27
                            x       y       z     vdW  Elec       q    Type
                         _______ _______ _______ _____ _____    ______ ____

>  <TORSDO>
F 2

$$$$
=
 OpenBabel11052414333D

 32 38  0  0  1  0  0  0  0  0999 V2000
  188.2630  177.3520  142.1280 C   0  0  0  0  0  0  0  0  0  0  0  0
  187.4400  178.7440  140.1540 C   0  0  1  0  0  3  0  0  0  0  0  0
  189.2680  176.5500  142.6940 C   0  0  0  0  0  3  0  0  0  0  0  0
  188.4480  177.8600  140.8250 C   0  0  0  0  0  0  0  0  0  0  0  0
  187.3300  178.2530  138.7050 C   0  0  1  0  0  3  0  0  0  0  0  0
  182.7100  177.0850  140.2210 C   0  0  0  0  0  2  0  0  0  0  0  0
  186.0840  178.8900  140.8780 C   0  0  2  0  0  3  0  0  0  0  0  0
  183.8700  177.5920  138.0350 C   0  0  0  0  0  2  0  0  0  0  0  0
  184.7920  178.5420  138.7870 C   0  0  2  0  0  3  0  0  0  0  0  0
  189.6080  177.5320  140.0950 C   0  0  0  0  0  0  0  0  0  0  0  0
  186.0890  178.8400  138.0110 C   0  0  0  0  0  2  0  0  0  0  0  0
  189.7440  177.8840  138.6260 C   0  0  0  0  0  2  0  0  0  0  0  0
  190.6030  176.7530  140.6890 C   0  0  0  0  0  3  0  0  0  0  0  0
  186.1950  178.7730  142.3980 C   0  0  0  0  0  2  0  0  0  0  0  0
  186.9300  177.5020  142.8260 C   0  0  2  0  0  3  0  0  0  0  0  0
  185.0150  178.0220  140.2170 C   0  0  2  0  0  3  0  0  0  0  0  0
  188.5870  178.5760  138.0130 N   0  0  0  0  0  0  0  0  0  0  0  0
  190.4400  176.2740  141.9890 C   0  0  0  0  0  3  0  0  0  0  0  0
  182.5250  177.5160  138.7620 C   0  0  0  0  0  2  0  0  0  0  0  0
  183.6760  178.0200  140.9500 C   0  0  0  0  0  2  0  0  0  0  0  0
  186.0860  179.0030  146.1940 C   0  0  1  0  0  3  0  0  0  0  0  0
  188.1610  176.8390  148.5490 C   0  0  0  0  0  1  0  0  0  0  0  0
  184.9310  179.1230  146.9680 O   0  0  0  0  0  1  0  0  0  0  0  0
  188.4980  178.0440  146.4140 C   0  0  2  0  0  3  0  0  0  0  0  0
  187.0230  177.3930  144.3580 C   0  0  1  0  0  3  0  0  0  0  0  0
  187.2790  178.6500  147.1090 C   0  0  2  0  0  3  0  0  0  0  0  0
  188.3680  177.9180  144.8830 C   0  0  0  0  0  2  0  0  0  0  0  0
  185.8570  178.0580  145.0380 C   0  0  0  0  0  0  0  0  0  0  0  0
  184.7200  177.8320  144.6480 O   0  0  0  0  0  0  0  0  0  0  0  0
  187.5470  177.1510  147.2000 C   0  0  2  0  0  3  0  0  0  0  0  0
  188.5140  178.0720  136.6470 C   0  0  0  0  0  2  0  0  0  0  0  0
  188.6430  176.5610  136.6500 C   0  0  0  0  0  1  0  0  0  0  0  0
  1  3  1  0  0  0  0
  1 15  1  0  0  0  0
  2  4  1  1  0  0  0
  2  7  1  0  0  0  0
  4  1  2  0  0  0  0
  5 11  1  6  0  0  0
  5  2  1  0  0  0  0
  6 20  1  0  0  0  0
  7 14  1  1  0  0  0
  8 19  1  0  0  0  0
  8  9  1  0  0  0  0
  9 11  1  6  0  0  0
  9 16  1  0  0  0  0
 10 13  2  0  0  0  0
 10  4  1  0  0  0  0
 12 10  1  0  0  0  0
 13 18  1  0  0  0  0
 15 14  1  1  0  0  0
 15 25  1  0  0  0  0
 16  7  1  0  0  0  0
 16 20  1  1  0  0  0
 17 12  1  0  0  0  0
 17  5  1  0  0  0  0
 18  3  2  0  0  0  0
 19  6  1  0  0  0  0
 21 23  1  1  0  0  0
 21 26  1  0  0  0  0
 24 27  1  6  0  0  0
 24 26  1  0  0  0  0
 24 30  1  0  0  0  0
 25 27  1  1  0  0  0
 25 28  1  0  0  0  0
 26 30  1  0  0  0  0
 28 21  1  0  0  0  0
 29 28  2  0  0  0  0
 30 22  1  0  0  0  0
 31 32  1  0  0  0  0
 31 17  1  0  0  0  0
M  END
>  <MODEL>
3

>  <REMARK>
 VINA RESULT:      -8.0      3.115      6.992
  Name = 
  2 active torsions:
  status: ('A' for Active; 'I' for Inactive)
    1  A    between atoms: C_13  and  N_29
    2  A    between atoms: C_16  and  C_27
                            x       y       z     vdW  Elec       q    Type
                         _______ _______ _______ _____ _____    ______ ____

>  <TORSDO>
F 2

$$$$
=
 OpenBabel11052414333D

 32 38  0  0  1  0  0  0  0  0999 V2000
  188.8590  176.7530  137.5280 C   0  0  0  0  0  0  0  0  0  0  0  0
  188.1590  178.3590  139.3840 C   0  0  1  0  0  3  0  0  0  0  0  0
  188.5330  176.0790  136.3410 C   0  0  0  0  0  3  0  0  0  0  0  0
  187.8890  177.5820  138.1310 C   0  0  0  0  0  0  0  0  0  0  0  0
  186.9100  178.2120  140.2630 C   0  0  1  0  0  3  0  0  0  0  0  0
  190.1410  175.7460  143.1750 C   0  0  0  0  0  2  0  0  0  0  0  0
  189.4840  178.0320  140.1070 C   0  0  2  0  0  3  0  0  0  0  0  0
  187.9640  176.9940  143.4660 C   0  0  0  0  0  2  0  0  0  0  0  0
  188.3840  177.9170  142.3300 C   0  0  2  0  0  3  0  0  0  0  0  0
  186.6050  177.6960  137.5640 C   0  0  0  0  0  0  0  0  0  0  0  0
  187.1890  178.6630  141.7060 C   0  0  0  0  0  2  0  0  0  0  0  0
  185.4790  178.4060  138.2920 C   0  0  0  0  0  2  0  0  0  0  0  0
  186.3130  177.0330  136.3690 C   0  0  0  0  0  3  0  0  0  0  0  0
  190.5960  177.5870  139.1580 C   0  0  0  0  0  2  0  0  0  0  0  0
  190.1530  176.4410  138.2480 C   0  0  2  0  0  3  0  0  0  0  0  0
  189.2390  177.1350  141.3180 C   0  0  2  0  0  3  0  0  0  0  0  0
  185.8120  178.9550  139.6260 N   0  0  0  0  0  0  0  0  0  0  0  0
  187.2780  176.2370  135.7520 C   0  0  0  0  0  3  0  0  0  0  0  0
  189.2150  176.4580  144.1660 C   0  0  0  0  0  2  0  0  0  0  0  0
  190.5150  176.6700  142.0150 C   0  0  0  0  0  2  0  0  0  0  0  0
  192.9000  173.9480  137.5100 C   0  0  1  0  0  3  0  0  0  0  0  0
  194.7170  175.6310  134.6120 C   0  0  0  0  0  1  0  0  0  0  0  0
  192.9500  172.6260  137.0620 O   0  0  0  0  0  1  0  0  0  0  0  0
  193.8400  176.2810  136.8330 C   0  0  2  0  0  3  0  0  0  0  0  0
  191.2870  175.9960  137.3070 C   0  0  1  0  0  3  0  0  0  0  0  0
  194.0170  174.7620  136.8220 C   0  0  2  0  0  3  0  0  0  0  0  0
  192.5840  176.7760  137.5760 C   0  0  0  0  0  2  0  0  0  0  0  0
  191.5060  174.5090  137.3600 C   0  0  0  0  0  0  0  0  0  0  0  0
  190.5460  173.7540  137.2820 O   0  0  0  0  0  0  0  0  0  0  0  0
  193.5490  175.4880  135.5650 C   0  0  2  0  0  3  0  0  0  0  0  0
  184.6050  178.7840  140.4260 C   0  0  0  0  0  2  0  0  0  0  0  0
  183.5950  177.9520  139.6610 C   0  0  0  0  0  1  0  0  0  0  0  0
  1  4  1  0  0  0  0
  1 15  1  0  0  0  0
  2  4  1  6  0  0  0
  2  7  1  0  0  0  0
  2  5  1  0  0  0  0
  3  1  2  0  0  0  0
  5 11  1  1  0  0  0
  6 19  1  0  0  0  0
  7 14  1  6  0  0  0
  7 16  1  0  0  0  0
  8 19  1  0  0  0  0
  9 11  1  6  0  0  0
  9  8  1  0  0  0  0
 10  4  2  0  0  0  0
 10 12  1  0  0  0  0
 12 17  1  0  0  0  0
 13 10  1  0  0  0  0
 15 14  1  6  0  0  0
 16 20  1  1  0  0  0
 16  9  1  0  0  0  0
 17  5  1  0  0  0  0
 17 31  1  0  0  0  0
 18  3  1  0  0  0  0
 18 13  2  0  0  0  0
 20  6  1  0  0  0  0
 21 23  1  6  0  0  0
 22 30  1  0  0  0  0
 24 27  1  1  0  0  0
 25 28  1  0  0  0  0
 25 27  1  1  0  0  0
 25 15  1  0  0  0  0
 26 24  1  0  0  0  0
 26 21  1  0  0  0  0
 28 21  1  0  0  0  0
 29 28  2  0  0  0  0
 30 26  1  0  0  0  0
 30 24  1  0  0  0  0
 32 31  1  0  0  0  0
M  END
>  <MODEL>
4

>  <REMARK>
 VINA RESULT:      -8.0      3.078      6.413
  Name = 
  2 active torsions:
  status: ('A' for Active; 'I' for Inactive)
    1  A    between atoms: C_13  and  N_29
    2  A    between atoms: C_16  and  C_27
                            x       y       z     vdW  Elec       q    Type
                         _______ _______ _______ _____ _____    ______ ____

>  <TORSDO>
F 2

$$$$
=
 OpenBabel11052414333D

 32 38  0  0  1  0  0  0  0  0999 V2000
  189.4190  177.7360  141.8900 C   0  0  0  0  0  0  0  0  0  0  0  0
  188.8480  176.5660  144.0840 C   0  0  1  0  0  3  0  0  0  0  0  0
  190.3990  178.1850  140.9900 C   0  0  0  0  0  3  0  0  0  0  0  0
  189.8260  177.0980  143.0800 C   0  0  0  0  0  0  0  0  0  0  0  0
  189.3910  176.9520  145.4660 C   0  0  1  0  0  3  0  0  0  0  0  0
  185.2460  179.7480  145.5070 C   0  0  0  0  0  2  0  0  0  0  0  0
  187.3700  176.9500  143.8550 C   0  0  2  0  0  3  0  0  0  0  0  0
  186.7970  178.7080  147.2090 C   0  0  0  0  0  2  0  0  0  0  0  0
  187.0320  177.5590  146.2380 C   0  0  2  0  0  3  0  0  0  0  0  0
  191.1960  176.9500  143.3720 C   0  0  0  0  0  0  0  0  0  0  0  0
  188.3200  176.7760  146.5550 C   0  0  0  0  0  2  0  0  0  0  0  0
  191.6690  176.4620  144.7280 C   0  0  0  0  0  2  0  0  0  0  0  0
  192.1520  177.3830  142.4490 C   0  0  0  0  0  3  0  0  0  0  0  0
  187.0170  177.1370  142.3800 C   0  0  0  0  0  2  0  0  0  0  0  0
  187.9680  178.1070  141.6780 C   0  0  2  0  0  3  0  0  0  0  0  0
  186.9470  178.0780  144.7930 C   0  0  2  0  0  3  0  0  0  0  0  0
  190.6080  176.1650  145.7170 N   0  0  0  0  0  0  0  0  0  0  0  0
  191.7550  177.9870  141.2560 C   0  0  0  0  0  3  0  0  0  0  0  0
  185.4050  179.2970  146.9630 C   0  0  0  0  0  2  0  0  0  0  0  0
  185.5330  178.5960  144.5430 C   0  0  0  0  0  2  0  0  0  0  0  0
  185.2880  177.9310  139.0140 C   0  0  1  0  0  3  0  0  0  0  0  0
  187.3280  178.4080  135.8290 C   0  0  0  0  0  1  0  0  0  0  0  0
  184.1700  178.6960  138.6750 O   0  0  0  0  0  1  0  0  0  0  0  0
  187.4740  177.0590  137.8990 C   0  0  2  0  0  3  0  0  0  0  0  0
  187.5910  178.2950  140.1970 C   0  0  1  0  0  3  0  0  0  0  0  0
  186.0200  177.4990  137.7250 C   0  0  2  0  0  3  0  0  0  0  0  0
  187.9790  177.0690  139.3550 C   0  0  0  0  0  2  0  0  0  0  0  0
  186.1400  178.6530  140.0300 C   0  0  0  0  0  0  0  0  0  0  0  0
  185.6510  179.5340  140.7250 O   0  0  0  0  0  0  0  0  0  0  0  0
  187.1570  178.4370  137.3330 C   0  0  2  0  0  3  0  0  0  0  0  0
  191.1620  176.5570  147.0080 C   0  0  0  0  0  2  0  0  0  0  0  0
  192.3250  175.6520  147.3630 C   0  0  0  0  0  1  0  0  0  0  0  0
  1  4  1  0  0  0  0
  2  4  1  6  0  0  0
  2  5  1  0  0  0  0
  3 18  1  0  0  0  0
  3  1  2  0  0  0  0
  4 10  2  0  0  0  0
  5 17  1  0  0  0  0
  5 11  1  1  0  0  0
  6 19  1  0  0  0  0
  7 14  1  6  0  0  0
  7  2  1  0  0  0  0
  7 16  1  0  0  0  0
  9 11  1  1  0  0  0
  9  8  1  0  0  0  0
 10 12  1  0  0  0  0
 12 17  1  0  0  0  0
 13 10  1  0  0  0  0
 15  1  1  0  0  0  0
 15 14  1  6  0  0  0
 16 20  1  6  0  0  0
 16  9  1  0  0  0  0
 17 31  1  0  0  0  0
 18 13  2  0  0  0  0
 19  8  1  0  0  0  0
 20  6  1  0  0  0  0
 21 23  1  6  0  0  0
 21 28  1  0  0  0  0
 22 30  1  0  0  0  0
 24 27  1  1  0  0  0
 25 27  1  6  0  0  0
 25 15  1  0  0  0  0
 26 24  1  0  0  0  0
 26 21  1  0  0  0  0
 28 25  1  0  0  0  0
 28 29  2  0  0  0  0
 30 26  1  0  0  0  0
 30 24  1  0  0  0  0
 31 32  1  0  0  0  0
M  END
>  <MODEL>
5

>  <REMARK>
 VINA RESULT:      -8.0      1.998      2.780
  Name = 
  2 active torsions:
  status: ('A' for Active; 'I' for Inactive)
    1  A    between atoms: C_13  and  N_29
    2  A    between atoms: C_16  and  C_27
                            x       y       z     vdW  Elec       q    Type
                         _______ _______ _______ _____ _____    ______ ____

>  <TORSDO>
F 2

$$$$
=
 OpenBabel11052414333D

 32 38  0  0  1  0  0  0  0  0999 V2000
  185.1790  178.4140  141.0730 C   0  0  0  0  0  0  0  0  0  0  0  0
  187.4780  178.4350  139.9630 C   0  0  1  0  0  3  0  0  0  0  0  0
  184.4170  178.3380  142.2500 C   0  0  0  0  0  3  0  0  0  0  0  0
  186.5860  178.3370  141.1650 C   0  0  0  0  0  0  0  0  0  0  0  0
  188.5600  177.3620  140.1400 C   0  0  1  0  0  3  0  0  0  0  0  0
  186.2830  175.4450  136.1220 C   0  0  0  0  0  2  0  0  0  0  0  0
  186.7690  178.4000  138.5920 C   0  0  2  0  0  3  0  0  0  0  0  0
  188.5690  175.3240  137.1900 C   0  0  0  0  0  2  0  0  0  0  0  0
  188.3840  176.7600  137.6620 C   0  0  2  0  0  3  0  0  0  0  0  0
  187.2040  178.1510  142.4160 C   0  0  0  0  0  0  0  0  0  0  0  0
  189.3240  177.1220  138.8270 C   0  0  0  0  0  2  0  0  0  0  0  0
  188.6880  177.8570  142.5290 C   0  0  0  0  0  2  0  0  0  0  0  0
  186.4250  178.1030  143.5740 C   0  0  0  0  0  3  0  0  0  0  0  0
  185.3620  178.9970  138.6240 C   0  0  0  0  0  2  0  0  0  0  0  0
  184.4970  178.3780  139.7230 C   0  0  2  0  0  3  0  0  0  0  0  0
  186.8950  177.0220  137.9470 C   0  0  2  0  0  3  0  0  0  0  0  0
  189.4320  177.7680  141.2520 N   0  0  0  0  0  0  0  0  0  0  0  0
  185.0360  178.2090  143.4940 C   0  0  0  0  0  3  0  0  0  0  0  0
  187.7630  175.1100  135.9070 C   0  0  0  0  0  2  0  0  0  0  0  0
  186.1160  176.8730  136.6420 C   0  0  0  0  0  2  0  0  0  0  0  0
  180.9780  178.2960  138.3400 C   0  0  1  0  0  3  0  0  0  0  0  0
  179.5040  181.5030  139.7820 C   0  0  0  0  0  1  0  0  0  0  0  0
  179.8700  177.4600  138.4880 O   0  0  0  0  0  1  0  0  0  0  0  0
  181.5830  180.8130  138.6300 C   0  0  2  0  0  3  0  0  0  0  0  0
  183.0810  178.9810  139.7340 C   0  0  1  0  0  3  0  0  0  0  0  0
  180.5080  179.7680  138.3290 C   0  0  2  0  0  3  0  0  0  0  0  0
  182.9940  180.2390  138.8550 C   0  0  0  0  0  2  0  0  0  0  0  0
  182.0380  177.9640  139.3630 C   0  0  0  0  0  0  0  0  0  0  0  0
  182.0520  176.8620  139.8940 O   0  0  0  0  0  0  0  0  0  0  0  0
  180.5700  180.4310  139.7020 C   0  0  2  0  0  3  0  0  0  0  0  0
  190.4380  176.7330  141.4620 C   0  0  0  0  0  2  0  0  0  0  0  0
  190.1250  175.9630  142.7300 C   0  0  0  0  0  1  0  0  0  0  0  0
  1  4  2  0  0  0  0
  1  3  1  0  0  0  0
  2  5  1  0  0  0  0
  2  4  1  1  0  0  0
  3 18  2  0  0  0  0
  4 10  1  0  0  0  0
  5 11  1  6  0  0  0
  5 17  1  0  0  0  0
  6 20  1  0  0  0  0
  7 14  1  1  0  0  0
  7  2  1  0  0  0  0
  9  8  1  1  0  0  0
  9 16  1  0  0  0  0
  9 11  1  0  0  0  0
 10 12  1  0  0  0  0
 10 13  2  0  0  0  0
 15 14  1  6  0  0  0
 15 25  1  0  0  0  0
 15  1  1  0  0  0  0
 16 20  1  6  0  0  0
 16  7  1  0  0  0  0
 17 31  1  0  0  0  0
 17 12  1  0  0  0  0
 18 13  1  0  0  0  0
 19  6  1  0  0  0  0
 19  8  1  0  0  0  0
 21 23  1  1  0  0  0
 21 28  1  0  0  0  0
 24 27  1  1  0  0  0
 24 30  1  0  0  0  0
 25 27  1  6  0  0  0
 26 21  1  0  0  0  0
 26 24  1  0  0  0  0
 26 30  1  0  0  0  0
 28 25  1  0  0  0  0
 28 29  2  0  0  0  0
 30 22  1  0  0  0  0
 31 32  1  0  0  0  0
M  END
>  <MODEL>
6

>  <REMARK>
 VINA RESULT:      -7.6      3.582      7.427
  Name = 
  2 active torsions:
  status: ('A' for Active; 'I' for Inactive)
    1  A    between atoms: C_13  and  N_29
    2  A    between atoms: C_16  and  C_27
                            x       y       z     vdW  Elec       q    Type
                         _______ _______ _______ _____ _____    ______ ____

>  <TORSDO>
F 2

$$$$
=
 OpenBabel11052414333D

 32 38  0  0  1  0  0  0  0  0999 V2000
  187.5500  177.7020  143.4660 C   0  0  0  0  0  0  0  0  0  0  0  0
  188.9820  178.3990  145.4610 C   0  0  1  0  0  3  0  0  0  0  0  0
  186.2720  177.5300  142.9100 C   0  0  0  0  0  3  0  0  0  0  0  0
  187.6590  178.1630  144.7960 C   0  0  0  0  0  0  0  0  0  0  0  0
  188.8570  177.8390  146.8830 C   0  0  1  0  0  3  0  0  0  0  0  0
  192.2770  174.6360  145.1380 C   0  0  0  0  0  2  0  0  0  0  0  0
  190.2220  177.8980  144.6890 C   0  0  2  0  0  3  0  0  0  0  0  0
  191.5510  175.5270  147.3880 C   0  0  0  0  0  2  0  0  0  0  0  0
  191.2070  176.8470  146.7120 C   0  0  2  0  0  3  0  0  0  0  0  0
  186.4990  178.4090  145.5570 C   0  0  0  0  0  0  0  0  0  0  0  0
  190.2370  177.7010  147.5500 C   0  0  0  0  0  2  0  0  0  0  0  0
  186.5760  178.7020  147.0430 C   0  0  0  0  0  2  0  0  0  0  0  0
  185.2400  178.2530  144.9730 C   0  0  0  0  0  3  0  0  0  0  0  0
  190.0450  177.9340  143.1720 C   0  0  0  0  0  2  0  0  0  0  0  0
  188.7730  177.2140  142.7220 C   0  0  2  0  0  3  0  0  0  0  0  0
  190.7340  176.5830  145.2720 C   0  0  2  0  0  3  0  0  0  0  0  0
  187.9330  178.7010  147.6360 N   0  0  0  0  0  0  0  0  0  0  0  0
  185.1260  177.8270  143.6490 C   0  0  0  0  0  3  0  0  0  0  0  0
  192.6720  174.8390  146.6040 C   0  0  0  0  0  2  0  0  0  0  0  0
  191.8870  175.9630  144.4870 C   0  0  0  0  0  2  0  0  0  0  0  0
  190.4170  177.7000  139.3500 C   0  0  1  0  0  3  0  0  0  0  0  0
  187.3970  177.8190  137.0260 C   0  0  0  0  0  1  0  0  0  0  0  0
  191.2810  176.9530  138.5480 O   0  0  0  0  0  1  0  0  0  0  0  0
  188.0750  178.8270  139.1820 C   0  0  2  0  0  3  0  0  0  0  0  0
  188.6160  177.2490  141.1920 C   0  0  1  0  0  3  0  0  0  0  0  0
  189.3400  178.3610  138.4620 C   0  0  2  0  0  3  0  0  0  0  0  0
  188.0850  178.6070  140.7070 C   0  0  0  0  0  2  0  0  0  0  0  0
  189.8880  176.8610  140.4900 C   0  0  0  0  0  0  0  0  0  0  0  0
  190.4960  175.8620  140.8490 O   0  0  0  0  0  0  0  0  0  0  0  0
  188.0560  177.5440  138.3620 C   0  0  2  0  0  3  0  0  0  0  0  0
  187.7690  178.1520  148.9780 C   0  0  0  0  0  2  0  0  0  0  0  0
  187.4160  176.6800  148.8900 C   0  0  0  0  0  1  0  0  0  0  0  0
  1  4  1  0  0  0  0
  2  4  1  6  0  0  0
  2  5  1  0  0  0  0
  3  1  2  0  0  0  0
  3 18  1  0  0  0  0
  4 10  2  0  0  0  0
  5 11  1  1  0  0  0
  5 17  1  0  0  0  0
  6 19  1  0  0  0  0
  7 14  1  6  0  0  0
  7 16  1  0  0  0  0
  7  2  1  0  0  0  0
  9  8  1  1  0  0  0
  9 11  1  0  0  0  0
 10 12  1  0  0  0  0
 12 17  1  0  0  0  0
 13 10  1  0  0  0  0
 15 14  1  6  0  0  0
 15  1  1  0  0  0  0
 16 20  1  6  0  0  0
 16  9  1  0  0  0  0
 17 31  1  0  0  0  0
 18 13  2  0  0  0  0
 19  8  1  0  0  0  0
 20  6  1  0  0  0  0
 21 23  1  6  0  0  0
 21 28  1  0  0  0  0
 22 30  1  0  0  0  0
 24 27  1  1  0  0  0
 25 27  1  6  0  0  0
 25 15  1  0  0  0  0
 26 24  1  0  0  0  0
 26 21  1  0  0  0  0
 28 29  2  0  0  0  0
 28 25  1  0  0  0  0
 30 26  1  0  0  0  0
 30 24  1  0  0  0  0
 32 31  1  0  0  0  0
M  END
>  <MODEL>
7

>  <REMARK>
 VINA RESULT:      -7.4      1.827      4.691
  Name = 
  2 active torsions:
  status: ('A' for Active; 'I' for Inactive)
    1  A    between atoms: C_13  and  N_29
    2  A    between atoms: C_16  and  C_27
                            x       y       z     vdW  Elec       q    Type
                         _______ _______ _______ _____ _____    ______ ____

>  <TORSDO>
F 2

$$$$
=
 OpenBabel11052414333D

 32 38  0  0  1  0  0  0  0  0999 V2000
  186.4160  177.7820  143.4960 C   0  0  0  0  0  0  0  0  0  0  0  0
  188.4560  178.6620  142.2400 C   0  0  1  0  0  3  0  0  0  0  0  0
  185.8710  177.2590  144.6790 C   0  0  0  0  0  3  0  0  0  0  0  0
  187.7960  178.0780  143.4520 C   0  0  0  0  0  0  0  0  0  0  0  0
  189.7850  177.9160  142.0690 C   0  0  1  0  0  3  0  0  0  0  0  0
  187.5150  176.3190  137.9100 C   0  0  0  0  0  2  0  0  0  0  0  0
  187.5920  178.7170  140.9610 C   0  0  2  0  0  3  0  0  0  0  0  0
  189.8860  176.6140  138.7300 C   0  0  0  0  0  2  0  0  0  0  0  0
  189.4170  177.8130  139.5420 C   0  0  2  0  0  3  0  0  0  0  0  0
  188.6120  177.8150  144.5700 C   0  0  0  0  0  0  0  0  0  0  0  0
  190.3920  178.1720  140.6790 C   0  0  0  0  0  2  0  0  0  0  0  0
  190.1230  177.9240  144.4890 C   0  0  0  0  0  2  0  0  0  0  0  0
  188.0410  177.3170  145.7430 C   0  0  0  0  0  3  0  0  0  0  0  0
  186.1000  178.8850  141.2480 C   0  0  0  0  0  2  0  0  0  0  0  0
  185.5810  177.8400  142.2360 C   0  0  2  0  0  3  0  0  0  0  0  0
  187.9660  177.5910  140.0000 C   0  0  2  0  0  3  0  0  0  0  0  0
  190.6770  178.3080  143.1710 N   0  0  0  0  0  0  0  0  0  0  0  0
  186.6720  177.0520  145.8030 C   0  0  0  0  0  3  0  0  0  0  0  0
  188.9850  176.4550  137.5020 C   0  0  0  0  0  2  0  0  0  0  0  0
  187.0720  177.5060  138.7660 C   0  0  0  0  0  2  0  0  0  0  0  0
  182.2310  179.0660  140.9780 C   0  0  1  0  0  3  0  0  0  0  0  0
  180.0740  178.7750  144.1070 C   0  0  0  0  0  1  0  0  0  0  0  0
  181.3040  178.6300  140.0310 O   0  0  0  0  0  1  0  0  0  0  0  0
  182.3100  179.6530  143.5140 C   0  0  2  0  0  3  0  0  0  0  0  0
  184.0760  178.0140  142.5040 C   0  0  1  0  0  3  0  0  0  0  0  0
  181.4830  179.5680  142.2320 C   0  0  2  0  0  3  0  0  0  0  0  0
  183.7930  179.2670  143.3500 C   0  0  0  0  0  2  0  0  0  0  0  0
  183.2760  178.0050  141.2310 C   0  0  0  0  0  0  0  0  0  0  0  0
  183.4770  177.1330  140.3970 O   0  0  0  0  0  0  0  0  0  0  0  0
  181.3340  178.5020  143.3130 C   0  0  2  0  0  3  0  0  0  0  0  0
  191.9280  177.5690  143.0470 C   0  0  0  0  0  2  0  0  0  0  0  0
  191.7330  176.1460  143.5310 C   0  0  0  0  0  1  0  0  0  0  0  0
  1  3  1  0  0  0  0
  2  4  1  1  0  0  0
  3 18  2  0  0  0  0
  4  1  2  0  0  0  0
  4 10  1  0  0  0  0
  5 11  1  6  0  0  0
  5  2  1  0  0  0  0
  5 17  1  0  0  0  0
  6 20  1  0  0  0  0
  7 14  1  1  0  0  0
  7  2  1  0  0  0  0
  9  8  1  1  0  0  0
  9 16  1  0  0  0  0
  9 11  1  0  0  0  0
 10 13  2  0  0  0  0
 12 10  1  0  0  0  0
 13 18  1  0  0  0  0
 15 14  1  6  0  0  0
 15 25  1  0  0  0  0
 15  1  1  0  0  0  0
 16 20  1  6  0  0  0
 16  7  1  0  0  0  0
 17 12  1  0  0  0  0
 19  6  1  0  0  0  0
 19  8  1  0  0  0  0
 21 23  1  6  0  0  0
 21 28  1  0  0  0  0
 21 26  1  0  0  0  0
 24 27  1  6  0  0  0
 25 27  1  6  0  0  0
 26 30  1  0  0  0  0
 26 24  1  0  0  0  0
 28 25  1  0  0  0  0
 29 28  2  0  0  0  0
 30 24  1  0  0  0  0
 30 22  1  0  0  0  0
 31 17  1  0  0  0  0
 31 32  1  0  0  0  0
M  END
>  <MODEL>
8

>  <REMARK>
 VINA RESULT:      -7.3      2.199      6.537
  Name = 
  2 active torsions:
  status: ('A' for Active; 'I' for Inactive)
    1  A    between atoms: C_13  and  N_29
    2  A    between atoms: C_16  and  C_27
                            x       y       z     vdW  Elec       q    Type
                         _______ _______ _______ _____ _____    ______ ____

>  <TORSDO>
F 2

$$$$
=
 OpenBabel11052414333D

 32 38  0  0  1  0  0  0  0  0999 V2000
  184.3070  177.8200  139.8110 C   0  0  0  0  0  0  0  0  0  0  0  0
  183.8520  179.1810  141.9210 C   0  0  1  0  0  3  0  0  0  0  0  0
  183.8020  177.0930  138.7210 C   0  0  0  0  0  3  0  0  0  0  0  0
  183.4020  178.3700  140.7430 C   0  0  0  0  0  0  0  0  0  0  0  0
  183.0080  178.7150  143.1150 C   0  0  1  0  0  3  0  0  0  0  0  0
  187.4710  177.1280  144.7160 C   0  0  0  0  0  2  0  0  0  0  0  0
  185.3730  179.1960  142.1880 C   0  0  2  0  0  3  0  0  0  0  0  0
  185.2580  177.7800  145.7450 C   0  0  0  0  0  2  0  0  0  0  0  0
  185.0740  178.7880  144.6180 C   0  0  2  0  0  3  0  0  0  0  0  0
  182.0170  178.1590  140.5950 C   0  0  0  0  0  0  0  0  0  0  0  0
  183.6030  179.2110  144.4440 C   0  0  0  0  0  2  0  0  0  0  0  0
  181.0360  178.5540  141.6820 C   0  0  0  0  0  2  0  0  0  0  0  0
  181.5380  177.4530  139.4890 C   0  0  0  0  0  3  0  0  0  0  0  0
  186.2100  179.0550  140.9170 C   0  0  0  0  0  2  0  0  0  0  0  0
  185.7950  177.8410  140.0850 C   0  0  2  0  0  3  0  0  0  0  0  0
  185.7350  178.2560  143.3360 C   0  0  2  0  0  3  0  0  0  0  0  0
  181.6230  179.1590  142.8990 N   0  0  0  0  0  0  0  0  0  0  0  0
  182.4270  176.9330  138.5470 C   0  0  0  0  0  3  0  0  0  0  0  0
  186.7550  177.5740  145.9940 C   0  0  0  0  0  2  0  0  0  0  0  0
  187.2370  178.1250  143.5800 C   0  0  0  0  0  2  0  0  0  0  0  0
  189.0540  178.6280  138.3340 C   0  0  1  0  0  3  0  0  0  0  0  0
  188.3090  177.5030  134.7680 C   0  0  0  0  0  1  0  0  0  0  0  0
  190.3720  178.1780  138.4350 O   0  0  0  0  0  1  0  0  0  0  0  0
  187.1920  178.8400  136.5250 C   0  0  2  0  0  3  0  0  0  0  0  0
  186.6550  177.7050  138.8160 C   0  0  1  0  0  3  0  0  0  0  0  0
  188.6860  178.7990  136.8430 C   0  0  2  0  0  3  0  0  0  0  0  0
  186.2690  178.7500  137.7560 C   0  0  0  0  0  2  0  0  0  0  0  0
  188.1250  177.7430  139.1300 C   0  0  0  0  0  0  0  0  0  0  0  0
  188.5670  177.0520  140.0380 O   0  0  0  0  0  0  0  0  0  0  0  0
  187.9960  177.5770  136.2480 C   0  0  2  0  0  3  0  0  0  0  0  0
  180.8000  178.6820  144.0040 C   0  0  0  0  0  2  0  0  0  0  0  0
  179.3430  179.0040  143.7350 C   0  0  0  0  0  1  0  0  0  0  0  0
  1 15  1  0  0  0  0
  1  4  1  0  0  0  0
  2  4  1  6  0  0  0
  2  7  1  0  0  0  0
  2  5  1  0  0  0  0
  3  1  2  0  0  0  0
  5 11  1  1  0  0  0
  6 19  1  0  0  0  0
  7 14  1  6  0  0  0
  7 16  1  0  0  0  0
  8 19  1  0  0  0  0
  9 11  1  6  0  0  0
  9  8  1  0  0  0  0
 10  4  2  0  0  0  0
 10 12  1  0  0  0  0
 12 17  1  0  0  0  0
 13 10  1  0  0  0  0
 15 14  1  6  0  0  0
 16 20  1  1  0  0  0
 16  9  1  0  0  0  0
 17  5  1  0  0  0  0
 17 31  1  0  0  0  0
 18  3  1  0  0  0  0
 18 13  2  0  0  0  0
 20  6  1  0  0  0  0
 21 23  1  6  0  0  0
 21 28  1  0  0  0  0
 22 30  1  0  0  0  0
 24 26  1  0  0  0  0
 24 27  1  1  0  0  0
 25 27  1  6  0  0  0
 25 28  1  0  0  0  0
 25 15  1  0  0  0  0
 26 21  1  0  0  0  0
 28 29  2  0  0  0  0
 30 24  1  0  0  0  0
 30 26  1  0  0  0  0
 32 31  1  0  0  0  0
M  END
>  <MODEL>
9

>  <REMARK>
 VINA RESULT:      -7.2      2.946      6.038
  Name = 
  2 active torsions:
  status: ('A' for Active; 'I' for Inactive)
    1  A    between atoms: C_13  and  N_29
    2  A    between atoms: C_16  and  C_27
                            x       y       z     vdW  Elec       q    Type
                         _______ _______ _______ _____ _____    ______ ____

>  <TORSDO>
F 2

$$$$
