=
 OpenBabel11052412333D

 30 38  0  0  1  0  0  0  0  0999 V2000
  188.3320  177.7870  139.2780 C   0  0  0  0  0  0  0  0  0  0  0  0
  189.4760  175.9290  138.0040 C   0  0  0  0  0  0  0  0  0  0  0  0
  191.8230  177.3370  141.7470 C   0  0  0  0  0  2  0  0  0  0  0  0
  188.2880  177.8840  140.6950 C   0  0  0  0  0  0  0  0  0  0  0  0
  187.2050  178.1250  138.5090 C   0  0  0  0  0  3  0  0  0  0  0  0
  184.4590  179.1670  140.9810 S   0  0  0  0  0  0  0  0  0  0  0  0
  187.4010  177.0840  143.3540 C   0  0  1  0  0  0  0  0  0  0  0  0
  185.9840  178.6150  140.5310 C   0  0  0  0  0  0  0  0  0  0  0  0
  184.9030  178.8950  138.4980 N   0  0  0  0  0  0  0  0  0  0  0  0
  188.8350  177.2900  143.8510 C   0  0  2  0  0  3  0  0  0  0  0  0
  191.2090  177.6550  143.1010 C   0  0  1  0  0  3  0  0  0  0  0  0
  186.0390  178.5360  139.1490 C   0  0  0  0  0  0  0  0  0  0  0  0
  187.0790  178.2900  141.3320 C   0  0  0  0  0  0  0  0  0  0  0  0
  190.5090  175.1400  137.9410 N   0  0  0  0  0  0  0  0  0  0  0  0
  188.7770  177.9490  145.2110 C   0  0  0  0  0  2  0  0  0  0  0  0
  186.6740  176.8110  144.6590 C   0  0  1  0  0  3  0  0  0  0  0  0
  182.5870  179.7140  138.9580 C   0  0  0  0  0  1  0  0  0  0  0  0
  188.2810  175.5370  137.3360 N   0  0  0  0  0  1  0  0  0  0  0  0
  190.6590  176.9890  140.8350 C   0  0  1  0  0  3  0  0  0  0  0  0
  192.0510  176.9100  138.7190 C   0  0  0  0  0  2  0  0  0  0  0  0
  183.9410  179.2660  139.3750 C   0  0  0  0  0  0  0  0  0  0  0  0
  189.5880  177.3350  138.5690 C   0  0  2  0  0  3  0  0  0  0  0  0
  189.4850  177.5750  141.4590 N   0  0  0  0  0  0  0  0  0  0  0  0
  191.9270  178.8340  143.7250 C   0  0  0  0  0  1  0  0  0  0  0  0
  189.7560  178.0090  142.8350 C   0  0  1  0  0  3  0  0  0  0  0  0
  187.4330  177.5310  145.7740 C   0  0  0  0  0  2  0  0  0  0  0  0
  186.0690  177.7960  143.6930 C   0  0  1  0  0  3  0  0  0  0  0  0
  191.8100  175.4130  138.5550 C   0  0  0  0  0  2  0  0  0  0  0  0
  190.8540  177.5500  139.4200 C   0  0  1  0  0  3  0  0  0  0  0  0
  187.0650  178.4790  142.8110 C   0  0  1  0  0  3  0  0  0  0  0  0
  1  4  1  0  0  0  0
  2 22  1  0  0  0  0
  3 11  1  0  0  0  0
  4 13  2  0  0  0  0
  4 23  1  0  0  0  0
  5 12  1  0  0  0  0
  5  1  2  0  0  0  0
  7 27  1  0  0  0  0
  7 10  1  0  0  0  0
  7 16  1  0  0  0  0
  8  6  1  0  0  0  0
  8 13  1  0  0  0  0
  9 12  1  0  0  0  0
  9 21  2  0  0  0  0
 10 15  1  0  0  0  0
 11 24  1  0  0  0  0
 12  8  2  0  0  0  0
 13 30  1  0  0  0  0
 14  2  2  0  0  0  0
 14 28  1  0  0  0  0
 15 26  1  0  0  0  0
 16 26  1  0  0  0  0
 17 21  1  0  0  0  0
 18  2  1  0  0  0  0
 19 23  1  0  0  0  0
 19  3  1  0  0  0  0
 20 29  1  0  0  0  0
 21  6  1  0  0  0  0
 22  1  1  0  0  0  0
 22 29  1  0  0  0  0
 23 25  1  0  0  0  0
 25 11  1  0  0  0  0
 25 10  1  0  0  0  0
 27 16  1  0  0  0  0
 28 20  1  0  0  0  0
 29 19  1  0  0  0  0
 30  7  1  0  0  0  0
 30 27  1  0  0  0  0
M  END
>  <MODEL>
1

>  <REMARK>
 VINA RESULT:      -9.9      0.000      0.000
  Name = 
  0 active torsions:
  status: ('A' for Active; 'I' for Inactive)
                            x       y       z     vdW  Elec       q    Type
                         _______ _______ _______ _____ _____    ______ ____

>  <TORSDO>
F 0

$$$$
=
 OpenBabel11052412333D

 30 38  0  0  1  0  0  0  0  0999 V2000
  186.1360  178.5980  141.9430 C   0  0  0  0  0  0  0  0  0  0  0  0
  186.8120  177.5630  144.1460 C   0  0  0  0  0  0  0  0  0  0  0  0
  182.4100  179.0150  144.0460 C   0  0  0  0  0  2  0  0  0  0  0  0
  184.8750  178.4070  141.3160 C   0  0  0  0  0  0  0  0  0  0  0  0
  187.3120  178.6340  141.1730 C   0  0  0  0  0  3  0  0  0  0  0  0
  186.2520  178.1140  137.5200 S   0  0  0  0  0  0  0  0  0  0  0  0
  182.8640  176.8590  139.8820 C   0  0  1  0  0  0  0  0  0  0  0  0
  186.0080  178.2560  139.1790 C   0  0  0  0  0  0  0  0  0  0  0  0
  188.3060  178.4900  138.9630 N   0  0  0  0  0  0  0  0  0  0  0  0
  181.7970  177.4830  140.7850 C   0  0  2  0  0  3  0  0  0  0  0  0
  181.4480  178.8280  142.8830 C   0  0  1  0  0  3  0  0  0  0  0  0
  187.2320  178.4600  139.7940 C   0  0  0  0  0  0  0  0  0  0  0  0
  184.8170  178.2150  139.9050 C   0  0  0  0  0  0  0  0  0  0  0  0
  186.4320  177.2360  145.3470 N   0  0  0  0  0  0  0  0  0  0  0  0
  180.5880  177.8100  139.9380 C   0  0  0  0  0  2  0  0  0  0  0  0
  182.0020  176.1000  138.8880 C   0  0  1  0  0  3  0  0  0  0  0  0
  188.8790  178.2980  136.5390 C   0  0  0  0  0  1  0  0  0  0  0  0
  187.9330  176.8900  143.5830 N   0  0  0  0  0  1  0  0  0  0  0  0
  183.7380  178.4390  143.5840 C   0  0  1  0  0  3  0  0  0  0  0  0
  185.0490  179.2720  145.5860 C   0  0  0  0  0  2  0  0  0  0  0  0
  187.9240  178.3110  137.6770 C   0  0  0  0  0  0  0  0  0  0  0  0
  186.2400  178.7810  143.4390 C   0  0  2  0  0  3  0  0  0  0  0  0
  183.6730  178.4250  142.1330 N   0  0  0  0  0  0  0  0  0  0  0  0
  180.5640  180.0510  142.7460 C   0  0  0  0  0  1  0  0  0  0  0  0
  182.3100  178.6650  141.6430 C   0  0  1  0  0  3  0  0  0  0  0  0
  180.6630  176.8290  138.7830 C   0  0  0  0  0  2  0  0  0  0  0  0
  183.1250  176.9540  138.3590 C   0  0  1  0  0  3  0  0  0  0  0  0
  185.3150  177.8500  146.0680 C   0  0  0  0  0  2  0  0  0  0  0  0
  184.9240  179.2850  144.0640 C   0  0  1  0  0  3  0  0  0  0  0  0
  183.4850  178.1070  139.2410 C   0  0  1  0  0  3  0  0  0  0  0  0
  1 22  1  0  0  0  0
  2 14  2  0  0  0  0
  4  1  1  0  0  0  0
  4 23  1  0  0  0  0
  5  1  2  0  0  0  0
  6 21  1  0  0  0  0
  6  8  1  0  0  0  0
  7 10  1  0  0  0  0
  8 12  2  0  0  0  0
  8 13  1  0  0  0  0
  9 12  1  0  0  0  0
 10 25  1  0  0  0  0
 11  3  1  0  0  0  0
 12  5  1  0  0  0  0
 13  4  2  0  0  0  0
 14 28  1  0  0  0  0
 15 10  1  0  0  0  0
 16  7  1  0  0  0  0
 17 21  1  0  0  0  0
 18  2  1  0  0  0  0
 19  3  1  0  0  0  0
 19 29  1  0  0  0  0
 20 28  1  0  0  0  0
 21  9  2  0  0  0  0
 22 29  1  0  0  0  0
 22  2  1  0  0  0  0
 23 19  1  0  0  0  0
 24 11  1  0  0  0  0
 25 23  1  0  0  0  0
 25 11  1  0  0  0  0
 26 16  1  0  0  0  0
 26 15  1  0  0  0  0
 27 16  1  0  0  0  0
 27 30  1  0  0  0  0
 27  7  1  0  0  0  0
 29 20  1  0  0  0  0
 30  7  1  0  0  0  0
 30 13  1  0  0  0  0
M  END
>  <MODEL>
2

>  <REMARK>
 VINA RESULT:      -8.4      2.878      7.028
  Name = 
  0 active torsions:
  status: ('A' for Active; 'I' for Inactive)
                            x       y       z     vdW  Elec       q    Type
                         _______ _______ _______ _____ _____    ______ ____

>  <TORSDO>
F 0

$$$$
=
 OpenBabel11052412333D

 30 38  0  0  1  0  0  0  0  0999 V2000
  186.3100  177.8660  145.3500 C   0  0  0  0  0  0  0  0  0  0  0  0
  187.0950  179.0230  147.4540 C   0  0  0  0  0  0  0  0  0  0  0  0
  190.3420  176.3780  145.4660 C   0  0  0  0  0  2  0  0  0  0  0  0
  187.1000  177.6980  144.1820 C   0  0  0  0  0  0  0  0  0  0  0  0
  184.9430  178.1770  145.2440 C   0  0  0  0  0  3  0  0  0  0  0  0
  184.1610  178.4180  141.4930 S   0  0  0  0  0  0  0  0  0  0  0  0
  188.4620  178.6250  141.7770 C   0  0  1  0  0  0  0  0  0  0  0  0
  185.1440  178.1920  142.8390 C   0  0  0  0  0  0  0  0  0  0  0  0
  183.0650  178.6250  143.7720 N   0  0  0  0  0  0  0  0  0  0  0  0
  189.6370  177.7120  142.1380 C   0  0  2  0  0  3  0  0  0  0  0  0
  190.6180  176.2980  143.9730 C   0  0  1  0  0  3  0  0  0  0  0  0
  184.3760  178.3380  143.9820 C   0  0  0  0  0  0  0  0  0  0  0  0
  186.5040  177.8830  142.9000 C   0  0  0  0  0  0  0  0  0  0  0  0
  188.0850  179.2140  148.2770 N   0  0  0  0  0  0  0  0  0  0  0  0
  190.1440  177.0650  140.8680 C   0  0  0  0  0  2  0  0  0  0  0  0
  188.8840  179.1190  140.4040 C   0  0  1  0  0  3  0  0  0  0  0  0
  181.4440  179.0030  141.9090 C   0  0  0  0  0  1  0  0  0  0  0  0
  186.0560  179.9960  147.4090 N   0  0  0  0  0  1  0  0  0  0  0  0
  189.1560  177.3150  145.6200 C   0  0  1  0  0  3  0  0  0  0  0  0
  188.8370  176.8650  148.0930 C   0  0  0  0  0  2  0  0  0  0  0  0
  182.7960  178.7040  142.4480 C   0  0  0  0  0  0  0  0  0  0  0  0
  186.9140  177.7020  146.7260 C   0  0  2  0  0  3  0  0  0  0  0  0
  188.4990  177.3280  144.3240 N   0  0  0  0  0  0  0  0  0  0  0  0
  190.9760  174.8760  143.5940 C   0  0  0  0  0  1  0  0  0  0  0  0
  189.3320  176.7150  143.2820 C   0  0  1  0  0  3  0  0  0  0  0  0
  189.7630  178.0400  139.7720 C   0  0  0  0  0  2  0  0  0  0  0  0
  187.4720  178.6280  140.5880 C   0  0  1  0  0  3  0  0  0  0  0  0
  189.2140  178.2980  148.4550 C   0  0  0  0  0  2  0  0  0  0  0  0
  188.1890  176.8360  146.7110 C   0  0  1  0  0  3  0  0  0  0  0  0
  187.3130  177.6150  141.6760 C   0  0  1  0  0  3  0  0  0  0  0  0
  1 22  1  0  0  0  0
  2 14  2  0  0  0  0
  3 19  1  0  0  0  0
  4 23  1  0  0  0  0
  4  1  2  0  0  0  0
  5  1  1  0  0  0  0
  6 21  1  0  0  0  0
  6  8  1  0  0  0  0
  7 10  1  0  0  0  0
  8 13  2  0  0  0  0
  8 12  1  0  0  0  0
  9 12  1  0  0  0  0
 10 25  1  0  0  0  0
 11  3  1  0  0  0  0
 12  5  2  0  0  0  0
 13  4  1  0  0  0  0
 14 28  1  0  0  0  0
 15 10  1  0  0  0  0
 16 27  1  0  0  0  0
 16  7  1  0  0  0  0
 17 21  1  0  0  0  0
 18  2  1  0  0  0  0
 19 29  1  0  0  0  0
 20 28  1  0  0  0  0
 21  9  2  0  0  0  0
 22  2  1  0  0  0  0
 23 19  1  0  0  0  0
 24 11  1  0  0  0  0
 25 11  1  0  0  0  0
 25 23  1  0  0  0  0
 26 16  1  0  0  0  0
 26 15  1  0  0  0  0
 27 30  1  0  0  0  0
 27  7  1  0  0  0  0
 29 22  1  0  0  0  0
 29 20  1  0  0  0  0
 30  7  1  0  0  0  0
 30 13  1  0  0  0  0
M  END
>  <MODEL>
3

>  <REMARK>
 VINA RESULT:      -8.3      2.780      6.025
  Name = 
  0 active torsions:
  status: ('A' for Active; 'I' for Inactive)
                            x       y       z     vdW  Elec       q    Type
                         _______ _______ _______ _____ _____    ______ ____

>  <TORSDO>
F 0

$$$$
=
 OpenBabel11052412333D

 30 38  0  0  1  0  0  0  0  0999 V2000
  187.9790  177.1650  137.7320 C   0  0  0  0  0  0  0  0  0  0  0  0
  188.3050  175.1460  136.2490 C   0  0  0  0  0  0  0  0  0  0  0  0
  192.1190  176.3780  138.5790 C   0  0  0  0  0  2  0  0  0  0  0  0
  188.5370  177.3100  139.0300 C   0  0  0  0  0  0  0  0  0  0  0  0
  186.6710  177.6120  137.4690 C   0  0  0  0  0  3  0  0  0  0  0  0
  185.3180  179.0490  140.7610 S   0  0  0  0  0  0  0  0  0  0  0  0
  188.7660  176.7040  141.8730 C   0  0  1  0  0  0  0  0  0  0  0  0
  186.4560  178.3060  139.7700 C   0  0  0  0  0  0  0  0  0  0  0  0
  184.6590  178.6500  138.3430 N   0  0  0  0  0  0  0  0  0  0  0  0
  190.2890  176.7530  141.7200 C   0  0  2  0  0  3  0  0  0  0  0  0
  192.1590  176.8080  140.0370 C   0  0  1  0  0  3  0  0  0  0  0  0
  185.9230  178.1780  138.4980 C   0  0  0  0  0  0  0  0  0  0  0  0
  187.7490  177.8770  140.0730 C   0  0  0  0  0  0  0  0  0  0  0  0
  189.1370  174.2380  135.8300 N   0  0  0  0  0  0  0  0  0  0  0  0
  190.8660  177.4560  142.9290 C   0  0  0  0  0  2  0  0  0  0  0  0
  188.6250  176.5600  143.3780 C   0  0  1  0  0  3  0  0  0  0  0  0
  182.8360  179.7530  139.6470 C   0  0  0  0  0  1  0  0  0  0  0  0
  186.9090  174.8780  136.1630 N   0  0  0  0  0  1  0  0  0  0  0  0
  190.6540  176.1440  138.2550 C   0  0  1  0  0  3  0  0  0  0  0  0
  191.0250  175.8340  135.7670 C   0  0  0  0  0  2  0  0  0  0  0  0
  184.1900  179.1600  139.5070 C   0  0  0  0  0  0  0  0  0  0  0  0
  188.7760  176.5450  136.6080 C   0  0  2  0  0  3  0  0  0  0  0  0
  189.9090  176.8840  139.2580 N   0  0  0  0  0  0  0  0  0  0  0  0
  193.1810  177.9120  140.2180 C   0  0  0  0  0  1  0  0  0  0  0  0
  190.7680  177.3250  140.3630 C   0  0  1  0  0  3  0  0  0  0  0  0
  189.8440  177.2180  144.0240 C   0  0  0  0  0  2  0  0  0  0  0  0
  187.7710  177.5800  142.6720 C   0  0  1  0  0  3  0  0  0  0  0  0
  190.5950  174.3720  135.8330 C   0  0  0  0  0  2  0  0  0  0  0  0
  190.2960  176.6340  136.8460 C   0  0  1  0  0  3  0  0  0  0  0  0
  188.3700  178.1120  141.4090 C   0  0  1  0  0  3  0  0  0  0  0  0
  1  4  1  0  0  0  0
  2 22  1  0  0  0  0
  3 11  1  0  0  0  0
  4 23  1  0  0  0  0
  4 13  2  0  0  0  0
  5  1  2  0  0  0  0
  5 12  1  0  0  0  0
  7 27  1  0  0  0  0
  7 16  1  0  0  0  0
  8 13  1  0  0  0  0
  8  6  1  0  0  0  0
  9 12  1  0  0  0  0
  9 21  2  0  0  0  0
 10  7  1  0  0  0  0
 10 15  1  0  0  0  0
 11 24  1  0  0  0  0
 11 25  1  0  0  0  0
 12  8  2  0  0  0  0
 13 30  1  0  0  0  0
 14 28  1  0  0  0  0
 14  2  2  0  0  0  0
 15 26  1  0  0  0  0
 16 26  1  0  0  0  0
 18  2  1  0  0  0  0
 19  3  1  0  0  0  0
 19 23  1  0  0  0  0
 20 28  1  0  0  0  0
 20 29  1  0  0  0  0
 21 17  1  0  0  0  0
 21  6  1  0  0  0  0
 22 29  1  0  0  0  0
 22  1  1  0  0  0  0
 23 25  1  0  0  0  0
 25 10  1  0  0  0  0
 27 16  1  0  0  0  0
 29 19  1  0  0  0  0
 30  7  1  0  0  0  0
 30 27  1  0  0  0  0
M  END
>  <MODEL>
4

>  <REMARK>
 VINA RESULT:      -7.4      1.450      2.332
  Name = 
  0 active torsions:
  status: ('A' for Active; 'I' for Inactive)
                            x       y       z     vdW  Elec       q    Type
                         _______ _______ _______ _____ _____    ______ ____

>  <TORSDO>
F 0

$$$$
=
 OpenBabel11052412333D

 30 38  0  0  1  0  0  0  0  0999 V2000
  182.7490  179.2880  139.7120 C   0  0  0  0  0  0  0  0  0  0  0  0
  181.2410  181.1620  138.9430 C   0  0  0  0  0  0  0  0  0  0  0  0
  179.7580  179.0430  142.7900 C   0  0  0  0  0  2  0  0  0  0  0  0
  183.0650  179.0140  141.0690 C   0  0  0  0  0  0  0  0  0  0  0  0
  183.7350  179.1730  138.7160 C   0  0  0  0  0  3  0  0  0  0  0  0
  186.9710  178.1170  140.4930 S   0  0  0  0  0  0  0  0  0  0  0  0
  184.3670  179.5520  143.6210 C   0  0  1  0  0  0  0  0  0  0  0  0
  185.3490  178.5570  140.4010 C   0  0  0  0  0  0  0  0  0  0  0  0
  186.0490  178.6590  138.1910 N   0  0  0  0  0  0  0  0  0  0  0  0
  183.0740  179.1330  144.3250 C   0  0  2  0  0  3  0  0  0  0  0  0
  180.6380  178.6190  143.9560 C   0  0  1  0  0  3  0  0  0  0  0  0
  185.0300  178.8090  139.0770 C   0  0  0  0  0  0  0  0  0  0  0  0
  184.4000  178.6590  141.4190 C   0  0  0  0  0  0  0  0  0  0  0  0
  180.1540  181.8390  139.1770 N   0  0  0  0  0  0  0  0  0  0  0  0
  183.4380  178.3130  145.5430 C   0  0  0  0  0  2  0  0  0  0  0  0
  185.3020  179.7300  144.8050 C   0  0  1  0  0  3  0  0  0  0  0  0
  188.4680  178.0370  138.1160 C   0  0  0  0  0  1  0  0  0  0  0  0
  182.2530  181.7630  138.1420 N   0  0  0  0  0  1  0  0  0  0  0  0
  180.6990  179.6270  141.7500 C   0  0  1  0  0  3  0  0  0  0  0  0
  178.9330  179.8310  139.9440 C   0  0  0  0  0  2  0  0  0  0  0  0
  187.1850  178.2820  138.8240 C   0  0  0  0  0  0  0  0  0  0  0  0
  181.3500  179.6910  139.3070 C   0  0  2  0  0  3  0  0  0  0  0  0
  182.0120  179.0920  142.0680 N   0  0  0  0  0  0  0  0  0  0  0  0
  180.1470  177.3000  144.5160 C   0  0  0  0  0  1  0  0  0  0  0  0
  182.0390  178.4580  143.3910 C   0  0  1  0  0  3  0  0  0  0  0  0
  184.8260  178.7950  145.9170 C   0  0  0  0  0  2  0  0  0  0  0  0
  185.7920  178.9480  143.6150 C   0  0  1  0  0  3  0  0  0  0  0  0
  179.0170  181.3540  139.9610 C   0  0  0  0  0  2  0  0  0  0  0  0
  180.2870  179.2350  140.3250 C   0  0  1  0  0  3  0  0  0  0  0  0
  184.7070  178.2830  142.8300 C   0  0  1  0  0  3  0  0  0  0  0  0
  1  4  1  0  0  0  0
  2 14  2  0  0  0  0
  2 22  1  0  0  0  0
  3 11  1  0  0  0  0
  4 13  2  0  0  0  0
  4 23  1  0  0  0  0
  5 12  1  0  0  0  0
  5  1  2  0  0  0  0
  7 10  1  0  0  0  0
  7 16  1  0  0  0  0
  8  6  1  0  0  0  0
  8 13  1  0  0  0  0
  9 21  2  0  0  0  0
  9 12  1  0  0  0  0
 10 15  1  0  0  0  0
 11 24  1  0  0  0  0
 12  8  2  0  0  0  0
 13 30  1  0  0  0  0
 14 28  1  0  0  0  0
 15 26  1  0  0  0  0
 16 26  1  0  0  0  0
 17 21  1  0  0  0  0
 18  2  1  0  0  0  0
 19 23  1  0  0  0  0
 19  3  1  0  0  0  0
 20 28  1  0  0  0  0
 20 29  1  0  0  0  0
 21  6  1  0  0  0  0
 22  1  1  0  0  0  0
 22 29  1  0  0  0  0
 23 25  1  0  0  0  0
 25 11  1  0  0  0  0
 25 10  1  0  0  0  0
 27  7  1  0  0  0  0
 27 16  1  0  0  0  0
 29 19  1  0  0  0  0
 30 27  1  0  0  0  0
 30  7  1  0  0  0  0
M  END
>  <MODEL>
5

>  <REMARK>
 VINA RESULT:      -7.0      3.242      7.699
  Name = 
  0 active torsions:
  status: ('A' for Active; 'I' for Inactive)
                            x       y       z     vdW  Elec       q    Type
                         _______ _______ _______ _____ _____    ______ ____

>  <TORSDO>
F 0

$$$$
=
 OpenBabel11052412333D

 30 38  0  0  1  0  0  0  0  0999 V2000
  187.6170  178.1310  140.6870 C   0  0  0  0  0  0  0  0  0  0  0  0
  187.0090  177.5300  143.0650 C   0  0  0  0  0  0  0  0  0  0  0  0
  183.5000  179.3700  140.6560 C   0  0  0  0  0  2  0  0  0  0  0  0
  186.7670  177.9400  139.5660 C   0  0  0  0  0  0  0  0  0  0  0  0
  188.9970  177.8800  140.5830 C   0  0  0  0  0  3  0  0  0  0  0  0
  189.6280  176.6990  136.9840 S   0  0  0  0  0  0  0  0  0  0  0  0
  185.3680  176.3350  137.5750 C   0  0  1  0  0  0  0  0  0  0  0  0
  188.6910  177.2180  138.2830 C   0  0  0  0  0  0  0  0  0  0  0  0
  190.8350  177.1640  139.1680 N   0  0  0  0  0  0  0  0  0  0  0  0
  184.1490  177.2440  137.7550 C   0  0  2  0  0  3  0  0  0  0  0  0
  183.1540  179.0370  139.2140 C   0  0  1  0  0  3  0  0  0  0  0  0
  189.5180  177.4230  139.3750 C   0  0  0  0  0  0  0  0  0  0  0  0
  187.3170  177.4560  138.3440 C   0  0  0  0  0  0  0  0  0  0  0  0
  186.0710  177.5090  143.9670 N   0  0  0  0  0  0  0  0  0  0  0  0
  183.5430  177.5040  136.3940 C   0  0  0  0  0  2  0  0  0  0  0  0
  184.9210  175.4730  136.4060 C   0  0  1  0  0  3  0  0  0  0  0  0
  192.3940  176.3980  137.3730 C   0  0  0  0  0  1  0  0  0  0  0  0
  188.1100  176.6390  143.2110 N   0  0  0  0  0  1  0  0  0  0  0  0
  184.7550  178.5750  140.9770 C   0  0  1  0  0  3  0  0  0  0  0  0
  185.1500  179.6800  143.2230 C   0  0  0  0  0  2  0  0  0  0  0  0
  191.0500  176.7530  137.8960 C   0  0  0  0  0  0  0  0  0  0  0  0
  187.0650  178.6190  142.0070 C   0  0  2  0  0  3  0  0  0  0  0  0
  185.3530  178.2560  139.6920 N   0  0  0  0  0  0  0  0  0  0  0  0
  182.6810  180.2860  138.4980 C   0  0  0  0  0  1  0  0  0  0  0  0
  184.4340  178.5240  138.5790 C   0  0  1  0  0  3  0  0  0  0  0  0
  183.9430  176.2960  135.5690 C   0  0  0  0  0  2  0  0  0  0  0  0
  186.3020  176.0730  136.3690 C   0  0  1  0  0  3  0  0  0  0  0  0
  184.8910  178.3740  143.9680 C   0  0  0  0  0  2  0  0  0  0  0  0
  185.7330  179.3780  141.8440 C   0  0  1  0  0  3  0  0  0  0  0  0
  186.4380  177.3460  137.1430 C   0  0  1  0  0  3  0  0  0  0  0  0
  1 22  1  0  0  0  0
  2 18  1  0  0  0  0
  2 14  2  0  0  0  0
  3 19  1  0  0  0  0
  4 23  1  0  0  0  0
  4  1  2  0  0  0  0
  5  1  1  0  0  0  0
  6 21  1  0  0  0  0
  6  8  1  0  0  0  0
  7 10  1  0  0  0  0
  8 13  2  0  0  0  0
  8 12  1  0  0  0  0
  9 12  1  0  0  0  0
 10 25  1  0  0  0  0
 11  3  1  0  0  0  0
 12  5  2  0  0  0  0
 13  4  1  0  0  0  0
 14 28  1  0  0  0  0
 15 10  1  0  0  0  0
 16  7  1  0  0  0  0
 17 21  1  0  0  0  0
 19 29  1  0  0  0  0
 20 28  1  0  0  0  0
 21  9  2  0  0  0  0
 22  2  1  0  0  0  0
 23 19  1  0  0  0  0
 24 11  1  0  0  0  0
 25 11  1  0  0  0  0
 25 23  1  0  0  0  0
 26 15  1  0  0  0  0
 26 16  1  0  0  0  0
 27 16  1  0  0  0  0
 27 30  1  0  0  0  0
 27  7  1  0  0  0  0
 29 22  1  0  0  0  0
 29 20  1  0  0  0  0
 30  7  1  0  0  0  0
 30 13  1  0  0  0  0
M  END
>  <MODEL>
6

>  <REMARK>
 VINA RESULT:      -6.9      2.465      7.108
  Name = 
  0 active torsions:
  status: ('A' for Active; 'I' for Inactive)
                            x       y       z     vdW  Elec       q    Type
                         _______ _______ _______ _____ _____    ______ ____

>  <TORSDO>
F 0

$$$$
