=
 OpenBabel11052413263D

 28 33  0  0  1  0  0  0  0  0999 V2000
  188.9940  177.4630  145.7580 C   0  0  2  0  0  3  0  0  0  0  0  0
  189.6110  176.6480  144.5930 C   0  0  1  0  0  3  0  0  0  0  0  0
  187.5930  177.2870  143.1290 C   0  0  2  0  0  3  0  0  0  0  0  0
  183.6840  178.4270  142.6140 C   0  0  0  0  0  3  0  0  0  0  0  0
  188.1350  179.0860  148.6270 O   0  0  0  0  0  1  0  0  0  0  0  0
  191.7590  176.9610  143.3730 O   0  0  0  0  0  0  0  0  0  0  0  0
  189.1150  177.1000  143.1980 C   0  0  1  0  0  3  0  0  0  0  0  0
  191.8060  177.2470  145.7180 N   0  0  0  0  0  1  0  0  0  0  0  0
  185.7120  178.7260  140.3440 C   0  0  0  0  0  3  0  0  0  0  0  0
  185.6230  178.6380  144.1160 C   0  0  2  0  0  3  0  0  0  0  0  0
  191.1710  176.5600  144.5980 C   0  0  1  0  0  3  0  0  0  0  0  0
  183.2610  179.1930  140.3140 C   0  0  0  0  0  0  0  0  0  0  0  0
  185.0180  178.4380  142.7400 C   0  0  0  0  0  0  0  0  0  0  0  0
  187.2160  177.7540  141.8370 O   0  0  0  0  0  0  0  0  0  0  0  0
  184.4900  179.3810  139.8380 C   0  0  0  0  0  3  0  0  0  0  0  0
  186.8510  178.4620  146.7020 C   0  0  1  0  0  3  0  0  0  0  0  0
  187.1310  178.2560  144.2170 C   0  0  1  0  0  3  0  0  0  0  0  0
  185.9510  178.2870  141.5890 C   0  0  0  0  0  0  0  0  0  0  0  0
  188.1220  176.7470  148.0930 C   0  0  0  0  0  2  0  0  0  0  0  0
  185.3180  178.4110  146.6320 C   0  0  0  0  0  2  0  0  0  0  0  0
  187.3430  178.0640  148.0980 C   0  0  1  0  0  3  0  0  0  0  0  0
  191.3510  178.2830  143.1040 C   0  0  0  0  0  2  0  0  0  0  0  0
  182.2310  179.8780  139.7620 F   0  0  0  0  0  0  0  0  0  0  0  0
  182.9660  178.1520  141.3370 C   0  0  0  0  0  2  0  0  0  0  0  0
  184.7830  178.0160  145.2480 C   0  0  0  0  0  2  0  0  0  0  0  0
  189.2990  176.7760  147.1070 C   0  0  0  0  0  2  0  0  0  0  0  0
  187.4820  177.6390  145.5720 C   0  0  1  0  0  3  0  0  0  0  0  0
  189.8790  178.3310  142.6900 C   0  0  0  0  0  2  0  0  0  0  0  0
  1 26  1  1  0  0  0
  2 11  1  0  0  0  0
  2  1  1  0  0  0  0
  3  7  1  0  0  0  0
  3 17  1  0  0  0  0
  4 13  2  0  0  0  0
  6 11  1  0  0  0  0
  7  2  1  0  0  0  0
  9 18  2  0  0  0  0
 10 17  1  0  0  0  0
 10 25  1  0  0  0  0
 11  8  1  0  0  0  0
 12 24  1  0  0  0  0
 13 10  1  0  0  0  0
 14  3  1  0  0  0  0
 15 12  2  0  0  0  0
 15  9  1  0  0  0  0
 16 21  1  0  0  0  0
 17 27  1  0  0  0  0
 18 14  1  0  0  0  0
 18 13  1  0  0  0  0
 19 21  1  0  0  0  0
 20 16  1  0  0  0  0
 21  5  1  0  0  0  0
 22  6  1  0  0  0  0
 23 12  1  0  0  0  0
 24  4  1  0  0  0  0
 25 20  1  0  0  0  0
 26 19  1  0  0  0  0
 27  1  1  0  0  0  0
 27 16  1  0  0  0  0
 28 22  1  0  0  0  0
 28  7  1  0  0  0  0
M  END
>  <MODEL>
1

>  <REMARK>
 VINA RESULT:     -10.7      0.000      0.000
  Name = 
  0 active torsions:
  status: ('A' for Active; 'I' for Inactive)
                            x       y       z     vdW  Elec       q    Type
                         _______ _______ _______ _____ _____    ______ ____

>  <TORSDO>
F 0

$$$$
=
 OpenBabel11052413263D

 28 33  0  0  1  0  0  0  0  0999 V2000
  188.7230  177.3680  145.3400 C   0  0  2  0  0  3  0  0  0  0  0  0
  188.7680  176.4740  144.0750 C   0  0  1  0  0  3  0  0  0  0  0  0
  186.3770  177.2350  143.5000 C   0  0  2  0  0  3  0  0  0  0  0  0
  182.6720  178.6770  144.5170 C   0  0  0  0  0  3  0  0  0  0  0  0
  189.1930  179.1350  148.2140 O   0  0  0  0  0  1  0  0  0  0  0  0
  190.2610  176.5760  142.0860 O   0  0  0  0  0  0  0  0  0  0  0  0
  187.7840  176.9270  142.9690 C   0  0  1  0  0  3  0  0  0  0  0  0
  191.2630  176.9220  144.1970 N   0  0  0  0  0  1  0  0  0  0  0  0
  183.6330  178.7470  141.6150 C   0  0  0  0  0  3  0  0  0  0  0  0
  185.0600  178.7700  145.1100 C   0  0  2  0  0  3  0  0  0  0  0  0
  190.1900  176.2590  143.4640 C   0  0  1  0  0  3  0  0  0  0  0  0
  181.4120  179.4110  142.5350 C   0  0  0  0  0  0  0  0  0  0  0  0
  183.9420  178.5830  144.1010 C   0  0  0  0  0  0  0  0  0  0  0  0
  185.5450  177.6950  142.4410 O   0  0  0  0  0  0  0  0  0  0  0  0
  182.3560  179.4850  141.6000 C   0  0  0  0  0  3  0  0  0  0  0  0
  187.2080  178.5660  146.9990 C   0  0  1  0  0  3  0  0  0  0  0  0
  186.4540  178.2690  144.6240 C   0  0  1  0  0  3  0  0  0  0  0  0
  184.3230  178.3230  142.6850 C   0  0  0  0  0  0  0  0  0  0  0  0
  188.8170  176.7910  147.8660 C   0  0  0  0  0  2  0  0  0  0  0  0
  185.7760  178.6380  147.5480 C   0  0  0  0  0  2  0  0  0  0  0  0
  188.1920  178.1670  148.1050 C   0  0  1  0  0  3  0  0  0  0  0  0
  189.8650  177.9190  141.9240 C   0  0  0  0  0  2  0  0  0  0  0  0
  180.2930  180.1630  142.4000 F   0  0  0  0  0  0  0  0  0  0  0  0
  181.4850  178.4270  143.6500 C   0  0  0  0  0  2  0  0  0  0  0  0
  184.7060  178.2510  146.5160 C   0  0  0  0  0  2  0  0  0  0  0  0
  189.4990  176.6970  146.4940 C   0  0  0  0  0  2  0  0  0  0  0  0
  187.2780  177.6630  145.7610 C   0  0  1  0  0  3  0  0  0  0  0  0
  188.3570  178.0760  142.1280 C   0  0  0  0  0  2  0  0  0  0  0  0
  1 27  1  0  0  0  0
  1 26  1  1  0  0  0
  2  1  1  0  0  0  0
  3 17  1  0  0  0  0
  6 11  1  0  0  0  0
  7  3  1  0  0  0  0
  7  2  1  0  0  0  0
  9 18  2  0  0  0  0
 10 25  1  0  0  0  0
 11  2  1  0  0  0  0
 11  8  1  0  0  0  0
 12 24  1  0  0  0  0
 13  4  2  0  0  0  0
 13 10  1  0  0  0  0
 14 18  1  0  0  0  0
 14  3  1  0  0  0  0
 15  9  1  0  0  0  0
 15 12  2  0  0  0  0
 16 20  1  0  0  0  0
 16 21  1  0  0  0  0
 17 10  1  0  0  0  0
 17 27  1  0  0  0  0
 18 13  1  0  0  0  0
 19 21  1  0  0  0  0
 21  5  1  0  0  0  0
 22  6  1  0  0  0  0
 22 28  1  0  0  0  0
 23 12  1  0  0  0  0
 24  4  1  0  0  0  0
 25 20  1  0  0  0  0
 26 19  1  0  0  0  0
 27 16  1  0  0  0  0
 28  7  1  0  0  0  0
M  END
>  <MODEL>
2

>  <REMARK>
 VINA RESULT:     -10.6      1.420      1.726
  Name = 
  0 active torsions:
  status: ('A' for Active; 'I' for Inactive)
                            x       y       z     vdW  Elec       q    Type
                         _______ _______ _______ _____ _____    ______ ____

>  <TORSDO>
F 0

$$$$
=
 OpenBabel11052413263D

 28 33  0  0  1  0  0  0  0  0999 V2000
  187.9400  177.8110  144.9370 C   0  0  2  0  0  3  0  0  0  0  0  0
  189.0990  176.8390  144.5960 C   0  0  1  0  0  3  0  0  0  0  0  0
  188.6280  177.2180  142.0940 C   0  0  2  0  0  3  0  0  0  0  0  0
  186.1680  178.2050  138.9600 C   0  0  0  0  0  3  0  0  0  0  0  0
  185.5450  179.8350  146.2650 O   0  0  0  0  0  1  0  0  0  0  0  0
  191.5310  176.9970  145.1000 O   0  0  0  0  0  0  0  0  0  0  0  0
  189.6960  177.0670  143.1860 C   0  0  1  0  0  3  0  0  0  0  0  0
  190.0370  177.6350  146.8150 N   0  0  0  0  0  1  0  0  0  0  0  0
  189.2070  178.1900  138.6170 C   0  0  0  0  0  3  0  0  0  0  0  0
  186.6300  178.6710  141.3330 C   0  0  2  0  0  3  0  0  0  0  0  0
  190.2470  176.7770  145.6540 C   0  0  1  0  0  3  0  0  0  0  0  0
  187.4480  178.6080  136.8980 C   0  0  0  0  0  0  0  0  0  0  0  0
  187.0760  178.2560  139.9440 C   0  0  0  0  0  0  0  0  0  0  0  0
  189.2460  177.4780  140.8370 O   0  0  0  0  0  0  0  0  0  0  0  0
  188.6930  178.7410  137.3490 C   0  0  0  0  0  3  0  0  0  0  0  0
  185.8120  178.9080  144.0720 C   0  0  1  0  0  3  0  0  0  0  0  0
  187.6500  178.3330  142.4640 C   0  0  1  0  0  3  0  0  0  0  0  0
  188.5190  177.9470  139.7440 C   0  0  0  0  0  0  0  0  0  0  0  0
  185.6790  177.4420  146.1520 C   0  0  0  0  0  2  0  0  0  0  0  0
  184.7150  178.8220  143.0010 C   0  0  0  0  0  2  0  0  0  0  0  0
  185.2150  178.7330  145.4730 C   0  0  1  0  0  3  0  0  0  0  0  0
  191.5260  178.2570  144.4680 C   0  0  0  0  0  2  0  0  0  0  0  0
  187.1100  179.1860  135.7200 F   0  0  0  0  0  0  0  0  0  0  0  0
  186.4560  177.7300  137.5770 C   0  0  0  0  0  2  0  0  0  0  0  0
  185.2000  178.2150  141.6760 C   0  0  0  0  0  2  0  0  0  0  0  0
  187.2110  177.3410  146.2130 C   0  0  0  0  0  2  0  0  0  0  0  0
  186.9560  177.9330  143.7670 C   0  0  1  0  0  3  0  0  0  0  0  0
  190.7110  178.2190  143.1730 C   0  0  0  0  0  2  0  0  0  0  0  0
  1 26  1  1  0  0  0
  2  1  1  0  0  0  0
  2 11  1  0  0  0  0
  3 17  1  0  0  0  0
  3  7  1  0  0  0  0
  4 13  2  0  0  0  0
  6 11  1  0  0  0  0
  7  2  1  0  0  0  0
  9 18  2  0  0  0  0
 10 25  1  0  0  0  0
 10 17  1  0  0  0  0
 11  8  1  0  0  0  0
 12 15  2  0  0  0  0
 12 24  1  0  0  0  0
 13 10  1  0  0  0  0
 14  3  1  0  0  0  0
 15  9  1  0  0  0  0
 16 21  1  0  0  0  0
 17 27  1  0  0  0  0
 18 13  1  0  0  0  0
 18 14  1  0  0  0  0
 19 26  1  0  0  0  0
 20 16  1  0  0  0  0
 21 19  1  0  0  0  0
 21  5  1  0  0  0  0
 22  6  1  0  0  0  0
 23 12  1  0  0  0  0
 24  4  1  0  0  0  0
 25 20  1  0  0  0  0
 27 16  1  0  0  0  0
 27  1  1  0  0  0  0
 28  7  1  0  0  0  0
 28 22  1  0  0  0  0
M  END
>  <MODEL>
3

>  <REMARK>
 VINA RESULT:     -10.4      2.314      3.226
  Name = 
  0 active torsions:
  status: ('A' for Active; 'I' for Inactive)
                            x       y       z     vdW  Elec       q    Type
                         _______ _______ _______ _____ _____    ______ ____

>  <TORSDO>
F 0

$$$$
=
 OpenBabel11052413263D

 28 33  0  0  1  0  0  0  0  0999 V2000
  187.1370  178.2960  141.7230 C   0  0  2  0  0  3  0  0  0  0  0  0
  188.4690  178.7290  141.0570 C   0  0  1  0  0  3  0  0  0  0  0  0
  189.7320  177.9230  143.1500 C   0  0  2  0  0  3  0  0  0  0  0  0
  189.9580  177.0460  147.1540 C   0  0  0  0  0  3  0  0  0  0  0  0
  183.9550  177.5410  142.6690 O   0  0  0  0  0  1  0  0  0  0  0  0
  189.5580  177.9240  138.9680 O   0  0  0  0  0  0  0  0  0  0  0  0
  189.7050  177.9830  141.6170 C   0  0  1  0  0  3  0  0  0  0  0  0
  187.2180  178.2400  138.9040 N   0  0  0  0  0  1  0  0  0  0  0  0
  192.0670  175.9980  145.2020 C   0  0  0  0  0  3  0  0  0  0  0  0
  188.4420  177.0510  145.2140 C   0  0  2  0  0  3  0  0  0  0  0  0
  188.4790  178.6740  139.4950 C   0  0  1  0  0  3  0  0  0  0  0  0
  191.9890  175.7620  147.6840 C   0  0  0  0  0  0  0  0  0  0  0  0
  189.8270  176.9470  145.8240 C   0  0  0  0  0  0  0  0  0  0  0  0
  190.8630  177.1790  143.5910 O   0  0  0  0  0  0  0  0  0  0  0  0
  192.3950  175.3500  146.4860 C   0  0  0  0  0  3  0  0  0  0  0  0
  185.9810  177.7670  143.9280 C   0  0  1  0  0  3  0  0  0  0  0  0
  188.4340  177.3080  143.6760 C   0  0  1  0  0  3  0  0  0  0  0  0
  190.9740  176.7170  144.9020 C   0  0  0  0  0  0  0  0  0  0  0  0
  185.0670  179.6580  142.4860 C   0  0  0  0  0  2  0  0  0  0  0  0
  186.0690  177.9370  145.4510 C   0  0  0  0  0  2  0  0  0  0  0  0
  184.7300  178.4610  143.3770 C   0  0  1  0  0  3  0  0  0  0  0  0
  189.4840  176.6190  139.4960 C   0  0  0  0  0  2  0  0  0  0  0  0
  192.3530  175.0550  148.7810 F   0  0  0  0  0  0  0  0  0  0  0  0
  191.2670  177.0510  147.8680 C   0  0  0  0  0  2  0  0  0  0  0  0
  187.5110  178.0130  145.9750 C   0  0  0  0  0  2  0  0  0  0  0  0
  186.0070  179.2730  141.3340 C   0  0  0  0  0  2  0  0  0  0  0  0
  187.2800  178.2160  143.2470 C   0  0  1  0  0  3  0  0  0  0  0  0
  189.8790  176.6000  140.9740 C   0  0  0  0  0  2  0  0  0  0  0  0
  1 26  1  1  0  0  0
  1 27  1  0  0  0  0
  2  7  1  0  0  0  0
  2  1  1  0  0  0  0
  3 14  1  0  0  0  0
  3 17  1  0  0  0  0
  4 24  1  0  0  0  0
  5 21  1  0  0  0  0
  6 11  1  0  0  0  0
  6 22  1  0  0  0  0
  7  3  1  0  0  0  0
  8 11  1  0  0  0  0
  9 15  1  0  0  0  0
 10 13  1  0  0  0  0
 10 25  1  0  0  0  0
 11  2  1  0  0  0  0
 12 24  1  0  0  0  0
 12 23  1  0  0  0  0
 13  4  2  0  0  0  0
 14 18  1  0  0  0  0
 15 12  2  0  0  0  0
 16 20  1  0  0  0  0
 17 10  1  0  0  0  0
 18  9  2  0  0  0  0
 18 13  1  0  0  0  0
 19 21  1  0  0  0  0
 20 25  1  0  0  0  0
 21 16  1  0  0  0  0
 22 28  1  0  0  0  0
 26 19  1  0  0  0  0
 27 17  1  0  0  0  0
 27 16  1  0  0  0  0
 28  7  1  0  0  0  0
M  END
>  <MODEL>
4

>  <REMARK>
 VINA RESULT:     -10.0      3.650      6.644
  Name = 
  0 active torsions:
  status: ('A' for Active; 'I' for Inactive)
                            x       y       z     vdW  Elec       q    Type
                         _______ _______ _______ _____ _____    ______ ____

>  <TORSDO>
F 0

$$$$
=
 OpenBabel11052413263D

 28 33  0  0  1  0  0  0  0  0999 V2000
  186.5350  178.2260  140.3520 C   0  0  2  0  0  3  0  0  0  0  0  0
  188.0080  178.7070  140.3040 C   0  0  1  0  0  3  0  0  0  0  0  0
  188.1200  178.5000  142.8670 C   0  0  2  0  0  3  0  0  0  0  0  0
  186.4010  178.4400  146.5940 C   0  0  0  0  0  3  0  0  0  0  0  0
  183.3190  177.2230  139.8540 O   0  0  0  0  0  1  0  0  0  0  0  0
  190.0000  177.6820  139.2170 O   0  0  0  0  0  0  0  0  0  0  0  0
  188.8390  178.2630  141.5320 C   0  0  1  0  0  3  0  0  0  0  0  0
  187.9770  177.6480  137.9980 N   0  0  0  0  0  1  0  0  0  0  0  0
  189.2250  177.3480  146.1560 C   0  0  0  0  0  3  0  0  0  0  0  0
  186.0190  177.8630  144.2310 C   0  0  2  0  0  3  0  0  0  0  0  0
  188.7770  178.3590  138.9890 C   0  0  1  0  0  3  0  0  0  0  0  0
  187.9580  177.5790  148.2930 C   0  0  0  0  0  0  0  0  0  0  0  0
  186.9360  178.0730  145.4210 C   0  0  0  0  0  0  0  0  0  0  0  0
  188.9180  178.0200  143.9440 O   0  0  0  0  0  0  0  0  0  0  0  0
  188.9080  177.0070  147.5560 C   0  0  0  0  0  3  0  0  0  0  0  0
  184.4710  177.9670  141.8190 C   0  0  1  0  0  3  0  0  0  0  0  0
  186.7510  177.8190  142.8550 C   0  0  1  0  0  3  0  0  0  0  0  0
  188.3930  177.8350  145.2230 C   0  0  0  0  0  0  0  0  0  0  0  0
  184.3130  179.4030  139.7200 C   0  0  0  0  0  2  0  0  0  0  0  0
  183.8020  178.4340  143.1200 C   0  0  0  0  0  2  0  0  0  0  0  0
  183.6230  178.3620  140.6040 C   0  0  1  0  0  3  0  0  0  0  0  0
  189.7200  176.5040  139.9380 C   0  0  0  0  0  2  0  0  0  0  0  0
  187.7660  177.1510  149.5640 F   0  0  0  0  0  0  0  0  0  0  0  0
  187.1970  178.7640  147.8120 C   0  0  0  0  0  2  0  0  0  0  0  0
  184.8050  178.8110  144.2210 C   0  0  0  0  0  2  0  0  0  0  0  0
  185.7060  178.9420  139.2660 C   0  0  0  0  0  2  0  0  0  0  0  0
  185.9220  178.4570  141.7390 C   0  0  1  0  0  3  0  0  0  0  0  0
  189.3470  176.8220  141.3880 C   0  0  0  0  0  2  0  0  0  0  0  0
  1 26  1  6  0  0  0
  1 27  1  0  0  0  0
  2  1  1  0  0  0  0
  2  7  1  0  0  0  0
  3 14  1  0  0  0  0
  4 24  1  0  0  0  0
  5 21  1  0  0  0  0
  6 22  1  0  0  0  0
  7  3  1  0  0  0  0
  8 11  1  0  0  0  0
  9 15  1  0  0  0  0
 10 13  1  0  0  0  0
 11  6  1  0  0  0  0
 11  2  1  0  0  0  0
 12 23  1  0  0  0  0
 13  4  2  0  0  0  0
 14 18  1  0  0  0  0
 15 12  2  0  0  0  0
 16 20  1  0  0  0  0
 17  3  1  0  0  0  0
 17 10  1  0  0  0  0
 18 13  1  0  0  0  0
 18  9  2  0  0  0  0
 19 21  1  0  0  0  0
 20 25  1  0  0  0  0
 21 16  1  0  0  0  0
 22 28  1  0  0  0  0
 24 12  1  0  0  0  0
 25 10  1  0  0  0  0
 26 19  1  0  0  0  0
 27 16  1  0  0  0  0
 27 17  1  0  0  0  0
 28  7  1  0  0  0  0
M  END
>  <MODEL>
5

>  <REMARK>
 VINA RESULT:     -10.0      3.251      6.298
  Name = 
  0 active torsions:
  status: ('A' for Active; 'I' for Inactive)
                            x       y       z     vdW  Elec       q    Type
                         _______ _______ _______ _____ _____    ______ ____

>  <TORSDO>
F 0

$$$$
=
 OpenBabel11052413263D

 28 33  0  0  1  0  0  0  0  0999 V2000
  186.4890  178.2640  144.7780 C   0  0  2  0  0  3  0  0  0  0  0  0
  187.3700  177.0750  145.2400 C   0  0  1  0  0  3  0  0  0  0  0  0
  188.2900  176.8760  142.8440 C   0  0  2  0  0  3  0  0  0  0  0  0
  188.0110  177.3990  138.7820 C   0  0  0  0  0  3  0  0  0  0  0  0
  184.3680  180.8920  144.3420 O   0  0  0  0  0  1  0  0  0  0  0  0
  189.1970  176.9890  146.9280 O   0  0  0  0  0  0  0  0  0  0  0  0
  188.6120  176.8480  144.3440 C   0  0  1  0  0  3  0  0  0  0  0  0
  187.2830  178.2560  147.4840 N   0  0  0  0  0  1  0  0  0  0  0  0
  190.7120  176.8420  140.1050 C   0  0  0  0  0  3  0  0  0  0  0  0
  187.3670  178.3730  140.9490 C   0  0  2  0  0  3  0  0  0  0  0  0
  187.7990  177.1110  146.7420 C   0  0  1  0  0  3  0  0  0  0  0  0
  190.1860  177.0720  137.6780 C   0  0  0  0  0  0  0  0  0  0  0  0
  188.3060  177.5600  140.0790 C   0  0  0  0  0  0  0  0  0  0  0  0
  189.4830  176.7150  142.0830 O   0  0  0  0  0  0  0  0  0  0  0  0
  191.0410  177.1260  138.6960 C   0  0  0  0  0  3  0  0  0  0  0  0
  185.4160  179.4130  142.7750 C   0  0  1  0  0  3  0  0  0  0  0  0
  187.5820  178.1820  142.4820 C   0  0  1  0  0  3  0  0  0  0  0  0
  189.5280  176.9970  140.7180 C   0  0  0  0  0  0  0  0  0  0  0  0
  183.9150  178.5560  144.6490 C   0  0  0  0  0  2  0  0  0  0  0  0
  184.9970  179.2260  141.3100 C   0  0  0  0  0  2  0  0  0  0  0  0
  184.1920  179.6890  143.6570 C   0  0  1  0  0  3  0  0  0  0  0  0
  189.8260  178.0350  146.2220 C   0  0  0  0  0  2  0  0  0  0  0  0
  190.6250  177.3770  136.4340 F   0  0  0  0  0  0  0  0  0  0  0  0
  188.8010  176.5520  137.8430 C   0  0  0  0  0  2  0  0  0  0  0  0
  185.8870  178.2380  140.5420 C   0  0  0  0  0  2  0  0  0  0  0  0
  185.1380  178.2460  145.5250 C   0  0  0  0  0  2  0  0  0  0  0  0
  186.2660  178.2330  143.2610 C   0  0  1  0  0  3  0  0  0  0  0  0
  189.7640  177.7940  144.7120 C   0  0  0  0  0  2  0  0  0  0  0  0
  1  2  1  0  0  0  0
  1 26  1  1  0  0  0
  2 11  1  0  0  0  0
  3  7  1  0  0  0  0
  4 13  2  0  0  0  0
  7 28  1  0  0  0  0
  7  2  1  0  0  0  0
  9 18  2  0  0  0  0
 10 17  1  0  0  0  0
 11  6  1  0  0  0  0
 11  8  1  0  0  0  0
 12 24  1  0  0  0  0
 12 15  2  0  0  0  0
 13 18  1  0  0  0  0
 13 10  1  0  0  0  0
 14  3  1  0  0  0  0
 15  9  1  0  0  0  0
 16 27  1  0  0  0  0
 16 21  1  0  0  0  0
 17  3  1  0  0  0  0
 17 27  1  0  0  0  0
 18 14  1  0  0  0  0
 19 26  1  0  0  0  0
 20 16  1  0  0  0  0
 21  5  1  0  0  0  0
 21 19  1  0  0  0  0
 22  6  1  0  0  0  0
 23 12  1  0  0  0  0
 24  4  1  0  0  0  0
 25 10  1  0  0  0  0
 25 20  1  0  0  0  0
 27  1  1  0  0  0  0
 28 22  1  0  0  0  0
M  END
>  <MODEL>
6

>  <REMARK>
 VINA RESULT:      -9.0      3.108      4.849
  Name = 
  0 active torsions:
  status: ('A' for Active; 'I' for Inactive)
                            x       y       z     vdW  Elec       q    Type
                         _______ _______ _______ _____ _____    ______ ____

>  <TORSDO>
F 0

$$$$
=
 OpenBabel11052413263D

 28 33  0  0  1  0  0  0  0  0999 V2000
  189.4810  177.3100  145.2180 C   0  0  2  0  0  3  0  0  0  0  0  0
  189.0890  178.2530  146.3840 C   0  0  1  0  0  3  0  0  0  0  0  0
  186.8080  178.6380  145.2550 C   0  0  2  0  0  3  0  0  0  0  0  0
  184.3440  178.7640  141.9750 C   0  0  0  0  0  3  0  0  0  0  0  0
  190.8650  175.1700  142.9590 O   0  0  0  0  0  1  0  0  0  0  0  0
  188.8350  177.7830  148.8160 O   0  0  0  0  0  0  0  0  0  0  0  0
  187.5590  178.3940  146.5710 C   0  0  1  0  0  3  0  0  0  0  0  0
  190.6780  176.7920  147.7190 N   0  0  0  0  0  1  0  0  0  0  0  0
  183.1800  178.6580  144.8010 C   0  0  0  0  0  3  0  0  0  0  0  0
  186.2930  177.6100  142.9400 C   0  0  2  0  0  3  0  0  0  0  0  0
  189.7630  177.9280  147.7560 C   0  0  1  0  0  3  0  0  0  0  0  0
  181.9750  178.8750  142.6280 C   0  0  0  0  0  0  0  0  0  0  0  0
  184.9880  178.3700  143.0820 C   0  0  0  0  0  0  0  0  0  0  0  0
  185.4060  178.7030  145.4960 O   0  0  0  0  0  0  0  0  0  0  0  0
  182.0100  178.5300  143.9130 C   0  0  0  0  0  3  0  0  0  0  0  0
  188.9960  176.6620  142.8040 C   0  0  1  0  0  3  0  0  0  0  0  0
  187.1400  177.5370  144.2470 C   0  0  1  0  0  3  0  0  0  0  0  0
  184.4770  178.6180  144.4590 C   0  0  0  0  0  0  0  0  0  0  0  0
  191.3320  177.4800  143.4100 C   0  0  0  0  0  2  0  0  0  0  0  0
  188.3340  177.1280  141.5000 C   0  0  0  0  0  2  0  0  0  0  0  0
  190.5050  176.4730  142.6070 C   0  0  1  0  0  3  0  0  0  0  0  0
  187.9310  176.7590  148.4680 C   0  0  0  0  0  2  0  0  0  0  0  0
  180.8320  178.6830  141.9270 F   0  0  0  0  0  0  0  0  0  0  0  0
  183.1050  179.5920  141.9770 C   0  0  0  0  0  2  0  0  0  0  0  0
  187.1270  178.0510  141.7230 C   0  0  0  0  0  2  0  0  0  0  0  0
  190.9860  177.4490  144.9060 C   0  0  0  0  0  2  0  0  0  0  0  0
  188.6420  177.5980  143.9660 C   0  0  1  0  0  3  0  0  0  0  0  0
  186.9700  177.2230  147.3710 C   0  0  0  0  0  2  0  0  0  0  0  0
  1 26  1  6  0  0  0
  1  2  1  0  0  0  0
  2  7  1  0  0  0  0
  2 11  1  0  0  0  0
  3 14  1  0  0  0  0
  3  7  1  0  0  0  0
  4 24  1  0  0  0  0
  4 13  2  0  0  0  0
  7 28  1  0  0  0  0
  8 11  1  0  0  0  0
 10 13  1  0  0  0  0
 10 17  1  0  0  0  0
 11  6  1  0  0  0  0
 12 15  2  0  0  0  0
 13 18  1  0  0  0  0
 15  9  1  0  0  0  0
 16 27  1  0  0  0  0
 17  3  1  0  0  0  0
 18  9  2  0  0  0  0
 18 14  1  0  0  0  0
 19 26  1  0  0  0  0
 20 25  1  0  0  0  0
 20 16  1  0  0  0  0
 21 16  1  0  0  0  0
 21  5  1  0  0  0  0
 21 19  1  0  0  0  0
 22  6  1  0  0  0  0
 23 12  1  0  0  0  0
 24 12  1  0  0  0  0
 25 10  1  0  0  0  0
 27 17  1  0  0  0  0
 27  1  1  0  0  0  0
 28 22  1  0  0  0  0
M  END
>  <MODEL>
7

>  <REMARK>
 VINA RESULT:      -9.0      1.647      4.149
  Name = 
  0 active torsions:
  status: ('A' for Active; 'I' for Inactive)
                            x       y       z     vdW  Elec       q    Type
                         _______ _______ _______ _____ _____    ______ ____

>  <TORSDO>
F 0

$$$$
=
 OpenBabel11052413263D

 28 33  0  0  1  0  0  0  0  0999 V2000
  186.0740  178.4490  145.2040 C   0  0  2  0  0  3  0  0  0  0  0  0
  185.4430  179.4080  144.1630 C   0  0  1  0  0  3  0  0  0  0  0  0
  187.2420  178.6890  142.4680 C   0  0  2  0  0  3  0  0  0  0  0  0
  190.9460  177.2110  141.4960 C   0  0  0  0  0  3  0  0  0  0  0  0
  187.0130  176.5320  147.8580 O   0  0  0  0  0  1  0  0  0  0  0  0
  183.1730  179.4050  143.1410 O   0  0  0  0  0  0  0  0  0  0  0  0
  185.7610  179.0190  142.6980 C   0  0  1  0  0  3  0  0  0  0  0  0
  183.3080  178.9440  145.4530 N   0  0  0  0  0  1  0  0  0  0  0  0
  188.7010  177.2910  139.4210 C   0  0  0  0  0  3  0  0  0  0  0  0
  189.1400  177.0780  143.1640 C   0  0  2  0  0  3  0  0  0  0  0  0
  183.9080  179.6490  144.3260 C   0  0  1  0  0  3  0  0  0  0  0  0
  191.0760  176.5880  139.1190 C   0  0  0  0  0  0  0  0  0  0  0  0
  189.6350  177.3220  141.7510 C   0  0  0  0  0  0  0  0  0  0  0  0
  187.4490  178.2890  141.1170 O   0  0  0  0  0  0  0  0  0  0  0  0
  189.7960  176.5600  138.7550 C   0  0  0  0  0  3  0  0  0  0  0  0
  188.1760  177.1730  145.8630 C   0  0  1  0  0  3  0  0  0  0  0  0
  187.6950  177.5970  143.4380 C   0  0  1  0  0  3  0  0  0  0  0  0
  188.6230  177.6540  140.7100 C   0  0  0  0  0  0  0  0  0  0  0  0
  187.2250  178.8930  147.4850 C   0  0  0  0  0  2  0  0  0  0  0  0
  189.6930  177.0780  145.6470 C   0  0  0  0  0  2  0  0  0  0  0  0
  187.8570  177.5080  147.3250 C   0  0  1  0  0  3  0  0  0  0  0  0
  183.4130  178.0740  142.7440 C   0  0  0  0  0  2  0  0  0  0  0  0
  191.9730  175.8500  138.4240 F   0  0  0  0  0  0  0  0  0  0  0  0
  191.5710  177.5120  140.1760 C   0  0  0  0  0  2  0  0  0  0  0  0
  190.1400  177.5240  144.2470 C   0  0  0  0  0  2  0  0  0  0  0  0
  185.9670  179.0560  146.6190 C   0  0  0  0  0  2  0  0  0  0  0  0
  187.5360  178.1390  144.8590 C   0  0  1  0  0  3  0  0  0  0  0  0
  184.8290  177.9130  142.1850 C   0  0  0  0  0  2  0  0  0  0  0  0
  1 26  1  1  0  0  0
  2 11  1  0  0  0  0
  2  1  1  0  0  0  0
  3  7  1  0  0  0  0
  3 17  1  0  0  0  0
  4 13  2  0  0  0  0
  6 11  1  0  0  0  0
  7  2  1  0  0  0  0
  9 18  2  0  0  0  0
 10 17  1  0  0  0  0
 10 25  1  0  0  0  0
 11  8  1  0  0  0  0
 12 24  1  0  0  0  0
 13 10  1  0  0  0  0
 14  3  1  0  0  0  0
 15 12  2  0  0  0  0
 15  9  1  0  0  0  0
 16 21  1  0  0  0  0
 17 27  1  0  0  0  0
 18 14  1  0  0  0  0
 18 13  1  0  0  0  0
 20 16  1  0  0  0  0
 21 19  1  0  0  0  0
 21  5  1  0  0  0  0
 22  6  1  0  0  0  0
 23 12  1  0  0  0  0
 24  4  1  0  0  0  0
 25 20  1  0  0  0  0
 26 19  1  0  0  0  0
 27  1  1  0  0  0  0
 27 16  1  0  0  0  0
 28  7  1  0  0  0  0
 28 22  1  0  0  0  0
M  END
>  <MODEL>
8

>  <REMARK>
 VINA RESULT:      -9.0      3.291      5.542
  Name = 
  0 active torsions:
  status: ('A' for Active; 'I' for Inactive)
                            x       y       z     vdW  Elec       q    Type
                         _______ _______ _______ _____ _____    ______ ____

>  <TORSDO>
F 0

$$$$
=
 OpenBabel11052413263D

 28 33  0  0  1  0  0  0  0  0999 V2000
  187.0100  178.2610  141.0190 C   0  0  2  0  0  3  0  0  0  0  0  0
  185.8750  177.6940  141.9100 C   0  0  1  0  0  3  0  0  0  0  0  0
  187.6250  177.1370  143.7140 C   0  0  2  0  0  3  0  0  0  0  0  0
  191.4430  176.2520  144.9330 C   0  0  0  0  0  3  0  0  0  0  0  0
  189.0560  179.6300  138.6650 O   0  0  0  0  0  1  0  0  0  0  0  0
  183.8830  178.8210  142.8890 O   0  0  0  0  0  0  0  0  0  0  0  0
  186.2250  177.6900  143.4180 C   0  0  1  0  0  3  0  0  0  0  0  0
  184.4440  179.3780  140.6630 N   0  0  0  0  0  1  0  0  0  0  0  0
  189.3360  177.1850  146.9450 C   0  0  0  0  0  3  0  0  0  0  0  0
  190.1430  177.5220  143.2720 C   0  0  2  0  0  3  0  0  0  0  0  0
  184.4720  178.3450  141.6920 C   0  0  1  0  0  3  0  0  0  0  0  0
  191.6810  176.4480  147.3740 C   0  0  0  0  0  0  0  0  0  0  0  0
  190.3050  176.8980  144.6460 C   0  0  0  0  0  0  0  0  0  0  0  0
  187.8970  177.2140  145.1100 O   0  0  0  0  0  0  0  0  0  0  0  0
  190.5900  177.1280  147.7200 C   0  0  0  0  0  3  0  0  0  0  0  0
  189.5160  178.2530  140.5710 C   0  0  1  0  0  3  0  0  0  0  0  0
  188.6750  177.9020  142.9080 C   0  0  1  0  0  3  0  0  0  0  0  0
  189.1870  177.0610  145.6170 C   0  0  0  0  0  0  0  0  0  0  0  0
  187.9350  177.5090  138.7160 C   0  0  0  0  0  2  0  0  0  0  0  0
  190.8220  177.4850  140.8210 C   0  0  0  0  0  2  0  0  0  0  0  0
  189.1950  178.3020  139.0730 C   0  0  1  0  0  3  0  0  0  0  0  0
  184.7640  179.7580  143.4670 C   0  0  0  0  0  2  0  0  0  0  0  0
  192.7700  176.5020  148.1770 F   0  0  0  0  0  0  0  0  0  0  0  0
  191.6920  175.5220  146.2090 C   0  0  0  0  0  2  0  0  0  0  0  0
  190.8370  176.7220  142.1540 C   0  0  0  0  0  2  0  0  0  0  0  0
  186.7170  177.9650  139.5330 C   0  0  0  0  0  2  0  0  0  0  0  0
  188.3730  177.6890  141.4240 C   0  0  1  0  0  3  0  0  0  0  0  0
  185.9910  179.0630  144.0630 C   0  0  0  0  0  2  0  0  0  0  0  0
  1 26  1  6  0  0  0
  1 27  1  0  0  0  0
  1  2  1  0  0  0  0
  2  7  1  0  0  0  0
  3 14  1  0  0  0  0
  4 24  1  0  0  0  0
  5 21  1  0  0  0  0
  6 22  1  0  0  0  0
  7  3  1  0  0  0  0
  7 28  1  0  0  0  0
  8 11  1  0  0  0  0
  9 15  1  0  0  0  0
 10 13  1  0  0  0  0
 11  2  1  0  0  0  0
 11  6  1  0  0  0  0
 12 15  2  0  0  0  0
 12 23  1  0  0  0  0
 13  4  2  0  0  0  0
 13 18  1  0  0  0  0
 14 18  1  0  0  0  0
 16 20  1  0  0  0  0
 16 27  1  0  0  0  0
 17 10  1  0  0  0  0
 17  3  1  0  0  0  0
 18  9  2  0  0  0  0
 19 21  1  0  0  0  0
 19 26  1  0  0  0  0
 20 25  1  0  0  0  0
 21 16  1  0  0  0  0
 22 28  1  0  0  0  0
 24 12  1  0  0  0  0
 25 10  1  0  0  0  0
 27 17  1  0  0  0  0
M  END
>  <MODEL>
9

>  <REMARK>
 VINA RESULT:      -8.9      3.706      7.572
  Name = 
  0 active torsions:
  status: ('A' for Active; 'I' for Inactive)
                            x       y       z     vdW  Elec       q    Type
                         _______ _______ _______ _____ _____    ______ ____

>  <TORSDO>
F 0

$$$$
