=
 OpenBabel11052412253D

 30 33  0  0  1  0  0  0  0  0999 V2000
  184.2500  178.4580  141.7070 C   0  0  1  0  0  3  0  0  0  0  0  0
  185.5400  179.0150  142.2870 C   0  0  1  0  0  3  0  0  0  0  0  0
  185.3270  179.2650  143.7050 N   0  0  0  0  0  2  0  0  0  0  0  0
  183.2110  178.6330  142.7870 C   0  0  0  0  0  2  0  0  0  0  0  0
  183.8930  179.4480  143.8610 C   0  0  0  0  0  2  0  0  0  0  0  0
  184.9080  179.6720  139.7040 O   0  0  0  0  0  1  0  0  0  0  0  0
  183.8150  179.1860  140.4300 C   0  0  1  0  0  3  0  0  0  0  0  0
  182.8820  178.3380  139.5540 C   0  0  1  0  0  3  0  0  0  0  0  0
  181.2010  178.8600  136.1350 C   0  0  0  0  0  1  0  0  0  0  0  0
  181.8910  180.8160  138.7100 S   0  0  0  0  0  0  0  0  0  0  0  0
  182.4090  179.1190  138.2990 C   0  0  2  0  0  3  0  0  0  0  0  0
  179.6680  178.8070  138.4010 S   0  0  0  0  0  0  0  0  0  0  0  0
  181.2540  178.4340  137.5890 C   0  0  1  0  0  3  0  0  0  0  0  0
  180.3140  179.9840  140.7890 C   0  0  0  0  0  1  0  0  0  0  0  0
  180.2590  180.2770  139.3030 C   0  0  1  0  0  3  0  0  0  0  0  0
  183.9720  176.8770  137.9260 C   0  0  0  0  0  1  0  0  0  0  0  0
  183.4670  177.0080  139.2890 N   0  0  0  0  0  0  0  0  0  0  0  0
  182.4510  175.9910  139.4960 C   0  0  0  0  0  1  0  0  0  0  0  0
  186.6650  178.0140  142.0970 C   0  0  0  0  0  2  0  0  0  0  0  0
  187.3010  177.6820  143.4340 C   0  0  1  0  0  3  0  0  0  0  0  0
  186.7550  176.5000  143.9370 O   0  0  0  0  0  1  0  0  0  0  0  0
  188.7980  177.5220  143.2490 C   0  0  0  0  0  2  0  0  0  0  0  0
  191.3180  176.5510  146.6960 C   0  0  0  0  0  0  0  0  0  0  0  0
  190.0540  176.8510  147.3760 C   0  0  0  0  0  3  0  0  0  0  0  0
  192.5210  175.6190  147.5600 Cl  0  0  0  0  0  0  0  0  0  0  0  0
  189.5550  178.4120  144.2200 C   0  0  1  0  0  3  0  0  0  0  0  0
  188.9710  177.5980  146.7950 C   0  0  0  0  0  3  0  0  0  0  0  0
  191.6220  176.9750  145.3540 C   0  0  0  0  0  3  0  0  0  0  0  0
  189.3160  177.9710  145.5320 C   0  0  0  0  0  0  0  0  0  0  0  0
  190.5710  177.6760  144.8510 C   0  0  0  0  0  0  0  0  0  0  0  0
  1  7  1  6  0  0  0
  1  2  1  0  0  0  0
  1  4  1  0  0  0  0
  2 19  1  1  0  0  0
  2  3  1  0  0  0  0
  3  5  1  0  0  0  0
  4  5  1  0  0  0  0
  7  6  1  6  0  0  0
  8 17  1  6  0  0  0
  8  7  1  0  0  0  0
 10 15  1  0  0  0  0
 11 10  1  0  0  0  0
 11  8  1  1  0  0  0
 12 15  1  0  0  0  0
 13  9  1  6  0  0  0
 13 11  1  0  0  0  0
 13 12  1  0  0  0  0
 15 14  1  1  0  0  0
 16 17  1  0  0  0  0
 17 18  1  0  0  0  0
 19 20  1  0  0  0  0
 20 21  1  6  0  0  0
 22 20  1  0  0  0  0
 23 24  1  0  0  0  0
 23 25  1  0  0  0  0
 26 22  1  6  0  0  0
 26 30  1  0  0  0  0
 26 29  1  0  0  0  0
 27 24  2  0  0  0  0
 28 23  2  0  0  0  0
 29 27  1  0  0  0  0
 30 28  1  0  0  0  0
 30 29  2  0  0  0  0
M  END
>  <MODEL>
1

>  <REMARK>
 VINA RESULT:      -7.3      0.000      0.000
  Name = 
  8 active torsions:
  status: ('A' for Active; 'I' for Inactive)
    1  A    between atoms: C_3  and  C_11
    2  A    between atoms: C_3  and  C_19
    3  A    between atoms: N_4  and  C_13
    4  A    between atoms: C_7  and  C_30
    5  A    between atoms: C_8  and  C_13
    6  A    between atoms: C_10  and  C_25
    7  A    between atoms: C_11  and  C_25
    8  A    between atoms: C_13  and  C_30
                            x       y       z     vdW  Elec       q    Type
                         _______ _______ _______ _____ _____    ______ ____

>  <TORSDO>
F 8

$$$$
=
 OpenBabel11052412253D

 30 33  0  0  1  0  0  0  0  0999 V2000
  181.7590  178.2950  141.0600 C   0  0  1  0  0  3  0  0  0  0  0  0
  182.9920  178.8300  141.7700 C   0  0  1  0  0  3  0  0  0  0  0  0
  182.6350  179.1000  143.1560 N   0  0  0  0  0  2  0  0  0  0  0  0
  180.6150  178.5040  142.0210 C   0  0  0  0  0  2  0  0  0  0  0  0
  181.1970  179.3160  143.1550 C   0  0  0  0  0  2  0  0  0  0  0  0
  182.5030  179.9140  139.4020 O   0  0  0  0  0  1  0  0  0  0  0  0
  181.4800  179.0190  139.7380 C   0  0  1  0  0  3  0  0  0  0  0  0
  181.1720  178.0500  138.5870 C   0  0  1  0  0  3  0  0  0  0  0  0
  179.8550  174.5100  139.3070 C   0  0  0  0  0  1  0  0  0  0  0  0
  182.8290  175.7960  138.6490 S   0  0  0  0  0  0  0  0  0  0  0  0
  181.2320  176.5710  139.0530 C   0  0  2  0  0  3  0  0  0  0  0  0
  180.5660  175.1950  136.7550 S   0  0  0  0  0  0  0  0  0  0  0  0
  180.1300  175.7240  138.4410 C   0  0  1  0  0  3  0  0  0  0  0  0
  182.7630  176.6740  136.0560 C   0  0  0  0  0  1  0  0  0  0  0  0
  182.3560  175.4960  136.9190 C   0  0  1  0  0  3  0  0  0  0  0  0
  180.1980  179.2120  136.6700 C   0  0  0  0  0  1  0  0  0  0  0  0
  179.9350  178.4420  137.8820 N   0  0  0  0  0  0  0  0  0  0  0  0
  179.1180  179.2530  138.7670 C   0  0  0  0  0  1  0  0  0  0  0  0
  184.1090  177.8040  141.7110 C   0  0  0  0  0  2  0  0  0  0  0  0
  185.4510  178.4970  141.5740 C   0  0  1  0  0  3  0  0  0  0  0  0
  185.2920  179.7110  140.9020 O   0  0  0  0  0  1  0  0  0  0  0  0
  186.0290  178.7430  142.9550 C   0  0  0  0  0  2  0  0  0  0  0  0
  187.7350  177.8430  146.8870 C   0  0  0  0  0  0  0  0  0  0  0  0
  188.8430  177.4260  146.0230 C   0  0  0  0  0  3  0  0  0  0  0  0
  188.0770  178.1690  148.5720 Cl  0  0  0  0  0  0  0  0  0  0  0  0
  186.1220  177.4420  143.7350 C   0  0  1  0  0  3  0  0  0  0  0  0
  188.7200  177.1310  144.6200 C   0  0  0  0  0  3  0  0  0  0  0  0
  186.3810  178.0050  146.4250 C   0  0  0  0  0  3  0  0  0  0  0  0
  187.4230  177.3000  144.2440 C   0  0  0  0  0  0  0  0  0  0  0  0
  186.3160  177.7140  145.0980 C   0  0  0  0  0  0  0  0  0  0  0  0
  1  7  1  6  0  0  0
  1  2  1  0  0  0  0
  1  4  1  0  0  0  0
  2 19  1  1  0  0  0
  2  3  1  0  0  0  0
  4  5  1  0  0  0  0
  5  3  1  0  0  0  0
  7  6  1  6  0  0  0
  8 17  1  1  0  0  0
  8  7  1  0  0  0  0
 10 11  1  0  0  0  0
 11  8  1  6  0  0  0
 12 15  1  0  0  0  0
 12 13  1  0  0  0  0
 13 11  1  0  0  0  0
 13  9  1  1  0  0  0
 15 14  1  6  0  0  0
 15 10  1  0  0  0  0
 16 17  1  0  0  0  0
 17 18  1  0  0  0  0
 20 21  1  1  0  0  0
 20 19  1  0  0  0  0
 20 22  1  0  0  0  0
 23 25  1  0  0  0  0
 24 23  2  0  0  0  0
 26 22  1  6  0  0  0
 26 29  1  0  0  0  0
 26 30  1  0  0  0  0
 27 24  1  0  0  0  0
 28 23  1  0  0  0  0
 29 27  2  0  0  0  0
 29 30  1  0  0  0  0
 30 28  2  0  0  0  0
M  END
>  <MODEL>
2

>  <REMARK>
 VINA RESULT:      -7.1      2.451      3.820
  Name = 
  8 active torsions:
  status: ('A' for Active; 'I' for Inactive)
    1  A    between atoms: C_3  and  C_11
    2  A    between atoms: C_3  and  C_19
    3  A    between atoms: N_4  and  C_13
    4  A    between atoms: C_7  and  C_30
    5  A    between atoms: C_8  and  C_13
    6  A    between atoms: C_10  and  C_25
    7  A    between atoms: C_11  and  C_25
    8  A    between atoms: C_13  and  C_30
                            x       y       z     vdW  Elec       q    Type
                         _______ _______ _______ _____ _____    ______ ____

>  <TORSDO>
F 8

$$$$
=
 OpenBabel11052412253D

 30 33  0  0  1  0  0  0  0  0999 V2000
  186.7040  178.2450  137.7650 C   0  0  1  0  0  3  0  0  0  0  0  0
  187.8320  177.9160  138.7300 C   0  0  1  0  0  3  0  0  0  0  0  0
  189.0330  178.5990  138.2710 N   0  0  0  0  0  2  0  0  0  0  0  0
  187.3590  178.9370  136.5960 C   0  0  0  0  0  2  0  0  0  0  0  0
  188.8440  178.8090  136.8440 C   0  0  0  0  0  2  0  0  0  0  0  0
  186.5560  175.8160  137.7410 O   0  0  0  0  0  1  0  0  0  0  0  0
  185.9530  176.9960  137.2900 C   0  0  1  0  0  3  0  0  0  0  0  0
  184.4570  177.0380  137.6360 C   0  0  1  0  0  3  0  0  0  0  0  0
  182.8940  180.4030  138.6450 C   0  0  0  0  0  1  0  0  0  0  0  0
  183.8730  177.7080  140.2900 S   0  0  0  0  0  0  0  0  0  0  0  0
  184.1190  178.2340  138.5650 C   0  0  2  0  0  3  0  0  0  0  0  0
  181.3630  178.1350  138.6830 S   0  0  0  0  0  0  0  0  0  0  0  0
  182.8730  178.9810  138.1200 C   0  0  1  0  0  3  0  0  0  0  0  0
  182.1760  175.6790  139.5800 C   0  0  0  0  0  1  0  0  0  0  0  0
  182.1740  177.1420  139.9770 C   0  0  1  0  0  3  0  0  0  0  0  0
  183.0360  175.6020  136.2620 C   0  0  0  0  0  1  0  0  0  0  0  0
  183.6280  176.9260  136.4190 N   0  0  0  0  0  0  0  0  0  0  0  0
  184.4540  177.1960  135.2550 C   0  0  0  0  0  1  0  0  0  0  0  0
  187.4690  178.3840  140.1280 C   0  0  0  0  0  2  0  0  0  0  0  0
  188.1730  177.5300  141.1650 C   0  0  1  0  0  3  0  0  0  0  0  0
  189.5540  177.7130  141.0730 O   0  0  0  0  0  1  0  0  0  0  0  0
  187.6900  177.9260  142.5480 C   0  0  0  0  0  2  0  0  0  0  0  0
  188.2420  177.7240  146.8880 C   0  0  0  0  0  0  0  0  0  0  0  0
  189.6140  177.4670  146.4400 C   0  0  0  0  0  3  0  0  0  0  0  0
  187.9960  178.2540  148.5370 Cl  0  0  0  0  0  0  0  0  0  0  0  0
  187.7570  176.7410  143.4970 C   0  0  1  0  0  3  0  0  0  0  0  0
  189.9750  177.0350  145.1160 C   0  0  0  0  0  3  0  0  0  0  0  0
  187.0860  177.5710  146.0430 C   0  0  0  0  0  3  0  0  0  0  0  0
  188.8450  176.9080  144.3680 C   0  0  0  0  0  0  0  0  0  0  0  0
  187.4780  177.1610  144.8070 C   0  0  0  0  0  0  0  0  0  0  0  0
  1  7  1  6  0  0  0
  1  2  1  0  0  0  0
  2 19  1  1  0  0  0
  3  2  1  0  0  0  0
  4  5  1  0  0  0  0
  4  1  1  0  0  0  0
  5  3  1  0  0  0  0
  7  8  1  0  0  0  0
  7  6  1  1  0  0  0
  8 17  1  6  0  0  0
 11  8  1  6  0  0  0
 11 10  1  0  0  0  0
 12 15  1  0  0  0  0
 13 11  1  0  0  0  0
 13  9  1  1  0  0  0
 13 12  1  0  0  0  0
 15 14  1  6  0  0  0
 15 10  1  0  0  0  0
 16 17  1  0  0  0  0
 18 17  1  0  0  0  0
 19 20  1  0  0  0  0
 20 21  1  1  0  0  0
 20 22  1  0  0  0  0
 23 25  1  0  0  0  0
 24 23  1  0  0  0  0
 26 22  1  6  0  0  0
 26 29  1  0  0  0  0
 26 30  1  0  0  0  0
 27 24  2  0  0  0  0
 28 23  2  0  0  0  0
 29 30  2  0  0  0  0
 29 27  1  0  0  0  0
 30 28  1  0  0  0  0
M  END
>  <MODEL>
3

>  <REMARK>
 VINA RESULT:      -7.0      2.838      4.043
  Name = 
  8 active torsions:
  status: ('A' for Active; 'I' for Inactive)
    1  A    between atoms: C_3  and  C_11
    2  A    between atoms: C_3  and  C_19
    3  A    between atoms: N_4  and  C_13
    4  A    between atoms: C_7  and  C_30
    5  A    between atoms: C_8  and  C_13
    6  A    between atoms: C_10  and  C_25
    7  A    between atoms: C_11  and  C_25
    8  A    between atoms: C_13  and  C_30
                            x       y       z     vdW  Elec       q    Type
                         _______ _______ _______ _____ _____    ______ ____

>  <TORSDO>
F 8

$$$$
=
 OpenBabel11052412253D

 30 33  0  0  1  0  0  0  0  0999 V2000
  180.2130  179.4500  139.7010 C   0  0  1  0  0  3  0  0  0  0  0  0
  180.6800  179.8940  141.0780 C   0  0  1  0  0  3  0  0  0  0  0  0
  179.7260  180.8700  141.5870 N   0  0  0  0  0  2  0  0  0  0  0  0
  179.0930  180.3910  139.3300 C   0  0  0  0  0  2  0  0  0  0  0  0
  179.0890  181.4450  140.4130 C   0  0  0  0  0  2  0  0  0  0  0  0
  182.5680  179.8320  139.2200 O   0  0  0  0  0  1  0  0  0  0  0  0
  181.3290  179.5130  138.6520 C   0  0  1  0  0  3  0  0  0  0  0  0
  181.4070  178.2420  137.7950 C   0  0  1  0  0  3  0  0  0  0  0  0
  179.0820  175.2040  138.1850 C   0  0  0  0  0  1  0  0  0  0  0  0
  181.9160  176.1590  139.5940 S   0  0  0  0  0  0  0  0  0  0  0  0
  180.7460  177.0310  138.5060 C   0  0  2  0  0  3  0  0  0  0  0  0
  181.4730  174.9180  136.8850 S   0  0  0  0  0  0  0  0  0  0  0  0
  180.1740  176.0220  137.5250 C   0  0  1  0  0  3  0  0  0  0  0  0
  183.8490  176.0400  137.6570 C   0  0  0  0  0  1  0  0  0  0  0  0
  182.6770  175.2550  138.2110 C   0  0  1  0  0  3  0  0  0  0  0  0
  181.9360  178.1550  135.4100 C   0  0  0  0  0  1  0  0  0  0  0  0
  180.9390  178.5010  136.4180 N   0  0  0  0  0  0  0  0  0  0  0  0
  180.6240  179.9120  136.2800 C   0  0  0  0  0  1  0  0  0  0  0  0
  180.7490  178.6990  142.0100 C   0  0  0  0  0  2  0  0  0  0  0  0
  180.9990  179.1580  143.4340 C   0  0  1  0  0  3  0  0  0  0  0  0
  179.8790  178.8860  144.2230 O   0  0  0  0  0  1  0  0  0  0  0  0
  182.2100  178.4320  143.9880 C   0  0  0  0  0  2  0  0  0  0  0  0
  186.5050  177.6930  144.4160 C   0  0  0  0  0  0  0  0  0  0  0  0
  186.1360  177.8920  145.8200 C   0  0  0  0  0  3  0  0  0  0  0  0
  188.0080  176.8680  144.0650 Cl  0  0  0  0  0  0  0  0  0  0  0  0
  183.3820  179.3870  144.1400 C   0  0  1  0  0  3  0  0  0  0  0  0
  184.9330  178.5440  146.2650 C   0  0  0  0  0  3  0  0  0  0  0  0
  185.6970  178.1320  143.3080 C   0  0  0  0  0  3  0  0  0  0  0  0
  184.2130  178.9360  145.1780 C   0  0  0  0  0  0  0  0  0  0  0  0
  184.5750  178.7410  143.7790 C   0  0  0  0  0  0  0  0  0  0  0  0
  1  7  1  6  0  0  0
  1  2  1  0  0  0  0
  2  3  1  0  0  0  0
  2 19  1  1  0  0  0
  4  1  1  0  0  0  0
  4  5  1  0  0  0  0
  5  3  1  0  0  0  0
  7  6  1  1  0  0  0
  8 17  1  6  0  0  0
  8  7  1  0  0  0  0
 11  8  1  6  0  0  0
 11 10  1  0  0  0  0
 12 13  1  0  0  0  0
 12 15  1  0  0  0  0
 13  9  1  1  0  0  0
 13 11  1  0  0  0  0
 15 14  1  6  0  0  0
 15 10  1  0  0  0  0
 16 17  1  0  0  0  0
 18 17  1  0  0  0  0
 19 20  1  0  0  0  0
 20 22  1  0  0  0  0
 20 21  1  1  0  0  0
 23 24  1  0  0  0  0
 24 27  2  0  0  0  0
 25 23  1  0  0  0  0
 26 22  1  6  0  0  0
 26 29  1  0  0  0  0
 28 30  1  0  0  0  0
 28 23  2  0  0  0  0
 29 27  1  0  0  0  0
 30 26  1  0  0  0  0
 30 29  2  0  0  0  0
M  END
>  <MODEL>
4

>  <REMARK>
 VINA RESULT:      -6.7      3.385      5.180
  Name = 
  8 active torsions:
  status: ('A' for Active; 'I' for Inactive)
    1  A    between atoms: C_3  and  C_11
    2  A    between atoms: C_3  and  C_19
    3  A    between atoms: N_4  and  C_13
    4  A    between atoms: C_7  and  C_30
    5  A    between atoms: C_8  and  C_13
    6  A    between atoms: C_10  and  C_25
    7  A    between atoms: C_11  and  C_25
    8  A    between atoms: C_13  and  C_30
                            x       y       z     vdW  Elec       q    Type
                         _______ _______ _______ _____ _____    ______ ____

>  <TORSDO>
F 8

$$$$
=
 OpenBabel11052412253D

 30 33  0  0  1  0  0  0  0  0999 V2000
  182.0360  178.2410  141.6260 C   0  0  1  0  0  3  0  0  0  0  0  0
  182.5050  179.1040  142.7860 C   0  0  1  0  0  3  0  0  0  0  0  0
  181.3770  179.3030  143.6870 N   0  0  0  0  0  2  0  0  0  0  0  0
  180.5350  178.1590  141.7620 C   0  0  0  0  0  2  0  0  0  0  0  0
  180.1870  179.1250  142.8710 C   0  0  0  0  0  2  0  0  0  0  0  0
  183.7920  179.0400  140.1450 O   0  0  0  0  0  1  0  0  0  0  0  0
  182.4140  178.8300  140.2630 C   0  0  1  0  0  3  0  0  0  0  0  0
  181.8610  178.0080  139.0890 C   0  0  1  0  0  3  0  0  0  0  0  0
  181.6400  178.5510  135.2890 C   0  0  0  0  0  1  0  0  0  0  0  0
  181.4980  180.5310  137.9330 S   0  0  0  0  0  0  0  0  0  0  0  0
  181.9690  178.7820  137.7490 C   0  0  2  0  0  3  0  0  0  0  0  0
  179.3730  178.7150  136.8130 S   0  0  0  0  0  0  0  0  0  0  0  0
  181.1040  178.1760  136.6570 C   0  0  1  0  0  3  0  0  0  0  0  0
  179.1860  179.9160  139.2670 C   0  0  0  0  0  1  0  0  0  0  0  0
  179.7190  180.1600  137.8690 C   0  0  1  0  0  3  0  0  0  0  0  0
  183.3600  176.4300  137.9780 C   0  0  0  0  0  1  0  0  0  0  0  0
  182.4310  176.6460  139.0820 N   0  0  0  0  0  0  0  0  0  0  0  0
  181.3530  175.6800  138.9620 C   0  0  0  0  0  1  0  0  0  0  0  0
  183.6400  178.4140  143.5180 C   0  0  0  0  0  2  0  0  0  0  0  0
  184.1880  179.3170  144.6070 C   0  0  1  0  0  3  0  0  0  0  0  0
  183.6000  178.9940  145.8310 O   0  0  0  0  0  1  0  0  0  0  0  0
  185.6920  179.1390  144.6930 C   0  0  0  0  0  2  0  0  0  0  0  0
  189.2080  177.2760  146.5220 C   0  0  0  0  0  0  0  0  0  0  0  0
  189.5570  177.1500  145.1040 C   0  0  0  0  0  3  0  0  0  0  0  0
  190.4920  177.1480  147.7040 Cl  0  0  0  0  0  0  0  0  0  0  0  0
  186.0450  177.6810  144.9300 C   0  0  1  0  0  3  0  0  0  0  0  0
  188.6160  177.2400  144.0190 C   0  0  0  0  0  3  0  0  0  0  0  0
  187.8680  177.5060  146.9960 C   0  0  0  0  0  3  0  0  0  0  0  0
  187.3720  177.4560  144.5280 C   0  0  0  0  0  0  0  0  0  0  0  0
  187.0180  177.5810  145.9370 C   0  0  0  0  0  0  0  0  0  0  0  0
  1  7  1  6  0  0  0
  1  4  1  0  0  0  0
  1  2  1  0  0  0  0
  2 19  1  1  0  0  0
  2  3  1  0  0  0  0
  4  5  1  0  0  0  0
  5  3  1  0  0  0  0
  7  6  1  6  0  0  0
  8 17  1  6  0  0  0
  8  7  1  0  0  0  0
 11 10  1  0  0  0  0
 11  8  1  1  0  0  0
 12 15  1  0  0  0  0
 13  9  1  6  0  0  0
 13 12  1  0  0  0  0
 13 11  1  0  0  0  0
 15 10  1  0  0  0  0
 15 14  1  1  0  0  0
 16 17  1  0  0  0  0
 18 17  1  0  0  0  0
 19 20  1  0  0  0  0
 20 22  1  0  0  0  0
 20 21  1  1  0  0  0
 23 28  1  0  0  0  0
 23 25  1  0  0  0  0
 24 23  2  0  0  0  0
 26 22  1  6  0  0  0
 26 30  1  0  0  0  0
 27 29  2  0  0  0  0
 27 24  1  0  0  0  0
 29 26  1  0  0  0  0
 29 30  1  0  0  0  0
 30 28  2  0  0  0  0
M  END
>  <MODEL>
5

>  <REMARK>
 VINA RESULT:      -6.6      1.785      2.629
  Name = 
  8 active torsions:
  status: ('A' for Active; 'I' for Inactive)
    1  A    between atoms: C_3  and  C_11
    2  A    between atoms: C_3  and  C_19
    3  A    between atoms: N_4  and  C_13
    4  A    between atoms: C_7  and  C_30
    5  A    between atoms: C_8  and  C_13
    6  A    between atoms: C_10  and  C_25
    7  A    between atoms: C_11  and  C_25
    8  A    between atoms: C_13  and  C_30
                            x       y       z     vdW  Elec       q    Type
                         _______ _______ _______ _____ _____    ______ ____

>  <TORSDO>
F 8

$$$$
=
 OpenBabel11052412253D

 30 33  0  0  1  0  0  0  0  0999 V2000
  180.8500  178.2420  142.0000 C   0  0  1  0  0  3  0  0  0  0  0  0
  181.5620  179.1030  143.0310 C   0  0  1  0  0  3  0  0  0  0  0  0
  180.7750  179.0840  144.2570 N   0  0  0  0  0  2  0  0  0  0  0  0
  179.4980  177.9310  142.5950 C   0  0  0  0  0  2  0  0  0  0  0  0
  179.4150  178.7750  143.8460 C   0  0  0  0  0  2  0  0  0  0  0  0
  180.5550  180.3380  140.8000 O   0  0  0  0  0  1  0  0  0  0  0  0
  180.6860  178.9520  140.6520 C   0  0  1  0  0  3  0  0  0  0  0  0
  181.7950  178.5890  139.6540 C   0  0  1  0  0  3  0  0  0  0  0  0
  181.9320  178.0890  135.8440 C   0  0  0  0  0  1  0  0  0  0  0  0
  179.6460  177.5710  138.1760 S   0  0  0  0  0  0  0  0  0  0  0  0
  181.2410  178.4500  138.2110 C   0  0  2  0  0  3  0  0  0  0  0  0
  182.0680  175.9140  137.4980 S   0  0  0  0  0  0  0  0  0  0  0  0
  182.2010  177.7180  137.2890 C   0  0  1  0  0  3  0  0  0  0  0  0
  180.5700  175.5360  139.7600 C   0  0  0  0  0  1  0  0  0  0  0  0
  180.4340  175.9370  138.3040 C   0  0  1  0  0  3  0  0  0  0  0  0
  183.0590  180.4590  138.7180 C   0  0  0  0  0  1  0  0  0  0  0  0
  182.9570  179.4880  139.8020 N   0  0  0  0  0  0  0  0  0  0  0  0
  184.1730  178.6950  139.8180 C   0  0  0  0  0  1  0  0  0  0  0  0
  182.9500  178.5510  143.2960 C   0  0  0  0  0  2  0  0  0  0  0  0
  183.7630  179.5420  144.1070 C   0  0  1  0  0  3  0  0  0  0  0  0
  183.4930  179.3760  145.4660 O   0  0  0  0  0  1  0  0  0  0  0  0
  185.2390  179.3130  143.8410 C   0  0  0  0  0  2  0  0  0  0  0  0
  188.4260  177.5700  146.2880 C   0  0  0  0  0  0  0  0  0  0  0  0
  189.0480  177.4970  144.9620 C   0  0  0  0  0  3  0  0  0  0  0  0
  189.4620  177.4720  147.6940 Cl  0  0  0  0  0  0  0  0  0  0  0  0
  185.6140  177.8670  144.1180 C   0  0  1  0  0  3  0  0  0  0  0  0
  188.3310  177.5710  143.7170 C   0  0  0  0  0  3  0  0  0  0  0  0
  187.0100  177.7250  146.4960 C   0  0  0  0  0  3  0  0  0  0  0  0
  187.0030  177.7150  143.9780 C   0  0  0  0  0  0  0  0  0  0  0  0
  186.3780  177.7870  145.2940 C   0  0  0  0  0  0  0  0  0  0  0  0
  1  7  1  6  0  0  0
  1  4  1  0  0  0  0
  1  2  1  0  0  0  0
  2 19  1  1  0  0  0
  2  3  1  0  0  0  0
  4  5  1  0  0  0  0
  5  3  1  0  0  0  0
  7  6  1  1  0  0  0
  8 17  1  6  0  0  0
  8  7  1  0  0  0  0
 10 11  1  0  0  0  0
 10 15  1  0  0  0  0
 11  8  1  1  0  0  0
 12 15  1  0  0  0  0
 13  9  1  6  0  0  0
 13 12  1  0  0  0  0
 13 11  1  0  0  0  0
 15 14  1  1  0  0  0
 16 17  1  0  0  0  0
 17 18  1  0  0  0  0
 19 20  1  0  0  0  0
 20 21  1  1  0  0  0
 22 20  1  0  0  0  0
 23 28  1  0  0  0  0
 23 25  1  0  0  0  0
 24 23  2  0  0  0  0
 26 22  1  6  0  0  0
 26 30  1  0  0  0  0
 27 29  2  0  0  0  0
 27 24  1  0  0  0  0
 29 26  1  0  0  0  0
 29 30  1  0  0  0  0
 30 28  2  0  0  0  0
M  END
>  <MODEL>
6

>  <REMARK>
 VINA RESULT:      -6.6      2.312      3.636
  Name = 
  8 active torsions:
  status: ('A' for Active; 'I' for Inactive)
    1  A    between atoms: C_3  and  C_11
    2  A    between atoms: C_3  and  C_19
    3  A    between atoms: N_4  and  C_13
    4  A    between atoms: C_7  and  C_30
    5  A    between atoms: C_8  and  C_13
    6  A    between atoms: C_10  and  C_25
    7  A    between atoms: C_11  and  C_25
    8  A    between atoms: C_13  and  C_30
                            x       y       z     vdW  Elec       q    Type
                         _______ _______ _______ _____ _____    ______ ____

>  <TORSDO>
F 8

$$$$
=
 OpenBabel11052412253D

 30 33  0  0  1  0  0  0  0  0999 V2000
  191.1270  176.0430  137.1740 C   0  0  1  0  0  3  0  0  0  0  0  0
  191.6050  176.1770  138.6110 C   0  0  1  0  0  3  0  0  0  0  0  0
  192.9510  176.7310  138.5900 N   0  0  0  0  0  2  0  0  0  0  0  0
  192.3410  176.3030  136.3170 C   0  0  0  0  0  2  0  0  0  0  0  0
  193.4970  176.3880  137.2860 C   0  0  0  0  0  2  0  0  0  0  0  0
  190.4420  173.8690  138.0250 O   0  0  0  0  0  1  0  0  0  0  0  0
  190.5520  174.6540  136.8720 C   0  0  1  0  0  3  0  0  0  0  0  0
  189.2270  174.7180  136.0990 C   0  0  1  0  0  3  0  0  0  0  0  0
  187.7420  177.9310  134.5960 C   0  0  0  0  0  1  0  0  0  0  0  0
  187.5860  176.4590  137.5520 S   0  0  0  0  0  0  0  0  0  0  0  0
  188.6350  176.1530  136.0960 C   0  0  2  0  0  3  0  0  0  0  0  0
  186.1280  175.7610  135.0120 S   0  0  0  0  0  0  0  0  0  0  0  0
  187.8100  176.4380  134.8540 C   0  0  1  0  0  3  0  0  0  0  0  0
  186.1860  174.1300  137.2110 C   0  0  0  0  0  1  0  0  0  0  0  0
  186.1600  175.5960  136.8260 C   0  0  1  0  0  3  0  0  0  0  0  0
  188.4680  172.9370  134.6080 C   0  0  0  0  0  1  0  0  0  0  0  0
  189.3560  174.0830  134.7720 N   0  0  0  0  0  0  0  0  0  0  0  0
  190.7240  173.6280  134.5940 C   0  0  0  0  0  1  0  0  0  0  0  0
  190.6750  177.0980  139.3810 C   0  0  0  0  0  2  0  0  0  0  0  0
  190.7890  176.8310  140.8700 C   0  0  1  0  0  3  0  0  0  0  0  0
  191.8580  177.5570  141.4010 O   0  0  0  0  0  1  0  0  0  0  0  0
  189.4970  177.2410  141.5500 C   0  0  0  0  0  2  0  0  0  0  0  0
  187.4260  177.7430  145.3760 C   0  0  0  0  0  0  0  0  0  0  0  0
  188.8180  177.7350  145.8350 C   0  0  0  0  0  3  0  0  0  0  0  0
  186.2100  178.4200  146.4360 Cl  0  0  0  0  0  0  0  0  0  0  0  0
  189.1170  176.2360  142.6240 C   0  0  1  0  0  3  0  0  0  0  0  0
  189.9260  177.2200  145.0750 C   0  0  0  0  0  3  0  0  0  0  0  0
  187.0040  177.2310  144.0980 C   0  0  0  0  0  3  0  0  0  0  0  0
  189.4670  176.7510  143.8830 C   0  0  0  0  0  0  0  0  0  0  0  0
  188.0840  176.7550  143.4210 C   0  0  0  0  0  0  0  0  0  0  0  0
  1  7  1  1  0  0  0
  1  2  1  0  0  0  0
  2 19  1  1  0  0  0
  3  2  1  0  0  0  0
  4  1  1  0  0  0  0
  4  5  1  0  0  0  0
  5  3  1  0  0  0  0
  7  6  1  1  0  0  0
  8 17  1  6  0  0  0
  8  7  1  0  0  0  0
 11  8  1  6  0  0  0
 11 10  1  0  0  0  0
 12 15  1  0  0  0  0
 13  9  1  1  0  0  0
 13 12  1  0  0  0  0
 13 11  1  0  0  0  0
 15 14  1  6  0  0  0
 15 10  1  0  0  0  0
 16 17  1  0  0  0  0
 18 17  1  0  0  0  0
 19 20  1  0  0  0  0
 20 21  1  1  0  0  0
 20 22  1  0  0  0  0
 23 24  1  0  0  0  0
 23 25  1  0  0  0  0
 26 22  1  6  0  0  0
 26 30  1  0  0  0  0
 26 29  1  0  0  0  0
 27 24  2  0  0  0  0
 28 23  2  0  0  0  0
 29 27  1  0  0  0  0
 30 29  2  0  0  0  0
 30 28  1  0  0  0  0
M  END
>  <MODEL>
7

>  <REMARK>
 VINA RESULT:      -6.5      5.589      7.143
  Name = 
  8 active torsions:
  status: ('A' for Active; 'I' for Inactive)
    1  A    between atoms: C_3  and  C_11
    2  A    between atoms: C_3  and  C_19
    3  A    between atoms: N_4  and  C_13
    4  A    between atoms: C_7  and  C_30
    5  A    between atoms: C_8  and  C_13
    6  A    between atoms: C_10  and  C_25
    7  A    between atoms: C_11  and  C_25
    8  A    between atoms: C_13  and  C_30
                            x       y       z     vdW  Elec       q    Type
                         _______ _______ _______ _____ _____    ______ ____

>  <TORSDO>
F 8

$$$$
=
 OpenBabel11052412253D

 30 33  0  0  1  0  0  0  0  0999 V2000
  189.2720  177.0890  139.9060 C   0  0  1  0  0  3  0  0  0  0  0  0
  189.5720  177.6290  141.2950 C   0  0  1  0  0  3  0  0  0  0  0  0
  188.3410  178.1830  141.8410 N   0  0  0  0  0  2  0  0  0  0  0  0
  187.8840  177.5780  139.5720 C   0  0  0  0  0  2  0  0  0  0  0  0
  187.5220  178.5280  140.6900 C   0  0  0  0  0  2  0  0  0  0  0  0
  191.6000  177.3800  139.2600 O   0  0  0  0  0  1  0  0  0  0  0  0
  190.2750  177.5780  138.8550 C   0  0  1  0  0  3  0  0  0  0  0  0
  190.0100  176.9840  137.4640 C   0  0  1  0  0  3  0  0  0  0  0  0
  188.1660  173.6890  136.7330 C   0  0  0  0  0  1  0  0  0  0  0  0
  191.2590  174.4820  137.5950 S   0  0  0  0  0  0  0  0  0  0  0  0
  189.7240  175.4600  137.5390 C   0  0  2  0  0  3  0  0  0  0  0  0
  189.9340  174.6850  134.8980 S   0  0  0  0  0  0  0  0  0  0  0  0
  188.8950  174.9670  136.3650 C   0  0  1  0  0  3  0  0  0  0  0  0
  192.3590  175.8210  135.4740 C   0  0  0  0  0  1  0  0  0  0  0  0
  191.5160  174.6030  135.7990 C   0  0  1  0  0  3  0  0  0  0  0  0
  189.2440  177.7910  135.2890 C   0  0  0  0  0  1  0  0  0  0  0  0
  189.0080  177.7810  136.7290 N   0  0  0  0  0  0  0  0  0  0  0  0
  189.0490  179.1530  137.2050 C   0  0  0  0  0  1  0  0  0  0  0  0
  190.0790  176.5100  142.1860 C   0  0  0  0  0  2  0  0  0  0  0  0
  191.1050  177.0440  143.1670 C   0  0  1  0  0  3  0  0  0  0  0  0
  191.9480  177.9520  142.5230 O   0  0  0  0  0  1  0  0  0  0  0  0
  190.3890  177.7290  144.3160 C   0  0  0  0  0  2  0  0  0  0  0  0
  186.6690  178.0760  146.6010 C   0  0  0  0  0  0  0  0  0  0  0  0
  187.6500  178.2510  147.6760 C   0  0  0  0  0  3  0  0  0  0  0  0
  185.0320  178.6270  146.8780 Cl  0  0  0  0  0  0  0  0  0  0  0  0
  189.6260  176.7140  145.1510 C   0  0  1  0  0  3  0  0  0  0  0  0
  189.0310  177.8560  147.5950 C   0  0  0  0  0  3  0  0  0  0  0  0
  186.9790  177.4810  145.3270 C   0  0  0  0  0  3  0  0  0  0  0  0
  189.2630  177.3020  146.3730 C   0  0  0  0  0  0  0  0  0  0  0  0
  188.2910  177.1240  145.3000 C   0  0  0  0  0  0  0  0  0  0  0  0
  1  7  1  6  0  0  0
  1  2  1  0  0  0  0
  2  3  1  0  0  0  0
  2 19  1  1  0  0  0
  4  1  1  0  0  0  0
  4  5  1  0  0  0  0
  5  3  1  0  0  0  0
  7  6  1  1  0  0  0
  8 17  1  1  0  0  0
  8  7  1  0  0  0  0
 11  8  1  6  0  0  0
 11 10  1  0  0  0  0
 12 15  1  0  0  0  0
 12 13  1  0  0  0  0
 13  9  1  1  0  0  0
 13 11  1  0  0  0  0
 15 14  1  1  0  0  0
 15 10  1  0  0  0  0
 16 17  1  0  0  0  0
 17 18  1  0  0  0  0
 19 20  1  0  0  0  0
 20 21  1  6  0  0  0
 20 22  1  0  0  0  0
 23 25  1  0  0  0  0
 23 24  1  0  0  0  0
 26 22  1  6  0  0  0
 26 30  1  0  0  0  0
 26 29  1  0  0  0  0
 27 24  2  0  0  0  0
 28 23  2  0  0  0  0
 29 27  1  0  0  0  0
 30 28  1  0  0  0  0
 30 29  2  0  0  0  0
M  END
>  <MODEL>
8

>  <REMARK>
 VINA RESULT:      -6.4      5.359      6.932
  Name = 
  8 active torsions:
  status: ('A' for Active; 'I' for Inactive)
    1  A    between atoms: C_3  and  C_11
    2  A    between atoms: C_3  and  C_19
    3  A    between atoms: N_4  and  C_13
    4  A    between atoms: C_7  and  C_30
    5  A    between atoms: C_8  and  C_13
    6  A    between atoms: C_10  and  C_25
    7  A    between atoms: C_11  and  C_25
    8  A    between atoms: C_13  and  C_30
                            x       y       z     vdW  Elec       q    Type
                         _______ _______ _______ _____ _____    ______ ____

>  <TORSDO>
F 8

$$$$
=
 OpenBabel11052412253D

 30 33  0  0  1  0  0  0  0  0999 V2000
  184.4460  178.1380  141.0280 C   0  0  1  0  0  3  0  0  0  0  0  0
  185.6250  178.6860  141.8160 C   0  0  1  0  0  3  0  0  0  0  0  0
  185.1420  179.0910  143.1290 N   0  0  0  0  0  2  0  0  0  0  0  0
  183.2220  178.4750  141.8420 C   0  0  0  0  0  2  0  0  0  0  0  0
  183.7230  179.3610  142.9590 C   0  0  0  0  0  2  0  0  0  0  0  0
  184.8710  180.0460  139.5780 O   0  0  0  0  0  1  0  0  0  0  0  0
  184.3380  178.7520  139.6280 C   0  0  1  0  0  3  0  0  0  0  0  0
  184.9340  177.8500  138.5380 C   0  0  1  0  0  3  0  0  0  0  0  0
  183.9760  177.0170  134.9080 C   0  0  0  0  0  1  0  0  0  0  0  0
  182.2810  177.7430  137.6530 S   0  0  0  0  0  0  0  0  0  0  0  0
  184.0560  177.8420  137.2590 C   0  0  2  0  0  3  0  0  0  0  0  0
  183.5940  175.1480  136.8700 S   0  0  0  0  0  0  0  0  0  0  0  0
  184.3950  176.6900  136.3280 C   0  0  1  0  0  3  0  0  0  0  0  0
  182.6360  175.6520  139.3860 C   0  0  0  0  0  1  0  0  0  0  0  0
  182.3430  175.9460  137.9280 C   0  0  1  0  0  3  0  0  0  0  0  0
  186.6020  178.9030  137.0960 C   0  0  0  0  0  1  0  0  0  0  0  0
  186.3630  178.1510  138.3230 N   0  0  0  0  0  0  0  0  0  0  0  0
  187.1060  176.9050  138.2430 C   0  0  0  0  0  1  0  0  0  0  0  0
  186.6920  177.6160  141.9620 C   0  0  0  0  0  2  0  0  0  0  0  0
  188.0240  178.1330  141.4550 C   0  0  1  0  0  3  0  0  0  0  0  0
  187.8770  179.4370  140.9790 O   0  0  0  0  0  1  0  0  0  0  0  0
  189.0330  178.1060  142.5880 C   0  0  0  0  0  2  0  0  0  0  0  0
  188.9700  177.4630  146.9190 C   0  0  0  0  0  0  0  0  0  0  0  0
  190.3670  177.1260  146.6280 C   0  0  0  0  0  3  0  0  0  0  0  0
  188.5420  177.8610  148.5680 Cl  0  0  0  0  0  0  0  0  0  0  0  0
  188.8780  176.8390  143.4110 C   0  0  1  0  0  3  0  0  0  0  0  0
  190.8710  176.7850  145.3240 C   0  0  0  0  0  3  0  0  0  0  0  0
  187.9320  177.4920  145.9220 C   0  0  0  0  0  3  0  0  0  0  0  0
  189.8470  176.8280  144.4280 C   0  0  0  0  0  0  0  0  0  0  0  0
  188.4560  177.1620  144.7110 C   0  0  0  0  0  0  0  0  0  0  0  0
  1  7  1  6  0  0  0
  1  2  1  0  0  0  0
  1  4  1  0  0  0  0
  2 19  1  1  0  0  0
  2  3  1  0  0  0  0
  4  5  1  0  0  0  0
  5  3  1  0  0  0  0
  7  6  1  1  0  0  0
  8 17  1  6  0  0  0
  8  7  1  0  0  0  0
 10 15  1  0  0  0  0
 11 10  1  0  0  0  0
 11  8  1  1  0  0  0
 12 15  1  0  0  0  0
 13  9  1  6  0  0  0
 13 12  1  0  0  0  0
 13 11  1  0  0  0  0
 15 14  1  1  0  0  0
 16 17  1  0  0  0  0
 18 17  1  0  0  0  0
 20 21  1  1  0  0  0
 20 19  1  0  0  0  0
 20 22  1  0  0  0  0
 23 25  1  0  0  0  0
 24 23  1  0  0  0  0
 26 22  1  6  0  0  0
 26 29  1  0  0  0  0
 26 30  1  0  0  0  0
 27 24  2  0  0  0  0
 28 23  2  0  0  0  0
 29 30  2  0  0  0  0
 29 27  1  0  0  0  0
 30 28  1  0  0  0  0
M  END
>  <MODEL>
9

>  <REMARK>
 VINA RESULT:      -6.4      2.189      2.982
  Name = 
  8 active torsions:
  status: ('A' for Active; 'I' for Inactive)
    1  A    between atoms: C_3  and  C_11
    2  A    between atoms: C_3  and  C_19
    3  A    between atoms: N_4  and  C_13
    4  A    between atoms: C_7  and  C_30
    5  A    between atoms: C_8  and  C_13
    6  A    between atoms: C_10  and  C_25
    7  A    between atoms: C_11  and  C_25
    8  A    between atoms: C_13  and  C_30
                            x       y       z     vdW  Elec       q    Type
                         _______ _______ _______ _____ _____    ______ ____

>  <TORSDO>
F 8

$$$$
