=
 OpenBabel11052412503D

 25 28  0  0  1  0  0  0  0  0999 V2000
  186.9470  177.7220  145.7900 C   0  0  0  0  0  0  0  0  0  0  0  0
  188.2630  177.3040  145.5630 C   0  0  0  0  0  0  0  0  0  0  0  0
  187.4460  178.4090  148.0510 C   0  0  0  0  0  3  0  0  0  0  0  0
  185.7650  177.6900  144.8760 C   0  0  1  0  0  3  0  0  0  0  0  0
  183.8120  179.4920  143.8430 C   0  0  0  0  0  3  0  0  0  0  0  0
  188.7680  177.9810  147.8640 C   0  0  0  0  0  3  0  0  0  0  0  0
  184.7240  178.3230  145.6970 N   0  0  0  0  0  0  0  0  0  0  0  0
  183.6590  179.0560  145.0930 C   0  0  0  0  0  3  0  0  0  0  0  0
  185.0910  179.2520  143.1460 C   0  0  0  0  0  3  0  0  0  0  0  0
  186.5560  178.2500  146.9970 C   0  0  0  0  0  0  0  0  0  0  0  0
  185.1940  178.6360  146.9790 N   0  0  0  0  0  2  0  0  0  0  0  0
  185.9990  178.4690  143.6550 N   0  0  0  0  0  0  0  0  0  0  0  0
  189.1880  177.4220  146.6380 C   0  0  0  0  0  0  0  0  0  0  0  0
  190.5190  176.9130  146.5610 N   0  0  0  0  0  0  0  0  0  0  0  0
  191.7160  176.3160  147.2230 C   0  0  0  0  0  2  0  0  0  0  0  0
  191.7730  176.5020  145.8600 C   0  0  0  0  0  2  0  0  0  0  0  0
  188.6110  176.7990  144.2650 N   0  0  0  0  0  2  0  0  0  0  0  0
  189.3390  177.5490  143.2560 C   0  0  0  0  0  2  0  0  0  0  0  0
  189.8640  176.6050  142.1890 C   0  0  0  0  0  2  0  0  0  0  0  0
  190.3270  177.3680  141.0410 N   0  0  0  0  0  2  0  0  0  0  0  0
  189.4070  177.1080  139.9430 C   0  0  2  0  0  3  0  0  0  0  0  0
  190.1200  176.6940  138.8160 O   0  0  0  0  0  1  0  0  0  0  0  0
  188.6330  178.3420  139.6270 C   0  0  0  0  0  0  0  0  0  0  0  0
  187.4750  178.6280  140.3360 O   0  0  0  0  0  1  0  0  0  0  0  0
  189.0240  179.1280  138.7240 O   0  0  0  0  0  0  0  0  0  0  0  0
  1 10  1  0  0  0  0
  2  1  2  0  0  0  0
  2 13  1  0  0  0  0
  4 12  1  6  0  0  0
  4  7  1  0  0  0  0
  4  1  1  0  0  0  0
  5  8  2  0  0  0  0
  6  3  1  0  0  0  0
  7 11  1  0  0  0  0
  8  7  1  0  0  0  0
  9 12  2  0  0  0  0
  9  5  1  0  0  0  0
 10  3  2  0  0  0  0
 11 10  1  0  0  0  0
 13  6  2  0  0  0  0
 14 13  1  0  0  0  0
 14 15  1  0  0  0  0
 16 14  1  0  0  0  0
 16 15  1  0  0  0  0
 17  2  1  0  0  0  0
 18 17  1  0  0  0  0
 19 18  1  0  0  0  0
 20 19  1  0  0  0  0
 21 22  1  6  0  0  0
 21 20  1  0  0  0  0
 23 21  1  0  0  0  0
 23 24  1  0  0  0  0
 25 23  2  0  0  0  0
M  END
>  <MODEL>
1

>  <REMARK>
 VINA RESULT:      -8.3      0.000      0.000
  Name = 
  7 active torsions:
  status: ('A' for Active; 'I' for Inactive)
    1  A    between atoms: C_2  and  C_21
    2  A    between atoms: C_3  and  N_16
    3  A    between atoms: C_6  and  N_15
    4  A    between atoms: C_6  and  C_23
    5  A    between atoms: N_13  and  C_24
    6  A    between atoms: N_15  and  C_21
    7  A    between atoms: N_16  and  C_23
                            x       y       z     vdW  Elec       q    Type
                         _______ _______ _______ _____ _____    ______ ____

>  <TORSDO>
F 7

$$$$
=
 OpenBabel11052412503D

 25 28  0  0  1  0  0  0  0  0999 V2000
  188.2010  177.6970  144.5080 C   0  0  0  0  0  0  0  0  0  0  0  0
  186.9560  177.8570  143.8890 C   0  0  0  0  0  0  0  0  0  0  0  0
  187.2530  177.9700  146.7140 C   0  0  0  0  0  3  0  0  0  0  0  0
  189.5450  177.4570  143.9010 C   0  0  1  0  0  3  0  0  0  0  0  0
  191.6810  175.5810  144.1110 C   0  0  0  0  0  3  0  0  0  0  0  0
  185.9950  178.1550  146.1240 C   0  0  0  0  0  3  0  0  0  0  0  0
  190.3990  177.3240  145.0880 N   0  0  0  0  0  0  0  0  0  0  0  0
  191.5710  176.5090  145.0600 C   0  0  0  0  0  3  0  0  0  0  0  0
  190.5700  175.3870  143.1570 C   0  0  0  0  0  3  0  0  0  0  0  0
  188.3400  177.7580  145.8740 C   0  0  0  0  0  0  0  0  0  0  0  0
  189.6790  177.5300  146.2720 N   0  0  0  0  0  2  0  0  0  0  0  0
  189.5720  176.2220  143.1090 N   0  0  0  0  0  0  0  0  0  0  0  0
  185.8310  178.1110  144.7230 C   0  0  0  0  0  0  0  0  0  0  0  0
  184.5410  178.4140  144.1940 N   0  0  0  0  0  0  0  0  0  0  0  0
  183.1160  178.8040  144.4060 C   0  0  0  0  0  2  0  0  0  0  0  0
  183.5440  178.6490  143.1070 C   0  0  0  0  0  2  0  0  0  0  0  0
  186.8780  177.7410  142.4600 N   0  0  0  0  0  2  0  0  0  0  0  0
  187.1950  178.8090  141.5280 C   0  0  0  0  0  2  0  0  0  0  0  0
  188.3030  178.3640  140.5900 C   0  0  0  0  0  2  0  0  0  0  0  0
  187.8940  178.5700  139.2100 N   0  0  0  0  0  2  0  0  0  0  0  0
  189.1030  178.6950  138.4090 C   0  0  2  0  0  3  0  0  0  0  0  0
  188.8780  179.5730  137.3470 O   0  0  0  0  0  1  0  0  0  0  0  0
  189.5060  177.3590  137.8850 C   0  0  0  0  0  0  0  0  0  0  0  0
  188.5320  176.4250  137.5600 O   0  0  0  0  0  0  0  0  0  0  0  0
  190.7220  177.0730  137.7320 O   0  0  0  0  0  1  0  0  0  0  0  0
  1 10  1  0  0  0  0
  2  1  2  0  0  0  0
  2 13  1  0  0  0  0
  4 12  1  1  0  0  0
  4  1  1  0  0  0  0
  4  7  1  0  0  0  0
  5  8  2  0  0  0  0
  6  3  1  0  0  0  0
  7 11  1  0  0  0  0
  8  7  1  0  0  0  0
  9  5  1  0  0  0  0
 10 11  1  0  0  0  0
 10  3  2  0  0  0  0
 12  9  2  0  0  0  0
 13  6  2  0  0  0  0
 14 15  1  0  0  0  0
 14 13  1  0  0  0  0
 16 14  1  0  0  0  0
 16 15  1  0  0  0  0
 17  2  1  0  0  0  0
 18 17  1  0  0  0  0
 19 18  1  0  0  0  0
 20 19  1  0  0  0  0
 21 22  1  6  0  0  0
 21 20  1  0  0  0  0
 23 21  1  0  0  0  0
 24 23  2  0  0  0  0
 25 23  1  0  0  0  0
M  END
>  <MODEL>
2

>  <REMARK>
 VINA RESULT:      -7.6      1.620      4.945
  Name = 
  7 active torsions:
  status: ('A' for Active; 'I' for Inactive)
    1  A    between atoms: C_2  and  C_21
    2  A    between atoms: C_3  and  N_16
    3  A    between atoms: C_6  and  N_15
    4  A    between atoms: C_6  and  C_23
    5  A    between atoms: N_13  and  C_24
    6  A    between atoms: N_15  and  C_21
    7  A    between atoms: N_16  and  C_23
                            x       y       z     vdW  Elec       q    Type
                         _______ _______ _______ _____ _____    ______ ____

>  <TORSDO>
F 7

$$$$
=
 OpenBabel11052412503D

 25 28  0  0  1  0  0  0  0  0999 V2000
  188.5970  177.7650  144.8950 C   0  0  0  0  0  0  0  0  0  0  0  0
  187.9070  177.9650  143.6950 C   0  0  0  0  0  0  0  0  0  0  0  0
  186.5480  177.5480  146.1570 C   0  0  0  0  0  3  0  0  0  0  0  0
  190.0680  177.7300  145.1560 C   0  0  1  0  0  3  0  0  0  0  0  0
  191.9900  175.9840  146.3330 C   0  0  0  0  0  3  0  0  0  0  0  0
  185.8260  177.7660  144.9750 C   0  0  0  0  0  3  0  0  0  0  0  0
  190.1200  177.4230  146.5910 N   0  0  0  0  0  0  0  0  0  0  0  0
  191.2190  176.7040  147.1480 C   0  0  0  0  0  3  0  0  0  0  0  0
  191.6520  175.9110  144.8970 C   0  0  0  0  0  3  0  0  0  0  0  0
  187.9350  177.5700  146.0840 C   0  0  0  0  0  0  0  0  0  0  0  0
  188.8380  177.3520  147.1520 N   0  0  0  0  0  2  0  0  0  0  0  0
  190.7330  176.6760  144.3820 N   0  0  0  0  0  0  0  0  0  0  0  0
  186.4850  177.9830  143.7460 C   0  0  0  0  0  0  0  0  0  0  0  0
  185.6820  178.3030  142.6100 N   0  0  0  0  0  0  0  0  0  0  0  0
  185.4970  179.0350  141.3220 C   0  0  0  0  0  2  0  0  0  0  0  0
  184.4820  178.1960  141.7260 C   0  0  0  0  0  2  0  0  0  0  0  0
  188.6610  178.1220  142.4840 N   0  0  0  0  0  2  0  0  0  0  0  0
  188.8680  177.0750  141.4990 C   0  0  0  0  0  2  0  0  0  0  0  0
  189.5410  177.6510  140.2650 C   0  0  0  0  0  2  0  0  0  0  0  0
  188.6940  178.6750  139.6760 N   0  0  0  0  0  2  0  0  0  0  0  0
  188.6490  178.4340  138.2410 C   0  0  2  0  0  3  0  0  0  0  0  0
  188.9510  179.6100  137.5530 O   0  0  0  0  0  1  0  0  0  0  0  0
  187.2940  177.9520  137.8500 C   0  0  0  0  0  0  0  0  0  0  0  0
  187.1090  176.6200  137.5080 O   0  0  0  0  0  0  0  0  0  0  0  0
  186.3150  178.7440  137.8310 O   0  0  0  0  0  1  0  0  0  0  0  0
  1  4  1  0  0  0  0
  1 10  1  0  0  0  0
  2 13  1  0  0  0  0
  2  1  2  0  0  0  0
  4 12  1  6  0  0  0
  4  7  1  0  0  0  0
  5  8  2  0  0  0  0
  6  3  1  0  0  0  0
  7  8  1  0  0  0  0
  7 11  1  0  0  0  0
  9  5  1  0  0  0  0
 10  3  2  0  0  0  0
 10 11  1  0  0  0  0
 12  9  2  0  0  0  0
 13  6  2  0  0  0  0
 14 13  1  0  0  0  0
 15 16  1  0  0  0  0
 15 14  1  0  0  0  0
 16 14  1  0  0  0  0
 17  2  1  0  0  0  0
 18 17  1  0  0  0  0
 19 18  1  0  0  0  0
 20 19  1  0  0  0  0
 21 22  1  6  0  0  0
 21 20  1  0  0  0  0
 23 21  1  0  0  0  0
 24 23  2  0  0  0  0
 25 23  1  0  0  0  0
M  END
>  <MODEL>
3

>  <REMARK>
 VINA RESULT:      -7.6      1.933      4.922
  Name = 
  7 active torsions:
  status: ('A' for Active; 'I' for Inactive)
    1  A    between atoms: C_2  and  C_21
    2  A    between atoms: C_3  and  N_16
    3  A    between atoms: C_6  and  N_15
    4  A    between atoms: C_6  and  C_23
    5  A    between atoms: N_13  and  C_24
    6  A    between atoms: N_15  and  C_21
    7  A    between atoms: N_16  and  C_23
                            x       y       z     vdW  Elec       q    Type
                         _______ _______ _______ _____ _____    ______ ____

>  <TORSDO>
F 7

$$$$
=
 OpenBabel11052412503D

 25 28  0  0  1  0  0  0  0  0999 V2000
  188.7080  177.7620  144.8670 C   0  0  0  0  0  0  0  0  0  0  0  0
  188.0550  177.9700  143.6470 C   0  0  0  0  0  0  0  0  0  0  0  0
  186.6210  177.5800  146.0710 C   0  0  0  0  0  3  0  0  0  0  0  0
  190.1700  177.7040  145.1680 C   0  0  1  0  0  3  0  0  0  0  0  0
  192.0300  175.9310  146.4020 C   0  0  0  0  0  3  0  0  0  0  0  0
  185.9360  177.8070  144.8690 C   0  0  0  0  0  3  0  0  0  0  0  0
  190.1760  177.4000  146.6050 N   0  0  0  0  0  0  0  0  0  0  0  0
  191.2480  176.6640  147.1930 C   0  0  0  0  0  3  0  0  0  0  0  0
  191.7320  175.8590  144.9570 C   0  0  0  0  0  3  0  0  0  0  0  0
  188.0100  177.5800  146.0370 C   0  0  0  0  0  0  0  0  0  0  0  0
  188.8780  177.3500  147.1300 N   0  0  0  0  0  2  0  0  0  0  0  0
  190.8390  176.6380  144.4150 N   0  0  0  0  0  0  0  0  0  0  0  0
  186.6320  178.0110  143.6590 C   0  0  0  0  0  0  0  0  0  0  0  0
  185.8670  178.3410  142.5000 N   0  0  0  0  0  0  0  0  0  0  0  0
  184.5470  178.4730  141.8160 C   0  0  0  0  0  2  0  0  0  0  0  0
  185.6680  178.8370  141.1040 C   0  0  0  0  0  2  0  0  0  0  0  0
  188.8450  178.1130  142.4580 N   0  0  0  0  0  2  0  0  0  0  0  0
  189.0870  177.0510  141.4960 C   0  0  0  0  0  2  0  0  0  0  0  0
  188.8220  177.5580  140.0890 C   0  0  0  0  0  2  0  0  0  0  0  0
  190.0760  177.9350  139.4570 N   0  0  0  0  0  2  0  0  0  0  0  0
  191.0350  176.8710  139.7190 C   0  0  2  0  0  3  0  0  0  0  0  0
  192.2300  177.4160  140.1930 O   0  0  0  0  0  1  0  0  0  0  0  0
  191.2920  176.1000  138.4700 C   0  0  0  0  0  0  0  0  0  0  0  0
  192.1500  176.6130  137.5080 O   0  0  0  0  0  0  0  0  0  0  0  0
  190.7380  174.9840  138.2830 O   0  0  0  0  0  1  0  0  0  0  0  0
  1  4  1  0  0  0  0
  1 10  1  0  0  0  0
  2 13  1  0  0  0  0
  2  1  2  0  0  0  0
  4 12  1  6  0  0  0
  4  7  1  0  0  0  0
  5  8  2  0  0  0  0
  6  3  1  0  0  0  0
  7 11  1  0  0  0  0
  7  8  1  0  0  0  0
  9  5  1  0  0  0  0
 10  3  2  0  0  0  0
 10 11  1  0  0  0  0
 12  9  2  0  0  0  0
 13  6  2  0  0  0  0
 14 13  1  0  0  0  0
 15 14  1  0  0  0  0
 16 15  1  0  0  0  0
 16 14  1  0  0  0  0
 17  2  1  0  0  0  0
 18 17  1  0  0  0  0
 19 18  1  0  0  0  0
 20 21  1  0  0  0  0
 20 19  1  0  0  0  0
 21 22  1  6  0  0  0
 23 21  1  0  0  0  0
 24 23  2  0  0  0  0
 25 23  1  0  0  0  0
M  END
>  <MODEL>
4

>  <REMARK>
 VINA RESULT:      -7.4      2.128      5.069
  Name = 
  7 active torsions:
  status: ('A' for Active; 'I' for Inactive)
    1  A    between atoms: C_2  and  C_21
    2  A    between atoms: C_3  and  N_16
    3  A    between atoms: C_6  and  N_15
    4  A    between atoms: C_6  and  C_23
    5  A    between atoms: N_13  and  C_24
    6  A    between atoms: N_15  and  C_21
    7  A    between atoms: N_16  and  C_23
                            x       y       z     vdW  Elec       q    Type
                         _______ _______ _______ _____ _____    ______ ____

>  <TORSDO>
F 7

$$$$
=
 OpenBabel11052412503D

 25 28  0  0  1  0  0  0  0  0999 V2000
  188.2650  177.6740  144.5000 C   0  0  0  0  0  0  0  0  0  0  0  0
  187.0350  177.8400  143.8520 C   0  0  0  0  0  0  0  0  0  0  0  0
  187.2720  177.9710  146.6830 C   0  0  0  0  0  3  0  0  0  0  0  0
  189.6190  177.4190  143.9240 C   0  0  1  0  0  3  0  0  0  0  0  0
  191.7360  175.5280  144.1930 C   0  0  0  0  0  3  0  0  0  0  0  0
  186.0280  178.1620  146.0640 C   0  0  0  0  0  3  0  0  0  0  0  0
  190.4470  177.2880  145.1300 N   0  0  0  0  0  0  0  0  0  0  0  0
  191.6130  176.4640  145.1330 C   0  0  0  0  0  3  0  0  0  0  0  0
  190.6440  175.3360  143.2170 C   0  0  0  0  0  3  0  0  0  0  0  0
  188.3740  177.7450  145.8680 C   0  0  0  0  0  0  0  0  0  0  0  0
  189.7030  177.5090  146.2970 N   0  0  0  0  0  2  0  0  0  0  0  0
  189.6530  176.1790  143.1410 N   0  0  0  0  0  0  0  0  0  0  0  0
  185.8950  178.1090  144.6600 C   0  0  0  0  0  0  0  0  0  0  0  0
  184.6180  178.4180  144.1020 N   0  0  0  0  0  0  0  0  0  0  0  0
  183.7290  178.5680  142.9130 C   0  0  0  0  0  2  0  0  0  0  0  0
  183.1690  178.7780  144.1530 C   0  0  0  0  0  2  0  0  0  0  0  0
  186.9870  177.7140  142.4240 N   0  0  0  0  0  2  0  0  0  0  0  0
  187.3590  178.7630  141.4900 C   0  0  0  0  0  2  0  0  0  0  0  0
  188.4600  178.2680  140.5690 C   0  0  0  0  0  2  0  0  0  0  0  0
  188.2350  178.7640  139.2210 N   0  0  0  0  0  2  0  0  0  0  0  0
  187.6860  177.6670  138.4370 C   0  0  2  0  0  3  0  0  0  0  0  0
  188.6030  177.2770  137.4600 O   0  0  0  0  0  1  0  0  0  0  0  0
  186.4110  178.0930  137.7920 C   0  0  0  0  0  0  0  0  0  0  0  0
  186.0890  177.6240  136.5270 O   0  0  0  0  0  0  0  0  0  0  0  0
  185.6220  178.8720  138.3900 O   0  0  0  0  0  1  0  0  0  0  0  0
  1 10  1  0  0  0  0
  2  1  2  0  0  0  0
  2 13  1  0  0  0  0
  4 12  1  1  0  0  0
  4  1  1  0  0  0  0
  4  7  1  0  0  0  0
  5  8  2  0  0  0  0
  6  3  1  0  0  0  0
  7  8  1  0  0  0  0
  7 11  1  0  0  0  0
  9  5  1  0  0  0  0
 10 11  1  0  0  0  0
 10  3  2  0  0  0  0
 12  9  2  0  0  0  0
 13  6  2  0  0  0  0
 14 16  1  0  0  0  0
 14 13  1  0  0  0  0
 15 14  1  0  0  0  0
 15 16  1  0  0  0  0
 17  2  1  0  0  0  0
 18 17  1  0  0  0  0
 19 18  1  0  0  0  0
 20 19  1  0  0  0  0
 21 22  1  6  0  0  0
 21 20  1  0  0  0  0
 23 25  1  0  0  0  0
 23 21  1  0  0  0  0
 24 23  2  0  0  0  0
M  END
>  <MODEL>
5

>  <REMARK>
 VINA RESULT:      -7.3      1.820      4.978
  Name = 
  7 active torsions:
  status: ('A' for Active; 'I' for Inactive)
    1  A    between atoms: C_2  and  C_21
    2  A    between atoms: C_3  and  N_16
    3  A    between atoms: C_6  and  N_15
    4  A    between atoms: C_6  and  C_23
    5  A    between atoms: N_13  and  C_24
    6  A    between atoms: N_15  and  C_21
    7  A    between atoms: N_16  and  C_23
                            x       y       z     vdW  Elec       q    Type
                         _______ _______ _______ _____ _____    ______ ____

>  <TORSDO>
F 7

$$$$
=
 OpenBabel11052412503D

 25 28  0  0  1  0  0  0  0  0999 V2000
  185.8130  177.9550  144.2060 C   0  0  0  0  0  0  0  0  0  0  0  0
  187.0000  177.7240  144.9090 C   0  0  0  0  0  0  0  0  0  0  0  0
  184.7100  178.8560  146.1580 C   0  0  0  0  0  3  0  0  0  0  0  0
  185.4860  177.6880  142.7730 C   0  0  1  0  0  3  0  0  0  0  0  0
  184.5060  179.1070  140.5020 C   0  0  0  0  0  3  0  0  0  0  0  0
  185.8780  178.6180  146.8970 C   0  0  0  0  0  3  0  0  0  0  0  0
  184.1170  178.2110  142.6670 N   0  0  0  0  0  0  0  0  0  0  0  0
  183.6270  178.7360  141.4330 C   0  0  0  0  0  3  0  0  0  0  0  0
  185.9500  179.0150  140.7950 C   0  0  0  0  0  3  0  0  0  0  0  0
  184.7070  178.4970  144.8160 C   0  0  0  0  0  0  0  0  0  0  0  0
  183.6420  178.6750  143.9010 N   0  0  0  0  0  2  0  0  0  0  0  0
  186.3830  178.4110  141.8650 N   0  0  0  0  0  0  0  0  0  0  0  0
  187.0200  178.0480  146.2950 C   0  0  0  0  0  0  0  0  0  0  0  0
  188.1310  177.7390  147.1370 N   0  0  0  0  0  0  0  0  0  0  0  0
  189.2330  176.8160  147.5360 C   0  0  0  0  0  2  0  0  0  0  0  0
  189.1310  178.0100  148.2130 C   0  0  0  0  0  2  0  0  0  0  0  0
  188.1280  177.1920  144.2000 N   0  0  0  0  0  2  0  0  0  0  0  0
  189.2440  177.9850  143.7120 C   0  0  0  0  0  2  0  0  0  0  0  0
  189.9300  177.2610  142.5680 C   0  0  0  0  0  2  0  0  0  0  0  0
  189.8280  178.0520  141.3520 N   0  0  0  0  0  2  0  0  0  0  0  0
  189.5700  177.1340  140.2530 C   0  0  2  0  0  3  0  0  0  0  0  0
  190.5490  176.1400  140.2260 O   0  0  0  0  0  1  0  0  0  0  0  0
  189.5690  177.8780  138.9610 C   0  0  0  0  0  0  0  0  0  0  0  0
  188.8800  179.0780  138.8570 O   0  0  0  0  0  1  0  0  0  0  0  0
  190.1920  177.4270  137.9630 O   0  0  0  0  0  0  0  0  0  0  0  0
  1 10  2  0  0  0  0
  1  2  1  0  0  0  0
  2 13  2  0  0  0  0
  3  6  2  0  0  0  0
  4 12  1  6  0  0  0
  4  1  1  0  0  0  0
  5  9  1  0  0  0  0
  5  8  2  0  0  0  0
  7  4  1  0  0  0  0
  7 11  1  0  0  0  0
  8  7  1  0  0  0  0
  9 12  2  0  0  0  0
 10  3  1  0  0  0  0
 11 10  1  0  0  0  0
 13  6  1  0  0  0  0
 13 14  1  0  0  0  0
 14 15  1  0  0  0  0
 14 16  1  0  0  0  0
 15 16  1  0  0  0  0
 17  2  1  0  0  0  0
 18 17  1  0  0  0  0
 19 18  1  0  0  0  0
 20 19  1  0  0  0  0
 21 22  1  6  0  0  0
 21 20  1  0  0  0  0
 23 21  1  0  0  0  0
 24 23  1  0  0  0  0
 25 23  2  0  0  0  0
M  END
>  <MODEL>
6

>  <REMARK>
 VINA RESULT:      -7.2      1.607      2.408
  Name = 
  7 active torsions:
  status: ('A' for Active; 'I' for Inactive)
    1  A    between atoms: C_2  and  C_21
    2  A    between atoms: C_3  and  N_16
    3  A    between atoms: C_6  and  N_15
    4  A    between atoms: C_6  and  C_23
    5  A    between atoms: N_13  and  C_24
    6  A    between atoms: N_15  and  C_21
    7  A    between atoms: N_16  and  C_23
                            x       y       z     vdW  Elec       q    Type
                         _______ _______ _______ _____ _____    ______ ____

>  <TORSDO>
F 7

$$$$
=
 OpenBabel11052412503D

 25 28  0  0  1  0  0  0  0  0999 V2000
  185.5960  178.1010  144.0170 C   0  0  0  0  0  0  0  0  0  0  0  0
  186.7310  177.9540  144.8210 C   0  0  0  0  0  0  0  0  0  0  0  0
  184.2340  178.7970  145.8870 C   0  0  0  0  0  3  0  0  0  0  0  0
  185.4290  177.8700  142.5500 C   0  0  1  0  0  3  0  0  0  0  0  0
  184.5210  179.2920  140.2510 C   0  0  0  0  0  3  0  0  0  0  0  0
  185.3480  178.6400  146.7250 C   0  0  0  0  0  3  0  0  0  0  0  0
  184.0300  178.2620  142.3340 N   0  0  0  0  0  0  0  0  0  0  0  0
  183.6040  178.7940  141.0800 C   0  0  0  0  0  3  0  0  0  0  0  0
  185.9350  179.3280  140.6770 C   0  0  0  0  0  3  0  0  0  0  0  0
  184.3900  178.5030  144.5390 C   0  0  0  0  0  0  0  0  0  0  0  0
  183.4000  178.6180  143.5330 N   0  0  0  0  0  2  0  0  0  0  0  0
  186.3280  178.7190  141.7600 N   0  0  0  0  0  0  0  0  0  0  0  0
  186.5920  178.2130  146.2140 C   0  0  0  0  0  0  0  0  0  0  0  0
  187.6470  177.9750  147.1450 N   0  0  0  0  0  0  0  0  0  0  0  0
  188.2950  178.2450  148.4620 C   0  0  0  0  0  2  0  0  0  0  0  0
  188.8830  177.3040  147.6480 C   0  0  0  0  0  2  0  0  0  0  0  0
  187.9680  177.5690  144.2030 N   0  0  0  0  0  2  0  0  0  0  0  0
  188.2310  176.2600  143.6290 C   0  0  0  0  0  2  0  0  0  0  0  0
  189.3570  176.3580  142.6150 C   0  0  0  0  0  2  0  0  0  0  0  0
  189.9330  177.6920  142.6460 N   0  0  0  0  0  2  0  0  0  0  0  0
  191.3540  177.5490  142.9290 C   0  0  2  0  0  3  0  0  0  0  0  0
  191.7040  176.1980  142.9240 O   0  0  0  0  0  1  0  0  0  0  0  0
  191.6700  178.1490  144.2560 C   0  0  0  0  0  0  0  0  0  0  0  0
  192.0580  179.4790  144.3360 O   0  0  0  0  0  0  0  0  0  0  0  0
  191.5840  177.4590  145.3060 O   0  0  0  0  0  1  0  0  0  0  0  0
  1 10  2  0  0  0  0
  1  2  1  0  0  0  0
  2 13  2  0  0  0  0
  3  6  2  0  0  0  0
  4 12  1  6  0  0  0
  4  1  1  0  0  0  0
  5  9  1  0  0  0  0
  5  8  2  0  0  0  0
  7  4  1  0  0  0  0
  7 11  1  0  0  0  0
  8  7  1  0  0  0  0
  9 12  2  0  0  0  0
 10  3  1  0  0  0  0
 11 10  1  0  0  0  0
 13  6  1  0  0  0  0
 13 14  1  0  0  0  0
 14 16  1  0  0  0  0
 14 15  1  0  0  0  0
 16 15  1  0  0  0  0
 17  2  1  0  0  0  0
 18 17  1  0  0  0  0
 19 20  1  0  0  0  0
 19 18  1  0  0  0  0
 20 21  1  0  0  0  0
 21 22  1  1  0  0  0
 21 23  1  0  0  0  0
 23 24  2  0  0  0  0
 23 25  1  0  0  0  0
M  END
>  <MODEL>
7

>  <REMARK>
 VINA RESULT:      -7.1      2.617      3.621
  Name = 
  7 active torsions:
  status: ('A' for Active; 'I' for Inactive)
    1  A    between atoms: C_2  and  C_21
    2  A    between atoms: C_3  and  N_16
    3  A    between atoms: C_6  and  N_15
    4  A    between atoms: C_6  and  C_23
    5  A    between atoms: N_13  and  C_24
    6  A    between atoms: N_15  and  C_21
    7  A    between atoms: N_16  and  C_23
                            x       y       z     vdW  Elec       q    Type
                         _______ _______ _______ _____ _____    ______ ____

>  <TORSDO>
F 7

$$$$
=
 OpenBabel11052412503D

 25 28  0  0  1  0  0  0  0  0999 V2000
  188.9440  177.3060  144.6820 C   0  0  0  0  0  0  0  0  0  0  0  0
  189.1270  177.3120  143.2950 C   0  0  0  0  0  0  0  0  0  0  0  0
  191.3180  177.4560  145.1010 C   0  0  0  0  0  3  0  0  0  0  0  0
  187.6810  177.2260  145.4770 C   0  0  1  0  0  3  0  0  0  0  0  0
  186.3520  178.6870  147.5340 C   0  0  0  0  0  3  0  0  0  0  0  0
  191.5380  177.4430  143.7170 C   0  0  0  0  0  3  0  0  0  0  0  0
  188.1780  177.3280  146.8550 N   0  0  0  0  0  0  0  0  0  0  0  0
  187.3720  177.9040  147.8840 C   0  0  0  0  0  3  0  0  0  0  0  0
  186.1210  178.9760  146.1040 C   0  0  0  0  0  3  0  0  0  0  0  0
  190.0070  177.3700  145.5510 C   0  0  0  0  0  0  0  0  0  0  0  0
  189.5770  177.3900  146.8990 N   0  0  0  0  0  2  0  0  0  0  0  0
  186.7750  178.3400  145.1740 N   0  0  0  0  0  0  0  0  0  0  0  0
  190.4630  177.3630  142.8070 C   0  0  0  0  0  0  0  0  0  0  0  0
  190.7750  177.2470  141.4180 N   0  0  0  0  0  0  0  0  0  0  0  0
  191.6990  177.5010  140.2750 C   0  0  0  0  0  2  0  0  0  0  0  0
  190.5470  176.7930  140.0130 C   0  0  0  0  0  2  0  0  0  0  0  0
  187.9700  177.2820  142.4470 N   0  0  0  0  0  2  0  0  0  0  0  0
  187.5090  178.4010  141.6420 C   0  0  0  0  0  2  0  0  0  0  0  0
  185.9930  178.4730  141.6780 C   0  0  0  0  0  2  0  0  0  0  0  0
  185.5180  179.3800  140.6450 N   0  0  0  0  0  2  0  0  0  0  0  0
  185.1900  178.5780  139.4760 C   0  0  2  0  0  3  0  0  0  0  0  0
  186.2380  178.6330  138.5550 O   0  0  0  0  0  1  0  0  0  0  0  0
  183.9370  179.0850  138.8480 C   0  0  0  0  0  0  0  0  0  0  0  0
  183.5200  180.3850  139.0960 O   0  0  0  0  0  1  0  0  0  0  0  0
  183.2560  178.3440  138.0910 O   0  0  0  0  0  0  0  0  0  0  0  0
  1 10  1  0  0  0  0
  2  1  2  0  0  0  0
  3 10  2  0  0  0  0
  4  1  1  6  0  0  0
  4  7  1  0  0  0  0
  5  8  2  0  0  0  0
  6  3  1  0  0  0  0
  7 11  1  0  0  0  0
  7  8  1  0  0  0  0
  9  5  1  0  0  0  0
 10 11  1  0  0  0  0
 12  4  1  0  0  0  0
 12  9  2  0  0  0  0
 13  2  1  0  0  0  0
 13  6  2  0  0  0  0
 14 13  1  0  0  0  0
 15 14  1  0  0  0  0
 16 15  1  0  0  0  0
 16 14  1  0  0  0  0
 17  2  1  0  0  0  0
 18 19  1  0  0  0  0
 18 17  1  0  0  0  0
 20 19  1  0  0  0  0
 21 22  1  6  0  0  0
 21 20  1  0  0  0  0
 23 24  1  0  0  0  0
 23 21  1  0  0  0  0
 25 23  2  0  0  0  0
M  END
>  <MODEL>
8

>  <REMARK>
 VINA RESULT:      -7.0      2.313      4.352
  Name = 
  7 active torsions:
  status: ('A' for Active; 'I' for Inactive)
    1  A    between atoms: C_2  and  C_21
    2  A    between atoms: C_3  and  N_16
    3  A    between atoms: C_6  and  N_15
    4  A    between atoms: C_6  and  C_23
    5  A    between atoms: N_13  and  C_24
    6  A    between atoms: N_15  and  C_21
    7  A    between atoms: N_16  and  C_23
                            x       y       z     vdW  Elec       q    Type
                         _______ _______ _______ _____ _____    ______ ____

>  <TORSDO>
F 7

$$$$
=
 OpenBabel11052412503D

 25 28  0  0  1  0  0  0  0  0999 V2000
  185.8380  178.5100  144.6300 C   0  0  0  0  0  0  0  0  0  0  0  0
  185.6590  178.2530  143.2660 C   0  0  0  0  0  0  0  0  0  0  0  0
  183.4720  178.8560  144.9790 C   0  0  0  0  0  3  0  0  0  0  0  0
  187.0930  178.5340  145.4400 C   0  0  1  0  0  3  0  0  0  0  0  0
  188.1400  177.3210  147.7970 C   0  0  0  0  0  3  0  0  0  0  0  0
  183.2610  178.6230  143.6130 C   0  0  0  0  0  3  0  0  0  0  0  0
  186.5820  178.8030  146.7910 N   0  0  0  0  0  0  0  0  0  0  0  0
  187.2720  178.3200  147.9440 C   0  0  0  0  0  3  0  0  0  0  0  0
  188.3210  176.7100  146.4650 C   0  0  0  0  0  3  0  0  0  0  0  0
  184.7780  178.8080  145.4520 C   0  0  0  0  0  0  0  0  0  0  0  0
  185.1940  178.9910  146.7930 N   0  0  0  0  0  2  0  0  0  0  0  0
  187.7910  177.2450  145.4020 N   0  0  0  0  0  0  0  0  0  0  0  0
  184.3360  178.3320  142.7470 C   0  0  0  0  0  0  0  0  0  0  0  0
  184.0540  178.2130  141.3530 N   0  0  0  0  0  0  0  0  0  0  0  0
  183.2590  177.6140  140.2410 C   0  0  0  0  0  2  0  0  0  0  0  0
  184.2110  178.5490  139.9060 C   0  0  0  0  0  2  0  0  0  0  0  0
  186.8060  177.9100  142.4740 N   0  0  0  0  0  2  0  0  0  0  0  0
  187.6260  178.8680  141.7530 C   0  0  0  0  0  2  0  0  0  0  0  0
  188.3080  178.1850  140.5810 C   0  0  0  0  0  2  0  0  0  0  0  0
  189.0080  176.9970  141.0420 N   0  0  0  0  0  2  0  0  0  0  0  0
  190.2620  177.4320  141.6390 C   0  0  2  0  0  3  0  0  0  0  0  0
  191.2880  177.3550  140.6950 O   0  0  0  0  0  1  0  0  0  0  0  0
  190.5900  176.5750  142.8140 C   0  0  0  0  0  0  0  0  0  0  0  0
  191.2280  177.1290  143.9140 O   0  0  0  0  0  1  0  0  0  0  0  0
  190.2880  175.3520  142.8160 O   0  0  0  0  0  0  0  0  0  0  0  0
  1 10  1  0  0  0  0
  2  1  2  0  0  0  0
  3 10  2  0  0  0  0
  4  1  1  6  0  0  0
  4  7  1  0  0  0  0
  5  8  2  0  0  0  0
  6  3  1  0  0  0  0
  7 11  1  0  0  0  0
  7  8  1  0  0  0  0
  9  5  1  0  0  0  0
 10 11  1  0  0  0  0
 12  4  1  0  0  0  0
 12  9  2  0  0  0  0
 13  2  1  0  0  0  0
 13  6  2  0  0  0  0
 14 13  1  0  0  0  0
 15 14  1  0  0  0  0
 16 15  1  0  0  0  0
 16 14  1  0  0  0  0
 17  2  1  0  0  0  0
 18 17  1  0  0  0  0
 19 20  1  0  0  0  0
 19 18  1  0  0  0  0
 20 21  1  0  0  0  0
 21 22  1  6  0  0  0
 21 23  1  0  0  0  0
 23 25  2  0  0  0  0
 23 24  1  0  0  0  0
M  END
>  <MODEL>
9

>  <REMARK>
 VINA RESULT:      -7.0      2.122      5.065
  Name = 
  7 active torsions:
  status: ('A' for Active; 'I' for Inactive)
    1  A    between atoms: C_2  and  C_21
    2  A    between atoms: C_3  and  N_16
    3  A    between atoms: C_6  and  N_15
    4  A    between atoms: C_6  and  C_23
    5  A    between atoms: N_13  and  C_24
    6  A    between atoms: N_15  and  C_21
    7  A    between atoms: N_16  and  C_23
                            x       y       z     vdW  Elec       q    Type
                         _______ _______ _______ _____ _____    ______ ____

>  <TORSDO>
F 7

$$$$
