=
 OpenBabel11052413473D

 27 30  0  0  1  0  0  0  0  0999 V2000
  189.1530  178.1250  143.5220 C   0  0  1  0  0  3  0  0  0  0  0  0
  189.6540  177.9180  142.1570 N   0  0  0  0  0  0  0  0  0  0  0  0
  187.7590  178.9200  141.2150 O   0  0  0  0  0  0  0  0  0  0  0  0
  190.7440  176.3900  138.2440 C   0  0  0  0  0  2  0  0  0  0  0  0
  189.7820  176.7700  137.1070 C   0  0  0  0  0  2  0  0  0  0  0  0
  191.0160  177.4290  141.9220 C   0  0  0  0  0  2  0  0  0  0  0  0
  188.5710  178.4810  138.5290 C   0  0  1  0  0  3  0  0  0  0  0  0
  187.2180  178.2710  138.3320 F   0  0  0  0  0  0  0  0  0  0  0  0
  189.0620  177.6000  139.6930 C   0  0  1  0  0  3  0  0  0  0  0  0
  189.3250  178.2250  137.2150 C   0  0  0  0  0  2  0  0  0  0  0  0
  190.5380  177.2260  139.5120 C   0  0  1  0  0  3  0  0  0  0  0  0
  188.7960  178.2240  141.0400 C   0  0  0  0  0  0  0  0  0  0  0  0
  191.0620  176.4850  140.7300 C   0  0  0  0  0  2  0  0  0  0  0  0
  187.8840  177.3200  143.8350 C   0  0  0  0  0  2  0  0  0  0  0  0
  184.1540  178.5110  146.2710 C   0  0  0  0  0  3  0  0  0  0  0  0
  183.7060  178.8330  145.0510 C   0  0  0  0  0  3  0  0  0  0  0  0
  186.7840  178.1570  144.4710 C   0  0  1  0  0  3  0  0  0  0  0  0
  185.6040  178.5570  146.6540 C   0  0  0  0  0  2  0  0  0  0  0  0
  184.6030  179.2760  143.9330 C   0  0  0  0  0  2  0  0  0  0  0  0
  185.5780  178.1730  143.5420 C   0  0  0  0  0  2  0  0  0  0  0  0
  186.4210  177.5690  145.8320 C   0  0  0  0  0  2  0  0  0  0  0  0
  190.2340  178.1040  144.6140 C   0  0  0  0  0  2  0  0  0  0  0  0
  191.0330  176.8710  147.6640 O   0  0  0  0  0  0  0  0  0  0  0  0
  191.5630  176.2750  145.5900 C   0  0  0  0  0  3  0  0  0  0  0  0
  191.9840  176.3050  146.8390 C   0  0  0  0  0  3  0  0  0  0  0  0
  189.8820  177.2570  146.9360 C   0  0  0  0  0  2  0  0  0  0  0  0
  190.1940  176.8610  145.4950 C   0  0  1  0  0  3  0  0  0  0  0  0
  1 14  1  1  0  0  0
  1 22  1  0  0  0  0
  2  1  1  0  0  0  0
  5 10  1  0  0  0  0
  5  4  1  0  0  0  0
  6  2  1  0  0  0  0
  7  8  1  6  0  0  0
  7  9  1  0  0  0  0
  9 12  1  1  0  0  0
 10  7  1  0  0  0  0
 11  4  1  6  0  0  0
 11  9  1  0  0  0  0
 11 13  1  0  0  0  0
 12  3  2  0  0  0  0
 12  2  1  0  0  0  0
 13  6  1  0  0  0  0
 15 18  1  0  0  0  0
 16 15  2  0  0  0  0
 17 14  1  6  0  0  0
 17 21  1  0  0  0  0
 19 16  1  0  0  0  0
 20 19  1  0  0  0  0
 20 17  1  0  0  0  0
 21 18  1  0  0  0  0
 24 25  2  0  0  0  0
 25 23  1  0  0  0  0
 26 23  1  0  0  0  0
 27 22  1  6  0  0  0
 27 24  1  0  0  0  0
 27 26  1  0  0  0  0
M  END
>  <MODEL>
1

>  <REMARK>
 VINA RESULT:      -9.2      0.000      0.000
  Name = 
  5 active torsions:
  status: ('A' for Active; 'I' for Inactive)
    1  A    between atoms: C_1  and  C_15
    2  A    between atoms: C_1  and  C_18
    3  A    between atoms: N_2  and  C_15
    4  A    between atoms: C_9  and  C_15
    5  A    between atoms: C_9  and  C_27
                            x       y       z     vdW  Elec       q    Type
                         _______ _______ _______ _____ _____    ______ ____

>  <TORSDO>
F 5

$$$$
=
 OpenBabel11052413473D

 27 30  0  0  1  0  0  0  0  0999 V2000
  188.6170  178.1500  142.1170 C   0  0  1  0  0  3  0  0  0  0  0  0
  188.8980  177.9140  140.6950 N   0  0  0  0  0  0  0  0  0  0  0  0
  186.8300  178.8000  140.0480 O   0  0  0  0  0  0  0  0  0  0  0  0
  189.4080  176.2890  136.7030 C   0  0  0  0  0  2  0  0  0  0  0  0
  188.2570  176.5850  135.7290 C   0  0  0  0  0  2  0  0  0  0  0  0
  190.2260  177.4740  140.2540 C   0  0  0  0  0  2  0  0  0  0  0  0
  187.2140  178.2960  137.2790 C   0  0  1  0  0  3  0  0  0  0  0  0
  185.8590  178.0220  137.3130 F   0  0  0  0  0  0  0  0  0  0  0  0
  187.9290  177.4800  138.3720 C   0  0  1  0  0  3  0  0  0  0  0  0
  187.7560  178.0230  135.8670 C   0  0  0  0  0  2  0  0  0  0  0  0
  189.3720  177.1610  137.9630 C   0  0  1  0  0  3  0  0  0  0  0  0
  187.8570  178.1420  139.7250 C   0  0  0  0  0  0  0  0  0  0  0  0
  190.1220  176.4890  139.0990 C   0  0  0  0  0  2  0  0  0  0  0  0
  187.3910  177.3830  142.6320 C   0  0  0  0  0  2  0  0  0  0  0  0
  184.4830  178.5260  146.0230 C   0  0  0  0  0  3  0  0  0  0  0  0
  183.7200  178.8770  144.9800 C   0  0  0  0  0  3  0  0  0  0  0  0
  186.5150  178.2080  143.5640 C   0  0  1  0  0  3  0  0  0  0  0  0
  185.9830  178.5610  145.9940 C   0  0  0  0  0  2  0  0  0  0  0  0
  184.2790  179.3430  143.6680 C   0  0  0  0  0  2  0  0  0  0  0  0
  185.1000  178.2470  143.0010 C   0  0  0  0  0  2  0  0  0  0  0  0
  186.5350  177.5900  144.9590 C   0  0  0  0  0  2  0  0  0  0  0  0
  189.8510  178.1130  143.0310 C   0  0  0  0  0  2  0  0  0  0  0  0
  191.7620  176.4310  145.2640 O   0  0  0  0  0  0  0  0  0  0  0  0
  190.7890  175.8580  143.3500 C   0  0  0  0  0  3  0  0  0  0  0  0
  191.8220  175.6350  144.1370 C   0  0  0  0  0  3  0  0  0  0  0  0
  190.6140  177.2590  145.2500 C   0  0  0  0  0  2  0  0  0  0  0  0
  189.9010  176.8980  143.9490 C   0  0  1  0  0  3  0  0  0  0  0  0
  1 14  1  1  0  0  0
  1 22  1  0  0  0  0
  2  1  1  0  0  0  0
  5 10  1  0  0  0  0
  5  4  1  0  0  0  0
  6  2  1  0  0  0  0
  7  8  1  6  0  0  0
  7  9  1  0  0  0  0
  9 12  1  1  0  0  0
 10  7  1  0  0  0  0
 11  4  1  6  0  0  0
 11  9  1  0  0  0  0
 11 13  1  0  0  0  0
 12  3  2  0  0  0  0
 12  2  1  0  0  0  0
 13  6  1  0  0  0  0
 16 15  2  0  0  0  0
 17 14  1  6  0  0  0
 17 21  1  0  0  0  0
 18 15  1  0  0  0  0
 19 16  1  0  0  0  0
 20 17  1  0  0  0  0
 20 19  1  0  0  0  0
 21 18  1  0  0  0  0
 24 27  1  0  0  0  0
 24 25  2  0  0  0  0
 25 23  1  0  0  0  0
 26 23  1  0  0  0  0
 27 22  1  6  0  0  0
 27 26  1  0  0  0  0
M  END
>  <MODEL>
2

>  <REMARK>
 VINA RESULT:      -8.8      1.346      1.679
  Name = 
  5 active torsions:
  status: ('A' for Active; 'I' for Inactive)
    1  A    between atoms: C_1  and  C_15
    2  A    between atoms: C_1  and  C_18
    3  A    between atoms: N_2  and  C_15
    4  A    between atoms: C_9  and  C_15
    5  A    between atoms: C_9  and  C_27
                            x       y       z     vdW  Elec       q    Type
                         _______ _______ _______ _____ _____    ______ ____

>  <TORSDO>
F 5

$$$$
=
 OpenBabel11052413473D

 27 30  0  0  1  0  0  0  0  0999 V2000
  186.7780  178.5670  142.4340 C   0  0  1  0  0  3  0  0  0  0  0  0
  185.4140  178.6980  141.9050 N   0  0  0  0  0  0  0  0  0  0  0  0
  184.5350  179.1270  144.0320 O   0  0  0  0  0  0  0  0  0  0  0  0
  181.3880  178.0820  140.4070 C   0  0  0  0  0  2  0  0  0  0  0  0
  180.2730  178.2560  141.4490 C   0  0  0  0  0  2  0  0  0  0  0  0
  185.1670  178.7130  140.4600 C   0  0  0  0  0  2  0  0  0  0  0  0
  181.8420  179.2970  143.1430 C   0  0  1  0  0  3  0  0  0  0  0  0
  181.5810  178.6800  144.3530 F   0  0  0  0  0  0  0  0  0  0  0  0
  182.9130  178.4950  142.3810 C   0  0  1  0  0  3  0  0  0  0  0  0
  180.5310  179.4580  142.3580 C   0  0  0  0  0  2  0  0  0  0  0  0
  182.7360  178.6490  140.8650 C   0  0  1  0  0  3  0  0  0  0  0  0
  184.3130  178.8350  142.8250 C   0  0  0  0  0  0  0  0  0  0  0  0
  183.8770  177.9830  140.1160 C   0  0  0  0  0  2  0  0  0  0  0  0
  186.9610  177.3530  143.3550 C   0  0  0  0  0  2  0  0  0  0  0  0
  189.4240  176.9530  147.2330 C   0  0  0  0  0  3  0  0  0  0  0  0
  188.2260  177.1990  147.7820 C   0  0  0  0  0  3  0  0  0  0  0  0
  187.6460  177.6950  144.6710 C   0  0  1  0  0  3  0  0  0  0  0  0
  189.8340  177.4730  145.8870 C   0  0  0  0  0  2  0  0  0  0  0  0
  187.1640  178.0190  147.1120 C   0  0  0  0  0  2  0  0  0  0  0  0
  186.7000  177.3640  145.8170 C   0  0  0  0  0  2  0  0  0  0  0  0
  188.9470  176.9060  144.7860 C   0  0  0  0  0  2  0  0  0  0  0  0
  187.8930  178.7860  141.4000 C   0  0  0  0  0  2  0  0  0  0  0  0
  190.7680  177.5020  140.1570 O   0  0  0  0  0  0  0  0  0  0  0  0
  188.6550  177.4560  139.4720 C   0  0  0  0  0  3  0  0  0  0  0  0
  189.9110  177.4560  139.0750 C   0  0  0  0  0  3  0  0  0  0  0  0
  190.0550  177.5380  141.3790 C   0  0  0  0  0  2  0  0  0  0  0  0
  188.5870  177.5020  140.9630 C   0  0  1  0  0  3  0  0  0  0  0  0
  1 22  1  6  0  0  0
  1 14  1  0  0  0  0
  2  1  1  0  0  0  0
  2 12  1  0  0  0  0
  4 11  1  0  0  0  0
  4  5  1  0  0  0  0
  5 10  1  0  0  0  0
  6  2  1  0  0  0  0
  7  8  1  1  0  0  0
  9 12  1  1  0  0  0
  9  7  1  0  0  0  0
 10  7  1  0  0  0  0
 11 13  1  6  0  0  0
 11  9  1  0  0  0  0
 12  3  2  0  0  0  0
 13  6  1  0  0  0  0
 15 16  2  0  0  0  0
 17 14  1  6  0  0  0
 17 21  1  0  0  0  0
 17 20  1  0  0  0  0
 18 15  1  0  0  0  0
 19 16  1  0  0  0  0
 20 19  1  0  0  0  0
 21 18  1  0  0  0  0
 23 26  1  0  0  0  0
 24 27  1  0  0  0  0
 25 24  2  0  0  0  0
 25 23  1  0  0  0  0
 27 26  1  0  0  0  0
 27 22  1  6  0  0  0
M  END
>  <MODEL>
3

>  <REMARK>
 VINA RESULT:      -8.7      3.072      6.311
  Name = 
  5 active torsions:
  status: ('A' for Active; 'I' for Inactive)
    1  A    between atoms: C_1  and  C_15
    2  A    between atoms: C_1  and  C_18
    3  A    between atoms: N_2  and  C_15
    4  A    between atoms: C_9  and  C_15
    5  A    between atoms: C_9  and  C_27
                            x       y       z     vdW  Elec       q    Type
                         _______ _______ _______ _____ _____    ______ ____

>  <TORSDO>
F 5

$$$$
=
 OpenBabel11052413473D

 27 30  0  0  1  0  0  0  0  0999 V2000
  188.7950  178.2630  142.0580 C   0  0  1  0  0  3  0  0  0  0  0  0
  187.3740  178.1330  142.4040 N   0  0  0  0  0  0  0  0  0  0  0  0
  186.7010  178.8080  140.2660 O   0  0  0  0  0  0  0  0  0  0  0  0
  183.3030  178.6660  143.8120 C   0  0  0  0  0  2  0  0  0  0  0  0
  182.3030  179.1370  142.7450 C   0  0  0  0  0  2  0  0  0  0  0  0
  186.9610  177.5330  143.6770 C   0  0  0  0  0  2  0  0  0  0  0  0
  183.9230  178.6970  140.8480 C   0  0  1  0  0  3  0  0  0  0  0  0
  183.8780  179.8090  140.0260 F   0  0  0  0  0  0  0  0  0  0  0  0
  184.9860  178.9110  141.9410 C   0  0  1  0  0  3  0  0  0  0  0  0
  182.5200  178.4210  141.4110 C   0  0  0  0  0  2  0  0  0  0  0  0
  184.6180  178.1480  143.2190 C   0  0  1  0  0  3  0  0  0  0  0  0
  186.3780  178.5810  141.4640 C   0  0  0  0  0  0  0  0  0  0  0  0
  185.7360  178.2360  144.2430 C   0  0  0  0  0  2  0  0  0  0  0  0
  189.6670  178.7410  143.2280 C   0  0  0  0  0  2  0  0  0  0  0  0
  190.9190  176.5970  147.1140 C   0  0  0  0  0  3  0  0  0  0  0  0
  191.9160  176.1760  146.3240 C   0  0  0  0  0  3  0  0  0  0  0  0
  189.9820  177.6400  144.2300 C   0  0  1  0  0  3  0  0  0  0  0  0
  189.5490  176.9300  146.6020 C   0  0  0  0  0  2  0  0  0  0  0  0
  191.7730  175.9920  144.8420 C   0  0  0  0  0  2  0  0  0  0  0  0
  191.4680  177.3150  144.1520 C   0  0  0  0  0  2  0  0  0  0  0  0
  189.5950  178.1040  145.6310 C   0  0  0  0  0  2  0  0  0  0  0  0
  189.3680  177.0930  141.2420 C   0  0  0  0  0  2  0  0  0  0  0  0
  190.0550  175.9830  138.1180 O   0  0  0  0  0  0  0  0  0  0  0  0
  191.2790  176.9600  139.6950 C   0  0  0  0  0  3  0  0  0  0  0  0
  191.3060  176.1100  138.6880 C   0  0  0  0  0  3  0  0  0  0  0  0
  189.1030  176.7980  138.7770 C   0  0  0  0  0  2  0  0  0  0  0  0
  189.9000  177.5010  139.8740 C   0  0  1  0  0  3  0  0  0  0  0  0
  1 22  1  1  0  0  0
  1  2  1  0  0  0  0
  1 14  1  0  0  0  0
  2  6  1  0  0  0  0
  3 12  2  0  0  0  0
  5  4  1  0  0  0  0
  6 13  1  0  0  0  0
  7  8  1  6  0  0  0
  7 10  1  0  0  0  0
  7  9  1  0  0  0  0
  9 12  1  6  0  0  0
  9 11  1  0  0  0  0
 10  5  1  0  0  0  0
 11  4  1  1  0  0  0
 11 13  1  0  0  0  0
 12  2  1  0  0  0  0
 16 15  2  0  0  0  0
 17 14  1  6  0  0  0
 17 21  1  0  0  0  0
 18 15  1  0  0  0  0
 19 16  1  0  0  0  0
 20 17  1  0  0  0  0
 20 19  1  0  0  0  0
 21 18  1  0  0  0  0
 23 25  1  0  0  0  0
 23 26  1  0  0  0  0
 24 27  1  0  0  0  0
 25 24  2  0  0  0  0
 26 27  1  0  0  0  0
 27 22  1  1  0  0  0
M  END
>  <MODEL>
4

>  <REMARK>
 VINA RESULT:      -8.5      2.323      6.152
  Name = 
  5 active torsions:
  status: ('A' for Active; 'I' for Inactive)
    1  A    between atoms: C_1  and  C_15
    2  A    between atoms: C_1  and  C_18
    3  A    between atoms: N_2  and  C_15
    4  A    between atoms: C_9  and  C_15
    5  A    between atoms: C_9  and  C_27
                            x       y       z     vdW  Elec       q    Type
                         _______ _______ _______ _____ _____    ______ ____

>  <TORSDO>
F 5

$$$$
=
 OpenBabel11052413473D

 27 30  0  0  1  0  0  0  0  0999 V2000
  188.4700  177.9540  142.2020 C   0  0  1  0  0  3  0  0  0  0  0  0
  189.0300  177.7530  140.8590 N   0  0  0  0  0  0  0  0  0  0  0  0
  187.1170  178.6280  139.8330 O   0  0  0  0  0  0  0  0  0  0  0  0
  190.3450  176.2210  137.0170 C   0  0  0  0  0  2  0  0  0  0  0  0
  189.4040  176.5250  135.8400 C   0  0  0  0  0  2  0  0  0  0  0  0
  190.4260  177.3390  140.6810 C   0  0  0  0  0  2  0  0  0  0  0  0
  188.0480  178.1890  137.1850 C   0  0  1  0  0  3  0  0  0  0  0  0
  186.7170  177.8980  136.9460 F   0  0  0  0  0  0  0  0  0  0  0  0
  188.5460  177.3580  138.3830 C   0  0  1  0  0  3  0  0  0  0  0  0
  188.8620  177.9530  135.9030 C   0  0  0  0  0  2  0  0  0  0  0  0
  190.0470  177.0660  138.2610 C   0  0  1  0  0  3  0  0  0  0  0  0
  188.1980  177.9890  139.7070 C   0  0  0  0  0  0  0  0  0  0  0  0
  190.5680  176.3780  139.5100 C   0  0  0  0  0  2  0  0  0  0  0  0
  189.4910  178.4890  143.2150 C   0  0  0  0  0  2  0  0  0  0  0  0
  190.5880  176.7530  147.3440 C   0  0  0  0  0  3  0  0  0  0  0  0
  191.6810  176.3700  146.6700 C   0  0  0  0  0  3  0  0  0  0  0  0
  189.8140  177.4960  144.3230 C   0  0  1  0  0  3  0  0  0  0  0  0
  189.2420  176.9210  146.7010 C   0  0  0  0  0  2  0  0  0  0  0  0
  191.6800  176.0680  145.2010 C   0  0  0  0  0  2  0  0  0  0  0  0
  191.3230  177.3040  144.3870 C   0  0  0  0  0  2  0  0  0  0  0  0
  189.2700  178.0210  145.6480 C   0  0  0  0  0  2  0  0  0  0  0  0
  187.0940  178.6370  142.2280 C   0  0  0  0  0  2  0  0  0  0  0  0
  183.9980  178.7920  143.5910 O   0  0  0  0  0  0  0  0  0  0  0  0
  185.9970  178.2530  144.3990 C   0  0  0  0  0  3  0  0  0  0  0  0
  184.8270  178.7820  144.6950 C   0  0  0  0  0  3  0  0  0  0  0  0
  184.6400  178.2340  142.4590 C   0  0  0  0  0  2  0  0  0  0  0  0
  186.0260  177.8390  142.9650 C   0  0  1  0  0  3  0  0  0  0  0  0
  1 22  1  6  0  0  0
  1 14  1  0  0  0  0
  2  1  1  0  0  0  0
  5 10  1  0  0  0  0
  5  4  1  0  0  0  0
  6  2  1  0  0  0  0
  7  8  1  6  0  0  0
  7  9  1  0  0  0  0
  9 12  1  1  0  0  0
 10  7  1  0  0  0  0
 11  4  1  6  0  0  0
 11  9  1  0  0  0  0
 11 13  1  0  0  0  0
 12  3  2  0  0  0  0
 12  2  1  0  0  0  0
 13  6  1  0  0  0  0
 16 15  2  0  0  0  0
 17 14  1  6  0  0  0
 17 20  1  0  0  0  0
 17 21  1  0  0  0  0
 18 15  1  0  0  0  0
 19 16  1  0  0  0  0
 20 19  1  0  0  0  0
 21 18  1  0  0  0  0
 23 25  1  0  0  0  0
 24 25  2  0  0  0  0
 26 27  1  0  0  0  0
 26 23  1  0  0  0  0
 27 22  1  6  0  0  0
 27 24  1  0  0  0  0
M  END
>  <MODEL>
5

>  <REMARK>
 VINA RESULT:      -7.8      2.002      4.456
  Name = 
  5 active torsions:
  status: ('A' for Active; 'I' for Inactive)
    1  A    between atoms: C_1  and  C_15
    2  A    between atoms: C_1  and  C_18
    3  A    between atoms: N_2  and  C_15
    4  A    between atoms: C_9  and  C_15
    5  A    between atoms: C_9  and  C_27
                            x       y       z     vdW  Elec       q    Type
                         _______ _______ _______ _____ _____    ______ ____

>  <TORSDO>
F 5

$$$$
=
 OpenBabel11052413473D

 27 30  0  0  1  0  0  0  0  0999 V2000
  186.8010  178.0870  142.4520 C   0  0  1  0  0  3  0  0  0  0  0  0
  187.7640  178.0520  141.3440 N   0  0  0  0  0  0  0  0  0  0  0  0
  186.1210  178.6280  139.7790 O   0  0  0  0  0  0  0  0  0  0  0  0
  190.4240  176.9630  138.0920 C   0  0  0  0  0  2  0  0  0  0  0  0
  189.8400  177.1540  136.6840 C   0  0  0  0  0  2  0  0  0  0  0  0
  189.1990  177.8980  141.6010 C   0  0  0  0  0  2  0  0  0  0  0  0
  187.8650  178.4880  137.5420 C   0  0  1  0  0  3  0  0  0  0  0  0
  186.7430  177.9800  136.9120 F   0  0  0  0  0  0  0  0  0  0  0  0
  188.1240  177.7000  138.8400 C   0  0  1  0  0  3  0  0  0  0  0  0
  189.0540  178.4610  136.5690 C   0  0  0  0  0  2  0  0  0  0  0  0
  189.6190  177.6810  139.1810 C   0  0  1  0  0  3  0  0  0  0  0  0
  187.2860  178.1950  139.9920 C   0  0  0  0  0  0  0  0  0  0  0  0
  189.8580  177.0350  140.5340 C   0  0  0  0  0  2  0  0  0  0  0  0
  187.0980  177.0600  143.5530 C   0  0  0  0  0  2  0  0  0  0  0  0
  189.0030  177.5840  147.7190 C   0  0  0  0  0  3  0  0  0  0  0  0
  187.7280  177.8280  148.0510 C   0  0  0  0  0  3  0  0  0  0  0  0
  187.5690  177.6930  144.8540 C   0  0  1  0  0  3  0  0  0  0  0  0
  189.5700  177.8790  146.3620 C   0  0  0  0  0  2  0  0  0  0  0  0
  186.7270  178.4210  147.1030 C   0  0  0  0  0  2  0  0  0  0  0  0
  186.4900  177.5030  145.9110 C   0  0  0  0  0  2  0  0  0  0  0  0
  188.8820  177.0480  145.2860 C   0  0  0  0  0  2  0  0  0  0  0  0
  186.4380  179.4970  142.9440 C   0  0  0  0  0  2  0  0  0  0  0  0
  183.6090  179.2500  144.7880 O   0  0  0  0  0  0  0  0  0  0  0  0
  184.1930  178.4990  142.7800 C   0  0  0  0  0  3  0  0  0  0  0  0
  183.4570  178.2530  143.8450 C   0  0  0  0  0  3  0  0  0  0  0  0
  184.5120  180.2460  144.3440 C   0  0  0  0  0  2  0  0  0  0  0  0
  184.9410  179.7780  142.9560 C   0  0  1  0  0  3  0  0  0  0  0  0
  1 22  1  1  0  0  0
  1 14  1  0  0  0  0
  2  6  1  0  0  0  0
  2  1  1  0  0  0  0
  3 12  2  0  0  0  0
  5  4  1  0  0  0  0
  7  8  1  6  0  0  0
  7  9  1  0  0  0  0
  9 11  1  0  0  0  0
  9 12  1  1  0  0  0
 10  5  1  0  0  0  0
 10  7  1  0  0  0  0
 11  4  1  6  0  0  0
 11 13  1  0  0  0  0
 12  2  1  0  0  0  0
 13  6  1  0  0  0  0
 15 16  2  0  0  0  0
 17 14  1  6  0  0  0
 17 21  1  0  0  0  0
 17 20  1  0  0  0  0
 18 15  1  0  0  0  0
 19 16  1  0  0  0  0
 20 19  1  0  0  0  0
 21 18  1  0  0  0  0
 24 27  1  0  0  0  0
 24 25  2  0  0  0  0
 25 23  1  0  0  0  0
 26 23  1  0  0  0  0
 27 22  1  1  0  0  0
 27 26  1  0  0  0  0
M  END
>  <MODEL>
6

>  <REMARK>
 VINA RESULT:      -7.8      2.202      4.127
  Name = 
  5 active torsions:
  status: ('A' for Active; 'I' for Inactive)
    1  A    between atoms: C_1  and  C_15
    2  A    between atoms: C_1  and  C_18
    3  A    between atoms: N_2  and  C_15
    4  A    between atoms: C_9  and  C_15
    5  A    between atoms: C_9  and  C_27
                            x       y       z     vdW  Elec       q    Type
                         _______ _______ _______ _____ _____    ______ ____

>  <TORSDO>
F 5

$$$$
=
 OpenBabel11052413473D

 27 30  0  0  1  0  0  0  0  0999 V2000
  188.6110  177.8670  142.2430 C   0  0  1  0  0  3  0  0  0  0  0  0
  188.6410  177.6330  140.7930 N   0  0  0  0  0  0  0  0  0  0  0  0
  190.3810  176.0800  140.9910 O   0  0  0  0  0  0  0  0  0  0  0  0
  189.3000  177.7690  136.5060 C   0  0  0  0  0  2  0  0  0  0  0  0
  190.4260  176.8570  135.9920 C   0  0  0  0  0  2  0  0  0  0  0  0
  187.6120  178.2030  139.9180 C   0  0  0  0  0  2  0  0  0  0  0  0
  190.6080  175.6230  138.1960 C   0  0  1  0  0  3  0  0  0  0  0  0
  191.9570  175.5370  138.4900 F   0  0  0  0  0  0  0  0  0  0  0  0
  190.0400  176.9320  138.7740 C   0  0  1  0  0  3  0  0  0  0  0  0
  190.4060  175.4910  136.6790 C   0  0  0  0  0  2  0  0  0  0  0  0
  188.8590  177.4350  137.9350 C   0  0  1  0  0  3  0  0  0  0  0  0
  189.6860  176.8120  140.2350 C   0  0  0  0  0  0  0  0  0  0  0  0
  188.2050  178.6400  138.5870 C   0  0  0  0  0  2  0  0  0  0  0  0
  187.4680  177.1320  142.9560 C   0  0  0  0  0  2  0  0  0  0  0  0
  184.3830  178.6230  146.0410 C   0  0  0  0  0  3  0  0  0  0  0  0
  183.7300  178.9690  144.9240 C   0  0  0  0  0  3  0  0  0  0  0  0
  186.5780  178.0550  143.7740 C   0  0  1  0  0  3  0  0  0  0  0  0
  185.8790  178.5620  146.1340 C   0  0  0  0  0  2  0  0  0  0  0  0
  184.4220  179.3330  143.6430 C   0  0  0  0  0  2  0  0  0  0  0  0
  185.2180  178.1550  143.0960 C   0  0  0  0  0  2  0  0  0  0  0  0
  186.4460  177.5080  145.1920 C   0  0  0  0  0  2  0  0  0  0  0  0
  189.9810  177.7890  142.9350 C   0  0  0  0  0  2  0  0  0  0  0  0
  191.4230  177.5080  145.9860 O   0  0  0  0  0  0  0  0  0  0  0  0
  191.1440  176.0950  144.2930 C   0  0  0  0  0  3  0  0  0  0  0  0
  191.9310  176.4240  145.2980 C   0  0  0  0  0  3  0  0  0  0  0  0
  190.2070  177.9560  145.4160 C   0  0  0  0  0  2  0  0  0  0  0  0
  189.9640  177.0080  144.2440 C   0  0  1  0  0  3  0  0  0  0  0  0
  1 22  1  1  0  0  0
  1 14  1  0  0  0  0
  2  1  1  0  0  0  0
  5  4  1  0  0  0  0
  5 10  1  0  0  0  0
  6  2  1  0  0  0  0
  7  8  1  6  0  0  0
  7  9  1  0  0  0  0
  9 12  1  1  0  0  0
 10  7  1  0  0  0  0
 11  4  1  6  0  0  0
 11 13  1  0  0  0  0
 11  9  1  0  0  0  0
 12  2  1  0  0  0  0
 12  3  2  0  0  0  0
 13  6  1  0  0  0  0
 15 18  1  0  0  0  0
 16 15  2  0  0  0  0
 17 14  1  6  0  0  0
 17 21  1  0  0  0  0
 19 16  1  0  0  0  0
 20 19  1  0  0  0  0
 20 17  1  0  0  0  0
 21 18  1  0  0  0  0
 24 25  2  0  0  0  0
 25 23  1  0  0  0  0
 26 23  1  0  0  0  0
 27 22  1  6  0  0  0
 27 24  1  0  0  0  0
 27 26  1  0  0  0  0
M  END
>  <MODEL>
7

>  <REMARK>
 VINA RESULT:      -7.7      1.656      2.298
  Name = 
  5 active torsions:
  status: ('A' for Active; 'I' for Inactive)
    1  A    between atoms: C_1  and  C_15
    2  A    between atoms: C_1  and  C_18
    3  A    between atoms: N_2  and  C_15
    4  A    between atoms: C_9  and  C_15
    5  A    between atoms: C_9  and  C_27
                            x       y       z     vdW  Elec       q    Type
                         _______ _______ _______ _____ _____    ______ ____

>  <TORSDO>
F 5

$$$$
=
 OpenBabel11052413473D

 27 30  0  0  1  0  0  0  0  0999 V2000
  188.2930  177.8090  141.9770 C   0  0  1  0  0  3  0  0  0  0  0  0
  188.4630  177.5500  140.5420 N   0  0  0  0  0  0  0  0  0  0  0  0
  190.2880  176.1350  140.9230 O   0  0  0  0  0  0  0  0  0  0  0  0
  189.4720  177.6490  136.3220 C   0  0  0  0  0  2  0  0  0  0  0  0
  190.7000  176.8150  135.9270 C   0  0  0  0  0  2  0  0  0  0  0  0
  187.4730  178.0240  139.5690 C   0  0  0  0  0  2  0  0  0  0  0  0
  190.7840  175.6410  138.1700 C   0  0  1  0  0  3  0  0  0  0  0  0
  192.1050  175.6630  138.5770 F   0  0  0  0  0  0  0  0  0  0  0  0
  190.0750  176.9160  138.6650 C   0  0  1  0  0  3  0  0  0  0  0  0
  190.7210  175.4650  136.6450 C   0  0  0  0  0  2  0  0  0  0  0  0
  188.9360  177.3120  137.7170 C   0  0  1  0  0  3  0  0  0  0  0  0
  189.6080  176.7990  140.0940 C   0  0  0  0  0  0  0  0  0  0  0  0
  188.1430  178.4780  138.2810 C   0  0  0  0  0  2  0  0  0  0  0  0
  189.5990  178.1920  142.6870 C   0  0  0  0  0  2  0  0  0  0  0  0
  190.4670  177.0220  147.0620 C   0  0  0  0  0  3  0  0  0  0  0  0
  191.6120  176.5970  146.5110 C   0  0  0  0  0  3  0  0  0  0  0  0
  189.8740  177.3570  143.9290 C   0  0  1  0  0  3  0  0  0  0  0  0
  189.1630  177.0620  146.3210 C   0  0  0  0  0  2  0  0  0  0  0  0
  191.7160  176.1140  145.0940 C   0  0  0  0  0  2  0  0  0  0  0  0
  191.3800  177.2270  144.1100 C   0  0  0  0  0  2  0  0  0  0  0  0
  189.2300  178.0230  145.1410 C   0  0  0  0  0  2  0  0  0  0  0  0
  187.0700  178.6690  142.3340 C   0  0  0  0  0  2  0  0  0  0  0  0
  183.8020  178.7940  143.2130 O   0  0  0  0  0  0  0  0  0  0  0  0
  185.6720  178.3820  144.3410 C   0  0  0  0  0  3  0  0  0  0  0  0
  184.4570  178.8860  144.4250 C   0  0  0  0  0  3  0  0  0  0  0  0
  184.6220  178.1900  142.2290 C   0  0  0  0  0  2  0  0  0  0  0  0
  185.9260  177.8800  142.9600 C   0  0  1  0  0  3  0  0  0  0  0  0
  1 22  1  6  0  0  0
  1 14  1  0  0  0  0
  2  1  1  0  0  0  0
  5  4  1  0  0  0  0
  5 10  1  0  0  0  0
  6  2  1  0  0  0  0
  7  8  1  6  0  0  0
  7  9  1  0  0  0  0
  9 12  1  1  0  0  0
 10  7  1  0  0  0  0
 11  4  1  6  0  0  0
 11 13  1  0  0  0  0
 11  9  1  0  0  0  0
 12  2  1  0  0  0  0
 12  3  2  0  0  0  0
 13  6  1  0  0  0  0
 16 15  2  0  0  0  0
 17 14  1  6  0  0  0
 17 20  1  0  0  0  0
 17 21  1  0  0  0  0
 18 15  1  0  0  0  0
 19 16  1  0  0  0  0
 20 19  1  0  0  0  0
 21 18  1  0  0  0  0
 23 25  1  0  0  0  0
 24 25  2  0  0  0  0
 26 27  1  0  0  0  0
 26 23  1  0  0  0  0
 27 22  1  6  0  0  0
 27 24  1  0  0  0  0
M  END
>  <MODEL>
8

>  <REMARK>
 VINA RESULT:      -7.5      2.217      4.941
  Name = 
  5 active torsions:
  status: ('A' for Active; 'I' for Inactive)
    1  A    between atoms: C_1  and  C_15
    2  A    between atoms: C_1  and  C_18
    3  A    between atoms: N_2  and  C_15
    4  A    between atoms: C_9  and  C_15
    5  A    between atoms: C_9  and  C_27
                            x       y       z     vdW  Elec       q    Type
                         _______ _______ _______ _____ _____    ______ ____

>  <TORSDO>
F 5

$$$$
=
 OpenBabel11052413473D

 27 30  0  0  1  0  0  0  0  0999 V2000
  188.1550  177.0440  143.7970 C   0  0  1  0  0  3  0  0  0  0  0  0
  188.1530  177.2220  142.3390 N   0  0  0  0  0  0  0  0  0  0  0  0
  190.1370  176.0030  142.1000 O   0  0  0  0  0  0  0  0  0  0  0  0
  188.5700  178.6290  138.2550 C   0  0  0  0  0  2  0  0  0  0  0  0
  189.8060  178.1040  137.5100 C   0  0  0  0  0  2  0  0  0  0  0  0
  187.0010  177.8190  141.6560 C   0  0  0  0  0  2  0  0  0  0  0  0
  190.3010  176.3680  139.2880 C   0  0  1  0  0  3  0  0  0  0  0  0
  191.6570  176.4440  139.5460 F   0  0  0  0  0  0  0  0  0  0  0  0
  189.5500  177.3520  140.2050 C   0  0  1  0  0  3  0  0  0  0  0  0
  190.0500  176.6210  137.7930 C   0  0  0  0  0  2  0  0  0  0  0  0
  188.2610  177.8480  139.5370 C   0  0  1  0  0  3  0  0  0  0  0  0
  189.2930  176.7790  141.5760 C   0  0  0  0  0  0  0  0  0  0  0  0
  187.4460  178.6980  140.4960 C   0  0  0  0  0  2  0  0  0  0  0  0
  189.2370  177.8660  144.5110 C   0  0  0  0  0  2  0  0  0  0  0  0
  191.5210  177.0820  148.4380 C   0  0  0  0  0  3  0  0  0  0  0  0
  192.3100  176.3870  147.6070 C   0  0  0  0  0  3  0  0  0  0  0  0
  189.8460  177.1480  145.7060 C   0  0  1  0  0  3  0  0  0  0  0  0
  190.0520  177.2780  148.2070 C   0  0  0  0  0  2  0  0  0  0  0  0
  191.8110  175.7290  146.3550 C   0  0  0  0  0  2  0  0  0  0  0  0
  191.2790  176.7600  145.3680 C   0  0  0  0  0  2  0  0  0  0  0  0
  189.7970  178.0620  146.9260 C   0  0  0  0  0  2  0  0  0  0  0  0
  186.7640  177.0740  144.4500 C   0  0  0  0  0  2  0  0  0  0  0  0
  184.7280  178.6120  146.6750 O   0  0  0  0  0  0  0  0  0  0  0  0
  185.1230  178.9090  144.5090 C   0  0  0  0  0  3  0  0  0  0  0  0
  184.2110  179.0020  145.4560 C   0  0  0  0  0  3  0  0  0  0  0  0
  186.0840  178.2230  146.5600 C   0  0  0  0  0  2  0  0  0  0  0  0
  186.4090  178.4150  145.0800 C   0  0  1  0  0  3  0  0  0  0  0  0
  1 22  1  1  0  0  0
  1 14  1  0  0  0  0
  2  1  1  0  0  0  0
  5 10  1  0  0  0  0
  5  4  1  0  0  0  0
  6  2  1  0  0  0  0
  7  8  1  6  0  0  0
  7  9  1  0  0  0  0
  9 12  1  1  0  0  0
 10  7  1  0  0  0  0
 11  4  1  6  0  0  0
 11  9  1  0  0  0  0
 11 13  1  0  0  0  0
 12  3  2  0  0  0  0
 12  2  1  0  0  0  0
 13  6  1  0  0  0  0
 16 15  2  0  0  0  0
 17 14  1  6  0  0  0
 17 21  1  0  0  0  0
 18 15  1  0  0  0  0
 19 16  1  0  0  0  0
 20 17  1  0  0  0  0
 20 19  1  0  0  0  0
 21 18  1  0  0  0  0
 24 27  1  0  0  0  0
 24 25  2  0  0  0  0
 25 23  1  0  0  0  0
 26 23  1  0  0  0  0
 27 22  1  6  0  0  0
 27 26  1  0  0  0  0
M  END
>  <MODEL>
9

>  <REMARK>
 VINA RESULT:      -7.4      1.974      4.816
  Name = 
  5 active torsions:
  status: ('A' for Active; 'I' for Inactive)
    1  A    between atoms: C_1  and  C_15
    2  A    between atoms: C_1  and  C_18
    3  A    between atoms: N_2  and  C_15
    4  A    between atoms: C_9  and  C_15
    5  A    between atoms: C_9  and  C_27
                            x       y       z     vdW  Elec       q    Type
                         _______ _______ _______ _____ _____    ______ ____

>  <TORSDO>
F 5

$$$$
