=
 OpenBabel11052413543D

 27 30  0  0  1  0  0  0  0  0999 V2000
  188.0420  176.7830  144.3410 C   0  0  0  0  0  2  0  0  0  0  0  0
  188.2500  177.7050  141.3180 C   0  0  1  0  0  3  0  0  0  0  0  0
  186.0890  177.7560  142.4710 N   0  0  0  0  0  2  0  0  0  0  0  0
  189.7100  177.4150  139.2450 C   0  0  1  0  0  3  0  0  0  0  0  0
  188.8050  178.3400  140.0500 C   0  0  0  0  0  2  0  0  0  0  0  0
  191.1060  176.7550  144.5940 C   0  0  0  0  0  2  0  0  0  0  0  0
  189.3820  177.6650  142.3670 C   0  0  2  0  0  3  0  0  0  0  0  0
  184.5410  178.9730  145.6560 N   0  0  0  0  0  2  0  0  0  0  0  0
  190.2590  176.3960  142.2670 C   0  0  2  0  0  3  0  0  0  0  0  0
  185.5070  178.5530  146.6250 C   0  0  0  0  0  0  0  0  0  0  0  0
  188.9700  177.8910  143.8350 C   0  0  2  0  0  3  0  0  0  0  0  0
  190.9170  176.8980  140.0300 C   0  0  2  0  0  3  0  0  0  0  0  0
  186.6880  177.3170  144.8100 C   0  0  1  0  0  3  0  0  0  0  0  0
  187.0570  178.5570  141.7400 C   0  0  0  0  0  2  0  0  0  0  0  0
  184.5970  178.5650  144.2540 C   0  0  2  0  0  3  0  0  0  0  0  0
  188.9770  176.3510  138.7190 O   0  0  0  0  0  1  0  0  0  0  0  0
  185.3000  178.7710  147.8460 O   0  0  0  0  0  0  0  0  0  0  0  0
  191.5070  176.5120  143.1410 C   0  0  0  0  0  2  0  0  0  0  0  0
  186.8080  177.9480  146.1920 C   0  0  0  0  0  2  0  0  0  0  0  0
  190.5560  175.9000  140.9720 O   0  0  0  0  0  0  0  0  0  0  0  0
  186.0430  178.2980  143.8220 C   0  0  2  0  0  3  0  0  0  0  0  0
  190.2160  177.9970  144.7190 C   0  0  0  0  0  2  0  0  0  0  0  0
  193.0000  177.6450  140.1640 C   0  0  0  0  0  1  0  0  0  0  0  0
  191.6950  177.9340  140.5670 O   0  0  0  0  0  0  0  0  0  0  0  0
  183.9570  179.6500  143.4020 C   0  0  0  0  0  2  0  0  0  0  0  0
  181.3760  178.9520  143.4330 C   0  0  0  0  0  1  0  0  0  0  0  0
  182.6200  178.9600  142.4120 S   0  0  0  0  0  0  0  0  0  0  0  0
  1 13  1  0  0  0  0
  2  5  1  6  0  0  0
  2 14  1  0  0  0  0
  2  7  1  0  0  0  0
  3 21  1  0  0  0  0
  4 16  1  1  0  0  0
  4 12  1  0  0  0  0
  4  5  1  0  0  0  0
  6 22  1  0  0  0  0
  7 11  1  0  0  0  0
  8 10  1  0  0  0  0
  9  7  1  0  0  0  0
  9 18  1  0  0  0  0
 10 17  2  0  0  0  0
 11  1  1  0  0  0  0
 11 22  1  0  0  0  0
 12 24  1  0  0  0  0
 12 20  1  0  0  0  0
 13 19  1  0  0  0  0
 14  3  1  0  0  0  0
 15  8  1  0  0  0  0
 18  6  1  0  0  0  0
 19 10  1  0  0  0  0
 20  9  1  0  0  0  0
 21 15  1  0  0  0  0
 21 13  1  0  0  0  0
 23 24  1  0  0  0  0
 25 15  1  0  0  0  0
 27 25  1  0  0  0  0
 27 26  1  0  0  0  0
M  END
>  <MODEL>
1

>  <REMARK>
 VINA RESULT:      -8.5      0.000      0.000
  Name = 
  3 active torsions:
  status: ('A' for Active; 'I' for Inactive)
    1  A    between atoms: S_12  and  C_14
    2  A    between atoms: C_14  and  C_20
    3  A    between atoms: O_16  and  C_17
                            x       y       z     vdW  Elec       q    Type
                         _______ _______ _______ _____ _____    ______ ____

>  <TORSDO>
F 3

$$$$
=
 OpenBabel11052413543D

 27 30  0  0  1  0  0  0  0  0999 V2000
  188.4620  178.4910  142.0910 C   0  0  0  0  0  2  0  0  0  0  0  0
  186.3110  178.3810  144.4130 C   0  0  1  0  0  3  0  0  0  0  0  0
  185.6850  179.2210  142.1980 N   0  0  0  0  0  2  0  0  0  0  0  0
  186.1300  178.3380  146.9580 C   0  0  1  0  0  3  0  0  0  0  0  0
  185.5400  177.8820  145.6280 C   0  0  0  0  0  2  0  0  0  0  0  0
  190.4160  176.7990  143.7560 C   0  0  0  0  0  2  0  0  0  0  0  0
  187.6030  177.5440  144.2900 C   0  0  2  0  0  3  0  0  0  0  0  0
  185.9300  178.2910  138.5790 N   0  0  0  0  0  2  0  0  0  0  0  0
  188.7790  178.1180  145.1110 C   0  0  2  0  0  3  0  0  0  0  0  0
  187.2940  177.8690  138.4820 C   0  0  0  0  0  0  0  0  0  0  0  0
  188.0820  177.2230  142.8600 C   0  0  2  0  0  3  0  0  0  0  0  0
  187.5840  177.9100  147.1660 C   0  0  2  0  0  3  0  0  0  0  0  0
  187.6380  178.6750  140.8160 C   0  0  1  0  0  3  0  0  0  0  0  0
  185.3720  178.2340  143.2190 C   0  0  0  0  0  2  0  0  0  0  0  0
  185.3830  178.9340  139.7720 C   0  0  2  0  0  3  0  0  0  0  0  0
  186.0020  179.7200  147.1020 O   0  0  0  0  0  1  0  0  0  0  0  0
  187.7550  177.5040  137.3700 O   0  0  0  0  0  0  0  0  0  0  0  0
  189.9490  177.1370  145.1700 C   0  0  0  0  0  2  0  0  0  0  0  0
  188.1490  177.7620  139.7080 C   0  0  0  0  0  2  0  0  0  0  0  0
  188.4850  178.6770  146.3820 O   0  0  0  0  0  0  0  0  0  0  0  0
  186.1310  178.4760  141.0290 C   0  0  2  0  0  3  0  0  0  0  0  0
  189.2620  176.2480  142.9100 C   0  0  0  0  0  2  0  0  0  0  0  0
  188.4470  176.1510  148.2020 C   0  0  0  0  0  1  0  0  0  0  0  0
  187.7610  176.5240  147.0460 O   0  0  0  0  0  0  0  0  0  0  0  0
  183.9000  178.6150  139.8640 C   0  0  0  0  0  2  0  0  0  0  0  0
  182.7170  176.2610  139.4040 C   0  0  0  0  0  1  0  0  0  0  0  0
  183.4320  177.4440  138.5790 S   0  0  0  0  0  0  0  0  0  0  0  0
  1 11  1  0  0  0  0
  2 14  1  6  0  0  0
  2  5  1  0  0  0  0
  3 14  1  0  0  0  0
  4 16  1  6  0  0  0
  4 12  1  0  0  0  0
  5  4  1  0  0  0  0
  6 18  1  0  0  0  0
  7  2  1  0  0  0  0
  7  9  1  0  0  0  0
  8 15  1  0  0  0  0
  9 18  1  0  0  0  0
  9 20  1  0  0  0  0
 10  8  1  0  0  0  0
 10 19  1  0  0  0  0
 11 22  1  0  0  0  0
 11  7  1  0  0  0  0
 13 21  1  0  0  0  0
 13  1  1  0  0  0  0
 15 25  1  0  0  0  0
 15 21  1  0  0  0  0
 17 10  2  0  0  0  0
 19 13  1  0  0  0  0
 20 12  1  0  0  0  0
 21  3  1  0  0  0  0
 22  6  1  0  0  0  0
 24 12  1  0  0  0  0
 24 23  1  0  0  0  0
 27 26  1  0  0  0  0
 27 25  1  0  0  0  0
M  END
>  <MODEL>
2

>  <REMARK>
 VINA RESULT:      -7.1      2.429      5.811
  Name = 
  3 active torsions:
  status: ('A' for Active; 'I' for Inactive)
    1  A    between atoms: S_12  and  C_14
    2  A    between atoms: C_14  and  C_20
    3  A    between atoms: O_16  and  C_17
                            x       y       z     vdW  Elec       q    Type
                         _______ _______ _______ _____ _____    ______ ____

>  <TORSDO>
F 3

$$$$
=
 OpenBabel11052413543D

 27 30  0  0  1  0  0  0  0  0999 V2000
  187.4170  178.5500  142.9700 C   0  0  0  0  0  2  0  0  0  0  0  0
  187.2420  178.0520  146.0940 C   0  0  1  0  0  3  0  0  0  0  0  0
  185.3740  179.1090  144.9130 N   0  0  0  0  0  2  0  0  0  0  0  0
  188.7280  177.7030  148.1390 C   0  0  1  0  0  3  0  0  0  0  0  0
  187.4100  177.3740  147.4470 C   0  0  0  0  0  2  0  0  0  0  0  0
  189.9280  176.7860  142.7810 C   0  0  0  0  0  2  0  0  0  0  0  0
  188.1300  177.3080  145.0730 C   0  0  2  0  0  3  0  0  0  0  0  0
  183.2210  178.6220  141.8880 N   0  0  0  0  0  2  0  0  0  0  0  0
  189.5770  177.8460  145.0200 C   0  0  2  0  0  3  0  0  0  0  0  0
  184.1940  178.2900  140.8920 C   0  0  0  0  0  0  0  0  0  0  0  0
  187.5750  177.1820  143.6400 C   0  0  2  0  0  3  0  0  0  0  0  0
  189.9640  177.3340  147.3180 C   0  0  2  0  0  3  0  0  0  0  0  0
  185.9750  178.8360  142.5490 C   0  0  1  0  0  3  0  0  0  0  0  0
  185.7540  177.9940  145.7650 C   0  0  0  0  0  2  0  0  0  0  0  0
  183.5830  179.0910  143.2240 C   0  0  2  0  0  3  0  0  0  0  0  0
  188.7650  179.0490  148.5030 O   0  0  0  0  0  1  0  0  0  0  0  0
  183.8270  178.0830  139.7070 O   0  0  0  0  0  0  0  0  0  0  0  0
  190.4820  176.9310  144.1960 C   0  0  0  0  0  2  0  0  0  0  0  0
  185.6310  178.0880  141.2670 C   0  0  0  0  0  2  0  0  0  0  0  0
  190.1820  178.2360  146.2430 O   0  0  0  0  0  0  0  0  0  0  0  0
  184.9460  178.5310  143.6460 C   0  0  2  0  0  3  0  0  0  0  0  0
  188.4830  176.2750  142.8040 C   0  0  0  0  0  2  0  0  0  0  0  0
  191.2190  175.5080  147.3690 C   0  0  0  0  0  1  0  0  0  0  0  0
  189.9790  175.9840  146.9410 O   0  0  0  0  0  0  0  0  0  0  0  0
  182.4920  178.6820  144.1990 C   0  0  0  0  0  2  0  0  0  0  0  0
  179.8980  178.0360  144.2920 C   0  0  0  0  0  1  0  0  0  0  0  0
  180.8690  179.0580  143.5140 S   0  0  0  0  0  0  0  0  0  0  0  0
  1 11  1  0  0  0  0
  2 14  1  6  0  0  0
  2  5  1  0  0  0  0
  3 14  1  0  0  0  0
  4 16  1  6  0  0  0
  5  4  1  0  0  0  0
  6 22  1  0  0  0  0
  6 18  1  0  0  0  0
  7  2  1  0  0  0  0
  8 15  1  0  0  0  0
  9  7  1  0  0  0  0
  9 20  1  0  0  0  0
 10 19  1  0  0  0  0
 10  8  1  0  0  0  0
 11  7  1  0  0  0  0
 12  4  1  0  0  0  0
 13  1  1  0  0  0  0
 13 21  1  0  0  0  0
 15 21  1  0  0  0  0
 15 25  1  0  0  0  0
 17 10  2  0  0  0  0
 18  9  1  0  0  0  0
 19 13  1  0  0  0  0
 20 12  1  0  0  0  0
 21  3  1  0  0  0  0
 22 11  1  0  0  0  0
 24 12  1  0  0  0  0
 24 23  1  0  0  0  0
 27 25  1  0  0  0  0
 27 26  1  0  0  0  0
M  END
>  <MODEL>
3

>  <REMARK>
 VINA RESULT:      -7.1      2.688      5.085
  Name = 
  3 active torsions:
  status: ('A' for Active; 'I' for Inactive)
    1  A    between atoms: S_12  and  C_14
    2  A    between atoms: C_14  and  C_20
    3  A    between atoms: O_16  and  C_17
                            x       y       z     vdW  Elec       q    Type
                         _______ _______ _______ _____ _____    ______ ____

>  <TORSDO>
F 3

$$$$
=
 OpenBabel11052413543D

 27 30  0  0  1  0  0  0  0  0999 V2000
  188.9480  178.5860  142.3970 C   0  0  0  0  0  2  0  0  0  0  0  0
  187.7140  177.8020  145.2070 C   0  0  1  0  0  3  0  0  0  0  0  0
  186.2940  178.8040  143.4790 N   0  0  0  0  0  2  0  0  0  0  0  0
  188.3900  177.3950  147.6340 C   0  0  1  0  0  3  0  0  0  0  0  0
  187.4540  177.0220  146.4890 C   0  0  0  0  0  2  0  0  0  0  0  0
  191.5320  177.0550  143.0510 C   0  0  0  0  0  2  0  0  0  0  0  0
  188.9840  177.2250  144.5460 C   0  0  2  0  0  3  0  0  0  0  0  0
  185.4430  178.4130  139.8540 N   0  0  0  0  0  2  0  0  0  0  0  0
  190.2860  177.8810  145.0570 C   0  0  2  0  0  3  0  0  0  0  0  0
  186.7390  178.2500  139.2690 C   0  0  0  0  0  0  0  0  0  0  0  0
  189.0000  177.1820  143.0050 C   0  0  2  0  0  3  0  0  0  0  0  0
  189.8720  177.2020  147.3060 C   0  0  2  0  0  3  0  0  0  0  0  0
  187.7330  178.7910  141.4910 C   0  0  1  0  0  3  0  0  0  0  0  0
  186.4590  177.6520  144.3520 C   0  0  0  0  0  2  0  0  0  0  0  0
  185.2460  178.7900  141.2520 C   0  0  2  0  0  3  0  0  0  0  0  0
  188.1490  178.7030  148.0560 O   0  0  0  0  0  1  0  0  0  0  0  0
  186.8480  178.1200  138.0230 O   0  0  0  0  0  0  0  0  0  0  0  0
  191.5200  177.1190  144.5770 C   0  0  0  0  0  2  0  0  0  0  0  0
  187.9570  178.1330  140.1350 C   0  0  0  0  0  2  0  0  0  0  0  0
  190.3630  178.2090  146.4350 O   0  0  0  0  0  0  0  0  0  0  0  0
  186.4170  178.3070  142.1160 C   0  0  2  0  0  3  0  0  0  0  0  0
  190.2400  176.4280  142.5150 C   0  0  0  0  0  2  0  0  0  0  0  0
  191.3540  175.5720  147.5480 C   0  0  0  0  0  1  0  0  0  0  0  0
  190.1670  175.8950  146.8900 O   0  0  0  0  0  0  0  0  0  0  0  0
  183.9270  178.2090  141.7350 C   0  0  0  0  0  2  0  0  0  0  0  0
  181.5400  178.6910  140.6290 C   0  0  0  0  0  1  0  0  0  0  0  0
  182.8630  177.8240  140.3340 S   0  0  0  0  0  0  0  0  0  0  0  0
  1 11  1  0  0  0  0
  2 14  1  6  0  0  0
  2  5  1  0  0  0  0
  3 14  1  0  0  0  0
  4 16  1  6  0  0  0
  5  4  1  0  0  0  0
  6 18  1  0  0  0  0
  7  9  1  0  0  0  0
  7  2  1  0  0  0  0
  8 15  1  0  0  0  0
  9 20  1  0  0  0  0
 10  8  1  0  0  0  0
 10 19  1  0  0  0  0
 11  7  1  0  0  0  0
 12  4  1  0  0  0  0
 13 21  1  0  0  0  0
 13  1  1  0  0  0  0
 15 25  1  0  0  0  0
 15 21  1  0  0  0  0
 17 10  2  0  0  0  0
 18  9  1  0  0  0  0
 19 13  1  0  0  0  0
 20 12  1  0  0  0  0
 21  3  1  0  0  0  0
 22 11  1  0  0  0  0
 22  6  1  0  0  0  0
 24 12  1  0  0  0  0
 24 23  1  0  0  0  0
 27 26  1  0  0  0  0
 27 25  1  0  0  0  0
M  END
>  <MODEL>
4

>  <REMARK>
 VINA RESULT:      -7.0      2.319      5.246
  Name = 
  3 active torsions:
  status: ('A' for Active; 'I' for Inactive)
    1  A    between atoms: S_12  and  C_14
    2  A    between atoms: C_14  and  C_20
    3  A    between atoms: O_16  and  C_17
                            x       y       z     vdW  Elec       q    Type
                         _______ _______ _______ _____ _____    ______ ____

>  <TORSDO>
F 3

$$$$
=
 OpenBabel11052413543D

 27 30  0  0  1  0  0  0  0  0999 V2000
  186.8350  177.1850  144.2370 C   0  0  0  0  0  2  0  0  0  0  0  0
  189.9610  177.2400  144.7410 C   0  0  1  0  0  3  0  0  0  0  0  0
  189.0890  177.1050  142.4560 N   0  0  0  0  0  2  0  0  0  0  0  0
  191.6960  176.7290  146.5420 C   0  0  1  0  0  3  0  0  0  0  0  0
  191.3060  177.6050  145.3560 C   0  0  0  0  0  2  0  0  0  0  0  0
  186.3000  177.9500  147.1660 C   0  0  0  0  0  2  0  0  0  0  0  0
  188.8510  177.7640  145.6760 C   0  0  2  0  0  3  0  0  0  0  0  0
  186.5970  178.7700  140.2100 N   0  0  0  0  0  2  0  0  0  0  0  0
  188.4700  176.7620  146.7890 C   0  0  2  0  0  3  0  0  0  0  0  0
  185.4600  178.8800  141.0730 C   0  0  0  0  0  0  0  0  0  0  0  0
  187.5700  178.2920  144.9980 C   0  0  2  0  0  3  0  0  0  0  0  0
  190.6810  176.7540  147.6850 C   0  0  2  0  0  3  0  0  0  0  0  0
  186.6830  177.4960  142.7470 C   0  0  1  0  0  3  0  0  0  0  0  0
  189.9380  177.8710  143.3520 C   0  0  0  0  0  2  0  0  0  0  0  0
  187.7930  178.0090  140.5680 C   0  0  2  0  0  3  0  0  0  0  0  0
  191.9330  175.4190  146.1250 O   0  0  0  0  0  1  0  0  0  0  0  0
  184.3920  179.3780  140.6340 O   0  0  0  0  0  0  0  0  0  0  0  0
  187.5620  177.4080  147.8350 C   0  0  0  0  0  2  0  0  0  0  0  0
  185.5600  178.5000  142.5190 C   0  0  0  0  0  2  0  0  0  0  0  0
  189.5140  176.0050  147.3810 O   0  0  0  0  0  0  0  0  0  0  0  0
  187.9830  177.9790  142.0890 C   0  0  2  0  0  3  0  0  0  0  0  0
  186.6500  178.9320  146.0420 C   0  0  0  0  0  2  0  0  0  0  0  0
  191.2990  178.2300  149.2180 C   0  0  0  0  0  1  0  0  0  0  0  0
  190.4210  178.0510  148.1490 O   0  0  0  0  0  0  0  0  0  0  0  0
  188.9940  178.6280  139.8730 C   0  0  0  0  0  2  0  0  0  0  0  0
  189.0560  178.9670  137.2210 C   0  0  0  0  0  1  0  0  0  0  0  0
  189.3020  177.8010  138.3030 S   0  0  0  0  0  0  0  0  0  0  0  0
  1 11  1  0  0  0  0
  2 14  1  6  0  0  0
  2  5  1  0  0  0  0
  2  7  1  0  0  0  0
  3 14  1  0  0  0  0
  4 16  1  6  0  0  0
  4 12  1  0  0  0  0
  5  4  1  0  0  0  0
  6 18  1  0  0  0  0
  7  9  1  0  0  0  0
  8 15  1  0  0  0  0
  8 10  1  0  0  0  0
  9 20  1  0  0  0  0
  9 18  1  0  0  0  0
 10 19  1  0  0  0  0
 11  7  1  0  0  0  0
 11 22  1  0  0  0  0
 12 24  1  0  0  0  0
 13  1  1  0  0  0  0
 15 21  1  0  0  0  0
 17 10  2  0  0  0  0
 19 13  1  0  0  0  0
 20 12  1  0  0  0  0
 21  3  1  0  0  0  0
 21 13  1  0  0  0  0
 22  6  1  0  0  0  0
 24 23  1  0  0  0  0
 25 15  1  0  0  0  0
 26 27  1  0  0  0  0
 27 25  1  0  0  0  0
M  END
>  <MODEL>
5

>  <REMARK>
 VINA RESULT:      -7.0      3.349      5.872
  Name = 
  3 active torsions:
  status: ('A' for Active; 'I' for Inactive)
    1  A    between atoms: S_12  and  C_14
    2  A    between atoms: C_14  and  C_20
    3  A    between atoms: O_16  and  C_17
                            x       y       z     vdW  Elec       q    Type
                         _______ _______ _______ _____ _____    ______ ____

>  <TORSDO>
F 3

$$$$
=
 OpenBabel11052413543D

 27 30  0  0  1  0  0  0  0  0999 V2000
  190.6180  178.0740  142.9510 C   0  0  0  0  0  2  0  0  0  0  0  0
  187.6490  177.8880  144.0390 C   0  0  1  0  0  3  0  0  0  0  0  0
  188.0630  178.4540  141.6910 N   0  0  0  0  0  2  0  0  0  0  0  0
  186.3100  178.0350  146.2060 C   0  0  1  0  0  3  0  0  0  0  0  0
  186.4410  177.3990  144.8270 C   0  0  0  0  0  2  0  0  0  0  0  0
  191.6940  176.7880  145.5290 C   0  0  0  0  0  2  0  0  0  0  0  0
  188.9080  177.2140  144.6260 C   0  0  2  0  0  3  0  0  0  0  0  0
  190.0300  177.2640  138.7350 N   0  0  0  0  0  2  0  0  0  0  0  0
  189.5220  177.9980  145.8070 C   0  0  2  0  0  3  0  0  0  0  0  0
  191.3100  177.0110  139.3230 C   0  0  0  0  0  0  0  0  0  0  0  0
  190.0190  176.8370  143.6260 C   0  0  2  0  0  3  0  0  0  0  0  0
  187.5280  177.8130  147.1050 C   0  0  2  0  0  3  0  0  0  0  0  0
  190.4690  178.0460  141.4300 C   0  0  1  0  0  3  0  0  0  0  0  0
  187.3860  177.5240  142.5800 C   0  0  0  0  0  2  0  0  0  0  0  0
  188.9450  177.9300  139.4530 C   0  0  2  0  0  3  0  0  0  0  0  0
  186.0280  179.3970  146.0920 O   0  0  0  0  0  1  0  0  0  0  0  0
  192.2600  176.6160  138.6000 O   0  0  0  0  0  0  0  0  0  0  0  0
  190.5990  177.1810  146.5190 C   0  0  0  0  0  2  0  0  0  0  0  0
  191.5020  177.1160  140.8060 C   0  0  0  0  0  2  0  0  0  0  0  0
  188.6310  178.6200  146.7210 O   0  0  0  0  0  0  0  0  0  0  0  0
  189.0560  177.6770  140.9610 C   0  0  2  0  0  3  0  0  0  0  0  0
  191.1090  176.0270  144.3340 C   0  0  0  0  0  2  0  0  0  0  0  0
  187.9380  176.2700  148.6430 C   0  0  0  0  0  1  0  0  0  0  0  0
  187.8420  176.4550  147.2630 O   0  0  0  0  0  0  0  0  0  0  0  0
  187.6170  177.4350  138.9050 C   0  0  0  0  0  2  0  0  0  0  0  0
  187.4340  178.5100  136.4630 C   0  0  0  0  0  1  0  0  0  0  0  0
  187.7590  177.0880  137.1440 S   0  0  0  0  0  0  0  0  0  0  0  0
  1 11  1  0  0  0  0
  2 14  1  6  0  0  0
  2  7  1  0  0  0  0
  2  5  1  0  0  0  0
  3 14  1  0  0  0  0
  4 16  1  6  0  0  0
  4 12  1  0  0  0  0
  5  4  1  0  0  0  0
  6 18  1  0  0  0  0
  7  9  1  0  0  0  0
  8 10  1  0  0  0  0
  8 15  1  0  0  0  0
  9 18  1  0  0  0  0
  9 20  1  0  0  0  0
 10 19  1  0  0  0  0
 11 22  1  0  0  0  0
 11  7  1  0  0  0  0
 12 24  1  0  0  0  0
 13  1  1  0  0  0  0
 15 21  1  0  0  0  0
 17 10  2  0  0  0  0
 19 13  1  0  0  0  0
 20 12  1  0  0  0  0
 21 13  1  0  0  0  0
 21  3  1  0  0  0  0
 22  6  1  0  0  0  0
 24 23  1  0  0  0  0
 25 15  1  0  0  0  0
 26 27  1  0  0  0  0
 27 25  1  0  0  0  0
M  END
>  <MODEL>
6

>  <REMARK>
 VINA RESULT:      -6.8      2.657      6.456
  Name = 
  3 active torsions:
  status: ('A' for Active; 'I' for Inactive)
    1  A    between atoms: S_12  and  C_14
    2  A    between atoms: C_14  and  C_20
    3  A    between atoms: O_16  and  C_17
                            x       y       z     vdW  Elec       q    Type
                         _______ _______ _______ _____ _____    ______ ____

>  <TORSDO>
F 3

$$$$
=
 OpenBabel11052413543D

 27 30  0  0  1  0  0  0  0  0999 V2000
  188.0880  178.5500  145.9320 C   0  0  0  0  0  2  0  0  0  0  0  0
  186.7370  178.2540  143.0820 C   0  0  1  0  0  3  0  0  0  0  0  0
  189.1630  178.0090  143.3220 N   0  0  0  0  0  2  0  0  0  0  0  0
  184.6410  178.9310  141.7930 C   0  0  1  0  0  3  0  0  0  0  0  0
  185.7220  177.8780  142.0110 C   0  0  0  0  0  2  0  0  0  0  0  0
  185.3350  178.4720  147.2980 C   0  0  0  0  0  2  0  0  0  0  0  0
  186.0700  178.0620  144.4610 C   0  0  2  0  0  3  0  0  0  0  0  0
  191.6920  176.2020  145.4090 N   0  0  0  0  0  2  0  0  0  0  0  0
  185.2940  179.3080  144.9400 C   0  0  2  0  0  3  0  0  0  0  0  0
  191.1730  176.4000  146.7270 C   0  0  0  0  0  0  0  0  0  0  0  0
  186.9760  177.5500  145.5990 C   0  0  2  0  0  3  0  0  0  0  0  0
  183.8360  179.2570  143.0520 C   0  0  2  0  0  3  0  0  0  0  0  0
  189.4860  177.9560  145.7540 C   0  0  1  0  0  3  0  0  0  0  0  0
  187.9500  177.3550  142.8590 C   0  0  0  0  0  2  0  0  0  0  0  0
  191.1530  176.8830  144.2340 C   0  0  2  0  0  3  0  0  0  0  0  0
  185.1930  180.0920  141.2500 O   0  0  0  0  0  1  0  0  0  0  0  0
  191.7980  175.9430  147.7180 O   0  0  0  0  0  0  0  0  0  0  0  0
  184.4460  178.9970  146.1720 C   0  0  0  0  0  2  0  0  0  0  0  0
  189.8420  177.0570  146.9320 C   0  0  0  0  0  2  0  0  0  0  0  0
  184.5740  180.0510  143.9690 O   0  0  0  0  0  0  0  0  0  0  0  0
  189.6670  177.2060  144.4280 C   0  0  2  0  0  3  0  0  0  0  0  0
  186.1350  177.2460  146.8420 C   0  0  0  0  0  2  0  0  0  0  0  0
  181.8990  178.4490  143.7650 C   0  0  0  0  0  1  0  0  0  0  0  0
  183.2480  178.1210  143.6260 O   0  0  0  0  0  0  0  0  0  0  0  0
  191.3730  176.0040  143.0140 C   0  0  0  0  0  2  0  0  0  0  0  0
  190.7630  176.7540  140.5200 C   0  0  0  0  0  1  0  0  0  0  0  0
  191.9160  177.0010  141.6150 S   0  0  0  0  0  0  0  0  0  0  0  0
  2  5  1  6  0  0  0
  2  7  1  0  0  0  0
  3 21  1  0  0  0  0
  4 16  1  1  0  0  0
  4  5  1  0  0  0  0
  4 12  1  0  0  0  0
  7  9  1  0  0  0  0
  7 11  1  0  0  0  0
  8 10  1  0  0  0  0
  9 18  1  0  0  0  0
 10 19  1  0  0  0  0
 10 17  2  0  0  0  0
 11  1  1  0  0  0  0
 11 22  1  0  0  0  0
 12 24  1  0  0  0  0
 12 20  1  0  0  0  0
 13  1  1  0  0  0  0
 13 19  1  0  0  0  0
 14  2  1  0  0  0  0
 14  3  1  0  0  0  0
 15 21  1  0  0  0  0
 15  8  1  0  0  0  0
 18  6  1  0  0  0  0
 20  9  1  0  0  0  0
 21 13  1  0  0  0  0
 22  6  1  0  0  0  0
 24 23  1  0  0  0  0
 25 15  1  0  0  0  0
 26 27  1  0  0  0  0
 27 25  1  0  0  0  0
M  END
>  <MODEL>
7

>  <REMARK>
 VINA RESULT:      -6.8      3.386      6.477
  Name = 
  3 active torsions:
  status: ('A' for Active; 'I' for Inactive)
    1  A    between atoms: S_12  and  C_14
    2  A    between atoms: C_14  and  C_20
    3  A    between atoms: O_16  and  C_17
                            x       y       z     vdW  Elec       q    Type
                         _______ _______ _______ _____ _____    ______ ____

>  <TORSDO>
F 3

$$$$
=
 OpenBabel11052413543D

 27 30  0  0  1  0  0  0  0  0999 V2000
  182.5670  179.7510  143.5960 C   0  0  0  0  0  2  0  0  0  0  0  0
  182.6980  178.5130  140.6830 C   0  0  1  0  0  3  0  0  0  0  0  0
  184.7600  178.8800  141.9550 N   0  0  0  0  0  2  0  0  0  0  0  0
  181.3630  178.3880  138.5120 C   0  0  1  0  0  3  0  0  0  0  0  0
  182.3240  177.6830  139.4620 C   0  0  0  0  0  2  0  0  0  0  0  0
  179.5170  179.3760  143.6710 C   0  0  0  0  0  2  0  0  0  0  0  0
  181.4990  178.4990  141.6560 C   0  0  2  0  0  3  0  0  0  0  0  0
  186.2270  178.2140  145.3350 N   0  0  0  0  0  2  0  0  0  0  0  0
  180.4710  179.6160  141.3710 C   0  0  2  0  0  3  0  0  0  0  0  0
  185.1480  178.5890  146.1970 C   0  0  0  0  0  0  0  0  0  0  0  0
  181.8330  178.4800  143.1620 C   0  0  2  0  0  3  0  0  0  0  0  0
  180.0450  178.8070  139.1670 C   0  0  2  0  0  3  0  0  0  0  0  0
  183.9440  179.4620  144.1950 C   0  0  1  0  0  3  0  0  0  0  0  0
  183.9610  177.8820  141.2610 C   0  0  0  0  0  2  0  0  0  0  0  0
  186.2170  178.4690  143.8960 C   0  0  2  0  0  3  0  0  0  0  0  0
  181.9830  179.4860  137.9160 O   0  0  0  0  0  1  0  0  0  0  0  0
  185.2950  178.5250  147.4440 O   0  0  0  0  0  0  0  0  0  0  0  0
  179.1900  179.4150  142.1800 C   0  0  0  0  0  2  0  0  0  0  0  0
  183.8120  178.9610  145.6290 C   0  0  0  0  0  2  0  0  0  0  0  0
  180.2030  179.9350  140.0140 O   0  0  0  0  0  0  0  0  0  0  0  0
  184.7820  178.4870  143.3570 C   0  0  2  0  0  3  0  0  0  0  0  0
  180.5530  178.2890  143.9800 C   0  0  0  0  0  2  0  0  0  0  0  0
  178.9310  176.9480  138.7030 C   0  0  0  0  0  1  0  0  0  0  0  0
  179.3760  177.7310  139.7690 O   0  0  0  0  0  0  0  0  0  0  0  0
  187.0530  177.4050  143.2050 C   0  0  0  0  0  2  0  0  0  0  0  0
  189.6680  177.9600  143.2970 C   0  0  0  0  0  1  0  0  0  0  0  0
  188.5760  177.1130  144.1220 S   0  0  0  0  0  0  0  0  0  0  0  0
  1 13  1  0  0  0  0
  2  5  1  6  0  0  0
  2 14  1  0  0  0  0
  2  7  1  0  0  0  0
  3 21  1  0  0  0  0
  4 16  1  1  0  0  0
  4 12  1  0  0  0  0
  4  5  1  0  0  0  0
  6 22  1  0  0  0  0
  7 11  1  0  0  0  0
  8 10  1  0  0  0  0
  9  7  1  0  0  0  0
  9 18  1  0  0  0  0
 10 17  2  0  0  0  0
 11  1  1  0  0  0  0
 11 22  1  0  0  0  0
 12 24  1  0  0  0  0
 12 20  1  0  0  0  0
 13 19  1  0  0  0  0
 14  3  1  0  0  0  0
 15  8  1  0  0  0  0
 18  6  1  0  0  0  0
 19 10  1  0  0  0  0
 20  9  1  0  0  0  0
 21 15  1  0  0  0  0
 21 13  1  0  0  0  0
 23 24  1  0  0  0  0
 25 15  1  0  0  0  0
 25 27  1  0  0  0  0
 26 27  1  0  0  0  0
M  END
>  <MODEL>
8

>  <REMARK>
 VINA RESULT:      -6.7      4.014      7.782
  Name = 
  3 active torsions:
  status: ('A' for Active; 'I' for Inactive)
    1  A    between atoms: S_12  and  C_14
    2  A    between atoms: C_14  and  C_20
    3  A    between atoms: O_16  and  C_17
                            x       y       z     vdW  Elec       q    Type
                         _______ _______ _______ _____ _____    ______ ____

>  <TORSDO>
F 3

$$$$
=
 OpenBabel11052413543D

 27 30  0  0  1  0  0  0  0  0999 V2000
  187.5640  177.1010  143.1950 C   0  0  0  0  0  2  0  0  0  0  0  0
  186.3380  178.2040  140.4910 C   0  0  1  0  0  3  0  0  0  0  0  0
  184.9050  177.9020  142.4550 N   0  0  0  0  0  2  0  0  0  0  0  0
  186.7650  178.2250  137.9750 C   0  0  1  0  0  3  0  0  0  0  0  0
  186.2170  178.9760  139.1830 C   0  0  0  0  0  2  0  0  0  0  0  0
  190.4160  177.4710  142.1090 C   0  0  0  0  0  2  0  0  0  0  0  0
  187.8120  178.2600  140.9440 C   0  0  2  0  0  3  0  0  0  0  0  0
  184.7950  178.7260  146.1050 N   0  0  0  0  0  2  0  0  0  0  0  0
  188.6760  177.1280  140.3440 C   0  0  2  0  0  3  0  0  0  0  0  0
  186.1230  178.3890  146.5170 C   0  0  0  0  0  0  0  0  0  0  0  0
  188.0640  178.3490  142.4630 C   0  0  2  0  0  3  0  0  0  0  0  0
  188.2380  177.8340  138.1080 C   0  0  2  0  0  3  0  0  0  0  0  0
  186.5060  177.4220  144.2520 C   0  0  1  0  0  3  0  0  0  0  0  0
  185.3720  178.8640  141.4700 C   0  0  0  0  0  2  0  0  0  0  0  0
  184.2710  178.4060  144.7790 C   0  0  2  0  0  3  0  0  0  0  0  0
  185.9830  177.1020  137.7020 O   0  0  0  0  0  1  0  0  0  0  0  0
  186.4510  178.5110  147.7260 O   0  0  0  0  0  0  0  0  0  0  0  0
  190.1630  177.3620  140.6070 C   0  0  0  0  0  2  0  0  0  0  0  0
  187.1560  177.9880  145.5090 C   0  0  0  0  0  2  0  0  0  0  0  0
  188.4240  176.7460  139.0010 O   0  0  0  0  0  0  0  0  0  0  0  0
  185.4020  178.3590  143.7450 C   0  0  2  0  0  3  0  0  0  0  0  0
  189.5540  178.5740  142.7350 C   0  0  0  0  0  2  0  0  0  0  0  0
  189.0550  179.6760  137.1870 C   0  0  0  0  0  1  0  0  0  0  0  0
  189.0670  178.9340  138.3680 O   0  0  0  0  0  0  0  0  0  0  0  0
  183.2220  179.4390  144.4040 C   0  0  0  0  0  2  0  0  0  0  0  0
  181.4850  179.0090  142.4160 C   0  0  0  0  0  1  0  0  0  0  0  0
  181.6740  178.6280  143.9680 S   0  0  0  0  0  0  0  0  0  0  0  0
  1 13  1  0  0  0  0
  2  5  1  6  0  0  0
  2  7  1  0  0  0  0
  2 14  1  0  0  0  0
  3 21  1  0  0  0  0
  4 16  1  1  0  0  0
  4 12  1  0  0  0  0
  4  5  1  0  0  0  0
  6 22  1  0  0  0  0
  7 11  1  0  0  0  0
  8 10  1  0  0  0  0
  9 18  1  0  0  0  0
  9  7  1  0  0  0  0
 10 17  2  0  0  0  0
 11 22  1  0  0  0  0
 11  1  1  0  0  0  0
 12 24  1  0  0  0  0
 12 20  1  0  0  0  0
 13 19  1  0  0  0  0
 14  3  1  0  0  0  0
 15  8  1  0  0  0  0
 18  6  1  0  0  0  0
 19 10  1  0  0  0  0
 20  9  1  0  0  0  0
 21 13  1  0  0  0  0
 21 15  1  0  0  0  0
 23 24  1  0  0  0  0
 25 15  1  0  0  0  0
 26 27  1  0  0  0  0
 27 25  1  0  0  0  0
M  END
>  <MODEL>
9

>  <REMARK>
 VINA RESULT:      -6.7      1.638      2.337
  Name = 
  3 active torsions:
  status: ('A' for Active; 'I' for Inactive)
    1  A    between atoms: S_12  and  C_14
    2  A    between atoms: C_14  and  C_20
    3  A    between atoms: O_16  and  C_17
                            x       y       z     vdW  Elec       q    Type
                         _______ _______ _______ _____ _____    ______ ____

>  <TORSDO>
F 3

$$$$
