=
 OpenBabel11052412183D

 30 34  0  0  1  0  0  0  0  0999 V2000
  191.1280  176.2930  137.1910 C   0  0  1  0  0  3  0  0  0  0  0  0
  193.5810  176.0420  136.9010 C   0  0  0  0  0  0  0  0  0  0  0  0
  190.1390  173.1460  135.6240 C   0  0  0  0  0  2  0  0  0  0  0  0
  189.8540  176.8430  136.4790 C   0  0  2  0  0  3  0  0  0  0  0  0
  190.8930  175.7360  138.5280 N   0  0  0  0  0  2  0  0  0  0  0  0
  188.2890  177.8190  139.9350 C   0  0  0  0  0  2  0  0  0  0  0  0
  187.4850  178.2390  135.3840 C   0  0  0  0  0  2  0  0  0  0  0  0
  188.8970  177.0470  138.7920 C   0  0  2  0  0  3  0  0  0  0  0  0
  190.0410  176.4780  140.7430 C   0  0  0  0  0  2  0  0  0  0  0  0
  187.2250  174.4800  135.8630 C   0  0  0  0  0  2  0  0  0  0  0  0
  189.4560  173.7550  136.8460 C   0  0  2  0  0  3  0  0  0  0  0  0
  190.2800  176.8100  139.2930 C   0  0  1  0  0  3  0  0  0  0  0  0
  188.9630  177.7250  137.4190 C   0  0  2  0  0  3  0  0  0  0  0  0
  194.7260  175.4250  136.3960 C   0  0  0  0  0  3  0  0  0  0  0  0
  186.2720  175.5050  135.9050 O   0  0  0  0  0  0  0  0  0  0  0  0
  186.2150  177.6360  134.7930 C   0  0  0  0  0  2  0  0  0  0  0  0
  189.3410  178.3640  141.9600 C   0  0  0  0  0  1  0  0  0  0  0  0
  193.7300  177.0440  137.8550 O   0  0  0  0  0  1  0  0  0  0  0  0
  190.9280  174.1820  134.8290 C   0  0  0  0  0  2  0  0  0  0  0  0
  194.6200  174.4110  135.4490 C   0  0  0  0  0  3  0  0  0  0  0  0
  188.8650  177.2510  141.1570 N   0  0  0  0  0  0  0  0  0  0  0  0
  192.2960  175.6530  136.4640 C   0  0  0  0  0  0  0  0  0  0  0  0
  189.1410  175.8910  135.7160 O   0  0  0  0  0  0  0  0  0  0  0  0
  188.7930  172.7650  137.5720 O   0  0  0  0  0  1  0  0  0  0  0  0
  188.5140  174.9360  136.5400 C   0  0  1  0  0  3  0  0  0  0  0  0
  186.3240  176.1200  134.6490 C   0  0  0  0  0  2  0  0  0  0  0  0
  186.9510  179.0440  137.5610 O   0  0  0  0  0  1  0  0  0  0  0  0
  193.3640  174.0180  134.9960 C   0  0  0  0  0  3  0  0  0  0  0  0
  192.1980  174.6170  135.4860 C   0  0  0  0  0  0  0  0  0  0  0  0
  187.5420  177.9760  136.8830 C   0  0  1  0  0  3  0  0  0  0  0  0
  1 22  1  6  0  0  0
  1  5  1  0  0  0  0
  2 18  1  0  0  0  0
  3 11  1  0  0  0  0
  4 23  1  1  0  0  0
  4  1  1  0  0  0  0
  4 13  1  0  0  0  0
  5 12  1  0  0  0  0
  6 21  1  0  0  0  0
  7 30  1  0  0  0  0
  8 12  1  0  0  0  0
  8  6  1  1  0  0  0
  9 21  1  0  0  0  0
 10 15  1  0  0  0  0
 10 25  1  0  0  0  0
 11 24  1  6  0  0  0
 12  9  1  1  0  0  0
 13  8  1  0  0  0  0
 14  2  2  0  0  0  0
 16  7  1  0  0  0  0
 19 29  1  0  0  0  0
 19  3  1  0  0  0  0
 20 14  1  0  0  0  0
 21 17  1  0  0  0  0
 22  2  1  0  0  0  0
 23 25  1  0  0  0  0
 25 11  1  0  0  0  0
 26 16  1  0  0  0  0
 26 15  1  0  0  0  0
 28 20  2  0  0  0  0
 28 29  1  0  0  0  0
 29 22  2  0  0  0  0
 30 13  1  0  0  0  0
 30 27  1  0  0  0  0
M  END
>  <MODEL>
1

>  <REMARK>
 VINA RESULT:      -6.9      0.000      0.000
  Name = 
  0 active torsions:
  status: ('A' for Active; 'I' for Inactive)
                            x       y       z     vdW  Elec       q    Type
                         _______ _______ _______ _____ _____    ______ ____

>  <TORSDO>
F 0

$$$$
=
 OpenBabel11052412183D

 30 34  0  0  1  0  0  0  0  0999 V2000
  183.7450  177.6930  140.4340 C   0  0  1  0  0  3  0  0  0  0  0  0
  184.5850  178.2290  142.7080 C   0  0  0  0  0  0  0  0  0  0  0  0
  180.7990  179.8510  140.4960 C   0  0  0  0  0  2  0  0  0  0  0  0
  182.7960  176.7190  139.6690 C   0  0  2  0  0  3  0  0  0  0  0  0
  184.4620  178.6480  139.5810 N   0  0  0  0  0  2  0  0  0  0  0  0
  185.1520  176.8090  136.5410 C   0  0  0  0  0  2  0  0  0  0  0  0
  181.3600  174.6480  138.1170 C   0  0  0  0  0  2  0  0  0  0  0  0
  184.2380  177.2070  137.6720 C   0  0  2  0  0  3  0  0  0  0  0  0
  186.0900  178.6240  137.7020 C   0  0  0  0  0  2  0  0  0  0  0  0
  180.1270  178.2270  137.8050 C   0  0  0  0  0  2  0  0  0  0  0  0
  181.6740  179.6190  139.2670 C   0  0  2  0  0  3  0  0  0  0  0  0
  185.1960  177.8360  138.6230 C   0  0  1  0  0  3  0  0  0  0  0  0
  183.4590  176.1010  138.3920 C   0  0  2  0  0  3  0  0  0  0  0  0
  184.4890  178.8030  143.9760 C   0  0  0  0  0  3  0  0  0  0  0  0
  180.1110  177.1430  136.9190 O   0  0  0  0  0  0  0  0  0  0  0  0
  180.0530  174.7770  137.3430 C   0  0  0  0  0  2  0  0  0  0  0  0
  187.4590  177.2150  136.4090 C   0  0  0  0  0  1  0  0  0  0  0  0
  185.8020  177.6790  142.3160 O   0  0  0  0  0  1  0  0  0  0  0  0
  180.9590  178.7460  141.5350 C   0  0  0  0  0  2  0  0  0  0  0  0
  183.2950  179.3750  144.4010 C   0  0  0  0  0  3  0  0  0  0  0  0
  186.1620  177.8680  136.4460 N   0  0  0  0  0  0  0  0  0  0  0  0
  183.4760  178.2140  141.8340 C   0  0  0  0  0  0  0  0  0  0  0  0
  181.4810  177.1990  139.4760 O   0  0  0  0  0  0  0  0  0  0  0  0
  181.5380  180.6790  138.3700 O   0  0  0  0  0  1  0  0  0  0  0  0
  181.4530  178.2680  138.5590 C   0  0  1  0  0  3  0  0  0  0  0  0
  179.3920  176.1350  137.5710 C   0  0  0  0  0  2  0  0  0  0  0  0
  183.1330  174.6060  136.5290 O   0  0  0  0  0  1  0  0  0  0  0  0
  182.1850  179.3630  143.5610 C   0  0  0  0  0  3  0  0  0  0  0  0
  182.2520  178.7950  142.2840 C   0  0  0  0  0  0  0  0  0  0  0  0
  182.4610  175.4400  137.4230 C   0  0  1  0  0  3  0  0  0  0  0  0
  1  5  1  6  0  0  0
  1 22  1  0  0  0  0
  2 14  1  0  0  0  0
  3 19  1  0  0  0  0
  4 23  1  6  0  0  0
  4  1  1  0  0  0  0
  8  6  1  6  0  0  0
  8 13  1  0  0  0  0
  8 12  1  0  0  0  0
 10 25  1  0  0  0  0
 11 24  1  6  0  0  0
 11  3  1  0  0  0  0
 12  9  1  6  0  0  0
 12  5  1  0  0  0  0
 13  4  1  0  0  0  0
 14 20  2  0  0  0  0
 15 26  1  0  0  0  0
 15 10  1  0  0  0  0
 16 26  1  0  0  0  0
 16  7  1  0  0  0  0
 17 21  1  0  0  0  0
 18  2  1  0  0  0  0
 19 29  1  0  0  0  0
 21  6  1  0  0  0  0
 21  9  1  0  0  0  0
 22 29  1  0  0  0  0
 22  2  2  0  0  0  0
 25 11  1  0  0  0  0
 25 23  1  0  0  0  0
 27 30  1  0  0  0  0
 28 20  1  0  0  0  0
 29 28  2  0  0  0  0
 30  7  1  0  0  0  0
 30 13  1  0  0  0  0
M  END
>  <MODEL>
2

>  <REMARK>
 VINA RESULT:      -6.4      5.576      9.154
  Name = 
  0 active torsions:
  status: ('A' for Active; 'I' for Inactive)
                            x       y       z     vdW  Elec       q    Type
                         _______ _______ _______ _____ _____    ______ ____

>  <TORSDO>
F 0

$$$$
=
 OpenBabel11052412183D

 30 34  0  0  1  0  0  0  0  0999 V2000
  183.4580  179.1480  140.1950 C   0  0  1  0  0  3  0  0  0  0  0  0
  185.6980  179.1510  141.2680 C   0  0  0  0  0  0  0  0  0  0  0  0
  184.1920  176.7190  137.5690 C   0  0  0  0  0  2  0  0  0  0  0  0
  182.6300  179.8460  139.0730 C   0  0  2  0  0  3  0  0  0  0  0  0
  182.7230  178.1380  140.9650 N   0  0  0  0  0  2  0  0  0  0  0  0
  179.3510  179.4360  141.1780 C   0  0  0  0  0  2  0  0  0  0  0  0
  180.8820  181.4090  137.2660 C   0  0  0  0  0  2  0  0  0  0  0  0
  180.6190  179.1570  140.4110 C   0  0  2  0  0  3  0  0  0  0  0  0
  180.7190  177.9920  142.4290 C   0  0  0  0  0  2  0  0  0  0  0  0
  181.3350  177.7180  136.4900 C   0  0  0  0  0  2  0  0  0  0  0  0
  182.8620  176.8130  138.3120 C   0  0  2  0  0  3  0  0  0  0  0  0
  181.5690  178.8330  141.5130 C   0  0  1  0  0  3  0  0  0  0  0  0
  181.2030  180.2830  139.5510 C   0  0  2  0  0  3  0  0  0  0  0  0
  187.0510  178.8200  141.3440 C   0  0  0  0  0  3  0  0  0  0  0  0
  180.2760  178.6060  136.2660 O   0  0  0  0  0  0  0  0  0  0  0  0
  180.2750  180.9880  135.9330 C   0  0  0  0  0  2  0  0  0  0  0  0
  179.0680  179.2780  143.5010 C   0  0  0  0  0  1  0  0  0  0  0  0
  185.0970  179.7530  142.3690 O   0  0  0  0  0  1  0  0  0  0  0  0
  184.9970  178.0120  137.6620 C   0  0  0  0  0  2  0  0  0  0  0  0
  187.6860  178.2060  140.2690 C   0  0  0  0  0  3  0  0  0  0  0  0
  179.3480  178.5010  142.3060 N   0  0  0  0  0  0  0  0  0  0  0  0
  184.9480  178.8740  140.1040 C   0  0  0  0  0  0  0  0  0  0  0  0
  182.6550  179.1910  137.8210 O   0  0  0  0  0  0  0  0  0  0  0  0
  182.1860  175.5950  138.2470 O   0  0  0  0  0  1  0  0  0  0  0  0
  181.9510  177.9720  137.8630 C   0  0  1  0  0  3  0  0  0  0  0  0
  180.8050  179.6310  135.4730 C   0  0  0  0  0  2  0  0  0  0  0  0
  179.1460  181.3520  138.8940 O   0  0  0  0  0  1  0  0  0  0  0  0
  186.9710  177.9320  139.1070 C   0  0  0  0  0  3  0  0  0  0  0  0
  185.6120  178.2530  139.0030 C   0  0  0  0  0  0  0  0  0  0  0  0
  180.2360  180.6310  138.4060 C   0  0  1  0  0  3  0  0  0  0  0  0
  1 22  1  6  0  0  0
  1  5  1  0  0  0  0
  2 14  1  0  0  0  0
  2 18  1  0  0  0  0
  3 19  1  0  0  0  0
  3 11  1  0  0  0  0
  4 23  1  6  0  0  0
  4 13  1  0  0  0  0
  4  1  1  0  0  0  0
  5 12  1  0  0  0  0
  6 21  1  0  0  0  0
  7 30  1  0  0  0  0
  8  6  1  1  0  0  0
  8 12  1  0  0  0  0
 10 25  1  0  0  0  0
 11 24  1  6  0  0  0
 12  9  1  1  0  0  0
 13  8  1  0  0  0  0
 15 10  1  0  0  0  0
 16  7  1  0  0  0  0
 19 29  1  0  0  0  0
 20 14  2  0  0  0  0
 21  9  1  0  0  0  0
 21 17  1  0  0  0  0
 22  2  2  0  0  0  0
 23 25  1  0  0  0  0
 25 11  1  0  0  0  0
 26 16  1  0  0  0  0
 26 15  1  0  0  0  0
 28 20  1  0  0  0  0
 29 28  2  0  0  0  0
 29 22  1  0  0  0  0
 30 27  1  0  0  0  0
 30 13  1  0  0  0  0
M  END
>  <MODEL>
3

>  <REMARK>
 VINA RESULT:      -6.0      6.071      8.416
  Name = 
  0 active torsions:
  status: ('A' for Active; 'I' for Inactive)
                            x       y       z     vdW  Elec       q    Type
                         _______ _______ _______ _____ _____    ______ ____

>  <TORSDO>
F 0

$$$$
=
 OpenBabel11052412183D

 30 34  0  0  1  0  0  0  0  0999 V2000
  182.2760  175.3760  137.2070 C   0  0  1  0  0  3  0  0  0  0  0  0
  181.5470  173.0300  136.8460 C   0  0  0  0  0  0  0  0  0  0  0  0
  185.8040  174.9090  136.3860 C   0  0  0  0  0  2  0  0  0  0  0  0
  182.8410  176.3360  138.2990 C   0  0  2  0  0  3  0  0  0  0  0  0
  182.0260  176.0060  135.9050 N   0  0  0  0  0  2  0  0  0  0  0  0
  180.9040  179.3500  136.7140 C   0  0  0  0  0  2  0  0  0  0  0  0
  183.4990  178.2980  140.4150 C   0  0  0  0  0  2  0  0  0  0  0  0
  181.8230  178.1730  136.9220 C   0  0  2  0  0  3  0  0  0  0  0  0
  180.6370  177.8300  134.9430 C   0  0  0  0  0  2  0  0  0  0  0  0
  185.9980  177.8840  137.5860 C   0  0  0  0  0  2  0  0  0  0  0  0
  184.9900  176.1480  136.0240 C   0  0  2  0  0  3  0  0  0  0  0  0
  181.1080  177.1010  136.1740 C   0  0  1  0  0  3  0  0  0  0  0  0
  182.0820  177.7050  138.3580 C   0  0  2  0  0  3  0  0  0  0  0  0
  181.7660  171.6730  136.6100 C   0  0  0  0  0  3  0  0  0  0  0  0
  185.6670  178.9740  138.4000 O   0  0  0  0  0  0  0  0  0  0  0  0
  184.8070  179.0460  140.6440 C   0  0  0  0  0  2  0  0  0  0  0  0
  178.9310  179.3670  135.4450 C   0  0  0  0  0  1  0  0  0  0  0  0
  180.2420  173.5120  136.8060 O   0  0  0  0  0  1  0  0  0  0  0  0
  185.1730  174.1170  137.5270 C   0  0  0  0  0  2  0  0  0  0  0  0
  183.0570  171.1540  136.6290 C   0  0  0  0  0  3  0  0  0  0  0  0
  180.3720  179.2130  135.3560 N   0  0  0  0  0  0  0  0  0  0  0  0
  182.6260  173.9030  137.1100 C   0  0  0  0  0  0  0  0  0  0  0  0
  184.2500  176.4430  138.3270 O   0  0  0  0  0  0  0  0  0  0  0  0
  185.5720  176.8100  134.9420 O   0  0  0  0  0  1  0  0  0  0  0  0
  184.7370  177.1210  137.1920 C   0  0  1  0  0  3  0  0  0  0  0  0
  185.9110  178.5520  139.7120 C   0  0  0  0  0  2  0  0  0  0  0  0
  181.9480  179.8390  139.4710 O   0  0  0  0  0  1  0  0  0  0  0  0
  184.1350  171.9930  136.8980 C   0  0  0  0  0  3  0  0  0  0  0  0
  183.9460  173.3580  137.1370 C   0  0  0  0  0  0  0  0  0  0  0  0
  182.8220  178.8010  139.1460 C   0  0  1  0  0  3  0  0  0  0  0  0
  1  5  1  6  0  0  0
  1  4  1  0  0  0  0
  2 22  1  0  0  0  0
  3 19  1  0  0  0  0
  4 23  1  6  0  0  0
  4 13  1  0  0  0  0
  5 12  1  0  0  0  0
  7 16  1  0  0  0  0
  8  6  1  1  0  0  0
  8 13  1  0  0  0  0
  9 21  1  0  0  0  0
 10 15  1  0  0  0  0
 11 24  1  6  0  0  0
 11  3  1  0  0  0  0
 11 25  1  0  0  0  0
 12  9  1  6  0  0  0
 12  8  1  0  0  0  0
 13 30  1  0  0  0  0
 14 20  1  0  0  0  0
 14  2  2  0  0  0  0
 15 26  1  0  0  0  0
 18  2  1  0  0  0  0
 20 28  2  0  0  0  0
 21 17  1  0  0  0  0
 21  6  1  0  0  0  0
 22 29  2  0  0  0  0
 22  1  1  0  0  0  0
 25 10  1  0  0  0  0
 25 23  1  0  0  0  0
 26 16  1  0  0  0  0
 28 29  1  0  0  0  0
 29 19  1  0  0  0  0
 30 27  1  0  0  0  0
 30  7  1  0  0  0  0
M  END
>  <MODEL>
4

>  <REMARK>
 VINA RESULT:      -5.4      5.407      8.531
  Name = 
  0 active torsions:
  status: ('A' for Active; 'I' for Inactive)
                            x       y       z     vdW  Elec       q    Type
                         _______ _______ _______ _____ _____    ______ ____

>  <TORSDO>
F 0

$$$$
=
 OpenBabel11052412183D

 30 34  0  0  1  0  0  0  0  0999 V2000
  183.3250  178.8570  138.9440 C   0  0  1  0  0  3  0  0  0  0  0  0
  185.7530  178.6280  139.4130 C   0  0  0  0  0  0  0  0  0  0  0  0
  183.0230  176.0530  136.6230 C   0  0  0  0  0  2  0  0  0  0  0  0
  182.3190  179.5420  137.9690 C   0  0  2  0  0  3  0  0  0  0  0  0
  182.7040  178.0730  140.0180 N   0  0  0  0  0  2  0  0  0  0  0  0
  179.6990  179.9080  140.8580 C   0  0  0  0  0  2  0  0  0  0  0  0
  180.3590  181.1420  136.4330 C   0  0  0  0  0  2  0  0  0  0  0  0
  180.6710  179.3440  139.8530 C   0  0  2  0  0  3  0  0  0  0  0  0
  181.1630  178.4210  141.9380 C   0  0  0  0  0  2  0  0  0  0  0  0
  180.1270  177.3620  136.1470 C   0  0  0  0  0  2  0  0  0  0  0  0
  181.9630  176.4430  137.6500 C   0  0  2  0  0  3  0  0  0  0  0  0
  181.8330  179.0030  140.7210 C   0  0  1  0  0  3  0  0  0  0  0  0
  181.1380  180.2540  138.7120 C   0  0  2  0  0  3  0  0  0  0  0  0
  187.0250  178.0960  139.2010 C   0  0  0  0  0  3  0  0  0  0  0  0
  179.1660  178.3750  136.0580 O   0  0  0  0  0  0  0  0  0  0  0  0
  179.3700  180.6710  135.3730 C   0  0  0  0  0  2  0  0  0  0  0  0
  180.0310  180.0690  143.1750 C   0  0  0  0  0  1  0  0  0  0  0  0
  185.5480  179.4420  140.5230 O   0  0  0  0  0  1  0  0  0  0  0  0
  183.9770  177.2020  136.3140 C   0  0  0  0  0  2  0  0  0  0  0  0
  187.2680  177.2680  138.1100 C   0  0  0  0  0  3  0  0  0  0  0  0
  179.8830  179.1240  142.0820 N   0  0  0  0  0  0  0  0  0  0  0  0
  184.6910  178.3400  138.5290 C   0  0  0  0  0  0  0  0  0  0  0  0
  181.9270  178.7500  136.8650 O   0  0  0  0  0  0  0  0  0  0  0  0
  181.1490  175.3490  137.9430 O   0  0  0  0  0  1  0  0  0  0  0  0
  181.1150  177.6720  137.2680 C   0  0  1  0  0  3  0  0  0  0  0  0
  179.5860  179.2030  135.0110 C   0  0  0  0  0  2  0  0  0  0  0  0
  179.1280  181.5530  138.4300 O   0  0  0  0  0  1  0  0  0  0  0  0
  186.2400  176.9780  137.2180 C   0  0  0  0  0  3  0  0  0  0  0  0
  184.9540  177.4970  137.4070 C   0  0  0  0  0  0  0  0  0  0  0  0
  179.9500  180.6160  137.8030 C   0  0  1  0  0  3  0  0  0  0  0  0
  1 22  1  6  0  0  0
  1  5  1  0  0  0  0
  2 18  1  0  0  0  0
  3 11  1  0  0  0  0
  4 23  1  6  0  0  0
  4 13  1  0  0  0  0
  4  1  1  0  0  0  0
  5 12  1  0  0  0  0
  6 21  1  0  0  0  0
  7 30  1  0  0  0  0
  8 12  1  0  0  0  0
  8  6  1  1  0  0  0
  9 21  1  0  0  0  0
 10 25  1  0  0  0  0
 11 24  1  6  0  0  0
 12  9  1  1  0  0  0
 13  8  1  0  0  0  0
 14  2  1  0  0  0  0
 15 10  1  0  0  0  0
 16  7  1  0  0  0  0
 19  3  1  0  0  0  0
 19 29  1  0  0  0  0
 20 14  2  0  0  0  0
 21 17  1  0  0  0  0
 22  2  2  0  0  0  0
 23 25  1  0  0  0  0
 25 11  1  0  0  0  0
 26 16  1  0  0  0  0
 26 15  1  0  0  0  0
 28 29  2  0  0  0  0
 28 20  1  0  0  0  0
 29 22  1  0  0  0  0
 30 27  1  0  0  0  0
 30 13  1  0  0  0  0
M  END
>  <MODEL>
5

>  <REMARK>
 VINA RESULT:      -5.2      6.059      8.295
  Name = 
  0 active torsions:
  status: ('A' for Active; 'I' for Inactive)
                            x       y       z     vdW  Elec       q    Type
                         _______ _______ _______ _____ _____    ______ ____

>  <TORSDO>
F 0

$$$$
=
 OpenBabel11052412183D

 30 34  0  0  1  0  0  0  0  0999 V2000
  181.1010  176.5780  140.2190 C   0  0  1  0  0  3  0  0  0  0  0  0
  179.7750  174.5990  139.5170 C   0  0  0  0  0  0  0  0  0  0  0  0
  182.3030  177.5430  136.9080 C   0  0  0  0  0  2  0  0  0  0  0  0
  182.5330  177.0040  140.6680 C   0  0  2  0  0  3  0  0  0  0  0  0
  180.1120  177.6610  140.2080 N   0  0  0  0  0  2  0  0  0  0  0  0
  181.0260  179.7520  143.0180 C   0  0  0  0  0  2  0  0  0  0  0  0
  185.0910  177.7970  141.9280 C   0  0  0  0  0  2  0  0  0  0  0  0
  181.3830  178.9210  141.8120 C   0  0  2  0  0  3  0  0  0  0  0  0
  179.0760  179.2670  141.7990 C   0  0  0  0  0  2  0  0  0  0  0  0
  184.1580  179.4960  138.6610 C   0  0  0  0  0  2  0  0  0  0  0  0
  181.9000  178.5280  138.0020 C   0  0  2  0  0  3  0  0  0  0  0  0
  180.1070  178.1940  141.5620 C   0  0  1  0  0  3  0  0  0  0  0  0
  182.5260  177.9100  141.9460 C   0  0  2  0  0  3  0  0  0  0  0  0
  179.3440  173.6420  138.5990 C   0  0  0  0  0  3  0  0  0  0  0  0
  184.9070  179.9210  139.7650 O   0  0  0  0  0  0  0  0  0  0  0  0
  186.2050  178.6650  141.3530 C   0  0  0  0  0  2  0  0  0  0  0  0
  178.9330  179.8420  144.0750 C   0  0  0  0  0  1  0  0  0  0  0  0
  179.1450  174.6650  140.7560 O   0  0  0  0  0  1  0  0  0  0  0  0
  182.6290  176.1620  137.4670 C   0  0  0  0  0  2  0  0  0  0  0  0
  179.9400  173.5520  137.3450 C   0  0  0  0  0  3  0  0  0  0  0  0
  179.6270  180.1480  142.8360 N   0  0  0  0  0  0  0  0  0  0  0  0
  180.8210  175.4920  139.1960 C   0  0  0  0  0  0  0  0  0  0  0  0
  183.3710  177.4630  139.6260 O   0  0  0  0  0  0  0  0  0  0  0  0
  181.5570  179.7590  137.4420 O   0  0  0  0  0  1  0  0  0  0  0  0
  182.9380  178.7070  139.1270 C   0  0  1  0  0  3  0  0  0  0  0  0
  185.9570  179.0030  139.8840 C   0  0  0  0  0  2  0  0  0  0  0  0
  183.9020  179.1140  143.5160 O   0  0  0  0  0  1  0  0  0  0  0  0
  180.9800  174.4130  137.0100 C   0  0  0  0  0  3  0  0  0  0  0  0
  181.4320  175.3840  137.9110 C   0  0  0  0  0  0  0  0  0  0  0  0
  183.8550  178.6440  142.2030 C   0  0  1  0  0  3  0  0  0  0  0  0
  1 22  1  6  0  0  0
  1  4  1  0  0  0  0
  2 18  1  0  0  0  0
  3 19  1  0  0  0  0
  3 11  1  0  0  0  0
  4 23  1  6  0  0  0
  4 13  1  0  0  0  0
  5  1  1  0  0  0  0
  5 12  1  0  0  0  0
  7 30  1  0  0  0  0
  8 13  1  0  0  0  0
  8  6  1  1  0  0  0
  9 21  1  0  0  0  0
 10 25  1  0  0  0  0
 10 15  1  0  0  0  0
 11 24  1  6  0  0  0
 11 25  1  0  0  0  0
 12  9  1  6  0  0  0
 12  8  1  0  0  0  0
 13 30  1  0  0  0  0
 14  2  2  0  0  0  0
 15 26  1  0  0  0  0
 16  7  1  0  0  0  0
 19 29  1  0  0  0  0
 20 14  1  0  0  0  0
 21  6  1  0  0  0  0
 21 17  1  0  0  0  0
 22  2  1  0  0  0  0
 25 23  1  0  0  0  0
 26 16  1  0  0  0  0
 28 20  2  0  0  0  0
 28 29  1  0  0  0  0
 29 22  2  0  0  0  0
 30 27  1  0  0  0  0
M  END
>  <MODEL>
6

>  <REMARK>
 VINA RESULT:      -5.2      6.984     10.007
  Name = 
  0 active torsions:
  status: ('A' for Active; 'I' for Inactive)
                            x       y       z     vdW  Elec       q    Type
                         _______ _______ _______ _____ _____    ______ ____

>  <TORSDO>
F 0

$$$$
=
 OpenBabel11052412183D

 30 34  0  0  1  0  0  0  0  0999 V2000
  190.3580  176.2980  139.0950 C   0  0  1  0  0  3  0  0  0  0  0  0
  190.3780  177.1610  141.4230 C   0  0  0  0  0  0  0  0  0  0  0  0
  187.8260  178.5710  137.7670 C   0  0  0  0  0  2  0  0  0  0  0  0
  189.6520  175.2570  138.1730 C   0  0  2  0  0  3  0  0  0  0  0  0
  191.4280  177.0650  138.4470 N   0  0  0  0  0  2  0  0  0  0  0  0
  192.9680  174.7220  136.1590 C   0  0  0  0  0  2  0  0  0  0  0  0
  188.6610  173.0280  136.4970 C   0  0  0  0  0  2  0  0  0  0  0  0
  191.7560  175.3420  136.8050 C   0  0  2  0  0  3  0  0  0  0  0  0
  193.6100  176.6570  137.3260 C   0  0  0  0  0  2  0  0  0  0  0  0
  188.0000  176.5600  135.2660 C   0  0  0  0  0  2  0  0  0  0  0  0
  189.0550  178.1000  136.9940 C   0  0  2  0  0  3  0  0  0  0  0  0
  192.3690  176.0740  137.9490 C   0  0  1  0  0  3  0  0  0  0  0  0
  190.6600  174.4060  137.3290 C   0  0  2  0  0  3  0  0  0  0  0  0
  189.8940  177.9390  142.4740 C   0  0  0  0  0  3  0  0  0  0  0  0
  188.1900  175.3470  134.5940 O   0  0  0  0  0  0  0  0  0  0  0  0
  187.7400  173.0870  135.2830 C   0  0  0  0  0  2  0  0  0  0  0  0
  195.1980  174.9930  136.8370 C   0  0  0  0  0  1  0  0  0  0  0  0
  191.5900  176.4980  141.5880 O   0  0  0  0  0  1  0  0  0  0  0  0
  187.4880  177.6450  138.9310 C   0  0  0  0  0  2  0  0  0  0  0  0
  188.6920  178.6280  142.3450 C   0  0  0  0  0  3  0  0  0  0  0  0
  194.0480  175.7020  136.3020 N   0  0  0  0  0  0  0  0  0  0  0  0
  189.6610  177.0540  140.2110 C   0  0  0  0  0  0  0  0  0  0  0  0
  188.5500  175.7590  137.4430 O   0  0  0  0  0  0  0  0  0  0  0  0
  189.3600  179.0030  135.9750 O   0  0  0  0  0  1  0  0  0  0  0  0
  188.9630  176.6630  136.4450 C   0  0  1  0  0  3  0  0  0  0  0  0
  187.1850  174.4930  135.0640 C   0  0  0  0  0  2  0  0  0  0  0  0
  190.8720  172.6430  135.7000 O   0  0  0  0  0  1  0  0  0  0  0  0
  187.9620  178.5300  141.1630 C   0  0  0  0  0  3  0  0  0  0  0  0
  188.4240  177.7570  140.0920 C   0  0  0  0  0  0  0  0  0  0  0  0
  190.0140  173.6420  136.1590 C   0  0  1  0  0  3  0  0  0  0  0  0
  1  5  1  6  0  0  0
  1 22  1  0  0  0  0
  2 18  1  0  0  0  0
  2 14  1  0  0  0  0
  3 19  1  0  0  0  0
  4 23  1  6  0  0  0
  4  1  1  0  0  0  0
  6 21  1  0  0  0  0
  8  6  1  1  0  0  0
  8 13  1  0  0  0  0
  8 12  1  0  0  0  0
 10 25  1  0  0  0  0
 11 24  1  6  0  0  0
 11  3  1  0  0  0  0
 12  9  1  6  0  0  0
 12  5  1  0  0  0  0
 13  4  1  0  0  0  0
 15 26  1  0  0  0  0
 15 10  1  0  0  0  0
 16  7  1  0  0  0  0
 19 29  1  0  0  0  0
 20 14  2  0  0  0  0
 21 17  1  0  0  0  0
 21  9  1  0  0  0  0
 22  2  2  0  0  0  0
 25 11  1  0  0  0  0
 25 23  1  0  0  0  0
 26 16  1  0  0  0  0
 27 30  1  0  0  0  0
 28 20  1  0  0  0  0
 29 22  1  0  0  0  0
 29 28  2  0  0  0  0
 30  7  1  0  0  0  0
 30 13  1  0  0  0  0
M  END
>  <MODEL>
7

>  <REMARK>
 VINA RESULT:      -5.2      1.763      5.526
  Name = 
  0 active torsions:
  status: ('A' for Active; 'I' for Inactive)
                            x       y       z     vdW  Elec       q    Type
                         _______ _______ _______ _____ _____    ______ ____

>  <TORSDO>
F 0

$$$$
=
 OpenBabel11052412183D

 30 34  0  0  1  0  0  0  0  0999 V2000
  183.4290  176.3670  138.4760 C   0  0  1  0  0  3  0  0  0  0  0  0
  182.8270  177.8190  140.3980 C   0  0  0  0  0  0  0  0  0  0  0  0
  180.1880  176.4400  136.7930 C   0  0  0  0  0  2  0  0  0  0  0  0
  183.4370  174.8780  138.0130 C   0  0  2  0  0  3  0  0  0  0  0  0
  183.9870  177.3150  137.5050 N   0  0  0  0  0  2  0  0  0  0  0  0
  186.6830  175.5010  135.9110 C   0  0  0  0  0  2  0  0  0  0  0  0
  183.8760  172.0540  137.2430 C   0  0  0  0  0  2  0  0  0  0  0  0
  185.2820  175.5810  136.4620 C   0  0  2  0  0  3  0  0  0  0  0  0
  186.1370  177.7470  136.3330 C   0  0  0  0  0  2  0  0  0  0  0  0
  181.5650  174.1190  135.0470 C   0  0  0  0  0  2  0  0  0  0  0  0
  181.5350  176.4460  136.0740 C   0  0  2  0  0  3  0  0  0  0  0  0
  185.3400  176.8490  137.2420 C   0  0  1  0  0  3  0  0  0  0  0  0
  184.7990  174.4460  137.3710 C   0  0  2  0  0  3  0  0  0  0  0  0
  181.9340  178.5310  141.1990 C   0  0  0  0  0  3  0  0  0  0  0  0
  182.4070  173.0350  134.7730 O   0  0  0  0  0  0  0  0  0  0  0  0
  183.1500  171.2340  136.1830 C   0  0  0  0  0  2  0  0  0  0  0  0
  188.3900  177.0820  136.2170 C   0  0  0  0  0  1  0  0  0  0  0  0
  184.1910  177.9690  140.6270 O   0  0  0  0  0  1  0  0  0  0  0  0
  180.2980  175.9100  138.2190 C   0  0  0  0  0  2  0  0  0  0  0  0
  180.5620  178.4180  140.9940 C   0  0  0  0  0  3  0  0  0  0  0  0
  187.0820  176.8810  135.6180 N   0  0  0  0  0  0  0  0  0  0  0  0
  182.3610  176.9720  139.3690 C   0  0  0  0  0  0  0  0  0  0  0  0
  182.2920  174.4730  137.2900 O   0  0  0  0  0  0  0  0  0  0  0  0
  181.3990  176.9880  134.7960 O   0  0  0  0  0  1  0  0  0  0  0  0
  182.2450  175.0790  136.0190 C   0  0  1  0  0  3  0  0  0  0  0  0
  181.9620  171.9940  135.5960 C   0  0  0  0  0  2  0  0  0  0  0  0
  186.0150  172.6240  136.3660 O   0  0  0  0  0  1  0  0  0  0  0  0
  180.0790  177.5810  139.9930 C   0  0  0  0  0  3  0  0  0  0  0  0
  180.9520  176.8570  139.1740 C   0  0  0  0  0  0  0  0  0  0  0  0
  184.7310  173.1270  136.5810 C   0  0  1  0  0  3  0  0  0  0  0  0
  1  5  1  6  0  0  0
  1 22  1  0  0  0  0
  2 18  1  0  0  0  0
  2 14  1  0  0  0  0
  3 19  1  0  0  0  0
  4 23  1  6  0  0  0
  4  1  1  0  0  0  0
  8  6  1  1  0  0  0
  8 12  1  0  0  0  0
  8 13  1  0  0  0  0
 10 25  1  0  0  0  0
 11 24  1  6  0  0  0
 11  3  1  0  0  0  0
 12  9  1  6  0  0  0
 12  5  1  0  0  0  0
 13  4  1  0  0  0  0
 15 10  1  0  0  0  0
 15 26  1  0  0  0  0
 16  7  1  0  0  0  0
 19 29  1  0  0  0  0
 20 14  2  0  0  0  0
 21  6  1  0  0  0  0
 21 17  1  0  0  0  0
 21  9  1  0  0  0  0
 22  2  2  0  0  0  0
 25 11  1  0  0  0  0
 25 23  1  0  0  0  0
 26 16  1  0  0  0  0
 27 30  1  0  0  0  0
 28 20  1  0  0  0  0
 29 22  1  0  0  0  0
 29 28  2  0  0  0  0
 30  7  1  0  0  0  0
 30 13  1  0  0  0  0
M  END
>  <MODEL>
8

>  <REMARK>
 VINA RESULT:      -5.1      5.011      8.681
  Name = 
  0 active torsions:
  status: ('A' for Active; 'I' for Inactive)
                            x       y       z     vdW  Elec       q    Type
                         _______ _______ _______ _____ _____    ______ ____

>  <TORSDO>
F 0

$$$$
=
 OpenBabel11052412183D

 30 34  0  0  1  0  0  0  0  0999 V2000
  180.6550  177.9260  138.2140 C   0  0  1  0  0  3  0  0  0  0  0  0
  180.0050  176.3220  136.4340 C   0  0  0  0  0  0  0  0  0  0  0  0
  184.0830  176.7550  138.6820 C   0  0  0  0  0  2  0  0  0  0  0  0
  180.6900  178.0980  139.7640 C   0  0  2  0  0  3  0  0  0  0  0  0
  181.1250  179.0910  137.4560 N   0  0  0  0  0  2  0  0  0  0  0  0
  180.0290  181.9410  139.3990 C   0  0  0  0  0  2  0  0  0  0  0  0
  180.3890  178.6550  142.6550 C   0  0  0  0  0  2  0  0  0  0  0  0
  180.6290  180.5630  139.2890 C   0  0  2  0  0  3  0  0  0  0  0  0
  180.5370  181.4880  137.1500 C   0  0  0  0  0  2  0  0  0  0  0  0
  183.9090  178.7080  141.2280 C   0  0  0  0  0  2  0  0  0  0  0  0
  183.6530  178.2190  138.7450 C   0  0  2  0  0  3  0  0  0  0  0  0
  180.2850  180.1980  137.8860 C   0  0  1  0  0  3  0  0  0  0  0  0
  180.1140  179.4750  140.2380 C   0  0  2  0  0  3  0  0  0  0  0  0
  180.2000  175.2010  135.6250 C   0  0  0  0  0  3  0  0  0  0  0  0
  183.3130  179.3920  142.2940 O   0  0  0  0  0  0  0  0  0  0  0  0
  181.4750  178.7750  143.7180 C   0  0  0  0  0  2  0  0  0  0  0  0
  178.9350  183.1220  137.6910 C   0  0  0  0  0  1  0  0  0  0  0  0
  178.9310  177.1620  136.1600 O   0  0  0  0  0  1  0  0  0  0  0  0
  182.9120  175.8010  138.8980 C   0  0  0  0  0  2  0  0  0  0  0  0
  181.2690  174.3430  135.8580 C   0  0  0  0  0  3  0  0  0  0  0  0
  180.2190  182.5700  138.0880 N   0  0  0  0  0  0  0  0  0  0  0  0
  180.8850  176.6060  137.5010 C   0  0  0  0  0  0  0  0  0  0  0  0
  181.9100  177.7280  140.3760 O   0  0  0  0  0  0  0  0  0  0  0  0
  184.7410  179.0530  138.4880 O   0  0  0  0  0  1  0  0  0  0  0  0
  182.9430  178.6290  140.0500 C   0  0  1  0  0  3  0  0  0  0  0  0
  182.8500  178.4000  143.1670 C   0  0  0  0  0  2  0  0  0  0  0  0
  179.6300  180.8550  142.1530 O   0  0  0  0  0  1  0  0  0  0  0  0
  182.1430  174.5970  136.9110 C   0  0  0  0  0  3  0  0  0  0  0  0
  181.9740  175.7130  137.7370 C   0  0  0  0  0  0  0  0  0  0  0  0
  180.4620  179.8350  141.6940 C   0  0  1  0  0  3  0  0  0  0  0  0
  1  5  1  6  0  0  0
  1  4  1  0  0  0  0
  2 22  1  0  0  0  0
  3 11  1  0  0  0  0
  3 19  1  0  0  0  0
  4 13  1  0  0  0  0
  4 23  1  6  0  0  0
  5 12  1  0  0  0  0
  7 16  1  0  0  0  0
  8  6  1  1  0  0  0
  8 13  1  0  0  0  0
  9 21  1  0  0  0  0
 10 15  1  0  0  0  0
 11 24  1  1  0  0  0
 11 25  1  0  0  0  0
 12  9  1  6  0  0  0
 12  8  1  0  0  0  0
 13 30  1  0  0  0  0
 14 20  1  0  0  0  0
 14  2  2  0  0  0  0
 15 26  1  0  0  0  0
 17 21  1  0  0  0  0
 18  2  1  0  0  0  0
 20 28  2  0  0  0  0
 21  6  1  0  0  0  0
 22 29  2  0  0  0  0
 22  1  1  0  0  0  0
 25 23  1  0  0  0  0
 25 10  1  0  0  0  0
 26 16  1  0  0  0  0
 28 29  1  0  0  0  0
 29 19  1  0  0  0  0
 30 27  1  0  0  0  0
 30  7  1  0  0  0  0
M  END
>  <MODEL>
9

>  <REMARK>
 VINA RESULT:      -5.0      7.224     10.345
  Name = 
  0 active torsions:
  status: ('A' for Active; 'I' for Inactive)
                            x       y       z     vdW  Elec       q    Type
                         _______ _______ _______ _____ _____    ______ ____

>  <TORSDO>
F 0

$$$$
