=
 OpenBabel11052414533D

 55 60  0  0  1  0  0  0  0  0999 V2000
  188.9090  178.3220  138.1370 C   0  0  0  0  0  2  0  0  0  0  0  0
  185.4390  173.8300  137.1790 C   0  0  0  0  0  2  0  0  0  0  0  0
  187.8900  170.8820  138.0300 O   0  0  0  0  0  0  0  0  0  0  0  0
  184.5750  176.4850  137.0020 C   0  0  0  0  0  2  0  0  0  0  0  0
  184.1060  176.0380  134.5960 C   0  0  0  0  0  2  0  0  0  0  0  0
  189.5420  172.2320  136.0250 C   0  0  0  0  0  2  0  0  0  0  0  0
  180.4230  174.9290  136.9780 C   0  0  0  0  0  2  0  0  0  0  0  0
  181.2900  175.4030  139.3150 C   0  0  2  0  0  3  0  0  0  0  0  0
  181.4400  176.8000  139.1700 O   0  0  0  0  0  0  0  0  0  0  0  0
  190.0080  172.4990  134.5940 C   0  0  0  0  0  2  0  0  0  0  0  0
  190.5390  174.3850  136.7560 C   0  0  2  0  0  3  0  0  0  0  0  0
  191.0080  174.6840  135.3370 C   0  0  0  0  0  2  0  0  0  0  0  0
  188.3450  174.7520  138.7710 C   0  0  0  0  0  2  0  0  0  0  0  0
  182.2360  176.7450  136.1170 C   0  0  1  0  0  3  0  0  0  0  0  0
  182.6180  175.8980  134.9050 C   0  0  0  0  0  2  0  0  0  0  0  0
  191.2610  173.3720  134.5940 C   0  0  0  0  0  2  0  0  0  0  0  0
  187.2320  179.9830  135.8200 C   0  0  0  0  0  2  0  0  0  0  0  0
  180.4270  176.6510  136.3660 S   0  0  0  0  0  0  0  0  0  0  0  0
  189.2450  173.5590  136.7210 C   0  0  2  0  0  3  0  0  0  0  0  0
  187.9490  177.7770  135.0360 C   0  0  0  0  0  0  0  0  0  0  0  0
  188.9620  177.1350  138.9790 N   0  0  2  0  0  0  0  0  0  0  0  0
  180.1260  174.8680  138.4720 C   0  0  1  0  0  3  0  0  0  0  0  0
  188.8610  177.0290  134.5940 O   0  0  0  0  0  0  0  0  0  0  0  0
  191.4090  175.6050  138.7730 C   0  0  2  0  0  3  0  0  0  0  0  0
  190.1900  177.2740  139.7800 C   0  0  0  0  0  2  0  0  0  0  0  0
  184.7460  174.2300  136.0220 O   0  0  0  0  0  0  0  0  0  0  0  0
  190.4350  175.6680  137.5880 C   0  0  2  0  0  3  0  0  0  0  0  0
  186.2500  172.5880  136.8960 C   0  0  0  0  0  2  0  0  0  0  0  0
  187.3100  172.2610  138.3130 S   0  0  2  0  0  0  0  0  0  0  0  0
  187.5140  180.1910  137.3050 C   0  0  0  0  0  2  0  0  0  0  0  0
  183.0860  176.3600  137.3560 C   0  0  2  0  0  3  0  0  0  0  0  0
  184.9650  175.6120  135.7870 C   0  0  2  0  0  0  0  0  0  0  0  0
  187.5010  178.8860  138.0880 C   0  0  0  0  0  2  0  0  0  0  0  0
  188.7210  173.3940  138.1550 C   0  0  2  0  0  3  0  0  0  0  0  0
  189.0040  175.9650  138.0850 C   0  0  1  0  0  3  0  0  0  0  0  0
  178.9310  175.5310  138.7640 O   0  0  0  0  0  1  0  0  0  0  0  0
  186.4310  175.8640  135.4060 C   0  0  0  0  0  2  0  0  0  0  0  0
  190.8250  176.0320  139.9920 O   0  0  0  0  0  0  0  0  0  0  0  0
  182.7340  177.1360  138.6750 C   0  0  1  0  0  0  0  0  0  0  0  0
  186.6950  177.2580  135.3550 O   0  0  0  0  0  0  0  0  0  0  0  0
  188.2030  179.1350  135.2190 O   0  0  0  0  0  0  0  0  0  0  0  0
  182.7270  178.6190  138.3800 C   0  0  0  0  0  0  0  0  0  0  0  0
  181.5890  179.2300  137.8680 O   0  0  0  0  0  0  0  0  0  0  0  0
  183.7650  179.3140  138.5620 O   0  0  0  0  0  1  0  0  0  0  0  0
  180.3810  173.7120  140.9740 C   0  0  0  0  0  1  0  0  0  0  0  0
  181.1450  175.0130  140.7880 C   0  0  0  0  0  2  0  0  0  0  0  0
  183.7900  176.9310  139.7930 C   0  0  0  0  0  2  0  0  0  0  0  0
  183.6570  177.8770  140.9790 C   0  0  0  0  0  1  0  0  0  0  0  0
  192.7000  176.3520  138.4630 C   0  0  0  0  0  2  0  0  0  0  0  0
  193.8720  175.3860  138.4550 C   0  0  0  0  0  2  0  0  0  0  0  0
  194.0200  173.1600  137.3920 C   0  0  0  0  0  1  0  0  0  0  0  0
  193.9390  174.6500  137.1290 C   0  0  2  0  0  3  0  0  0  0  0  0
  195.1160  175.0710  136.3860 N   0  0  0  0  0  2  0  0  0  0  0  0
  194.6440  175.6870  135.1590 C   0  0  0  0  0  2  0  0  0  0  0  0
  194.8000  177.1900  135.2550 C   0  0  0  0  0  1  0  0  0  0  0  0
  3 29  2  0  0  0  0
  4 31  1  0  0  0  0
  5 15  1  0  0  0  0
  5 32  1  0  0  0  0
  7 22  1  0  0  0  0
  8 46  1  1  0  0  0
  9  8  1  0  0  0  0
 10  6  1  0  0  0  0
 11 12  1  6  0  0  0
 11 27  1  0  0  0  0
 14 15  1  6  0  0  0
 14 18  1  0  0  0  0
 14 31  1  0  0  0  0
 16 10  1  0  0  0  0
 16 12  1  0  0  0  0
 17 30  1  0  0  0  0
 18  7  1  0  0  0  0
 19  6  1  1  0  0  0
 19 11  1  0  0  0  0
 19 34  1  0  0  0  0
 20 41  1  0  0  0  0
 20 40  1  0  0  0  0
 21  1  1  6  0  0  0
 21 25  1  0  0  0  0
 22 36  1  6  0  0  0
 22  8  1  0  0  0  0
 23 20  2  0  0  0  0
 24 49  1  6  0  0  0
 24 38  1  0  0  0  0
 25 38  1  0  0  0  0
 26  2  1  0  0  0  0
 27 35  1  0  0  0  0
 27 24  1  0  0  0  0
 28  2  1  0  0  0  0
 28 29  1  0  0  0  0
 30 33  1  0  0  0  0
 31 39  1  0  0  0  0
 32 26  1  0  0  0  0
 32  4  1  0  0  0  0
 33  1  1  0  0  0  0
 34 29  1  0  0  0  0
 34 13  1  0  0  0  0
 35 13  1  0  0  0  0
 35 21  1  0  0  0  0
 37 32  1  0  0  0  0
 39  9  1  0  0  0  0
 39 47  1  0  0  0  0
 40 37  1  0  0  0  0
 41 17  1  0  0  0  0
 42 44  1  0  0  0  0
 42 39  1  0  0  0  0
 43 42  2  0  0  0  0
 46 45  1  0  0  0  0
 47 48  1  0  0  0  0
 50 49  1  0  0  0  0
 52 51  1  0  0  0  0
 52 50  1  0  0  0  0
 53 52  1  0  0  0  0
 54 55  1  0  0  0  0
 54 53  1  0  0  0  0
M  END
>  <MODEL>
1

>  <REMARK>
 VINA RESULT:       7.3      0.000      0.000
  Name = 
  8 active torsions:
  status: ('A' for Active; 'I' for Inactive)
    1  A    between atoms: C_1  and  C_53
    2  A    between atoms: C_6  and  C_53
    3  A    between atoms: C_12  and  C_38
    4  A    between atoms: C_13  and  C_33
    5  A    between atoms: C_13  and  C_48
    6  A    between atoms: C_18  and  N_39
    7  A    between atoms: C_32  and  N_39
    8  A    between atoms: C_32  and  C_48
                            x       y       z     vdW  Elec       q    Type
                         _______ _______ _______ _____ _____    ______ ____

>  <TORSDO>
F 8

$$$$
=
 OpenBabel11052414533D

 55 60  0  0  1  0  0  0  0  0999 V2000
  186.0870  178.1850  140.4410 C   0  0  0  0  0  2  0  0  0  0  0  0
  185.3390  174.9320  135.7510 C   0  0  0  0  0  2  0  0  0  0  0  0
  189.0060  173.6260  135.2360 O   0  0  0  0  0  0  0  0  0  0  0  0
  183.2300  176.2240  137.0590 C   0  0  0  0  0  2  0  0  0  0  0  0
  182.8810  177.5110  134.9550 C   0  0  0  0  0  2  0  0  0  0  0  0
  189.5860  176.4950  135.2590 C   0  0  0  0  0  2  0  0  0  0  0  0
  180.4660  173.6950  134.6860 C   0  0  0  0  0  2  0  0  0  0  0  0
  181.1370  172.6310  136.8890 C   0  0  2  0  0  3  0  0  0  0  0  0
  180.5410  173.5900  137.7400 O   0  0  0  0  0  0  0  0  0  0  0  0
  189.7450  177.8610  134.5940 C   0  0  0  0  0  2  0  0  0  0  0  0
  189.3930  177.5920  137.4780 C   0  0  2  0  0  3  0  0  0  0  0  0
  189.5400  178.9700  136.8420 C   0  0  0  0  0  2  0  0  0  0  0  0
  187.4730  175.4740  138.3930 C   0  0  0  0  0  2  0  0  0  0  0  0
  181.0290  176.0720  135.8530 C   0  0  1  0  0  3  0  0  0  0  0  0
  181.7010  176.6150  134.5940 C   0  0  0  0  0  2  0  0  0  0  0  0
  190.3720  178.8600  135.5660 C   0  0  0  0  0  2  0  0  0  0  0  0
  183.6330  180.1250  139.3640 C   0  0  0  0  0  2  0  0  0  0  0  0
  179.5450  175.1160  135.3750 S   0  0  0  0  0  0  0  0  0  0  0  0
  188.7050  176.6300  136.4990 C   0  0  2  0  0  3  0  0  0  0  0  0
  185.3170  179.7210  137.6330 C   0  0  0  0  0  0  0  0  0  0  0  0
  186.8000  176.9260  140.2740 N   0  0  2  0  0  0  0  0  0  0  0  0
  180.3520  172.4670  135.5830 C   0  0  1  0  0  3  0  0  0  0  0  0
  186.4490  179.9780  137.1420 O   0  0  0  0  0  0  0  0  0  0  0  0
  189.6620  177.1830  139.9430 C   0  0  2  0  0  3  0  0  0  0  0  0
  187.8390  176.9210  141.3180 C   0  0  0  0  0  2  0  0  0  0  0  0
  184.4560  175.7140  134.9830 O   0  0  0  0  0  0  0  0  0  0  0  0
  188.7100  177.6820  138.8470 C   0  0  2  0  0  3  0  0  0  0  0  0
  186.6470  174.7550  135.0180 C   0  0  0  0  0  2  0  0  0  0  0  0
  187.8260  173.9730  136.1320 S   0  0  2  0  0  0  0  0  0  0  0  0
  183.8770  179.2870  140.6170 C   0  0  0  0  0  2  0  0  0  0  0  0
  182.0430  175.3020  136.7380 C   0  0  2  0  0  3  0  0  0  0  0  0
  183.9220  176.7570  135.7830 C   0  0  2  0  0  0  0  0  0  0  0  0
  184.5900  177.9770  140.3120 C   0  0  0  0  0  2  0  0  0  0  0  0
  188.4440  175.2950  137.2130 C   0  0  2  0  0  3  0  0  0  0  0  0
  187.3680  176.9200  138.9150 C   0  0  1  0  0  3  0  0  0  0  0  0
  179.0100  172.1570  135.8230 O   0  0  0  0  0  1  0  0  0  0  0  0
  185.0210  177.7600  136.1600 C   0  0  0  0  0  2  0  0  0  0  0  0
  189.0330  176.3160  140.8710 O   0  0  0  0  0  0  0  0  0  0  0  0
  181.4420  174.6540  138.0350 C   0  0  1  0  0  0  0  0  0  0  0  0
  184.5310  178.6950  137.1100 O   0  0  0  0  0  0  0  0  0  0  0  0
  184.8540  180.4630  138.7180 O   0  0  0  0  0  0  0  0  0  0  0  0
  180.6570  175.7070  138.7860 C   0  0  0  0  0  0  0  0  0  0  0  0
  179.2730  175.7680  138.6720 O   0  0  0  0  0  0  0  0  0  0  0  0
  181.2510  176.5630  139.4980 O   0  0  0  0  0  1  0  0  0  0  0  0
  182.6540  170.6380  137.2930 C   0  0  0  0  0  1  0  0  0  0  0  0
  181.3190  171.2930  137.6090 C   0  0  0  0  0  2  0  0  0  0  0  0
  182.5330  174.1560  139.0200 C   0  0  0  0  0  2  0  0  0  0  0  0
  183.9460  174.1360  138.4510 C   0  0  0  0  0  1  0  0  0  0  0  0
  190.3650  178.3470  140.6300 C   0  0  0  0  0  2  0  0  0  0  0  0
  191.6030  177.8540  141.3580 C   0  0  0  0  0  2  0  0  0  0  0  0
  191.9640  176.7600  143.5450 C   0  0  0  0  0  1  0  0  0  0  0  0
  191.4260  177.9990  142.8580 C   0  0  2  0  0  3  0  0  0  0  0  0
  190.0160  178.1510  143.1790 N   0  0  0  0  0  2  0  0  0  0  0  0
  189.7030  177.1620  144.1950 C   0  0  0  0  0  2  0  0  0  0  0  0
  189.2430  177.8620  145.4560 C   0  0  0  0  0  1  0  0  0  0  0  0
  3 29  2  0  0  0  0
  5 32  1  0  0  0  0
  7 18  1  0  0  0  0
  7 22  1  0  0  0  0
  8 46  1  1  0  0  0
  8  9  1  0  0  0  0
  9 39  1  0  0  0  0
 10  6  1  0  0  0  0
 10 16  1  0  0  0  0
 11 12  1  6  0  0  0
 11 27  1  0  0  0  0
 13 35  1  0  0  0  0
 14 15  1  6  0  0  0
 14 31  1  0  0  0  0
 15  5  1  0  0  0  0
 16 12  1  0  0  0  0
 17 30  1  0  0  0  0
 18 14  1  0  0  0  0
 19  6  1  6  0  0  0
 19 34  1  0  0  0  0
 19 11  1  0  0  0  0
 20 41  1  0  0  0  0
 21  1  1  6  0  0  0
 21 25  1  0  0  0  0
 22 36  1  1  0  0  0
 22  8  1  0  0  0  0
 23 20  2  0  0  0  0
 24 49  1  1  0  0  0
 24 38  1  0  0  0  0
 26  2  1  0  0  0  0
 26 32  1  0  0  0  0
 27 35  1  0  0  0  0
 27 24  1  0  0  0  0
 28  2  1  0  0  0  0
 28 29  1  0  0  0  0
 29 34  1  0  0  0  0
 31  4  1  0  0  0  0
 31 39  1  0  0  0  0
 32 37  1  0  0  0  0
 32  4  1  0  0  0  0
 33  1  1  0  0  0  0
 33 30  1  0  0  0  0
 34 13  1  0  0  0  0
 35 21  1  0  0  0  0
 37 40  1  0  0  0  0
 38 25  1  0  0  0  0
 39 42  1  0  0  0  0
 39 47  1  0  0  0  0
 40 20  1  0  0  0  0
 41 17  1  0  0  0  0
 42 44  1  0  0  0  0
 43 42  2  0  0  0  0
 45 46  1  0  0  0  0
 48 47  1  0  0  0  0
 49 50  1  0  0  0  0
 50 52  1  0  0  0  0
 52 53  1  0  0  0  0
 52 51  1  0  0  0  0
 53 54  1  0  0  0  0
 54 55  1  0  0  0  0
M  END
>  <MODEL>
2

>  <REMARK>
 VINA RESULT:       9.4      2.857      4.374
  Name = 
  8 active torsions:
  status: ('A' for Active; 'I' for Inactive)
    1  A    between atoms: C_1  and  C_53
    2  A    between atoms: C_6  and  C_53
    3  A    between atoms: C_12  and  C_38
    4  A    between atoms: C_13  and  C_33
    5  A    between atoms: C_13  and  C_48
    6  A    between atoms: C_18  and  N_39
    7  A    between atoms: C_32  and  N_39
    8  A    between atoms: C_32  and  C_48
                            x       y       z     vdW  Elec       q    Type
                         _______ _______ _______ _____ _____    ______ ____

>  <TORSDO>
F 8

$$$$
