=
 OpenBabel11052412423D

 25 27  0  0  1  0  0  0  0  0999 V2000
  187.2370  177.5550  145.0150 C   0  0  1  0  0  3  0  0  0  0  0  0
  187.9490  176.6970  143.9550 C   0  0  1  0  0  3  0  0  0  0  0  0
  189.6020  178.3340  145.6160 C   0  0  0  0  0  2  0  0  0  0  0  0
  189.8430  176.8300  145.6990 C   0  0  0  0  0  2  0  0  0  0  0  0
  190.1990  175.9760  143.2560 C   0  0  1  0  0  0  0  0  0  0  0  0
  190.1870  174.6490  142.8280 O   0  0  0  0  0  1  0  0  0  0  0  0
  188.3050  177.4820  142.7050 C   0  0  0  0  0  2  0  0  0  0  0  0
  188.1050  178.6630  145.6310 C   0  0  0  0  0  2  0  0  0  0  0  0
  191.6500  176.3490  143.5670 C   0  0  0  0  0  1  0  0  0  0  0  0
  189.5570  176.8330  142.1510 C   0  0  1  0  0  3  0  0  0  0  0  0
  189.2620  176.0900  144.4730 C   0  0  2  0  0  3  0  0  0  0  0  0
  185.8700  178.0200  144.6000 C   0  0  0  0  0  0  0  0  0  0  0  0
  183.3630  178.9150  143.7140 C   0  0  0  0  0  3  0  0  0  0  0  0
  184.9130  178.4830  145.5270 C   0  0  0  0  0  0  0  0  0  0  0  0
  183.6640  178.9250  145.0780 C   0  0  0  0  0  3  0  0  0  0  0  0
  184.3100  178.4620  142.7930 C   0  0  0  0  0  3  0  0  0  0  0  0
  185.1770  178.5030  146.8560 F   0  0  0  0  0  0  0  0  0  0  0  0
  185.5590  178.0190  143.2350 C   0  0  0  0  0  3  0  0  0  0  0  0
  190.6310  178.0180  141.2460 S   0  0  0  0  0  0  0  0  0  0  0  0
  190.2910  177.3430  139.5870 C   0  0  0  0  0  2  0  0  0  0  0  0
  188.9880  177.8980  139.0430 C   0  0  1  0  0  3  0  0  0  0  0  0
  188.5310  178.9000  139.8770 F   0  0  0  0  0  0  0  0  0  0  0  0
  189.1880  178.4460  137.6690 C   0  0  0  0  0  0  0  0  0  0  0  0
  189.5780  177.6100  136.6310 O   0  0  0  0  0  0  0  0  0  0  0  0
  188.9860  179.6680  137.4480 O   0  0  0  0  0  1  0  0  0  0  0  0
  1 12  1  6  0  0  0
  1  8  1  0  0  0  0
  2  7  1  6  0  0  0
  2 11  1  0  0  0  0
  2  1  1  0  0  0  0
  3  8  1  0  0  0  0
  3  4  1  0  0  0  0
  5  9  1  1  0  0  0
  5 11  1  0  0  0  0
  6  5  1  0  0  0  0
 10 19  1  1  0  0  0
 10  7  1  0  0  0  0
 10  5  1  0  0  0  0
 11  4  1  1  0  0  0
 12 14  1  0  0  0  0
 13 15  1  0  0  0  0
 14 17  1  0  0  0  0
 15 14  2  0  0  0  0
 16 18  1  0  0  0  0
 16 13  2  0  0  0  0
 18 12  2  0  0  0  0
 20 19  1  0  0  0  0
 21 20  1  0  0  0  0
 21 22  1  1  0  0  0
 23 21  1  0  0  0  0
 24 23  2  0  0  0  0
 25 23  1  0  0  0  0
M  END
>  <MODEL>
1

>  <REMARK>
 VINA RESULT:      -7.1      0.000      0.000
  Name = 
  5 active torsions:
  status: ('A' for Active; 'I' for Inactive)
    1  A    between atoms: C_1  and  C_5
    2  A    between atoms: C_2  and  C_21
    3  A    between atoms: S_6  and  C_15
    4  A    between atoms: S_6  and  C_23
    5  A    between atoms: C_15  and  C_21
                            x       y       z     vdW  Elec       q    Type
                         _______ _______ _______ _____ _____    ______ ____

>  <TORSDO>
F 5

$$$$
=
 OpenBabel11052412423D

 25 27  0  0  1  0  0  0  0  0999 V2000
  187.5470  177.8430  143.8000 C   0  0  1  0  0  3  0  0  0  0  0  0
  188.9290  178.3370  144.2630 C   0  0  1  0  0  3  0  0  0  0  0  0
  188.8720  175.9740  142.6560 C   0  0  0  0  0  2  0  0  0  0  0  0
  189.6360  177.1630  142.0790 C   0  0  0  0  0  2  0  0  0  0  0  0
  191.3340  177.9400  143.9060 C   0  0  1  0  0  0  0  0  0  0  0  0
  192.0450  179.1390  143.9250 O   0  0  0  0  0  1  0  0  0  0  0  0
  189.4450  177.5850  145.4770 C   0  0  0  0  0  2  0  0  0  0  0  0
  187.5300  176.4070  143.2550 C   0  0  0  0  0  2  0  0  0  0  0  0
  192.2150  176.8900  143.2270 C   0  0  0  0  0  1  0  0  0  0  0  0
  190.9560  177.5940  145.3570 C   0  0  1  0  0  3  0  0  0  0  0  0
  190.0020  178.1900  143.1740 C   0  0  2  0  0  3  0  0  0  0  0  0
  186.4420  178.1310  144.7760 C   0  0  0  0  0  0  0  0  0  0  0  0
  184.4420  178.6080  146.6850 C   0  0  0  0  0  3  0  0  0  0  0  0
  185.1140  178.3710  144.3680 C   0  0  0  0  0  0  0  0  0  0  0  0
  184.1220  178.6100  145.3260 C   0  0  0  0  0  3  0  0  0  0  0  0
  185.7560  178.3650  147.0930 C   0  0  0  0  0  3  0  0  0  0  0  0
  184.7740  178.3810  143.0560 F   0  0  0  0  0  0  0  0  0  0  0  0
  186.7500  178.1250  146.1420 C   0  0  0  0  0  3  0  0  0  0  0  0
  191.7380  176.1190  146.1230 S   0  0  0  0  0  0  0  0  0  0  0  0
  191.6750  176.7450  147.8340 C   0  0  0  0  0  2  0  0  0  0  0  0
  192.7430  176.0820  148.6840 C   0  0  1  0  0  3  0  0  0  0  0  0
  193.6590  175.4530  147.8620 F   0  0  0  0  0  0  0  0  0  0  0  0
  193.4440  177.0950  149.5260 C   0  0  0  0  0  0  0  0  0  0  0  0
  192.8360  178.3120  149.8090 O   0  0  0  0  0  0  0  0  0  0  0  0
  194.5830  176.8400  149.9940 O   0  0  0  0  0  1  0  0  0  0  0  0
  1  2  1  0  0  0  0
  1 12  1  1  0  0  0
  2  7  1  1  0  0  0
  3  8  1  0  0  0  0
  4  3  1  0  0  0  0
  5  9  1  6  0  0  0
  5  6  1  0  0  0  0
  5 10  1  0  0  0  0
  8  1  1  0  0  0  0
 10  7  1  0  0  0  0
 10 19  1  6  0  0  0
 11  4  1  6  0  0  0
 11  5  1  0  0  0  0
 11  2  1  0  0  0  0
 12 18  1  0  0  0  0
 13 16  1  0  0  0  0
 14 12  2  0  0  0  0
 14 15  1  0  0  0  0
 15 13  2  0  0  0  0
 17 14  1  0  0  0  0
 18 16  2  0  0  0  0
 19 20  1  0  0  0  0
 20 21  1  0  0  0  0
 21 22  1  6  0  0  0
 21 23  1  0  0  0  0
 23 24  2  0  0  0  0
 23 25  1  0  0  0  0
M  END
>  <MODEL>
2

>  <REMARK>
 VINA RESULT:      -7.0      3.856      6.371
  Name = 
  5 active torsions:
  status: ('A' for Active; 'I' for Inactive)
    1  A    between atoms: C_1  and  C_5
    2  A    between atoms: C_2  and  C_21
    3  A    between atoms: S_6  and  C_15
    4  A    between atoms: S_6  and  C_23
    5  A    between atoms: C_15  and  C_21
                            x       y       z     vdW  Elec       q    Type
                         _______ _______ _______ _____ _____    ______ ____

>  <TORSDO>
F 5

$$$$
=
 OpenBabel11052412423D

 25 27  0  0  1  0  0  0  0  0999 V2000
  189.2570  177.3950  143.7320 C   0  0  1  0  0  3  0  0  0  0  0  0
  189.1420  176.8480  142.2980 C   0  0  1  0  0  3  0  0  0  0  0  0
  191.3410  178.5900  142.8450 C   0  0  0  0  0  2  0  0  0  0  0  0
  191.6970  177.1760  142.3970 C   0  0  0  0  0  2  0  0  0  0  0  0
  190.3920  176.7250  140.1790 C   0  0  1  0  0  0  0  0  0  0  0  0
  190.2030  175.4900  139.5600 O   0  0  0  0  0  1  0  0  0  0  0  0
  188.5030  177.8380  141.3410 C   0  0  0  0  0  2  0  0  0  0  0  0
  190.2200  178.5820  143.8890 C   0  0  0  0  0  2  0  0  0  0  0  0
  191.6400  177.3630  139.5680 C   0  0  0  0  0  1  0  0  0  0  0  0
  189.1080  177.5500  139.9820 C   0  0  1  0  0  3  0  0  0  0  0  0
  190.5070  176.4830  141.6950 C   0  0  2  0  0  3  0  0  0  0  0  0
  187.9330  177.5980  144.4120 C   0  0  0  0  0  0  0  0  0  0  0  0
  185.4210  178.0400  145.5810 C   0  0  0  0  0  3  0  0  0  0  0  0
  187.7910  177.5900  145.8150 C   0  0  0  0  0  0  0  0  0  0  0  0
  186.5350  177.8090  146.3910 C   0  0  0  0  0  3  0  0  0  0  0  0
  185.5580  178.0550  144.1910 C   0  0  0  0  0  3  0  0  0  0  0  0
  188.8550  177.3670  146.6250 F   0  0  0  0  0  0  0  0  0  0  0  0
  186.8100  177.8370  143.6110 C   0  0  0  0  0  3  0  0  0  0  0  0
  189.1970  179.0410  138.9130 S   0  0  0  0  0  0  0  0  0  0  0  0
  188.7460  178.1860  137.3680 C   0  0  0  0  0  2  0  0  0  0  0  0
  187.4220  178.7080  136.8380 C   0  0  1  0  0  3  0  0  0  0  0  0
  187.3120  178.3980  135.4950 F   0  0  0  0  0  0  0  0  0  0  0  0
  186.2840  178.0970  137.5840 C   0  0  0  0  0  0  0  0  0  0  0  0
  185.5860  178.8400  138.5290 O   0  0  0  0  0  1  0  0  0  0  0  0
  185.9450  176.9090  137.3460 O   0  0  0  0  0  0  0  0  0  0  0  0
  1  8  1  0  0  0  0
  1 12  1  6  0  0  0
  2  7  1  6  0  0  0
  2  1  1  0  0  0  0
  3  8  1  0  0  0  0
  4  3  1  0  0  0  0
  5  9  1  6  0  0  0
  5 11  1  0  0  0  0
  6  5  1  0  0  0  0
 10 19  1  1  0  0  0
 10  5  1  0  0  0  0
 10  7  1  0  0  0  0
 11  2  1  0  0  0  0
 11  4  1  1  0  0  0
 12 14  1  0  0  0  0
 13 15  1  0  0  0  0
 14 15  2  0  0  0  0
 14 17  1  0  0  0  0
 16 13  2  0  0  0  0
 18 16  1  0  0  0  0
 18 12  2  0  0  0  0
 20 19  1  0  0  0  0
 21 22  1  6  0  0  0
 21 20  1  0  0  0  0
 21 23  1  0  0  0  0
 23 24  1  0  0  0  0
 25 23  2  0  0  0  0
M  END
>  <MODEL>
3

>  <REMARK>
 VINA RESULT:      -7.0      2.218      3.122
  Name = 
  5 active torsions:
  status: ('A' for Active; 'I' for Inactive)
    1  A    between atoms: C_1  and  C_5
    2  A    between atoms: C_2  and  C_21
    3  A    between atoms: S_6  and  C_15
    4  A    between atoms: S_6  and  C_23
    5  A    between atoms: C_15  and  C_21
                            x       y       z     vdW  Elec       q    Type
                         _______ _______ _______ _____ _____    ______ ____

>  <TORSDO>
F 5

$$$$
=
 OpenBabel11052412423D

 25 27  0  0  1  0  0  0  0  0999 V2000
  187.0780  177.4720  145.2790 C   0  0  1  0  0  3  0  0  0  0  0  0
  187.9460  176.8160  144.1900 C   0  0  1  0  0  3  0  0  0  0  0  0
  189.3230  178.0740  146.3550 C   0  0  0  0  0  2  0  0  0  0  0  0
  189.5620  176.5770  146.1840 C   0  0  0  0  0  2  0  0  0  0  0  0
  190.2790  176.1960  143.7010 C   0  0  1  0  0  0  0  0  0  0  0  0
  190.3410  174.9750  143.0310 O   0  0  0  0  0  1  0  0  0  0  0  0
  188.4740  177.8170  143.1780 C   0  0  0  0  0  2  0  0  0  0  0  0
  187.8380  178.4250  146.2140 C   0  0  0  0  0  2  0  0  0  0  0  0
  191.6650  176.4730  144.2860 C   0  0  0  0  0  1  0  0  0  0  0  0
  189.7990  177.2600  142.6980 C   0  0  1  0  0  3  0  0  0  0  0  0
  189.1730  176.0960  144.7680 C   0  0  2  0  0  3  0  0  0  0  0  0
  185.7830  178.0340  144.7660 C   0  0  0  0  0  0  0  0  0  0  0  0
  183.4240  179.1210  143.7050 C   0  0  0  0  0  3  0  0  0  0  0  0
  184.7430  178.4450  145.6240 C   0  0  0  0  0  0  0  0  0  0  0  0
  183.5680  178.9830  145.0880 C   0  0  0  0  0  3  0  0  0  0  0  0
  184.4560  178.7210  142.8530 C   0  0  0  0  0  3  0  0  0  0  0  0
  184.8530  178.3220  146.9690 F   0  0  0  0  0  0  0  0  0  0  0  0
  185.6310  178.1830  143.3820 C   0  0  0  0  0  3  0  0  0  0  0  0
  190.9850  178.5730  142.2030 S   0  0  0  0  0  0  0  0  0  0  0  0
  191.7140  177.6470  140.8120 C   0  0  0  0  0  2  0  0  0  0  0  0
  190.6260  176.9960  139.9770 C   0  0  1  0  0  3  0  0  0  0  0  0
  189.7790  177.9720  139.4860 F   0  0  0  0  0  0  0  0  0  0  0  0
  191.2240  176.2380  138.8390 C   0  0  0  0  0  0  0  0  0  0  0  0
  190.4810  175.2700  138.1750 O   0  0  0  0  0  0  0  0  0  0  0  0
  192.4000  176.4890  138.4710 O   0  0  0  0  0  1  0  0  0  0  0  0
  1 12  1  6  0  0  0
  1  8  1  0  0  0  0
  2  7  1  6  0  0  0
  2 11  1  0  0  0  0
  2  1  1  0  0  0  0
  4  3  1  0  0  0  0
  5  9  1  1  0  0  0
  5 11  1  0  0  0  0
  6  5  1  0  0  0  0
  8  3  1  0  0  0  0
 10 19  1  1  0  0  0
 10  7  1  0  0  0  0
 10  5  1  0  0  0  0
 11  4  1  1  0  0  0
 12 14  1  0  0  0  0
 13 15  1  0  0  0  0
 14 17  1  0  0  0  0
 15 14  2  0  0  0  0
 16 18  1  0  0  0  0
 16 13  2  0  0  0  0
 18 12  2  0  0  0  0
 20 19  1  0  0  0  0
 21 22  1  6  0  0  0
 21 20  1  0  0  0  0
 23 21  1  0  0  0  0
 24 23  2  0  0  0  0
 25 23  1  0  0  0  0
M  END
>  <MODEL>
4

>  <REMARK>
 VINA RESULT:      -7.0      1.457      1.522
  Name = 
  5 active torsions:
  status: ('A' for Active; 'I' for Inactive)
    1  A    between atoms: C_1  and  C_5
    2  A    between atoms: C_2  and  C_21
    3  A    between atoms: S_6  and  C_15
    4  A    between atoms: S_6  and  C_23
    5  A    between atoms: C_15  and  C_21
                            x       y       z     vdW  Elec       q    Type
                         _______ _______ _______ _____ _____    ______ ____

>  <TORSDO>
F 5

$$$$
=
 OpenBabel11052412423D

 25 27  0  0  1  0  0  0  0  0999 V2000
  189.3190  177.6180  144.6100 C   0  0  1  0  0  3  0  0  0  0  0  0
  189.1910  176.9920  143.2100 C   0  0  1  0  0  3  0  0  0  0  0  0
  191.3030  178.8800  143.5920 C   0  0  0  0  0  2  0  0  0  0  0  0
  191.7260  177.4660  143.2050 C   0  0  0  0  0  2  0  0  0  0  0  0
  190.3800  176.8270  141.0580 C   0  0  1  0  0  0  0  0  0  0  0  0
  190.2440  175.5520  140.5100 O   0  0  0  0  0  1  0  0  0  0  0  0
  188.4670  177.8920  142.2270 C   0  0  0  0  0  2  0  0  0  0  0  0
  190.2170  178.8640  144.6730 C   0  0  0  0  0  2  0  0  0  0  0  0
  191.5700  177.5010  140.3730 C   0  0  0  0  0  1  0  0  0  0  0  0
  189.0450  177.5670  140.8640 C   0  0  1  0  0  3  0  0  0  0  0  0
  190.5550  176.6720  142.5810 C   0  0  2  0  0  3  0  0  0  0  0  0
  188.0070  177.7830  145.3230 C   0  0  0  0  0  0  0  0  0  0  0  0
  185.5110  178.1410  146.5520 C   0  0  0  0  0  3  0  0  0  0  0  0
  187.9140  177.8780  146.7260 C   0  0  0  0  0  0  0  0  0  0  0  0
  186.6660  178.0540  147.3330 C   0  0  0  0  0  3  0  0  0  0  0  0
  185.6000  178.0540  145.1610 C   0  0  0  0  0  3  0  0  0  0  0  0
  189.0180  177.7950  147.5090 F   0  0  0  0  0  0  0  0  0  0  0  0
  186.8440  177.8780  144.5500 C   0  0  0  0  0  3  0  0  0  0  0  0
  189.0150  179.0030  139.7180 S   0  0  0  0  0  0  0  0  0  0  0  0
  187.8770  178.2500  138.5110 C   0  0  0  0  0  2  0  0  0  0  0  0
  188.5850  178.0070  137.1900 C   0  0  1  0  0  3  0  0  0  0  0  0
  189.4290  179.0670  136.9210 F   0  0  0  0  0  0  0  0  0  0  0  0
  189.3750  176.7420  137.2460 C   0  0  0  0  0  0  0  0  0  0  0  0
  190.7430  176.7590  137.0020 O   0  0  0  0  0  0  0  0  0  0  0  0
  188.8020  175.6590  137.5310 O   0  0  0  0  0  1  0  0  0  0  0  0
  1  8  1  0  0  0  0
  1 12  1  6  0  0  0
  2  7  1  6  0  0  0
  2  1  1  0  0  0  0
  3  8  1  0  0  0  0
  4  3  1  0  0  0  0
  5  9  1  6  0  0  0
  5 11  1  0  0  0  0
  6  5  1  0  0  0  0
 10 19  1  6  0  0  0
 10  5  1  0  0  0  0
 10  7  1  0  0  0  0
 11  4  1  1  0  0  0
 11  2  1  0  0  0  0
 12 14  1  0  0  0  0
 13 15  1  0  0  0  0
 14 15  2  0  0  0  0
 14 17  1  0  0  0  0
 16 13  2  0  0  0  0
 18 16  1  0  0  0  0
 18 12  2  0  0  0  0
 20 19  1  0  0  0  0
 21 22  1  1  0  0  0
 21 23  1  0  0  0  0
 21 20  1  0  0  0  0
 23 25  1  0  0  0  0
 24 23  2  0  0  0  0
M  END
>  <MODEL>
5

>  <REMARK>
 VINA RESULT:      -6.9      1.939      2.685
  Name = 
  5 active torsions:
  status: ('A' for Active; 'I' for Inactive)
    1  A    between atoms: C_1  and  C_5
    2  A    between atoms: C_2  and  C_21
    3  A    between atoms: S_6  and  C_15
    4  A    between atoms: S_6  and  C_23
    5  A    between atoms: C_15  and  C_21
                            x       y       z     vdW  Elec       q    Type
                         _______ _______ _______ _____ _____    ______ ____

>  <TORSDO>
F 5

$$$$
=
 OpenBabel11052412423D

 25 27  0  0  1  0  0  0  0  0999 V2000
  186.2240  178.0920  146.1790 C   0  0  1  0  0  3  0  0  0  0  0  0
  187.4930  177.2390  146.0070 C   0  0  1  0  0  3  0  0  0  0  0  0
  187.6140  179.3650  147.9130 C   0  0  0  0  0  2  0  0  0  0  0  0
  187.8240  177.9560  148.4610 C   0  0  0  0  0  2  0  0  0  0  0  0
  189.7030  176.8490  147.0230 C   0  0  1  0  0  0  0  0  0  0  0  0
  190.0360  175.4960  146.9880 O   0  0  0  0  0  1  0  0  0  0  0  0
  188.5240  177.8930  145.1050 C   0  0  0  0  0  2  0  0  0  0  0  0
  186.4400  179.4150  146.9310 C   0  0  0  0  0  2  0  0  0  0  0  0
  190.5980  177.5190  148.0670 C   0  0  0  0  0  1  0  0  0  0  0  0
  189.8730  177.4120  145.6010 C   0  0  1  0  0  3  0  0  0  0  0  0
  188.2010  176.9590  147.3410 C   0  0  2  0  0  3  0  0  0  0  0  0
  185.4160  178.2380  144.9200 C   0  0  0  0  0  0  0  0  0  0  0  0
  184.0130  178.5260  142.5080 C   0  0  0  0  0  3  0  0  0  0  0  0
  184.0760  178.6750  144.9270 C   0  0  0  0  0  0  0  0  0  0  0  0
  183.3810  178.8130  143.7200 C   0  0  0  0  0  3  0  0  0  0  0  0
  185.3430  178.0990  142.4980 C   0  0  0  0  0  3  0  0  0  0  0  0
  183.4370  178.9600  146.0880 F   0  0  0  0  0  0  0  0  0  0  0  0
  186.0410  177.9580  143.6990 C   0  0  0  0  0  3  0  0  0  0  0  0
  191.2130  178.6340  145.3120 S   0  0  0  0  0  0  0  0  0  0  0  0
  190.7700  178.9860  143.5800 C   0  0  0  0  0  2  0  0  0  0  0  0
  191.3450  177.9280  142.6560 C   0  0  1  0  0  3  0  0  0  0  0  0
  192.0560  177.0060  143.4010 F   0  0  0  0  0  0  0  0  0  0  0  0
  190.2520  177.2320  141.9150 C   0  0  0  0  0  0  0  0  0  0  0  0
  189.1230  177.9340  141.5110 O   0  0  0  0  0  0  0  0  0  0  0  0
  190.3610  176.0090  141.6430 O   0  0  0  0  0  1  0  0  0  0  0  0
  1 12  1  6  0  0  0
  1  8  1  0  0  0  0
  2  7  1  6  0  0  0
  2  1  1  0  0  0  0
  2 11  1  0  0  0  0
  3  4  1  0  0  0  0
  5 11  1  0  0  0  0
  5  9  1  1  0  0  0
  6  5  1  0  0  0  0
  7 10  1  0  0  0  0
  8  3  1  0  0  0  0
 10 19  1  1  0  0  0
 10  5  1  0  0  0  0
 11  4  1  1  0  0  0
 12 14  1  0  0  0  0
 13 15  1  0  0  0  0
 14 17  1  0  0  0  0
 15 14  2  0  0  0  0
 16 13  2  0  0  0  0
 16 18  1  0  0  0  0
 18 12  2  0  0  0  0
 20 19  1  0  0  0  0
 21 22  1  1  0  0  0
 21 20  1  0  0  0  0
 23 21  1  0  0  0  0
 24 23  2  0  0  0  0
 25 23  1  0  0  0  0
M  END
>  <MODEL>
6

>  <REMARK>
 VINA RESULT:      -6.9      2.503      3.417
  Name = 
  5 active torsions:
  status: ('A' for Active; 'I' for Inactive)
    1  A    between atoms: C_1  and  C_5
    2  A    between atoms: C_2  and  C_21
    3  A    between atoms: S_6  and  C_15
    4  A    between atoms: S_6  and  C_23
    5  A    between atoms: C_15  and  C_21
                            x       y       z     vdW  Elec       q    Type
                         _______ _______ _______ _____ _____    ______ ____

>  <TORSDO>
F 5

$$$$
=
 OpenBabel11052412423D

 25 27  0  0  1  0  0  0  0  0999 V2000
  188.3430  177.4130  142.4800 C   0  0  1  0  0  3  0  0  0  0  0  0
  189.2540  178.1530  143.4750 C   0  0  1  0  0  3  0  0  0  0  0  0
  189.6280  175.3300  143.2370 C   0  0  0  0  0  2  0  0  0  0  0  0
  190.8270  176.2020  142.8730 C   0  0  0  0  0  2  0  0  0  0  0  0
  191.2420  177.8100  144.8890 C   0  0  1  0  0  0  0  0  0  0  0  0
  192.0510  178.9450  144.8950 O   0  0  0  0  0  1  0  0  0  0  0  0
  188.7710  178.0400  144.9100 C   0  0  0  0  0  2  0  0  0  0  0  0
  188.3300  175.8840  142.6410 C   0  0  0  0  0  2  0  0  0  0  0  0
  192.0910  176.6340  145.3740 C   0  0  0  0  0  1  0  0  0  0  0  0
  190.0160  178.1020  145.7720 C   0  0  1  0  0  3  0  0  0  0  0  0
  190.6960  177.6250  143.4610 C   0  0  2  0  0  3  0  0  0  0  0  0
  186.9750  178.0170  142.3450 C   0  0  0  0  0  0  0  0  0  0  0  0
  184.3800  179.0700  142.1810 C   0  0  0  0  0  3  0  0  0  0  0  0
  186.5290  178.6240  141.1530 C   0  0  0  0  0  0  0  0  0  0  0  0
  185.2340  179.1490  141.0790 C   0  0  0  0  0  3  0  0  0  0  0  0
  184.8160  178.4640  143.3610 C   0  0  0  0  0  3  0  0  0  0  0  0
  187.3370  178.7160  140.0680 F   0  0  0  0  0  0  0  0  0  0  0  0
  186.1070  177.9390  143.4410 C   0  0  0  0  0  3  0  0  0  0  0  0
  189.8420  177.1630  147.3410 S   0  0  0  0  0  0  0  0  0  0  0  0
  188.0280  177.0000  147.2570 C   0  0  0  0  0  2  0  0  0  0  0  0
  187.3590  178.0260  148.1540 C   0  0  1  0  0  3  0  0  0  0  0  0
  188.2740  179.0040  148.4960 F   0  0  0  0  0  0  0  0  0  0  0  0
  186.1980  178.6520  147.4560 C   0  0  0  0  0  0  0  0  0  0  0  0
  185.9660  180.0170  147.5690 O   0  0  0  0  0  1  0  0  0  0  0  0
  185.4360  177.9420  146.7510 O   0  0  0  0  0  0  0  0  0  0  0  0
  1 12  1  1  0  0  0
  1  8  1  0  0  0  0
  1  2  1  0  0  0  0
  2  7  1  1  0  0  0
  4  3  1  0  0  0  0
  5  6  1  0  0  0  0
  5  9  1  1  0  0  0
  5 10  1  0  0  0  0
  7 10  1  0  0  0  0
  8  3  1  0  0  0  0
 10 19  1  1  0  0  0
 11  4  1  1  0  0  0
 11  2  1  0  0  0  0
 11  5  1  0  0  0  0
 12 18  1  0  0  0  0
 13 16  1  0  0  0  0
 14 12  2  0  0  0  0
 15 14  1  0  0  0  0
 15 13  2  0  0  0  0
 16 18  2  0  0  0  0
 17 14  1  0  0  0  0
 20 19  1  0  0  0  0
 20 21  1  0  0  0  0
 21 22  1  6  0  0  0
 23 24  1  0  0  0  0
 23 21  1  0  0  0  0
 25 23  2  0  0  0  0
M  END
>  <MODEL>
7

>  <REMARK>
 VINA RESULT:      -6.8      3.412      5.744
  Name = 
  5 active torsions:
  status: ('A' for Active; 'I' for Inactive)
    1  A    between atoms: C_1  and  C_5
    2  A    between atoms: C_2  and  C_21
    3  A    between atoms: S_6  and  C_15
    4  A    between atoms: S_6  and  C_23
    5  A    between atoms: C_15  and  C_21
                            x       y       z     vdW  Elec       q    Type
                         _______ _______ _______ _____ _____    ______ ____

>  <TORSDO>
F 5

$$$$
=
 OpenBabel11052412423D

 25 27  0  0  1  0  0  0  0  0999 V2000
  190.1030  177.5840  145.0580 C   0  0  1  0  0  3  0  0  0  0  0  0
  189.6200  176.9580  143.7370 C   0  0  1  0  0  3  0  0  0  0  0  0
  191.6000  179.0110  143.5460 C   0  0  0  0  0  2  0  0  0  0  0  0
  191.9980  177.6390  143.0100 C   0  0  0  0  0  2  0  0  0  0  0  0
  190.1370  176.9060  141.3290 C   0  0  1  0  0  0  0  0  0  0  0  0
  189.9450  175.6280  140.8060 O   0  0  0  0  0  1  0  0  0  0  0  0
  188.5730  177.8030  143.0350 C   0  0  0  0  0  2  0  0  0  0  0  0
  190.8820  178.8990  144.8950 C   0  0  0  0  0  2  0  0  0  0  0  0
  191.0190  177.6800  140.3480 C   0  0  0  0  0  1  0  0  0  0  0  0
  188.7510  177.5350  141.5540 C   0  0  1  0  0  3  0  0  0  0  0  0
  190.7610  176.7560  142.7290 C   0  0  2  0  0  3  0  0  0  0  0  0
  189.0480  177.6360  146.1260 C   0  0  0  0  0  0  0  0  0  0  0  0
  187.0080  177.8000  148.0450 C   0  0  0  0  0  3  0  0  0  0  0  0
  189.3490  177.4920  147.4960 C   0  0  0  0  0  0  0  0  0  0  0  0
  188.3260  177.5720  148.4470 C   0  0  0  0  0  3  0  0  0  0  0  0
  186.7070  177.9490  146.6890 C   0  0  0  0  0  3  0  0  0  0  0  0
  190.6180  177.2690  147.9150 F   0  0  0  0  0  0  0  0  0  0  0  0
  187.7240  177.8690  145.7350 C   0  0  0  0  0  3  0  0  0  0  0  0
  188.2780  178.9710  140.5100 S   0  0  0  0  0  0  0  0  0  0  0  0
  186.6790  178.2840  139.9680 C   0  0  0  0  0  2  0  0  0  0  0  0
  185.5680  178.7130  140.9090 C   0  0  1  0  0  3  0  0  0  0  0  0
  186.0290  179.7220  141.7330 F   0  0  0  0  0  0  0  0  0  0  0  0
  184.3880  179.2020  140.1360 C   0  0  0  0  0  0  0  0  0  0  0  0
  184.5560  180.1280  139.1130 O   0  0  0  0  0  0  0  0  0  0  0  0
  183.2400  178.7620  140.4020 O   0  0  0  0  0  1  0  0  0  0  0  0
  1 12  1  1  0  0  0
  2  7  1  6  0  0  0
  2  1  1  0  0  0  0
  3  8  1  0  0  0  0
  4  3  1  0  0  0  0
  5  9  1  6  0  0  0
  5 10  1  0  0  0  0
  5 11  1  0  0  0  0
  6  5  1  0  0  0  0
  8  1  1  0  0  0  0
 10 19  1  6  0  0  0
 10  7  1  0  0  0  0
 11  4  1  1  0  0  0
 11  2  1  0  0  0  0
 12 14  1  0  0  0  0
 13 15  1  0  0  0  0
 14 17  1  0  0  0  0
 14 15  2  0  0  0  0
 16 13  2  0  0  0  0
 18 12  2  0  0  0  0
 18 16  1  0  0  0  0
 20 19  1  0  0  0  0
 20 21  1  0  0  0  0
 21 22  1  1  0  0  0
 23 25  1  0  0  0  0
 23 21  1  0  0  0  0
 24 23  2  0  0  0  0
M  END
>  <MODEL>
8

>  <REMARK>
 VINA RESULT:      -6.7      2.715      3.987
  Name = 
  5 active torsions:
  status: ('A' for Active; 'I' for Inactive)
    1  A    between atoms: C_1  and  C_5
    2  A    between atoms: C_2  and  C_21
    3  A    between atoms: S_6  and  C_15
    4  A    between atoms: S_6  and  C_23
    5  A    between atoms: C_15  and  C_21
                            x       y       z     vdW  Elec       q    Type
                         _______ _______ _______ _____ _____    ______ ____

>  <TORSDO>
F 5

$$$$
=
 OpenBabel11052412423D

 25 27  0  0  1  0  0  0  0  0999 V2000
  187.2910  177.7360  143.3680 C   0  0  1  0  0  3  0  0  0  0  0  0
  188.5910  178.4320  143.8060 C   0  0  1  0  0  3  0  0  0  0  0  0
  188.8100  175.7200  142.9330 C   0  0  0  0  0  2  0  0  0  0  0  0
  189.5870  176.7530  142.1220 C   0  0  0  0  0  2  0  0  0  0  0  0
  191.0350  178.1210  143.8130 C   0  0  1  0  0  0  0  0  0  0  0  0
  191.6920  179.3250  143.5630 O   0  0  0  0  0  1  0  0  0  0  0  0
  188.9960  178.0830  145.2270 C   0  0  0  0  0  2  0  0  0  0  0  0
  187.3930  176.2060  143.2520 C   0  0  0  0  0  2  0  0  0  0  0  0
  192.0270  176.9870  143.5470 C   0  0  0  0  0  1  0  0  0  0  0  0
  190.5090  178.1640  145.2590 C   0  0  1  0  0  3  0  0  0  0  0  0
  189.7860  178.0660  142.9140 C   0  0  2  0  0  3  0  0  0  0  0  0
  186.0720  178.2040  144.1110 C   0  0  0  0  0  0  0  0  0  0  0  0
  183.8140  178.9890  145.5790 C   0  0  0  0  0  3  0  0  0  0  0  0
  185.0260  178.9100  143.4810 C   0  0  0  0  0  0  0  0  0  0  0  0
  183.9040  179.3000  144.2200 C   0  0  0  0  0  3  0  0  0  0  0  0
  184.8450  178.2850  146.2040 C   0  0  0  0  0  3  0  0  0  0  0  0
  185.0870  179.2270  142.1650 F   0  0  0  0  0  0  0  0  0  0  0  0
  185.9680  177.8930  145.4720 C   0  0  0  0  0  3  0  0  0  0  0  0
  191.2560  177.0150  146.4820 S   0  0  0  0  0  0  0  0  0  0  0  0
  189.6890  176.5770  147.3030 C   0  0  0  0  0  2  0  0  0  0  0  0
  189.4680  177.4460  148.5280 C   0  0  1  0  0  3  0  0  0  0  0  0
  190.2030  178.6100  148.4040 F   0  0  0  0  0  0  0  0  0  0  0  0
  188.0220  177.7840  148.6740 C   0  0  0  0  0  0  0  0  0  0  0  0
  187.5600  179.0490  148.3320 O   0  0  0  0  0  0  0  0  0  0  0  0
  187.2160  176.9140  149.0940 O   0  0  0  0  0  1  0  0  0  0  0  0
  1  2  1  0  0  0  0
  1 12  1  1  0  0  0
  2  7  1  1  0  0  0
  3  8  1  0  0  0  0
  4  3  1  0  0  0  0
  5  9  1  6  0  0  0
  5 10  1  0  0  0  0
  6  5  1  0  0  0  0
  7 10  1  0  0  0  0
  8  1  1  0  0  0  0
 10 19  1  1  0  0  0
 11  4  1  1  0  0  0
 11  2  1  0  0  0  0
 11  5  1  0  0  0  0
 12 18  1  0  0  0  0
 13 16  1  0  0  0  0
 14 12  2  0  0  0  0
 14 15  1  0  0  0  0
 15 13  2  0  0  0  0
 17 14  1  0  0  0  0
 18 16  2  0  0  0  0
 19 20  1  0  0  0  0
 20 21  1  0  0  0  0
 21 22  1  6  0  0  0
 21 23  1  0  0  0  0
 23 25  1  0  0  0  0
 24 23  2  0  0  0  0
M  END
>  <MODEL>
9

>  <REMARK>
 VINA RESULT:      -6.4      3.181      5.725
  Name = 
  5 active torsions:
  status: ('A' for Active; 'I' for Inactive)
    1  A    between atoms: C_1  and  C_5
    2  A    between atoms: C_2  and  C_21
    3  A    between atoms: S_6  and  C_15
    4  A    between atoms: S_6  and  C_23
    5  A    between atoms: C_15  and  C_21
                            x       y       z     vdW  Elec       q    Type
                         _______ _______ _______ _____ _____    ______ ____

>  <TORSDO>
F 5

$$$$
