=
 OpenBabel11052417003D

 32 36  0  0  1  0  0  0  0  0999 V2000
  186.0720  178.2470  145.1360 C   0  0  0  0  0  0  0  0  0  0  0  0
  182.5910  177.8040  141.4250 C   0  0  2  0  0  3  0  0  0  0  0  0
  182.6790  177.0830  138.9410 C   0  0  0  0  0  0  0  0  0  0  0  0
  182.5030  177.6540  137.6140 C   0  0  0  0  0  0  0  0  0  0  0  0
  184.8030  178.4770  142.5480 C   0  0  1  0  0  3  0  0  0  0  0  0
  182.5720  178.9230  143.6980 C   0  0  0  0  0  2  0  0  0  0  0  0
  181.5140  178.8620  136.0590 N   0  0  0  0  0  0  0  0  0  0  0  0
  184.6760  178.7880  145.0600 C   0  0  0  0  0  2  0  0  0  0  0  0
  182.0790  179.0030  142.2450 C   0  0  2  0  0  3  0  0  0  0  0  0
  180.5590  179.1780  142.1720 C   0  0  2  0  0  3  0  0  0  0  0  0
  181.0950  178.8830  139.7410 N   0  0  2  0  0  0  0  0  0  0  0  0
  182.5210  178.1770  135.4790 C   0  0  0  0  0  3  0  0  0  0  0  0
  186.5880  177.3650  144.0330 C   0  0  0  0  0  2  0  0  0  0  0  0
  183.9550  178.2680  143.8190 C   0  0  2  0  0  3  0  0  0  0  0  0
  183.1730  177.3930  136.4320 C   0  0  0  0  0  3  0  0  0  0  0  0
  186.2460  177.9570  142.6630 C   0  0  0  0  0  2  0  0  0  0  0  0
  186.8170  178.5330  146.2000 C   0  0  0  0  0  3  0  0  0  0  0  0
  180.0200  179.0940  140.7310 C   0  0  1  0  0  3  0  0  0  0  0  0
  180.5010  178.9110  138.3900 C   0  0  0  0  0  2  0  0  0  0  0  0
  184.1250  177.8950  141.2990 C   0  0  0  0  0  2  0  0  0  0  0  0
  183.4440  176.0960  139.1170 O   0  0  0  0  0  0  0  0  0  0  0  0
  180.5800  179.7410  135.3780 C   0  0  0  0  0  1  0  0  0  0  0  0
  181.8320  177.6330  140.0800 C   0  0  2  0  0  3  0  0  0  0  0  0
  181.5180  178.5490  137.3620 C   0  0  0  0  0  0  0  0  0  0  0  0
  188.6720  177.6270  147.6040 C   0  0  0  0  0  0  0  0  0  0  0  0
  188.1480  178.0350  146.3410 N   0  0  0  0  0  2  0  0  0  0  0  0
  189.9730  177.1500  147.6860 O   0  0  0  0  0  0  0  0  0  0  0  0
  187.9670  177.6940  148.6460 O   0  0  0  0  0  1  0  0  0  0  0  0
  179.0480  180.2070  143.6280 C   0  0  0  0  0  1  0  0  0  0  0  0
  180.1780  180.4570  142.7500 N   0  0  0  0  0  2  0  0  0  0  0  0
  179.0300  177.1580  141.7510 O   0  0  0  0  0  1  0  0  0  0  0  0
  178.9310  178.0170  140.6550 C   0  0  0  0  0  2  0  0  0  0  0  0
  1 17  2  0  0  0  0
  2 20  1  6  0  0  0
  2  9  1  0  0  0  0
  3 21  2  0  0  0  0
  4  3  1  0  0  0  0
  5 20  1  6  0  0  0
  5 16  1  0  0  0  0
  5 14  1  0  0  0  0
  7 24  1  0  0  0  0
  8  1  1  0  0  0  0
  9  6  1  1  0  0  0
 10  9  1  0  0  0  0
 10 30  1  6  0  0  0
 11 19  1  6  0  0  0
 11 23  1  0  0  0  0
 11 18  1  0  0  0  0
 12  7  1  0  0  0  0
 12 15  2  0  0  0  0
 13  1  1  0  0  0  0
 14  6  1  6  0  0  0
 14  8  1  0  0  0  0
 15  4  1  0  0  0  0
 16 13  1  0  0  0  0
 17 26  1  0  0  0  0
 18 32  1  1  0  0  0
 18 10  1  0  0  0  0
 22  7  1  0  0  0  0
 23  3  1  6  0  0  0
 23  2  1  0  0  0  0
 24  4  2  0  0  0  0
 24 19  1  0  0  0  0
 25 27  2  0  0  0  0
 25 28  1  0  0  0  0
 26 25  1  0  0  0  0
 30 29  1  0  0  0  0
 32 31  1  0  0  0  0
M  END
>  <MODEL>
1

>  <REMARK>
 VINA RESULT:      -8.1      0.000      0.000
  Name = 
  3 active torsions:
  status: ('A' for Active; 'I' for Inactive)
    1  A    between atoms: N_10  and  C_24
    2  A    between atoms: N_13  and  C_15
    3  A    between atoms: C_25  and  C_26
                            x       y       z     vdW  Elec       q    Type
                         _______ _______ _______ _____ _____    ______ ____

>  <TORSDO>
F 3

$$$$
=
 OpenBabel11052417003D

 32 36  0  0  1  0  0  0  0  0999 V2000
  190.7990  177.0400  144.4980 C   0  0  0  0  0  0  0  0  0  0  0  0
  187.7580  178.2670  140.5820 C   0  0  2  0  0  3  0  0  0  0  0  0
  185.2740  178.9590  140.3720 C   0  0  0  0  0  0  0  0  0  0  0  0
  184.0220  178.4460  139.8330 C   0  0  0  0  0  0  0  0  0  0  0  0
  188.4910  177.1100  142.7570 C   0  0  1  0  0  3  0  0  0  0  0  0
  190.0380  177.1740  140.7320 C   0  0  0  0  0  2  0  0  0  0  0  0
  182.7170  177.4970  138.3330 N   0  0  0  0  0  0  0  0  0  0  0  0
  190.9960  176.8260  143.0270 C   0  0  0  0  0  2  0  0  0  0  0  0
  188.7020  177.2110  139.9760 C   0  0  2  0  0  3  0  0  0  0  0  0
  188.9090  177.3840  138.4680 C   0  0  2  0  0  3  0  0  0  0  0  0
  186.4120  177.5580  138.6020 N   0  0  2  0  0  0  0  0  0  0  0  0
  181.9390  177.9400  139.3440 C   0  0  0  0  0  3  0  0  0  0  0  0
  189.5900  177.7860  144.9860 C   0  0  0  0  0  2  0  0  0  0  0  0
  189.8850  177.5000  142.2240 C   0  0  2  0  0  3  0  0  0  0  0  0
  182.7300  178.5540  140.3170 C   0  0  0  0  0  3  0  0  0  0  0  0
  188.3260  177.2910  144.2760 C   0  0  0  0  0  2  0  0  0  0  0  0
  191.7230  176.5890  145.3420 C   0  0  0  0  0  3  0  0  0  0  0  0
  187.5860  177.5920  137.7070 C   0  0  1  0  0  3  0  0  0  0  0  0
  185.1920  177.6690  137.7790 C   0  0  0  0  0  2  0  0  0  0  0  0
  187.3630  177.8330  142.0080 C   0  0  0  0  0  2  0  0  0  0  0  0
  185.2710  179.7470  141.3560 O   0  0  0  0  0  0  0  0  0  0  0  0
  182.2480  176.8530  137.1190 C   0  0  0  0  0  1  0  0  0  0  0  0
  186.5660  178.6090  139.6470 C   0  0  2  0  0  3  0  0  0  0  0  0
  183.9840  177.7970  138.6450 C   0  0  0  0  0  0  0  0  0  0  0  0
  192.4330  176.0730  147.6800 C   0  0  0  0  0  0  0  0  0  0  0  0
  191.6040  176.7740  146.7540 N   0  0  0  0  0  2  0  0  0  0  0  0
  192.2760  176.2900  149.0420 O   0  0  0  0  0  1  0  0  0  0  0  0
  193.3060  175.2590  147.2750 O   0  0  0  0  0  0  0  0  0  0  0  0
  190.7200  176.7150  137.1510 C   0  0  0  0  0  1  0  0  0  0  0  0
  189.5950  176.2220  137.9260 N   0  0  0  0  0  2  0  0  0  0  0  0
  188.7850  179.6270  137.2720 O   0  0  0  0  0  1  0  0  0  0  0  0
  187.6660  178.8870  136.8880 C   0  0  0  0  0  2  0  0  0  0  0  0
  1 13  1  0  0  0  0
  1 17  2  0  0  0  0
  2 20  1  1  0  0  0
  3 21  2  0  0  0  0
  4 15  1  0  0  0  0
  4  3  1  0  0  0  0
  5 20  1  6  0  0  0
  5 16  1  0  0  0  0
  7 24  1  0  0  0  0
  7 12  1  0  0  0  0
  8  1  1  0  0  0  0
  9  2  1  0  0  0  0
  9  6  1  1  0  0  0
 10 30  1  6  0  0  0
 10  9  1  0  0  0  0
 11 19  1  6  0  0  0
 11 23  1  0  0  0  0
 12 15  2  0  0  0  0
 14  6  1  6  0  0  0
 14  5  1  0  0  0  0
 14  8  1  0  0  0  0
 16 13  1  0  0  0  0
 17 26  1  0  0  0  0
 18 32  1  1  0  0  0
 18 10  1  0  0  0  0
 18 11  1  0  0  0  0
 19 24  1  0  0  0  0
 22  7  1  0  0  0  0
 23  3  1  1  0  0  0
 23  2  1  0  0  0  0
 24  4  2  0  0  0  0
 25 27  1  0  0  0  0
 26 25  1  0  0  0  0
 28 25  2  0  0  0  0
 29 30  1  0  0  0  0
 32 31  1  0  0  0  0
M  END
>  <MODEL>
2

>  <REMARK>
 VINA RESULT:      -8.0      3.958      6.316
  Name = 
  3 active torsions:
  status: ('A' for Active; 'I' for Inactive)
    1  A    between atoms: N_10  and  C_24
    2  A    between atoms: N_13  and  C_15
    3  A    between atoms: C_25  and  C_26
                            x       y       z     vdW  Elec       q    Type
                         _______ _______ _______ _____ _____    ______ ____

>  <TORSDO>
F 3

$$$$
=
 OpenBabel11052417003D

 32 36  0  0  1  0  0  0  0  0999 V2000
  189.9170  177.5740  144.4140 C   0  0  0  0  0  0  0  0  0  0  0  0
  185.4860  178.9560  142.2820 C   0  0  2  0  0  3  0  0  0  0  0  0
  183.0850  179.3140  143.1760 C   0  0  0  0  0  0  0  0  0  0  0  0
  181.7600  178.7200  143.0640 C   0  0  0  0  0  0  0  0  0  0  0  0
  187.1060  177.5890  143.7350 C   0  0  1  0  0  3  0  0  0  0  0  0
  187.7050  178.1870  141.3310 C   0  0  0  0  0  2  0  0  0  0  0  0
  180.0320  177.8420  142.0180 N   0  0  0  0  0  0  0  0  0  0  0  0
  189.5220  177.6240  142.9680 C   0  0  0  0  0  2  0  0  0  0  0  0
  186.1780  178.1520  141.1640 C   0  0  2  0  0  3  0  0  0  0  0  0
  185.7510  178.5860  139.7580 C   0  0  2  0  0  3  0  0  0  0  0  0
  183.5120  178.3830  140.8650 N   0  0  2  0  0  0  0  0  0  0  0  0
  179.6960  178.0070  143.3140 C   0  0  0  0  0  3  0  0  0  0  0  0
  188.9560  178.0560  145.4640 C   0  0  0  0  0  2  0  0  0  0  0  0
  188.1400  178.2510  142.8010 C   0  0  2  0  0  3  0  0  0  0  0  0
  180.7660  178.5670  144.0140 C   0  0  0  0  0  3  0  0  0  0  0  0
  187.5510  177.5050  145.2050 C   0  0  0  0  0  2  0  0  0  0  0  0
  191.1300  177.1320  144.7340 C   0  0  0  0  0  3  0  0  0  0  0  0
  184.2240  178.7220  139.6160 C   0  0  1  0  0  3  0  0  0  0  0  0
  182.0590  178.4470  140.6090 C   0  0  0  0  0  2  0  0  0  0  0  0
  185.7260  178.2540  143.6330 C   0  0  0  0  0  2  0  0  0  0  0  0
  183.4230  179.9300  144.2220 O   0  0  0  0  0  0  0  0  0  0  0  0
  179.1610  177.3360  140.9720 C   0  0  0  0  0  1  0  0  0  0  0  0
  183.9990  179.2680  141.9600 C   0  0  2  0  0  3  0  0  0  0  0  0
  181.2940  178.2660  141.8770 C   0  0  0  0  0  0  0  0  0  0  0  0
  192.1780  175.9050  146.6400 C   0  0  0  0  0  0  0  0  0  0  0  0
  191.5740  177.0760  146.0910 N   0  0  0  0  0  2  0  0  0  0  0  0
  192.5920  175.9030  147.9650 O   0  0  0  0  0  1  0  0  0  0  0  0
  192.3390  174.8730  145.9360 O   0  0  0  0  0  0  0  0  0  0  0  0
  186.4460  178.3640  137.5380 C   0  0  0  0  0  1  0  0  0  0  0  0
  186.2400  177.6320  138.7760 N   0  0  0  0  0  2  0  0  0  0  0  0
  182.7140  180.0850  138.3400 O   0  0  0  0  0  1  0  0  0  0  0  0
  183.8810  180.1260  139.1050 C   0  0  0  0  0  2  0  0  0  0  0  0
  1 17  2  0  0  0  0
  1 13  1  0  0  0  0
  2 20  1  1  0  0  0
  3 21  2  0  0  0  0
  4  3  1  0  0  0  0
  4 15  1  0  0  0  0
  5 20  1  1  0  0  0
  5 16  1  0  0  0  0
  7 12  1  0  0  0  0
  8  1  1  0  0  0  0
  9  6  1  6  0  0  0
  9  2  1  0  0  0  0
 10 30  1  6  0  0  0
 10  9  1  0  0  0  0
 11 19  1  6  0  0  0
 11 23  1  0  0  0  0
 12 15  2  0  0  0  0
 14  6  1  6  0  0  0
 14  8  1  0  0  0  0
 14  5  1  0  0  0  0
 16 13  1  0  0  0  0
 17 26  1  0  0  0  0
 18 32  1  1  0  0  0
 18 10  1  0  0  0  0
 18 11  1  0  0  0  0
 19 24  1  0  0  0  0
 22  7  1  0  0  0  0
 23  2  1  0  0  0  0
 23  3  1  1  0  0  0
 24  7  1  0  0  0  0
 24  4  2  0  0  0  0
 25 27  1  0  0  0  0
 26 25  1  0  0  0  0
 28 25  2  0  0  0  0
 29 30  1  0  0  0  0
 31 32  1  0  0  0  0
M  END
>  <MODEL>
3

>  <REMARK>
 VINA RESULT:      -7.9      2.861      5.239
  Name = 
  3 active torsions:
  status: ('A' for Active; 'I' for Inactive)
    1  A    between atoms: N_10  and  C_24
    2  A    between atoms: N_13  and  C_15
    3  A    between atoms: C_25  and  C_26
                            x       y       z     vdW  Elec       q    Type
                         _______ _______ _______ _____ _____    ______ ____

>  <TORSDO>
F 3

$$$$
=
 OpenBabel11052417003D

 32 36  0  0  1  0  0  0  0  0999 V2000
  188.6810  177.1640  145.6640 C   0  0  0  0  0  0  0  0  0  0  0  0
  187.5590  178.3020  140.8120 C   0  0  2  0  0  3  0  0  0  0  0  0
  185.3880  178.9530  139.5650 C   0  0  0  0  0  0  0  0  0  0  0  0
  184.4840  178.4160  138.5580 C   0  0  0  0  0  0  0  0  0  0  0  0
  187.3190  177.1800  143.1120 C   0  0  1  0  0  3  0  0  0  0  0  0
  189.5750  177.2460  141.9260 C   0  0  0  0  0  2  0  0  0  0  0  0
  183.9410  177.4310  136.6630 N   0  0  0  0  0  0  0  0  0  0  0  0
  189.4800  176.9380  144.4160 C   0  0  0  0  0  2  0  0  0  0  0  0
  188.6800  177.2540  140.6770 C   0  0  2  0  0  3  0  0  0  0  0  0
  189.5010  177.4140  139.3930 C   0  0  2  0  0  3  0  0  0  0  0  0
  187.1790  177.5510  138.4610 N   0  0  2  0  0  0  0  0  0  0  0  0
  182.8060  177.8730  137.2450 C   0  0  0  0  0  3  0  0  0  0  0  0
  187.3710  177.8960  145.5850 C   0  0  0  0  0  2  0  0  0  0  0  0
  188.8050  177.5860  143.2090 C   0  0  2  0  0  3  0  0  0  0  0  0
  183.1080  178.5090  138.4510 C   0  0  0  0  0  3  0  0  0  0  0  0
  186.5290  177.3750  144.4170 C   0  0  0  0  0  2  0  0  0  0  0  0
  189.1670  176.7360  146.8260 C   0  0  0  0  0  3  0  0  0  0  0  0
  188.6210  177.5930  138.1430 C   0  0  1  0  0  3  0  0  0  0  0  0
  186.4180  177.6350  137.1990 C   0  0  0  0  0  2  0  0  0  0  0  0
  186.6050  177.8780  141.9460 C   0  0  0  0  0  2  0  0  0  0  0  0
  184.9640  179.7520  140.4430 O   0  0  0  0  0  0  0  0  0  0  0  0
  184.0330  176.7660  135.3750 C   0  0  0  0  0  1  0  0  0  0  0  0
  186.8690  178.6160  139.4570 C   0  0  2  0  0  3  0  0  0  0  0  0
  184.9560  177.7530  137.4750 C   0  0  0  0  0  0  0  0  0  0  0  0
  188.6390  178.1100  148.8430 C   0  0  0  0  0  0  0  0  0  0  0  0
  188.4630  176.9350  148.0530 N   0  0  0  0  0  2  0  0  0  0  0  0
  187.9300  178.2530  150.0280 O   0  0  0  0  0  1  0  0  0  0  0  0
  189.4310  179.0190  148.4770 O   0  0  0  0  0  0  0  0  0  0  0  0
  191.6510  176.7530  138.7570 C   0  0  0  0  0  1  0  0  0  0  0  0
  190.3630  176.2560  139.2090 N   0  0  0  0  0  2  0  0  0  0  0  0
  189.4660  178.5800  136.1240 O   0  0  0  0  0  1  0  0  0  0  0  0
  189.0250  178.8800  137.4130 C   0  0  0  0  0  2  0  0  0  0  0  0
  1 17  2  0  0  0  0
  2 20  1  1  0  0  0
  3 21  2  0  0  0  0
  4  3  1  0  0  0  0
  5 20  1  6  0  0  0
  5 14  1  0  0  0  0
  5 16  1  0  0  0  0
  7 12  1  0  0  0  0
  7 24  1  0  0  0  0
  8  1  1  0  0  0  0
  9  2  1  0  0  0  0
  9  6  1  1  0  0  0
 10 30  1  6  0  0  0
 10  9  1  0  0  0  0
 11 19  1  6  0  0  0
 11 23  1  0  0  0  0
 12 15  2  0  0  0  0
 13  1  1  0  0  0  0
 14  6  1  6  0  0  0
 14  8  1  0  0  0  0
 15  4  1  0  0  0  0
 16 13  1  0  0  0  0
 17 26  1  0  0  0  0
 18 32  1  1  0  0  0
 18 11  1  0  0  0  0
 18 10  1  0  0  0  0
 19 24  1  0  0  0  0
 22  7  1  0  0  0  0
 23  3  1  1  0  0  0
 23  2  1  0  0  0  0
 24  4  2  0  0  0  0
 25 27  1  0  0  0  0
 26 25  1  0  0  0  0
 28 25  2  0  0  0  0
 29 30  1  0  0  0  0
 31 32  1  0  0  0  0
M  END
>  <MODEL>
4

>  <REMARK>
 VINA RESULT:      -7.7      3.582      6.093
  Name = 
  3 active torsions:
  status: ('A' for Active; 'I' for Inactive)
    1  A    between atoms: N_10  and  C_24
    2  A    between atoms: N_13  and  C_15
    3  A    between atoms: C_25  and  C_26
                            x       y       z     vdW  Elec       q    Type
                         _______ _______ _______ _____ _____    ______ ____

>  <TORSDO>
F 3

$$$$
=
 OpenBabel11052417003D

 32 36  0  0  1  0  0  0  0  0999 V2000
  183.6430  178.8670  143.6350 C   0  0  0  0  0  0  0  0  0  0  0  0
  188.3080  178.2830  141.6370 C   0  0  2  0  0  3  0  0  0  0  0  0
  189.2500  178.2490  139.2270 C   0  0  0  0  0  0  0  0  0  0  0  0
  189.8660  177.3200  138.2910 C   0  0  0  0  0  0  0  0  0  0  0  0
  185.7800  177.9200  141.9320 C   0  0  1  0  0  3  0  0  0  0  0  0
  187.3440  177.8750  143.9440 C   0  0  0  0  0  2  0  0  0  0  0  0
  191.2540  175.7330  137.6520 N   0  0  0  0  0  0  0  0  0  0  0  0
  184.9020  178.3560  144.2700 C   0  0  0  0  0  2  0  0  0  0  0  0
  188.3470  177.3850  142.8880 C   0  0  2  0  0  3  0  0  0  0  0  0
  189.7540  177.2290  143.4730 C   0  0  2  0  0  3  0  0  0  0  0  0
  190.2230  176.7930  141.0500 N   0  0  2  0  0  0  0  0  0  0  0  0
  190.6180  176.1990  136.5560 C   0  0  0  0  0  3  0  0  0  0  0  0
  183.6780  179.3780  142.2220 C   0  0  0  0  0  2  0  0  0  0  0  0
  186.0910  178.5080  143.3240 C   0  0  2  0  0  3  0  0  0  0  0  0
  189.7290  177.2120  136.9180 C   0  0  0  0  0  3  0  0  0  0  0  0
  184.4610  178.4210  141.3190 C   0  0  0  0  0  2  0  0  0  0  0  0
  182.5230  178.8870  144.3520 C   0  0  0  0  0  3  0  0  0  0  0  0
  190.8100  176.9020  142.4010 C   0  0  1  0  0  3  0  0  0  0  0  0
  191.2850  176.3850  140.1090 C   0  0  0  0  0  2  0  0  0  0  0  0
  186.9380  178.1270  140.9450 C   0  0  0  0  0  2  0  0  0  0  0  0
  188.5750  179.2280  138.8070 O   0  0  0  0  0  0  0  0  0  0  0  0
  192.2880  174.7130  137.6650 C   0  0  0  0  0  1  0  0  0  0  0  0
  189.5370  178.0720  140.7120 C   0  0  2  0  0  3  0  0  0  0  0  0
  190.7800  176.4120  138.7050 C   0  0  0  0  0  0  0  0  0  0  0  0
  180.0980  178.5990  143.8320 C   0  0  0  0  0  0  0  0  0  0  0  0
  181.2950  179.3760  143.8120 N   0  0  0  0  0  2  0  0  0  0  0  0
  178.9310  179.1230  143.2940 O   0  0  0  0  0  0  0  0  0  0  0  0
  180.0890  177.4430  144.3330 O   0  0  0  0  0  1  0  0  0  0  0  0
  190.3110  176.7620  145.6940 C   0  0  0  0  0  1  0  0  0  0  0  0
  189.7580  176.1820  144.4830 N   0  0  0  0  0  2  0  0  0  0  0  0
  191.6710  178.8790  143.4570 O   0  0  0  0  0  1  0  0  0  0  0  0
  191.9440  177.9320  142.4680 C   0  0  0  0  0  2  0  0  0  0  0  0
  1  8  1  0  0  0  0
  1 17  2  0  0  0  0
  2 20  1  6  0  0  0
  2  9  1  0  0  0  0
  4 24  2  0  0  0  0
  4  3  1  0  0  0  0
  5 20  1  6  0  0  0
  5 14  1  0  0  0  0
  7 22  1  0  0  0  0
  7 24  1  0  0  0  0
  9 10  1  0  0  0  0
  9  6  1  1  0  0  0
 10 30  1  1  0  0  0
 11 19  1  6  0  0  0
 11 18  1  0  0  0  0
 12 15  2  0  0  0  0
 12  7  1  0  0  0  0
 13  1  1  0  0  0  0
 14  6  1  1  0  0  0
 14  8  1  0  0  0  0
 15  4  1  0  0  0  0
 16  5  1  0  0  0  0
 16 13  1  0  0  0  0
 18 32  1  6  0  0  0
 18 10  1  0  0  0  0
 21  3  2  0  0  0  0
 23  3  1  6  0  0  0
 23 11  1  0  0  0  0
 23  2  1  0  0  0  0
 24 19  1  0  0  0  0
 25 28  1  0  0  0  0
 26 25  1  0  0  0  0
 26 17  1  0  0  0  0
 27 25  2  0  0  0  0
 30 29  1  0  0  0  0
 32 31  1  0  0  0  0
M  END
>  <MODEL>
5

>  <REMARK>
 VINA RESULT:      -7.5      4.393      8.359
  Name = 
  3 active torsions:
  status: ('A' for Active; 'I' for Inactive)
    1  A    between atoms: N_10  and  C_24
    2  A    between atoms: N_13  and  C_15
    3  A    between atoms: C_25  and  C_26
                            x       y       z     vdW  Elec       q    Type
                         _______ _______ _______ _____ _____    ______ ____

>  <TORSDO>
F 3

$$$$
=
 OpenBabel11052417003D

 32 36  0  0  1  0  0  0  0  0999 V2000
  189.4360  177.8580  145.0460 C   0  0  0  0  0  0  0  0  0  0  0  0
  187.9270  178.1730  140.1760 C   0  0  2  0  0  3  0  0  0  0  0  0
  185.6530  178.5850  139.0130 C   0  0  0  0  0  0  0  0  0  0  0  0
  184.6890  177.8790  138.1800 C   0  0  0  0  0  0  0  0  0  0  0  0
  187.8880  177.4390  142.6400 C   0  0  1  0  0  3  0  0  0  0  0  0
  190.0460  177.3380  141.2860 C   0  0  0  0  0  2  0  0  0  0  0  0
  184.0310  176.5900  136.5190 N   0  0  0  0  0  0  0  0  0  0  0  0
  190.1460  177.4410  143.7920 C   0  0  0  0  0  2  0  0  0  0  0  0
  189.0600  177.1310  140.1250 C   0  0  2  0  0  3  0  0  0  0  0  0
  189.7790  177.0880  138.7730 C   0  0  2  0  0  3  0  0  0  0  0  0
  187.3900  177.0430  138.0150 N   0  0  2  0  0  0  0  0  0  0  0  0
  182.9320  177.1070  137.1080 C   0  0  0  0  0  3  0  0  0  0  0  0
  188.1070  178.5520  144.9510 C   0  0  0  0  0  2  0  0  0  0  0  0
  189.3660  177.8740  142.5530 C   0  0  2  0  0  3  0  0  0  0  0  0
  183.3070  177.9360  138.1670 C   0  0  0  0  0  3  0  0  0  0  0  0
  187.1930  177.8360  143.9530 C   0  0  0  0  0  2  0  0  0  0  0  0
  190.0190  177.6330  146.2200 C   0  0  0  0  0  3  0  0  0  0  0  0
  188.8020  177.0500  137.5830 C   0  0  1  0  0  3  0  0  0  0  0  0
  186.5350  176.9090  136.8200 C   0  0  0  0  0  2  0  0  0  0  0  0
  187.0710  177.9280  141.4350 C   0  0  0  0  0  2  0  0  0  0  0  0
  185.2760  179.5110  139.7810 O   0  0  0  0  0  0  0  0  0  0  0  0
  184.0420  175.7250  135.3530 C   0  0  0  0  0  1  0  0  0  0  0  0
  187.1290  178.2520  138.8460 C   0  0  2  0  0  3  0  0  0  0  0  0
  185.0960  177.0530  137.1860 C   0  0  0  0  0  0  0  0  0  0  0  0
  188.5010  177.1640  148.1460 C   0  0  0  0  0  0  0  0  0  0  0  0
  189.4040  178.0210  147.4500 N   0  0  0  0  0  2  0  0  0  0  0  0
  187.9310  177.5900  149.3380 O   0  0  0  0  0  1  0  0  0  0  0  0
  188.2140  176.0240  147.6910 O   0  0  0  0  0  0  0  0  0  0  0  0
  191.9260  176.3800  138.1810 C   0  0  0  0  0  1  0  0  0  0  0  0
  190.6520  175.9270  138.7130 N   0  0  0  0  0  2  0  0  0  0  0  0
  189.6510  177.7060  135.4350 O   0  0  0  0  0  1  0  0  0  0  0  0
  189.1190  178.2040  136.6250 C   0  0  0  0  0  2  0  0  0  0  0  0
  1 17  2  0  0  0  0
  2 20  1  1  0  0  0
  3 21  2  0  0  0  0
  4  3  1  0  0  0  0
  5 20  1  6  0  0  0
  5 16  1  0  0  0  0
  7 12  1  0  0  0  0
  7 24  1  0  0  0  0
  8  1  1  0  0  0  0
  9  2  1  0  0  0  0
  9  6  1  1  0  0  0
 10 30  1  1  0  0  0
 10  9  1  0  0  0  0
 11 19  1  6  0  0  0
 11 23  1  0  0  0  0
 12 15  2  0  0  0  0
 13  1  1  0  0  0  0
 14  6  1  6  0  0  0
 14  5  1  0  0  0  0
 14  8  1  0  0  0  0
 15  4  1  0  0  0  0
 16 13  1  0  0  0  0
 17 26  1  0  0  0  0
 18 32  1  6  0  0  0
 18 11  1  0  0  0  0
 18 10  1  0  0  0  0
 19 24  1  0  0  0  0
 22  7  1  0  0  0  0
 23  3  1  1  0  0  0
 23  2  1  0  0  0  0
 24  4  2  0  0  0  0
 25 27  1  0  0  0  0
 26 25  1  0  0  0  0
 28 25  2  0  0  0  0
 29 30  1  0  0  0  0
 31 32  1  0  0  0  0
M  END
>  <MODEL>
6

>  <REMARK>
 VINA RESULT:      -7.4      3.898      6.406
  Name = 
  3 active torsions:
  status: ('A' for Active; 'I' for Inactive)
    1  A    between atoms: N_10  and  C_24
    2  A    between atoms: N_13  and  C_15
    3  A    between atoms: C_25  and  C_26
                            x       y       z     vdW  Elec       q    Type
                         _______ _______ _______ _____ _____    ______ ____

>  <TORSDO>
F 3

$$$$
=
 OpenBabel11052417003D

 32 36  0  0  1  0  0  0  0  0999 V2000
  192.4090  174.9410  137.4770 C   0  0  0  0  0  0  0  0  0  0  0  0
  187.4990  176.1870  136.8230 C   0  0  2  0  0  3  0  0  0  0  0  0
  185.9830  178.0850  137.7130 C   0  0  0  0  0  0  0  0  0  0  0  0
  184.8350  178.2680  138.5910 C   0  0  0  0  0  0  0  0  0  0  0  0
  189.6930  175.7260  138.0820 C   0  0  1  0  0  3  0  0  0  0  0  0
  188.8440  174.1030  136.3090 C   0  0  0  0  0  2  0  0  0  0  0  0
  182.8430  177.8170  139.4170 N   0  0  0  0  0  0  0  0  0  0  0  0
  191.2800  174.1290  136.9170 C   0  0  0  0  0  2  0  0  0  0  0  0
  187.4820  174.6480  136.7630 C   0  0  2  0  0  3  0  0  0  0  0  0
  186.3370  174.0920  135.9110 C   0  0  2  0  0  3  0  0  0  0  0  0
  185.0890  175.7550  137.3100 N   0  0  2  0  0  0  0  0  0  0  0  0
  183.2760  178.9690  139.9720 C   0  0  0  0  0  3  0  0  0  0  0  0
  192.1750  176.3740  137.8630 C   0  0  0  0  0  2  0  0  0  0  0  0
  190.0180  174.9770  136.7730 C   0  0  2  0  0  3  0  0  0  0  0  0
  184.5370  179.2940  139.4700 C   0  0  0  0  0  3  0  0  0  0  0  0
  190.8780  176.5130  138.6650 C   0  0  0  0  0  2  0  0  0  0  0  0
  193.6100  174.3790  137.5910 C   0  0  0  0  0  3  0  0  0  0  0  0
  184.9820  174.7490  136.2350 C   0  0  1  0  0  3  0  0  0  0  0  0
  183.7360  176.2590  137.6170 C   0  0  0  0  0  2  0  0  0  0  0  0
  188.4670  176.6390  137.9350 C   0  0  0  0  0  2  0  0  0  0  0  0
  186.8250  179.0110  137.5600 O   0  0  0  0  0  0  0  0  0  0  0  0
  181.5550  177.1900  139.6530 C   0  0  0  0  0  1  0  0  0  0  0  0
  186.0740  176.7980  136.9060 C   0  0  2  0  0  3  0  0  0  0  0  0
  183.8050  177.3900  138.5880 C   0  0  0  0  0  0  0  0  0  0  0  0
  195.7630  174.4640  138.8530 C   0  0  0  0  0  0  0  0  0  0  0  0
  194.7310  175.1020  138.1020 N   0  0  0  0  0  2  0  0  0  0  0  0
  196.8310  175.2140  139.3260 O   0  0  0  0  0  1  0  0  0  0  0  0
  195.7160  173.2280  139.0910 O   0  0  0  0  0  0  0  0  0  0  0  0
  185.1130  172.4280  137.0050 C   0  0  0  0  0  1  0  0  0  0  0  0
  186.2290  172.6540  136.1030 N   0  0  0  0  0  2  0  0  0  0  0  0
  183.2220  174.6100  134.6060 O   0  0  0  0  0  1  0  0  0  0  0  0
  184.3720  175.3220  134.9500 C   0  0  0  0  0  2  0  0  0  0  0  0
  1 17  2  0  0  0  0
  1 13  1  0  0  0  0
  2 23  1  0  0  0  0
  2 20  1  1  0  0  0
  3  4  1  0  0  0  0
  4 15  1  0  0  0  0
  5 20  1  6  0  0  0
  5 16  1  0  0  0  0
  7 22  1  0  0  0  0
  7 12  1  0  0  0  0
  8  1  1  0  0  0  0
  9  6  1  6  0  0  0
  9  2  1  0  0  0  0
 10 30  1  1  0  0  0
 10 18  1  0  0  0  0
 10  9  1  0  0  0  0
 11 19  1  6  0  0  0
 13 16  1  0  0  0  0
 14  6  1  1  0  0  0
 14  8  1  0  0  0  0
 14  5  1  0  0  0  0
 15 12  2  0  0  0  0
 17 26  1  0  0  0  0
 18 32  1  6  0  0  0
 18 11  1  0  0  0  0
 19 24  1  0  0  0  0
 21  3  2  0  0  0  0
 23 11  1  0  0  0  0
 23  3  1  1  0  0  0
 24  4  2  0  0  0  0
 24  7  1  0  0  0  0
 25 28  2  0  0  0  0
 25 27  1  0  0  0  0
 26 25  1  0  0  0  0
 30 29  1  0  0  0  0
 31 32  1  0  0  0  0
M  END
>  <MODEL>
7

>  <REMARK>
 VINA RESULT:      -6.7      6.301      8.396
  Name = 
  3 active torsions:
  status: ('A' for Active; 'I' for Inactive)
    1  A    between atoms: N_10  and  C_24
    2  A    between atoms: N_13  and  C_15
    3  A    between atoms: C_25  and  C_26
                            x       y       z     vdW  Elec       q    Type
                         _______ _______ _______ _____ _____    ______ ____

>  <TORSDO>
F 3

$$$$
=
 OpenBabel11052417003D

 32 36  0  0  1  0  0  0  0  0999 V2000
  186.9250  178.2650  143.6280 C   0  0  0  0  0  0  0  0  0  0  0  0
  182.7050  178.0000  140.7630 C   0  0  2  0  0  3  0  0  0  0  0  0
  182.2520  177.9270  138.2160 C   0  0  0  0  0  0  0  0  0  0  0  0
  181.6560  178.7480  137.1720 C   0  0  0  0  0  0  0  0  0  0  0  0
  185.0100  178.8350  141.5380 C   0  0  1  0  0  3  0  0  0  0  0  0
  183.1120  178.5140  143.2100 C   0  0  0  0  0  2  0  0  0  0  0  0
  180.1330  180.0570  136.2660 N   0  0  0  0  0  0  0  0  0  0  0  0
  185.4940  178.5030  144.0040 C   0  0  0  0  0  2  0  0  0  0  0  0
  182.2530  178.8340  141.9770 C   0  0  2  0  0  3  0  0  0  0  0  0
  180.7580  178.6970  142.2770 C   0  0  2  0  0  3  0  0  0  0  0  0
  180.6830  179.1100  139.8070 N   0  0  2  0  0  0  0  0  0  0  0  0
  181.0440  179.7570  135.3170 C   0  0  0  0  0  3  0  0  0  0  0  0
  187.2610  177.8010  142.2390 C   0  0  0  0  0  2  0  0  0  0  0  0
  184.5600  178.1540  142.8470 C   0  0  2  0  0  3  0  0  0  0  0  0
  182.0290  178.9240  135.8510 C   0  0  0  0  0  3  0  0  0  0  0  0
  186.4930  178.6180  141.1950 C   0  0  0  0  0  2  0  0  0  0  0  0
  187.8700  178.4400  144.5480 C   0  0  0  0  0  3  0  0  0  0  0  0
  179.8820  178.8480  141.0190 C   0  0  1  0  0  3  0  0  0  0  0  0
  179.7620  179.3340  138.6760 C   0  0  0  0  0  2  0  0  0  0  0  0
  184.1240  178.4390  140.3470 C   0  0  0  0  0  2  0  0  0  0  0  0
  183.1730  177.1110  137.9410 O   0  0  0  0  0  0  0  0  0  0  0  0
  178.9360  180.8570  136.0730 C   0  0  0  0  0  1  0  0  0  0  0  0
  181.6580  177.9990  139.6160 C   0  0  2  0  0  3  0  0  0  0  0  0
  180.5200  179.4500  137.3960 C   0  0  0  0  0  0  0  0  0  0  0  0
  190.1960  177.9070  145.2830 C   0  0  0  0  0  0  0  0  0  0  0  0
  189.2500  178.2140  144.2590 N   0  0  0  0  0  2  0  0  0  0  0  0
  191.5260  177.6960  144.9470 O   0  0  0  0  0  0  0  0  0  0  0  0
  189.8370  177.8250  146.4880 O   0  0  0  0  0  1  0  0  0  0  0  0
  179.5470  179.0060  144.2530 C   0  0  0  0  0  1  0  0  0  0  0  0
  180.3570  179.6910  143.2600 N   0  0  0  0  0  2  0  0  0  0  0  0
  179.3510  176.6390  141.7980 O   0  0  0  0  0  1  0  0  0  0  0  0
  178.9800  177.6160  140.8740 C   0  0  0  0  0  2  0  0  0  0  0  0
  1  8  1  0  0  0  0
  1 17  2  0  0  0  0
  2 20  1  6  0  0  0
  2  9  1  0  0  0  0
  4 24  2  0  0  0  0
  4  3  1  0  0  0  0
  5 20  1  6  0  0  0
  5 14  1  0  0  0  0
  7 24  1  0  0  0  0
  9 10  1  0  0  0  0
  9  6  1  1  0  0  0
 10 30  1  1  0  0  0
 11 19  1  6  0  0  0
 11 18  1  0  0  0  0
 12 15  2  0  0  0  0
 12  7  1  0  0  0  0
 13  1  1  0  0  0  0
 14  6  1  1  0  0  0
 14  8  1  0  0  0  0
 15  4  1  0  0  0  0
 16  5  1  0  0  0  0
 16 13  1  0  0  0  0
 18 32  1  6  0  0  0
 18 10  1  0  0  0  0
 21  3  2  0  0  0  0
 22  7  1  0  0  0  0
 23  3  1  6  0  0  0
 23 11  1  0  0  0  0
 23  2  1  0  0  0  0
 24 19  1  0  0  0  0
 25 28  1  0  0  0  0
 26 17  1  0  0  0  0
 26 25  1  0  0  0  0
 27 25  2  0  0  0  0
 30 29  1  0  0  0  0
 32 31  1  0  0  0  0
M  END
>  <MODEL>
8

>  <REMARK>
 VINA RESULT:      -6.5      1.345      1.598
  Name = 
  3 active torsions:
  status: ('A' for Active; 'I' for Inactive)
    1  A    between atoms: N_10  and  C_24
    2  A    between atoms: N_13  and  C_15
    3  A    between atoms: C_25  and  C_26
                            x       y       z     vdW  Elec       q    Type
                         _______ _______ _______ _____ _____    ______ ____

>  <TORSDO>
F 3

$$$$
=
 OpenBabel11052417003D

 32 36  0  0  1  0  0  0  0  0999 V2000
  183.6890  179.2900  139.7400 C   0  0  0  0  0  0  0  0  0  0  0  0
  187.0340  177.3720  143.0890 C   0  0  2  0  0  3  0  0  0  0  0  0
  187.0260  177.0260  145.6530 C   0  0  0  0  0  0  0  0  0  0  0  0
  187.7030  177.5250  146.8420 C   0  0  0  0  0  0  0  0  0  0  0  0
  185.3290  179.0260  142.1070 C   0  0  1  0  0  3  0  0  0  0  0  0
  187.2250  178.1070  140.6730 C   0  0  0  0  0  2  0  0  0  0  0  0
  189.4300  178.1440  148.0620 N   0  0  0  0  0  0  0  0  0  0  0  0
  185.1510  179.0040  139.5780 C   0  0  0  0  0  2  0  0  0  0  0  0
  187.9370  178.0350  142.0320 C   0  0  2  0  0  3  0  0  0  0  0  0
  189.3140  177.3740  141.9160 C   0  0  2  0  0  3  0  0  0  0  0  0
  189.1420  177.6220  144.4040 N   0  0  2  0  0  0  0  0  0  0  0  0
  188.3350  178.1570  148.8500 C   0  0  0  0  0  3  0  0  0  0  0  0
  182.9960  178.9210  141.0210 C   0  0  0  0  0  2  0  0  0  0  0  0
  185.7060  178.2860  140.8060 C   0  0  2  0  0  3  0  0  0  0  0  0
  187.2150  177.7660  148.1140 C   0  0  0  0  0  3  0  0  0  0  0  0
  183.8300  179.3520  142.2310 C   0  0  0  0  0  2  0  0  0  0  0  0
  183.0250  179.8390  138.7260 C   0  0  0  0  0  3  0  0  0  0  0  0
  189.9770  177.1380  143.2860 C   0  0  1  0  0  3  0  0  0  0  0  0
  189.8930  177.4430  145.6620 C   0  0  0  0  0  2  0  0  0  0  0  0
  185.8170  178.2810  143.3580 C   0  0  0  0  0  2  0  0  0  0  0  0
  185.8450  176.5920  145.7250 O   0  0  0  0  0  0  0  0  0  0  0  0
  190.7870  178.4410  148.4860 C   0  0  0  0  0  1  0  0  0  0  0  0
  187.8190  176.9370  144.3570 C   0  0  2  0  0  3  0  0  0  0  0  0
  189.0350  177.7710  146.8380 C   0  0  0  0  0  0  0  0  0  0  0  0
  181.1100  181.4380  138.6220 C   0  0  0  0  0  0  0  0  0  0  0  0
  181.6270  180.1210  138.8090 N   0  0  0  0  0  2  0  0  0  0  0  0
  179.7420  181.6580  138.7140 O   0  0  0  0  0  1  0  0  0  0  0  0
  181.8810  182.4030  138.3740 O   0  0  0  0  0  0  0  0  0  0  0  0
  190.8800  177.2990  140.1840 C   0  0  0  0  0  1  0  0  0  0  0  0
  190.1910  178.1950  141.0960 N   0  0  0  0  0  2  0  0  0  0  0  0
  191.7290  175.5200  143.5660 O   0  0  0  0  0  1  0  0  0  0  0  0
  190.3470  175.6560  143.4270 C   0  0  0  0  0  2  0  0  0  0  0  0
  1 13  1  0  0  0  0
  2 20  1  1  0  0  0
  2 23  1  0  0  0  0
  3 21  2  0  0  0  0
  3  4  1  0  0  0  0
  4 15  1  0  0  0  0
  5 16  1  1  0  0  0
  5 20  1  0  0  0  0
  6 14  1  0  0  0  0
  7 22  1  0  0  0  0
  7 12  1  0  0  0  0
  8  1  1  0  0  0  0
  9  6  1  6  0  0  0
  9  2  1  0  0  0  0
 10 30  1  6  0  0  0
 10  9  1  0  0  0  0
 10 18  1  0  0  0  0
 11 19  1  1  0  0  0
 13 16  1  0  0  0  0
 14  8  1  6  0  0  0
 14  5  1  0  0  0  0
 15 12  2  0  0  0  0
 17 26  1  0  0  0  0
 17  1  2  0  0  0  0
 18 32  1  1  0  0  0
 18 11  1  0  0  0  0
 19 24  1  0  0  0  0
 23 11  1  0  0  0  0
 23  3  1  1  0  0  0
 24  4  2  0  0  0  0
 24  7  1  0  0  0  0
 25 27  1  0  0  0  0
 25 26  1  0  0  0  0
 28 25  2  0  0  0  0
 29 30  1  0  0  0  0
 32 31  1  0  0  0  0
M  END
>  <MODEL>
9

>  <REMARK>
 VINA RESULT:      -6.5      3.035      9.975
  Name = 
  3 active torsions:
  status: ('A' for Active; 'I' for Inactive)
    1  A    between atoms: N_10  and  C_24
    2  A    between atoms: N_13  and  C_15
    3  A    between atoms: C_25  and  C_26
                            x       y       z     vdW  Elec       q    Type
                         _______ _______ _______ _____ _____    ______ ____

>  <TORSDO>
F 3

$$$$
