=
 OpenBabel11052413203D

 31 32  0  0  1  0  0  0  0  0999 V2000
  192.0730  175.9130  146.4880 C   0  0  0  0  0  0  0  0  0  0  0  0
  190.4810  178.2770  143.9790 C   0  0  0  0  0  2  0  0  0  0  0  0
  191.1170  177.0540  144.5800 C   0  0  0  0  0  0  0  0  0  0  0  0
  192.3190  174.7870  145.6950 C   0  0  0  0  0  3  0  0  0  0  0  0
  190.5930  177.1310  141.7700 C   0  0  1  0  0  0  0  0  0  0  0  0
  192.4460  175.9030  147.9270 C   0  0  0  0  0  1  0  0  0  0  0  0
  191.0190  175.9330  142.4230 O   0  0  0  0  0  0  0  0  0  0  0  0
  189.6480  177.9220  142.7230 C   0  0  1  0  0  3  0  0  0  0  0  0
  191.7260  177.9080  141.5030 O   0  0  0  0  0  1  0  0  0  0  0  0
  191.4730  177.0450  145.9320 C   0  0  0  0  0  3  0  0  0  0  0  0
  191.3770  175.9270  143.7770 C   0  0  0  0  0  0  0  0  0  0  0  0
  191.9700  174.7950  144.3400 C   0  0  0  0  0  3  0  0  0  0  0  0
  188.4420  177.1390  143.0960 N   0  0  0  0  0  0  0  0  0  0  0  0
  187.2600  177.6800  142.4390 C   0  0  0  0  0  1  0  0  0  0  0  0
  188.1790  177.1390  144.5470 C   0  0  0  0  0  2  0  0  0  0  0  0
  186.7040  177.3580  144.9140 C   0  0  0  0  0  2  0  0  0  0  0  0
  186.8100  177.9370  147.2110 O   0  0  0  0  0  1  0  0  0  0  0  0
  186.5370  178.4650  145.9480 C   0  0  2  0  0  3  0  0  0  0  0  0
  185.1180  179.0390  145.9200 C   0  0  1  0  0  3  0  0  0  0  0  0
  184.4820  178.8170  144.5590 C   0  0  0  0  0  1  0  0  0  0  0  0
  184.3260  178.4250  146.8910 O   0  0  0  0  0  1  0  0  0  0  0  0
  189.9410  176.7610  140.4340 C   0  0  0  0  0  2  0  0  0  0  0  0
  190.3030  177.7040  139.3750 N   0  0  0  0  0  0  0  0  0  0  0  0
  189.1370  178.5190  139.0120 C   0  0  0  0  0  2  0  0  0  0  0  0
  189.0530  178.8370  137.5180 C   0  0  0  0  0  1  0  0  0  0  0  0
  190.7320  176.9450  138.2030 C   0  0  0  0  0  2  0  0  0  0  0  0
  192.1190  176.3660  138.4250 C   0  0  0  0  0  2  0  0  0  0  0  0
  192.6710  175.7900  137.1330 C   0  0  0  0  0  2  0  0  0  0  0  0
  192.8060  174.2820  137.2440 C   0  0  0  0  0  2  0  0  0  0  0  0
  195.0210  173.9030  138.2820 C   0  0  0  0  0  1  0  0  0  0  0  0
  194.2420  173.8640  136.9830 C   0  0  0  0  0  2  0  0  0  0  0  0
  1  6  1  0  0  0  0
  2  3  1  0  0  0  0
  3 10  2  0  0  0  0
  4  1  2  0  0  0  0
  5  9  1  6  0  0  0
  5  7  1  0  0  0  0
  5  8  1  0  0  0  0
  7 11  1  0  0  0  0
  8 13  1  1  0  0  0
  8  2  1  0  0  0  0
 10  1  1  0  0  0  0
 11 12  2  0  0  0  0
 11  3  1  0  0  0  0
 12  4  1  0  0  0  0
 13 15  1  0  0  0  0
 14 13  1  0  0  0  0
 15 16  1  0  0  0  0
 16 18  1  0  0  0  0
 18 17  1  1  0  0  0
 19 20  1  6  0  0  0
 19 18  1  0  0  0  0
 19 21  1  0  0  0  0
 22  5  1  0  0  0  0
 23 22  1  0  0  0  0
 24 23  1  0  0  0  0
 25 24  1  0  0  0  0
 26 27  1  0  0  0  0
 26 23  1  0  0  0  0
 28 29  1  0  0  0  0
 28 27  1  0  0  0  0
 31 29  1  0  0  0  0
 31 30  1  0  0  0  0
M  END
>  <MODEL>
1

>  <REMARK>
 VINA RESULT:      -7.1      0.000      0.000
  Name = 
  13 active torsions:
  status: ('A' for Active; 'I' for Inactive)
    1  A    between atoms: C_1  and  C_11
    2  A    between atoms: C_1  and  C_24
    3  A    between atoms: C_3  and  N_9
    4  A    between atoms: N_5  and  C_10
    5  A    between atoms: N_5  and  C_21
    6  A    between atoms: C_6  and  N_9
    7  A    between atoms: C_6  and  C_19
    8  A    between atoms: C_7  and  N_9
    9  A    between atoms: C_7  and  C_15
   10  A    between atoms: C_10  and  C_18
   11  A    between atoms: C_17  and  C_31
   12  A    between atoms: C_18  and  C_31
   13  A    between atoms: C_19  and  C_24
                            x       y       z     vdW  Elec       q    Type
                         _______ _______ _______ _____ _____    ______ ____

>  <TORSDO>
F 13

$$$$
=
 OpenBabel11052413203D

 31 32  0  0  1  0  0  0  0  0999 V2000
  191.9970  175.9530  146.3950 C   0  0  0  0  0  0  0  0  0  0  0  0
  190.3860  178.3530  143.9320 C   0  0  0  0  0  2  0  0  0  0  0  0
  191.0160  177.1180  144.5130 C   0  0  0  0  0  0  0  0  0  0  0  0
  192.2090  174.8280  145.5910 C   0  0  0  0  0  3  0  0  0  0  0  0
  190.4330  177.2160  141.7160 C   0  0  1  0  0  0  0  0  0  0  0  0
  192.4000  175.9310  147.8260 C   0  0  0  0  0  1  0  0  0  0  0  0
  190.8550  176.0090  142.3540 O   0  0  0  0  0  0  0  0  0  0  0  0
  189.5200  178.0160  142.6930 C   0  0  1  0  0  3  0  0  0  0  0  0
  191.5710  177.9780  141.4280 O   0  0  0  0  0  1  0  0  0  0  0  0
  191.4010  177.0970  145.8580 C   0  0  0  0  0  3  0  0  0  0  0  0
  191.2430  175.9910  143.7000 C   0  0  0  0  0  0  0  0  0  0  0  0
  191.8310  174.8480  144.2450 C   0  0  0  0  0  3  0  0  0  0  0  0
  188.3120  177.2490  143.0880 N   0  0  0  0  0  0  0  0  0  0  0  0
  187.1100  177.8820  142.5600 C   0  0  0  0  0  1  0  0  0  0  0  0
  188.1480  177.1400  144.5490 C   0  0  0  0  0  2  0  0  0  0  0  0
  186.8650  177.7920  145.0840 C   0  0  0  0  0  2  0  0  0  0  0  0
  186.0010  178.7130  147.0910 O   0  0  0  0  0  1  0  0  0  0  0  0
  186.7380  177.6350  146.5950 C   0  0  2  0  0  3  0  0  0  0  0  0
  188.1130  177.5920  147.2660 C   0  0  1  0  0  3  0  0  0  0  0  0
  188.1480  178.5210  148.4660 C   0  0  0  0  0  1  0  0  0  0  0  0
  188.4030  176.2960  147.6940 O   0  0  0  0  0  1  0  0  0  0  0  0
  189.7470  176.8630  140.3930 C   0  0  0  0  0  2  0  0  0  0  0  0
  190.1640  177.7560  139.3100 N   0  0  0  0  0  0  0  0  0  0  0  0
  189.0640  178.6620  138.9590 C   0  0  0  0  0  2  0  0  0  0  0  0
  188.9850  178.9790  137.4650 C   0  0  0  0  0  1  0  0  0  0  0  0
  190.5010  176.9450  138.1420 C   0  0  0  0  0  2  0  0  0  0  0  0
  191.5690  175.9240  138.4960 C   0  0  0  0  0  2  0  0  0  0  0  0
  192.9540  176.5320  138.3600 C   0  0  0  0  0  2  0  0  0  0  0  0
  193.6730  175.9380  137.1620 C   0  0  0  0  0  2  0  0  0  0  0  0
  194.4860  173.7140  137.8830 C   0  0  0  0  0  1  0  0  0  0  0  0
  193.4230  174.4430  137.0880 C   0  0  0  0  0  2  0  0  0  0  0  0
  1  6  1  0  0  0  0
  2  3  1  0  0  0  0
  3 10  2  0  0  0  0
  4  1  2  0  0  0  0
  5  9  1  6  0  0  0
  5  7  1  0  0  0  0
  5  8  1  0  0  0  0
  7 11  1  0  0  0  0
  8 13  1  1  0  0  0
  8  2  1  0  0  0  0
 10  1  1  0  0  0  0
 11 12  2  0  0  0  0
 11  3  1  0  0  0  0
 12  4  1  0  0  0  0
 13 15  1  0  0  0  0
 14 13  1  0  0  0  0
 15 16  1  0  0  0  0
 16 18  1  0  0  0  0
 18 17  1  1  0  0  0
 18 19  1  0  0  0  0
 19 21  1  0  0  0  0
 19 20  1  1  0  0  0
 22  5  1  0  0  0  0
 23 22  1  0  0  0  0
 24 23  1  0  0  0  0
 25 24  1  0  0  0  0
 26 27  1  0  0  0  0
 26 23  1  0  0  0  0
 28 27  1  0  0  0  0
 29 28  1  0  0  0  0
 31 29  1  0  0  0  0
 31 30  1  0  0  0  0
M  END
>  <MODEL>
2

>  <REMARK>
 VINA RESULT:      -7.1      0.913      1.549
  Name = 
  13 active torsions:
  status: ('A' for Active; 'I' for Inactive)
    1  A    between atoms: C_1  and  C_11
    2  A    between atoms: C_1  and  C_24
    3  A    between atoms: C_3  and  N_9
    4  A    between atoms: N_5  and  C_10
    5  A    between atoms: N_5  and  C_21
    6  A    between atoms: C_6  and  N_9
    7  A    between atoms: C_6  and  C_19
    8  A    between atoms: C_7  and  N_9
    9  A    between atoms: C_7  and  C_15
   10  A    between atoms: C_10  and  C_18
   11  A    between atoms: C_17  and  C_31
   12  A    between atoms: C_18  and  C_31
   13  A    between atoms: C_19  and  C_24
                            x       y       z     vdW  Elec       q    Type
                         _______ _______ _______ _____ _____    ______ ____

>  <TORSDO>
F 13

$$$$
=
 OpenBabel11052413203D

 31 32  0  0  1  0  0  0  0  0999 V2000
  192.0070  175.9990  146.4410 C   0  0  0  0  0  0  0  0  0  0  0  0
  190.5800  178.3970  143.8650 C   0  0  0  0  0  2  0  0  0  0  0  0
  191.1350  177.1520  144.5000 C   0  0  0  0  0  0  0  0  0  0  0  0
  192.1880  174.8420  145.6760 C   0  0  0  0  0  3  0  0  0  0  0  0
  190.6350  177.1940  141.6850 C   0  0  1  0  0  0  0  0  0  0  0  0
  192.3690  176.0000  147.8830 C   0  0  0  0  0  1  0  0  0  0  0  0
  190.9810  175.9880  142.3690 O   0  0  0  0  0  0  0  0  0  0  0  0
  189.7340  178.0640  142.6120 C   0  0  1  0  0  3  0  0  0  0  0  0
  191.8150  177.8930  141.4080 O   0  0  0  0  0  1  0  0  0  0  0  0
  191.4820  177.1530  145.8550 C   0  0  0  0  0  3  0  0  0  0  0  0
  191.3300  175.9920  143.7260 C   0  0  0  0  0  0  0  0  0  0  0  0
  191.8480  174.8390  144.3190 C   0  0  0  0  0  3  0  0  0  0  0  0
  188.4800  177.3660  142.9930 N   0  0  0  0  0  0  0  0  0  0  0  0
  187.3740  177.8090  142.1550 C   0  0  0  0  0  1  0  0  0  0  0  0
  188.0920  177.6010  144.3970 C   0  0  0  0  0  2  0  0  0  0  0  0
  186.5810  177.5000  144.6510 C   0  0  0  0  0  2  0  0  0  0  0  0
  185.9300  178.1200  146.8460 O   0  0  0  0  0  1  0  0  0  0  0  0
  186.0830  178.6240  145.5530 C   0  0  2  0  0  3  0  0  0  0  0  0
  184.7500  179.1860  145.0520 C   0  0  1  0  0  3  0  0  0  0  0  0
  184.3400  178.5080  143.7570 C   0  0  0  0  0  1  0  0  0  0  0  0
  183.7490  178.9800  146.0030 O   0  0  0  0  0  1  0  0  0  0  0  0
  189.9690  176.8340  140.3530 C   0  0  0  0  0  2  0  0  0  0  0  0
  190.2900  177.8050  139.3060 N   0  0  0  0  0  0  0  0  0  0  0  0
  189.0750  178.5250  138.9040 C   0  0  0  0  0  2  0  0  0  0  0  0
  189.0690  178.9410  137.4330 C   0  0  0  0  0  1  0  0  0  0  0  0
  190.8180  177.0860  138.1500 C   0  0  0  0  0  2  0  0  0  0  0  0
  190.4480  175.6150  138.2270 C   0  0  0  0  0  2  0  0  0  0  0  0
  190.0200  175.1000  136.8640 C   0  0  0  0  0  2  0  0  0  0  0  0
  188.5300  175.3160  136.6640 C   0  0  0  0  0  2  0  0  0  0  0  0
  188.6160  172.8740  136.2730 C   0  0  0  0  0  1  0  0  0  0  0  0
  187.7830  174.0070  136.8360 C   0  0  0  0  0  2  0  0  0  0  0  0
  1  6  1  0  0  0  0
  2  3  1  0  0  0  0
  3 10  2  0  0  0  0
  4  1  2  0  0  0  0
  5  9  1  6  0  0  0
  5  7  1  0  0  0  0
  5  8  1  0  0  0  0
  7 11  1  0  0  0  0
  8 13  1  1  0  0  0
  8  2  1  0  0  0  0
 10  1  1  0  0  0  0
 11 12  2  0  0  0  0
 11  3  1  0  0  0  0
 12  4  1  0  0  0  0
 13 15  1  0  0  0  0
 14 13  1  0  0  0  0
 15 16  1  0  0  0  0
 16 18  1  0  0  0  0
 18 17  1  1  0  0  0
 19 20  1  6  0  0  0
 19 18  1  0  0  0  0
 19 21  1  0  0  0  0
 22  5  1  0  0  0  0
 23 22  1  0  0  0  0
 24 23  1  0  0  0  0
 25 24  1  0  0  0  0
 26 27  1  0  0  0  0
 26 23  1  0  0  0  0
 28 27  1  0  0  0  0
 29 31  1  0  0  0  0
 29 28  1  0  0  0  0
 30 31  1  0  0  0  0
M  END
>  <MODEL>
3

>  <REMARK>
 VINA RESULT:      -7.0      1.443      1.998
  Name = 
  13 active torsions:
  status: ('A' for Active; 'I' for Inactive)
    1  A    between atoms: C_1  and  C_11
    2  A    between atoms: C_1  and  C_24
    3  A    between atoms: C_3  and  N_9
    4  A    between atoms: N_5  and  C_10
    5  A    between atoms: N_5  and  C_21
    6  A    between atoms: C_6  and  N_9
    7  A    between atoms: C_6  and  C_19
    8  A    between atoms: C_7  and  N_9
    9  A    between atoms: C_7  and  C_15
   10  A    between atoms: C_10  and  C_18
   11  A    between atoms: C_17  and  C_31
   12  A    between atoms: C_18  and  C_31
   13  A    between atoms: C_19  and  C_24
                            x       y       z     vdW  Elec       q    Type
                         _______ _______ _______ _____ _____    ______ ____

>  <TORSDO>
F 13

$$$$
=
 OpenBabel11052413203D

 31 32  0  0  1  0  0  0  0  0999 V2000
  191.3030  176.4250  145.8430 C   0  0  0  0  0  0  0  0  0  0  0  0
  189.1690  175.8440  142.7560 C   0  0  0  0  0  2  0  0  0  0  0  0
  189.7500  176.4830  143.9870 C   0  0  0  0  0  0  0  0  0  0  0  0
  190.8180  177.6590  146.2890 C   0  0  0  0  0  3  0  0  0  0  0  0
  187.5250  177.7150  142.6810 C   0  0  1  0  0  0  0  0  0  0  0  0
  192.3900  175.7400  146.5900 C   0  0  0  0  0  1  0  0  0  0  0  0
  188.2340  178.3680  143.7360 O   0  0  0  0  0  0  0  0  0  0  0  0
  188.5350  176.9000  141.8170 C   0  0  1  0  0  3  0  0  0  0  0  0
  186.6020  176.8340  143.2560 O   0  0  0  0  0  1  0  0  0  0  0  0
  190.7700  175.8370  144.6940 C   0  0  0  0  0  3  0  0  0  0  0  0
  189.2530  177.7180  144.4440 C   0  0  0  0  0  0  0  0  0  0  0  0
  189.7950  178.3060  145.5890 C   0  0  0  0  0  3  0  0  0  0  0  0
  189.5810  177.7630  141.2130 N   0  0  0  0  0  0  0  0  0  0  0  0
  189.0560  178.4600  140.0460 C   0  0  0  0  0  1  0  0  0  0  0  0
  190.7720  177.0100  140.7790 C   0  0  0  0  0  2  0  0  0  0  0  0
  191.4250  177.5580  139.5020 C   0  0  0  0  0  2  0  0  0  0  0  0
  190.8210  175.3700  138.8160 O   0  0  0  0  0  1  0  0  0  0  0  0
  191.5800  176.4800  138.4360 C   0  0  2  0  0  3  0  0  0  0  0  0
  193.0460  176.0730  138.2670 C   0  0  1  0  0  3  0  0  0  0  0  0
  193.4810  176.2440  136.8220 C   0  0  0  0  0  1  0  0  0  0  0  0
  193.8650  176.8610  139.0770 O   0  0  0  0  0  1  0  0  0  0  0  0
  186.7480  178.7650  141.8810 C   0  0  0  0  0  2  0  0  0  0  0  0
  185.3030  178.5500  141.9640 N   0  0  0  0  0  0  0  0  0  0  0  0
  184.6730  178.8940  140.6830 C   0  0  0  0  0  2  0  0  0  0  0  0
  183.5350  177.9530  140.2880 C   0  0  0  0  0  1  0  0  0  0  0  0
  184.7620  179.4190  143.0060 C   0  0  0  0  0  2  0  0  0  0  0  0
  183.7300  178.6740  143.8350 C   0  0  0  0  0  2  0  0  0  0  0  0
  183.9260  178.9600  145.3140 C   0  0  0  0  0  2  0  0  0  0  0  0
  185.3990  179.1580  145.6220 C   0  0  0  0  0  2  0  0  0  0  0  0
  186.7820  178.3940  147.5260 C   0  0  0  0  0  1  0  0  0  0  0  0
  185.9510  177.9420  146.3430 C   0  0  0  0  0  2  0  0  0  0  0  0
  1  4  1  0  0  0  0
  1  6  1  0  0  0  0
  2  3  1  0  0  0  0
  3 11  2  0  0  0  0
  3 10  1  0  0  0  0
  5  9  1  1  0  0  0
  5  7  1  0  0  0  0
  7 11  1  0  0  0  0
  8 13  1  1  0  0  0
  8  5  1  0  0  0  0
  8  2  1  0  0  0  0
 10  1  2  0  0  0  0
 11 12  1  0  0  0  0
 12  4  2  0  0  0  0
 14 13  1  0  0  0  0
 15 13  1  0  0  0  0
 16 15  1  0  0  0  0
 18 17  1  1  0  0  0
 18 16  1  0  0  0  0
 19 20  1  6  0  0  0
 19 18  1  0  0  0  0
 19 21  1  0  0  0  0
 22 23  1  0  0  0  0
 22  5  1  0  0  0  0
 23 26  1  0  0  0  0
 24 23  1  0  0  0  0
 25 24  1  0  0  0  0
 26 27  1  0  0  0  0
 27 28  1  0  0  0  0
 28 29  1  0  0  0  0
 29 31  1  0  0  0  0
 31 30  1  0  0  0  0
M  END
>  <MODEL>
4

>  <REMARK>
 VINA RESULT:      -6.4      2.102      7.498
  Name = 
  13 active torsions:
  status: ('A' for Active; 'I' for Inactive)
    1  A    between atoms: C_1  and  C_11
    2  A    between atoms: C_1  and  C_24
    3  A    between atoms: C_3  and  N_9
    4  A    between atoms: N_5  and  C_10
    5  A    between atoms: N_5  and  C_21
    6  A    between atoms: C_6  and  N_9
    7  A    between atoms: C_6  and  C_19
    8  A    between atoms: C_7  and  N_9
    9  A    between atoms: C_7  and  C_15
   10  A    between atoms: C_10  and  C_18
   11  A    between atoms: C_17  and  C_31
   12  A    between atoms: C_18  and  C_31
   13  A    between atoms: C_19  and  C_24
                            x       y       z     vdW  Elec       q    Type
                         _______ _______ _______ _____ _____    ______ ____

>  <TORSDO>
F 13

$$$$
=
 OpenBabel11052413203D

 31 32  0  0  1  0  0  0  0  0999 V2000
  185.1300  178.5370  143.8550 C   0  0  0  0  0  0  0  0  0  0  0  0
  188.3550  176.6080  143.3050 C   0  0  0  0  0  2  0  0  0  0  0  0
  187.2220  177.5770  143.1070 C   0  0  0  0  0  0  0  0  0  0  0  0
  185.1040  179.3650  142.7280 C   0  0  0  0  0  3  0  0  0  0  0  0
  189.2140  177.3060  141.0730 C   0  0  1  0  0  0  0  0  0  0  0  0
  184.0340  178.6100  144.8570 C   0  0  0  0  0  1  0  0  0  0  0  0
  188.2260  178.3380  141.0250 O   0  0  0  0  0  0  0  0  0  0  0  0
  189.6300  177.0680  142.5560 C   0  0  1  0  0  3  0  0  0  0  0  0
  188.6450  176.1330  140.5650 O   0  0  0  0  0  1  0  0  0  0  0  0
  186.1870  177.6440  144.0450 C   0  0  0  0  0  3  0  0  0  0  0  0
  187.1890  178.4000  141.9650 C   0  0  0  0  0  0  0  0  0  0  0  0
  186.1340  179.2970  141.7850 C   0  0  0  0  0  3  0  0  0  0  0  0
  190.1980  178.2880  143.1830 N   0  0  0  0  0  0  0  0  0  0  0  0
  191.6350  178.3550  142.9590 C   0  0  0  0  0  1  0  0  0  0  0  0
  189.9740  178.3470  144.6400 C   0  0  0  0  0  2  0  0  0  0  0  0
  190.9920  177.5410  145.4600 C   0  0  0  0  0  2  0  0  0  0  0  0
  189.6230  177.8270  147.3760 O   0  0  0  0  0  1  0  0  0  0  0  0
  190.3420  176.8650  146.6620 C   0  0  2  0  0  3  0  0  0  0  0  0
  191.3930  176.2220  147.5710 C   0  0  1  0  0  3  0  0  0  0  0  0
  192.3740  175.4020  146.7510 C   0  0  0  0  0  1  0  0  0  0  0  0
  192.1000  177.2030  148.2670 O   0  0  0  0  0  1  0  0  0  0  0  0
  190.3850  177.6990  140.1680 C   0  0  0  0  0  2  0  0  0  0  0  0
  190.2200  177.1780  138.8100 N   0  0  0  0  0  0  0  0  0  0  0  0
  191.5220  176.7630  138.2740 C   0  0  0  0  0  2  0  0  0  0  0  0
  191.5800  175.2860  137.8810 C   0  0  0  0  0  1  0  0  0  0  0  0
  189.6780  178.2400  137.9670 C   0  0  0  0  0  2  0  0  0  0  0  0
  188.8440  177.6490  136.8430 C   0  0  0  0  0  2  0  0  0  0  0  0
  187.6940  178.5760  136.4870 C   0  0  0  0  0  2  0  0  0  0  0  0
  186.3650  177.9040  136.7810 C   0  0  0  0  0  2  0  0  0  0  0  0
  184.5160  178.1570  138.4050 C   0  0  0  0  0  1  0  0  0  0  0  0
  186.0190  178.0470  138.2510 C   0  0  0  0  0  2  0  0  0  0  0  0
  1 10  1  0  0  0  0
  1  6  1  0  0  0  0
  3  2  1  0  0  0  0
  3 10  2  0  0  0  0
  4  1  2  0  0  0  0
  5  9  1  6  0  0  0
  5  8  1  0  0  0  0
  7  5  1  0  0  0  0
  7 11  1  0  0  0  0
  8 13  1  1  0  0  0
  8  2  1  0  0  0  0
 11  3  1  0  0  0  0
 12 11  2  0  0  0  0
 12  4  1  0  0  0  0
 13 15  1  0  0  0  0
 14 13  1  0  0  0  0
 15 16  1  0  0  0  0
 16 18  1  0  0  0  0
 18 17  1  1  0  0  0
 18 19  1  0  0  0  0
 19 20  1  6  0  0  0
 19 21  1  0  0  0  0
 22  5  1  0  0  0  0
 23 22  1  0  0  0  0
 24 23  1  0  0  0  0
 25 24  1  0  0  0  0
 26 23  1  0  0  0  0
 27 26  1  0  0  0  0
 28 29  1  0  0  0  0
 28 27  1  0  0  0  0
 29 31  1  0  0  0  0
 31 30  1  0  0  0  0
M  END
>  <MODEL>
5

>  <REMARK>
 VINA RESULT:      -6.4      2.108      5.751
  Name = 
  13 active torsions:
  status: ('A' for Active; 'I' for Inactive)
    1  A    between atoms: C_1  and  C_11
    2  A    between atoms: C_1  and  C_24
    3  A    between atoms: C_3  and  N_9
    4  A    between atoms: N_5  and  C_10
    5  A    between atoms: N_5  and  C_21
    6  A    between atoms: C_6  and  N_9
    7  A    between atoms: C_6  and  C_19
    8  A    between atoms: C_7  and  N_9
    9  A    between atoms: C_7  and  C_15
   10  A    between atoms: C_10  and  C_18
   11  A    between atoms: C_17  and  C_31
   12  A    between atoms: C_18  and  C_31
   13  A    between atoms: C_19  and  C_24
                            x       y       z     vdW  Elec       q    Type
                         _______ _______ _______ _____ _____    ______ ____

>  <TORSDO>
F 13

$$$$
=
 OpenBabel11052413203D

 31 32  0  0  1  0  0  0  0  0999 V2000
  191.8190  177.4240  141.8100 C   0  0  0  0  0  0  0  0  0  0  0  0
  188.1480  176.5890  142.3110 C   0  0  0  0  0  2  0  0  0  0  0  0
  189.5030  177.2190  142.4830 C   0  0  0  0  0  0  0  0  0  0  0  0
  192.0290  178.3750  142.8140 C   0  0  0  0  0  3  0  0  0  0  0  0
  187.4190  177.8350  144.3410 C   0  0  1  0  0  0  0  0  0  0  0  0
  192.9380  177.0310  140.9130 C   0  0  0  0  0  1  0  0  0  0  0  0
  188.6610  178.5420  144.3420 O   0  0  0  0  0  0  0  0  0  0  0  0
  187.0270  177.4980  142.8700 C   0  0  1  0  0  3  0  0  0  0  0  0
  187.5950  176.6430  145.0510 O   0  0  0  0  0  1  0  0  0  0  0  0
  190.5580  176.8460  141.6440 C   0  0  0  0  0  3  0  0  0  0  0  0
  189.7170  178.1650  143.5030 C   0  0  0  0  0  0  0  0  0  0  0  0
  190.9780  178.7460  143.6590 C   0  0  0  0  0  3  0  0  0  0  0  0
  186.8720  178.7170  142.0370 N   0  0  0  0  0  0  0  0  0  0  0  0
  185.4660  178.9630  141.7480 C   0  0  0  0  0  1  0  0  0  0  0  0
  187.5790  178.6270  140.7450 C   0  0  0  0  0  2  0  0  0  0  0  0
  186.6630  178.3130  139.5530 C   0  0  0  0  0  2  0  0  0  0  0  0
  187.4970  176.7050  138.0220 O   0  0  0  0  0  1  0  0  0  0  0  0
  187.4590  178.0780  138.2750 C   0  0  2  0  0  3  0  0  0  0  0  0
  188.8840  178.6240  138.4010 C   0  0  1  0  0  3  0  0  0  0  0  0
  189.8950  177.5680  137.9890 C   0  0  0  0  0  1  0  0  0  0  0  0
  189.0480  179.7440  137.5850 O   0  0  0  0  0  1  0  0  0  0  0  0
  186.3700  178.6770  145.0730 C   0  0  0  0  0  2  0  0  0  0  0  0
  186.0130  178.0930  146.3670 N   0  0  0  0  0  0  0  0  0  0  0  0
  184.5690  178.2320  146.5960 C   0  0  0  0  0  2  0  0  0  0  0  0
  183.8100  178.7940  145.3940 C   0  0  0  0  0  1  0  0  0  0  0  0
  186.7290  178.8140  147.4160 C   0  0  0  0  0  2  0  0  0  0  0  0
  187.5980  177.8590  148.2170 C   0  0  0  0  0  2  0  0  0  0  0  0
  189.0630  178.0400  147.8570 C   0  0  0  0  0  2  0  0  0  0  0  0
  189.7420  176.6900  147.7210 C   0  0  0  0  0  2  0  0  0  0  0  0
  192.0500  175.9450  147.2230 C   0  0  0  0  0  1  0  0  0  0  0  0
  190.8840  176.7750  146.7260 C   0  0  0  0  0  2  0  0  0  0  0  0
  1  4  1  0  0  0  0
  2  3  1  0  0  0  0
  2  8  1  0  0  0  0
  3 11  2  0  0  0  0
  4 12  2  0  0  0  0
  5  7  1  0  0  0  0
  5  9  1  1  0  0  0
  5 22  1  0  0  0  0
  6  1  1  0  0  0  0
  8 13  1  6  0  0  0
  8  5  1  0  0  0  0
 10  1  2  0  0  0  0
 10  3  1  0  0  0  0
 11 12  1  0  0  0  0
 11  7  1  0  0  0  0
 14 13  1  0  0  0  0
 15 13  1  0  0  0  0
 16 15  1  0  0  0  0
 18 17  1  1  0  0  0
 18 19  1  0  0  0  0
 18 16  1  0  0  0  0
 19 20  1  6  0  0  0
 21 19  1  0  0  0  0
 22 23  1  0  0  0  0
 23 24  1  0  0  0  0
 23 26  1  0  0  0  0
 25 24  1  0  0  0  0
 26 27  1  0  0  0  0
 28 27  1  0  0  0  0
 29 28  1  0  0  0  0
 31 30  1  0  0  0  0
 31 29  1  0  0  0  0
M  END
>  <MODEL>
6

>  <REMARK>
 VINA RESULT:      -6.3      2.585      7.300
  Name = 
  13 active torsions:
  status: ('A' for Active; 'I' for Inactive)
    1  A    between atoms: C_1  and  C_11
    2  A    between atoms: C_1  and  C_24
    3  A    between atoms: C_3  and  N_9
    4  A    between atoms: N_5  and  C_10
    5  A    between atoms: N_5  and  C_21
    6  A    between atoms: C_6  and  N_9
    7  A    between atoms: C_6  and  C_19
    8  A    between atoms: C_7  and  N_9
    9  A    between atoms: C_7  and  C_15
   10  A    between atoms: C_10  and  C_18
   11  A    between atoms: C_17  and  C_31
   12  A    between atoms: C_18  and  C_31
   13  A    between atoms: C_19  and  C_24
                            x       y       z     vdW  Elec       q    Type
                         _______ _______ _______ _____ _____    ______ ____

>  <TORSDO>
F 13

$$$$
=
 OpenBabel11052413203D

 31 32  0  0  1  0  0  0  0  0999 V2000
  185.6970  178.1370  145.7710 C   0  0  0  0  0  0  0  0  0  0  0  0
  185.3690  179.6960  142.3230 C   0  0  0  0  0  2  0  0  0  0  0  0
  185.8150  178.8000  143.4460 C   0  0  0  0  0  0  0  0  0  0  0  0
  186.6580  177.1470  145.5400 C   0  0  0  0  0  3  0  0  0  0  0  0
  187.0840  178.5920  140.8920 C   0  0  1  0  0  0  0  0  0  0  0  0
  185.1170  178.3070  147.1290 C   0  0  0  0  0  1  0  0  0  0  0  0
  187.3330  177.6460  141.9340 O   0  0  0  0  0  0  0  0  0  0  0  0
  185.5880  179.0260  140.9440 C   0  0  1  0  0  3  0  0  0  0  0  0
  187.8910  179.7120  141.1170 O   0  0  0  0  0  1  0  0  0  0  0  0
  185.2750  178.9630  144.7260 C   0  0  0  0  0  3  0  0  0  0  0  0
  186.7930  177.8130  143.2160 C   0  0  0  0  0  0  0  0  0  0  0  0
  187.2040  176.9850  144.2630 C   0  0  0  0  0  3  0  0  0  0  0  0
  184.6630  177.8780  140.7650 N   0  0  0  0  0  0  0  0  0  0  0  0
  184.1250  177.8630  139.4110 C   0  0  0  0  0  1  0  0  0  0  0  0
  183.5190  177.9060  141.6940 C   0  0  0  0  0  2  0  0  0  0  0  0
  182.1870  178.2910  141.0340 C   0  0  0  0  0  2  0  0  0  0  0  0
  181.8940  179.0960  143.2460 O   0  0  0  0  0  1  0  0  0  0  0  0
  181.2820  179.0570  141.9910 C   0  0  2  0  0  3  0  0  0  0  0  0
  179.9070  178.3930  142.1040 C   0  0  1  0  0  3  0  0  0  0  0  0
  179.7240  177.3600  141.0060 C   0  0  0  0  0  1  0  0  0  0  0  0
  179.7730  177.7610  143.3410 O   0  0  0  0  0  1  0  0  0  0  0  0
  187.4910  177.9710  139.5520 C   0  0  0  0  0  2  0  0  0  0  0  0
  188.9050  178.2040  139.2540 N   0  0  0  0  0  0  0  0  0  0  0  0
  189.0510  178.6810  137.8730 C   0  0  0  0  0  2  0  0  0  0  0  0
  187.7620  178.5940  137.0550 C   0  0  0  0  0  1  0  0  0  0  0  0
  189.6250  176.9410  139.3980 C   0  0  0  0  0  2  0  0  0  0  0  0
  190.8790  177.1390  140.2320 C   0  0  0  0  0  2  0  0  0  0  0  0
  190.6090  176.8070  141.6890 C   0  0  0  0  0  2  0  0  0  0  0  0
  191.6520  177.4580  142.5790 C   0  0  0  0  0  2  0  0  0  0  0  0
  190.4370  178.8850  144.1960 C   0  0  0  0  0  1  0  0  0  0  0  0
  191.1380  177.5550  144.0040 C   0  0  0  0  0  2  0  0  0  0  0  0
  1  6  1  0  0  0  0
  2  3  1  0  0  0  0
  3 10  1  0  0  0  0
  4  1  1  0  0  0  0
  5  8  1  0  0  0  0
  5  9  1  1  0  0  0
  5  7  1  0  0  0  0
  7 11  1  0  0  0  0
  8 13  1  1  0  0  0
  8  2  1  0  0  0  0
 10  1  2  0  0  0  0
 11  3  2  0  0  0  0
 11 12  1  0  0  0  0
 12  4  2  0  0  0  0
 13 15  1  0  0  0  0
 14 13  1  0  0  0  0
 16 15  1  0  0  0  0
 16 18  1  0  0  0  0
 18 19  1  0  0  0  0
 18 17  1  1  0  0  0
 19 20  1  6  0  0  0
 19 21  1  0  0  0  0
 22  5  1  0  0  0  0
 23 26  1  0  0  0  0
 23 22  1  0  0  0  0
 24 23  1  0  0  0  0
 25 24  1  0  0  0  0
 26 27  1  0  0  0  0
 27 28  1  0  0  0  0
 28 29  1  0  0  0  0
 29 31  1  0  0  0  0
 31 30  1  0  0  0  0
M  END
>  <MODEL>
7

>  <REMARK>
 VINA RESULT:      -6.2      2.991      5.446
  Name = 
  13 active torsions:
  status: ('A' for Active; 'I' for Inactive)
    1  A    between atoms: C_1  and  C_11
    2  A    between atoms: C_1  and  C_24
    3  A    between atoms: C_3  and  N_9
    4  A    between atoms: N_5  and  C_10
    5  A    between atoms: N_5  and  C_21
    6  A    between atoms: C_6  and  N_9
    7  A    between atoms: C_6  and  C_19
    8  A    between atoms: C_7  and  N_9
    9  A    between atoms: C_7  and  C_15
   10  A    between atoms: C_10  and  C_18
   11  A    between atoms: C_17  and  C_31
   12  A    between atoms: C_18  and  C_31
   13  A    between atoms: C_19  and  C_24
                            x       y       z     vdW  Elec       q    Type
                         _______ _______ _______ _____ _____    ______ ____

>  <TORSDO>
F 13

$$$$
=
 OpenBabel11052413203D

 31 32  0  0  1  0  0  0  0  0999 V2000
  192.0310  176.0040  146.2340 C   0  0  0  0  0  0  0  0  0  0  0  0
  190.8660  178.5390  143.6570 C   0  0  0  0  0  2  0  0  0  0  0  0
  191.2780  177.2400  144.2940 C   0  0  0  0  0  0  0  0  0  0  0  0
  192.0640  174.8290  145.4750 C   0  0  0  0  0  3  0  0  0  0  0  0
  190.7500  177.3250  141.4850 C   0  0  1  0  0  0  0  0  0  0  0  0
  192.4090  175.9700  147.6710 C   0  0  0  0  0  1  0  0  0  0  0  0
  190.9600  176.0900  142.1740 O   0  0  0  0  0  0  0  0  0  0  0  0
  189.9700  178.3010  142.4170 C   0  0  1  0  0  3  0  0  0  0  0  0
  192.0010  177.8780  141.1900 O   0  0  0  0  0  1  0  0  0  0  0  0
  191.6390  177.2080  145.6450 C   0  0  0  0  0  3  0  0  0  0  0  0
  191.3240  176.0610  143.5260 C   0  0  0  0  0  0  0  0  0  0  0  0
  191.7100  174.8580  144.1220 C   0  0  0  0  0  3  0  0  0  0  0  0
  188.6480  177.7590  142.8180 N   0  0  0  0  0  0  0  0  0  0  0  0
  187.6040  178.2500  141.9290 C   0  0  0  0  0  1  0  0  0  0  0  0
  188.2650  178.1260  144.1940 C   0  0  0  0  0  2  0  0  0  0  0  0
  187.4450  177.0510  144.9220 C   0  0  0  0  0  2  0  0  0  0  0  0
  186.3920  178.7100  146.2490 O   0  0  0  0  0  1  0  0  0  0  0  0
  187.0630  177.4880  146.3310 C   0  0  2  0  0  3  0  0  0  0  0  0
  188.3010  177.6340  147.2210 C   0  0  1  0  0  3  0  0  0  0  0  0
  187.9230  178.2380  148.5610 C   0  0  0  0  0  1  0  0  0  0  0  0
  188.8890  176.3870  147.4410 O   0  0  0  0  0  1  0  0  0  0  0  0
  190.0300  177.0390  140.1640 C   0  0  0  0  0  2  0  0  0  0  0  0
  190.7890  176.1120  139.3220 N   0  0  0  0  0  0  0  0  0  0  0  0
  191.9570  176.7970  138.7550 C   0  0  0  0  0  2  0  0  0  0  0  0
  193.0030  175.8450  138.1730 C   0  0  0  0  0  1  0  0  0  0  0  0
  189.9290  175.6630  138.2310 C   0  0  0  0  0  2  0  0  0  0  0  0
  188.7450  176.6010  138.0690 C   0  0  0  0  0  2  0  0  0  0  0  0
  188.8280  177.3420  136.7460 C   0  0  0  0  0  2  0  0  0  0  0  0
  187.8790  178.5270  136.7450 C   0  0  0  0  0  2  0  0  0  0  0  0
  186.1990  177.4570  135.2770 C   0  0  0  0  0  1  0  0  0  0  0  0
  186.4430  178.0480  136.6510 C   0  0  0  0  0  2  0  0  0  0  0  0
  1  6  1  0  0  0  0
  2  3  1  0  0  0  0
  3 10  2  0  0  0  0
  4  1  2  0  0  0  0
  5  9  1  6  0  0  0
  5  7  1  0  0  0  0
  5  8  1  0  0  0  0
  7 11  1  0  0  0  0
  8 13  1  1  0  0  0
  8  2  1  0  0  0  0
 10  1  1  0  0  0  0
 11 12  2  0  0  0  0
 11  3  1  0  0  0  0
 12  4  1  0  0  0  0
 13 15  1  0  0  0  0
 14 13  1  0  0  0  0
 15 16  1  0  0  0  0
 16 18  1  0  0  0  0
 18 17  1  6  0  0  0
 18 19  1  0  0  0  0
 19 21  1  0  0  0  0
 19 20  1  1  0  0  0
 22  5  1  0  0  0  0
 23 22  1  0  0  0  0
 24 23  1  0  0  0  0
 25 24  1  0  0  0  0
 26 23  1  0  0  0  0
 27 26  1  0  0  0  0
 28 27  1  0  0  0  0
 29 28  1  0  0  0  0
 30 31  1  0  0  0  0
 31 29  1  0  0  0  0
M  END
>  <MODEL>
8

>  <REMARK>
 VINA RESULT:      -6.0      1.479      3.434
  Name = 
  13 active torsions:
  status: ('A' for Active; 'I' for Inactive)
    1  A    between atoms: C_1  and  C_11
    2  A    between atoms: C_1  and  C_24
    3  A    between atoms: C_3  and  N_9
    4  A    between atoms: N_5  and  C_10
    5  A    between atoms: N_5  and  C_21
    6  A    between atoms: C_6  and  N_9
    7  A    between atoms: C_6  and  C_19
    8  A    between atoms: C_7  and  N_9
    9  A    between atoms: C_7  and  C_15
   10  A    between atoms: C_10  and  C_18
   11  A    between atoms: C_17  and  C_31
   12  A    between atoms: C_18  and  C_31
   13  A    between atoms: C_19  and  C_24
                            x       y       z     vdW  Elec       q    Type
                         _______ _______ _______ _____ _____    ______ ____

>  <TORSDO>
F 13

$$$$
=
 OpenBabel11052413203D

 31 32  0  0  1  0  0  0  0  0999 V2000
  187.0770  177.8920  147.3480 C   0  0  0  0  0  0  0  0  0  0  0  0
  186.8850  176.7350  143.7360 C   0  0  0  0  0  2  0  0  0  0  0  0
  186.7200  177.5700  144.9760 C   0  0  0  0  0  0  0  0  0  0  0  0
  186.3960  179.1130  147.2870 C   0  0  0  0  0  3  0  0  0  0  0  0
  185.4700  178.4020  142.5430 C   0  0  1  0  0  0  0  0  0  0  0  0
  187.6340  177.4160  148.6420 C   0  0  0  0  0  1  0  0  0  0  0  0
  185.5050  179.2450  143.6970 O   0  0  0  0  0  0  0  0  0  0  0  0
  186.8040  177.6020  142.4560 C   0  0  1  0  0  3  0  0  0  0  0  0
  184.4080  177.5030  142.6920 O   0  0  0  0  0  1  0  0  0  0  0  0
  187.2390  177.1210  146.1950 C   0  0  0  0  0  3  0  0  0  0  0  0
  186.0230  178.7920  144.9170 C   0  0  0  0  0  0  0  0  0  0  0  0
  185.8710  179.5620  146.0720 C   0  0  0  0  0  3  0  0  0  0  0  0
  187.9870  178.4930  142.3480 N   0  0  0  0  0  0  0  0  0  0  0  0
  188.1710  178.9330  140.9710 C   0  0  0  0  0  1  0  0  0  0  0  0
  189.2410  177.8440  142.7740 C   0  0  0  0  0  2  0  0  0  0  0  0
  189.9770  178.5860  143.8990 C   0  0  0  0  0  2  0  0  0  0  0  0
  191.8470  177.7520  142.7030 O   0  0  0  0  0  1  0  0  0  0  0  0
  191.4490  178.1970  143.9660 C   0  0  2  0  0  3  0  0  0  0  0  0
  191.6850  177.0970  145.0040 C   0  0  1  0  0  3  0  0  0  0  0  0
  190.6070  177.1340  146.0720 C   0  0  0  0  0  1  0  0  0  0  0  0
  191.6680  175.8420  144.3930 O   0  0  0  0  0  1  0  0  0  0  0  0
  185.1950  179.2650  141.3070 C   0  0  0  0  0  2  0  0  0  0  0  0
  184.4020  178.5460  140.3090 N   0  0  0  0  0  0  0  0  0  0  0  0
  184.9410  178.7980  138.9670 C   0  0  0  0  0  2  0  0  0  0  0  0
  185.0880  177.5340  138.1190 C   0  0  0  0  0  1  0  0  0  0  0  0
  183.0270  179.0380  140.3670 C   0  0  0  0  0  2  0  0  0  0  0  0
  182.0480  177.8760  140.3420 C   0  0  0  0  0  2  0  0  0  0  0  0
  180.8780  178.1440  141.2730 C   0  0  0  0  0  2  0  0  0  0  0  0
  181.1490  179.3760  142.1180 C   0  0  0  0  0  2  0  0  0  0  0  0
  180.0520  178.1590  143.9730 C   0  0  0  0  0  1  0  0  0  0  0  0
  181.2550  178.9940  143.5820 C   0  0  0  0  0  2  0  0  0  0  0  0
  1  6  1  0  0  0  0
  2  3  1  0  0  0  0
  3 10  1  0  0  0  0
  4  1  1  0  0  0  0
  5  9  1  1  0  0  0
  5  7  1  0  0  0  0
  7 11  1  0  0  0  0
  8 13  1  1  0  0  0
  8  5  1  0  0  0  0
  8  2  1  0  0  0  0
 10  1  2  0  0  0  0
 11  3  2  0  0  0  0
 11 12  1  0  0  0  0
 12  4  2  0  0  0  0
 13 15  1  0  0  0  0
 14 13  1  0  0  0  0
 15 16  1  0  0  0  0
 16 18  1  0  0  0  0
 18 17  1  6  0  0  0
 18 19  1  0  0  0  0
 19 20  1  1  0  0  0
 21 19  1  0  0  0  0
 22  5  1  0  0  0  0
 23 26  1  0  0  0  0
 23 22  1  0  0  0  0
 24 23  1  0  0  0  0
 25 24  1  0  0  0  0
 27 26  1  0  0  0  0
 27 28  1  0  0  0  0
 28 29  1  0  0  0  0
 29 31  1  0  0  0  0
 31 30  1  0  0  0  0
M  END
>  <MODEL>
9

>  <REMARK>
 VINA RESULT:      -5.9      3.598      7.609
  Name = 
  13 active torsions:
  status: ('A' for Active; 'I' for Inactive)
    1  A    between atoms: C_1  and  C_11
    2  A    between atoms: C_1  and  C_24
    3  A    between atoms: C_3  and  N_9
    4  A    between atoms: N_5  and  C_10
    5  A    between atoms: N_5  and  C_21
    6  A    between atoms: C_6  and  N_9
    7  A    between atoms: C_6  and  C_19
    8  A    between atoms: C_7  and  N_9
    9  A    between atoms: C_7  and  C_15
   10  A    between atoms: C_10  and  C_18
   11  A    between atoms: C_17  and  C_31
   12  A    between atoms: C_18  and  C_31
   13  A    between atoms: C_19  and  C_24
                            x       y       z     vdW  Elec       q    Type
                         _______ _______ _______ _____ _____    ______ ____

>  <TORSDO>
F 13

$$$$
