=
 OpenBabel11052413413D

 27 31  0  0  1  0  0  0  0  0999 V2000
  182.4350  178.7740  138.9340 C   0  0  2  0  0  0  0  0  0  0  0  0
  182.3250  178.7130  141.4410 C   0  0  0  0  0  0  0  0  0  0  0  0
  184.4520  178.7690  140.3060 O   0  0  0  0  0  0  0  0  0  0  0  0
  184.4250  178.8270  145.2230 C   0  0  0  0  0  2  0  0  0  0  0  0
  186.4570  178.3820  146.5760 C   0  0  0  0  0  1  0  0  0  0  0  0
  181.6960  179.1300  142.5520 C   0  0  0  0  0  3  0  0  0  0  0  0
  185.8210  177.8540  142.8320 C   0  0  0  0  0  2  0  0  0  0  0  0
  185.8410  177.2000  138.0600 C   0  0  0  0  0  1  0  0  0  0  0  0
  186.5780  178.2280  144.1010 C   0  0  0  0  0  2  0  0  0  0  0  0
  183.9670  178.0460  136.6510 C   0  0  0  0  0  2  0  0  0  0  0  0
  183.7840  178.2730  141.4450 C   0  0  1  0  0  3  0  0  0  0  0  0
  181.5430  178.4920  140.1700 C   0  0  2  0  0  3  0  0  0  0  0  0
  185.6990  177.9930  145.3250 C   0  0  2  0  0  3  0  0  0  0  0  0
  183.6560  178.4680  143.9550 C   0  0  2  0  0  3  0  0  0  0  0  0
  182.5420  180.2860  138.7680 C   0  0  0  0  0  1  0  0  0  0  0  0
  184.5390  178.6780  142.7140 C   0  0  1  0  0  3  0  0  0  0  0  0
  184.7520  178.2500  137.9530 C   0  0  1  0  0  3  0  0  0  0  0  0
  182.4260  179.3600  143.8460 C   0  0  0  0  0  2  0  0  0  0  0  0
  182.7140  177.3350  136.9000 N   0  0  0  0  0  2  0  0  0  0  0  0
  181.8080  178.2250  137.6320 C   0  0  0  0  0  2  0  0  0  0  0  0
  183.8440  178.1720  139.1850 C   0  0  2  0  0  3  0  0  0  0  0  0
  179.6580  174.6170  140.1950 C   0  0  0  0  0  3  0  0  0  0  0  0
  180.9010  177.1280  140.1730 C   0  0  0  0  0  0  0  0  0  0  0  0
  181.6270  175.9760  139.8300 C   0  0  0  0  0  3  0  0  0  0  0  0
  181.0050  174.7230  139.8410 C   0  0  0  0  0  3  0  0  0  0  0  0
  178.9310  175.7610  140.5390 C   0  0  0  0  0  3  0  0  0  0  0  0
  179.5530  177.0130  140.5290 C   0  0  0  0  0  3  0  0  0  0  0  0
  1 15  1  6  0  0  0
  1 21  1  0  0  0  0
  1 12  1  0  0  0  0
  2 11  1  0  0  0  0
  2  6  2  0  0  0  0
  4 13  1  0  0  0  0
  6 18  1  0  0  0  0
  7  9  1  0  0  0  0
  9 13  1  0  0  0  0
 10 19  1  0  0  0  0
 10 17  1  0  0  0  0
 11  3  1  6  0  0  0
 11 16  1  0  0  0  0
 12 23  1  6  0  0  0
 12  2  1  0  0  0  0
 13  5  1  1  0  0  0
 14 18  1  6  0  0  0
 14  4  1  0  0  0  0
 16  7  1  1  0  0  0
 16 14  1  0  0  0  0
 17  8  1  1  0  0  0
 17 21  1  0  0  0  0
 19 20  1  0  0  0  0
 20  1  1  0  0  0  0
 21  3  1  1  0  0  0
 22 26  1  0  0  0  0
 23 27  1  0  0  0  0
 24 25  1  0  0  0  0
 24 23  2  0  0  0  0
 25 22  2  0  0  0  0
 27 26  2  0  0  0  0
M  END
>  <MODEL>
1

>  <REMARK>
 VINA RESULT:      -7.1      0.000      0.000
  Name = 
  1 active torsions:
  status: ('A' for Active; 'I' for Inactive)
    1  A    between atoms: C_9  and  C_15
                            x       y       z     vdW  Elec       q    Type
                         _______ _______ _______ _____ _____    ______ ____

>  <TORSDO>
F 1

$$$$
=
 OpenBabel11052413413D

 27 31  0  0  1  0  0  0  0  0999 V2000
  188.5560  177.9370  137.2510 C   0  0  2  0  0  0  0  0  0  0  0  0
  187.0880  178.1260  139.2790 C   0  0  0  0  0  0  0  0  0  0  0  0
  189.4420  177.6570  139.5070 O   0  0  0  0  0  0  0  0  0  0  0  0
  186.7540  178.1640  143.5930 C   0  0  0  0  0  2  0  0  0  0  0  0
  187.5690  177.4500  145.8250 C   0  0  0  0  0  1  0  0  0  0  0  0
  186.0620  178.7580  139.8730 C   0  0  0  0  0  3  0  0  0  0  0  0
  188.9800  176.7220  142.3360 C   0  0  0  0  0  2  0  0  0  0  0  0
  191.4550  175.6490  138.3450 C   0  0  0  0  0  1  0  0  0  0  0  0
  188.9820  177.0520  143.8240 C   0  0  0  0  0  2  0  0  0  0  0  0
  190.8850  176.7170  136.1680 C   0  0  0  0  0  2  0  0  0  0  0  0
  188.1740  177.4080  140.0710 C   0  0  1  0  0  3  0  0  0  0  0  0
  187.0980  177.9500  137.7800 C   0  0  2  0  0  3  0  0  0  0  0  0
  187.5530  177.1070  144.3510 C   0  0  2  0  0  3  0  0  0  0  0  0
  186.7450  177.8510  142.1000 C   0  0  2  0  0  3  0  0  0  0  0  0
  189.0570  179.3770  137.2240 C   0  0  0  0  0  1  0  0  0  0  0  0
  188.1820  177.7690  141.5590 C   0  0  1  0  0  3  0  0  0  0  0  0
  190.8560  176.8790  137.6930 C   0  0  1  0  0  3  0  0  0  0  0  0
  185.9990  178.9540  141.3620 C   0  0  0  0  0  2  0  0  0  0  0  0
  189.5820  176.2930  135.6600 N   0  0  0  0  0  2  0  0  0  0  0  0
  188.6390  177.4070  135.8020 C   0  0  0  0  0  2  0  0  0  0  0  0
  189.4320  177.0930  138.2160 C   0  0  2  0  0  3  0  0  0  0  0  0
  184.7270  174.5430  136.6250 C   0  0  0  0  0  3  0  0  0  0  0  0
  186.2840  176.7450  137.3830 C   0  0  0  0  0  0  0  0  0  0  0  0
  186.7860  175.4420  137.5240 C   0  0  0  0  0  3  0  0  0  0  0  0
  186.0070  174.3430  137.1450 C   0  0  0  0  0  3  0  0  0  0  0  0
  184.2220  175.8390  136.4840 C   0  0  0  0  0  3  0  0  0  0  0  0
  185.0000  176.9370  136.8630 C   0  0  0  0  0  3  0  0  0  0  0  0
  1 15  1  1  0  0  0
  1 12  1  0  0  0  0
  1 21  1  0  0  0  0
  2  6  2  0  0  0  0
  3 11  1  0  0  0  0
  4 13  1  0  0  0  0
  6 18  1  0  0  0  0
  7  9  1  0  0  0  0
  9 13  1  0  0  0  0
 10 17  1  0  0  0  0
 11  2  1  6  0  0  0
 11 16  1  0  0  0  0
 12 23  1  1  0  0  0
 12  2  1  0  0  0  0
 13  5  1  1  0  0  0
 14 18  1  6  0  0  0
 14  4  1  0  0  0  0
 16 14  1  0  0  0  0
 16  7  1  1  0  0  0
 17 21  1  0  0  0  0
 17  8  1  1  0  0  0
 19 20  1  0  0  0  0
 19 10  1  0  0  0  0
 20  1  1  0  0  0  0
 21  3  1  1  0  0  0
 22 25  1  0  0  0  0
 23 24  1  0  0  0  0
 25 24  2  0  0  0  0
 26 22  2  0  0  0  0
 26 27  1  0  0  0  0
 27 23  2  0  0  0  0
M  END
>  <MODEL>
2

>  <REMARK>
 VINA RESULT:      -7.0      3.979      5.422
  Name = 
  1 active torsions:
  status: ('A' for Active; 'I' for Inactive)
    1  A    between atoms: C_9  and  C_15
                            x       y       z     vdW  Elec       q    Type
                         _______ _______ _______ _____ _____    ______ ____

>  <TORSDO>
F 1

$$$$
=
 OpenBabel11052413413D

 27 31  0  0  1  0  0  0  0  0999 V2000
  188.3530  178.0290  137.4080 C   0  0  2  0  0  0  0  0  0  0  0  0
  186.0870  178.3010  138.4540 C   0  0  0  0  0  0  0  0  0  0  0  0
  188.0810  178.3810  139.8070 O   0  0  0  0  0  0  0  0  0  0  0  0
  183.7400  179.1060  141.9990 C   0  0  0  0  0  2  0  0  0  0  0  0
  183.4570  179.0230  144.4630 C   0  0  0  0  0  1  0  0  0  0  0  0
  184.8490  178.8110  138.3450 C   0  0  0  0  0  3  0  0  0  0  0  0
  186.4170  177.9380  142.2820 C   0  0  0  0  0  2  0  0  0  0  0  0
  190.5790  176.6430  140.2300 C   0  0  0  0  0  1  0  0  0  0  0  0
  185.6810  178.5440  143.4710 C   0  0  0  0  0  2  0  0  0  0  0  0
  191.0180  177.1280  137.8260 C   0  0  0  0  0  2  0  0  0  0  0  0
  186.7260  177.9900  139.8020 C   0  0  1  0  0  3  0  0  0  0  0  0
  186.8250  177.8430  137.2200 C   0  0  2  0  0  3  0  0  0  0  0  0
  184.1750  178.4040  143.2820 C   0  0  2  0  0  3  0  0  0  0  0  0
  184.4710  178.5140  140.7970 C   0  0  2  0  0  3  0  0  0  0  0  0
  188.6720  179.5070  137.2190 C   0  0  0  0  0  1  0  0  0  0  0  0
  185.9920  178.6270  140.9850 C   0  0  1  0  0  3  0  0  0  0  0  0
  190.2520  177.5740  139.0780 C   0  0  1  0  0  3  0  0  0  0  0  0
  184.0670  179.2760  139.5420 C   0  0  0  0  0  2  0  0  0  0  0  0
  190.1580  176.3540  136.9320 N   0  0  0  0  0  2  0  0  0  0  0  0
  189.1630  177.2560  136.3430 C   0  0  0  0  0  2  0  0  0  0  0  0
  188.7380  177.5870  138.8460 C   0  0  2  0  0  3  0  0  0  0  0  0
  185.6150  173.8620  136.0990 C   0  0  0  0  0  3  0  0  0  0  0  0
  186.4120  176.4430  136.8440 C   0  0  0  0  0  0  0  0  0  0  0  0
  186.8280  175.3300  137.5920 C   0  0  0  0  0  3  0  0  0  0  0  0
  186.4290  174.0430  137.2190 C   0  0  0  0  0  3  0  0  0  0  0  0
  185.1970  174.9680  135.3510 C   0  0  0  0  0  3  0  0  0  0  0  0
  185.5950  176.2550  135.7250 C   0  0  0  0  0  3  0  0  0  0  0  0
  1 15  1  6  0  0  0
  1 21  1  0  0  0  0
  4 13  1  0  0  0  0
  6  2  2  0  0  0  0
  6 18  1  0  0  0  0
  7  9  1  0  0  0  0
 10 17  1  0  0  0  0
 11  2  1  6  0  0  0
 11  3  1  0  0  0  0
 11 16  1  0  0  0  0
 12 23  1  1  0  0  0
 12  1  1  0  0  0  0
 12  2  1  0  0  0  0
 13  9  1  0  0  0  0
 13  5  1  1  0  0  0
 14 18  1  6  0  0  0
 14 16  1  0  0  0  0
 14  4  1  0  0  0  0
 16  7  1  1  0  0  0
 17  8  1  1  0  0  0
 19 10  1  0  0  0  0
 20 19  1  0  0  0  0
 20  1  1  0  0  0  0
 21 17  1  0  0  0  0
 21  3  1  1  0  0  0
 22 25  1  0  0  0  0
 23 24  1  0  0  0  0
 25 24  2  0  0  0  0
 26 27  1  0  0  0  0
 26 22  2  0  0  0  0
 27 23  2  0  0  0  0
M  END
>  <MODEL>
3

>  <REMARK>
 VINA RESULT:      -6.7      3.261      5.449
  Name = 
  1 active torsions:
  status: ('A' for Active; 'I' for Inactive)
    1  A    between atoms: C_9  and  C_15
                            x       y       z     vdW  Elec       q    Type
                         _______ _______ _______ _____ _____    ______ ____

>  <TORSDO>
F 1

$$$$
=
 OpenBabel11052413413D

 27 31  0  0  1  0  0  0  0  0999 V2000
  181.1950  177.0680  139.2910 C   0  0  2  0  0  0  0  0  0  0  0  0
  180.6620  179.4830  139.7240 C   0  0  0  0  0  0  0  0  0  0  0  0
  180.6670  178.6120  137.4760 O   0  0  0  0  0  0  0  0  0  0  0  0
  179.4320  183.3230  138.1540 C   0  0  0  0  0  2  0  0  0  0  0  0
  179.3320  184.9590  136.2910 C   0  0  0  0  0  1  0  0  0  0  0  0
  180.0560  180.3780  140.5220 C   0  0  0  0  0  3  0  0  0  0  0  0
  180.8050  181.4210  136.3900 C   0  0  0  0  0  2  0  0  0  0  0  0
  182.5820  176.9970  135.6970 C   0  0  0  0  0  1  0  0  0  0  0  0
  180.0630  182.6310  135.8350 C   0  0  0  0  0  2  0  0  0  0  0  0
  182.2930  175.2250  137.4230 C   0  0  0  0  0  2  0  0  0  0  0  0
  180.9400  179.7580  138.2510 C   0  0  1  0  0  3  0  0  0  0  0  0
  181.2600  178.2300  140.3150 C   0  0  2  0  0  3  0  0  0  0  0  0
  180.0850  183.7700  136.8490 C   0  0  2  0  0  3  0  0  0  0  0  0
  180.1610  182.1080  138.7220 C   0  0  2  0  0  3  0  0  0  0  0  0
  179.7640  176.5420  139.2690 C   0  0  0  0  0  1  0  0  0  0  0  0
  180.1670  180.9600  137.7000 C   0  0  1  0  0  3  0  0  0  0  0  0
  181.7030  176.5120  136.8330 C   0  0  1  0  0  3  0  0  0  0  0  0
  179.4500  181.6450  139.9860 C   0  0  0  0  0  2  0  0  0  0  0  0
  183.0450  175.5040  138.6450 N   0  0  0  0  0  2  0  0  0  0  0  0
  182.1010  175.8860  139.7000 C   0  0  0  0  0  2  0  0  0  0  0  0
  181.5740  177.6160  137.8880 C   0  0  2  0  0  3  0  0  0  0  0  0
  185.1870  179.0080  141.9100 C   0  0  0  0  0  3  0  0  0  0  0  0
  182.6410  178.5050  140.8540 C   0  0  0  0  0  0  0  0  0  0  0  0
  183.7260  178.7530  139.9980 C   0  0  0  0  0  3  0  0  0  0  0  0
  184.9960  179.0030  140.5270 C   0  0  0  0  0  3  0  0  0  0  0  0
  184.1090  178.7630  142.7670 C   0  0  0  0  0  3  0  0  0  0  0  0
  182.8400  178.5130  142.2380 C   0  0  0  0  0  3  0  0  0  0  0  0
  1 15  1  6  0  0  0
  1 20  1  0  0  0  0
  1 12  1  0  0  0  0
  2 12  1  0  0  0  0
  2  6  2  0  0  0  0
  9  7  1  0  0  0  0
  9 13  1  0  0  0  0
 10 19  1  0  0  0  0
 11  3  1  6  0  0  0
 11  2  1  0  0  0  0
 12 23  1  6  0  0  0
 13  5  1  6  0  0  0
 13  4  1  0  0  0  0
 14  4  1  6  0  0  0
 14 18  1  0  0  0  0
 16  7  1  6  0  0  0
 16 11  1  0  0  0  0
 16 14  1  0  0  0  0
 17  8  1  6  0  0  0
 17 10  1  0  0  0  0
 17 21  1  0  0  0  0
 18  6  1  0  0  0  0
 19 20  1  0  0  0  0
 21  3  1  6  0  0  0
 21  1  1  0  0  0  0
 22 26  1  0  0  0  0
 23 27  1  0  0  0  0
 24 25  1  0  0  0  0
 24 23  2  0  0  0  0
 25 22  2  0  0  0  0
 27 26  2  0  0  0  0
M  END
>  <MODEL>
4

>  <REMARK>
 VINA RESULT:      -6.3      2.743      6.334
  Name = 
  1 active torsions:
  status: ('A' for Active; 'I' for Inactive)
    1  A    between atoms: C_9  and  C_15
                            x       y       z     vdW  Elec       q    Type
                         _______ _______ _______ _____ _____    ______ ____

>  <TORSDO>
F 1

$$$$
=
 OpenBabel11052413413D

 27 31  0  0  1  0  0  0  0  0999 V2000
  180.9570  178.1170  139.7840 C   0  0  2  0  0  0  0  0  0  0  0  0
  183.0760  178.1740  138.4380 C   0  0  0  0  0  0  0  0  0  0  0  0
  183.1510  177.9300  140.8350 O   0  0  0  0  0  0  0  0  0  0  0  0
  187.3890  177.8470  138.3430 C   0  0  0  0  0  2  0  0  0  0  0  0
  189.5960  178.0970  139.4510 C   0  0  0  0  0  1  0  0  0  0  0  0
  183.7020  177.8100  137.3060 C   0  0  0  0  0  3  0  0  0  0  0  0
  186.0660  178.7020  140.8200 C   0  0  0  0  0  2  0  0  0  0  0  0
  181.9790  179.3780  143.2780 C   0  0  0  0  0  1  0  0  0  0  0  0
  187.5230  178.2530  140.8070 C   0  0  0  0  0  2  0  0  0  0  0  0
  179.7830  178.7150  142.3050 C   0  0  0  0  0  2  0  0  0  0  0  0
  183.8290  178.4790  139.7270 C   0  0  1  0  0  3  0  0  0  0  0  0
  181.5970  178.4730  138.4170 C   0  0  2  0  0  3  0  0  0  0  0  0
  188.1550  178.5610  139.4540 C   0  0  2  0  0  3  0  0  0  0  0  0
  185.9270  178.2820  138.3440 C   0  0  2  0  0  3  0  0  0  0  0  0
  180.7910  176.6030  139.8440 C   0  0  0  0  0  1  0  0  0  0  0  0
  185.2830  177.9990  139.7110 C   0  0  1  0  0  3  0  0  0  0  0  0
  181.2910  178.4320  142.3130 C   0  0  1  0  0  3  0  0  0  0  0  0
  185.1740  177.5070  137.2700 C   0  0  0  0  0  2  0  0  0  0  0  0
  179.4090  179.5370  141.1540 N   0  0  0  0  0  2  0  0  0  0  0  0
  179.5470  178.7290  139.9380 C   0  0  0  0  0  2  0  0  0  0  0  0
  181.9070  178.5870  140.9190 C   0  0  2  0  0  3  0  0  0  0  0  0
  180.8580  182.5030  137.0830 C   0  0  0  0  0  3  0  0  0  0  0  0
  181.3490  179.8900  137.9670 C   0  0  0  0  0  0  0  0  0  0  0  0
  181.8010  180.9880  138.7170 C   0  0  0  0  0  3  0  0  0  0  0  0
  181.5550  182.2910  138.2750 C   0  0  0  0  0  3  0  0  0  0  0  0
  180.4080  181.4140  136.3310 C   0  0  0  0  0  3  0  0  0  0  0  0
  180.6540  180.1100  136.7730 C   0  0  0  0  0  3  0  0  0  0  0  0
  1 15  1  1  0  0  0
  1 20  1  0  0  0  0
  1 21  1  0  0  0  0
  4 14  1  0  0  0  0
  4 13  1  0  0  0  0
  6  2  2  0  0  0  0
  9  7  1  0  0  0  0
 10 17  1  0  0  0  0
 11  2  1  6  0  0  0
 11  3  1  0  0  0  0
 12 23  1  1  0  0  0
 12  2  1  0  0  0  0
 12  1  1  0  0  0  0
 13  5  1  1  0  0  0
 13  9  1  0  0  0  0
 14 18  1  6  0  0  0
 14 16  1  0  0  0  0
 16 11  1  0  0  0  0
 16  7  1  1  0  0  0
 17  8  1  1  0  0  0
 18  6  1  0  0  0  0
 19 10  1  0  0  0  0
 20 19  1  0  0  0  0
 21  3  1  1  0  0  0
 21 17  1  0  0  0  0
 22 25  1  0  0  0  0
 23 24  1  0  0  0  0
 25 24  2  0  0  0  0
 26 27  1  0  0  0  0
 26 22  2  0  0  0  0
 27 23  2  0  0  0  0
M  END
>  <MODEL>
5

>  <REMARK>
 VINA RESULT:      -6.1      2.382      5.367
  Name = 
  1 active torsions:
  status: ('A' for Active; 'I' for Inactive)
    1  A    between atoms: C_9  and  C_15
                            x       y       z     vdW  Elec       q    Type
                         _______ _______ _______ _____ _____    ______ ____

>  <TORSDO>
F 1

$$$$
=
 OpenBabel11052413413D

 27 31  0  0  1  0  0  0  0  0999 V2000
  187.3290  177.2860  136.2510 C   0  0  2  0  0  0  0  0  0  0  0  0
  184.8390  177.1220  136.5200 C   0  0  0  0  0  0  0  0  0  0  0  0
  186.1740  178.2990  138.1460 O   0  0  0  0  0  0  0  0  0  0  0  0
  181.2940  178.2260  138.7420 C   0  0  0  0  0  2  0  0  0  0  0  0
  180.1980  178.8710  140.8730 C   0  0  0  0  0  1  0  0  0  0  0  0
  183.6370  177.1260  135.9190 C   0  0  0  0  0  3  0  0  0  0  0  0
  183.8900  178.1730  140.1100 C   0  0  0  0  0  2  0  0  0  0  0  0
  188.6780  177.7300  139.8320 C   0  0  0  0  0  1  0  0  0  0  0  0
  182.6760  178.8580  140.7280 C   0  0  0  0  0  2  0  0  0  0  0  0
  189.8100  177.5100  137.6240 C   0  0  0  0  0  2  0  0  0  0  0  0
  185.0210  177.5030  137.9840 C   0  0  1  0  0  3  0  0  0  0  0  0
  186.0380  176.5540  135.8020 C   0  0  2  0  0  3  0  0  0  0  0  0
  181.3950  178.1730  140.2640 C   0  0  2  0  0  3  0  0  0  0  0  0
  182.5040  177.5480  138.1070 C   0  0  2  0  0  3  0  0  0  0  0  0
  187.3720  178.6360  135.5450 C   0  0  0  0  0  1  0  0  0  0  0  0
  183.8050  178.2140  138.5840 C   0  0  1  0  0  3  0  0  0  0  0  0
  188.5810  178.0640  138.3560 C   0  0  1  0  0  3  0  0  0  0  0  0
  182.4090  177.6730  136.5920 C   0  0  0  0  0  2  0  0  0  0  0  0
  189.4990  176.2460  136.9580 N   0  0  0  0  0  2  0  0  0  0  0  0
  188.6030  176.5200  135.8300 C   0  0  0  0  0  2  0  0  0  0  0  0
  187.2760  177.4980  137.7880 C   0  0  2  0  0  3  0  0  0  0  0  0
  186.1910  172.2650  136.1870 C   0  0  0  0  0  3  0  0  0  0  0  0
  186.0890  175.0550  135.9570 C   0  0  0  0  0  0  0  0  0  0  0  0
  186.0010  174.4460  137.2190 C   0  0  0  0  0  3  0  0  0  0  0  0
  186.0530  173.0530  137.3320 C   0  0  0  0  0  3  0  0  0  0  0  0
  186.2770  172.8670  134.9280 C   0  0  0  0  0  3  0  0  0  0  0  0
  186.2260  174.2600  134.8150 C   0  0  0  0  0  3  0  0  0  0  0  0
  1 15  1  6  0  0  0
  1 21  1  0  0  0  0
  4 13  1  0  0  0  0
  6  2  2  0  0  0  0
  6 18  1  0  0  0  0
  7  9  1  0  0  0  0
 10 17  1  0  0  0  0
 11  2  1  6  0  0  0
 11  3  1  0  0  0  0
 11 16  1  0  0  0  0
 12 23  1  1  0  0  0
 12  1  1  0  0  0  0
 12  2  1  0  0  0  0
 13  9  1  0  0  0  0
 13  5  1  1  0  0  0
 14 18  1  6  0  0  0
 14 16  1  0  0  0  0
 14  4  1  0  0  0  0
 16  7  1  1  0  0  0
 17  8  1  1  0  0  0
 19 10  1  0  0  0  0
 20  1  1  0  0  0  0
 20 19  1  0  0  0  0
 21  3  1  6  0  0  0
 21 17  1  0  0  0  0
 22 25  1  0  0  0  0
 23 24  1  0  0  0  0
 24 25  2  0  0  0  0
 26 22  2  0  0  0  0
 27 26  1  0  0  0  0
 27 23  2  0  0  0  0
M  END
>  <MODEL>
6

>  <REMARK>
 VINA RESULT:      -5.9      3.271      6.283
  Name = 
  1 active torsions:
  status: ('A' for Active; 'I' for Inactive)
    1  A    between atoms: C_9  and  C_15
                            x       y       z     vdW  Elec       q    Type
                         _______ _______ _______ _____ _____    ______ ____

>  <TORSDO>
F 1

$$$$
=
 OpenBabel11052413413D

 27 31  0  0  1  0  0  0  0  0999 V2000
  187.1140  177.7240  136.7720 C   0  0  2  0  0  0  0  0  0  0  0  0
  184.7110  177.7500  137.4980 C   0  0  0  0  0  0  0  0  0  0  0  0
  186.4480  178.5320  138.9760 O   0  0  0  0  0  0  0  0  0  0  0  0
  181.7810  178.8180  140.4980 C   0  0  0  0  0  2  0  0  0  0  0  0
  181.1720  179.2230  142.8690 C   0  0  0  0  0  1  0  0  0  0  0  0
  183.4310  177.9590  137.1490 C   0  0  0  0  0  3  0  0  0  0  0  0
  184.5550  178.3140  141.3120 C   0  0  0  0  0  2  0  0  0  0  0  0
  189.1280  177.4790  140.0470 C   0  0  0  0  0  1  0  0  0  0  0  0
  183.5630  179.0030  142.2420 C   0  0  0  0  0  2  0  0  0  0  0  0
  189.8100  177.5010  137.6510 C   0  0  0  0  0  2  0  0  0  0  0  0
  185.1980  177.8810  138.9360 C   0  0  1  0  0  3  0  0  0  0  0  0
  185.6850  177.1930  136.4890 C   0  0  2  0  0  3  0  0  0  0  0  0
  182.1470  178.5200  141.9490 C   0  0  2  0  0  3  0  0  0  0  0  0
  182.7680  178.1390  139.5520 C   0  0  2  0  0  3  0  0  0  0  0  0
  187.1910  179.1580  136.2610 C   0  0  0  0  0  1  0  0  0  0  0  0
  184.2030  178.5990  139.8520 C   0  0  1  0  0  3  0  0  0  0  0  0
  188.8080  178.0460  138.6770 C   0  0  1  0  0  3  0  0  0  0  0  0
  182.4180  178.5060  138.1160 C   0  0  0  0  0  2  0  0  0  0  0  0
  189.2350  176.3910  136.8940 N   0  0  0  0  0  2  0  0  0  0  0  0
  188.1910  176.9180  136.0100 C   0  0  0  0  0  2  0  0  0  0  0  0
  187.3640  177.6980  138.3040 C   0  0  2  0  0  3  0  0  0  0  0  0
  185.3970  172.9000  136.2540 C   0  0  0  0  0  3  0  0  0  0  0  0
  185.5830  175.6900  136.4270 C   0  0  0  0  0  0  0  0  0  0  0  0
  185.4740  174.9140  137.5920 C   0  0  0  0  0  3  0  0  0  0  0  0
  185.3820  173.5220  137.5040 C   0  0  0  0  0  3  0  0  0  0  0  0
  185.5030  173.6680  135.0900 C   0  0  0  0  0  3  0  0  0  0  0  0
  185.5950  175.0610  135.1780 C   0  0  0  0  0  3  0  0  0  0  0  0
  1 15  1  6  0  0  0
  1 21  1  0  0  0  0
  4 13  1  0  0  0  0
  6  2  2  0  0  0  0
  6 18  1  0  0  0  0
  7  9  1  0  0  0  0
 10 17  1  0  0  0  0
 11  2  1  6  0  0  0
 11  3  1  0  0  0  0
 11 16  1  0  0  0  0
 12 23  1  1  0  0  0
 12  1  1  0  0  0  0
 12  2  1  0  0  0  0
 13  9  1  0  0  0  0
 13  5  1  1  0  0  0
 14 18  1  6  0  0  0
 14 16  1  0  0  0  0
 14  4  1  0  0  0  0
 16  7  1  1  0  0  0
 17  8  1  1  0  0  0
 19 10  1  0  0  0  0
 20  1  1  0  0  0  0
 20 19  1  0  0  0  0
 21 17  1  0  0  0  0
 21  3  1  1  0  0  0
 22 25  1  0  0  0  0
 23 24  1  0  0  0  0
 25 24  2  0  0  0  0
 26 27  1  0  0  0  0
 26 22  2  0  0  0  0
 27 23  2  0  0  0  0
M  END
>  <MODEL>
7

>  <REMARK>
 VINA RESULT:      -5.8      2.770      5.397
  Name = 
  1 active torsions:
  status: ('A' for Active; 'I' for Inactive)
    1  A    between atoms: C_9  and  C_15
                            x       y       z     vdW  Elec       q    Type
                         _______ _______ _______ _____ _____    ______ ____

>  <TORSDO>
F 1

$$$$
=
 OpenBabel11052413413D

 27 31  0  0  1  0  0  0  0  0999 V2000
  181.6690  177.9800  139.7280 C   0  0  2  0  0  0  0  0  0  0  0  0
  182.9080  177.8560  137.5480 C   0  0  0  0  0  0  0  0  0  0  0  0
  184.0760  177.5920  139.6410 O   0  0  0  0  0  0  0  0  0  0  0  0
  186.6350  177.1490  135.4660 C   0  0  0  0  0  2  0  0  0  0  0  0
  189.1150  177.1940  135.4080 C   0  0  0  0  0  1  0  0  0  0  0  0
  182.9010  177.4450  136.2690 C   0  0  0  0  0  3  0  0  0  0  0  0
  186.6970  178.1020  138.2410 C   0  0  0  0  0  2  0  0  0  0  0  0
  184.3040  179.1230  142.2950 C   0  0  0  0  0  1  0  0  0  0  0  0
  187.9370  177.5250  137.5670 C   0  0  0  0  0  2  0  0  0  0  0  0
  181.8620  178.6640  142.4820 C   0  0  0  0  0  2  0  0  0  0  0  0
  184.1990  178.0860  138.3260 C   0  0  1  0  0  3  0  0  0  0  0  0
  181.6210  178.2860  138.2080 C   0  0  2  0  0  3  0  0  0  0  0  0
  187.8860  177.7840  136.0650 C   0  0  2  0  0  3  0  0  0  0  0  0
  185.3830  177.7110  136.1330 C   0  0  2  0  0  3  0  0  0  0  0  0
  181.4270  176.4860  139.9130 C   0  0  0  0  0  1  0  0  0  0  0  0
  185.4320  177.4780  137.6510 C   0  0  1  0  0  3  0  0  0  0  0  0
  183.1700  178.2490  141.7960 C   0  0  1  0  0  3  0  0  0  0  0  0
  184.1560  177.0130  135.5620 C   0  0  0  0  0  2  0  0  0  0  0  0
  181.0620  179.5230  141.6090 N   0  0  0  0  0  2  0  0  0  0  0  0
  180.5490  178.7130  140.4990 C   0  0  0  0  0  2  0  0  0  0  0  0
  183.0730  178.3560  140.2710 C   0  0  2  0  0  3  0  0  0  0  0  0
  180.6820  182.3730  137.2180 C   0  0  0  0  0  3  0  0  0  0  0  0
  181.3080  179.7220  137.8750 C   0  0  0  0  0  0  0  0  0  0  0  0
  182.0100  180.7830  138.4680 C   0  0  0  0  0  3  0  0  0  0  0  0
  181.6970  182.1050  138.1400 C   0  0  0  0  0  3  0  0  0  0  0  0
  179.9810  181.3200  136.6230 C   0  0  0  0  0  3  0  0  0  0  0  0
  180.2940  179.9970  136.9510 C   0  0  0  0  0  3  0  0  0  0  0  0
  1 15  1  1  0  0  0
  1 21  1  0  0  0  0
  1 20  1  0  0  0  0
  2 12  1  0  0  0  0
  4 13  1  0  0  0  0
  6  2  2  0  0  0  0
  9  7  1  0  0  0  0
 11  2  1  6  0  0  0
 11  3  1  0  0  0  0
 12 23  1  1  0  0  0
 12  1  1  0  0  0  0
 13  5  1  6  0  0  0
 13  9  1  0  0  0  0
 14  4  1  6  0  0  0
 14 16  1  0  0  0  0
 16  7  1  1  0  0  0
 16 11  1  0  0  0  0
 17  8  1  1  0  0  0
 17 10  1  0  0  0  0
 18 14  1  0  0  0  0
 18  6  1  0  0  0  0
 19 10  1  0  0  0  0
 20 19  1  0  0  0  0
 21  3  1  6  0  0  0
 21 17  1  0  0  0  0
 22 25  1  0  0  0  0
 23 24  1  0  0  0  0
 25 24  2  0  0  0  0
 26 27  1  0  0  0  0
 26 22  2  0  0  0  0
 27 23  2  0  0  0  0
M  END
>  <MODEL>
8

>  <REMARK>
 VINA RESULT:      -5.8      2.165      6.130
  Name = 
  1 active torsions:
  status: ('A' for Active; 'I' for Inactive)
    1  A    between atoms: C_9  and  C_15
                            x       y       z     vdW  Elec       q    Type
                         _______ _______ _______ _____ _____    ______ ____

>  <TORSDO>
F 1

$$$$
=
 OpenBabel11052413413D

 27 31  0  0  1  0  0  0  0  0999 V2000
  188.5400  178.0480  138.3180 C   0  0  2  0  0  0  0  0  0  0  0  0
  190.8130  177.0260  138.6160 C   0  0  0  0  0  0  0  0  0  0  0  0
  189.3080  176.2000  136.9220 O   0  0  0  0  0  0  0  0  0  0  0  0
  193.7860  174.1950  137.2480 C   0  0  0  0  0  2  0  0  0  0  0  0
  194.3770  172.0580  136.1330 C   0  0  0  0  0  1  0  0  0  0  0  0
  192.1140  177.2290  138.8820 C   0  0  0  0  0  3  0  0  0  0  0  0
  190.9500  173.6820  136.6950 C   0  0  0  0  0  2  0  0  0  0  0  0
  186.3930  175.2420  136.7820 C   0  0  0  0  0  1  0  0  0  0  0  0
  192.0540  172.9180  135.9730 C   0  0  0  0  0  2  0  0  0  0  0  0
  185.8560  177.5640  137.5090 C   0  0  0  0  0  2  0  0  0  0  0  0
  190.3190  175.8180  137.8280 C   0  0  1  0  0  3  0  0  0  0  0  0
  189.7670  177.9060  139.2550 C   0  0  2  0  0  3  0  0  0  0  0  0
  193.2840  172.8050  136.8670 C   0  0  2  0  0  3  0  0  0  0  0  0
  192.6900  174.9750  137.9680 C   0  0  2  0  0  3  0  0  0  0  0  0
  188.9010  179.0400  137.2180 C   0  0  0  0  0  1  0  0  0  0  0  0
  191.4350  175.0770  137.0870 C   0  0  1  0  0  3  0  0  0  0  0  0
  186.9240  176.6590  136.8810 C   0  0  1  0  0  3  0  0  0  0  0  0
  193.1960  176.3780  138.2780 C   0  0  0  0  0  2  0  0  0  0  0  0
  186.1220  177.7820  138.9300 N   0  0  0  0  0  2  0  0  0  0  0  0
  187.3130  178.6280  139.0580 C   0  0  0  0  0  2  0  0  0  0  0  0
  188.2230  176.6620  137.6930 C   0  0  2  0  0  3  0  0  0  0  0  0
  188.8700  176.4680  143.2170 C   0  0  0  0  0  3  0  0  0  0  0  0
  189.4360  177.4150  140.6410 C   0  0  0  0  0  0  0  0  0  0  0  0
  188.3060  177.8780  141.3330 C   0  0  0  0  0  3  0  0  0  0  0  0
  188.0240  177.4050  142.6180 C   0  0  0  0  0  3  0  0  0  0  0  0
  189.9960  176.0030  142.5310 C   0  0  0  0  0  3  0  0  0  0  0  0
  190.2770  176.4760  141.2460 C   0  0  0  0  0  3  0  0  0  0  0  0
  1 15  1  6  0  0  0
  1 20  1  0  0  0  0
  1 12  1  0  0  0  0
  2  6  2  0  0  0  0
  2 12  1  0  0  0  0
  9  7  1  0  0  0  0
  9 13  1  0  0  0  0
 10 19  1  0  0  0  0
 11  3  1  6  0  0  0
 11  2  1  0  0  0  0
 12 23  1  1  0  0  0
 13  5  1  6  0  0  0
 13  4  1  0  0  0  0
 14  4  1  6  0  0  0
 14 18  1  0  0  0  0
 16  7  1  1  0  0  0
 16 11  1  0  0  0  0
 16 14  1  0  0  0  0
 17  8  1  1  0  0  0
 17 10  1  0  0  0  0
 17 21  1  0  0  0  0
 18  6  1  0  0  0  0
 19 20  1  0  0  0  0
 21  3  1  6  0  0  0
 21  1  1  0  0  0  0
 23 27  2  0  0  0  0
 23 24  1  0  0  0  0
 24 25  2  0  0  0  0
 25 22  1  0  0  0  0
 26 22  2  0  0  0  0
 27 26  1  0  0  0  0
M  END
>  <MODEL>
9

>  <REMARK>
 VINA RESULT:      -5.5      5.392      9.038
  Name = 
  1 active torsions:
  status: ('A' for Active; 'I' for Inactive)
    1  A    between atoms: C_9  and  C_15
                            x       y       z     vdW  Elec       q    Type
                         _______ _______ _______ _____ _____    ______ ____

>  <TORSDO>
F 1

$$$$
