=
 OpenBabel11052412283D

 30 33  0  0  1  0  0  0  0  0999 V2000
  184.6730  178.0460  143.2000 C   0  0  0  0  0  3  0  0  0  0  0  0
  182.3040  178.3630  142.4240 C   0  0  2  0  0  3  0  0  0  0  0  0
  186.3710  178.7860  139.5440 N   0  0  0  0  0  0  0  0  0  0  0  0
  186.0680  178.0360  142.9950 C   0  0  0  0  0  0  0  0  0  0  0  0
  187.6550  178.6530  139.9650 C   0  0  0  0  0  0  0  0  0  0  0  0
  181.4580  178.2440  141.1530 C   0  0  0  0  0  2  0  0  0  0  0  0
  181.9560  179.6440  143.1660 C   0  0  0  0  0  1  0  0  0  0  0  0
  185.6770  178.5690  140.6720 C   0  0  0  0  0  0  0  0  0  0  0  0
  181.9750  179.1900  140.0720 C   0  0  0  0  0  2  0  0  0  0  0  0
  183.7820  178.3100  142.1360 C   0  0  0  0  0  0  0  0  0  0  0  0
  186.5290  178.3130  141.7070 C   0  0  0  0  0  0  0  0  0  0  0  0
  188.7640  178.8050  139.0880 N   0  0  0  0  0  1  0  0  0  0  0  0
  187.8010  178.3620  141.2820 N   0  0  0  0  0  2  0  0  0  0  0  0
  183.3820  178.7760  139.6540 C   0  0  0  0  0  2  0  0  0  0  0  0
  184.2910  178.5860  140.8390 C   0  0  0  0  0  0  0  0  0  0  0  0
  187.0320  177.7750  144.1190 C   0  0  2  0  0  3  0  0  0  0  0  0
  189.9280  178.4980  144.3290 C   0  0  0  0  0  2  0  0  0  0  0  0
  187.8290  175.6600  143.3230 O   0  0  0  0  0  0  0  0  0  0  0  0
  188.1240  176.8060  143.7600 C   0  0  0  0  0  0  0  0  0  0  0  0
  190.5970  176.3190  143.5170 C   0  0  0  0  0  2  0  0  0  0  0  0
  189.4990  177.1920  143.8740 N   0  0  0  0  0  0  0  0  0  0  0  0
  191.4330  178.5220  144.1410 C   0  0  0  0  0  2  0  0  0  0  0  0
  191.8590  177.0870  143.8620 C   0  0  0  0  0  2  0  0  0  0  0  0
  186.3540  177.4800  145.4590 C   0  0  0  0  0  2  0  0  0  0  0  0
  186.3310  178.6860  146.3920 C   0  0  0  0  0  2  0  0  0  0  0  0
  187.1170  178.3940  147.6570 C   0  0  0  0  0  2  0  0  0  0  0  0
  187.9400  177.1270  147.4930 C   0  0  0  0  0  2  0  0  0  0  0  0
  189.6680  178.3470  148.7170 O   0  0  0  0  0  0  0  0  0  0  0  0
  189.3370  177.4070  147.7710 N   0  0  0  0  0  0  0  0  0  0  0  0
  190.2250  176.6800  147.2830 O   0  0  0  0  0  0  0  0  0  0  0  0
  2  7  1  6  0  0  0
  3  5  2  0  0  0  0
  3  8  1  0  0  0  0
  4  1  1  0  0  0  0
  4 16  1  0  0  0  0
  5 13  1  0  0  0  0
  6  2  1  0  0  0  0
  8 15  2  0  0  0  0
  8 11  1  0  0  0  0
  9  6  1  0  0  0  0
 10  2  1  0  0  0  0
 10  1  2  0  0  0  0
 11  4  2  0  0  0  0
 12  5  1  0  0  0  0
 13 11  1  0  0  0  0
 14  9  1  0  0  0  0
 14 15  1  0  0  0  0
 15 10  1  0  0  0  0
 16 24  1  1  0  0  0
 18 19  2  0  0  0  0
 19 21  1  0  0  0  0
 19 16  1  0  0  0  0
 20 23  1  0  0  0  0
 20 21  1  0  0  0  0
 21 17  1  0  0  0  0
 22 17  1  0  0  0  0
 23 22  1  0  0  0  0
 24 25  1  0  0  0  0
 25 26  1  0  0  0  0
 27 26  1  0  0  0  0
 27 29  1  0  0  0  0
 29 28  2  0  0  0  0
 30 29  2  0  0  0  0
M  END
>  <MODEL>
1

>  <REMARK>
 VINA RESULT:      -8.1      0.000      0.000
  Name = 
  7 active torsions:
  status: ('A' for Active; 'I' for Inactive)
    1  A    between atoms: C_4  and  C_13
    2  A    between atoms: C_7  and  N_15
    3  A    between atoms: C_7  and  C_16
    4  A    between atoms: C_8  and  C_13
    5  A    between atoms: C_13  and  C_27
    6  A    between atoms: C_16  and  C_30
    7  A    between atoms: C_27  and  C_30
                            x       y       z     vdW  Elec       q    Type
                         _______ _______ _______ _____ _____    ______ ____

>  <TORSDO>
F 7

$$$$
=
 OpenBabel11052412283D

 30 33  0  0  1  0  0  0  0  0999 V2000
  186.5730  178.0910  145.5290 C   0  0  0  0  0  3  0  0  0  0  0  0
  187.9760  177.9610  147.6090 C   0  0  2  0  0  3  0  0  0  0  0  0
  189.6150  177.1160  142.9600 N   0  0  0  0  0  0  0  0  0  0  0  0
  186.3830  177.9760  144.1360 C   0  0  0  0  0  0  0  0  0  0  0  0
  188.8540  177.1480  141.8360 C   0  0  0  0  0  0  0  0  0  0  0  0
  189.4310  178.1200  148.0570 C   0  0  0  0  0  2  0  0  0  0  0  0
  187.3590  176.7340  148.2630 C   0  0  0  0  0  1  0  0  0  0  0  0
  188.7230  177.4210  143.9170 C   0  0  0  0  0  0  0  0  0  0  0  0
  190.3270  177.1070  147.3490 C   0  0  0  0  0  2  0  0  0  0  0  0
  187.8420  177.8780  146.1110 C   0  0  0  0  0  0  0  0  0  0  0  0
  187.4930  177.6280  143.3640 C   0  0  0  0  0  0  0  0  0  0  0  0
  189.3890  176.8790  140.5460 N   0  0  0  0  0  1  0  0  0  0  0  0
  187.5480  177.4580  142.0330 N   0  0  0  0  0  2  0  0  0  0  0  0
  190.3380  177.3870  145.8500 C   0  0  0  0  0  2  0  0  0  0  0  0
  188.9480  177.5270  145.2900 C   0  0  0  0  0  0  0  0  0  0  0  0
  185.0360  178.1800  143.5000 C   0  0  2  0  0  3  0  0  0  0  0  0
  183.5990  177.4350  140.9840 C   0  0  0  0  0  2  0  0  0  0  0  0
  185.7610  180.1070  142.2730 O   0  0  0  0  0  0  0  0  0  0  0  0
  185.0780  179.0460  142.2720 C   0  0  0  0  0  0  0  0  0  0  0  0
  184.3990  179.4250  139.8620 C   0  0  0  0  0  2  0  0  0  0  0  0
  184.3760  178.6530  141.0870 N   0  0  0  0  0  0  0  0  0  0  0  0
  183.1750  177.3430  139.5300 C   0  0  0  0  0  2  0  0  0  0  0  0
  183.4750  178.6980  138.9030 C   0  0  0  0  0  2  0  0  0  0  0  0
  183.9360  178.5610  144.4940 C   0  0  0  0  0  2  0  0  0  0  0  0
  182.8240  179.3910  143.8610 C   0  0  0  0  0  2  0  0  0  0  0  0
  181.5020  178.6480  143.9290 C   0  0  0  0  0  2  0  0  0  0  0  0
  180.4270  179.4030  143.1650 C   0  0  0  0  0  2  0  0  0  0  0  0
  180.3420  178.9620  140.7630 O   0  0  0  0  0  0  0  0  0  0  0  0
  179.9720  178.6090  142.0380 N   0  0  0  0  0  0  0  0  0  0  0  0
  179.3980  177.5200  142.2370 O   0  0  0  0  0  0  0  0  0  0  0  0
  1 10  1  0  0  0  0
  2  6  1  0  0  0  0
  2  7  1  1  0  0  0
  3  8  1  0  0  0  0
  4  1  2  0  0  0  0
  5 13  1  0  0  0  0
  5  3  2  0  0  0  0
  8 15  1  0  0  0  0
  9  6  1  0  0  0  0
 10  2  1  0  0  0  0
 11  8  2  0  0  0  0
 11  4  1  0  0  0  0
 12  5  1  0  0  0  0
 13 11  1  0  0  0  0
 14  9  1  0  0  0  0
 15 14  1  0  0  0  0
 15 10  2  0  0  0  0
 16  4  1  0  0  0  0
 16 24  1  1  0  0  0
 17 21  1  0  0  0  0
 19 18  2  0  0  0  0
 19 16  1  0  0  0  0
 20 21  1  0  0  0  0
 21 19  1  0  0  0  0
 22 17  1  0  0  0  0
 23 22  1  0  0  0  0
 23 20  1  0  0  0  0
 25 26  1  0  0  0  0
 25 24  1  0  0  0  0
 27 26  1  0  0  0  0
 28 29  2  0  0  0  0
 29 30  2  0  0  0  0
 29 27  1  0  0  0  0
M  END
>  <MODEL>
2

>  <REMARK>
 VINA RESULT:      -7.8      3.048      7.197
  Name = 
  7 active torsions:
  status: ('A' for Active; 'I' for Inactive)
    1  A    between atoms: C_4  and  C_13
    2  A    between atoms: C_7  and  N_15
    3  A    between atoms: C_7  and  C_16
    4  A    between atoms: C_8  and  C_13
    5  A    between atoms: C_13  and  C_27
    6  A    between atoms: C_16  and  C_30
    7  A    between atoms: C_27  and  C_30
                            x       y       z     vdW  Elec       q    Type
                         _______ _______ _______ _____ _____    ______ ____

>  <TORSDO>
F 7

$$$$
=
 OpenBabel11052412283D

 30 33  0  0  1  0  0  0  0  0999 V2000
  188.1560  177.8430  144.1940 C   0  0  0  0  0  3  0  0  0  0  0  0
  186.9980  177.5550  146.4050 C   0  0  2  0  0  3  0  0  0  0  0  0
  184.7980  179.0230  142.1600 N   0  0  0  0  0  0  0  0  0  0  0  0
  188.1790  178.1900  142.8270 C   0  0  0  0  0  0  0  0  0  0  0  0
  185.4250  179.2170  140.9710 C   0  0  0  0  0  0  0  0  0  0  0  0
  185.6120  177.2360  146.9730 C   0  0  0  0  0  2  0  0  0  0  0  0
  187.6320  178.6980  147.1810 C   0  0  0  0  0  1  0  0  0  0  0  0
  185.8070  178.6260  142.9530 C   0  0  0  0  0  0  0  0  0  0  0  0
  184.5980  178.2910  146.5410 C   0  0  0  0  0  2  0  0  0  0  0  0
  186.9540  177.8820  144.9350 C   0  0  0  0  0  0  0  0  0  0  0  0
  186.9730  178.5860  142.2460 C   0  0  0  0  0  0  0  0  0  0  0  0
  184.7330  179.6530  139.8070 N   0  0  0  0  0  1  0  0  0  0  0  0
  186.7570  178.9610  140.9740 N   0  0  0  0  0  2  0  0  0  0  0  0
  184.4260  178.2520  145.0260 C   0  0  0  0  0  2  0  0  0  0  0  0
  185.7470  178.2900  144.3060 C   0  0  0  0  0  0  0  0  0  0  0  0
  189.4510  178.1730  142.0260 C   0  0  2  0  0  3  0  0  0  0  0  0
  189.4290  178.6280  139.0690 C   0  0  0  0  0  2  0  0  0  0  0  0
  189.5680  175.8470  141.4610 O   0  0  0  0  0  0  0  0  0  0  0  0
  189.5270  177.0380  141.0440 C   0  0  0  0  0  0  0  0  0  0  0  0
  189.5530  176.2500  138.6370 C   0  0  0  0  0  2  0  0  0  0  0  0
  189.5130  177.2980  139.6350 N   0  0  0  0  0  0  0  0  0  0  0  0
  189.2820  178.4260  137.5720 C   0  0  0  0  0  2  0  0  0  0  0  0
  189.5990  176.9630  137.2980 C   0  0  0  0  0  2  0  0  0  0  0  0
  190.7150  178.3510  142.8710 C   0  0  0  0  0  2  0  0  0  0  0  0
  191.6280  177.1310  142.8390 C   0  0  0  0  0  2  0  0  0  0  0  0
  191.5050  176.3400  144.1280 C   0  0  0  0  0  2  0  0  0  0  0  0
  191.6300  177.2590  145.3320 C   0  0  0  0  0  2  0  0  0  0  0  0
  190.4300  176.5530  147.3410 O   0  0  0  0  0  0  0  0  0  0  0  0
  191.5560  176.4820  146.5560 N   0  0  0  0  0  0  0  0  0  0  0  0
  192.4310  175.6280  146.8040 O   0  0  0  0  0  0  0  0  0  0  0  0
  1 10  1  0  0  0  0
  2  6  1  0  0  0  0
  2  7  1  1  0  0  0
  3  8  1  0  0  0  0
  4  1  2  0  0  0  0
  5 13  1  0  0  0  0
  5  3  2  0  0  0  0
  8 15  1  0  0  0  0
  9  6  1  0  0  0  0
 10  2  1  0  0  0  0
 11  4  1  0  0  0  0
 11  8  2  0  0  0  0
 12  5  1  0  0  0  0
 13 11  1  0  0  0  0
 14  9  1  0  0  0  0
 15 10  2  0  0  0  0
 15 14  1  0  0  0  0
 16  4  1  0  0  0  0
 16 24  1  1  0  0  0
 17 21  1  0  0  0  0
 19 18  2  0  0  0  0
 19 16  1  0  0  0  0
 20 21  1  0  0  0  0
 21 19  1  0  0  0  0
 22 17  1  0  0  0  0
 23 22  1  0  0  0  0
 23 20  1  0  0  0  0
 25 24  1  0  0  0  0
 25 26  1  0  0  0  0
 26 27  1  0  0  0  0
 27 29  1  0  0  0  0
 29 30  2  0  0  0  0
 29 28  2  0  0  0  0
M  END
>  <MODEL>
3

>  <REMARK>
 VINA RESULT:      -7.5      2.038      4.641
  Name = 
  7 active torsions:
  status: ('A' for Active; 'I' for Inactive)
    1  A    between atoms: C_4  and  C_13
    2  A    between atoms: C_7  and  N_15
    3  A    between atoms: C_7  and  C_16
    4  A    between atoms: C_8  and  C_13
    5  A    between atoms: C_13  and  C_27
    6  A    between atoms: C_16  and  C_30
    7  A    between atoms: C_27  and  C_30
                            x       y       z     vdW  Elec       q    Type
                         _______ _______ _______ _____ _____    ______ ____

>  <TORSDO>
F 7

$$$$
=
 OpenBabel11052412283D

 30 33  0  0  1  0  0  0  0  0999 V2000
  189.7930  177.2250  141.6090 C   0  0  0  0  0  3  0  0  0  0  0  0
  190.3850  176.9510  144.0350 C   0  0  2  0  0  3  0  0  0  0  0  0
  186.0210  178.6710  142.3020 N   0  0  0  0  0  0  0  0  0  0  0  0
  188.9230  177.6070  140.5660 C   0  0  0  0  0  0  0  0  0  0  0  0
  185.7080  178.8570  140.9940 C   0  0  0  0  0  0  0  0  0  0  0  0
  189.7130  176.7050  145.3890 C   0  0  0  0  0  2  0  0  0  0  0  0
  191.4480  178.0300  144.1670 C   0  0  0  0  0  1  0  0  0  0  0  0
  187.2720  178.1900  142.2300 C   0  0  0  0  0  0  0  0  0  0  0  0
  188.7400  177.8340  145.7190 C   0  0  0  0  0  2  0  0  0  0  0  0
  189.3950  177.3200  142.9610 C   0  0  0  0  0  0  0  0  0  0  0  0
  187.6660  178.0950  140.9270 C   0  0  0  0  0  0  0  0  0  0  0  0
  184.4480  179.3680  140.5760 N   0  0  0  0  0  1  0  0  0  0  0  0
  186.6840  178.5180  140.1150 N   0  0  0  0  0  2  0  0  0  0  0  0
  187.6010  177.8470  144.7040 C   0  0  0  0  0  2  0  0  0  0  0  0
  188.1060  177.8200  143.2860 C   0  0  0  0  0  0  0  0  0  0  0  0
  189.3350  177.5320  139.1220 C   0  0  2  0  0  3  0  0  0  0  0  0
  189.5000  175.0820  137.4120 C   0  0  0  0  0  2  0  0  0  0  0  0
  191.6800  177.1910  139.4790 O   0  0  0  0  0  0  0  0  0  0  0  0
  190.6280  176.7970  138.9050 C   0  0  0  0  0  0  0  0  0  0  0  0
  191.8680  174.8570  137.8520 C   0  0  0  0  0  2  0  0  0  0  0  0
  190.6640  175.6270  138.0790 N   0  0  0  0  0  0  0  0  0  0  0  0
  189.9580  173.7750  136.7930 C   0  0  0  0  0  2  0  0  0  0  0  0
  191.4780  173.7670  136.8710 C   0  0  0  0  0  2  0  0  0  0  0  0
  189.2470  178.8700  138.3850 C   0  0  0  0  0  2  0  0  0  0  0  0
  188.9790  178.7110  136.8930 C   0  0  0  0  0  2  0  0  0  0  0  0
  187.4890  178.7630  136.6110 C   0  0  0  0  0  2  0  0  0  0  0  0
  187.0080  177.4430  136.0320 C   0  0  0  0  0  2  0  0  0  0  0  0
  184.9600  177.6570  137.3480 O   0  0  0  0  0  0  0  0  0  0  0  0
  185.9890  176.8690  136.8910 N   0  0  0  0  0  0  0  0  0  0  0  0
  185.9510  175.6350  137.0720 O   0  0  0  0  0  0  0  0  0  0  0  0
  1 10  1  0  0  0  0
  2  7  1  1  0  0  0
  2  6  1  0  0  0  0
  4 11  1  0  0  0  0
  4  1  2  0  0  0  0
  5  3  2  0  0  0  0
  6  9  1  0  0  0  0
  8  3  1  0  0  0  0
  8 15  1  0  0  0  0
 10 15  2  0  0  0  0
 10  2  1  0  0  0  0
 11  8  2  0  0  0  0
 12  5  1  0  0  0  0
 13 11  1  0  0  0  0
 13  5  1  0  0  0  0
 14  9  1  0  0  0  0
 15 14  1  0  0  0  0
 16 24  1  1  0  0  0
 16  4  1  0  0  0  0
 17 21  1  0  0  0  0
 19 16  1  0  0  0  0
 19 18  2  0  0  0  0
 20 21  1  0  0  0  0
 21 19  1  0  0  0  0
 22 23  1  0  0  0  0
 22 17  1  0  0  0  0
 23 20  1  0  0  0  0
 25 24  1  0  0  0  0
 26 25  1  0  0  0  0
 27 26  1  0  0  0  0
 27 29  1  0  0  0  0
 29 30  2  0  0  0  0
 29 28  2  0  0  0  0
M  END
>  <MODEL>
4

>  <REMARK>
 VINA RESULT:      -7.5      3.609      7.524
  Name = 
  7 active torsions:
  status: ('A' for Active; 'I' for Inactive)
    1  A    between atoms: C_4  and  C_13
    2  A    between atoms: C_7  and  N_15
    3  A    between atoms: C_7  and  C_16
    4  A    between atoms: C_8  and  C_13
    5  A    between atoms: C_13  and  C_27
    6  A    between atoms: C_16  and  C_30
    7  A    between atoms: C_27  and  C_30
                            x       y       z     vdW  Elec       q    Type
                         _______ _______ _______ _____ _____    ______ ____

>  <TORSDO>
F 7

$$$$
=
 OpenBabel11052412283D

 30 33  0  0  1  0  0  0  0  0999 V2000
  187.1020  177.3480  142.6430 C   0  0  0  0  0  3  0  0  0  0  0  0
  189.4170  176.4090  142.3750 C   0  0  2  0  0  3  0  0  0  0  0  0
  187.5170  178.2460  146.6200 N   0  0  0  0  0  0  0  0  0  0  0  0
  186.0760  177.9580  143.3940 C   0  0  0  0  0  0  0  0  0  0  0  0
  186.2800  178.7890  146.7630 C   0  0  0  0  0  0  0  0  0  0  0  0
  190.5100  175.7240  143.2000 C   0  0  0  0  0  2  0  0  0  0  0  0
  190.0280  177.4740  141.4780 C   0  0  0  0  0  1  0  0  0  0  0  0
  187.5280  177.8990  145.3240 C   0  0  0  0  0  0  0  0  0  0  0  0
  190.9730  176.6300  144.3370 C   0  0  0  0  0  2  0  0  0  0  0  0
  188.3370  177.0080  143.2380 C   0  0  0  0  0  0  0  0  0  0  0  0
  186.3390  178.2240  144.7390 C   0  0  0  0  0  0  0  0  0  0  0  0
  185.8140  179.3080  148.0020 N   0  0  0  0  0  1  0  0  0  0  0  0
  185.5220  178.7970  145.6380 N   0  0  0  0  0  2  0  0  0  0  0  0
  189.8240  176.8620  145.3130 C   0  0  0  0  0  2  0  0  0  0  0  0
  188.5640  177.2940  144.6110 C   0  0  0  0  0  0  0  0  0  0  0  0
  184.7620  178.3440  142.7750 C   0  0  2  0  0  3  0  0  0  0  0  0
  183.0830  177.2590  140.5480 C   0  0  0  0  0  2  0  0  0  0  0  0
  185.7470  179.7280  141.0830 O   0  0  0  0  0  0  0  0  0  0  0  0
  184.8890  178.8460  141.3630 C   0  0  0  0  0  0  0  0  0  0  0  0
  184.1580  178.7160  138.9420 C   0  0  0  0  0  2  0  0  0  0  0  0
  184.0660  178.3000  140.3250 N   0  0  0  0  0  0  0  0  0  0  0  0
  182.5720  176.8790  139.1710 C   0  0  0  0  0  2  0  0  0  0  0  0
  183.0710  177.9500  138.2110 C   0  0  0  0  0  2  0  0  0  0  0  0
  183.8920  179.2270  143.6730 C   0  0  0  0  0  2  0  0  0  0  0  0
  182.5360  178.6040  143.9850 C   0  0  0  0  0  2  0  0  0  0  0  0
  181.4460  179.2610  143.1580 C   0  0  0  0  0  2  0  0  0  0  0  0
  180.1520  178.4710  143.2570 C   0  0  0  0  0  2  0  0  0  0  0  0
  179.9520  178.8410  140.8500 O   0  0  0  0  0  0  0  0  0  0  0  0
  179.7410  178.0280  141.9380 N   0  0  0  0  0  0  0  0  0  0  0  0
  179.3600  176.8530  141.7670 O   0  0  0  0  0  0  0  0  0  0  0  0
  1 10  2  0  0  0  0
  1  4  1  0  0  0  0
  2  7  1  1  0  0  0
  2  6  1  0  0  0  0
  2 10  1  0  0  0  0
  3  5  2  0  0  0  0
  4 11  2  0  0  0  0
  5 12  1  0  0  0  0
  6  9  1  0  0  0  0
  8  3  1  0  0  0  0
  9 14  1  0  0  0  0
 10 15  1  0  0  0  0
 11  8  1  0  0  0  0
 11 13  1  0  0  0  0
 13  5  1  0  0  0  0
 15 14  1  0  0  0  0
 15  8  2  0  0  0  0
 16  4  1  0  0  0  0
 16 24  1  1  0  0  0
 18 19  2  0  0  0  0
 19 16  1  0  0  0  0
 20 21  1  0  0  0  0
 21 17  1  0  0  0  0
 21 19  1  0  0  0  0
 22 17  1  0  0  0  0
 23 20  1  0  0  0  0
 23 22  1  0  0  0  0
 24 25  1  0  0  0  0
 26 27  1  0  0  0  0
 26 25  1  0  0  0  0
 28 29  2  0  0  0  0
 29 27  1  0  0  0  0
 30 29  2  0  0  0  0
M  END
>  <MODEL>
5

>  <REMARK>
 VINA RESULT:      -7.4      3.267      7.650
  Name = 
  7 active torsions:
  status: ('A' for Active; 'I' for Inactive)
    1  A    between atoms: C_4  and  C_13
    2  A    between atoms: C_7  and  N_15
    3  A    between atoms: C_7  and  C_16
    4  A    between atoms: C_8  and  C_13
    5  A    between atoms: C_13  and  C_27
    6  A    between atoms: C_16  and  C_30
    7  A    between atoms: C_27  and  C_30
                            x       y       z     vdW  Elec       q    Type
                         _______ _______ _______ _____ _____    ______ ____

>  <TORSDO>
F 7

$$$$
=
 OpenBabel11052412283D

 30 33  0  0  1  0  0  0  0  0999 V2000
  187.4960  178.5000  140.7240 C   0  0  0  0  0  3  0  0  0  0  0  0
  185.3910  179.0890  141.9650 C   0  0  2  0  0  3  0  0  0  0  0  0
  189.3280  176.7020  143.9200 N   0  0  0  0  0  0  0  0  0  0  0  0
  188.7760  177.9150  140.6350 C   0  0  0  0  0  0  0  0  0  0  0  0
  190.4520  176.3480  143.2450 C   0  0  0  0  0  0  0  0  0  0  0  0
  184.9110  179.3910  143.3870 C   0  0  0  0  0  2  0  0  0  0  0  0
  184.4100  178.1600  141.2670 C   0  0  0  0  0  1  0  0  0  0  0  0
  188.6070  177.3170  142.9680 C   0  0  0  0  0  0  0  0  0  0  0  0
  185.1580  178.1960  144.3040 C   0  0  0  0  0  2  0  0  0  0  0  0
  186.7780  178.4980  141.9400 C   0  0  0  0  0  0  0  0  0  0  0  0
  189.2920  177.3230  141.7890 C   0  0  0  0  0  0  0  0  0  0  0  0
  191.5260  175.6530  143.8670 N   0  0  0  0  0  1  0  0  0  0  0  0
  190.4770  176.7080  141.9380 N   0  0  0  0  0  2  0  0  0  0  0  0
  186.6570  177.9460  144.4340 C   0  0  0  0  0  2  0  0  0  0  0  0
  187.3390  177.8870  143.0930 C   0  0  0  0  0  0  0  0  0  0  0  0
  189.5480  177.8900  139.3450 C   0  0  2  0  0  3  0  0  0  0  0  0
  187.5990  176.3840  137.6450 C   0  0  0  0  0  2  0  0  0  0  0  0
  189.0540  179.7440  137.9090 O   0  0  0  0  0  0  0  0  0  0  0  0
  188.8220  178.5380  138.1990 C   0  0  0  0  0  0  0  0  0  0  0  0
  187.1890  178.3360  136.2750 C   0  0  0  0  0  2  0  0  0  0  0  0
  187.8970  177.7820  137.4090 N   0  0  0  0  0  0  0  0  0  0  0  0
  186.7090  175.9560  136.4940 C   0  0  0  0  0  2  0  0  0  0  0  0
  186.2710  177.2310  135.7850 C   0  0  0  0  0  2  0  0  0  0  0  0
  190.1450  176.5210  139.0090 C   0  0  0  0  0  2  0  0  0  0  0  0
  191.5450  176.6130  138.4120 C   0  0  0  0  0  2  0  0  0  0  0  0
  191.6170  175.8420  137.1070 C   0  0  0  0  0  2  0  0  0  0  0  0
  192.7450  174.8240  137.1510 C   0  0  0  0  0  2  0  0  0  0  0  0
  194.3410  176.5540  136.4920 O   0  0  0  0  0  0  0  0  0  0  0  0
  194.0170  175.5040  137.3170 N   0  0  0  0  0  0  0  0  0  0  0  0
  194.7320  175.2510  138.3080 O   0  0  0  0  0  0  0  0  0  0  0  0
  1 10  1  0  0  0  0
  2  7  1  1  0  0  0
  2  6  1  0  0  0  0
  4  1  2  0  0  0  0
  4 11  1  0  0  0  0
  5 12  1  0  0  0  0
  5  3  2  0  0  0  0
  6  9  1  0  0  0  0
  8 15  1  0  0  0  0
  8  3  1  0  0  0  0
  9 14  1  0  0  0  0
 10  2  1  0  0  0  0
 10 15  2  0  0  0  0
 11 13  1  0  0  0  0
 11  8  2  0  0  0  0
 13  5  1  0  0  0  0
 15 14  1  0  0  0  0
 16 24  1  6  0  0  0
 16  4  1  0  0  0  0
 18 19  2  0  0  0  0
 19 16  1  0  0  0  0
 20 21  1  0  0  0  0
 21 17  1  0  0  0  0
 21 19  1  0  0  0  0
 22 17  1  0  0  0  0
 23 20  1  0  0  0  0
 23 22  1  0  0  0  0
 25 24  1  0  0  0  0
 26 27  1  0  0  0  0
 26 25  1  0  0  0  0
 27 29  1  0  0  0  0
 28 29  2  0  0  0  0
 29 30  2  0  0  0  0
M  END
>  <MODEL>
6

>  <REMARK>
 VINA RESULT:      -7.4      3.970      7.270
  Name = 
  7 active torsions:
  status: ('A' for Active; 'I' for Inactive)
    1  A    between atoms: C_4  and  C_13
    2  A    between atoms: C_7  and  N_15
    3  A    between atoms: C_7  and  C_16
    4  A    between atoms: C_8  and  C_13
    5  A    between atoms: C_13  and  C_27
    6  A    between atoms: C_16  and  C_30
    7  A    between atoms: C_27  and  C_30
                            x       y       z     vdW  Elec       q    Type
                         _______ _______ _______ _____ _____    ______ ____

>  <TORSDO>
F 7

$$$$
=
 OpenBabel11052412283D

 30 33  0  0  1  0  0  0  0  0999 V2000
  187.9480  177.3590  139.1200 C   0  0  0  0  0  3  0  0  0  0  0  0
  187.1200  176.7350  136.8310 C   0  0  2  0  0  3  0  0  0  0  0  0
  191.9100  176.7480  138.2680 N   0  0  0  0  0  0  0  0  0  0  0  0
  188.9700  177.5810  140.0650 C   0  0  0  0  0  0  0  0  0  0  0  0
  192.3670  177.1200  139.4920 C   0  0  0  0  0  0  0  0  0  0  0  0
  187.5170  175.8650  135.6340 C   0  0  0  0  0  2  0  0  0  0  0  0
  186.6320  178.0920  136.3520 C   0  0  0  0  0  1  0  0  0  0  0  0
  190.5840  176.9060  138.3990 C   0  0  0  0  0  0  0  0  0  0  0  0
  188.8590  176.3150  135.0640 C   0  0  0  0  0  2  0  0  0  0  0  0
  188.2470  176.9020  137.8170 C   0  0  0  0  0  0  0  0  0  0  0  0
  190.2840  177.3480  139.6550 C   0  0  0  0  0  0  0  0  0  0  0  0
  193.7500  177.1140  139.8230 N   0  0  0  0  0  1  0  0  0  0  0  0
  191.4080  177.4940  140.3750 N   0  0  0  0  0  2  0  0  0  0  0  0
  189.9590  176.0960  136.0970 C   0  0  0  0  0  2  0  0  0  0  0  0
  189.5980  176.6750  137.4390 C   0  0  0  0  0  0  0  0  0  0  0  0
  188.6740  178.0850  141.4500 C   0  0  2  0  0  3  0  0  0  0  0  0
  190.6920  178.7920  143.5430 C   0  0  0  0  0  2  0  0  0  0  0  0
  188.5670  175.9640  142.5620 O   0  0  0  0  0  0  0  0  0  0  0  0
  189.0670  177.1220  142.5360 C   0  0  0  0  0  0  0  0  0  0  0  0
  190.4840  176.6110  144.5720 C   0  0  0  0  0  2  0  0  0  0  0  0
  190.0380  177.4990  143.5190 N   0  0  0  0  0  0  0  0  0  0  0  0
  191.7410  178.6990  144.6350 C   0  0  0  0  0  2  0  0  0  0  0  0
  191.4410  177.4290  145.4190 C   0  0  0  0  0  2  0  0  0  0  0  0
  187.2640  178.6600  141.6090 C   0  0  0  0  0  2  0  0  0  0  0  0
  186.3800  177.8220  142.5270 C   0  0  0  0  0  2  0  0  0  0  0  0
  185.7080  178.7020  143.5650 C   0  0  0  0  0  2  0  0  0  0  0  0
  185.8830  178.1150  144.9560 C   0  0  0  0  0  2  0  0  0  0  0  0
  185.6070  179.4470  146.9860 O   0  0  0  0  0  0  0  0  0  0  0  0
  185.0390  178.8230  145.9010 N   0  0  0  0  0  0  0  0  0  0  0  0
  183.8340  179.0100  145.6390 O   0  0  0  0  0  0  0  0  0  0  0  0
  1  4  1  0  0  0  0
  2  7  1  6  0  0  0
  2 10  1  0  0  0  0
  3  8  1  0  0  0  0
  3  5  2  0  0  0  0
  4 16  1  0  0  0  0
  5 12  1  0  0  0  0
  5 13  1  0  0  0  0
  6  2  1  0  0  0  0
  8 11  1  0  0  0  0
  9  6  1  0  0  0  0
  9 14  1  0  0  0  0
 10  1  2  0  0  0  0
 11  4  2  0  0  0  0
 11 13  1  0  0  0  0
 14 15  1  0  0  0  0
 15 10  1  0  0  0  0
 15  8  2  0  0  0  0
 16 24  1  6  0  0  0
 16 19  1  0  0  0  0
 17 22  1  0  0  0  0
 19 18  2  0  0  0  0
 19 21  1  0  0  0  0
 20 23  1  0  0  0  0
 21 17  1  0  0  0  0
 21 20  1  0  0  0  0
 22 23  1  0  0  0  0
 24 25  1  0  0  0  0
 25 26  1  0  0  0  0
 26 27  1  0  0  0  0
 27 29  1  0  0  0  0
 29 28  2  0  0  0  0
 30 29  2  0  0  0  0
M  END
>  <MODEL>
7

>  <REMARK>
 VINA RESULT:      -7.2      3.310      5.181
  Name = 
  7 active torsions:
  status: ('A' for Active; 'I' for Inactive)
    1  A    between atoms: C_4  and  C_13
    2  A    between atoms: C_7  and  N_15
    3  A    between atoms: C_7  and  C_16
    4  A    between atoms: C_8  and  C_13
    5  A    between atoms: C_13  and  C_27
    6  A    between atoms: C_16  and  C_30
    7  A    between atoms: C_27  and  C_30
                            x       y       z     vdW  Elec       q    Type
                         _______ _______ _______ _____ _____    ______ ____

>  <TORSDO>
F 7

$$$$
=
 OpenBabel11052412283D

 30 33  0  0  1  0  0  0  0  0999 V2000
  186.2680  178.5580  142.5790 C   0  0  0  0  0  3  0  0  0  0  0  0
  183.8290  178.8750  142.0640 C   0  0  2  0  0  3  0  0  0  0  0  0
  185.7470  178.1110  146.6190 N   0  0  0  0  0  0  0  0  0  0  0  0
  187.3410  178.3130  143.4600 C   0  0  0  0  0  0  0  0  0  0  0  0
  187.0590  177.9010  146.8990 C   0  0  0  0  0  0  0  0  0  0  0  0
  182.5440  179.3800  142.7270 C   0  0  0  0  0  2  0  0  0  0  0  0
  183.5540  177.5880  141.3030 C   0  0  0  0  0  1  0  0  0  0  0  0
  185.7620  178.2740  145.2870 C   0  0  0  0  0  0  0  0  0  0  0  0
  182.2110  178.5450  143.9600 C   0  0  0  0  0  2  0  0  0  0  0  0
  184.9440  178.6680  143.0570 C   0  0  0  0  0  0  0  0  0  0  0  0
  187.0380  178.1690  144.8150 C   0  0  0  0  0  0  0  0  0  0  0  0
  187.5290  177.6740  148.2220 N   0  0  0  0  0  1  0  0  0  0  0  0
  187.8880  177.9290  145.8260 N   0  0  0  0  0  2  0  0  0  0  0  0
  183.2990  178.7230  145.0140 C   0  0  0  0  0  2  0  0  0  0  0  0
  184.6770  178.5160  144.4440 C   0  0  0  0  0  0  0  0  0  0  0  0
  188.7550  178.1740  142.9680 C   0  0  2  0  0  3  0  0  0  0  0  0
  189.0560  178.7410  140.0450 C   0  0  0  0  0  2  0  0  0  0  0  0
  188.9250  175.8700  142.3290 O   0  0  0  0  0  0  0  0  0  0  0  0
  188.9330  177.0760  141.9570 C   0  0  0  0  0  0  0  0  0  0  0  0
  189.2180  176.3800  139.5390 C   0  0  0  0  0  2  0  0  0  0  0  0
  189.0730  177.3890  140.5660 N   0  0  0  0  0  0  0  0  0  0  0  0
  189.0720  178.5970  138.5350 C   0  0  0  0  0  2  0  0  0  0  0  0
  189.4110  177.1420  138.2410 C   0  0  0  0  0  2  0  0  0  0  0  0
  189.8000  178.1660  144.0860 C   0  0  0  0  0  2  0  0  0  0  0  0
  191.1730  177.7000  143.6150 C   0  0  0  0  0  2  0  0  0  0  0  0
  191.6860  176.5780  144.4990 C   0  0  0  0  0  2  0  0  0  0  0  0
  191.2540  176.7940  145.9400 C   0  0  0  0  0  2  0  0  0  0  0  0
  192.4230  176.5480  148.0710 O   0  0  0  0  0  0  0  0  0  0  0  0
  192.1140  176.0400  146.8320 N   0  0  0  0  0  0  0  0  0  0  0  0
  192.4280  174.8660  146.5480 O   0  0  0  0  0  0  0  0  0  0  0  0
  1 10  2  0  0  0  0
  1  4  1  0  0  0  0
  2  7  1  1  0  0  0
  2  6  1  0  0  0  0
  2 10  1  0  0  0  0
  3  5  2  0  0  0  0
  4 11  2  0  0  0  0
  5 12  1  0  0  0  0
  6  9  1  0  0  0  0
  8  3  1  0  0  0  0
  9 14  1  0  0  0  0
 10 15  1  0  0  0  0
 11  8  1  0  0  0  0
 11 13  1  0  0  0  0
 13  5  1  0  0  0  0
 15 14  1  0  0  0  0
 15  8  2  0  0  0  0
 16  4  1  0  0  0  0
 16 24  1  1  0  0  0
 17 21  1  0  0  0  0
 19 18  2  0  0  0  0
 19 16  1  0  0  0  0
 20 21  1  0  0  0  0
 21 19  1  0  0  0  0
 22 17  1  0  0  0  0
 23 22  1  0  0  0  0
 23 20  1  0  0  0  0
 25 24  1  0  0  0  0
 25 26  1  0  0  0  0
 26 27  1  0  0  0  0
 27 29  1  0  0  0  0
 29 28  2  0  0  0  0
 30 29  2  0  0  0  0
M  END
>  <MODEL>
8

>  <REMARK>
 VINA RESULT:      -7.1      1.877      4.393
  Name = 
  7 active torsions:
  status: ('A' for Active; 'I' for Inactive)
    1  A    between atoms: C_4  and  C_13
    2  A    between atoms: C_7  and  N_15
    3  A    between atoms: C_7  and  C_16
    4  A    between atoms: C_8  and  C_13
    5  A    between atoms: C_13  and  C_27
    6  A    between atoms: C_16  and  C_30
    7  A    between atoms: C_27  and  C_30
                            x       y       z     vdW  Elec       q    Type
                         _______ _______ _______ _____ _____    ______ ____

>  <TORSDO>
F 7

$$$$
=
 OpenBabel11052412283D

 30 33  0  0  1  0  0  0  0  0999 V2000
  184.8350  178.2760  141.5790 C   0  0  0  0  0  3  0  0  0  0  0  0
  182.4810  178.4220  140.7120 C   0  0  2  0  0  3  0  0  0  0  0  0
  183.8490  179.0460  145.4820 N   0  0  0  0  0  0  0  0  0  0  0  0
  185.7940  178.3060  142.6130 C   0  0  0  0  0  0  0  0  0  0  0  0
  185.1130  178.9320  145.9630 C   0  0  0  0  0  0  0  0  0  0  0  0
  181.1470  179.0980  141.0410 C   0  0  0  0  0  2  0  0  0  0  0  0
  182.2520  176.9660  140.3370 C   0  0  0  0  0  1  0  0  0  0  0  0
  184.0190  178.8070  144.1730 C   0  0  0  0  0  0  0  0  0  0  0  0
  180.6500  178.6650  142.4180 C   0  0  0  0  0  2  0  0  0  0  0  0
  183.4700  178.5210  141.8450 C   0  0  0  0  0  0  0  0  0  0  0  0
  185.3360  178.5690  143.9050 C   0  0  0  0  0  0  0  0  0  0  0  0
  185.4240  179.1070  147.3400 N   0  0  0  0  0  1  0  0  0  0  0  0
  186.0590  178.6420  145.0350 N   0  0  0  0  0  2  0  0  0  0  0  0
  181.6180  179.1490  143.4930 C   0  0  0  0  0  2  0  0  0  0  0  0
  183.0440  178.7860  143.1740 C   0  0  0  0  0  0  0  0  0  0  0  0
  187.2490  178.0300  142.3530 C   0  0  2  0  0  3  0  0  0  0  0  0
  189.9310  177.2170  141.3060 C   0  0  0  0  0  2  0  0  0  0  0  0
  186.8890  178.9190  140.1570 O   0  0  0  0  0  0  0  0  0  0  0  0
  187.6670  178.3010  140.9340 C   0  0  0  0  0  0  0  0  0  0  0  0
  189.4370  178.1530  139.1300 C   0  0  0  0  0  2  0  0  0  0  0  0
  188.9610  177.8960  140.4720 N   0  0  0  0  0  0  0  0  0  0  0  0
  191.1950  177.1270  140.4710 C   0  0  0  0  0  2  0  0  0  0  0  0
  190.8020  177.4960  139.0470 C   0  0  0  0  0  2  0  0  0  0  0  0
  187.7280  176.6820  142.8960 C   0  0  0  0  0  2  0  0  0  0  0  0
  188.0300  176.7160  144.3900 C   0  0  0  0  0  2  0  0  0  0  0  0
  189.4300  177.2450  144.6380 C   0  0  0  0  0  2  0  0  0  0  0  0
  189.4990  177.9650  145.9750 C   0  0  0  0  0  2  0  0  0  0  0  0
  190.6980  176.3370  147.3470 O   0  0  0  0  0  0  0  0  0  0  0  0
  189.5290  176.9970  147.0560 N   0  0  0  0  0  0  0  0  0  0  0  0
  188.5510  176.8930  147.8240 O   0  0  0  0  0  0  0  0  0  0  0  0
  1 10  2  0  0  0  0
  1  4  1  0  0  0  0
  2  7  1  1  0  0  0
  2  6  1  0  0  0  0
  2 10  1  0  0  0  0
  3  5  2  0  0  0  0
  4 11  2  0  0  0  0
  5 12  1  0  0  0  0
  6  9  1  0  0  0  0
  8  3  1  0  0  0  0
  9 14  1  0  0  0  0
 10 15  1  0  0  0  0
 11  8  1  0  0  0  0
 11 13  1  0  0  0  0
 13  5  1  0  0  0  0
 15 14  1  0  0  0  0
 15  8  2  0  0  0  0
 16  4  1  0  0  0  0
 16 24  1  6  0  0  0
 18 19  2  0  0  0  0
 19 16  1  0  0  0  0
 20 21  1  0  0  0  0
 21 19  1  0  0  0  0
 21 17  1  0  0  0  0
 22 17  1  0  0  0  0
 23 20  1  0  0  0  0
 23 22  1  0  0  0  0
 24 25  1  0  0  0  0
 25 26  1  0  0  0  0
 26 27  1  0  0  0  0
 27 29  1  0  0  0  0
 29 28  2  0  0  0  0
 29 30  2  0  0  0  0
M  END
>  <MODEL>
9

>  <REMARK>
 VINA RESULT:      -7.1      2.251      3.791
  Name = 
  7 active torsions:
  status: ('A' for Active; 'I' for Inactive)
    1  A    between atoms: C_4  and  C_13
    2  A    between atoms: C_7  and  N_15
    3  A    between atoms: C_7  and  C_16
    4  A    between atoms: C_8  and  C_13
    5  A    between atoms: C_13  and  C_27
    6  A    between atoms: C_16  and  C_30
    7  A    between atoms: C_27  and  C_30
                            x       y       z     vdW  Elec       q    Type
                         _______ _______ _______ _____ _____    ______ ____

>  <TORSDO>
F 7

$$$$
