=
 OpenBabel11052416483D

 32 37  0  0  1  0  0  0  0  0999 V2000
  181.8920  180.0190  138.2120 N   0  0  0  0  0  0  0  0  0  0  0  0
  184.4970  178.4390  142.4270 C   0  0  0  0  0  0  0  0  0  0  0  0
  189.1250  178.2100  140.6200 C   0  0  0  0  0  3  0  0  0  0  0  0
  189.5770  177.6940  141.8330 C   0  0  0  0  0  3  0  0  0  0  0  0
  184.7940  178.8060  144.9070 C   0  0  0  0  0  0  0  0  0  0  0  0
  185.8750  178.6000  145.8340 C   0  0  0  0  0  0  0  0  0  0  0  0
  182.6380  178.8390  140.9680 N   0  0  0  0  0  0  0  0  0  0  0  0
  184.9360  178.9690  140.0860 C   0  0  0  0  0  3  0  0  0  0  0  0
  188.1460  177.8290  147.2150 C   0  0  0  0  0  0  0  0  0  0  0  0
  182.9880  179.1130  138.5320 C   0  0  0  0  0  2  0  0  0  0  0  0
  187.7700  178.4880  140.4410 C   0  0  0  0  0  3  0  0  0  0  0  0
  185.4100  178.5670  141.2750 C   0  0  0  0  0  0  0  0  0  0  0  0
  186.8470  178.2600  141.4770 C   0  0  0  0  0  0  0  0  0  0  0  0
  186.3410  177.3940  143.8330 C   0  0  2  0  0  3  0  0  0  0  0  0
  187.2000  178.6740  147.8270 C   0  0  0  0  0  3  0  0  0  0  0  0
  180.4570  179.5880  140.1460 C   0  0  0  0  0  2  0  0  0  0  0  0
  183.5090  179.4130  139.9280 C   0  0  1  0  0  3  0  0  0  0  0  0
  186.0430  179.0660  147.1370 C   0  0  0  0  0  3  0  0  0  0  0  0
  181.2620  178.4460  140.6870 C   0  0  0  0  0  2  0  0  0  0  0  0
  180.7290  180.2600  139.0220 C   0  0  0  0  0  0  0  0  0  0  0  0
  188.6730  177.4610  142.8720 C   0  0  0  0  0  3  0  0  0  0  0  0
  187.3100  177.7620  142.7220 C   0  0  0  0  0  0  0  0  0  0  0  0
  187.9460  177.3710  145.9020 C   0  0  0  0  0  3  0  0  0  0  0  0
  183.1760  178.5400  142.2610 C   0  0  0  0  0  3  0  0  0  0  0  0
  183.7870  179.5370  145.1050 O   0  0  0  0  0  0  0  0  0  0  0  0
  189.5760  177.3390  148.0980 Cl  0  0  0  0  0  0  0  0  0  0  0  0
  185.0570  178.1010  143.6960 N   0  0  0  0  0  0  0  0  0  0  0  0
  186.8040  177.7900  145.2160 C   0  0  0  0  0  0  0  0  0  0  0  0
  179.1900  182.2060  139.8400 O   0  0  0  0  0  0  0  0  0  0  0  0
  179.6080  181.5440  138.5350 S   0  0  1  0  0  0  0  0  0  0  0  0
  180.8330  182.9760  137.5780 S   0  0  0  0  0  0  0  0  0  0  0  0
  180.3130  182.4160  135.9330 C   0  0  0  0  0  1  0  0  0  0  0  0
  1 10  1  0  0  0  0
  1 20  2  0  0  0  0
  2 27  1  0  0  0  0
  3  4  1  0  0  0  0
  4 21  2  0  0  0  0
  5 25  2  0  0  0  0
  5  6  1  0  0  0  0
  6 18  1  0  0  0  0
  7 24  1  0  0  0  0
  8 12  2  0  0  0  0
  9 15  1  0  0  0  0
  9 26  1  0  0  0  0
 11  3  2  0  0  0  0
 11 13  1  0  0  0  0
 12 13  1  0  0  0  0
 12  2  1  0  0  0  0
 13 22  2  0  0  0  0
 14 22  1  6  0  0  0
 14 28  1  0  0  0  0
 16 19  1  0  0  0  0
 17 10  1  6  0  0  0
 17  8  1  0  0  0  0
 17  7  1  0  0  0  0
 18 15  2  0  0  0  0
 19  7  1  0  0  0  0
 20 16  1  0  0  0  0
 22 21  1  0  0  0  0
 23  9  2  0  0  0  0
 24  2  2  0  0  0  0
 27 14  1  0  0  0  0
 27  5  1  0  0  0  0
 28  6  2  0  0  0  0
 28 23  1  0  0  0  0
 30 20  1  0  0  0  0
 30 29  2  1  0  0  0
 31 30  1  0  0  0  0
 32 31  1  0  0  0  0
M  END
>  <MODEL>
1

>  <REMARK>
 VINA RESULT:     -10.2      0.000      0.000
  Name = 
  2 active torsions:
  status: ('A' for Active; 'I' for Inactive)
    1  A    between atoms: S_1  and  S_20
    2  A    between atoms: S_20  and  C_24
                            x       y       z     vdW  Elec       q    Type
                         _______ _______ _______ _____ _____    ______ ____

>  <TORSDO>
F 2

$$$$
=
 OpenBabel11052416483D

 32 37  0  0  1  0  0  0  0  0999 V2000
  184.6310  178.3700  138.9120 N   0  0  0  0  0  2  0  0  0  0  0  0
  188.4280  177.7300  142.4090 C   0  0  0  0  0  0  0  0  0  0  0  0
  185.8700  178.2160  146.6470 C   0  0  0  0  0  3  0  0  0  0  0  0
  187.0550  178.1180  147.3760 C   0  0  0  0  0  3  0  0  0  0  0  0
  190.4270  176.3170  143.0250 C   0  0  0  0  0  0  0  0  0  0  0  0
  191.0930  175.9950  144.2590 C   0  0  0  0  0  0  0  0  0  0  0  0
  187.3860  178.1850  140.2990 N   0  0  0  0  0  0  0  0  0  0  0  0
  186.0340  178.2000  142.3600 C   0  0  0  0  0  3  0  0  0  0  0  0
  192.1190  175.8650  146.8260 C   0  0  0  0  0  0  0  0  0  0  0  0
  185.0280  178.9350  140.1960 C   0  0  0  0  0  2  0  0  0  0  0  0
  185.9050  178.1840  145.2530 C   0  0  0  0  0  3  0  0  0  0  0  0
  187.1460  178.0080  143.0850 C   0  0  0  0  0  0  0  0  0  0  0  0
  187.1250  178.0470  144.5680 C   0  0  0  0  0  0  0  0  0  0  0  0
  189.6800  177.8800  144.6180 C   0  0  2  0  0  3  0  0  0  0  0  0
  192.5440  174.9440  145.8480 C   0  0  0  0  0  3  0  0  0  0  0  0
  186.8470  178.0890  137.9120 C   0  0  0  0  0  3  0  0  0  0  0  0
  186.0380  178.0180  140.8680 C   0  0  1  0  0  3  0  0  0  0  0  0
  192.0320  175.0060  144.5420 C   0  0  0  0  0  3  0  0  0  0  0  0
  187.5990  178.8020  138.9940 C   0  0  0  0  0  2  0  0  0  0  0  0
  185.5190  177.9320  137.8690 C   0  0  0  0  0  0  0  0  0  0  0  0
  188.2740  177.9830  146.7100 C   0  0  0  0  0  3  0  0  0  0  0  0
  188.3280  177.9180  145.3090 C   0  0  0  0  0  0  0  0  0  0  0  0
  191.1740  176.8550  146.5080 C   0  0  0  0  0  3  0  0  0  0  0  0
  188.5360  177.8490  141.0830 C   0  0  0  0  0  3  0  0  0  0  0  0
  190.5410  175.6820  141.9420 O   0  0  0  0  0  0  0  0  0  0  0  0
  192.7790  175.7810  148.4450 Cl  0  0  0  0  0  0  0  0  0  0  0  0
  189.5670  177.4370  143.2190 N   0  0  0  0  0  0  0  0  0  0  0  0
  190.6530  176.8880  145.2130 C   0  0  0  0  0  0  0  0  0  0  0  0
  185.7640  177.4510  135.3130 O   0  0  0  0  0  0  0  0  0  0  0  0
  184.8300  177.1020  136.4630 S   0  0  1  0  0  0  0  0  0  0  0  0
  185.1850  175.0530  136.8360 S   0  0  0  0  0  0  0  0  0  0  0  0
  183.6600  174.8990  137.8060 C   0  0  0  0  0  1  0  0  0  0  0  0
  1 10  1  0  0  0  0
  2 12  1  0  0  0  0
  2 27  1  0  0  0  0
  3  4  1  0  0  0  0
  5 27  1  0  0  0  0
  5  6  1  0  0  0  0
  6 18  2  0  0  0  0
  6 28  1  0  0  0  0
  7 17  1  0  0  0  0
  7 24  1  0  0  0  0
  8 12  2  0  0  0  0
  9 26  1  0  0  0  0
 11  3  2  0  0  0  0
 12 13  1  0  0  0  0
 13 11  1  0  0  0  0
 13 22  2  0  0  0  0
 14 28  1  1  0  0  0
 14 22  1  0  0  0  0
 15  9  2  0  0  0  0
 16 19  1  0  0  0  0
 17 10  1  6  0  0  0
 17  8  1  0  0  0  0
 18 15  1  0  0  0  0
 19  7  1  0  0  0  0
 20 16  2  0  0  0  0
 20  1  1  0  0  0  0
 21  4  2  0  0  0  0
 22 21  1  0  0  0  0
 23  9  1  0  0  0  0
 24  2  2  0  0  0  0
 25  5  2  0  0  0  0
 27 14  1  0  0  0  0
 28 23  2  0  0  0  0
 30 29  2  6  0  0  0
 30 31  1  0  0  0  0
 30 20  1  0  0  0  0
 31 32  1  0  0  0  0
M  END
>  <MODEL>
2

>  <REMARK>
 VINA RESULT:      -9.7      3.909      5.624
  Name = 
  2 active torsions:
  status: ('A' for Active; 'I' for Inactive)
    1  A    between atoms: S_1  and  S_20
    2  A    between atoms: S_20  and  C_24
                            x       y       z     vdW  Elec       q    Type
                         _______ _______ _______ _____ _____    ______ ____

>  <TORSDO>
F 2

$$$$
=
 OpenBabel11052416483D

 32 37  0  0  1  0  0  0  0  0999 V2000
  192.3750  175.2510  135.9160 N   0  0  0  0  0  0  0  0  0  0  0  0
  189.6250  177.1960  139.8790 C   0  0  0  0  0  0  0  0  0  0  0  0
  185.2510  178.0090  137.6550 C   0  0  0  0  0  3  0  0  0  0  0  0
  184.7620  178.5910  138.8240 C   0  0  0  0  0  3  0  0  0  0  0  0
  189.0570  176.8930  142.3200 C   0  0  0  0  0  0  0  0  0  0  0  0
  187.9330  177.2460  143.1450 C   0  0  0  0  0  0  0  0  0  0  0  0
  191.5410  176.5440  138.5950 N   0  0  0  0  0  0  0  0  0  0  0  0
  189.3360  176.7060  137.5060 C   0  0  0  0  0  3  0  0  0  0  0  0
  185.6650  178.3200  144.3130 C   0  0  0  0  0  0  0  0  0  0  0  0
  191.3830  176.2960  136.1370 C   0  0  0  0  0  2  0  0  0  0  0  0
  186.5690  177.5550  137.6010 C   0  0  0  0  0  3  0  0  0  0  0  0
  188.8130  177.1770  138.6470 C   0  0  0  0  0  0  0  0  0  0  0  0
  187.4150  177.6710  138.7170 C   0  0  0  0  0  0  0  0  0  0  0  0
  187.8130  178.4840  141.1130 C   0  0  2  0  0  3  0  0  0  0  0  0
  186.4330  177.3640  145.0080 C   0  0  0  0  0  3  0  0  0  0  0  0
  193.6720  175.5100  137.9750 C   0  0  0  0  0  2  0  0  0  0  0  0
  190.7020  176.0790  137.4780 C   0  0  1  0  0  3  0  0  0  0  0  0
  187.5870  176.8180  144.4250 C   0  0  0  0  0  3  0  0  0  0  0  0
  192.9770  176.7510  138.4430 C   0  0  0  0  0  2  0  0  0  0  0  0
  193.4190  174.8680  136.8280 C   0  0  0  0  0  0  0  0  0  0  0  0
  185.5900  178.7140  139.9410 C   0  0  0  0  0  3  0  0  0  0  0  0
  186.9100  178.2360  139.9170 C   0  0  0  0  0  0  0  0  0  0  0  0
  186.0420  178.7350  143.0260 C   0  0  0  0  0  3  0  0  0  0  0  0
  190.9320  176.9220  139.8340 C   0  0  0  0  0  3  0  0  0  0  0  0
  189.9380  176.0390  142.6070 O   0  0  0  0  0  0  0  0  0  0  0  0
  184.2370  179.0000  145.0630 Cl  0  0  0  0  0  0  0  0  0  0  0  0
  189.0000  177.6150  141.0920 N   0  0  0  0  0  0  0  0  0  0  0  0
  187.1780  178.1650  142.4470 C   0  0  0  0  0  0  0  0  0  0  0  0
  195.4880  173.9680  135.5130 O   0  0  0  0  0  0  0  0  0  0  0  0
  194.4020  173.4450  136.4420 S   0  0  1  0  0  0  0  0  0  0  0  0
  195.4100  172.9970  138.2440 S   0  0  0  0  0  0  0  0  0  0  0  0
  196.9670  173.6870  137.6200 C   0  0  0  0  0  1  0  0  0  0  0  0
  1 10  1  0  0  0  0
  1 20  2  0  0  0  0
  2 27  1  0  0  0  0
  3  4  1  0  0  0  0
  4 21  2  0  0  0  0
  5 25  2  0  0  0  0
  5  6  1  0  0  0  0
  6 18  1  0  0  0  0
  7 24  1  0  0  0  0
  8 12  2  0  0  0  0
  9 15  1  0  0  0  0
  9 26  1  0  0  0  0
 11  3  2  0  0  0  0
 11 13  1  0  0  0  0
 12 13  1  0  0  0  0
 12  2  1  0  0  0  0
 13 22  2  0  0  0  0
 14 22  1  6  0  0  0
 14 28  1  0  0  0  0
 16 19  1  0  0  0  0
 17 10  1  6  0  0  0
 17  8  1  0  0  0  0
 17  7  1  0  0  0  0
 18 15  2  0  0  0  0
 19  7  1  0  0  0  0
 20 16  1  0  0  0  0
 22 21  1  0  0  0  0
 23  9  2  0  0  0  0
 24  2  2  0  0  0  0
 27 14  1  0  0  0  0
 27  5  1  0  0  0  0
 28 23  1  0  0  0  0
 28  6  2  0  0  0  0
 30 29  2  6  0  0  0
 30 20  1  0  0  0  0
 30 31  1  0  0  0  0
 32 31  1  0  0  0  0
M  END
>  <MODEL>
3

>  <REMARK>
 VINA RESULT:      -8.9      6.738      9.217
  Name = 
  2 active torsions:
  status: ('A' for Active; 'I' for Inactive)
    1  A    between atoms: S_1  and  S_20
    2  A    between atoms: S_20  and  C_24
                            x       y       z     vdW  Elec       q    Type
                         _______ _______ _______ _____ _____    ______ ____

>  <TORSDO>
F 2

$$$$
=
 OpenBabel11052416483D

 32 37  0  0  1  0  0  0  0  0999 V2000
  182.0700  178.6620  139.9760 N   0  0  0  0  0  2  0  0  0  0  0  0
  186.6300  178.1840  142.4330 C   0  0  0  0  0  0  0  0  0  0  0  0
  185.1250  178.1580  147.1730 C   0  0  0  0  0  3  0  0  0  0  0  0
  186.4520  178.1320  147.5980 C   0  0  0  0  0  3  0  0  0  0  0  0
  188.8260  176.9380  142.4500 C   0  0  0  0  0  0  0  0  0  0  0  0
  189.7890  176.6080  143.4650 C   0  0  0  0  0  0  0  0  0  0  0  0
  185.0820  178.6620  140.6660 N   0  0  0  0  0  0  0  0  0  0  0  0
  184.2630  178.4200  142.9790 C   0  0  0  0  0  3  0  0  0  0  0  0
  191.4040  176.4230  145.7060 C   0  0  0  0  0  0  0  0  0  0  0  0
  182.7150  179.1830  141.1750 C   0  0  0  0  0  2  0  0  0  0  0  0
  184.8290  178.2150  145.8120 C   0  0  0  0  0  3  0  0  0  0  0  0
  185.5280  178.2940  143.4080 C   0  0  0  0  0  0  0  0  0  0  0  0
  185.8570  178.2400  144.8530 C   0  0  0  0  0  0  0  0  0  0  0  0
  188.3550  178.3200  144.2960 C   0  0  2  0  0  3  0  0  0  0  0  0
  191.6570  175.6090  144.5830 C   0  0  0  0  0  3  0  0  0  0  0  0
  184.0000  178.6600  138.4700 C   0  0  0  0  0  3  0  0  0  0  0  0
  183.9270  178.3300  141.5170 C   0  0  1  0  0  3  0  0  0  0  0  0
  190.8460  175.7000  143.4410 C   0  0  0  0  0  3  0  0  0  0  0  0
  184.9280  179.3760  139.4030 C   0  0  0  0  0  2  0  0  0  0  0  0
  182.7170  178.3780  138.7230 C   0  0  0  0  0  0  0  0  0  0  0  0
  187.4850  178.1580  146.6590 C   0  0  0  0  0  3  0  0  0  0  0  0
  187.2090  178.1840  145.2830 C   0  0  0  0  0  0  0  0  0  0  0  0
  190.3340  177.3320  145.6980 C   0  0  0  0  0  3  0  0  0  0  0  0
  186.4090  178.3930  141.1320 C   0  0  0  0  0  3  0  0  0  0  0  0
  188.7290  176.3840  141.3230 O   0  0  0  0  0  0  0  0  0  0  0  0
  192.4360  176.3050  147.1150 Cl  0  0  0  0  0  0  0  0  0  0  0  0
  187.9490  177.9550  142.9300 N   0  0  0  0  0  0  0  0  0  0  0  0
  189.5190  177.3940  144.5660 C   0  0  0  0  0  0  0  0  0  0  0  0
  181.5580  178.6460  136.3970 O   0  0  0  0  0  0  0  0  0  0  0  0
  181.7820  177.5710  137.4520 S   0  0  1  0  0  0  0  0  0  0  0  0
  183.1500  176.2280  136.5640 S   0  0  0  0  0  0  0  0  0  0  0  0
  183.0610  175.0990  137.9810 C   0  0  0  0  0  1  0  0  0  0  0  0
  1 10  1  0  0  0  0
  2 27  1  0  0  0  0
  2 12  1  0  0  0  0
  3  4  1  0  0  0  0
  5 27  1  0  0  0  0
  5  6  1  0  0  0  0
  6 28  1  0  0  0  0
  7 24  1  0  0  0  0
  7 17  1  0  0  0  0
  8 12  2  0  0  0  0
  9 26  1  0  0  0  0
 11  3  2  0  0  0  0
 12 13  1  0  0  0  0
 13 22  2  0  0  0  0
 13 11  1  0  0  0  0
 14 28  1  1  0  0  0
 14 22  1  0  0  0  0
 15  9  2  0  0  0  0
 16 20  2  0  0  0  0
 16 19  1  0  0  0  0
 17 10  1  1  0  0  0
 17  8  1  0  0  0  0
 18  6  2  0  0  0  0
 18 15  1  0  0  0  0
 19  7  1  0  0  0  0
 20  1  1  0  0  0  0
 21  4  2  0  0  0  0
 22 21  1  0  0  0  0
 23  9  1  0  0  0  0
 24  2  2  0  0  0  0
 25  5  2  0  0  0  0
 27 14  1  0  0  0  0
 28 23  2  0  0  0  0
 30 29  2  6  0  0  0
 30 20  1  0  0  0  0
 31 30  1  0  0  0  0
 31 32  1  0  0  0  0
M  END
>  <MODEL>
4

>  <REMARK>
 VINA RESULT:      -8.9      2.818      4.596
  Name = 
  2 active torsions:
  status: ('A' for Active; 'I' for Inactive)
    1  A    between atoms: S_1  and  S_20
    2  A    between atoms: S_20  and  C_24
                            x       y       z     vdW  Elec       q    Type
                         _______ _______ _______ _____ _____    ______ ____

>  <TORSDO>
F 2

$$$$
=
 OpenBabel11052416483D

 32 37  0  0  1  0  0  0  0  0999 V2000
  180.7830  178.5840  141.4420 N   0  0  0  0  0  2  0  0  0  0  0  0
  185.9020  178.5270  140.5230 C   0  0  0  0  0  0  0  0  0  0  0  0
  187.6370  177.3700  145.0380 C   0  0  0  0  0  3  0  0  0  0  0  0
  188.9450  177.5150  144.5760 C   0  0  0  0  0  3  0  0  0  0  0  0
  187.6870  177.7280  138.9250 C   0  0  0  0  0  0  0  0  0  0  0  0
  189.0820  177.4070  139.0530 C   0  0  0  0  0  0  0  0  0  0  0  0
  183.5780  179.0190  140.2010 N   0  0  0  0  0  0  0  0  0  0  0  0
  184.3670  178.2170  142.3940 C   0  0  0  0  0  3  0  0  0  0  0  0
  191.7400  177.1240  139.7740 C   0  0  0  0  0  0  0  0  0  0  0  0
  182.0100  178.9910  142.1160 C   0  0  0  0  0  2  0  0  0  0  0  0
  186.5640  177.6150  144.1820 C   0  0  0  0  0  3  0  0  0  0  0  0
  185.6310  178.2530  141.9470 C   0  0  0  0  0  0  0  0  0  0  0  0
  186.7820  178.0030  142.8480 C   0  0  0  0  0  0  0  0  0  0  0  0
  188.4030  178.6440  140.9720 C   0  0  2  0  0  3  0  0  0  0  0  0
  191.2770  176.5870  138.5560 C   0  0  0  0  0  3  0  0  0  0  0  0
  181.3740  179.2110  139.1520 C   0  0  0  0  0  3  0  0  0  0  0  0
  183.2050  178.3310  141.4480 C   0  0  1  0  0  3  0  0  0  0  0  0
  189.9320  176.7300  138.1810 C   0  0  0  0  0  3  0  0  0  0  0  0
  182.6530  179.9070  139.5050 C   0  0  0  0  0  2  0  0  0  0  0  0
  180.5310  178.6540  140.0280 C   0  0  0  0  0  0  0  0  0  0  0  0
  189.1780  177.9010  143.2540 C   0  0  0  0  0  3  0  0  0  0  0  0
  188.1130  178.1220  142.3690 C   0  0  0  0  0  0  0  0  0  0  0  0
  190.8590  177.8060  140.6310 C   0  0  0  0  0  3  0  0  0  0  0  0
  184.9200  178.9220  139.7090 C   0  0  0  0  0  3  0  0  0  0  0  0
  186.9360  177.3790  137.9760 O   0  0  0  0  0  0  0  0  0  0  0  0
  193.4240  176.9490  140.2180 Cl  0  0  0  0  0  0  0  0  0  0  0  0
  187.2540  178.4620  140.0690 N   0  0  0  0  0  0  0  0  0  0  0  0
  189.5190  177.9170  140.2570 C   0  0  0  0  0  0  0  0  0  0  0  0
  179.3390  177.6560  137.9290 O   0  0  0  0  0  0  0  0  0  0  0  0
  179.0410  177.9300  139.3970 S   0  0  1  0  0  0  0  0  0  0  0  0
  178.9650  176.0180  140.2920 S   0  0  0  0  0  0  0  0  0  0  0  0
  180.5200  175.5160  139.5040 C   0  0  0  0  0  1  0  0  0  0  0  0
  1 10  1  0  0  0  0
  2 12  1  0  0  0  0
  4  3  1  0  0  0  0
  5  6  1  0  0  0  0
  5 27  1  0  0  0  0
  6 28  1  0  0  0  0
  7 17  1  0  0  0  0
  9 26  1  0  0  0  0
  9 23  1  0  0  0  0
 11  3  2  0  0  0  0
 12  8  2  0  0  0  0
 12 13  1  0  0  0  0
 13 11  1  0  0  0  0
 14 28  1  6  0  0  0
 14 22  1  0  0  0  0
 15  9  2  0  0  0  0
 16 19  1  0  0  0  0
 16 20  2  0  0  0  0
 17 10  1  1  0  0  0
 17  8  1  0  0  0  0
 18 15  1  0  0  0  0
 18  6  2  0  0  0  0
 19  7  1  0  0  0  0
 20  1  1  0  0  0  0
 21  4  2  0  0  0  0
 22 13  2  0  0  0  0
 22 21  1  0  0  0  0
 24  7  1  0  0  0  0
 24  2  2  0  0  0  0
 25  5  2  0  0  0  0
 27  2  1  0  0  0  0
 27 14  1  0  0  0  0
 28 23  2  0  0  0  0
 30 29  2  6  0  0  0
 30 20  1  0  0  0  0
 30 31  1  0  0  0  0
 32 31  1  0  0  0  0
M  END
>  <MODEL>
5

>  <REMARK>
 VINA RESULT:      -8.5      3.107      5.293
  Name = 
  2 active torsions:
  status: ('A' for Active; 'I' for Inactive)
    1  A    between atoms: S_1  and  S_20
    2  A    between atoms: S_20  and  C_24
                            x       y       z     vdW  Elec       q    Type
                         _______ _______ _______ _____ _____    ______ ____

>  <TORSDO>
F 2

$$$$
=
 OpenBabel11052416483D

 32 37  0  0  1  0  0  0  0  0999 V2000
  191.0520  176.3630  136.8760 N   0  0  0  0  0  0  0  0  0  0  0  0
  190.4210  177.3960  141.9350 C   0  0  0  0  0  0  0  0  0  0  0  0
  185.5190  178.2170  142.1030 C   0  0  0  0  0  3  0  0  0  0  0  0
  185.6190  178.5550  143.4520 C   0  0  0  0  0  3  0  0  0  0  0  0
  191.0270  176.6470  144.2680 C   0  0  0  0  0  0  0  0  0  0  0  0
  190.4040  176.7680  145.5590 C   0  0  0  0  0  0  0  0  0  0  0  0
  191.5380  177.1210  139.8310 N   0  0  0  0  0  0  0  0  0  0  0  0
  189.0800  177.2860  139.8990 C   0  0  0  0  0  3  0  0  0  0  0  0
  188.9240  177.4480  147.7970 C   0  0  0  0  0  0  0  0  0  0  0  0
  190.2750  177.2730  137.7070 C   0  0  0  0  0  2  0  0  0  0  0  0
  186.6640  177.8840  141.3810 C   0  0  0  0  0  3  0  0  0  0  0  0
  189.1370  177.5180  141.2190 C   0  0  0  0  0  0  0  0  0  0  0  0
  187.9270  177.8800  141.9980 C   0  0  0  0  0  0  0  0  0  0  0  0
  189.3770  178.3130  144.0650 C   0  0  2  0  0  3  0  0  0  0  0  0
  189.9190  176.4540  147.8830 C   0  0  0  0  0  3  0  0  0  0  0  0
  193.1470  176.3780  138.1420 C   0  0  0  0  0  2  0  0  0  0  0  0
  190.2790  176.7830  139.1470 C   0  0  1  0  0  3  0  0  0  0  0  0
  190.6780  176.1070  146.7550 C   0  0  0  0  0  3  0  0  0  0  0  0
  192.7480  177.4650  139.0930 C   0  0  0  0  0  2  0  0  0  0  0  0
  192.3950  175.9180  137.1360 C   0  0  0  0  0  0  0  0  0  0  0  0
  186.8660  178.5560  144.0800 C   0  0  0  0  0  3  0  0  0  0  0  0
  188.0270  178.1960  143.3790 C   0  0  0  0  0  0  0  0  0  0  0  0
  188.6750  178.1000  146.5780 C   0  0  0  0  0  3  0  0  0  0  0  0
  191.5620  177.2390  141.2590 C   0  0  0  0  0  3  0  0  0  0  0  0
  191.9380  175.8310  143.9660 O   0  0  0  0  0  0  0  0  0  0  0  0
  187.9980  177.8780  149.2180 Cl  0  0  0  0  0  0  0  0  0  0  0  0
  190.4210  177.5570  143.3530 N   0  0  0  0  0  0  0  0  0  0  0  0
  189.4180  177.7260  145.4570 C   0  0  0  0  0  0  0  0  0  0  0  0
  193.9030  175.4250  135.0600 O   0  0  0  0  0  0  0  0  0  0  0  0
  193.0870  174.6620  136.0940 S   0  0  1  0  0  0  0  0  0  0  0  0
  194.5270  173.7050  137.3100 S   0  0  0  0  0  0  0  0  0  0  0  0
  195.8960  174.5040  136.4280 C   0  0  0  0  0  1  0  0  0  0  0  0
  1 20  2  0  0  0  0
  1 10  1  0  0  0  0
  2 27  1  0  0  0  0
  3  4  1  0  0  0  0
  4 21  2  0  0  0  0
  5  6  1  0  0  0  0
  6 18  1  0  0  0  0
  7 24  1  0  0  0  0
  8 12  2  0  0  0  0
  9 15  1  0  0  0  0
  9 26  1  0  0  0  0
 11 13  1  0  0  0  0
 11  3  2  0  0  0  0
 12  2  1  0  0  0  0
 12 13  1  0  0  0  0
 13 22  2  0  0  0  0
 14 22  1  6  0  0  0
 14 28  1  0  0  0  0
 16 19  1  0  0  0  0
 17 10  1  6  0  0  0
 17  7  1  0  0  0  0
 17  8  1  0  0  0  0
 18 15  2  0  0  0  0
 19  7  1  0  0  0  0
 20 16  1  0  0  0  0
 22 21  1  0  0  0  0
 23  9  2  0  0  0  0
 24  2  2  0  0  0  0
 25  5  2  0  0  0  0
 27 14  1  0  0  0  0
 27  5  1  0  0  0  0
 28  6  2  0  0  0  0
 28 23  1  0  0  0  0
 30 29  2  6  0  0  0
 30 20  1  0  0  0  0
 30 31  1  0  0  0  0
 32 31  1  0  0  0  0
M  END
>  <MODEL>
6

>  <REMARK>
 VINA RESULT:      -7.9      6.132      8.472
  Name = 
  2 active torsions:
  status: ('A' for Active; 'I' for Inactive)
    1  A    between atoms: S_1  and  S_20
    2  A    between atoms: S_20  and  C_24
                            x       y       z     vdW  Elec       q    Type
                         _______ _______ _______ _____ _____    ______ ____

>  <TORSDO>
F 2

$$$$
=
 OpenBabel11052416483D

 32 37  0  0  1  0  0  0  0  0999 V2000
  183.0210  178.9040  142.3390 N   0  0  0  0  0  2  0  0  0  0  0  0
  187.5320  177.9130  139.9470 C   0  0  0  0  0  0  0  0  0  0  0  0
  190.5900  177.5640  143.8540 C   0  0  0  0  0  3  0  0  0  0  0  0
  191.6770  177.4140  142.9940 C   0  0  0  0  0  3  0  0  0  0  0  0
  188.6330  176.5300  138.1450 C   0  0  0  0  0  0  0  0  0  0  0  0
  189.9700  176.0490  137.9180 C   0  0  0  0  0  0  0  0  0  0  0  0
  185.2680  178.6460  140.2350 N   0  0  0  0  0  0  0  0  0  0  0  0
  186.6880  178.2530  142.2110 C   0  0  0  0  0  3  0  0  0  0  0  0
  192.6930  175.5600  137.8400 C   0  0  0  0  0  0  0  0  0  0  0  0
  184.4240  179.2730  142.4760 C   0  0  0  0  0  2  0  0  0  0  0  0
  189.3110  177.7610  143.3340 C   0  0  0  0  0  3  0  0  0  0  0  0
  187.7320  178.0070  141.4060 C   0  0  0  0  0  0  0  0  0  0  0  0
  189.0990  177.8040  141.9450 C   0  0  0  0  0  0  0  0  0  0  0  0
  190.0420  177.7710  139.5650 C   0  0  2  0  0  3  0  0  0  0  0  0
  191.8210  174.8350  137.0050 C   0  0  0  0  0  3  0  0  0  0  0  0
  182.8580  178.9100  139.8970 C   0  0  0  0  0  3  0  0  0  0  0  0
  185.2870  178.3160  141.6690 C   0  0  1  0  0  3  0  0  0  0  0  0
  190.4390  175.0800  137.0340 C   0  0  0  0  0  3  0  0  0  0  0  0
  184.2220  179.4780  139.6500 C   0  0  0  0  0  2  0  0  0  0  0  0
  182.3190  178.6900  141.1020 C   0  0  0  0  0  0  0  0  0  0  0  0
  191.4830  177.4550  141.6110 C   0  0  0  0  0  3  0  0  0  0  0  0
  190.2000  177.6220  141.0680 C   0  0  0  0  0  0  0  0  0  0  0  0
  192.1900  176.5350  138.7180 C   0  0  0  0  0  3  0  0  0  0  0  0
  186.3620  178.2510  139.3990 C   0  0  0  0  0  3  0  0  0  0  0  0
  187.5910  176.0860  137.5940 O   0  0  0  0  0  0  0  0  0  0  0  0
  194.4150  175.2510  137.7780 Cl  0  0  0  0  0  0  0  0  0  0  0  0
  188.6510  177.5550  139.1350 N   0  0  0  0  0  0  0  0  0  0  0  0
  190.8110  176.7500  138.7570 C   0  0  0  0  0  0  0  0  0  0  0  0
  180.1900  178.3650  142.5800 O   0  0  0  0  0  0  0  0  0  0  0  0
  180.6630  178.0620  141.1660 S   0  0  1  0  0  0  0  0  0  0  0  0
  179.5540  179.3780  139.9390 S   0  0  0  0  0  0  0  0  0  0  0  0
  179.6800  180.7200  141.1540 C   0  0  0  0  0  1  0  0  0  0  0  0
  1 10  1  0  0  0  0
  2 12  1  0  0  0  0
  4  3  2  0  0  0  0
  5 27  1  0  0  0  0
  6  5  1  0  0  0  0
  6 28  1  0  0  0  0
  7 17  1  0  0  0  0
  9 23  1  0  0  0  0
 11  3  1  0  0  0  0
 12 13  1  0  0  0  0
 12  8  2  0  0  0  0
 13 11  2  0  0  0  0
 14 28  1  6  0  0  0
 14 22  1  0  0  0  0
 15 18  1  0  0  0  0
 15  9  2  0  0  0  0
 16 20  2  0  0  0  0
 17  8  1  1  0  0  0
 17 10  1  0  0  0  0
 18  6  2  0  0  0  0
 19 16  1  0  0  0  0
 19  7  1  0  0  0  0
 20 30  1  0  0  0  0
 20  1  1  0  0  0  0
 21  4  1  0  0  0  0
 22 21  2  0  0  0  0
 22 13  1  0  0  0  0
 23 28  2  0  0  0  0
 24  2  2  0  0  0  0
 24  7  1  0  0  0  0
 25  5  2  0  0  0  0
 26  9  1  0  0  0  0
 27 14  1  0  0  0  0
 27  2  1  0  0  0  0
 30 29  2  1  0  0  0
 31 32  1  0  0  0  0
 31 30  1  0  0  0  0
M  END
>  <MODEL>
7

>  <REMARK>
 VINA RESULT:      -7.9      3.823      6.237
  Name = 
  2 active torsions:
  status: ('A' for Active; 'I' for Inactive)
    1  A    between atoms: S_1  and  S_20
    2  A    between atoms: S_20  and  C_24
                            x       y       z     vdW  Elec       q    Type
                         _______ _______ _______ _____ _____    ______ ____

>  <TORSDO>
F 2

$$$$
=
 OpenBabel11052416483D

 32 37  0  0  1  0  0  0  0  0999 V2000
  179.8230  178.9930  139.7350 N   0  0  0  0  0  2  0  0  0  0  0  0
  184.9310  178.9430  140.7180 C   0  0  0  0  0  0  0  0  0  0  0  0
  184.9240  177.8900  145.5780 C   0  0  0  0  0  3  0  0  0  0  0  0
  186.3110  178.0310  145.6140 C   0  0  0  0  0  3  0  0  0  0  0  0
  187.1670  178.1190  139.8850 C   0  0  0  0  0  0  0  0  0  0  0  0
  188.4230  177.8070  140.5130 C   0  0  0  0  0  0  0  0  0  0  0  0
  182.8790  179.4170  139.5720 N   0  0  0  0  0  0  0  0  0  0  0  0
  182.8250  178.6650  141.9180 C   0  0  0  0  0  3  0  0  0  0  0  0
  190.6440  177.5530  142.1460 C   0  0  0  0  0  0  0  0  0  0  0  0
  180.7270  179.4210  140.7960 C   0  0  0  0  0  2  0  0  0  0  0  0
  184.2310  178.1110  144.3890 C   0  0  0  0  0  3  0  0  0  0  0  0
  184.1650  178.6970  141.9550 C   0  0  0  0  0  0  0  0  0  0  0  0
  184.9150  178.4710  143.2140 C   0  0  0  0  0  0  0  0  0  0  0  0
  187.1030  179.0820  142.0320 C   0  0  2  0  0  3  0  0  0  0  0  0
  190.6480  176.9890  140.8550 C   0  0  0  0  0  3  0  0  0  0  0  0
  181.1990  179.5750  137.7970 C   0  0  0  0  0  3  0  0  0  0  0  0
  182.0810  178.7530  140.6150 C   0  0  1  0  0  3  0  0  0  0  0  0
  189.5280  177.1170  140.0180 C   0  0  0  0  0  3  0  0  0  0  0  0
  182.2680  180.2850  138.5710 C   0  0  0  0  0  2  0  0  0  0  0  0
  180.0960  179.0330  138.3230 C   0  0  0  0  0  0  0  0  0  0  0  0
  187.0050  178.3900  144.4560 C   0  0  0  0  0  3  0  0  0  0  0  0
  186.3290  178.5880  143.2420 C   0  0  0  0  0  0  0  0  0  0  0  0
  189.5160  178.2480  142.6140 C   0  0  0  0  0  3  0  0  0  0  0  0
  184.3070  179.3160  139.5960 C   0  0  0  0  0  3  0  0  0  0  0  0
  186.8070  177.7460  138.7370 O   0  0  0  0  0  0  0  0  0  0  0  0
  192.0550  177.3960  143.1690 Cl  0  0  0  0  0  0  0  0  0  0  0  0
  186.3550  178.8740  140.7810 N   0  0  0  0  0  0  0  0  0  0  0  0
  188.3990  178.3450  141.7820 C   0  0  0  0  0  0  0  0  0  0  0  0
  179.1430  179.0090  135.8910 O   0  0  0  0  0  0  0  0  0  0  0  0
  178.9310  178.2880  137.2150 S   0  0  1  0  0  0  0  0  0  0  0  0
  179.6850  176.3410  136.8890 S   0  0  0  0  0  0  0  0  0  0  0  0
  179.8100  176.6190  135.1010 C   0  0  0  0  0  1  0  0  0  0  0  0
  1 10  1  0  0  0  0
  2 27  1  0  0  0  0
  2 12  1  0  0  0  0
  3  4  1  0  0  0  0
  5  6  1  0  0  0  0
  5 27  1  0  0  0  0
  6 28  1  0  0  0  0
  7 24  1  0  0  0  0
  7 17  1  0  0  0  0
  8 12  2  0  0  0  0
  9 23  1  0  0  0  0
  9 26  1  0  0  0  0
 11  3  2  0  0  0  0
 12 13  1  0  0  0  0
 13 22  2  0  0  0  0
 13 11  1  0  0  0  0
 14 28  1  6  0  0  0
 14 22  1  0  0  0  0
 15  9  2  0  0  0  0
 16 20  2  0  0  0  0
 16 19  1  0  0  0  0
 17 10  1  1  0  0  0
 17  8  1  0  0  0  0
 18  6  2  0  0  0  0
 18 15  1  0  0  0  0
 19  7  1  0  0  0  0
 20  1  1  0  0  0  0
 21  4  2  0  0  0  0
 22 21  1  0  0  0  0
 24  2  2  0  0  0  0
 25  5  2  0  0  0  0
 27 14  1  0  0  0  0
 28 23  2  0  0  0  0
 30 29  2  6  0  0  0
 30 20  1  0  0  0  0
 31 30  1  0  0  0  0
 32 31  1  0  0  0  0
M  END
>  <MODEL>
8

>  <REMARK>
 VINA RESULT:      -7.3      2.666      4.509
  Name = 
  2 active torsions:
  status: ('A' for Active; 'I' for Inactive)
    1  A    between atoms: S_1  and  S_20
    2  A    between atoms: S_20  and  C_24
                            x       y       z     vdW  Elec       q    Type
                         _______ _______ _______ _____ _____    ______ ____

>  <TORSDO>
F 2

$$$$
