=
 OpenBabel11052417003D

 32 37  0  0  1  0  0  0  0  0999 V2000
  185.7610  177.6630  138.3120 N   0  0  0  0  0  0  0  0  0  0  0  0
  188.1690  178.2070  142.7900 C   0  0  0  0  0  0  0  0  0  0  0  0
  184.3140  178.9070  145.6940 N   0  0  0  0  0  2  0  0  0  0  0  0
  184.8970  178.0430  146.7140 C   0  0  0  0  0  2  0  0  0  0  0  0
  190.4880  177.9940  143.8110 C   0  0  2  0  0  3  0  0  0  0  0  0
  191.1270  177.0310  144.8290 C   0  0  1  0  0  3  0  0  0  0  0  0
  187.9370  178.3390  140.3600 C   0  0  0  0  0  0  0  0  0  0  0  0
  185.9700  178.4390  141.7900 C   0  0  0  0  0  3  0  0  0  0  0  0
  185.5700  178.6470  139.3720 C   0  0  0  0  0  2  0  0  0  0  0  0
  184.6890  178.3720  144.3880 C   0  0  0  0  0  2  0  0  0  0  0  0
  186.7680  178.3210  142.9360 C   0  0  0  0  0  0  0  0  0  0  0  0
  186.1910  178.3240  144.2200 C   0  0  0  0  0  0  0  0  0  0  0  0
  188.4040  178.0700  145.2080 C   0  0  0  0  0  0  0  0  0  0  0  0
  187.9080  178.6500  137.8000 C   0  0  0  0  0  2  0  0  0  0  0  0
  186.5260  178.4380  140.5090 C   0  0  0  0  0  0  0  0  0  0  0  0
  188.6830  178.2560  139.0480 C   0  0  0  0  0  2  0  0  0  0  0  0
  186.8170  177.6600  137.5590 C   0  0  0  0  0  0  0  0  0  0  0  0
  186.4080  178.2410  146.7440 C   0  0  0  0  0  2  0  0  0  0  0  0
  187.0110  178.1840  145.3610 C   0  0  0  0  0  0  0  0  0  0  0  0
  189.3100  177.9460  146.3950 C   0  0  0  0  0  2  0  0  0  0  0  0
  188.7280  178.2140  141.5060 C   0  0  0  0  0  3  0  0  0  0  0  0
  191.1060  179.3750  143.9470 C   0  0  0  0  0  1  0  0  0  0  0  0
  188.9850  178.0800  143.9290 C   0  0  0  0  0  0  0  0  0  0  0  0
  190.3360  176.8400  146.1430 C   0  0  2  0  0  3  0  0  0  0  0  0
  191.2990  176.7410  147.3150 C   0  0  0  0  0  2  0  0  0  0  0  0
  192.0720  175.4380  147.2580 C   0  0  0  0  0  1  0  0  0  0  0  0
  190.6220  175.3090  143.1420 C   0  0  0  0  0  2  0  0  0  0  0  0
  191.3680  175.7090  144.1690 C   0  0  0  0  0  3  0  0  0  0  0  0
  186.9730  176.7120  136.5460 O   0  0  0  0  0  0  0  0  0  0  0  0
  187.2360  175.3430  136.8210 C   0  0  1  0  0  3  0  0  0  0  0  0
  188.1910  174.8090  135.8280 C   0  0  0  0  0  2  0  0  0  0  0  0
  188.6010  175.1880  137.1190 O   0  0  0  0  0  0  0  0  0  0  0  0
  1  9  1  0  0  0  0
  2 11  1  0  0  0  0
  2 23  1  0  0  0  0
  3  4  1  0  0  0  0
  4 18  1  0  0  0  0
  5 23  1  0  0  0  0
  5 22  1  1  0  0  0
  5  6  1  0  0  0  0
  6 28  1  6  0  0  0
  6 24  1  0  0  0  0
  7 15  2  0  0  0  0
  7 21  1  0  0  0  0
  8 11  2  0  0  0  0
  9 15  1  0  0  0  0
 10  3  1  0  0  0  0
 11 12  1  0  0  0  0
 12 10  1  0  0  0  0
 12 19  2  0  0  0  0
 13 19  1  0  0  0  0
 13 20  1  0  0  0  0
 14 16  1  0  0  0  0
 15  8  1  0  0  0  0
 16  7  1  0  0  0  0
 17 14  1  0  0  0  0
 17  1  2  0  0  0  0
 19 18  1  0  0  0  0
 21  2  2  0  0  0  0
 23 13  2  0  0  0  0
 24 20  1  0  0  0  0
 24 25  1  1  0  0  0
 26 25  1  0  0  0  0
 27 28  2  0  0  0  0
 29 17  1  0  0  0  0
 30 29  1  6  0  0  0
 30 32  1  0  0  0  0
 31 30  1  0  0  0  0
 31 32  1  0  0  0  0
M  END
>  <MODEL>
1

>  <REMARK>
 VINA RESULT:     -10.1      0.000      0.000
  Name = 
  4 active torsions:
  status: ('A' for Active; 'I' for Inactive)
    1  A    between atoms: C_1  and  O_10
    2  A    between atoms: C_7  and  C_22
    3  A    between atoms: O_10  and  C_24
    4  A    between atoms: C_11  and  C_32
                            x       y       z     vdW  Elec       q    Type
                         _______ _______ _______ _____ _____    ______ ____

>  <TORSDO>
F 4

$$$$
=
 OpenBabel11052417003D

 32 37  0  0  1  0  0  0  0  0999 V2000
  190.8620  176.0800  137.1850 N   0  0  0  0  0  0  0  0  0  0  0  0
  190.2170  177.5870  142.0280 C   0  0  0  0  0  0  0  0  0  0  0  0
  185.4870  178.7660  141.8780 N   0  0  0  0  0  2  0  0  0  0  0  0
  185.2680  178.1430  143.1770 C   0  0  0  0  0  2  0  0  0  0  0  0
  191.4560  177.6450  144.2480 C   0  0  2  0  0  3  0  0  0  0  0  0
  191.2720  176.9270  145.5980 C   0  0  1  0  0  3  0  0  0  0  0  0
  191.4730  177.2140  139.9640 C   0  0  0  0  0  0  0  0  0  0  0  0
  189.0640  177.5540  139.8930 C   0  0  0  0  0  3  0  0  0  0  0  0
  190.1870  177.2540  137.7240 C   0  0  0  0  0  2  0  0  0  0  0  0
  186.5020  177.9860  141.1740 C   0  0  0  0  0  2  0  0  0  0  0  0
  189.0190  177.6930  141.2860 C   0  0  0  0  0  0  0  0  0  0  0  0
  187.8010  177.9430  141.9470 C   0  0  0  0  0  0  0  0  0  0  0  0
  188.9710  177.9520  144.0850 C   0  0  0  0  0  0  0  0  0  0  0  0
  192.9870  176.9950  137.8880 C   0  0  0  0  0  2  0  0  0  0  0  0
  190.2640  177.3050  139.2220 C   0  0  0  0  0  0  0  0  0  0  0  0
  192.8350  176.8840  139.3970 C   0  0  0  0  0  2  0  0  0  0  0  0
  192.1530  175.9490  137.2260 C   0  0  0  0  0  0  0  0  0  0  0  0
  186.4830  178.3820  144.0670 C   0  0  0  0  0  2  0  0  0  0  0  0
  187.7740  178.0590  143.3540 C   0  0  0  0  0  0  0  0  0  0  0  0
  188.9870  178.0960  145.5770 C   0  0  0  0  0  2  0  0  0  0  0  0
  191.4220  177.3460  141.3550 C   0  0  0  0  0  3  0  0  0  0  0  0
  192.0120  179.0400  144.4760 C   0  0  0  0  0  1  0  0  0  0  0  0
  190.1890  177.7160  143.4280 C   0  0  0  0  0  0  0  0  0  0  0  0
  189.8450  176.9880  146.1890 C   0  0  2  0  0  3  0  0  0  0  0  0
  189.9190  177.1540  147.6980 C   0  0  0  0  0  2  0  0  0  0  0  0
  189.0090  178.2790  148.1520 C   0  0  0  0  0  1  0  0  0  0  0  0
  192.0340  174.9950  144.2720 C   0  0  0  0  0  2  0  0  0  0  0  0
  191.7190  175.5050  145.4600 C   0  0  0  0  0  3  0  0  0  0  0  0
  192.7780  174.8200  136.6950 O   0  0  0  0  0  0  0  0  0  0  0  0
  193.3230  173.7980  137.5170 C   0  0  1  0  0  3  0  0  0  0  0  0
  194.3890  173.0830  136.7840 C   0  0  0  0  0  2  0  0  0  0  0  0
  194.6850  174.0670  137.7430 O   0  0  0  0  0  0  0  0  0  0  0  0
  1 17  2  0  0  0  0
  1  9  1  0  0  0  0
  2 23  1  0  0  0  0
  3  4  1  0  0  0  0
  4 18  1  0  0  0  0
  5 22  1  1  0  0  0
  5  6  1  0  0  0  0
  6 28  1  6  0  0  0
  6 24  1  0  0  0  0
  7 21  1  0  0  0  0
  8 11  2  0  0  0  0
  9 15  1  0  0  0  0
 10  3  1  0  0  0  0
 10 12  1  0  0  0  0
 11 12  1  0  0  0  0
 11  2  1  0  0  0  0
 12 19  2  0  0  0  0
 13 20  1  0  0  0  0
 14 16  1  0  0  0  0
 15  8  1  0  0  0  0
 15  7  2  0  0  0  0
 16  7  1  0  0  0  0
 17 14  1  0  0  0  0
 19 18  1  0  0  0  0
 19 13  1  0  0  0  0
 20 24  1  0  0  0  0
 21  2  2  0  0  0  0
 23 13  2  0  0  0  0
 23  5  1  0  0  0  0
 24 25  1  1  0  0  0
 25 26  1  0  0  0  0
 27 28  2  0  0  0  0
 29 17  1  0  0  0  0
 30 29  1  6  0  0  0
 30 32  1  0  0  0  0
 31 30  1  0  0  0  0
 31 32  1  0  0  0  0
M  END
>  <MODEL>
2

>  <REMARK>
 VINA RESULT:      -8.6      2.951      3.770
  Name = 
  4 active torsions:
  status: ('A' for Active; 'I' for Inactive)
    1  A    between atoms: C_1  and  O_10
    2  A    between atoms: C_7  and  C_22
    3  A    between atoms: O_10  and  C_24
    4  A    between atoms: C_11  and  C_32
                            x       y       z     vdW  Elec       q    Type
                         _______ _______ _______ _____ _____    ______ ____

>  <TORSDO>
F 4

$$$$
=
 OpenBabel11052417003D

 32 37  0  0  1  0  0  0  0  0999 V2000
  183.1150  178.4620  142.3060 N   0  0  0  0  0  0  0  0  0  0  0  0
  187.7420  178.0340  140.1730 C   0  0  0  0  0  0  0  0  0  0  0  0
  190.4970  178.1860  144.1940 N   0  0  0  0  0  2  0  0  0  0  0  0
  191.3490  177.1220  143.6790 C   0  0  0  0  0  2  0  0  0  0  0  0
  188.8320  177.5770  137.9210 C   0  0  2  0  0  3  0  0  0  0  0  0
  189.6660  176.4150  137.3490 C   0  0  1  0  0  3  0  0  0  0  0  0
  185.3830  178.6670  140.2560 C   0  0  0  0  0  0  0  0  0  0  0  0
  186.6850  178.5030  142.3060 C   0  0  0  0  0  3  0  0  0  0  0  0
  184.3420  179.2110  142.5570 C   0  0  0  0  0  2  0  0  0  0  0  0
  189.1330  177.9260  143.7430 C   0  0  0  0  0  2  0  0  0  0  0  0
  187.8260  178.1390  141.5790 C   0  0  0  0  0  0  0  0  0  0  0  0
  189.0480  177.8880  142.2340 C   0  0  0  0  0  0  0  0  0  0  0  0
  190.0900  177.3990  140.0860 C   0  0  0  0  0  0  0  0  0  0  0  0
  182.9450  179.4970  140.1270 C   0  0  0  0  0  2  0  0  0  0  0  0
  185.4650  178.7560  141.6730 C   0  0  0  0  0  0  0  0  0  0  0  0
  184.1280  178.8420  139.4310 C   0  0  0  0  0  2  0  0  0  0  0  0
  182.4410  178.5960  141.2050 C   0  0  0  0  0  0  0  0  0  0  0  0
  191.5080  177.2850  142.1710 C   0  0  0  0  0  2  0  0  0  0  0  0
  190.1810  177.5020  141.4850 C   0  0  0  0  0  0  0  0  0  0  0  0
  191.2770  177.0190  139.2540 C   0  0  0  0  0  2  0  0  0  0  0  0
  186.5230  178.2960  139.5360 C   0  0  0  0  0  3  0  0  0  0  0  0
  189.2860  178.8900  137.3070 C   0  0  0  0  0  1  0  0  0  0  0  0
  188.8770  177.6630  139.4280 C   0  0  0  0  0  0  0  0  0  0  0  0
  190.8640  175.9710  138.2200 C   0  0  2  0  0  3  0  0  0  0  0  0
  192.0450  175.6170  137.3300 C   0  0  0  0  0  2  0  0  0  0  0  0
  193.2390  176.4910  137.6620 C   0  0  0  0  0  1  0  0  0  0  0  0
  187.4470  175.4180  136.9630 C   0  0  0  0  0  2  0  0  0  0  0  0
  188.7630  175.2530  137.0740 C   0  0  0  0  0  3  0  0  0  0  0  0
  181.2650  177.8750  140.9910 O   0  0  0  0  0  0  0  0  0  0  0  0
  179.9890  178.3780  141.3610 C   0  0  1  0  0  3  0  0  0  0  0  0
  178.9310  177.5010  140.8200 C   0  0  0  0  0  2  0  0  0  0  0  0
  179.3340  177.4280  142.1650 O   0  0  0  0  0  0  0  0  0  0  0  0
  1  9  1  0  0  0  0
  2 11  1  0  0  0  0
  4  3  1  0  0  0  0
  5 22  1  6  0  0  0
  5 23  1  0  0  0  0
  6 28  1  1  0  0  0
  6  5  1  0  0  0  0
  6 24  1  0  0  0  0
  7 15  1  0  0  0  0
 10  3  1  0  0  0  0
 11 12  2  0  0  0  0
 11  8  1  0  0  0  0
 12 10  1  0  0  0  0
 13 19  2  0  0  0  0
 14 17  1  0  0  0  0
 15  8  2  0  0  0  0
 15  9  1  0  0  0  0
 16 14  1  0  0  0  0
 16  7  1  0  0  0  0
 17  1  2  0  0  0  0
 18  4  1  0  0  0  0
 19 18  1  0  0  0  0
 19 12  1  0  0  0  0
 20 13  1  0  0  0  0
 21  2  1  0  0  0  0
 21  7  2  0  0  0  0
 23 13  1  0  0  0  0
 23  2  2  0  0  0  0
 24 25  1  6  0  0  0
 24 20  1  0  0  0  0
 25 26  1  0  0  0  0
 27 28  2  0  0  0  0
 29 17  1  0  0  0  0
 30 29  1  6  0  0  0
 30 32  1  0  0  0  0
 31 30  1  0  0  0  0
 31 32  1  0  0  0  0
M  END
>  <MODEL>
3

>  <REMARK>
 VINA RESULT:      -8.1      3.517      6.456
  Name = 
  4 active torsions:
  status: ('A' for Active; 'I' for Inactive)
    1  A    between atoms: C_1  and  O_10
    2  A    between atoms: C_7  and  C_22
    3  A    between atoms: O_10  and  C_24
    4  A    between atoms: C_11  and  C_32
                            x       y       z     vdW  Elec       q    Type
                         _______ _______ _______ _____ _____    ______ ____

>  <TORSDO>
F 4

$$$$
