=
 OpenBabel11052413373D

 28 31  0  0  1  0  0  0  0  0999 V2000
  186.5140  177.3520  145.7500 C   0  0  1  0  0  3  0  0  0  0  0  0
  187.7400  177.5610  144.8880 C   0  0  1  0  0  3  0  0  0  0  0  0
  187.8860  176.8560  146.2230 C   0  0  1  0  0  3  0  0  0  0  0  0
  189.9840  177.2230  147.4960 C   0  0  0  0  0  1  0  0  0  0  0  0
  188.6040  177.7750  147.2030 C   0  0  0  0  0  2  0  0  0  0  0  0
  186.0730  178.6870  146.3360 C   0  0  0  0  0  2  0  0  0  0  0  0
  185.6890  179.5630  145.2850 O   0  0  0  0  0  0  0  0  0  0  0  0
  183.9300  178.8600  142.1150 C   0  0  0  0  0  3  0  0  0  0  0  0
  184.6540  179.2650  144.3960 C   0  0  0  0  0  0  0  0  0  0  0  0
  182.3220  178.7700  143.9220 C   0  0  0  0  0  0  0  0  0  0  0  0
  184.9430  179.1590  143.0300 C   0  0  0  0  0  3  0  0  0  0  0  0
  183.3350  179.0690  144.8380 C   0  0  0  0  0  3  0  0  0  0  0  0
  181.0520  178.5810  144.3550 F   0  0  0  0  0  0  0  0  0  0  0  0
  182.6190  178.6660  142.5600 C   0  0  0  0  0  3  0  0  0  0  0  0
  187.7540  176.5240  143.7730 C   0  0  0  0  0  2  0  0  0  0  0  0
  188.9780  177.5350  141.7290 C   0  0  2  0  0  0  0  0  0  0  0  0
  190.8420  178.1750  143.0970 N   0  0  0  0  0  0  0  0  0  0  0  0
  189.8670  178.6850  142.1400 C   0  0  0  0  0  2  0  0  0  0  0  0
  191.0030  179.1970  144.1150 C   0  0  0  0  0  1  0  0  0  0  0  0
  190.2310  177.0150  143.7420 C   0  0  2  0  0  3  0  0  0  0  0  0
  191.2360  175.8800  143.8120 C   0  0  0  0  0  1  0  0  0  0  0  0
  187.6890  178.0010  141.4550 O   0  0  0  0  0  1  0  0  0  0  0  0
  189.0280  176.5810  142.9180 C   0  0  1  0  0  3  0  0  0  0  0  0
  189.5650  176.8690  140.4890 C   0  0  0  0  0  2  0  0  0  0  0  0
  188.8110  177.2320  139.2990 N   0  0  0  0  0  0  0  0  0  0  0  0
  189.4500  176.5420  138.1690 C   0  0  0  0  0  2  0  0  0  0  0  0
  189.7430  177.9470  138.4160 C   0  0  1  0  0  3  0  0  0  0  0  0
  188.9490  178.8070  137.4570 C   0  0  0  0  0  1  0  0  0  0  0  0
  1  3  1  0  0  0  0
  1  6  1  1  0  0  0
  2 15  1  6  0  0  0
  2  1  1  0  0  0  0
  2  3  1  0  0  0  0
  3  5  1  1  0  0  0
  5  4  1  0  0  0  0
  7  6  1  0  0  0  0
  8 14  2  0  0  0  0
  8 11  1  0  0  0  0
  9 12  1  0  0  0  0
  9  7  1  0  0  0  0
 10 13  1  0  0  0  0
 10 12  2  0  0  0  0
 11  9  2  0  0  0  0
 14 10  1  0  0  0  0
 16 22  1  6  0  0  0
 16 18  1  0  0  0  0
 16 23  1  0  0  0  0
 17 20  1  0  0  0  0
 17 19  1  0  0  0  0
 18 17  1  0  0  0  0
 20 21  1  6  0  0  0
 23 20  1  0  0  0  0
 23 15  1  1  0  0  0
 24 16  1  0  0  0  0
 25 24  1  0  0  0  0
 26 27  1  0  0  0  0
 26 25  1  0  0  0  0
 27 28  1  6  0  0  0
 27 25  1  0  0  0  0
M  END
>  <MODEL>
1

>  <REMARK>
 VINA RESULT:      -8.0      0.000      0.000
  Name = 
  8 active torsions:
  status: ('A' for Active; 'I' for Inactive)
    1  A    between atoms: C_1  and  C_11
    2  A    between atoms: N_6  and  C_11
    3  A    between atoms: C_9  and  O_18
    4  A    between atoms: C_10  and  C_14
    5  A    between atoms: C_14  and  O_18
    6  A    between atoms: C_17  and  C_19
    7  A    between atoms: C_19  and  C_27
    8  A    between atoms: C_20  and  C_25
                            x       y       z     vdW  Elec       q    Type
                         _______ _______ _______ _____ _____    ______ ____

>  <TORSDO>
F 8

$$$$
=
 OpenBabel11052413373D

 28 31  0  0  1  0  0  0  0  0999 V2000
  186.4360  177.4970  145.6020 C   0  0  1  0  0  3  0  0  0  0  0  0
  187.7610  177.5810  144.8770 C   0  0  1  0  0  3  0  0  0  0  0  0
  187.7110  176.9540  146.2570 C   0  0  1  0  0  3  0  0  0  0  0  0
  189.7560  177.3690  147.6000 C   0  0  0  0  0  1  0  0  0  0  0  0
  188.3740  177.8890  147.2600 C   0  0  0  0  0  2  0  0  0  0  0  0
  186.0200  178.8900  146.0580 C   0  0  0  0  0  2  0  0  0  0  0  0
  184.6200  179.0520  145.8740 O   0  0  0  0  0  0  0  0  0  0  0  0
  181.9810  178.7880  143.3030 C   0  0  0  0  0  3  0  0  0  0  0  0
  184.0120  178.9800  144.6180 C   0  0  0  0  0  0  0  0  0  0  0  0
  184.1240  178.9520  142.1900 C   0  0  0  0  0  0  0  0  0  0  0  0
  182.6190  178.8610  144.5450 C   0  0  0  0  0  3  0  0  0  0  0  0
  184.7630  179.0250  143.4310 C   0  0  0  0  0  3  0  0  0  0  0  0
  184.8540  178.9960  141.0500 F   0  0  0  0  0  0  0  0  0  0  0  0
  182.7330  178.8330  142.1260 C   0  0  0  0  0  3  0  0  0  0  0  0
  187.8320  176.4770  143.8300 C   0  0  0  0  0  2  0  0  0  0  0  0
  189.0170  177.5090  141.7740 C   0  0  2  0  0  0  0  0  0  0  0  0
  190.8850  178.1780  143.1220 N   0  0  0  0  0  0  0  0  0  0  0  0
  189.8910  178.6730  142.1770 C   0  0  0  0  0  2  0  0  0  0  0  0
  191.0400  179.2020  144.1400 C   0  0  0  0  0  1  0  0  0  0  0  0
  190.3000  177.0080  143.7730 C   0  0  2  0  0  3  0  0  0  0  0  0
  191.3240  175.8900  143.8300 C   0  0  0  0  0  1  0  0  0  0  0  0
  187.7180  177.9540  141.5140 O   0  0  0  0  0  1  0  0  0  0  0  0
  189.0950  176.5550  142.9620 C   0  0  1  0  0  3  0  0  0  0  0  0
  189.6020  176.8530  140.5270 C   0  0  0  0  0  2  0  0  0  0  0  0
  188.8400  177.2210  139.3430 N   0  0  0  0  0  0  0  0  0  0  0  0
  189.4640  176.5250  138.2090 C   0  0  0  0  0  2  0  0  0  0  0  0
  189.7700  177.9280  138.4510 C   0  0  1  0  0  3  0  0  0  0  0  0
  188.9750  178.7930  137.4970 C   0  0  0  0  0  1  0  0  0  0  0  0
  1  6  1  1  0  0  0
  1  3  1  0  0  0  0
  2 15  1  6  0  0  0
  2  1  1  0  0  0  0
  2  3  1  0  0  0  0
  3  5  1  1  0  0  0
  5  4  1  0  0  0  0
  7  6  1  0  0  0  0
  8 11  1  0  0  0  0
  9  7  1  0  0  0  0
 10 12  2  0  0  0  0
 11  9  2  0  0  0  0
 12  9  1  0  0  0  0
 13 10  1  0  0  0  0
 14 10  1  0  0  0  0
 14  8  2  0  0  0  0
 16 22  1  6  0  0  0
 16 18  1  0  0  0  0
 16 23  1  0  0  0  0
 17 20  1  0  0  0  0
 17 19  1  0  0  0  0
 18 17  1  0  0  0  0
 20 21  1  6  0  0  0
 23 20  1  0  0  0  0
 23 15  1  1  0  0  0
 24 16  1  0  0  0  0
 25 24  1  0  0  0  0
 26 27  1  0  0  0  0
 26 25  1  0  0  0  0
 27 28  1  6  0  0  0
 27 25  1  0  0  0  0
M  END
>  <MODEL>
2

>  <REMARK>
 VINA RESULT:      -7.8      1.031      1.360
  Name = 
  8 active torsions:
  status: ('A' for Active; 'I' for Inactive)
    1  A    between atoms: C_1  and  C_11
    2  A    between atoms: N_6  and  C_11
    3  A    between atoms: C_9  and  O_18
    4  A    between atoms: C_10  and  C_14
    5  A    between atoms: C_14  and  O_18
    6  A    between atoms: C_17  and  C_19
    7  A    between atoms: C_19  and  C_27
    8  A    between atoms: C_20  and  C_25
                            x       y       z     vdW  Elec       q    Type
                         _______ _______ _______ _____ _____    ______ ____

>  <TORSDO>
F 8

$$$$
=
 OpenBabel11052413373D

 28 31  0  0  1  0  0  0  0  0999 V2000
  184.7540  179.2930  143.5230 C   0  0  1  0  0  3  0  0  0  0  0  0
  184.1440  178.2050  142.6680 C   0  0  1  0  0  3  0  0  0  0  0  0
  183.2590  179.3230  143.1870 C   0  0  1  0  0  3  0  0  0  0  0  0
  180.9290  178.6630  143.7310 C   0  0  0  0  0  1  0  0  0  0  0  0
  182.3400  178.7760  144.2730 C   0  0  0  0  0  2  0  0  0  0  0  0
  185.0960  178.7260  144.8950 C   0  0  0  0  0  2  0  0  0  0  0  0
  186.1230  177.7520  144.7640 O   0  0  0  0  0  0  0  0  0  0  0  0
  189.5640  177.2130  145.9930 C   0  0  0  0  0  3  0  0  0  0  0  0
  187.2080  177.6790  145.6410 C   0  0  0  0  0  0  0  0  0  0  0  0
  188.1810  177.9010  147.8570 C   0  0  0  0  0  0  0  0  0  0  0  0
  188.4580  177.2940  145.1410 C   0  0  0  0  0  3  0  0  0  0  0  0
  187.0750  177.9830  147.0060 C   0  0  0  0  0  3  0  0  0  0  0  0
  188.0470  178.1960  149.1720 F   0  0  0  0  0  0  0  0  0  0  0  0
  189.4260  177.5160  147.3500 C   0  0  0  0  0  3  0  0  0  0  0  0
  184.4740  178.4710  141.2050 C   0  0  0  0  0  2  0  0  0  0  0  0
  183.2740  179.3400  139.0830 C   0  0  2  0  0  0  0  0  0  0  0  0
  182.9740  177.1020  138.2730 N   0  0  0  0  0  0  0  0  0  0  0  0
  183.5000  178.4130  137.9120 C   0  0  0  0  0  2  0  0  0  0  0  0
  183.9050  176.1190  137.7460 C   0  0  0  0  0  1  0  0  0  0  0  0
  183.0320  177.0130  139.7310 C   0  0  2  0  0  3  0  0  0  0  0  0
  181.7310  176.4410  140.2600 C   0  0  0  0  0  1  0  0  0  0  0  0
  184.3000  180.2870  139.1490 O   0  0  0  0  0  1  0  0  0  0  0  0
  183.2410  178.4110  140.2930 C   0  0  1  0  0  3  0  0  0  0  0  0
  181.9290  180.0400  138.9140 C   0  0  0  0  0  2  0  0  0  0  0  0
  181.0790  179.8150  140.0720 N   0  0  0  0  0  0  0  0  0  0  0  0
  179.7530  179.4460  139.5560 C   0  0  0  0  0  2  0  0  0  0  0  0
  180.0010  180.8110  140.0000 C   0  0  1  0  0  3  0  0  0  0  0  0
  179.4190  181.0090  141.3820 C   0  0  0  0  0  1  0  0  0  0  0  0
  1  6  1  1  0  0  0
  2 15  1  6  0  0  0
  2  3  1  0  0  0  0
  2  1  1  0  0  0  0
  3  1  1  0  0  0  0
  3  5  1  1  0  0  0
  4  5  1  0  0  0  0
  7  6  1  0  0  0  0
  7  9  1  0  0  0  0
  8 14  1  0  0  0  0
  9 12  2  0  0  0  0
 10 13  1  0  0  0  0
 11  9  1  0  0  0  0
 11  8  2  0  0  0  0
 12 10  1  0  0  0  0
 14 10  2  0  0  0  0
 16 22  1  1  0  0  0
 16 23  1  0  0  0  0
 17 20  1  0  0  0  0
 18 17  1  0  0  0  0
 18 16  1  0  0  0  0
 19 17  1  0  0  0  0
 20 21  1  1  0  0  0
 20 23  1  0  0  0  0
 23 15  1  6  0  0  0
 24 16  1  0  0  0  0
 24 25  1  0  0  0  0
 26 27  1  0  0  0  0
 26 25  1  0  0  0  0
 27 25  1  0  0  0  0
 27 28  1  1  0  0  0
M  END
>  <MODEL>
3

>  <REMARK>
 VINA RESULT:      -7.3      3.775      7.367
  Name = 
  8 active torsions:
  status: ('A' for Active; 'I' for Inactive)
    1  A    between atoms: C_1  and  C_11
    2  A    between atoms: N_6  and  C_11
    3  A    between atoms: C_9  and  O_18
    4  A    between atoms: C_10  and  C_14
    5  A    between atoms: C_14  and  O_18
    6  A    between atoms: C_17  and  C_19
    7  A    between atoms: C_19  and  C_27
    8  A    between atoms: C_20  and  C_25
                            x       y       z     vdW  Elec       q    Type
                         _______ _______ _______ _____ _____    ______ ____

>  <TORSDO>
F 8

$$$$
=
 OpenBabel11052413373D

 28 31  0  0  1  0  0  0  0  0999 V2000
  184.7340  179.3570  143.4780 C   0  0  1  0  0  3  0  0  0  0  0  0
  184.1780  178.2300  142.6350 C   0  0  1  0  0  3  0  0  0  0  0  0
  183.2360  179.3000  143.1530 C   0  0  1  0  0  3  0  0  0  0  0  0
  180.9250  178.6330  143.7620 C   0  0  0  0  0  1  0  0  0  0  0  0
  182.3580  178.7110  144.2500 C   0  0  0  0  0  2  0  0  0  0  0  0
  185.1180  178.8200  144.8510 C   0  0  0  0  0  2  0  0  0  0  0  0
  186.2680  177.9930  144.7330 O   0  0  0  0  0  0  0  0  0  0  0  0
  187.7320  178.0630  148.1230 C   0  0  0  0  0  3  0  0  0  0  0  0
  187.1960  177.8440  145.7660 C   0  0  0  0  0  0  0  0  0  0  0  0
  189.3930  177.2040  146.5860 C   0  0  0  0  0  0  0  0  0  0  0  0
  186.8260  178.2020  147.0670 C   0  0  0  0  0  3  0  0  0  0  0  0
  188.4880  177.3420  145.5300 C   0  0  0  0  0  3  0  0  0  0  0  0
  190.6360  176.7190  146.3520 F   0  0  0  0  0  0  0  0  0  0  0  0
  189.0160  177.5640  147.8820 C   0  0  0  0  0  3  0  0  0  0  0  0
  184.4820  178.5030  141.1680 C   0  0  0  0  0  2  0  0  0  0  0  0
  183.2170  179.3500  139.0740 C   0  0  2  0  0  0  0  0  0  0  0  0
  183.0010  177.1130  138.2360 N   0  0  0  0  0  0  0  0  0  0  0  0
  183.4650  178.4500  137.8870 C   0  0  0  0  0  2  0  0  0  0  0  0
  183.9640  176.1780  137.6820 C   0  0  0  0  0  1  0  0  0  0  0  0
  183.0830  177.0060  139.6910 C   0  0  2  0  0  3  0  0  0  0  0  0
  181.8140  176.3720  140.2290 C   0  0  0  0  0  1  0  0  0  0  0  0
  184.2030  180.3390  139.1400 O   0  0  0  0  0  1  0  0  0  0  0  0
  183.2400  178.4040  140.2710 C   0  0  1  0  0  3  0  0  0  0  0  0
  181.8420  179.9950  138.9340 C   0  0  0  0  0  2  0  0  0  0  0  0
  181.0500  179.7930  140.1370 N   0  0  0  0  0  0  0  0  0  0  0  0
  179.7180  179.3560  139.6950 C   0  0  0  0  0  2  0  0  0  0  0  0
  179.9340  180.7470  140.0670 C   0  0  1  0  0  3  0  0  0  0  0  0
  179.4040  180.9870  141.4640 C   0  0  0  0  0  1  0  0  0  0  0  0
  1  6  1  1  0  0  0
  2 15  1  6  0  0  0
  2  3  1  0  0  0  0
  2  1  1  0  0  0  0
  3  1  1  0  0  0  0
  3  5  1  1  0  0  0
  4  5  1  0  0  0  0
  7  6  1  0  0  0  0
  7  9  1  0  0  0  0
  9 11  1  0  0  0  0
 10 14  2  0  0  0  0
 11  8  2  0  0  0  0
 12  9  2  0  0  0  0
 12 10  1  0  0  0  0
 13 10  1  0  0  0  0
 14  8  1  0  0  0  0
 16 22  1  1  0  0  0
 16 23  1  0  0  0  0
 17 20  1  0  0  0  0
 18 17  1  0  0  0  0
 18 16  1  0  0  0  0
 19 17  1  0  0  0  0
 20 21  1  1  0  0  0
 20 23  1  0  0  0  0
 23 15  1  6  0  0  0
 24 16  1  0  0  0  0
 24 25  1  0  0  0  0
 26 27  1  0  0  0  0
 26 25  1  0  0  0  0
 27 25  1  0  0  0  0
 27 28  1  1  0  0  0
M  END
>  <MODEL>
4

>  <REMARK>
 VINA RESULT:      -7.3      3.975      7.492
  Name = 
  8 active torsions:
  status: ('A' for Active; 'I' for Inactive)
    1  A    between atoms: C_1  and  C_11
    2  A    between atoms: N_6  and  C_11
    3  A    between atoms: C_9  and  O_18
    4  A    between atoms: C_10  and  C_14
    5  A    between atoms: C_14  and  O_18
    6  A    between atoms: C_17  and  C_19
    7  A    between atoms: C_19  and  C_27
    8  A    between atoms: C_20  and  C_25
                            x       y       z     vdW  Elec       q    Type
                         _______ _______ _______ _____ _____    ______ ____

>  <TORSDO>
F 8

$$$$
=
 OpenBabel11052413373D

 28 31  0  0  1  0  0  0  0  0999 V2000
  186.0500  178.4370  142.9600 C   0  0  1  0  0  3  0  0  0  0  0  0
  184.7030  178.2100  142.3110 C   0  0  1  0  0  3  0  0  0  0  0  0
  184.8590  179.3320  143.3190 C   0  0  1  0  0  3  0  0  0  0  0  0
  182.6490  178.8260  144.3280 C   0  0  0  0  0  1  0  0  0  0  0  0
  184.1330  178.9590  144.6060 C   0  0  0  0  0  2  0  0  0  0  0  0
  186.3330  177.3120  143.9470 C   0  0  0  0  0  2  0  0  0  0  0  0
  187.6960  177.3620  144.3470 O   0  0  0  0  0  0  0  0  0  0  0  0
  187.5170  178.1870  147.9430 C   0  0  0  0  0  3  0  0  0  0  0  0
  188.0840  177.5150  145.6800 C   0  0  0  0  0  0  0  0  0  0  0  0
  189.7310  177.3370  147.4590 C   0  0  0  0  0  0  0  0  0  0  0  0
  187.1600  178.0240  146.6010 C   0  0  0  0  0  3  0  0  0  0  0  0
  189.3750  177.1720  146.1170 C   0  0  0  0  0  3  0  0  0  0  0  0
  190.9770  177.0030  147.8730 F   0  0  0  0  0  0  0  0  0  0  0  0
  188.8030  177.8440  148.3710 C   0  0  0  0  0  3  0  0  0  0  0  0
  184.7160  178.7980  140.9060 C   0  0  0  0  0  2  0  0  0  0  0  0
  183.1530  179.5850  138.9990 C   0  0  2  0  0  0  0  0  0  0  0  0
  182.9190  177.3380  138.1930 N   0  0  0  0  0  0  0  0  0  0  0  0
  183.2790  178.6910  137.7880 C   0  0  0  0  0  2  0  0  0  0  0  0
  183.8390  176.4400  137.5160 C   0  0  0  0  0  1  0  0  0  0  0  0
  183.1960  177.2400  139.6250 C   0  0  2  0  0  3  0  0  0  0  0  0
  182.0370  176.5570  140.3250 C   0  0  0  0  0  1  0  0  0  0  0  0
  184.0990  180.6130  138.9360 O   0  0  0  0  0  1  0  0  0  0  0  0
  183.3720  178.6450  140.1800 C   0  0  1  0  0  3  0  0  0  0  0  0
  181.7470  180.1730  139.0420 C   0  0  0  0  0  2  0  0  0  0  0  0
  181.5950  181.2250  138.0490 N   0  0  0  0  0  0  0  0  0  0  0  0
  180.3360  181.9180  138.3590 C   0  0  0  0  0  2  0  0  0  0  0  0
  180.3670  180.9190  137.3010 C   0  0  1  0  0  3  0  0  0  0  0  0
  180.4260  181.6070  135.9540 C   0  0  0  0  0  1  0  0  0  0  0  0
  1  3  1  0  0  0  0
  1  6  1  1  0  0  0
  2 15  1  6  0  0  0
  2  1  1  0  0  0  0
  2  3  1  0  0  0  0
  3  5  1  1  0  0  0
  4  5  1  0  0  0  0
  6  7  1  0  0  0  0
  7  9  1  0  0  0  0
  8 14  1  0  0  0  0
  9 12  2  0  0  0  0
  9 11  1  0  0  0  0
 10 13  1  0  0  0  0
 10 14  2  0  0  0  0
 11  8  2  0  0  0  0
 12 10  1  0  0  0  0
 16 22  1  6  0  0  0
 16 24  1  0  0  0  0
 16 23  1  0  0  0  0
 17 20  1  0  0  0  0
 18 17  1  0  0  0  0
 18 16  1  0  0  0  0
 19 17  1  0  0  0  0
 20 23  1  0  0  0  0
 20 21  1  1  0  0  0
 23 15  1  6  0  0  0
 25 26  1  0  0  0  0
 25 24  1  0  0  0  0
 27 28  1  6  0  0  0
 27 25  1  0  0  0  0
 27 26  1  0  0  0  0
M  END
>  <MODEL>
5

>  <REMARK>
 VINA RESULT:      -7.1      4.200      7.396
  Name = 
  8 active torsions:
  status: ('A' for Active; 'I' for Inactive)
    1  A    between atoms: C_1  and  C_11
    2  A    between atoms: N_6  and  C_11
    3  A    between atoms: C_9  and  O_18
    4  A    between atoms: C_10  and  C_14
    5  A    between atoms: C_14  and  O_18
    6  A    between atoms: C_17  and  C_19
    7  A    between atoms: C_19  and  C_27
    8  A    between atoms: C_20  and  C_25
                            x       y       z     vdW  Elec       q    Type
                         _______ _______ _______ _____ _____    ______ ____

>  <TORSDO>
F 8

$$$$
=
 OpenBabel11052413373D

 28 31  0  0  1  0  0  0  0  0999 V2000
  188.1070  178.6670  141.2590 C   0  0  1  0  0  3  0  0  0  0  0  0
  188.6750  177.2750  141.0950 C   0  0  1  0  0  3  0  0  0  0  0  0
  188.9810  178.3270  140.0460 C   0  0  1  0  0  3  0  0  0  0  0  0
  188.9210  178.6360  137.5850 C   0  0  0  0  0  1  0  0  0  0  0  0
  188.2180  178.0020  138.7680 C   0  0  0  0  0  2  0  0  0  0  0  0
  186.6060  178.6350  141.0020 C   0  0  0  0  0  2  0  0  0  0  0  0
  185.9520  177.9900  142.0870 O   0  0  0  0  0  0  0  0  0  0  0  0
  183.1460  179.0150  144.2590 C   0  0  0  0  0  3  0  0  0  0  0  0
  184.6560  178.3220  142.4890 C   0  0  0  0  0  0  0  0  0  0  0  0
  182.2930  178.6490  142.0230 C   0  0  0  0  0  0  0  0  0  0  0  0
  184.4310  178.6760  143.8250 C   0  0  0  0  0  3  0  0  0  0  0  0
  183.5780  178.3100  141.5890 C   0  0  0  0  0  3  0  0  0  0  0  0
  181.2580  178.6360  141.1490 F   0  0  0  0  0  0  0  0  0  0  0  0
  182.0770  179.0010  143.3580 C   0  0  0  0  0  3  0  0  0  0  0  0
  189.8840  177.1150  142.0070 C   0  0  0  0  0  2  0  0  0  0  0  0
  188.7650  177.0200  144.3400 C   0  0  2  0  0  0  0  0  0  0  0  0
  190.8890  177.2720  145.4260 N   0  0  0  0  0  0  0  0  0  0  0  0
  189.7000  176.4300  145.3680 C   0  0  0  0  0  2  0  0  0  0  0  0
  192.0260  176.3810  145.5700 C   0  0  0  0  0  1  0  0  0  0  0  0
  191.0100  177.9190  144.1210 C   0  0  2  0  0  3  0  0  0  0  0  0
  191.3240  179.3910  144.3060 C   0  0  0  0  0  1  0  0  0  0  0  0
  188.0380  176.0020  143.7140 O   0  0  0  0  0  1  0  0  0  0  0  0
  189.6880  177.7680  143.3830 C   0  0  1  0  0  3  0  0  0  0  0  0
  187.8130  177.9920  145.0280 C   0  0  0  0  0  2  0  0  0  0  0  0
  187.3990  177.4800  146.3250 N   0  0  0  0  0  0  0  0  0  0  0  0
  186.4370  178.4480  146.8720 C   0  0  0  0  0  2  0  0  0  0  0  0
  187.8220  178.4750  147.3210 C   0  0  1  0  0  3  0  0  0  0  0  0
  187.9300  177.8030  148.6730 C   0  0  0  0  0  1  0  0  0  0  0  0
  1  6  1  6  0  0  0
  2  1  1  0  0  0  0
  2 15  1  1  0  0  0
  3  5  1  6  0  0  0
  3  2  1  0  0  0  0
  3  1  1  0  0  0  0
  4  5  1  0  0  0  0
  6  7  1  0  0  0  0
  7  9  1  0  0  0  0
  9 11  2  0  0  0  0
 10 14  1  0  0  0  0
 11  8  1  0  0  0  0
 12 10  2  0  0  0  0
 12  9  1  0  0  0  0
 13 10  1  0  0  0  0
 14  8  2  0  0  0  0
 16 22  1  6  0  0  0
 16 24  1  0  0  0  0
 16 18  1  0  0  0  0
 17 19  1  0  0  0  0
 18 17  1  0  0  0  0
 20 21  1  1  0  0  0
 20 17  1  0  0  0  0
 23 15  1  6  0  0  0
 23 20  1  0  0  0  0
 23 16  1  0  0  0  0
 24 25  1  0  0  0  0
 25 26  1  0  0  0  0
 25 27  1  0  0  0  0
 26 27  1  0  0  0  0
 27 28  1  1  0  0  0
M  END
>  <MODEL>
6

>  <REMARK>
 VINA RESULT:      -7.1      1.976      5.284
  Name = 
  8 active torsions:
  status: ('A' for Active; 'I' for Inactive)
    1  A    between atoms: C_1  and  C_11
    2  A    between atoms: N_6  and  C_11
    3  A    between atoms: C_9  and  O_18
    4  A    between atoms: C_10  and  C_14
    5  A    between atoms: C_14  and  O_18
    6  A    between atoms: C_17  and  C_19
    7  A    between atoms: C_19  and  C_27
    8  A    between atoms: C_20  and  C_25
                            x       y       z     vdW  Elec       q    Type
                         _______ _______ _______ _____ _____    ______ ____

>  <TORSDO>
F 8

$$$$
=
 OpenBabel11052413373D

 28 31  0  0  1  0  0  0  0  0999 V2000
  185.7750  179.0490  143.3270 C   0  0  1  0  0  3  0  0  0  0  0  0
  186.1710  178.1210  142.2000 C   0  0  1  0  0  3  0  0  0  0  0  0
  185.0770  179.1450  141.9650 C   0  0  1  0  0  3  0  0  0  0  0  0
  183.5330  177.9040  140.4700 C   0  0  0  0  0  1  0  0  0  0  0  0
  183.7310  178.4340  141.8750 C   0  0  0  0  0  2  0  0  0  0  0  0
  185.0150  178.2620  144.3880 C   0  0  0  0  0  2  0  0  0  0  0  0
  185.4070  178.7060  145.6800 O   0  0  0  0  0  0  0  0  0  0  0  0
  188.7530  177.2040  146.1100 C   0  0  0  0  0  3  0  0  0  0  0  0
  186.5870  178.2840  146.2950 C   0  0  0  0  0  0  0  0  0  0  0  0
  188.0140  178.0600  148.2510 C   0  0  0  0  0  0  0  0  0  0  0  0
  187.5600  177.6370  145.5240 C   0  0  0  0  0  3  0  0  0  0  0  0
  186.8210  178.4940  147.6650 C   0  0  0  0  0  3  0  0  0  0  0  0
  188.2330  178.2660  149.5710 F   0  0  0  0  0  0  0  0  0  0  0  0
  188.9800  177.4150  147.4730 C   0  0  0  0  0  3  0  0  0  0  0  0
  187.4630  178.6200  141.5680 C   0  0  0  0  0  2  0  0  0  0  0  0
  189.3370  177.7650  140.0000 C   0  0  2  0  0  0  0  0  0  0  0  0
  190.7280  177.2160  141.8760 N   0  0  0  0  0  0  0  0  0  0  0  0
  190.6990  177.9610  140.6220 C   0  0  0  0  0  2  0  0  0  0  0  0
  191.4480  178.0360  142.8330 C   0  0  0  0  0  1  0  0  0  0  0  0
  189.3460  177.1230  142.3410 C   0  0  2  0  0  3  0  0  0  0  0  0
  189.0560  175.7080  142.8040 C   0  0  0  0  0  1  0  0  0  0  0  0
  188.9680  178.9090  139.2860 O   0  0  0  0  0  1  0  0  0  0  0  0
  188.4210  177.4820  141.1870 C   0  0  1  0  0  3  0  0  0  0  0  0
  189.3820  176.5600  139.0650 C   0  0  0  0  0  2  0  0  0  0  0  0
  190.7240  176.3630  138.5400 N   0  0  0  0  0  0  0  0  0  0  0  0
  190.6260  176.4830  137.0790 C   0  0  0  0  0  2  0  0  0  0  0  0
  190.6680  175.1630  137.6930 C   0  0  1  0  0  3  0  0  0  0  0  0
  192.0610  174.5870  137.5620 C   0  0  0  0  0  1  0  0  0  0  0  0
  1  6  1  1  0  0  0
  2 15  1  6  0  0  0
  2  1  1  0  0  0  0
  3  5  1  1  0  0  0
  3  2  1  0  0  0  0
  3  1  1  0  0  0  0
  4  5  1  0  0  0  0
  6  7  1  0  0  0  0
  7  9  1  0  0  0  0
  8 14  1  0  0  0  0
  9 12  2  0  0  0  0
 10 13  1  0  0  0  0
 11  8  2  0  0  0  0
 11  9  1  0  0  0  0
 12 10  1  0  0  0  0
 14 10  2  0  0  0  0
 16 22  1  6  0  0  0
 16 18  1  0  0  0  0
 16 23  1  0  0  0  0
 17 20  1  0  0  0  0
 17 19  1  0  0  0  0
 18 17  1  0  0  0  0
 20 21  1  6  0  0  0
 23 15  1  1  0  0  0
 23 20  1  0  0  0  0
 24 16  1  0  0  0  0
 25 24  1  0  0  0  0
 26 27  1  0  0  0  0
 26 25  1  0  0  0  0
 27 28  1  6  0  0  0
 27 25  1  0  0  0  0
M  END
>  <MODEL>
7

>  <REMARK>
 VINA RESULT:      -7.0      2.266      4.517
  Name = 
  8 active torsions:
  status: ('A' for Active; 'I' for Inactive)
    1  A    between atoms: C_1  and  C_11
    2  A    between atoms: N_6  and  C_11
    3  A    between atoms: C_9  and  O_18
    4  A    between atoms: C_10  and  C_14
    5  A    between atoms: C_14  and  O_18
    6  A    between atoms: C_17  and  C_19
    7  A    between atoms: C_19  and  C_27
    8  A    between atoms: C_20  and  C_25
                            x       y       z     vdW  Elec       q    Type
                         _______ _______ _______ _____ _____    ______ ____

>  <TORSDO>
F 8

$$$$
=
 OpenBabel11052413373D

 28 31  0  0  1  0  0  0  0  0999 V2000
  188.5910  177.1710  141.7960 C   0  0  1  0  0  3  0  0  0  0  0  0
  189.7890  177.6730  141.0200 C   0  0  1  0  0  3  0  0  0  0  0  0
  189.9630  177.2720  142.4720 C   0  0  1  0  0  3  0  0  0  0  0  0
  191.5480  178.4610  143.9660 C   0  0  0  0  0  1  0  0  0  0  0  0
  190.1790  178.5200  143.3190 C   0  0  0  0  0  2  0  0  0  0  0  0
  187.6470  178.3330  142.0770 C   0  0  0  0  0  2  0  0  0  0  0  0
  186.4430  177.8400  142.6480 O   0  0  0  0  0  0  0  0  0  0  0  0
  184.5090  178.8340  145.6330 C   0  0  0  0  0  3  0  0  0  0  0  0
  186.1080  178.0390  143.9890 C   0  0  0  0  0  0  0  0  0  0  0  0
  186.6110  177.8810  146.3620 C   0  0  0  0  0  0  0  0  0  0  0  0
  184.8740  178.6230  144.3000 C   0  0  0  0  0  3  0  0  0  0  0  0
  186.9770  177.6690  145.0290 C   0  0  0  0  0  3  0  0  0  0  0  0
  187.4530  177.5210  147.3600 F   0  0  0  0  0  0  0  0  0  0  0  0
  185.3770  178.4640  146.6640 C   0  0  0  0  0  3  0  0  0  0  0  0
  190.3140  176.5570  140.1280 C   0  0  0  0  0  2  0  0  0  0  0  0
  190.7810  175.8370  137.6860 C   0  0  2  0  0  0  0  0  0  0  0  0
  188.6150  176.5990  136.9920 N   0  0  0  0  0  0  0  0  0  0  0  0
  189.5050  175.4440  136.9800 C   0  0  0  0  0  2  0  0  0  0  0  0
  187.2760  176.0920  137.2340 C   0  0  0  0  0  1  0  0  0  0  0  0
  188.9880  177.4050  138.1520 C   0  0  2  0  0  3  0  0  0  0  0  0
  189.0550  178.8680  137.7580 C   0  0  0  0  0  1  0  0  0  0  0  0
  191.3260  174.7290  138.3410 O   0  0  0  0  0  1  0  0  0  0  0  0
  190.3530  176.9450  138.6430 C   0  0  1  0  0  3  0  0  0  0  0  0
  191.7740  176.3750  136.6600 C   0  0  0  0  0  2  0  0  0  0  0  0
  192.9600  175.5370  136.5980 N   0  0  0  0  0  0  0  0  0  0  0  0
  194.0470  176.3830  136.0840 C   0  0  0  0  0  2  0  0  0  0  0  0
  193.3530  175.4730  135.1830 C   0  0  1  0  0  3  0  0  0  0  0  0
  194.1970  174.2370  134.9620 C   0  0  0  0  0  1  0  0  0  0  0  0
  1  6  1  1  0  0  0
  1  3  1  0  0  0  0
  2 15  1  6  0  0  0
  2  1  1  0  0  0  0
  2  3  1  0  0  0  0
  3  5  1  1  0  0  0
  5  4  1  0  0  0  0
  6  7  1  0  0  0  0
  7  9  1  0  0  0  0
  8 14  1  0  0  0  0
  9 11  1  0  0  0  0
  9 12  2  0  0  0  0
 10 14  2  0  0  0  0
 10 13  1  0  0  0  0
 11  8  2  0  0  0  0
 12 10  1  0  0  0  0
 16 22  1  1  0  0  0
 16 23  1  0  0  0  0
 17 19  1  0  0  0  0
 17 20  1  0  0  0  0
 18 17  1  0  0  0  0
 18 16  1  0  0  0  0
 20 21  1  6  0  0  0
 20 23  1  0  0  0  0
 23 15  1  1  0  0  0
 24 16  1  0  0  0  0
 25 24  1  0  0  0  0
 26 25  1  0  0  0  0
 27 28  1  1  0  0  0
 27 26  1  0  0  0  0
 27 25  1  0  0  0  0
M  END
>  <MODEL>
8

>  <REMARK>
 VINA RESULT:      -6.9      2.969      5.165
  Name = 
  8 active torsions:
  status: ('A' for Active; 'I' for Inactive)
    1  A    between atoms: C_1  and  C_11
    2  A    between atoms: N_6  and  C_11
    3  A    between atoms: C_9  and  O_18
    4  A    between atoms: C_10  and  C_14
    5  A    between atoms: C_14  and  O_18
    6  A    between atoms: C_17  and  C_19
    7  A    between atoms: C_19  and  C_27
    8  A    between atoms: C_20  and  C_25
                            x       y       z     vdW  Elec       q    Type
                         _______ _______ _______ _____ _____    ______ ____

>  <TORSDO>
F 8

$$$$
=
 OpenBabel11052413373D

 28 31  0  0  1  0  0  0  0  0999 V2000
  188.6730  178.3110  140.6250 C   0  0  1  0  0  3  0  0  0  0  0  0
  189.2260  176.9030  140.6430 C   0  0  1  0  0  3  0  0  0  0  0  0
  189.8980  177.9510  139.7760 C   0  0  1  0  0  3  0  0  0  0  0  0
  190.1060  176.2690  137.9640 C   0  0  0  0  0  1  0  0  0  0  0  0
  189.6050  177.6560  138.3100 C   0  0  0  0  0  2  0  0  0  0  0  0
  187.3480  178.3250  139.8740 C   0  0  0  0  0  2  0  0  0  0  0  0
  186.3430  178.9070  140.6930 O   0  0  0  0  0  0  0  0  0  0  0  0
  183.2600  179.0830  138.6670 C   0  0  0  0  0  3  0  0  0  0  0  0
  184.9870  178.8740  140.3600 C   0  0  0  0  0  0  0  0  0  0  0  0
  182.6480  178.5840  140.9550 C   0  0  0  0  0  0  0  0  0  0  0  0
  184.6100  179.1100  139.0330 C   0  0  0  0  0  3  0  0  0  0  0  0
  183.9970  178.6100  141.3220 C   0  0  0  0  0  3  0  0  0  0  0  0
  181.6990  178.3280  141.8870 F   0  0  0  0  0  0  0  0  0  0  0  0
  182.2800  178.8210  139.6280 C   0  0  0  0  0  3  0  0  0  0  0  0
  190.0490  176.7020  141.9080 C   0  0  0  0  0  2  0  0  0  0  0  0
  188.5420  177.1270  143.9700 C   0  0  2  0  0  0  0  0  0  0  0  0
  190.4540  177.6370  145.3260 N   0  0  0  0  0  0  0  0  0  0  0  0
  189.2670  176.7930  145.2520 C   0  0  0  0  0  2  0  0  0  0  0  0
  191.5210  176.8100  145.8630 C   0  0  0  0  0  1  0  0  0  0  0  0
  190.8180  177.9720  143.9510 C   0  0  2  0  0  3  0  0  0  0  0  0
  191.1430  179.4500  143.8540 C   0  0  0  0  0  1  0  0  0  0  0  0
  187.9020  175.9890  143.4710 O   0  0  0  0  0  1  0  0  0  0  0  0
  189.6390  177.6480  143.0460 C   0  0  1  0  0  3  0  0  0  0  0  0
  187.5170  178.2220  144.2460 C   0  0  0  0  0  2  0  0  0  0  0  0
  186.3960  177.7010  145.0120 N   0  0  0  0  0  0  0  0  0  0  0  0
  185.2040  178.4390  144.5700 C   0  0  0  0  0  2  0  0  0  0  0  0
  185.8740  178.8230  145.8050 C   0  0  1  0  0  3  0  0  0  0  0  0
  185.1080  178.2740  146.9890 C   0  0  0  0  0  1  0  0  0  0  0  0
  1  6  1  6  0  0  0
  1  2  1  0  0  0  0
  2 15  1  1  0  0  0
  3  5  1  6  0  0  0
  3  1  1  0  0  0  0
  3  2  1  0  0  0  0
  4  5  1  0  0  0  0
  6  7  1  0  0  0  0
  8 11  2  0  0  0  0
  8 14  1  0  0  0  0
  9  7  1  0  0  0  0
  9 12  2  0  0  0  0
 10 12  1  0  0  0  0
 10 13  1  0  0  0  0
 11  9  1  0  0  0  0
 14 10  2  0  0  0  0
 16 22  1  6  0  0  0
 16 24  1  0  0  0  0
 16 18  1  0  0  0  0
 17 19  1  0  0  0  0
 18 17  1  0  0  0  0
 20 21  1  1  0  0  0
 20 17  1  0  0  0  0
 23 15  1  6  0  0  0
 23 20  1  0  0  0  0
 23 16  1  0  0  0  0
 24 25  1  0  0  0  0
 25 27  1  0  0  0  0
 26 25  1  0  0  0  0
 26 27  1  0  0  0  0
 27 28  1  1  0  0  0
M  END
>  <MODEL>
9

>  <REMARK>
 VINA RESULT:      -6.9      2.133      5.286
  Name = 
  8 active torsions:
  status: ('A' for Active; 'I' for Inactive)
    1  A    between atoms: C_1  and  C_11
    2  A    between atoms: N_6  and  C_11
    3  A    between atoms: C_9  and  O_18
    4  A    between atoms: C_10  and  C_14
    5  A    between atoms: C_14  and  O_18
    6  A    between atoms: C_17  and  C_19
    7  A    between atoms: C_19  and  C_27
    8  A    between atoms: C_20  and  C_25
                            x       y       z     vdW  Elec       q    Type
                         _______ _______ _______ _____ _____    ______ ____

>  <TORSDO>
F 8

$$$$
