=
 OpenBabel11052416353D

 43 48  0  0  1  0  0  0  0  0999 V2000
  180.6150  179.2190  141.6870 C   0  0  0  0  0  0  0  0  0  0  0  0
  184.8560  178.5400  144.3400 C   0  0  0  0  0  0  0  0  0  0  0  0
  185.5970  178.1610  142.0590 O   0  0  0  0  0  0  0  0  0  0  0  0
  182.2800  179.0250  143.4730 C   0  0  0  0  0  0  0  0  0  0  0  0
  181.5030  178.9270  140.7340 C   0  0  0  0  0  3  0  0  0  0  0  0
  179.3280  179.4710  141.3500 F   0  0  0  0  0  0  0  0  0  0  0  0
  183.2690  178.7100  142.5200 C   0  0  0  0  0  0  0  0  0  0  0  0
  181.0210  179.2690  143.1000 C   0  0  0  0  0  3  0  0  0  0  0  0
  182.9470  178.6370  141.0450 C   0  0  0  0  0  2  0  0  0  0  0  0
  186.9070  177.9260  142.4990 C   0  0  0  0  0  0  0  0  0  0  0  0
  184.5720  178.4690  142.9650 C   0  0  0  0  0  0  0  0  0  0  0  0
  183.8560  178.8490  145.2090 N   0  0  0  0  0  0  0  0  0  0  0  0
  186.1100  178.3060  144.7750 C   0  0  0  0  0  0  0  0  0  0  0  0
  187.1820  177.9860  143.8070 C   0  0  0  0  0  3  0  0  0  0  0  0
  182.6110  179.0830  144.7890 N   0  0  0  0  0  0  0  0  0  0  0  0
  187.9590  177.6250  141.5190 C   0  0  0  0  0  0  0  0  0  0  0  0
  187.9200  178.2510  140.2350 N   0  0  0  0  0  2  0  0  0  0  0  0
  188.8960  176.8300  141.8090 O   0  0  0  0  0  0  0  0  0  0  0  0
  190.5010  178.0730  139.6830 O   0  0  0  0  0  0  0  0  0  0  0  0
  189.1450  177.9990  139.0390 S   0  0  0  0  0  0  0  0  0  0  0  0
  189.0280  179.0570  137.9780 O   0  0  0  0  0  0  0  0  0  0  0  0
  188.9060  176.3820  138.2900 C   0  0  2  0  0  3  0  0  0  0  0  0
  188.8970  176.4180  135.9090 C   0  0  0  0  0  2  0  0  0  0  0  0
  190.2060  175.9260  137.6750 C   0  0  0  0  0  2  0  0  0  0  0  0
  187.9560  176.3680  137.1100 C   0  0  1  0  0  0  0  0  0  0  0  0
  187.2100  175.0350  137.1320 C   0  0  0  0  0  1  0  0  0  0  0  0
  190.2360  176.3500  136.3380 O   0  0  0  0  0  0  0  0  0  0  0  0
  187.0580  177.4670  137.1530 O   0  0  0  0  0  0  0  0  0  0  0  0
  185.7400  177.0260  136.9320 C   0  0  0  0  0  3  0  0  0  0  0  0
  183.3510  177.7990  137.4770 C   0  0  0  0  0  2  0  0  0  0  0  0
  183.8980  176.8480  135.2020 C   0  0  0  0  0  2  0  0  0  0  0  0
  183.0080  176.7250  136.4470 C   0  0  0  0  0  2  0  0  0  0  0  0
  185.3100  177.3700  135.5070 C   0  0  0  0  0  2  0  0  0  0  0  0
  184.8000  177.6630  137.9650 C   0  0  0  0  0  2  0  0  0  0  0  0
  186.4610  178.4080  146.2270 C   0  0  0  0  0  2  0  0  0  0  0  0
  189.3020  176.5410  147.9070 C   0  0  0  0  0  3  0  0  0  0  0  0
  190.3500  176.7710  147.0110 C   0  0  0  0  0  0  0  0  0  0  0  0
  188.8550  178.0440  145.5920 C   0  0  0  0  0  3  0  0  0  0  0  0
  188.0310  177.0630  147.6480 C   0  0  0  0  0  3  0  0  0  0  0  0
  187.8050  177.8110  146.4860 C   0  0  0  0  0  0  0  0  0  0  0  0
  190.1260  177.5220  145.8520 C   0  0  0  0  0  3  0  0  0  0  0  0
  192.7060  175.8030  147.4940 N   0  0  0  0  0  0  0  0  0  0  0  0
  191.6540  176.2360  147.2780 C   0  0  0  0  0  0  0  0  0  0  0  0
  1  8  1  0  0  0  0
  2 13  2  0  0  0  0
  2 12  1  0  0  0  0
  3 10  1  0  0  0  0
  3 11  1  0  0  0  0
  4 15  1  0  0  0  0
  5  9  1  0  0  0  0
  5  1  2  0  0  0  0
  6  1  1  0  0  0  0
  7 11  2  0  0  0  0
  7  4  1  0  0  0  0
  8  4  2  0  0  0  0
  9  7  1  0  0  0  0
 10 14  2  0  0  0  0
 11  2  1  0  0  0  0
 13 35  1  0  0  0  0
 14 13  1  0  0  0  0
 15 12  2  0  0  0  0
 16 18  2  0  0  0  0
 16 10  1  0  0  0  0
 17 16  1  0  0  0  0
 20 19  2  0  0  0  0
 20 17  1  0  0  0  0
 21 20  2  0  0  0  0
 22 20  1  6  0  0  0
 23 27  1  0  0  0  0
 23 25  1  0  0  0  0
 24 22  1  0  0  0  0
 25 26  1  6  0  0  0
 25 28  1  0  0  0  0
 25 22  1  0  0  0  0
 27 24  1  0  0  0  0
 29 28  1  0  0  0  0
 29 34  1  0  0  0  0
 30 34  1  0  0  0  0
 31 33  1  0  0  0  0
 31 32  1  0  0  0  0
 32 30  1  0  0  0  0
 33 29  1  0  0  0  0
 35 40  1  0  0  0  0
 37 43  1  0  0  0  0
 37 36  2  0  0  0  0
 38 41  2  0  0  0  0
 38 40  1  0  0  0  0
 39 36  1  0  0  0  0
 40 39  2  0  0  0  0
 41 37  1  0  0  0  0
 43 42  3  0  0  0  0
M  END
>  <MODEL>
1

>  <REMARK>
 VINA RESULT:     -10.3      0.000      0.000
  Name = 
  8 active torsions:
  status: ('A' for Active; 'I' for Inactive)
    1  A    between atoms: C_1  and  C_34
    2  A    between atoms: C_1  and  C_35
    3  A    between atoms: C_2  and  C_27
    4  A    between atoms: C_4  and  S_12
    5  A    between atoms: N_6  and  S_12
    6  A    between atoms: C_11  and  O_14
    7  A    between atoms: O_14  and  C_22
    8  A    between atoms: C_19  and  C_37
                            x       y       z     vdW  Elec       q    Type
                         _______ _______ _______ _____ _____    ______ ____

>  <TORSDO>
F 8

$$$$
=
 OpenBabel11052416353D

 43 48  0  0  1  0  0  0  0  0999 V2000
  191.3640  176.4130  147.2450 C   0  0  0  0  0  0  0  0  0  0  0  0
  187.2370  177.8950  144.7440 C   0  0  0  0  0  0  0  0  0  0  0  0
  188.8510  177.5850  142.9570 O   0  0  0  0  0  0  0  0  0  0  0  0
  189.1100  177.1470  146.6300 C   0  0  0  0  0  0  0  0  0  0  0  0
  191.7850  176.4170  145.9790 C   0  0  0  0  0  3  0  0  0  0  0  0
  192.2180  176.0580  148.2340 F   0  0  0  0  0  0  0  0  0  0  0  0
  189.4860  177.1740  145.2730 C   0  0  0  0  0  0  0  0  0  0  0  0
  189.9810  176.7900  147.5770 C   0  0  0  0  0  3  0  0  0  0  0  0
  190.8840  176.8010  144.8350 C   0  0  0  0  0  2  0  0  0  0  0  0
  187.8960  177.9540  141.9990 C   0  0  0  0  0  0  0  0  0  0  0  0
  188.5330  177.5500  144.3230 C   0  0  0  0  0  0  0  0  0  0  0  0
  186.9360  177.8490  146.0710 N   0  0  0  0  0  0  0  0  0  0  0  0
  186.3140  178.2610  143.8330 C   0  0  0  0  0  0  0  0  0  0  0  0
  186.6620  178.2890  142.3960 C   0  0  0  0  0  3  0  0  0  0  0  0
  187.8430  177.4880  146.9810 N   0  0  0  0  0  0  0  0  0  0  0  0
  188.2600  177.9600  140.5760 C   0  0  0  0  0  0  0  0  0  0  0  0
  187.3120  178.4230  139.6130 N   0  0  0  0  0  2  0  0  0  0  0  0
  189.4010  177.5680  140.2060 O   0  0  0  0  0  0  0  0  0  0  0  0
  188.9240  179.3230  137.7180 O   0  0  0  0  0  0  0  0  0  0  0  0
  187.6720  178.5150  137.9220 S   0  0  0  0  0  0  0  0  0  0  0  0
  186.5230  179.1680  137.2050 O   0  0  0  0  0  0  0  0  0  0  0  0
  187.9010  176.8510  137.2820 C   0  0  2  0  0  3  0  0  0  0  0  0
  186.5920  176.3770  135.3510 C   0  0  0  0  0  2  0  0  0  0  0  0
  188.6800  176.9210  135.9930 C   0  0  0  0  0  2  0  0  0  0  0  0
  186.6220  176.1570  136.8610 C   0  0  1  0  0  0  0  0  0  0  0  0
  186.7810  174.6680  137.1670 C   0  0  0  0  0  1  0  0  0  0  0  0
  187.7710  177.0200  134.9300 O   0  0  0  0  0  0  0  0  0  0  0  0
  185.4910  176.7040  137.5210 O   0  0  0  0  0  0  0  0  0  0  0  0
  184.3110  176.1140  137.0340 C   0  0  0  0  0  3  0  0  0  0  0  0
  182.1280  175.1450  137.9820 C   0  0  0  0  0  2  0  0  0  0  0  0
  182.0910  176.5890  135.9110 C   0  0  0  0  0  2  0  0  0  0  0  0
  181.7160  175.2280  136.5140 C   0  0  0  0  0  2  0  0  0  0  0  0
  183.3670  177.1960  136.5120 C   0  0  0  0  0  2  0  0  0  0  0  0
  183.6480  175.2870  138.1450 C   0  0  0  0  0  2  0  0  0  0  0  0
  184.9120  178.6000  144.2380 C   0  0  0  0  0  2  0  0  0  0  0  0
  183.6040  177.9750  140.7350 C   0  0  0  0  0  3  0  0  0  0  0  0
  182.2760  178.3950  140.8590 C   0  0  0  0  0  0  0  0  0  0  0  0
  182.6610  178.9230  143.1910 C   0  0  0  0  0  3  0  0  0  0  0  0
  184.4610  178.0290  141.8380 C   0  0  0  0  0  3  0  0  0  0  0  0
  183.9890  178.4980  143.0700 C   0  0  0  0  0  0  0  0  0  0  0  0
  181.8050  178.8680  142.0880 C   0  0  0  0  0  3  0  0  0  0  0  0
  180.6870  178.2970  138.8130 N   0  0  0  0  0  0  0  0  0  0  0  0
  181.3960  178.3400  139.7260 C   0  0  0  0  0  0  0  0  0  0  0  0
  1  8  1  0  0  0  0
  1  6  1  0  0  0  0
  2 12  1  0  0  0  0
  3 11  1  0  0  0  0
  4 15  1  0  0  0  0
  4  8  2  0  0  0  0
  5  1  2  0  0  0  0
  7  4  1  0  0  0  0
  9  7  1  0  0  0  0
  9  5  1  0  0  0  0
 10 14  2  0  0  0  0
 10  3  1  0  0  0  0
 11  2  1  0  0  0  0
 11  7  2  0  0  0  0
 12 15  2  0  0  0  0
 13 35  1  0  0  0  0
 13  2  2  0  0  0  0
 14 13  1  0  0  0  0
 16 10  1  0  0  0  0
 17 16  1  0  0  0  0
 18 16  2  0  0  0  0
 19 20  2  0  0  0  0
 20 17  1  0  0  0  0
 21 20  2  0  0  0  0
 22 20  1  6  0  0  0
 23 25  1  0  0  0  0
 24 22  1  0  0  0  0
 25 26  1  1  0  0  0
 25 22  1  0  0  0  0
 25 28  1  0  0  0  0
 27 23  1  0  0  0  0
 27 24  1  0  0  0  0
 29 28  1  0  0  0  0
 29 34  1  0  0  0  0
 30 34  1  0  0  0  0
 31 33  1  0  0  0  0
 31 32  1  0  0  0  0
 32 30  1  0  0  0  0
 33 29  1  0  0  0  0
 36 37  2  0  0  0  0
 36 39  1  0  0  0  0
 37 41  1  0  0  0  0
 39 40  2  0  0  0  0
 40 38  1  0  0  0  0
 40 35  1  0  0  0  0
 41 38  2  0  0  0  0
 42 43  3  0  0  0  0
 43 37  1  0  0  0  0
M  END
>  <MODEL>
2

>  <REMARK>
 VINA RESULT:     -10.1      2.896      6.433
  Name = 
  8 active torsions:
  status: ('A' for Active; 'I' for Inactive)
    1  A    between atoms: C_1  and  C_34
    2  A    between atoms: C_1  and  C_35
    3  A    between atoms: C_2  and  C_27
    4  A    between atoms: C_4  and  S_12
    5  A    between atoms: N_6  and  S_12
    6  A    between atoms: C_11  and  O_14
    7  A    between atoms: O_14  and  C_22
    8  A    between atoms: C_19  and  C_37
                            x       y       z     vdW  Elec       q    Type
                         _______ _______ _______ _____ _____    ______ ____

>  <TORSDO>
F 8

$$$$
=
 OpenBabel11052416353D

 43 48  0  0  1  0  0  0  0  0999 V2000
  181.3960  178.9210  140.9310 C   0  0  0  0  0  0  0  0  0  0  0  0
  185.3910  178.3210  143.9580 C   0  0  0  0  0  0  0  0  0  0  0  0
  186.3270  177.8880  141.7600 O   0  0  0  0  0  0  0  0  0  0  0  0
  182.8990  178.7760  142.8590 C   0  0  0  0  0  0  0  0  0  0  0  0
  182.3630  178.6080  140.0670 C   0  0  0  0  0  3  0  0  0  0  0  0
  180.1430  179.1610  140.4770 F   0  0  0  0  0  0  0  0  0  0  0  0
  183.9670  178.4410  142.0040 C   0  0  0  0  0  0  0  0  0  0  0  0
  181.6770  179.0070  142.3730 C   0  0  0  0  0  3  0  0  0  0  0  0
  183.7750  178.3310  140.5090 C   0  0  0  0  0  2  0  0  0  0  0  0
  187.5950  177.6670  142.3180 C   0  0  0  0  0  0  0  0  0  0  0  0
  185.2270  178.2150  142.5660 C   0  0  0  0  0  0  0  0  0  0  0  0
  184.3190  178.6470  144.7300 N   0  0  0  0  0  0  0  0  0  0  0  0
  186.6020  178.1010  144.5060 C   0  0  0  0  0  0  0  0  0  0  0  0
  187.7550  177.7610  143.6440 C   0  0  0  0  0  3  0  0  0  0  0  0
  183.1150  178.8670  144.1970 N   0  0  0  0  0  0  0  0  0  0  0  0
  188.7280  177.3470  141.4410 C   0  0  0  0  0  0  0  0  0  0  0  0
  188.5500  177.3840  140.0240 N   0  0  0  0  0  2  0  0  0  0  0  0
  189.8530  177.0500  141.9310 O   0  0  0  0  0  0  0  0  0  0  0  0
  190.2360  175.6250  138.9930 O   0  0  0  0  0  0  0  0  0  0  0  0
  189.8420  177.0740  138.9150 S   0  0  0  0  0  0  0  0  0  0  0  0
  191.0190  177.9400  139.2690 O   0  0  0  0  0  0  0  0  0  0  0  0
  189.2920  177.4730  137.2510 C   0  0  2  0  0  3  0  0  0  0  0  0
  186.9800  178.0260  137.1120 C   0  0  0  0  0  2  0  0  0  0  0  0
  189.0300  178.9560  137.1610 C   0  0  0  0  0  2  0  0  0  0  0  0
  187.9530  176.8750  136.8700 C   0  0  1  0  0  0  0  0  0  0  0  0
  188.0030  176.5400  135.3790 C   0  0  0  0  0  1  0  0  0  0  0  0
  187.6840  179.1890  137.4770 O   0  0  0  0  0  0  0  0  0  0  0  0
  187.6550  175.7270  137.6500 O   0  0  0  0  0  0  0  0  0  0  0  0
  187.3310  174.6430  136.8150 C   0  0  0  0  0  3  0  0  0  0  0  0
  187.9580  172.1620  136.5760 C   0  0  0  0  0  2  0  0  0  0  0  0
  185.5610  172.9050  136.3010 C   0  0  0  0  0  2  0  0  0  0  0  0
  186.7450  172.1750  135.6510 C   0  0  0  0  0  2  0  0  0  0  0  0
  185.9830  174.0540  137.2290 C   0  0  0  0  0  2  0  0  0  0  0  0
  188.4440  173.5860  136.8820 C   0  0  0  0  0  2  0  0  0  0  0  0
  186.8260  178.2390  145.9800 C   0  0  0  0  0  2  0  0  0  0  0  0
  190.5400  177.4800  145.9110 C   0  0  0  0  0  3  0  0  0  0  0  0
  190.6700  176.6440  147.0240 C   0  0  0  0  0  0  0  0  0  0  0  0
  188.3010  176.8710  147.4700 C   0  0  0  0  0  3  0  0  0  0  0  0
  189.2910  178.0110  145.5760 C   0  0  0  0  0  3  0  0  0  0  0  0
  188.1700  177.7110  146.3600 C   0  0  0  0  0  0  0  0  0  0  0  0
  189.5500  176.3400  147.8040 C   0  0  0  0  0  3  0  0  0  0  0  0
  192.9870  175.6590  147.6430 N   0  0  0  0  0  0  0  0  0  0  0  0
  191.9530  176.0980  147.3670 C   0  0  0  0  0  0  0  0  0  0  0  0
  1  8  1  0  0  0  0
  2 13  2  0  0  0  0
  2 12  1  0  0  0  0
  3 10  1  0  0  0  0
  3 11  1  0  0  0  0
  4 15  1  0  0  0  0
  5  9  1  0  0  0  0
  5  1  2  0  0  0  0
  6  1  1  0  0  0  0
  7 11  2  0  0  0  0
  7  4  1  0  0  0  0
  8  4  2  0  0  0  0
  9  7  1  0  0  0  0
 10 14  2  0  0  0  0
 11  2  1  0  0  0  0
 13 35  1  0  0  0  0
 14 13  1  0  0  0  0
 15 12  2  0  0  0  0
 16 18  2  0  0  0  0
 16 10  1  0  0  0  0
 17 16  1  0  0  0  0
 20 19  2  0  0  0  0
 20 21  2  0  0  0  0
 20 17  1  0  0  0  0
 22 20  1  1  0  0  0
 23 27  1  0  0  0  0
 24 22  1  0  0  0  0
 24 27  1  0  0  0  0
 25 26  1  6  0  0  0
 25 23  1  0  0  0  0
 25 22  1  0  0  0  0
 25 28  1  0  0  0  0
 29 34  1  0  0  0  0
 29 33  1  0  0  0  0
 29 28  1  0  0  0  0
 30 34  1  0  0  0  0
 31 33  1  0  0  0  0
 32 31  1  0  0  0  0
 32 30  1  0  0  0  0
 35 40  1  0  0  0  0
 36 37  1  0  0  0  0
 37 43  1  0  0  0  0
 37 41  2  0  0  0  0
 38 41  1  0  0  0  0
 39 36  2  0  0  0  0
 39 40  1  0  0  0  0
 40 38  2  0  0  0  0
 43 42  3  0  0  0  0
M  END
>  <MODEL>
3

>  <REMARK>
 VINA RESULT:     -10.0      1.450      2.475
  Name = 
  8 active torsions:
  status: ('A' for Active; 'I' for Inactive)
    1  A    between atoms: C_1  and  C_34
    2  A    between atoms: C_1  and  C_35
    3  A    between atoms: C_2  and  C_27
    4  A    between atoms: C_4  and  S_12
    5  A    between atoms: N_6  and  S_12
    6  A    between atoms: C_11  and  O_14
    7  A    between atoms: O_14  and  C_22
    8  A    between atoms: C_19  and  C_37
                            x       y       z     vdW  Elec       q    Type
                         _______ _______ _______ _____ _____    ______ ____

>  <TORSDO>
F 8

$$$$
=
 OpenBabel11052416353D

 43 48  0  0  1  0  0  0  0  0999 V2000
  191.0230  176.7110  146.9400 C   0  0  0  0  0  0  0  0  0  0  0  0
  187.3270  177.8580  143.6980 C   0  0  0  0  0  0  0  0  0  0  0  0
  189.2480  177.6010  142.2360 O   0  0  0  0  0  0  0  0  0  0  0  0
  188.8760  177.2840  145.9110 C   0  0  0  0  0  0  0  0  0  0  0  0
  191.6610  176.7060  145.7680 C   0  0  0  0  0  3  0  0  0  0  0  0
  191.7060  176.4390  148.0770 F   0  0  0  0  0  0  0  0  0  0  0  0
  189.4850  177.2960  144.6410 C   0  0  0  0  0  0  0  0  0  0  0  0
  189.5830  177.0090  147.0090 C   0  0  0  0  0  3  0  0  0  0  0  0
  190.9570  177.0010  144.4700 C   0  0  0  0  0  2  0  0  0  0  0  0
  188.4580  177.8830  141.1110 C   0  0  0  0  0  0  0  0  0  0  0  0
  188.6950  177.5850  143.5250 C   0  0  0  0  0  0  0  0  0  0  0  0
  186.7990  177.8310  144.9520 N   0  0  0  0  0  0  0  0  0  0  0  0
  186.5610  178.1400  142.6260 C   0  0  0  0  0  0  0  0  0  0  0  0
  187.1570  178.1500  141.2720 C   0  0  0  0  0  3  0  0  0  0  0  0
  187.5490  177.5530  146.0210 N   0  0  0  0  0  0  0  0  0  0  0  0
  189.0680  177.8710  139.7750 C   0  0  0  0  0  0  0  0  0  0  0  0
  189.6870  176.6760  139.2980 N   0  0  0  0  0  2  0  0  0  0  0  0
  189.0390  178.9040  139.0490 O   0  0  0  0  0  0  0  0  0  0  0  0
  191.8440  176.8960  137.7830 O   0  0  0  0  0  0  0  0  0  0  0  0
  190.3820  176.5540  137.7170 S   0  0  0  0  0  0  0  0  0  0  0  0
  189.6790  177.5080  136.7910 O   0  0  0  0  0  0  0  0  0  0  0  0
  190.1670  174.8760  137.1120 C   0  0  2  0  0  3  0  0  0  0  0  0
  188.8220  174.7260  135.1530 C   0  0  0  0  0  2  0  0  0  0  0  0
  190.9650  174.7020  135.8440 C   0  0  0  0  0  2  0  0  0  0  0  0
  188.7580  174.5420  136.6670 C   0  0  1  0  0  0  0  0  0  0  0  0
  188.5020  173.0730  137.0030 C   0  0  0  0  0  1  0  0  0  0  0  0
  190.1400  175.0170  134.7540 O   0  0  0  0  0  0  0  0  0  0  0  0
  187.8020  175.3900  137.2860 O   0  0  0  0  0  0  0  0  0  0  0  0
  186.6620  175.5120  136.4710 C   0  0  0  0  0  3  0  0  0  0  0  0
  184.1170  175.2340  136.6950 C   0  0  0  0  0  2  0  0  0  0  0  0
  185.0800  177.1690  135.3900 C   0  0  0  0  0  2  0  0  0  0  0  0
  184.1450  175.9520  135.3480 C   0  0  0  0  0  2  0  0  0  0  0  0
  186.2850  176.9850  136.3250 C   0  0  0  0  0  2  0  0  0  0  0  0
  185.5060  174.7000  137.0730 C   0  0  0  0  0  2  0  0  0  0  0  0
  185.0930  178.4010  142.7650 C   0  0  0  0  0  2  0  0  0  0  0  0
  184.1090  179.3670  139.2330 C   0  0  0  0  0  3  0  0  0  0  0  0
  183.1150  178.4240  138.9570 C   0  0  0  0  0  0  0  0  0  0  0  0
  183.4300  177.4510  141.1530 C   0  0  0  0  0  3  0  0  0  0  0  0
  184.7640  179.3530  140.4680 C   0  0  0  0  0  3  0  0  0  0  0  0
  184.4280  178.3910  141.4290 C   0  0  0  0  0  0  0  0  0  0  0  0
  182.7760  177.4650  139.9180 C   0  0  0  0  0  3  0  0  0  0  0  0
  181.8990  178.4510  136.6680 N   0  0  0  0  0  0  0  0  0  0  0  0
  182.4420  178.4380  137.6890 C   0  0  0  0  0  0  0  0  0  0  0  0
  1  8  1  0  0  0  0
  1  6  1  0  0  0  0
  2 12  1  0  0  0  0
  3 11  1  0  0  0  0
  4 15  1  0  0  0  0
  4  8  2  0  0  0  0
  5  1  2  0  0  0  0
  7  4  1  0  0  0  0
  9  7  1  0  0  0  0
  9  5  1  0  0  0  0
 10 14  2  0  0  0  0
 10  3  1  0  0  0  0
 11  2  1  0  0  0  0
 11  7  2  0  0  0  0
 12 15  2  0  0  0  0
 13 35  1  0  0  0  0
 13  2  2  0  0  0  0
 14 13  1  0  0  0  0
 16 10  1  0  0  0  0
 17 16  1  0  0  0  0
 18 16  2  0  0  0  0
 20 19  2  0  0  0  0
 20 17  1  0  0  0  0
 21 20  2  0  0  0  0
 22 20  1  6  0  0  0
 23 25  1  0  0  0  0
 24 22  1  0  0  0  0
 25 26  1  1  0  0  0
 25 22  1  0  0  0  0
 25 28  1  0  0  0  0
 27 23  1  0  0  0  0
 27 24  1  0  0  0  0
 29 34  1  0  0  0  0
 29 28  1  0  0  0  0
 30 34  1  0  0  0  0
 31 33  1  0  0  0  0
 32 31  1  0  0  0  0
 32 30  1  0  0  0  0
 33 29  1  0  0  0  0
 36 39  1  0  0  0  0
 37 36  2  0  0  0  0
 37 41  1  0  0  0  0
 38 40  1  0  0  0  0
 39 40  2  0  0  0  0
 40 35  1  0  0  0  0
 41 38  2  0  0  0  0
 42 43  3  0  0  0  0
 43 37  1  0  0  0  0
M  END
>  <MODEL>
4

>  <REMARK>
 VINA RESULT:      -9.9      3.025      6.569
  Name = 
  8 active torsions:
  status: ('A' for Active; 'I' for Inactive)
    1  A    between atoms: C_1  and  C_34
    2  A    between atoms: C_1  and  C_35
    3  A    between atoms: C_2  and  C_27
    4  A    between atoms: C_4  and  S_12
    5  A    between atoms: N_6  and  S_12
    6  A    between atoms: C_11  and  O_14
    7  A    between atoms: O_14  and  C_22
    8  A    between atoms: C_19  and  C_37
                            x       y       z     vdW  Elec       q    Type
                         _______ _______ _______ _____ _____    ______ ____

>  <TORSDO>
F 8

$$$$
=
 OpenBabel11052416353D

 43 48  0  0  1  0  0  0  0  0999 V2000
  187.8690  177.5960  148.0180 C   0  0  0  0  0  0  0  0  0  0  0  0
  186.3280  178.6110  143.3200 C   0  0  0  0  0  0  0  0  0  0  0  0
  188.4690  177.5270  142.9480 O   0  0  0  0  0  0  0  0  0  0  0  0
  186.6100  178.3350  146.0530 C   0  0  0  0  0  0  0  0  0  0  0  0
  188.8750  177.1210  147.2810 C   0  0  0  0  0  3  0  0  0  0  0  0
  187.9250  177.5010  149.3680 F   0  0  0  0  0  0  0  0  0  0  0  0
  187.6340  177.8550  145.2130 C   0  0  0  0  0  0  0  0  0  0  0  0
  186.7010  178.2210  147.3800 C   0  0  0  0  0  3  0  0  0  0  0  0
  188.8710  177.1960  145.7770 C   0  0  0  0  0  2  0  0  0  0  0  0
  188.3200  177.6580  141.5600 C   0  0  0  0  0  0  0  0  0  0  0  0
  187.4840  177.9950  143.8300 C   0  0  0  0  0  0  0  0  0  0  0  0
  185.3750  179.0530  144.1840 N   0  0  0  0  0  0  0  0  0  0  0  0
  186.1790  178.7510  141.9880 C   0  0  0  0  0  0  0  0  0  0  0  0
  187.2240  178.2490  141.0690 C   0  0  0  0  0  3  0  0  0  0  0  0
  185.5120  178.9190  145.5050 N   0  0  0  0  0  0  0  0  0  0  0  0
  189.3630  177.1380  140.6660 C   0  0  0  0  0  0  0  0  0  0  0  0
  189.0900  177.0120  139.2690 N   0  0  0  0  0  2  0  0  0  0  0  0
  190.4940  176.8130  141.1220 O   0  0  0  0  0  0  0  0  0  0  0  0
  190.5250  174.9930  138.3420 O   0  0  0  0  0  0  0  0  0  0  0  0
  190.2750  176.4610  138.1350 S   0  0  0  0  0  0  0  0  0  0  0  0
  191.5510  177.2280  138.3380 O   0  0  0  0  0  0  0  0  0  0  0  0
  189.6680  176.7530  136.4680 C   0  0  2  0  0  3  0  0  0  0  0  0
  187.3620  177.3390  136.3750 C   0  0  0  0  0  2  0  0  0  0  0  0
  189.4280  178.2300  136.2820 C   0  0  0  0  0  2  0  0  0  0  0  0
  188.3060  176.1550  136.1800 C   0  0  1  0  0  0  0  0  0  0  0  0
  188.2930  175.7150  134.7170 C   0  0  0  0  0  1  0  0  0  0  0  0
  188.0990  178.5110  136.6310 O   0  0  0  0  0  0  0  0  0  0  0  0
  188.0180  175.0720  137.0510 O   0  0  0  0  0  0  0  0  0  0  0  0
  187.1680  174.1490  136.4140 C   0  0  0  0  0  3  0  0  0  0  0  0
  186.9420  171.5990  136.1910 C   0  0  0  0  0  2  0  0  0  0  0  0
  184.8940  173.0380  136.5250 C   0  0  0  0  0  2  0  0  0  0  0  0
  185.5780  171.9930  135.6310 C   0  0  0  0  0  2  0  0  0  0  0  0
  185.8790  173.9900  137.2190 C   0  0  0  0  0  2  0  0  0  0  0  0
  187.8920  172.8040  136.2520 C   0  0  0  0  0  2  0  0  0  0  0  0
  184.9460  179.3680  141.4030 C   0  0  0  0  0  2  0  0  0  0  0  0
  184.0750  177.8050  138.0600 C   0  0  0  0  0  3  0  0  0  0  0  0
  183.1440  176.8350  138.4450 C   0  0  0  0  0  0  0  0  0  0  0  0
  183.4090  177.4990  140.7580 C   0  0  0  0  0  3  0  0  0  0  0  0
  184.6730  178.6230  139.0240 C   0  0  0  0  0  3  0  0  0  0  0  0
  184.3440  178.4670  140.3760 C   0  0  0  0  0  0  0  0  0  0  0  0
  182.8120  176.6820  139.7950 C   0  0  0  0  0  3  0  0  0  0  0  0
  182.0340  175.3210  136.6580 N   0  0  0  0  0  0  0  0  0  0  0  0
  182.5300  175.9970  137.4550 C   0  0  0  0  0  0  0  0  0  0  0  0
  1  6  1  0  0  0  0
  2 11  1  0  0  0  0
  2 12  1  0  0  0  0
  3 11  1  0  0  0  0
  4  8  2  0  0  0  0
  5  1  2  0  0  0  0
  7  9  1  0  0  0  0
  7  4  1  0  0  0  0
  8  1  1  0  0  0  0
  9  5  1  0  0  0  0
 10  3  1  0  0  0  0
 11  7  2  0  0  0  0
 12 15  2  0  0  0  0
 13  2  2  0  0  0  0
 14 10  2  0  0  0  0
 14 13  1  0  0  0  0
 15  4  1  0  0  0  0
 16 18  2  0  0  0  0
 16 10  1  0  0  0  0
 17 16  1  0  0  0  0
 20 21  2  0  0  0  0
 20 19  2  0  0  0  0
 20 17  1  0  0  0  0
 22 20  1  1  0  0  0
 23 27  1  0  0  0  0
 24 22  1  0  0  0  0
 24 27  1  0  0  0  0
 25 26  1  6  0  0  0
 25 23  1  0  0  0  0
 25 22  1  0  0  0  0
 25 28  1  0  0  0  0
 29 28  1  0  0  0  0
 29 33  1  0  0  0  0
 30 34  1  0  0  0  0
 31 33  1  0  0  0  0
 32 30  1  0  0  0  0
 32 31  1  0  0  0  0
 34 29  1  0  0  0  0
 35 13  1  0  0  0  0
 36 37  2  0  0  0  0
 36 39  1  0  0  0  0
 37 41  1  0  0  0  0
 39 40  2  0  0  0  0
 40 38  1  0  0  0  0
 40 35  1  0  0  0  0
 41 38  2  0  0  0  0
 42 43  3  0  0  0  0
 43 37  1  0  0  0  0
M  END
>  <MODEL>
5

>  <REMARK>
 VINA RESULT:      -9.7      2.878      6.402
  Name = 
  8 active torsions:
  status: ('A' for Active; 'I' for Inactive)
    1  A    between atoms: C_1  and  C_34
    2  A    between atoms: C_1  and  C_35
    3  A    between atoms: C_2  and  C_27
    4  A    between atoms: C_4  and  S_12
    5  A    between atoms: N_6  and  S_12
    6  A    between atoms: C_11  and  O_14
    7  A    between atoms: O_14  and  C_22
    8  A    between atoms: C_19  and  C_37
                            x       y       z     vdW  Elec       q    Type
                         _______ _______ _______ _____ _____    ______ ____

>  <TORSDO>
F 8

$$$$
=
 OpenBabel11052416353D

 43 48  0  0  1  0  0  0  0  0999 V2000
  191.1840  176.5490  146.9330 C   0  0  0  0  0  0  0  0  0  0  0  0
  187.1140  178.0870  144.3740 C   0  0  0  0  0  0  0  0  0  0  0  0
  188.7620  177.7960  142.6150 O   0  0  0  0  0  0  0  0  0  0  0  0
  188.9460  177.3030  146.2850 C   0  0  0  0  0  0  0  0  0  0  0  0
  191.6300  176.5700  145.6760 C   0  0  0  0  0  3  0  0  0  0  0  0
  192.0170  176.1760  147.9340 F   0  0  0  0  0  0  0  0  0  0  0  0
  189.3490  177.3480  144.9360 C   0  0  0  0  0  0  0  0  0  0  0  0
  189.7960  176.9280  147.2430 C   0  0  0  0  0  3  0  0  0  0  0  0
  190.7540  176.9750  144.5210 C   0  0  0  0  0  2  0  0  0  0  0  0
  187.8270  178.1840  141.6440 C   0  0  0  0  0  0  0  0  0  0  0  0
  188.4160  177.7420  143.9730 C   0  0  0  0  0  0  0  0  0  0  0  0
  186.7870  178.0230  145.6930 N   0  0  0  0  0  0  0  0  0  0  0  0
  186.2110  178.4710  143.4510 C   0  0  0  0  0  0  0  0  0  0  0  0
  186.5880  178.5190  142.0210 C   0  0  0  0  0  3  0  0  0  0  0  0
  187.6740  177.6440  146.6160 N   0  0  0  0  0  0  0  0  0  0  0  0
  188.2190  178.2080  140.2280 C   0  0  0  0  0  0  0  0  0  0  0  0
  187.2070  178.1760  139.2210 N   0  0  0  0  0  2  0  0  0  0  0  0
  189.4370  178.2660  139.9020 O   0  0  0  0  0  0  0  0  0  0  0  0
  188.2380  179.5680  137.2210 O   0  0  0  0  0  0  0  0  0  0  0  0
  187.5730  178.2560  137.5310 S   0  0  0  0  0  0  0  0  0  0  0  0
  186.2990  178.1330  136.7410 O   0  0  0  0  0  0  0  0  0  0  0  0
  188.6670  176.8960  137.1050 C   0  0  2  0  0  3  0  0  0  0  0  0
  187.9690  175.6650  135.1900 C   0  0  0  0  0  2  0  0  0  0  0  0
  189.4280  177.2470  135.8520 C   0  0  0  0  0  2  0  0  0  0  0  0
  187.9580  175.6150  136.7160 C   0  0  1  0  0  0  0  0  0  0  0  0
  188.8120  174.4450  137.2050 C   0  0  0  0  0  1  0  0  0  0  0  0
  188.7010  176.7830  134.7460 O   0  0  0  0  0  0  0  0  0  0  0  0
  186.6460  175.5610  137.2560 O   0  0  0  0  0  0  0  0  0  0  0  0
  185.8960  174.5620  136.6110 C   0  0  0  0  0  3  0  0  0  0  0  0
  184.4230  172.5590  137.2640 C   0  0  0  0  0  2  0  0  0  0  0  0
  183.7320  174.0920  135.3800 C   0  0  0  0  0  2  0  0  0  0  0  0
  184.0410  172.6450  135.7880 C   0  0  0  0  0  2  0  0  0  0  0  0
  184.5580  175.1360  136.1470 C   0  0  0  0  0  2  0  0  0  0  0  0
  185.6900  173.3730  137.5620 C   0  0  0  0  0  2  0  0  0  0  0  0
  184.8030  178.8100  143.8330 C   0  0  0  0  0  2  0  0  0  0  0  0
  181.6680  178.7440  141.7000 C   0  0  0  0  0  3  0  0  0  0  0  0
  182.1180  178.0530  140.5720 C   0  0  0  0  0  0  0  0  0  0  0  0
  184.3230  177.8800  141.5580 C   0  0  0  0  0  3  0  0  0  0  0  0
  182.5440  179.0040  142.7590 C   0  0  0  0  0  3  0  0  0  0  0  0
  183.8760  178.5760  142.6860 C   0  0  0  0  0  0  0  0  0  0  0  0
  183.4470  177.6210  140.5010 C   0  0  0  0  0  3  0  0  0  0  0  0
  180.4920  177.5720  138.6110 N   0  0  0  0  0  0  0  0  0  0  0  0
  181.2180  177.7860  139.4860 C   0  0  0  0  0  0  0  0  0  0  0  0
  1  8  1  0  0  0  0
  1  6  1  0  0  0  0
  2 12  1  0  0  0  0
  3 11  1  0  0  0  0
  4 15  1  0  0  0  0
  4  8  2  0  0  0  0
  5  1  2  0  0  0  0
  7  4  1  0  0  0  0
  9  7  1  0  0  0  0
  9  5  1  0  0  0  0
 10 14  2  0  0  0  0
 10  3  1  0  0  0  0
 11  2  1  0  0  0  0
 11  7  2  0  0  0  0
 12 15  2  0  0  0  0
 13 35  1  0  0  0  0
 13  2  2  0  0  0  0
 14 13  1  0  0  0  0
 16 10  1  0  0  0  0
 17 16  1  0  0  0  0
 18 16  2  0  0  0  0
 19 20  2  0  0  0  0
 20 17  1  0  0  0  0
 21 20  2  0  0  0  0
 22 20  1  6  0  0  0
 23 25  1  0  0  0  0
 24 22  1  0  0  0  0
 25 22  1  0  0  0  0
 25 26  1  1  0  0  0
 25 28  1  0  0  0  0
 27 23  1  0  0  0  0
 27 24  1  0  0  0  0
 29 28  1  0  0  0  0
 29 34  1  0  0  0  0
 30 34  1  0  0  0  0
 31 32  1  0  0  0  0
 31 33  1  0  0  0  0
 32 30  1  0  0  0  0
 33 29  1  0  0  0  0
 36 39  1  0  0  0  0
 37 36  2  0  0  0  0
 38 40  1  0  0  0  0
 40 39  2  0  0  0  0
 40 35  1  0  0  0  0
 41 37  1  0  0  0  0
 41 38  2  0  0  0  0
 42 43  3  0  0  0  0
 43 37  1  0  0  0  0
M  END
>  <MODEL>
6

>  <REMARK>
 VINA RESULT:      -9.7      3.017      6.502
  Name = 
  8 active torsions:
  status: ('A' for Active; 'I' for Inactive)
    1  A    between atoms: C_1  and  C_34
    2  A    between atoms: C_1  and  C_35
    3  A    between atoms: C_2  and  C_27
    4  A    between atoms: C_4  and  S_12
    5  A    between atoms: N_6  and  S_12
    6  A    between atoms: C_11  and  O_14
    7  A    between atoms: O_14  and  C_22
    8  A    between atoms: C_19  and  C_37
                            x       y       z     vdW  Elec       q    Type
                         _______ _______ _______ _____ _____    ______ ____

>  <TORSDO>
F 8

$$$$
=
 OpenBabel11052416353D

 43 48  0  0  1  0  0  0  0  0999 V2000
  188.1860  177.6920  147.5160 C   0  0  0  0  0  0  0  0  0  0  0  0
  185.2460  178.4870  143.4900 C   0  0  0  0  0  0  0  0  0  0  0  0
  187.4380  178.1880  142.4890 O   0  0  0  0  0  0  0  0  0  0  0  0
  186.2980  178.1210  146.0170 C   0  0  0  0  0  0  0  0  0  0  0  0
  189.0590  177.6240  146.5090 C   0  0  0  0  0  3  0  0  0  0  0  0
  188.6170  177.5240  148.7890 F   0  0  0  0  0  0  0  0  0  0  0  0
  187.1620  178.0630  144.9070 C   0  0  0  0  0  0  0  0  0  0  0  0
  186.7600  177.9480  147.2570 C   0  0  0  0  0  3  0  0  0  0  0  0
  188.6420  177.8030  145.0730 C   0  0  0  0  0  2  0  0  0  0  0  0
  186.9010  178.3630  141.2060 C   0  0  0  0  0  0  0  0  0  0  0  0
  186.6240  178.2450  143.6300 C   0  0  0  0  0  0  0  0  0  0  0  0
  184.4640  178.5320  144.6020 N   0  0  0  0  0  0  0  0  0  0  0  0
  184.7210  178.6660  142.2620 C   0  0  0  0  0  0  0  0  0  0  0  0
  185.5910  178.5990  141.0670 C   0  0  0  0  0  3  0  0  0  0  0  0
  184.9730  178.3540  145.8230 N   0  0  0  0  0  0  0  0  0  0  0  0
  187.7810  178.2770  140.0330 C   0  0  0  0  0  0  0  0  0  0  0  0
  187.2060  178.2610  138.7250 N   0  0  0  0  0  2  0  0  0  0  0  0
  189.0340  178.2260  140.1750 O   0  0  0  0  0  0  0  0  0  0  0  0
  189.0830  179.4070  137.2540 O   0  0  0  0  0  0  0  0  0  0  0  0
  188.1670  178.2150  137.2860 S   0  0  0  0  0  0  0  0  0  0  0  0
  187.2630  178.2360  136.0850 O   0  0  0  0  0  0  0  0  0  0  0  0
  189.1300  176.6970  137.2750 C   0  0  2  0  0  3  0  0  0  0  0  0
  189.3660  175.7260  135.1140 C   0  0  0  0  0  2  0  0  0  0  0  0
  190.4680  176.9670  136.6350 C   0  0  0  0  0  2  0  0  0  0  0  0
  188.5600  175.5960  136.4040 C   0  0  1  0  0  0  0  0  0  0  0  0
  188.8720  174.2620  137.0810 C   0  0  0  0  0  1  0  0  0  0  0  0
  190.3640  176.7080  135.2610 O   0  0  0  0  0  0  0  0  0  0  0  0
  187.1650  175.7620  136.2020 O   0  0  0  0  0  0  0  0  0  0  0  0
  186.4670  174.6390  136.6840 C   0  0  0  0  0  3  0  0  0  0  0  0
  184.0830  174.0530  137.4410 C   0  0  0  0  0  2  0  0  0  0  0  0
  185.4020  172.4410  136.0140 C   0  0  0  0  0  2  0  0  0  0  0  0
  184.6360  172.6340  137.3300 C   0  0  0  0  0  2  0  0  0  0  0  0
  186.1100  173.7130  135.5230 C   0  0  0  0  0  2  0  0  0  0  0  0
  185.2100  175.0950  137.4390 C   0  0  0  0  0  2  0  0  0  0  0  0
  183.2530  178.8890  142.0680 C   0  0  0  0  0  2  0  0  0  0  0  0
  182.3630  176.5630  139.2090 C   0  0  0  0  0  3  0  0  0  0  0  0
  182.0920  177.4760  138.1860 C   0  0  0  0  0  0  0  0  0  0  0  0
  182.5530  179.3080  139.7010 C   0  0  0  0  0  3  0  0  0  0  0  0
  182.7290  177.0210  140.4790 C   0  0  0  0  0  3  0  0  0  0  0  0
  182.8190  178.3960  140.7270 C   0  0  0  0  0  0  0  0  0  0  0  0
  182.1870  178.8490  138.4330 C   0  0  0  0  0  3  0  0  0  0  0  0
  181.4170  176.6250  135.8320 N   0  0  0  0  0  0  0  0  0  0  0  0
  181.7180  177.0050  136.8830 C   0  0  0  0  0  0  0  0  0  0  0  0
  1  6  1  0  0  0  0
  2 11  1  0  0  0  0
  2 12  1  0  0  0  0
  3 11  1  0  0  0  0
  4  8  2  0  0  0  0
  5  1  2  0  0  0  0
  7  9  1  0  0  0  0
  7  4  1  0  0  0  0
  8  1  1  0  0  0  0
  9  5  1  0  0  0  0
 10  3  1  0  0  0  0
 11  7  2  0  0  0  0
 12 15  2  0  0  0  0
 13  2  2  0  0  0  0
 14 10  2  0  0  0  0
 14 13  1  0  0  0  0
 15  4  1  0  0  0  0
 16 18  2  0  0  0  0
 16 10  1  0  0  0  0
 17 16  1  0  0  0  0
 19 20  2  0  0  0  0
 20 17  1  0  0  0  0
 21 20  2  0  0  0  0
 22 20  1  6  0  0  0
 23 27  1  0  0  0  0
 23 25  1  0  0  0  0
 24 22  1  0  0  0  0
 25 26  1  1  0  0  0
 25 22  1  0  0  0  0
 27 24  1  0  0  0  0
 28 25  1  0  0  0  0
 28 29  1  0  0  0  0
 29 34  1  0  0  0  0
 31 32  1  0  0  0  0
 32 30  1  0  0  0  0
 33 31  1  0  0  0  0
 33 29  1  0  0  0  0
 34 30  1  0  0  0  0
 35 13  1  0  0  0  0
 36 39  1  0  0  0  0
 37 41  1  0  0  0  0
 37 36  2  0  0  0  0
 38 40  1  0  0  0  0
 39 40  2  0  0  0  0
 40 35  1  0  0  0  0
 41 38  2  0  0  0  0
 42 43  3  0  0  0  0
 43 37  1  0  0  0  0
M  END
>  <MODEL>
7

>  <REMARK>
 VINA RESULT:      -9.6      2.733      6.377
  Name = 
  8 active torsions:
  status: ('A' for Active; 'I' for Inactive)
    1  A    between atoms: C_1  and  C_34
    2  A    between atoms: C_1  and  C_35
    3  A    between atoms: C_2  and  C_27
    4  A    between atoms: C_4  and  S_12
    5  A    between atoms: N_6  and  S_12
    6  A    between atoms: C_11  and  O_14
    7  A    between atoms: O_14  and  C_22
    8  A    between atoms: C_19  and  C_37
                            x       y       z     vdW  Elec       q    Type
                         _______ _______ _______ _____ _____    ______ ____

>  <TORSDO>
F 8

$$$$
=
 OpenBabel11052416353D

 43 48  0  0  1  0  0  0  0  0999 V2000
  184.6570  178.6260  145.6080 C   0  0  0  0  0  0  0  0  0  0  0  0
  182.4150  178.9660  141.0970 C   0  0  0  0  0  0  0  0  0  0  0  0
  184.6990  178.3880  140.5070 O   0  0  0  0  0  0  0  0  0  0  0  0
  183.0510  178.9310  143.7840 C   0  0  0  0  0  0  0  0  0  0  0  0
  185.6600  178.3540  144.7710 C   0  0  0  0  0  3  0  0  0  0  0  0
  184.8810  178.6310  146.9430 F   0  0  0  0  0  0  0  0  0  0  0  0
  184.0620  178.6520  142.8440 C   0  0  0  0  0  0  0  0  0  0  0  0
  183.3110  178.9230  145.0940 C   0  0  0  0  0  3  0  0  0  0  0  0
  185.4740  178.3340  143.2770 C   0  0  0  0  0  2  0  0  0  0  0  0
  184.3730  178.3960  139.1440 C   0  0  0  0  0  0  0  0  0  0  0  0
  183.7330  178.6680  141.4860 C   0  0  0  0  0  0  0  0  0  0  0  0
  181.4850  179.2270  142.0550 N   0  0  0  0  0  0  0  0  0  0  0  0
  182.0930  178.9860  139.7890 C   0  0  0  0  0  0  0  0  0  0  0  0
  183.1210  178.6850  138.7690 C   0  0  0  0  0  3  0  0  0  0  0  0
  181.7930  179.2100  143.3540 N   0  0  0  0  0  0  0  0  0  0  0  0
  185.4050  178.0780  138.1480 C   0  0  0  0  0  0  0  0  0  0  0  0
  185.6970  176.7110  137.8540 N   0  0  0  0  0  2  0  0  0  0  0  0
  186.0240  179.0010  137.5510 O   0  0  0  0  0  0  0  0  0  0  0  0
  186.1590  175.9790  135.3540 O   0  0  0  0  0  0  0  0  0  0  0  0
  186.8580  176.2430  136.6580 S   0  0  0  0  0  0  0  0  0  0  0  0
  187.5680  174.9990  137.1150 O   0  0  0  0  0  0  0  0  0  0  0  0
  188.0550  177.5680  136.4580 C   0  0  2  0  0  3  0  0  0  0  0  0
  190.2940  176.9230  136.9520 C   0  0  0  0  0  2  0  0  0  0  0  0
  188.8900  177.2980  135.2310 C   0  0  0  0  0  2  0  0  0  0  0  0
  189.0950  177.6490  137.5570 C   0  0  1  0  0  0  0  0  0  0  0  0
  189.4330  179.1250  137.7670 C   0  0  0  0  0  1  0  0  0  0  0  0
  190.0220  176.5650  135.6180 O   0  0  0  0  0  0  0  0  0  0  0  0
  188.6320  177.0470  138.7560 O   0  0  0  0  0  0  0  0  0  0  0  0
  189.2930  177.6040  139.8660 C   0  0  0  0  0  3  0  0  0  0  0  0
  188.8990  177.8580  142.3930 C   0  0  0  0  0  2  0  0  0  0  0  0
  191.1890  177.2620  141.5100 C   0  0  0  0  0  2  0  0  0  0  0  0
  190.3740  178.2510  142.3560 C   0  0  0  0  0  2  0  0  0  0  0  0
  190.3990  176.6620  140.3380 C   0  0  0  0  0  2  0  0  0  0  0  0
  188.2800  177.8780  140.9880 C   0  0  0  0  0  2  0  0  0  0  0  0
  180.6930  179.2630  139.3370 C   0  0  0  0  0  2  0  0  0  0  0  0
  181.0450  182.7190  137.8170 C   0  0  0  0  0  3  0  0  0  0  0  0
  180.5420  182.5050  136.5300 C   0  0  0  0  0  0  0  0  0  0  0  0
  180.1640  180.1740  137.0660 C   0  0  0  0  0  3  0  0  0  0  0  0
  181.1070  181.6610  138.7290 C   0  0  0  0  0  3  0  0  0  0  0  0
  180.6700  180.3840  138.3520 C   0  0  0  0  0  0  0  0  0  0  0  0
  180.1020  181.2320  136.1550 C   0  0  0  0  0  3  0  0  0  0  0  0
  180.4270  184.4670  134.8400 N   0  0  0  0  0  0  0  0  0  0  0  0
  180.4780  183.5920  135.5940 C   0  0  0  0  0  0  0  0  0  0  0  0
  1  6  1  0  0  0  0
  2 11  1  0  0  0  0
  2 12  1  0  0  0  0
  3 11  1  0  0  0  0
  4  8  2  0  0  0  0
  5  1  2  0  0  0  0
  7  9  1  0  0  0  0
  7  4  1  0  0  0  0
  8  1  1  0  0  0  0
  9  5  1  0  0  0  0
 10  3  1  0  0  0  0
 11  7  2  0  0  0  0
 12 15  2  0  0  0  0
 13  2  2  0  0  0  0
 14 10  2  0  0  0  0
 14 13  1  0  0  0  0
 15  4  1  0  0  0  0
 16 10  1  0  0  0  0
 17 16  1  0  0  0  0
 18 16  2  0  0  0  0
 19 20  2  0  0  0  0
 20 21  2  0  0  0  0
 20 17  1  0  0  0  0
 22 20  1  1  0  0  0
 22 25  1  0  0  0  0
 23 25  1  0  0  0  0
 24 27  1  0  0  0  0
 24 22  1  0  0  0  0
 25 26  1  1  0  0  0
 25 28  1  0  0  0  0
 27 23  1  0  0  0  0
 28 29  1  0  0  0  0
 29 33  1  0  0  0  0
 29 34  1  0  0  0  0
 31 32  1  0  0  0  0
 32 30  1  0  0  0  0
 33 31  1  0  0  0  0
 34 30  1  0  0  0  0
 35 13  1  0  0  0  0
 36 39  1  0  0  0  0
 37 36  2  0  0  0  0
 38 40  1  0  0  0  0
 40 39  2  0  0  0  0
 40 35  1  0  0  0  0
 41 37  1  0  0  0  0
 41 38  2  0  0  0  0
 42 43  3  0  0  0  0
 43 37  1  0  0  0  0
M  END
>  <MODEL>
8

>  <REMARK>
 VINA RESULT:      -9.4      3.313      7.889
  Name = 
  8 active torsions:
  status: ('A' for Active; 'I' for Inactive)
    1  A    between atoms: C_1  and  C_34
    2  A    between atoms: C_1  and  C_35
    3  A    between atoms: C_2  and  C_27
    4  A    between atoms: C_4  and  S_12
    5  A    between atoms: N_6  and  S_12
    6  A    between atoms: C_11  and  O_14
    7  A    between atoms: O_14  and  C_22
    8  A    between atoms: C_19  and  C_37
                            x       y       z     vdW  Elec       q    Type
                         _______ _______ _______ _____ _____    ______ ____

>  <TORSDO>
F 8

$$$$
=
 OpenBabel11052416353D

 43 48  0  0  1  0  0  0  0  0999 V2000
  180.2090  178.9350  140.7600 C   0  0  0  0  0  0  0  0  0  0  0  0
  184.2830  178.5430  143.7150 C   0  0  0  0  0  0  0  0  0  0  0  0
  185.2420  178.4660  141.4850 O   0  0  0  0  0  0  0  0  0  0  0  0
  181.7410  178.7840  142.6640 C   0  0  0  0  0  0  0  0  0  0  0  0
  181.1990  178.8420  139.8690 C   0  0  0  0  0  3  0  0  0  0  0  0
  178.9310  179.0570  140.3310 F   0  0  0  0  0  0  0  0  0  0  0  0
  182.8330  178.6820  141.7810 C   0  0  0  0  0  0  0  0  0  0  0  0
  180.4940  178.9060  142.2030 C   0  0  0  0  0  3  0  0  0  0  0  0
  182.6400  178.7040  140.2830 C   0  0  0  0  0  2  0  0  0  0  0  0
  186.5340  178.3540  142.0200 C   0  0  0  0  0  0  0  0  0  0  0  0
  184.1180  178.5630  142.3190 C   0  0  0  0  0  0  0  0  0  0  0  0
  183.1870  178.6450  144.5140 N   0  0  0  0  0  0  0  0  0  0  0  0
  185.5190  178.4250  144.2390 C   0  0  0  0  0  0  0  0  0  0  0  0
  186.6960  178.3290  143.3480 C   0  0  0  0  0  3  0  0  0  0  0  0
  181.9580  178.7630  144.0050 N   0  0  0  0  0  0  0  0  0  0  0  0
  187.6890  178.2760  141.1160 C   0  0  0  0  0  0  0  0  0  0  0  0
  187.4710  178.1800  139.7070 N   0  0  0  0  0  2  0  0  0  0  0  0
  188.8640  178.3010  141.5750 O   0  0  0  0  0  0  0  0  0  0  0  0
  189.8690  177.2530  139.0850 O   0  0  0  0  0  0  0  0  0  0  0  0
  188.7710  178.1380  138.5650 S   0  0  0  0  0  0  0  0  0  0  0  0
  189.2960  179.5320  138.3590 O   0  0  0  0  0  0  0  0  0  0  0  0
  188.1540  177.5010  137.0020 C   0  0  2  0  0  3  0  0  0  0  0  0
  188.8570  175.2760  136.5270 C   0  0  0  0  0  2  0  0  0  0  0  0
  187.0950  176.4620  137.2750 C   0  0  0  0  0  2  0  0  0  0  0  0
  189.1740  176.7310  136.1890 C   0  0  1  0  0  0  0  0  0  0  0  0
  188.8850  176.9960  134.7110 C   0  0  0  0  0  1  0  0  0  0  0  0
  187.7150  175.2050  137.3470 O   0  0  0  0  0  0  0  0  0  0  0  0
  190.5010  177.1010  136.5330 O   0  0  0  0  0  0  0  0  0  0  0  0
  191.3580  175.9920  136.4240 C   0  0  0  0  0  3  0  0  0  0  0  0
  193.4100  175.2920  135.0440 C   0  0  0  0  0  2  0  0  0  0  0  0
  193.2990  174.7830  137.5150 C   0  0  0  0  0  2  0  0  0  0  0  0
  193.4720  174.1970  136.1060 C   0  0  0  0  0  2  0  0  0  0  0  0
  192.3810  176.0140  137.5590 C   0  0  0  0  0  2  0  0  0  0  0  0
  192.0490  176.0030  135.0530 C   0  0  0  0  0  2  0  0  0  0  0  0
  185.7400  178.4370  145.7200 C   0  0  0  0  0  2  0  0  0  0  0  0
  188.6980  177.0710  147.6600 C   0  0  0  0  0  3  0  0  0  0  0  0
  189.7050  177.1120  146.6900 C   0  0  0  0  0  0  0  0  0  0  0  0
  188.1200  177.9900  145.0830 C   0  0  0  0  0  3  0  0  0  0  0  0
  187.4030  177.4910  147.3430 C   0  0  0  0  0  3  0  0  0  0  0  0
  187.1110  177.9460  146.0510 C   0  0  0  0  0  0  0  0  0  0  0  0
  189.4150  177.5710  145.4010 C   0  0  0  0  0  3  0  0  0  0  0  0
  192.1070  176.3350  147.2790 N   0  0  0  0  0  0  0  0  0  0  0  0
  191.0350  176.6820  147.0170 C   0  0  0  0  0  0  0  0  0  0  0  0
  1  8  1  0  0  0  0
  2 13  2  0  0  0  0
  2 12  1  0  0  0  0
  3 10  1  0  0  0  0
  3 11  1  0  0  0  0
  4 15  1  0  0  0  0
  5  9  1  0  0  0  0
  5  1  2  0  0  0  0
  6  1  1  0  0  0  0
  7 11  2  0  0  0  0
  7  4  1  0  0  0  0
  8  4  2  0  0  0  0
  9  7  1  0  0  0  0
 10 14  2  0  0  0  0
 11  2  1  0  0  0  0
 13 35  1  0  0  0  0
 14 13  1  0  0  0  0
 15 12  2  0  0  0  0
 16 18  2  0  0  0  0
 16 10  1  0  0  0  0
 17 16  1  0  0  0  0
 20 19  2  0  0  0  0
 20 17  1  0  0  0  0
 21 20  2  0  0  0  0
 22 24  1  0  0  0  0
 22 20  1  1  0  0  0
 23 27  1  0  0  0  0
 24 27  1  0  0  0  0
 25 26  1  6  0  0  0
 25 23  1  0  0  0  0
 25 28  1  0  0  0  0
 25 22  1  0  0  0  0
 29 28  1  0  0  0  0
 29 33  1  0  0  0  0
 30 34  1  0  0  0  0
 30 32  1  0  0  0  0
 31 33  1  0  0  0  0
 32 31  1  0  0  0  0
 34 29  1  0  0  0  0
 35 40  1  0  0  0  0
 37 43  1  0  0  0  0
 37 36  2  0  0  0  0
 38 41  2  0  0  0  0
 38 40  1  0  0  0  0
 39 36  1  0  0  0  0
 40 39  2  0  0  0  0
 41 37  1  0  0  0  0
 43 42  3  0  0  0  0
M  END
>  <MODEL>
9

>  <REMARK>
 VINA RESULT:      -9.3      1.502      3.596
  Name = 
  8 active torsions:
  status: ('A' for Active; 'I' for Inactive)
    1  A    between atoms: C_1  and  C_34
    2  A    between atoms: C_1  and  C_35
    3  A    between atoms: C_2  and  C_27
    4  A    between atoms: C_4  and  S_12
    5  A    between atoms: N_6  and  S_12
    6  A    between atoms: C_11  and  O_14
    7  A    between atoms: O_14  and  C_22
    8  A    between atoms: C_19  and  C_37
                            x       y       z     vdW  Elec       q    Type
                         _______ _______ _______ _____ _____    ______ ____

>  <TORSDO>
F 8

$$$$
