=
 OpenBabel11052413283D

 28 32  0  0  1  0  0  0  0  0999 V2000
  188.0850  178.1620  147.8820 C   0  0  0  0  0  2  0  0  0  0  0  0
  189.1420  177.1200  145.2030 C   0  0  2  0  0  3  0  0  0  0  0  0
  189.2400  177.1850  147.7300 C   0  0  0  0  0  2  0  0  0  0  0  0
  186.1200  178.5900  146.4830 C   0  0  1  0  0  3  0  0  0  0  0  0
  187.9430  178.0600  145.1120 C   0  0  0  0  0  2  0  0  0  0  0  0
  186.8060  177.5760  147.2740 C   0  0  1  0  0  3  0  0  0  0  0  0
  189.9900  177.4440  146.4300 C   0  0  0  0  0  2  0  0  0  0  0  0
  186.7840  177.4760  145.7880 N   0  0  1  0  0  0  0  0  0  0  0  0
  191.1380  177.9940  143.9220 C   0  0  0  0  0  3  0  0  0  0  0  0
  189.6400  176.4230  142.8400 C   0  0  0  0  0  0  0  0  0  0  0  0
  191.5660  177.2840  141.6490 C   0  0  0  0  0  0  0  0  0  0  0  0
  189.9830  177.1940  143.9630 C   0  0  0  0  0  0  0  0  0  0  0  0
  190.4290  176.4740  141.6870 C   0  0  0  0  0  3  0  0  0  0  0  0
  188.5470  175.6190  142.8620 F   0  0  0  0  0  0  0  0  0  0  0  0
  192.3280  177.3300  140.5300 F   0  0  0  0  0  0  0  0  0  0  0  0
  191.9240  178.0400  142.7680 C   0  0  0  0  0  3  0  0  0  0  0  0
  184.6250  178.3440  146.5180 C   0  0  0  0  0  2  0  0  0  0  0  0
  183.9540  179.1960  145.4540 C   0  0  0  0  0  2  0  0  0  0  0  0
  182.7290  179.0970  143.3630 C   0  0  0  0  0  2  0  0  0  0  0  0
  184.1580  179.1030  143.0150 N   0  0  0  0  0  0  0  0  0  0  0  0
  183.6780  178.3790  144.2040 C   0  0  1  0  0  3  0  0  0  0  0  0
  184.3160  178.1810  142.0310 O   0  0  0  0  0  0  0  0  0  0  0  0
  183.8280  179.3090  139.8370 C   0  0  2  0  0  0  0  0  0  0  0  0
  185.9940  179.5880  141.0590 O   0  0  0  0  0  1  0  0  0  0  0  0
  184.7100  178.0900  139.6280 C   0  0  0  0  0  2  0  0  0  0  0  0
  184.7930  178.8900  140.9200 C   0  0  1  0  0  0  0  0  0  0  0  0
  182.4820  179.0630  140.0320 F   0  0  0  0  0  0  0  0  0  0  0  0
  184.2030  180.4190  139.0810 O   0  0  0  0  0  1  0  0  0  0  0  0
  2 12  1  6  0  0  0
  2  7  1  0  0  0  0
  3  1  1  0  0  0  0
  4 17  1  1  0  0  0
  4  6  1  0  0  0  0
  5  2  1  0  0  0  0
  6  1  1  6  0  0  0
  7  3  1  0  0  0  0
  8  5  1  6  0  0  0
  8  4  1  0  0  0  0
  8  6  1  0  0  0  0
  9 12  1  0  0  0  0
 10 14  1  0  0  0  0
 10 12  2  0  0  0  0
 11 13  2  0  0  0  0
 11 16  1  0  0  0  0
 13 10  1  0  0  0  0
 15 11  1  0  0  0  0
 16  9  2  0  0  0  0
 18 17  1  0  0  0  0
 19 21  1  0  0  0  0
 20 19  1  0  0  0  0
 20 21  1  0  0  0  0
 21 18  1  1  0  0  0
 22 20  1  0  0  0  0
 23 28  1  6  0  0  0
 23 27  1  0  0  0  0
 23 26  1  0  0  0  0
 25 23  1  0  0  0  0
 25 26  1  0  0  0  0
 26 24  1  1  0  0  0
 26 22  1  0  0  0  0
M  END
>  <MODEL>
1

>  <REMARK>
 VINA RESULT:      -8.9      0.000      0.000
  Name = 
  6 active torsions:
  status: ('A' for Active; 'I' for Inactive)
    1  A    between atoms: O_2  and  N_3
    2  A    between atoms: O_2  and  C_11
    3  A    between atoms: C_10  and  C_13
    4  A    between atoms: C_16  and  C_21
    5  A    between atoms: C_19  and  C_21
    6  A    between atoms: C_19  and  C_26
                            x       y       z     vdW  Elec       q    Type
                         _______ _______ _______ _____ _____    ______ ____

>  <TORSDO>
F 6

$$$$
=
 OpenBabel11052413283D

 28 32  0  0  1  0  0  0  0  0999 V2000
  188.2000  177.2570  147.3540 C   0  0  0  0  0  2  0  0  0  0  0  0
  186.3030  178.5420  145.3200 C   0  0  2  0  0  3  0  0  0  0  0  0
  187.1730  178.3280  147.6870 C   0  0  0  0  0  2  0  0  0  0  0  0
  189.4310  176.7660  145.2940 C   0  0  1  0  0  3  0  0  0  0  0  0
  187.2820  177.5200  144.7480 C   0  0  0  0  0  2  0  0  0  0  0  0
  189.1990  177.7790  146.3160 C   0  0  1  0  0  3  0  0  0  0  0  0
  185.9620  178.2090  146.7700 C   0  0  0  0  0  2  0  0  0  0  0  0
  188.6610  177.9690  144.9390 N   0  0  1  0  0  0  0  0  0  0  0  0
  183.8020  178.8330  145.1060 C   0  0  0  0  0  3  0  0  0  0  0  0
  185.1240  178.4920  143.1020 C   0  0  0  0  0  0  0  0  0  0  0  0
  182.7230  178.7780  142.9420 C   0  0  0  0  0  0  0  0  0  0  0  0
  185.0490  178.6100  144.4990 C   0  0  0  0  0  0  0  0  0  0  0  0
  183.9620  178.5720  142.3290 C   0  0  0  0  0  3  0  0  0  0  0  0
  186.3190  178.3070  142.4860 F   0  0  0  0  0  0  0  0  0  0  0  0
  181.5990  178.8550  142.1890 F   0  0  0  0  0  0  0  0  0  0  0  0
  182.6440  178.9140  144.3290 C   0  0  0  0  0  3  0  0  0  0  0  0
  190.8420  176.8940  144.7560 C   0  0  0  0  0  2  0  0  0  0  0  0
  190.8890  178.0230  143.7410 C   0  0  0  0  0  2  0  0  0  0  0  0
  190.2350  176.3820  142.0790 C   0  0  0  0  0  2  0  0  0  0  0  0
  189.9690  177.7040  141.4930 N   0  0  0  0  0  0  0  0  0  0  0  0
  191.1500  177.4830  142.3460 C   0  0  1  0  0  3  0  0  0  0  0  0
  190.3980  177.6460  140.2070 O   0  0  0  0  0  0  0  0  0  0  0  0
  188.9330  176.8350  138.3290 C   0  0  2  0  0  0  0  0  0  0  0  0
  188.2220  178.6130  139.9400 O   0  0  0  0  0  1  0  0  0  0  0  0
  189.5820  178.1610  137.9690 C   0  0  0  0  0  2  0  0  0  0  0  0
  189.2540  177.8310  139.4170 C   0  0  1  0  0  0  0  0  0  0  0  0
  189.7320  175.7130  138.2160 F   0  0  0  0  0  0  0  0  0  0  0  0
  187.5910  176.7410  137.9640 O   0  0  0  0  0  1  0  0  0  0  0  0
  1  3  1  0  0  0  0
  2 12  1  6  0  0  0
  2  7  1  0  0  0  0
  4 17  1  6  0  0  0
  4  6  1  0  0  0  0
  5  2  1  0  0  0  0
  6  1  1  1  0  0  0
  7  3  1  0  0  0  0
  8  5  1  1  0  0  0
  8  4  1  0  0  0  0
  8  6  1  0  0  0  0
 10 12  2  0  0  0  0
 11 16  1  0  0  0  0
 12  9  1  0  0  0  0
 13 11  2  0  0  0  0
 13 10  1  0  0  0  0
 14 10  1  0  0  0  0
 15 11  1  0  0  0  0
 16  9  2  0  0  0  0
 18 17  1  0  0  0  0
 19 21  1  0  0  0  0
 20 19  1  0  0  0  0
 20 21  1  0  0  0  0
 21 18  1  1  0  0  0
 22 20  1  0  0  0  0
 23 28  1  6  0  0  0
 23 26  1  0  0  0  0
 25 23  1  0  0  0  0
 25 26  1  0  0  0  0
 26 24  1  1  0  0  0
 26 22  1  0  0  0  0
 27 23  1  0  0  0  0
M  END
>  <MODEL>
2

>  <REMARK>
 VINA RESULT:      -8.9      2.492      5.989
  Name = 
  6 active torsions:
  status: ('A' for Active; 'I' for Inactive)
    1  A    between atoms: O_2  and  N_3
    2  A    between atoms: O_2  and  C_11
    3  A    between atoms: C_10  and  C_13
    4  A    between atoms: C_16  and  C_21
    5  A    between atoms: C_19  and  C_21
    6  A    between atoms: C_19  and  C_26
                            x       y       z     vdW  Elec       q    Type
                         _______ _______ _______ _____ _____    ______ ____

>  <TORSDO>
F 6

$$$$
=
 OpenBabel11052413283D

 28 32  0  0  1  0  0  0  0  0999 V2000
  189.5740  176.6950  146.8780 C   0  0  0  0  0  2  0  0  0  0  0  0
  187.2970  178.2580  145.5550 C   0  0  2  0  0  3  0  0  0  0  0  0
  188.5900  177.5840  147.6230 C   0  0  0  0  0  2  0  0  0  0  0  0
  190.4250  176.7730  144.5830 C   0  0  1  0  0  3  0  0  0  0  0  0
  188.1880  177.4670  144.6020 C   0  0  0  0  0  2  0  0  0  0  0  0
  190.3490  177.5100  145.8380 C   0  0  1  0  0  3  0  0  0  0  0  0
  187.2370  177.5840  146.9230 C   0  0  0  0  0  2  0  0  0  0  0  0
  189.5630  177.9630  144.6560 N   0  0  1  0  0  0  0  0  0  0  0  0
  185.6580  178.2120  143.6320 C   0  0  0  0  0  3  0  0  0  0  0  0
  184.8460  178.7280  145.8570 C   0  0  0  0  0  0  0  0  0  0  0  0
  183.3100  178.6710  143.9850 C   0  0  0  0  0  0  0  0  0  0  0  0
  185.9120  178.4160  144.9980 C   0  0  0  0  0  0  0  0  0  0  0  0
  183.5510  178.8590  145.3490 C   0  0  0  0  0  3  0  0  0  0  0  0
  185.0580  178.9000  147.1870 F   0  0  0  0  0  0  0  0  0  0  0  0
  182.0530  178.7990  143.4960 F   0  0  0  0  0  0  0  0  0  0  0  0
  184.3620  178.3420  143.1280 C   0  0  0  0  0  3  0  0  0  0  0  0
  191.7080  177.1220  143.8580 C   0  0  0  0  0  2  0  0  0  0  0  0
  191.3700  177.7000  142.4950 C   0  0  0  0  0  2  0  0  0  0  0  0
  189.5430  177.3460  140.9390 C   0  0  0  0  0  2  0  0  0  0  0  0
  190.7810  177.0130  140.2180 N   0  0  0  0  0  0  0  0  0  0  0  0
  190.6310  176.6810  141.6450 C   0  0  1  0  0  3  0  0  0  0  0  0
  190.5250  175.8770  139.5220 O   0  0  0  0  0  0  0  0  0  0  0  0
  189.4130  176.5170  137.3580 C   0  0  2  0  0  0  0  0  0  0  0  0
  191.8740  176.7460  137.7430 O   0  0  0  0  0  1  0  0  0  0  0  0
  190.0930  175.1640  137.2320 C   0  0  0  0  0  2  0  0  0  0  0  0
  190.6510  176.2230  138.1690 C   0  0  1  0  0  0  0  0  0  0  0  0
  188.1940  176.5280  138.0110 F   0  0  0  0  0  0  0  0  0  0  0  0
  189.5880  177.3480  136.2530 O   0  0  0  0  0  1  0  0  0  0  0  0
  1  3  1  0  0  0  0
  2 12  1  6  0  0  0
  2  7  1  0  0  0  0
  4 17  1  6  0  0  0
  4  8  1  0  0  0  0
  4  6  1  0  0  0  0
  5  2  1  0  0  0  0
  6  1  1  1  0  0  0
  7  3  1  0  0  0  0
  8  5  1  1  0  0  0
  8  6  1  0  0  0  0
  9 12  1  0  0  0  0
 10 14  1  0  0  0  0
 11 13  2  0  0  0  0
 12 10  2  0  0  0  0
 13 10  1  0  0  0  0
 15 11  1  0  0  0  0
 16  9  2  0  0  0  0
 16 11  1  0  0  0  0
 18 17  1  0  0  0  0
 19 21  1  0  0  0  0
 20 19  1  0  0  0  0
 20 21  1  0  0  0  0
 21 18  1  1  0  0  0
 22 20  1  0  0  0  0
 23 28  1  6  0  0  0
 23 27  1  0  0  0  0
 23 26  1  0  0  0  0
 25 23  1  0  0  0  0
 25 26  1  0  0  0  0
 26 24  1  6  0  0  0
 26 22  1  0  0  0  0
M  END
>  <MODEL>
3

>  <REMARK>
 VINA RESULT:      -8.6      3.471      6.374
  Name = 
  6 active torsions:
  status: ('A' for Active; 'I' for Inactive)
    1  A    between atoms: O_2  and  N_3
    2  A    between atoms: O_2  and  C_11
    3  A    between atoms: C_10  and  C_13
    4  A    between atoms: C_16  and  C_21
    5  A    between atoms: C_19  and  C_21
    6  A    between atoms: C_19  and  C_26
                            x       y       z     vdW  Elec       q    Type
                         _______ _______ _______ _____ _____    ______ ____

>  <TORSDO>
F 6

$$$$
=
 OpenBabel11052413283D

 28 32  0  0  1  0  0  0  0  0999 V2000
  184.0770  179.4290  144.5270 C   0  0  0  0  0  2  0  0  0  0  0  0
  186.5490  177.6260  144.6630 C   0  0  2  0  0  3  0  0  0  0  0  0
  184.4690  178.5900  145.7340 C   0  0  0  0  0  2  0  0  0  0  0  0
  184.4810  179.1250  142.1310 C   0  0  1  0  0  3  0  0  0  0  0  0
  186.3320  178.3400  143.3320 C   0  0  0  0  0  2  0  0  0  0  0  0
  183.8500  178.5350  143.3050 C   0  0  1  0  0  3  0  0  0  0  0  0
  185.9840  178.4500  145.8170 C   0  0  0  0  0  2  0  0  0  0  0  0
  185.0730  177.9140  142.7220 N   0  0  1  0  0  0  0  0  0  0  0  0
  188.6130  177.6690  146.1210 C   0  0  0  0  0  3  0  0  0  0  0  0
  188.7620  176.7120  143.8980 C   0  0  0  0  0  0  0  0  0  0  0  0
  190.7150  176.7720  145.3290 C   0  0  0  0  0  0  0  0  0  0  0  0
  188.0040  177.3450  144.8970 C   0  0  0  0  0  0  0  0  0  0  0  0
  190.1140  176.4320  144.1150 C   0  0  0  0  0  3  0  0  0  0  0  0
  188.1920  176.3600  142.7170 F   0  0  0  0  0  0  0  0  0  0  0  0
  192.0260  176.4980  145.5360 F   0  0  0  0  0  0  0  0  0  0  0  0
  189.9640  177.3850  146.3340 C   0  0  0  0  0  3  0  0  0  0  0  0
  183.7030  178.7500  140.8860 C   0  0  0  0  0  2  0  0  0  0  0  0
  184.4910  179.1720  139.6580 C   0  0  0  0  0  2  0  0  0  0  0  0
  185.5060  177.9740  137.8090 C   0  0  0  0  0  2  0  0  0  0  0  0
  186.5910  178.6950  138.4910 N   0  0  0  0  0  0  0  0  0  0  0  0
  185.4870  178.0970  139.2610 C   0  0  1  0  0  3  0  0  0  0  0  0
  187.6360  177.8320  138.5660 O   0  0  0  0  0  0  0  0  0  0  0  0
  188.7650  177.2750  136.3890 C   0  0  2  0  0  0  0  0  0  0  0  0
  188.7610  179.5770  137.3700 O   0  0  0  0  0  1  0  0  0  0  0  0
  189.7840  177.3690  137.5120 C   0  0  0  0  0  2  0  0  0  0  0  0
  188.5180  178.2130  137.5460 C   0  0  1  0  0  0  0  0  0  0  0  0
  188.0300  176.1060  136.3290 F   0  0  0  0  0  0  0  0  0  0  0  0
  189.1750  177.8700  135.1970 O   0  0  0  0  0  1  0  0  0  0  0  0
  1  3  1  0  0  0  0
  2 12  1  1  0  0  0
  2  7  1  0  0  0  0
  3  7  1  0  0  0  0
  4 17  1  6  0  0  0
  4  8  1  0  0  0  0
  4  6  1  0  0  0  0
  5  2  1  0  0  0  0
  6  1  1  1  0  0  0
  8  6  1  0  0  0  0
  8  5  1  1  0  0  0
  9 16  1  0  0  0  0
 10 13  2  0  0  0  0
 10 12  1  0  0  0  0
 11 15  1  0  0  0  0
 11 16  2  0  0  0  0
 12  9  2  0  0  0  0
 13 11  1  0  0  0  0
 14 10  1  0  0  0  0
 18 17  1  0  0  0  0
 19 20  1  0  0  0  0
 19 21  1  0  0  0  0
 20 22  1  0  0  0  0
 20 21  1  0  0  0  0
 21 18  1  6  0  0  0
 23 28  1  6  0  0  0
 23 25  1  0  0  0  0
 23 26  1  0  0  0  0
 25 26  1  0  0  0  0
 26 24  1  6  0  0  0
 26 22  1  0  0  0  0
 27 23  1  0  0  0  0
M  END
>  <MODEL>
4

>  <REMARK>
 VINA RESULT:      -8.4      3.033      4.750
  Name = 
  6 active torsions:
  status: ('A' for Active; 'I' for Inactive)
    1  A    between atoms: O_2  and  N_3
    2  A    between atoms: O_2  and  C_11
    3  A    between atoms: C_10  and  C_13
    4  A    between atoms: C_16  and  C_21
    5  A    between atoms: C_19  and  C_21
    6  A    between atoms: C_19  and  C_26
                            x       y       z     vdW  Elec       q    Type
                         _______ _______ _______ _____ _____    ______ ____

>  <TORSDO>
F 6

$$$$
=
 OpenBabel11052413283D

 28 32  0  0  1  0  0  0  0  0999 V2000
  188.9400  177.9040  147.8240 C   0  0  0  0  0  2  0  0  0  0  0  0
  189.3990  177.0090  144.9310 C   0  0  2  0  0  3  0  0  0  0  0  0
  189.9100  176.8110  147.4020 C   0  0  0  0  0  2  0  0  0  0  0  0
  186.8550  178.7090  146.8220 C   0  0  1  0  0  3  0  0  0  0  0  0
  188.3430  178.0940  145.1210 C   0  0  0  0  0  2  0  0  0  0  0  0
  187.5130  177.5440  147.4030 C   0  0  1  0  0  3  0  0  0  0  0  0
  190.4700  177.1010  146.0150 C   0  0  0  0  0  2  0  0  0  0  0  0
  187.2380  177.5950  145.9390 N   0  0  1  0  0  0  0  0  0  0  0  0
  191.3820  177.4640  143.4310 C   0  0  0  0  0  3  0  0  0  0  0  0
  189.2830  176.7750  142.4320 C   0  0  0  0  0  0  0  0  0  0  0  0
  191.2090  177.2210  141.0310 C   0  0  0  0  0  0  0  0  0  0  0  0
  190.0330  177.1000  143.5740 C   0  0  0  0  0  0  0  0  0  0  0  0
  189.8710  176.8410  141.1650 C   0  0  0  0  0  3  0  0  0  0  0  0
  187.9860  176.3900  142.5420 F   0  0  0  0  0  0  0  0  0  0  0  0
  191.7750  177.2830  139.8020 F   0  0  0  0  0  0  0  0  0  0  0  0
  191.9650  177.5270  142.1640 C   0  0  0  0  0  3  0  0  0  0  0  0
  185.3660  178.6480  147.0940 C   0  0  0  0  0  2  0  0  0  0  0  0
  184.6640  178.0330  145.8960 C   0  0  0  0  0  2  0  0  0  0  0  0
  184.3740  178.8080  143.6160 C   0  0  0  0  0  2  0  0  0  0  0  0
  183.0290  178.5290  144.1410 N   0  0  0  0  0  0  0  0  0  0  0  0
  184.0680  179.1110  145.0080 C   0  0  1  0  0  3  0  0  0  0  0  0
  182.2380  179.5540  143.7330 O   0  0  0  0  0  0  0  0  0  0  0  0
  180.9560  178.6200  141.7810 C   0  0  2  0  0  0  0  0  0  0  0  0
  180.2580  178.2740  144.1590 O   0  0  0  0  0  1  0  0  0  0  0  0
  180.2800  179.8700  142.3180 C   0  0  0  0  0  2  0  0  0  0  0  0
  181.0650  178.9580  143.2480 C   0  0  1  0  0  0  0  0  0  0  0  0
  182.0650  178.8200  140.9810 F   0  0  0  0  0  0  0  0  0  0  0  0
  180.0730  177.5910  141.4560 O   0  0  0  0  0  1  0  0  0  0  0  0
  2 12  1  6  0  0  0
  2  5  1  0  0  0  0
  2  7  1  0  0  0  0
  3  1  1  0  0  0  0
  4 17  1  1  0  0  0
  4  6  1  0  0  0  0
  6  1  1  6  0  0  0
  7  3  1  0  0  0  0
  8  5  1  6  0  0  0
  8  4  1  0  0  0  0
  8  6  1  0  0  0  0
  9 12  1  0  0  0  0
 10 14  1  0  0  0  0
 10 12  2  0  0  0  0
 11 13  2  0  0  0  0
 11 16  1  0  0  0  0
 13 10  1  0  0  0  0
 15 11  1  0  0  0  0
 16  9  2  0  0  0  0
 18 17  1  0  0  0  0
 19 20  1  0  0  0  0
 19 21  1  0  0  0  0
 20 21  1  0  0  0  0
 21 18  1  1  0  0  0
 22 20  1  0  0  0  0
 23 27  1  6  0  0  0
 23 25  1  0  0  0  0
 23 26  1  0  0  0  0
 25 26  1  0  0  0  0
 26 22  1  0  0  0  0
 26 24  1  1  0  0  0
 28 23  1  0  0  0  0
M  END
>  <MODEL>
5

>  <REMARK>
 VINA RESULT:      -8.4      1.983      2.433
  Name = 
  6 active torsions:
  status: ('A' for Active; 'I' for Inactive)
    1  A    between atoms: O_2  and  N_3
    2  A    between atoms: O_2  and  C_11
    3  A    between atoms: C_10  and  C_13
    4  A    between atoms: C_16  and  C_21
    5  A    between atoms: C_19  and  C_21
    6  A    between atoms: C_19  and  C_26
                            x       y       z     vdW  Elec       q    Type
                         _______ _______ _______ _____ _____    ______ ____

>  <TORSDO>
F 6

$$$$
=
 OpenBabel11052413283D

 28 32  0  0  1  0  0  0  0  0999 V2000
  184.0840  179.4970  144.3710 C   0  0  0  0  0  2  0  0  0  0  0  0
  186.5770  177.7600  144.7570 C   0  0  2  0  0  3  0  0  0  0  0  0
  184.4340  178.7610  145.6550 C   0  0  0  0  0  2  0  0  0  0  0  0
  184.6040  179.0170  142.0260 C   0  0  1  0  0  3  0  0  0  0  0  0
  186.4100  178.3650  143.3660 C   0  0  0  0  0  2  0  0  0  0  0  0
  183.9290  178.5060  143.2130 C   0  0  1  0  0  3  0  0  0  0  0  0
  185.9450  178.6590  145.8170 C   0  0  0  0  0  2  0  0  0  0  0  0
  185.1880  177.8680  142.7350 N   0  0  1  0  0  0  0  0  0  0  0  0
  189.0150  177.6890  144.0930 C   0  0  0  0  0  3  0  0  0  0  0  0
  188.4040  177.1880  146.3860 C   0  0  0  0  0  0  0  0  0  0  0  0
  190.7290  177.1330  145.7070 C   0  0  0  0  0  0  0  0  0  0  0  0
  188.0250  177.5280  145.0770 C   0  0  0  0  0  0  0  0  0  0  0  0
  189.7520  176.9870  146.6950 C   0  0  0  0  0  3  0  0  0  0  0  0
  187.4720  177.0560  147.3630 F   0  0  0  0  0  0  0  0  0  0  0  0
  192.0350  176.9370  146.0110 F   0  0  0  0  0  0  0  0  0  0  0  0
  190.3610  177.4880  144.4080 C   0  0  0  0  0  3  0  0  0  0  0  0
  183.8900  178.5320  140.7800 C   0  0  0  0  0  2  0  0  0  0  0  0
  184.6360  179.0270  139.5530 C   0  0  0  0  0  2  0  0  0  0  0  0
  185.5920  178.1580  137.5000 C   0  0  0  0  0  2  0  0  0  0  0  0
  186.7180  178.4400  138.4030 N   0  0  0  0  0  0  0  0  0  0  0  0
  185.4490  177.9070  138.9280 C   0  0  1  0  0  3  0  0  0  0  0  0
  187.5700  177.3900  138.2930 O   0  0  0  0  0  0  0  0  0  0  0  0
  189.9450  176.8700  138.9370 C   0  0  2  0  0  0  0  0  0  0  0  0
  189.0650  179.2050  138.7530 O   0  0  0  0  0  1  0  0  0  0  0  0
  189.1220  177.2190  140.1640 C   0  0  0  0  0  2  0  0  0  0  0  0
  188.7930  177.8360  138.8140 C   0  0  1  0  0  0  0  0  0  0  0  0
  189.7810  175.5930  138.4350 F   0  0  0  0  0  0  0  0  0  0  0  0
  191.2200  177.4340  138.9270 O   0  0  0  0  0  1  0  0  0  0  0  0
  1  3  1  0  0  0  0
  2 12  1  1  0  0  0
  2  7  1  0  0  0  0
  3  7  1  0  0  0  0
  4 17  1  6  0  0  0
  4  8  1  0  0  0  0
  4  6  1  0  0  0  0
  5  2  1  0  0  0  0
  6  1  1  1  0  0  0
  8  6  1  0  0  0  0
  8  5  1  1  0  0  0
  9 16  2  0  0  0  0
  9 12  1  0  0  0  0
 10 13  1  0  0  0  0
 10 14  1  0  0  0  0
 11 15  1  0  0  0  0
 11 13  2  0  0  0  0
 12 10  2  0  0  0  0
 16 11  1  0  0  0  0
 18 17  1  0  0  0  0
 19 20  1  0  0  0  0
 19 21  1  0  0  0  0
 20 21  1  0  0  0  0
 21 18  1  1  0  0  0
 22 20  1  0  0  0  0
 22 26  1  0  0  0  0
 23 27  1  6  0  0  0
 23 25  1  0  0  0  0
 26 24  1  6  0  0  0
 26 23  1  0  0  0  0
 26 25  1  0  0  0  0
 28 23  1  0  0  0  0
M  END
>  <MODEL>
6

>  <REMARK>
 VINA RESULT:      -8.3      2.801      5.006
  Name = 
  6 active torsions:
  status: ('A' for Active; 'I' for Inactive)
    1  A    between atoms: O_2  and  N_3
    2  A    between atoms: O_2  and  C_11
    3  A    between atoms: C_10  and  C_13
    4  A    between atoms: C_16  and  C_21
    5  A    between atoms: C_19  and  C_21
    6  A    between atoms: C_19  and  C_26
                            x       y       z     vdW  Elec       q    Type
                         _______ _______ _______ _____ _____    ______ ____

>  <TORSDO>
F 6

$$$$
=
 OpenBabel11052413283D

 28 32  0  0  1  0  0  0  0  0999 V2000
  191.4440  176.2050  144.4000 C   0  0  0  0  0  2  0  0  0  0  0  0
  188.9550  177.9160  144.9070 C   0  0  2  0  0  3  0  0  0  0  0  0
  191.0630  176.7980  145.7480 C   0  0  0  0  0  2  0  0  0  0  0  0
  190.9980  176.9480  142.1090 C   0  0  1  0  0  3  0  0  0  0  0  0
  189.1580  177.4680  143.4620 C   0  0  0  0  0  2  0  0  0  0  0  0
  191.6410  177.3160  143.3640 C   0  0  1  0  0  3  0  0  0  0  0  0
  189.5480  176.8980  145.8770 C   0  0  0  0  0  2  0  0  0  0  0  0
  190.4020  178.0180  142.9250 N   0  0  1  0  0  0  0  0  0  0  0  0
  186.5310  178.0210  144.1980 C   0  0  0  0  0  3  0  0  0  0  0  0
  187.0940  178.3940  146.5270 C   0  0  0  0  0  0  0  0  0  0  0  0
  184.7830  178.4830  145.8050 C   0  0  0  0  0  0  0  0  0  0  0  0
  187.5010  178.1280  145.2090 C   0  0  0  0  0  0  0  0  0  0  0  0
  185.7390  178.5750  146.8200 C   0  0  0  0  0  3  0  0  0  0  0  0
  188.0060  178.4720  147.5290 F   0  0  0  0  0  0  0  0  0  0  0  0
  183.4710  178.6590  146.0920 F   0  0  0  0  0  0  0  0  0  0  0  0
  185.1790  178.2010  144.4960 C   0  0  0  0  0  3  0  0  0  0  0  0
  191.7510  177.5600  140.9460 C   0  0  0  0  0  2  0  0  0  0  0  0
  191.1680  177.0410  139.6440 C   0  0  0  0  0  2  0  0  0  0  0  0
  189.3440  178.4870  138.9610 C   0  0  0  0  0  2  0  0  0  0  0  0
  189.1790  177.2240  138.2250 N   0  0  0  0  0  0  0  0  0  0  0  0
  189.6600  177.2250  139.6170 C   0  0  1  0  0  3  0  0  0  0  0  0
  187.8560  176.9260  138.2670 O   0  0  0  0  0  0  0  0  0  0  0  0
  187.0590  177.9010  136.0900 C   0  0  2  0  0  0  0  0  0  0  0  0
  187.9180  175.5600  136.2990 O   0  0  0  0  0  1  0  0  0  0  0  0
  185.9950  177.0030  136.6960 C   0  0  0  0  0  2  0  0  0  0  0  0
  187.4700  176.7200  136.9350 C   0  0  1  0  0  0  0  0  0  0  0  0
  187.1750  179.1660  136.6360 F   0  0  0  0  0  0  0  0  0  0  0  0
  187.2150  177.7500  134.7130 O   0  0  0  0  0  1  0  0  0  0  0  0
  1  3  1  0  0  0  0
  2 12  1  1  0  0  0
  2  7  1  0  0  0  0
  3  7  1  0  0  0  0
  4 17  1  6  0  0  0
  4  8  1  0  0  0  0
  4  6  1  0  0  0  0
  5  2  1  0  0  0  0
  6  1  1  1  0  0  0
  8  6  1  0  0  0  0
  8  5  1  1  0  0  0
  9 16  2  0  0  0  0
  9 12  1  0  0  0  0
 10 13  1  0  0  0  0
 10 14  1  0  0  0  0
 11 15  1  0  0  0  0
 11 13  2  0  0  0  0
 12 10  2  0  0  0  0
 16 11  1  0  0  0  0
 18 17  1  0  0  0  0
 19 21  1  0  0  0  0
 20 22  1  0  0  0  0
 20 19  1  0  0  0  0
 20 21  1  0  0  0  0
 21 18  1  6  0  0  0
 23 28  1  6  0  0  0
 23 27  1  0  0  0  0
 23 25  1  0  0  0  0
 23 26  1  0  0  0  0
 25 26  1  0  0  0  0
 26 24  1  6  0  0  0
 26 22  1  0  0  0  0
M  END
>  <MODEL>
7

>  <REMARK>
 VINA RESULT:      -8.0      3.570      6.151
  Name = 
  6 active torsions:
  status: ('A' for Active; 'I' for Inactive)
    1  A    between atoms: O_2  and  N_3
    2  A    between atoms: O_2  and  C_11
    3  A    between atoms: C_10  and  C_13
    4  A    between atoms: C_16  and  C_21
    5  A    between atoms: C_19  and  C_21
    6  A    between atoms: C_19  and  C_26
                            x       y       z     vdW  Elec       q    Type
                         _______ _______ _______ _____ _____    ______ ____

>  <TORSDO>
F 6

$$$$
=
 OpenBabel11052413283D

 28 32  0  0  1  0  0  0  0  0999 V2000
  190.3320  177.6620  144.5580 C   0  0  0  0  0  2  0  0  0  0  0  0
  189.6000  177.0960  141.6380 C   0  0  2  0  0  3  0  0  0  0  0  0
  191.1950  176.8690  143.5890 C   0  0  0  0  0  2  0  0  0  0  0  0
  187.9080  177.9950  144.6820 C   0  0  1  0  0  3  0  0  0  0  0  0
  188.5570  177.8750  142.4350 C   0  0  0  0  0  2  0  0  0  0  0  0
  188.9650  176.9920  144.7270 C   0  0  1  0  0  3  0  0  0  0  0  0
  191.0050  177.3770  142.1660 C   0  0  0  0  0  2  0  0  0  0  0  0
  188.0570  177.0690  143.5480 N   0  0  1  0  0  0  0  0  0  0  0  0
  188.6790  178.4480  139.7120 C   0  0  0  0  0  3  0  0  0  0  0  0
  190.3400  176.7400  139.2630 C   0  0  0  0  0  0  0  0  0  0  0  0
  189.4310  178.0610  137.4460 C   0  0  0  0  0  0  0  0  0  0  0  0
  189.5250  177.4280  140.1770 C   0  0  0  0  0  0  0  0  0  0  0  0
  190.2870  177.0550  137.9010 C   0  0  0  0  0  3  0  0  0  0  0  0
  191.1890  175.7710  139.6870 F   0  0  0  0  0  0  0  0  0  0  0  0
  189.3830  178.3640  136.1260 F   0  0  0  0  0  0  0  0  0  0  0  0
  188.6310  178.7610  138.3520 C   0  0  0  0  0  3  0  0  0  0  0  0
  186.7430  177.5540  145.5440 C   0  0  0  0  0  2  0  0  0  0  0  0
  185.6460  178.6030  145.4760 C   0  0  0  0  0  2  0  0  0  0  0  0
  183.8320  179.4320  144.0960 C   0  0  0  0  0  2  0  0  0  0  0  0
  184.9090  179.0300  143.1790 N   0  0  0  0  0  0  0  0  0  0  0  0
  184.6330  178.2530  144.4000 C   0  0  1  0  0  3  0  0  0  0  0  0
  184.3120  178.3720  142.1530 O   0  0  0  0  0  0  0  0  0  0  0  0
  183.7430  179.3790  139.9190 C   0  0  2  0  0  0  0  0  0  0  0  0
  185.9540  179.7150  141.0390 O   0  0  0  0  0  1  0  0  0  0  0  0
  184.6130  178.1460  139.7450 C   0  0  0  0  0  2  0  0  0  0  0  0
  184.7470  179.0160  140.9850 C   0  0  1  0  0  0  0  0  0  0  0  0
  182.4040  179.1490  140.1780 F   0  0  0  0  0  0  0  0  0  0  0  0
  184.0910  180.4430  139.0890 O   0  0  0  0  0  1  0  0  0  0  0  0
  2 12  1  6  0  0  0
  2  7  1  0  0  0  0
  2  5  1  0  0  0  0
  3  1  1  0  0  0  0
  4  6  1  0  0  0  0
  4 17  1  1  0  0  0
  6  1  1  6  0  0  0
  7  3  1  0  0  0  0
  8  5  1  6  0  0  0
  8  4  1  0  0  0  0
  8  6  1  0  0  0  0
  9 12  1  0  0  0  0
 10 14  1  0  0  0  0
 10 12  2  0  0  0  0
 11 13  2  0  0  0  0
 11 16  1  0  0  0  0
 13 10  1  0  0  0  0
 15 11  1  0  0  0  0
 16  9  2  0  0  0  0
 18 17  1  0  0  0  0
 19 21  1  0  0  0  0
 20 19  1  0  0  0  0
 20 21  1  0  0  0  0
 21 18  1  1  0  0  0
 22 20  1  0  0  0  0
 23 28  1  6  0  0  0
 23 27  1  0  0  0  0
 23 26  1  0  0  0  0
 25 23  1  0  0  0  0
 25 26  1  0  0  0  0
 26 24  1  1  0  0  0
 26 22  1  0  0  0  0
M  END
>  <MODEL>
8

>  <REMARK>
 VINA RESULT:      -8.0      2.142      3.172
  Name = 
  6 active torsions:
  status: ('A' for Active; 'I' for Inactive)
    1  A    between atoms: O_2  and  N_3
    2  A    between atoms: O_2  and  C_11
    3  A    between atoms: C_10  and  C_13
    4  A    between atoms: C_16  and  C_21
    5  A    between atoms: C_19  and  C_21
    6  A    between atoms: C_19  and  C_26
                            x       y       z     vdW  Elec       q    Type
                         _______ _______ _______ _____ _____    ______ ____

>  <TORSDO>
F 6

$$$$
=
 OpenBabel11052413283D

 28 32  0  0  1  0  0  0  0  0999 V2000
  183.4130  178.3170  142.7100 C   0  0  0  0  0  2  0  0  0  0  0  0
  185.9260  178.8710  141.0470 C   0  0  2  0  0  3  0  0  0  0  0  0
  183.4210  179.0350  141.3690 C   0  0  0  0  0  2  0  0  0  0  0  0
  185.1050  178.1400  144.4720 C   0  0  1  0  0  3  0  0  0  0  0  0
  186.1660  178.1750  142.3840 C   0  0  0  0  0  2  0  0  0  0  0  0
  184.2720  179.0750  143.7260 C   0  0  1  0  0  3  0  0  0  0  0  0
  184.5500  178.5110  140.4900 C   0  0  0  0  0  2  0  0  0  0  0  0
  185.7430  179.0330  143.4910 N   0  0  1  0  0  0  0  0  0  0  0  0
  186.6590  178.1760  138.7310 C   0  0  0  0  0  3  0  0  0  0  0  0
  188.3430  178.5650  140.4310 C   0  0  0  0  0  0  0  0  0  0  0  0
  189.0020  177.9000  138.1970 C   0  0  0  0  0  0  0  0  0  0  0  0
  186.9910  178.5160  140.0520 C   0  0  0  0  0  0  0  0  0  0  0  0
  189.3430  178.2530  139.5050 C   0  0  0  0  0  3  0  0  0  0  0  0
  188.6950  178.9200  141.6930 F   0  0  0  0  0  0  0  0  0  0  0  0
  189.9740  177.5980  137.3020 F   0  0  0  0  0  0  0  0  0  0  0  0
  187.6610  177.8660  137.8090 C   0  0  0  0  0  3  0  0  0  0  0  0
  185.3490  178.6710  145.8700 C   0  0  0  0  0  2  0  0  0  0  0  0
  186.3690  177.7880  146.5680 C   0  0  0  0  0  2  0  0  0  0  0  0
  188.7300  177.2740  146.7860 C   0  0  0  0  0  2  0  0  0  0  0  0
  188.4310  177.2780  145.3470 N   0  0  0  0  0  0  0  0  0  0  0  0
  187.7830  178.2430  146.2510 C   0  0  1  0  0  3  0  0  0  0  0  0
  189.4570  177.9310  144.7440 O   0  0  0  0  0  0  0  0  0  0  0  0
  191.5190  176.5370  144.3810 C   0  0  2  0  0  0  0  0  0  0  0  0
  189.3560  176.1000  143.2020 O   0  0  0  0  0  1  0  0  0  0  0  0
  191.3320  177.5250  143.2430 C   0  0  0  0  0  2  0  0  0  0  0  0
  190.1270  176.9640  143.9820 C   0  0  1  0  0  0  0  0  0  0  0  0
  192.0470  177.0480  145.5520 F   0  0  0  0  0  0  0  0  0  0  0  0
  191.9080  175.2630  143.9720 O   0  0  0  0  0  1  0  0  0  0  0  0
  2 12  1  6  0  0  0
  2  5  1  0  0  0  0
  3  1  1  0  0  0  0
  4 17  1  1  0  0  0
  6  1  1  6  0  0  0
  6  4  1  0  0  0  0
  7  2  1  0  0  0  0
  7  3  1  0  0  0  0
  8  5  1  6  0  0  0
  8  6  1  0  0  0  0
  8  4  1  0  0  0  0
  9 12  1  0  0  0  0
 10 14  1  0  0  0  0
 11 13  2  0  0  0  0
 12 10  2  0  0  0  0
 13 10  1  0  0  0  0
 15 11  1  0  0  0  0
 16 11  1  0  0  0  0
 16  9  2  0  0  0  0
 17 18  1  0  0  0  0
 20 21  1  0  0  0  0
 20 19  1  0  0  0  0
 21 18  1  1  0  0  0
 21 19  1  0  0  0  0
 22 20  1  0  0  0  0
 23 28  1  6  0  0  0
 23 27  1  0  0  0  0
 25 26  1  0  0  0  0
 25 23  1  0  0  0  0
 26 24  1  6  0  0  0
 26 23  1  0  0  0  0
 26 22  1  0  0  0  0
M  END
>  <MODEL>
9

>  <REMARK>
 VINA RESULT:      -7.9      3.003      6.113
  Name = 
  6 active torsions:
  status: ('A' for Active; 'I' for Inactive)
    1  A    between atoms: O_2  and  N_3
    2  A    between atoms: O_2  and  C_11
    3  A    between atoms: C_10  and  C_13
    4  A    between atoms: C_16  and  C_21
    5  A    between atoms: C_19  and  C_21
    6  A    between atoms: C_19  and  C_26
                            x       y       z     vdW  Elec       q    Type
                         _______ _______ _______ _____ _____    ______ ____

>  <TORSDO>
F 6

$$$$
