=
 OpenBabel11052412453D

 25 29  0  0  1  0  0  0  0  0999 V2000
  187.0790  177.9640  145.4570 C   0  0  0  0  0  0  0  0  0  0  0  0
  188.3320  177.4570  145.0990 C   0  0  0  0  0  0  0  0  0  0  0  0
  187.7490  178.1920  147.7720 C   0  0  0  0  0  3  0  0  0  0  0  0
  185.8060  178.0080  144.7000 C   0  0  1  0  0  3  0  0  0  0  0  0
  183.3020  179.1380  143.8130 C   0  0  0  0  0  2  0  0  0  0  0  0
  189.0290  177.7270  147.4310 C   0  0  0  0  0  3  0  0  0  0  0  0
  184.9900  178.9410  145.5690 C   0  0  1  0  0  3  0  0  0  0  0  0
  183.5230  178.7160  145.2800 C   0  0  0  0  0  2  0  0  0  0  0  0
  190.6020  176.8730  145.7650 C   0  0  0  0  0  0  0  0  0  0  0  0
  191.5780  176.7710  146.7020 F   0  0  0  0  0  0  0  0  0  0  0  0
  188.6130  177.0520  143.7920 C   0  0  0  0  0  3  0  0  0  0  0  0
  184.2910  178.4600  142.8300 C   0  0  0  0  0  2  0  0  0  0  0  0
  186.7910  178.2960  146.7650 C   0  0  0  0  0  0  0  0  0  0  0  0
  185.4480  178.7330  146.9370 N   0  0  0  0  0  2  0  0  0  0  0  0
  190.8720  176.4810  144.4490 C   0  0  0  0  0  3  0  0  0  0  0  0
  185.7600  178.5610  143.2900 C   0  0  0  0  0  2  0  0  0  0  0  0
  189.8840  176.5640  143.4620 C   0  0  0  0  0  0  0  0  0  0  0  0
  189.3310  177.3590  146.1030 C   0  0  0  0  0  0  0  0  0  0  0  0
  190.1940  176.1600  142.1270 N   0  0  0  0  0  2  0  0  0  0  0  0
  191.0140  177.2170  140.9680 S   0  0  0  0  0  0  0  0  0  0  0  0
  187.5940  178.4270  139.6440 N   0  0  0  0  0  0  0  0  0  0  0  0
  188.5540  178.4340  140.5540 N   0  0  0  0  0  2  0  0  0  0  0  0
  187.8870  177.6060  138.6460 N   0  0  0  0  0  0  0  0  0  0  0  0
  189.4900  177.5830  140.1080 C   0  0  0  0  0  0  0  0  0  0  0  0
  189.0870  177.0490  138.9060 C   0  0  0  0  0  3  0  0  0  0  0  0
  1 13  1  0  0  0  0
  2  1  2  0  0  0  0
  2 18  1  0  0  0  0
  4 16  1  6  0  0  0
  4  1  1  0  0  0  0
  4  7  1  0  0  0  0
  5  8  1  0  0  0  0
  6  3  1  0  0  0  0
  7  8  1  1  0  0  0
  7 14  1  0  0  0  0
  9 18  1  0  0  0  0
  9 10  1  0  0  0  0
 11  2  1  0  0  0  0
 12 16  1  0  0  0  0
 12  5  1  0  0  0  0
 13 14  1  0  0  0  0
 13  3  2  0  0  0  0
 15  9  2  0  0  0  0
 17 11  2  0  0  0  0
 17 15  1  0  0  0  0
 18  6  2  0  0  0  0
 19 17  1  0  0  0  0
 20 19  1  0  0  0  0
 21 22  1  0  0  0  0
 23 25  1  0  0  0  0
 23 21  2  0  0  0  0
 24 22  1  0  0  0  0
 24 20  1  0  0  0  0
 25 24  2  0  0  0  0
M  END
>  <MODEL>
1

>  <REMARK>
 VINA RESULT:     -11.0      0.000      0.000
  Name = 
  3 active torsions:
  status: ('A' for Active; 'I' for Inactive)
    1  A    between atoms: N_6  and  S_15
    2  A    between atoms: N_6  and  C_23
    3  A    between atoms: S_15  and  C_21
                            x       y       z     vdW  Elec       q    Type
                         _______ _______ _______ _____ _____    ______ ____

>  <TORSDO>
F 3

$$$$
=
 OpenBabel11052412453D

 25 29  0  0  1  0  0  0  0  0999 V2000
  187.0380  177.9730  145.3150 C   0  0  0  0  0  0  0  0  0  0  0  0
  188.2960  177.4760  144.9600 C   0  0  0  0  0  0  0  0  0  0  0  0
  187.6950  178.1900  147.6350 C   0  0  0  0  0  3  0  0  0  0  0  0
  185.7680  178.0130  144.5520 C   0  0  1  0  0  3  0  0  0  0  0  0
  183.2610  179.1320  143.6610 C   0  0  0  0  0  2  0  0  0  0  0  0
  188.9800  177.7360  147.2970 C   0  0  0  0  0  3  0  0  0  0  0  0
  184.9410  178.9350  145.4240 C   0  0  1  0  0  3  0  0  0  0  0  0
  183.4770  178.7030  145.1270 C   0  0  0  0  0  2  0  0  0  0  0  0
  190.5670  176.9030  145.6320 C   0  0  0  0  0  0  0  0  0  0  0  0
  191.5390  176.8020  146.5730 F   0  0  0  0  0  0  0  0  0  0  0  0
  188.5850  177.0820  143.6510 C   0  0  0  0  0  3  0  0  0  0  0  0
  184.2590  178.4670  142.6790 C   0  0  0  0  0  2  0  0  0  0  0  0
  186.7410  178.2940  146.6240 C   0  0  0  0  0  0  0  0  0  0  0  0
  185.3940  178.7210  146.7920 N   0  0  0  0  0  2  0  0  0  0  0  0
  190.8460  176.5220  144.3160 C   0  0  0  0  0  3  0  0  0  0  0  0
  185.7240  178.5750  143.1460 C   0  0  0  0  0  2  0  0  0  0  0  0
  189.8610  176.6040  143.3240 C   0  0  0  0  0  0  0  0  0  0  0  0
  189.2900  177.3780  145.9680 C   0  0  0  0  0  0  0  0  0  0  0  0
  190.1800  176.2120  141.9890 N   0  0  0  0  0  2  0  0  0  0  0  0
  189.7600  177.1870  140.5720 S   0  0  0  0  0  0  0  0  0  0  0  0
  193.5370  177.2870  139.7690 N   0  0  0  0  0  0  0  0  0  0  0  0
  192.5150  177.5240  140.5760 N   0  0  0  0  0  2  0  0  0  0  0  0
  193.1310  176.7320  138.6360 N   0  0  0  0  0  0  0  0  0  0  0  0
  191.4240  177.0980  139.9240 C   0  0  0  0  0  0  0  0  0  0  0  0
  191.7920  176.5960  138.6960 C   0  0  0  0  0  3  0  0  0  0  0  0
  1 13  1  0  0  0  0
  2  1  2  0  0  0  0
  2 18  1  0  0  0  0
  4 16  1  6  0  0  0
  4  1  1  0  0  0  0
  4  7  1  0  0  0  0
  5  8  1  0  0  0  0
  6  3  1  0  0  0  0
  7  8  1  1  0  0  0
  7 14  1  0  0  0  0
  9 18  1  0  0  0  0
  9 10  1  0  0  0  0
 11  2  1  0  0  0  0
 12 16  1  0  0  0  0
 12  5  1  0  0  0  0
 13 14  1  0  0  0  0
 13  3  2  0  0  0  0
 15  9  2  0  0  0  0
 17 11  2  0  0  0  0
 17 15  1  0  0  0  0
 18  6  2  0  0  0  0
 19 17  1  0  0  0  0
 20 19  1  0  0  0  0
 21 22  1  0  0  0  0
 23 25  1  0  0  0  0
 23 21  2  0  0  0  0
 24 20  1  0  0  0  0
 24 22  1  0  0  0  0
 25 24  2  0  0  0  0
M  END
>  <MODEL>
2

>  <REMARK>
 VINA RESULT:     -10.8      1.582      1.951
  Name = 
  3 active torsions:
  status: ('A' for Active; 'I' for Inactive)
    1  A    between atoms: N_6  and  S_15
    2  A    between atoms: N_6  and  C_23
    3  A    between atoms: S_15  and  C_21
                            x       y       z     vdW  Elec       q    Type
                         _______ _______ _______ _____ _____    ______ ____

>  <TORSDO>
F 3

$$$$
=
 OpenBabel11052412453D

 25 29  0  0  1  0  0  0  0  0999 V2000
  187.4080  177.8050  145.1300 C   0  0  0  0  0  0  0  0  0  0  0  0
  188.6140  177.3330  144.6030 C   0  0  0  0  0  0  0  0  0  0  0  0
  188.3110  177.8270  147.3760 C   0  0  0  0  0  3  0  0  0  0  0  0
  186.0650  177.9140  144.5130 C   0  0  1  0  0  3  0  0  0  0  0  0
  183.4930  179.1140  143.9890 C   0  0  0  0  0  2  0  0  0  0  0  0
  189.5460  177.3960  146.8670 C   0  0  0  0  0  3  0  0  0  0  0  0
  185.3480  178.7640  145.5400 C   0  0  1  0  0  3  0  0  0  0  0  0
  183.8570  178.5640  145.3830 C   0  0  0  0  0  2  0  0  0  0  0  0
  190.9360  176.6960  144.9800 C   0  0  0  0  0  0  0  0  0  0  0  0
  192.0010  176.5130  145.8000 F   0  0  0  0  0  0  0  0  0  0  0  0
  188.7580  177.0470  143.2430 C   0  0  0  0  0  3  0  0  0  0  0  0
  184.3720  178.5270  142.8550 C   0  0  0  0  0  2  0  0  0  0  0  0
  187.2560  178.0180  146.4840 C   0  0  0  0  0  0  0  0  0  0  0  0
  185.9410  178.4360  146.8300 N   0  0  0  0  0  2  0  0  0  0  0  0
  191.0680  176.4230  143.6150 C   0  0  0  0  0  3  0  0  0  0  0  0
  185.8800  178.5900  143.1700 C   0  0  0  0  0  2  0  0  0  0  0  0
  189.9850  176.5910  142.7440 C   0  0  0  0  0  0  0  0  0  0  0  0
  189.7090  177.1480  145.4880 C   0  0  0  0  0  0  0  0  0  0  0  0
  190.1550  176.3080  141.3550 N   0  0  0  0  0  2  0  0  0  0  0  0
  189.8410  177.5000  140.0840 S   0  0  0  0  0  0  0  0  0  0  0  0
  190.7010  174.6540  137.6200 N   0  0  0  0  0  0  0  0  0  0  0  0
  190.9640  175.3740  138.6980 N   0  0  0  0  0  2  0  0  0  0  0  0
  189.5860  175.0620  137.0330 N   0  0  0  0  0  0  0  0  0  0  0  0
  189.9710  176.2710  138.7930 C   0  0  0  0  0  0  0  0  0  0  0  0
  189.0920  176.0910  137.7500 C   0  0  0  0  0  3  0  0  0  0  0  0
  1 13  1  0  0  0  0
  2  1  2  0  0  0  0
  2 18  1  0  0  0  0
  4 16  1  6  0  0  0
  4  1  1  0  0  0  0
  4  7  1  0  0  0  0
  5  8  1  0  0  0  0
  6  3  1  0  0  0  0
  7  8  1  1  0  0  0
  7 14  1  0  0  0  0
  9 18  1  0  0  0  0
  9 10  1  0  0  0  0
 11  2  1  0  0  0  0
 12 16  1  0  0  0  0
 12  5  1  0  0  0  0
 13 14  1  0  0  0  0
 13  3  2  0  0  0  0
 15  9  2  0  0  0  0
 17 11  2  0  0  0  0
 17 15  1  0  0  0  0
 18  6  2  0  0  0  0
 19 17  1  0  0  0  0
 20 19  1  0  0  0  0
 21 22  1  0  0  0  0
 22 24  1  0  0  0  0
 23 21  2  0  0  0  0
 23 25  1  0  0  0  0
 24 20  1  0  0  0  0
 25 24  2  0  0  0  0
M  END
>  <MODEL>
3

>  <REMARK>
 VINA RESULT:     -10.1      1.492      1.726
  Name = 
  3 active torsions:
  status: ('A' for Active; 'I' for Inactive)
    1  A    between atoms: N_6  and  S_15
    2  A    between atoms: N_6  and  C_23
    3  A    between atoms: S_15  and  C_21
                            x       y       z     vdW  Elec       q    Type
                         _______ _______ _______ _____ _____    ______ ____

>  <TORSDO>
F 3

$$$$
=
 OpenBabel11052412453D

 25 29  0  0  1  0  0  0  0  0999 V2000
  187.5490  177.6760  144.8860 C   0  0  0  0  0  0  0  0  0  0  0  0
  186.2820  177.9770  144.3760 C   0  0  0  0  0  0  0  0  0  0  0  0
  186.9120  178.4050  147.1050 C   0  0  0  0  0  3  0  0  0  0  0  0
  188.8130  177.3440  144.1890 C   0  0  1  0  0  3  0  0  0  0  0  0
  191.3280  175.9830  143.7920 C   0  0  0  0  0  2  0  0  0  0  0  0
  185.6180  178.6740  146.6280 C   0  0  0  0  0  3  0  0  0  0  0  0
  189.6580  176.8580  145.3470 C   0  0  1  0  0  3  0  0  0  0  0  0
  191.1170  176.9640  144.9630 C   0  0  0  0  0  2  0  0  0  0  0  0
  184.0090  178.7520  144.7890 C   0  0  0  0  0  0  0  0  0  0  0  0
  183.0430  179.2150  145.6210 F   0  0  0  0  0  0  0  0  0  0  0  0
  185.9770  177.8080  143.0230 C   0  0  0  0  0  3  0  0  0  0  0  0
  190.3140  176.1880  142.6370 C   0  0  0  0  0  2  0  0  0  0  0  0
  187.8600  177.9120  146.2090 C   0  0  0  0  0  0  0  0  0  0  0  0
  189.2130  177.6010  146.5190 N   0  0  0  0  0  2  0  0  0  0  0  0
  183.7150  178.5680  143.4340 C   0  0  0  0  0  3  0  0  0  0  0  0
  188.8530  176.2640  143.1270 C   0  0  0  0  0  2  0  0  0  0  0  0
  184.6930  178.1020  142.5480 C   0  0  0  0  0  0  0  0  0  0  0  0
  185.2940  178.4630  145.2720 C   0  0  0  0  0  0  0  0  0  0  0  0
  184.3580  177.9210  141.1710 N   0  0  0  0  0  2  0  0  0  0  0  0
  184.3060  179.2550  140.0090 S   0  0  0  0  0  0  0  0  0  0  0  0
  187.5020  177.8800  138.3330 N   0  0  0  0  0  0  0  0  0  0  0  0
  186.8870  178.4950  139.3310 N   0  0  0  0  0  2  0  0  0  0  0  0
  186.6430  177.5270  137.3880 N   0  0  0  0  0  0  0  0  0  0  0  0
  185.5880  178.5270  138.9990 C   0  0  0  0  0  0  0  0  0  0  0  0
  185.4140  177.9220  137.7750 C   0  0  0  0  0  3  0  0  0  0  0  0
  1 13  1  0  0  0  0
  2  1  2  0  0  0  0
  2 18  1  0  0  0  0
  4 16  1  6  0  0  0
  4  1  1  0  0  0  0
  4  7  1  0  0  0  0
  5  8  1  0  0  0  0
  6  3  1  0  0  0  0
  7  8  1  6  0  0  0
  7 14  1  0  0  0  0
  9 18  1  0  0  0  0
  9 10  1  0  0  0  0
 11  2  1  0  0  0  0
 12 16  1  0  0  0  0
 12  5  1  0  0  0  0
 13 14  1  0  0  0  0
 13  3  2  0  0  0  0
 15  9  2  0  0  0  0
 17 11  2  0  0  0  0
 17 15  1  0  0  0  0
 18  6  2  0  0  0  0
 19 17  1  0  0  0  0
 20 19  1  0  0  0  0
 21 22  1  0  0  0  0
 23 25  1  0  0  0  0
 23 21  2  0  0  0  0
 24 22  1  0  0  0  0
 24 20  1  0  0  0  0
 25 24  2  0  0  0  0
M  END
>  <MODEL>
4

>  <REMARK>
 VINA RESULT:      -9.9      2.890      5.045
  Name = 
  3 active torsions:
  status: ('A' for Active; 'I' for Inactive)
    1  A    between atoms: N_6  and  S_15
    2  A    between atoms: N_6  and  C_23
    3  A    between atoms: S_15  and  C_21
                            x       y       z     vdW  Elec       q    Type
                         _______ _______ _______ _____ _____    ______ ____

>  <TORSDO>
F 3

$$$$
=
 OpenBabel11052412453D

 25 29  0  0  1  0  0  0  0  0999 V2000
  187.2290  177.9290  145.5000 C   0  0  0  0  0  0  0  0  0  0  0  0
  186.5050  178.2520  144.3480 C   0  0  0  0  0  0  0  0  0  0  0  0
  185.3060  178.3350  146.9140 C   0  0  0  0  0  3  0  0  0  0  0  0
  188.6840  177.7340  145.7000 C   0  0  1  0  0  3  0  0  0  0  0  0
  191.0550  176.5240  146.8150 C   0  0  0  0  0  2  0  0  0  0  0  0
  184.5440  178.6210  145.7690 C   0  0  0  0  0  3  0  0  0  0  0  0
  188.7030  177.1280  147.0870 C   0  0  1  0  0  3  0  0  0  0  0  0
  190.0750  177.3330  147.6890 C   0  0  0  0  0  2  0  0  0  0  0  0
  184.3780  178.8890  143.3440 C   0  0  0  0  0  0  0  0  0  0  0  0
  183.0620  179.2040  143.4440 F   0  0  0  0  0  0  0  0  0  0  0  0
  187.1000  178.2550  143.0840 C   0  0  0  0  0  3  0  0  0  0  0  0
  190.9310  176.8460  145.3040 C   0  0  0  0  0  2  0  0  0  0  0  0
  186.6490  177.9970  146.7500 C   0  0  0  0  0  0  0  0  0  0  0  0
  187.5630  177.6930  147.7970 N   0  0  0  0  0  2  0  0  0  0  0  0
  184.9850  178.8770  142.0840 C   0  0  0  0  0  3  0  0  0  0  0  0
  189.4740  176.8070  144.7990 C   0  0  0  0  0  2  0  0  0  0  0  0
  186.3430  178.5670  141.9480 C   0  0  0  0  0  0  0  0  0  0  0  0
  185.1310  178.5820  144.4870 C   0  0  0  0  0  0  0  0  0  0  0  0
  186.9310  178.5590  140.6470 N   0  0  0  0  0  2  0  0  0  0  0  0
  188.5560  177.9330  140.3280 S   0  0  0  0  0  0  0  0  0  0  0  0
  187.5930  178.7550  136.6790 N   0  0  0  0  0  0  0  0  0  0  0  0
  187.2850  178.6260  137.9600 N   0  0  0  0  0  2  0  0  0  0  0  0
  188.8700  178.4730  136.4640 N   0  0  0  0  0  0  0  0  0  0  0  0
  188.4160  178.2490  138.5740 C   0  0  0  0  0  0  0  0  0  0  0  0
  189.4270  178.1460  137.6460 C   0  0  0  0  0  3  0  0  0  0  0  0
  1  4  1  0  0  0  0
  1 13  1  0  0  0  0
  2 18  1  0  0  0  0
  2  1  2  0  0  0  0
  4 16  1  6  0  0  0
  4  7  1  0  0  0  0
  5  8  1  0  0  0  0
  6  3  1  0  0  0  0
  7  8  1  1  0  0  0
  7 14  1  0  0  0  0
  9 10  1  0  0  0  0
  9 18  1  0  0  0  0
 11  2  1  0  0  0  0
 12  5  1  0  0  0  0
 13  3  2  0  0  0  0
 13 14  1  0  0  0  0
 15  9  2  0  0  0  0
 16 12  1  0  0  0  0
 17 15  1  0  0  0  0
 17 11  2  0  0  0  0
 18  6  2  0  0  0  0
 19 17  1  0  0  0  0
 20 19  1  0  0  0  0
 21 22  1  0  0  0  0
 22 24  1  0  0  0  0
 23 21  2  0  0  0  0
 23 25  1  0  0  0  0
 24 20  1  0  0  0  0
 25 24  2  0  0  0  0
M  END
>  <MODEL>
5

>  <REMARK>
 VINA RESULT:      -9.9      2.434      4.705
  Name = 
  3 active torsions:
  status: ('A' for Active; 'I' for Inactive)
    1  A    between atoms: N_6  and  S_15
    2  A    between atoms: N_6  and  C_23
    3  A    between atoms: S_15  and  C_21
                            x       y       z     vdW  Elec       q    Type
                         _______ _______ _______ _____ _____    ______ ____

>  <TORSDO>
F 3

$$$$
=
 OpenBabel11052412453D

 25 29  0  0  1  0  0  0  0  0999 V2000
  187.0350  178.1890  142.4070 C   0  0  0  0  0  0  0  0  0  0  0  0
  186.6240  178.1210  143.7420 C   0  0  0  0  0  0  0  0  0  0  0  0
  184.9110  179.1270  141.7220 C   0  0  0  0  0  3  0  0  0  0  0  0
  188.2140  177.5980  141.7320 C   0  0  1  0  0  3  0  0  0  0  0  0
  190.4110  177.5050  139.8620 C   0  0  0  0  0  2  0  0  0  0  0  0
  184.4900  179.1110  143.0620 C   0  0  0  0  0  3  0  0  0  0  0  0
  188.1720  178.3200  140.4020 C   0  0  1  0  0  3  0  0  0  0  0  0
  188.9440  177.5110  139.3840 C   0  0  0  0  0  2  0  0  0  0  0  0
  184.9070  178.5760  145.4110 C   0  0  0  0  0  0  0  0  0  0  0  0
  183.6820  179.0410  145.7610 F   0  0  0  0  0  0  0  0  0  0  0  0
  187.4470  177.5870  144.7370 C   0  0  0  0  0  3  0  0  0  0  0  0
  190.5680  177.0540  141.3370 C   0  0  0  0  0  2  0  0  0  0  0  0
  186.1880  178.6550  141.4230 C   0  0  0  0  0  0  0  0  0  0  0  0
  186.7660  178.5870  140.1240 N   0  0  0  0  0  2  0  0  0  0  0  0
  185.7460  178.0470  146.3980 C   0  0  0  0  0  3  0  0  0  0  0  0
  189.6080  177.7870  142.2950 C   0  0  0  0  0  2  0  0  0  0  0  0
  187.0120  177.5490  146.0670 C   0  0  0  0  0  0  0  0  0  0  0  0
  185.3350  178.6130  144.0750 C   0  0  0  0  0  0  0  0  0  0  0  0
  187.8460  177.0210  147.1000 N   0  0  0  0  0  2  0  0  0  0  0  0
  189.1050  177.9720  147.9010 S   0  0  0  0  0  0  0  0  0  0  0  0
  191.6540  176.4450  145.4340 N   0  0  0  0  0  0  0  0  0  0  0  0
  190.6000  177.2020  145.6940 N   0  0  0  0  0  0  0  0  0  0  0  0
  192.1330  175.8970  146.5420 N   0  0  0  0  0  2  0  0  0  0  0  0
  190.4110  177.1280  147.0190 C   0  0  0  0  0  0  0  0  0  0  0  0
  191.3670  176.3080  147.5720 C   0  0  0  0  0  3  0  0  0  0  0  0
  1  2  1  0  0  0  0
  2 18  2  0  0  0  0
  2 11  1  0  0  0  0
  3  6  2  0  0  0  0
  4 16  1  1  0  0  0
  4  1  1  0  0  0  0
  5 12  1  0  0  0  0
  6 18  1  0  0  0  0
  7  8  1  6  0  0  0
  7  4  1  0  0  0  0
  8  5  1  0  0  0  0
  9 10  1  0  0  0  0
  9 15  2  0  0  0  0
 11 17  2  0  0  0  0
 12 16  1  0  0  0  0
 13  3  1  0  0  0  0
 13  1  2  0  0  0  0
 14  7  1  0  0  0  0
 14 13  1  0  0  0  0
 17 15  1  0  0  0  0
 17 19  1  0  0  0  0
 18  9  1  0  0  0  0
 19 20  1  0  0  0  0
 21 22  2  0  0  0  0
 21 23  1  0  0  0  0
 22 24  1  0  0  0  0
 23 25  1  0  0  0  0
 24 25  2  0  0  0  0
 24 20  1  0  0  0  0
M  END
>  <MODEL>
6

>  <REMARK>
 VINA RESULT:      -9.8      2.926      6.274
  Name = 
  3 active torsions:
  status: ('A' for Active; 'I' for Inactive)
    1  A    between atoms: N_6  and  S_15
    2  A    between atoms: N_6  and  C_23
    3  A    between atoms: S_15  and  C_21
                            x       y       z     vdW  Elec       q    Type
                         _______ _______ _______ _____ _____    ______ ____

>  <TORSDO>
F 3

$$$$
=
 OpenBabel11052412453D

 25 29  0  0  1  0  0  0  0  0999 V2000
  187.5910  177.7050  145.0290 C   0  0  0  0  0  0  0  0  0  0  0  0
  186.3740  178.0280  144.4210 C   0  0  0  0  0  0  0  0  0  0  0  0
  186.7350  178.2740  147.2200 C   0  0  0  0  0  3  0  0  0  0  0  0
  188.9210  177.4330  144.4350 C   0  0  1  0  0  3  0  0  0  0  0  0
  191.4830  176.1260  144.1910 C   0  0  0  0  0  2  0  0  0  0  0  0
  185.4880  178.5630  146.6410 C   0  0  0  0  0  3  0  0  0  0  0  0
  189.6600  176.8770  145.6340 C   0  0  1  0  0  3  0  0  0  0  0  0
  191.1470  177.0230  145.4000 C   0  0  0  0  0  2  0  0  0  0  0  0
  184.0600  178.7520  144.6650 C   0  0  0  0  0  0  0  0  0  0  0  0
  183.0120  179.1480  145.4300 F   0  0  0  0  0  0  0  0  0  0  0  0
  186.2020  177.9500  143.0370 C   0  0  0  0  0  3  0  0  0  0  0  0
  190.5810  176.4000  142.9600 C   0  0  0  0  0  2  0  0  0  0  0  0
  187.7710  177.8520  146.3880 C   0  0  0  0  0  0  0  0  0  0  0  0
  189.0940  177.5330  146.8050 N   0  0  0  0  0  2  0  0  0  0  0  0
  183.8990  178.6600  143.2780 C   0  0  0  0  0  3  0  0  0  0  0  0
  189.0790  176.4290  143.3120 C   0  0  0  0  0  2  0  0  0  0  0  0
  184.9640  178.2650  142.4610 C   0  0  0  0  0  0  0  0  0  0  0  0
  185.2980  178.4430  145.2480 C   0  0  0  0  0  0  0  0  0  0  0  0
  184.7660  178.1760  141.0490 N   0  0  0  0  0  2  0  0  0  0  0  0
  183.2270  177.6880  140.3220 S   0  0  0  0  0  0  0  0  0  0  0  0
  183.4280  181.1740  138.6730 N   0  0  0  0  0  0  0  0  0  0  0  0
  184.0010  180.1140  139.2190 N   0  0  0  0  0  2  0  0  0  0  0  0
  182.1100  181.0430  138.6450 N   0  0  0  0  0  0  0  0  0  0  0  0
  183.0020  179.2820  139.5450 C   0  0  0  0  0  0  0  0  0  0  0  0
  181.8000  179.8510  139.1920 C   0  0  0  0  0  3  0  0  0  0  0  0
  1 13  1  0  0  0  0
  2  1  2  0  0  0  0
  2 18  1  0  0  0  0
  4 16  1  6  0  0  0
  4  1  1  0  0  0  0
  4  7  1  0  0  0  0
  5  8  1  0  0  0  0
  6  3  1  0  0  0  0
  7  8  1  6  0  0  0
  7 14  1  0  0  0  0
  9 18  1  0  0  0  0
  9 10  1  0  0  0  0
 11  2  1  0  0  0  0
 12 16  1  0  0  0  0
 12  5  1  0  0  0  0
 13 14  1  0  0  0  0
 13  3  2  0  0  0  0
 15  9  2  0  0  0  0
 17 11  2  0  0  0  0
 17 15  1  0  0  0  0
 18  6  2  0  0  0  0
 19 17  1  0  0  0  0
 20 19  1  0  0  0  0
 21 22  1  0  0  0  0
 22 24  1  0  0  0  0
 23 21  2  0  0  0  0
 23 25  1  0  0  0  0
 24 20  1  0  0  0  0
 25 24  2  0  0  0  0
M  END
>  <MODEL>
7

>  <REMARK>
 VINA RESULT:      -9.7      3.414      5.672
  Name = 
  3 active torsions:
  status: ('A' for Active; 'I' for Inactive)
    1  A    between atoms: N_6  and  S_15
    2  A    between atoms: N_6  and  C_23
    3  A    between atoms: S_15  and  C_21
                            x       y       z     vdW  Elec       q    Type
                         _______ _______ _______ _____ _____    ______ ____

>  <TORSDO>
F 3

$$$$
=
 OpenBabel11052412453D

 25 29  0  0  1  0  0  0  0  0999 V2000
  186.0010  178.2540  144.6860 C   0  0  0  0  0  0  0  0  0  0  0  0
  187.2720  177.8620  145.1160 C   0  0  0  0  0  0  0  0  0  0  0  0
  185.2600  178.6150  146.9620 C   0  0  0  0  0  3  0  0  0  0  0  0
  185.3600  178.1490  143.3540 C   0  0  1  0  0  3  0  0  0  0  0  0
  183.6980  178.9980  141.1520 C   0  0  0  0  0  2  0  0  0  0  0  0
  186.5420  178.2690  147.4180 C   0  0  0  0  0  3  0  0  0  0  0  0
  184.1400  179.0220  143.5550 C   0  0  1  0  0  3  0  0  0  0  0  0
  183.0960  178.6440  142.5280 C   0  0  0  0  0  2  0  0  0  0  0  0
  188.8270  177.5260  146.9620 C   0  0  0  0  0  0  0  0  0  0  0  0
  189.1250  177.5490  148.2860 F   0  0  0  0  0  0  0  0  0  0  0  0
  188.2560  177.4490  144.2140 C   0  0  0  0  0  3  0  0  0  0  0  0
  185.1080  178.3920  140.9310 C   0  0  0  0  0  2  0  0  0  0  0  0
  185.0150  178.5930  145.5900 C   0  0  0  0  0  0  0  0  0  0  0  0
  183.7760  178.9010  144.9610 N   0  0  0  0  0  2  0  0  0  0  0  0
  189.8050  177.1240  146.0470 C   0  0  0  0  0  3  0  0  0  0  0  0
  186.0650  178.6520  142.1120 C   0  0  0  0  0  2  0  0  0  0  0  0
  189.5260  177.0790  144.6770 C   0  0  0  0  0  0  0  0  0  0  0  0
  187.5520  177.8930  146.5080 C   0  0  0  0  0  0  0  0  0  0  0  0
  190.5490  176.6680  143.7680 N   0  0  0  0  0  2  0  0  0  0  0  0
  191.6820  177.8030  143.0180 S   0  0  0  0  0  0  0  0  0  0  0  0
  189.9950  176.6580  139.7370 N   0  0  0  0  0  0  0  0  0  0  0  0
  189.9530  176.9210  141.0340 N   0  0  0  0  0  2  0  0  0  0  0  0
  191.2050  176.8780  139.2450 N   0  0  0  0  0  0  0  0  0  0  0  0
  191.1880  177.3230  141.3680 C   0  0  0  0  0  0  0  0  0  0  0  0
  191.9930  177.3010  140.2520 C   0  0  0  0  0  3  0  0  0  0  0  0
  1  2  2  0  0  0  0
  1 13  1  0  0  0  0
  2 18  1  0  0  0  0
  3  6  1  0  0  0  0
  4 16  1  6  0  0  0
  4  7  1  0  0  0  0
  4  1  1  0  0  0  0
  5  8  1  0  0  0  0
  7  8  1  6  0  0  0
  7 14  1  0  0  0  0
  9 10  1  0  0  0  0
 11 17  2  0  0  0  0
 11  2  1  0  0  0  0
 12  5  1  0  0  0  0
 12 16  1  0  0  0  0
 13  3  2  0  0  0  0
 14 13  1  0  0  0  0
 15  9  2  0  0  0  0
 17 15  1  0  0  0  0
 18  9  1  0  0  0  0
 18  6  2  0  0  0  0
 19 17  1  0  0  0  0
 20 19  1  0  0  0  0
 21 22  1  0  0  0  0
 22 24  1  0  0  0  0
 23 21  2  0  0  0  0
 23 25  1  0  0  0  0
 24 20  1  0  0  0  0
 25 24  2  0  0  0  0
M  END
>  <MODEL>
8

>  <REMARK>
 VINA RESULT:      -9.6      1.684      2.263
  Name = 
  3 active torsions:
  status: ('A' for Active; 'I' for Inactive)
    1  A    between atoms: N_6  and  S_15
    2  A    between atoms: N_6  and  C_23
    3  A    between atoms: S_15  and  C_21
                            x       y       z     vdW  Elec       q    Type
                         _______ _______ _______ _____ _____    ______ ____

>  <TORSDO>
F 3

$$$$
=
 OpenBabel11052412453D

 25 29  0  0  1  0  0  0  0  0999 V2000
  187.6080  177.6730  145.0560 C   0  0  0  0  0  0  0  0  0  0  0  0
  186.3560  178.0160  144.5360 C   0  0  0  0  0  0  0  0  0  0  0  0
  186.9200  178.2530  147.3030 C   0  0  0  0  0  3  0  0  0  0  0  0
  188.8880  177.3810  144.3680 C   0  0  1  0  0  3  0  0  0  0  0  0
  191.4060  176.0360  143.9420 C   0  0  0  0  0  2  0  0  0  0  0  0
  185.6400  178.5610  146.8140 C   0  0  0  0  0  3  0  0  0  0  0  0
  189.7020  176.8130  145.5110 C   0  0  1  0  0  3  0  0  0  0  0  0
  191.1710  176.9360  145.1720 C   0  0  0  0  0  2  0  0  0  0  0  0
  184.0770  178.7740  144.9460 C   0  0  0  0  0  0  0  0  0  0  0  0
  183.0920  179.1850  145.7830 F   0  0  0  0  0  0  0  0  0  0  0  0
  186.0840  177.9420  143.1680 C   0  0  0  0  0  3  0  0  0  0  0  0
  190.4220  176.3250  142.7790 C   0  0  0  0  0  2  0  0  0  0  0  0
  187.8870  177.8160  146.3990 C   0  0  0  0  0  0  0  0  0  0  0  0
  189.2310  177.4760  146.7200 N   0  0  0  0  0  2  0  0  0  0  0  0
  183.8160  178.6860  143.5740 C   0  0  0  0  0  3  0  0  0  0  0  0
  188.9500  176.3760  143.2360 C   0  0  0  0  0  2  0  0  0  0  0  0
  184.8130  178.2760  142.6820 C   0  0  0  0  0  0  0  0  0  0  0  0
  185.3480  178.4460  145.4390 C   0  0  0  0  0  0  0  0  0  0  0  0
  184.5130  178.1910  141.2890 N   0  0  0  0  0  2  0  0  0  0  0  0
  182.9030  178.5150  140.6290 S   0  0  0  0  0  0  0  0  0  0  0  0
  182.9990  175.4150  138.3270 N   0  0  0  0  0  0  0  0  0  0  0  0
  182.6800  176.0040  139.4690 N   0  0  0  0  0  2  0  0  0  0  0  0
  183.5960  176.2640  137.5030 N   0  0  0  0  0  0  0  0  0  0  0  0
  183.0910  177.2750  139.3560 C   0  0  0  0  0  0  0  0  0  0  0  0
  183.6730  177.4590  138.1220 C   0  0  0  0  0  3  0  0  0  0  0  0
  1 13  1  0  0  0  0
  2  1  2  0  0  0  0
  2 18  1  0  0  0  0
  4 16  1  6  0  0  0
  4  1  1  0  0  0  0
  4  7  1  0  0  0  0
  5  8  1  0  0  0  0
  6  3  1  0  0  0  0
  7  8  1  6  0  0  0
  7 14  1  0  0  0  0
  9 18  1  0  0  0  0
  9 10  1  0  0  0  0
 11  2  1  0  0  0  0
 12 16  1  0  0  0  0
 12  5  1  0  0  0  0
 13 14  1  0  0  0  0
 13  3  2  0  0  0  0
 15  9  2  0  0  0  0
 17 11  2  0  0  0  0
 17 15  1  0  0  0  0
 18  6  2  0  0  0  0
 19 17  1  0  0  0  0
 20 19  1  0  0  0  0
 21 22  1  0  0  0  0
 23 25  1  0  0  0  0
 23 21  2  0  0  0  0
 24 22  1  0  0  0  0
 24 20  1  0  0  0  0
 25 24  2  0  0  0  0
M  END
>  <MODEL>
9

>  <REMARK>
 VINA RESULT:      -9.4      3.487      5.563
  Name = 
  3 active torsions:
  status: ('A' for Active; 'I' for Inactive)
    1  A    between atoms: N_6  and  S_15
    2  A    between atoms: N_6  and  C_23
    3  A    between atoms: S_15  and  C_21
                            x       y       z     vdW  Elec       q    Type
                         _______ _______ _______ _____ _____    ______ ____

>  <TORSDO>
F 3

$$$$
