=
 OpenBabel11052416033D

 34 40  0  0  1  0  0  0  0  0999 V2000
  186.3500  177.3650  136.8170 C   0  0  1  0  0  3  0  0  0  0  0  0
  187.3830  177.6780  139.2220 C   0  0  1  0  0  3  0  0  0  0  0  0
  185.0930  173.4560  135.3900 C   0  0  2  0  0  3  0  0  0  0  0  0
  185.1280  178.6160  138.7020 C   0  0  0  0  0  0  0  0  0  0  0  0
  185.4070  173.9400  137.9010 C   0  0  0  0  0  2  0  0  0  0  0  0
  188.6810  173.8180  135.3660 N   0  0  0  0  0  0  0  0  0  0  0  0
  184.7260  175.8310  136.2970 C   0  0  1  0  0  0  0  0  0  0  0  0
  186.0610  176.2210  136.0390 O   0  0  0  0  0  0  0  0  0  0  0  0
  184.2210  176.6330  137.4980 C   0  0  2  0  0  3  0  0  0  0  0  0
  188.2070  172.5360  135.7780 C   0  0  0  0  0  0  0  0  0  0  0  0
  182.1870  178.2060  137.9380 C   0  0  0  0  0  2  0  0  0  0  0  0
  188.6980  175.3110  135.4160 C   0  0  2  0  0  3  0  0  0  0  0  0
  188.7770  171.4980  135.3480 O   0  0  0  0  0  0  0  0  0  0  0  0
  185.7490  172.1460  135.8150 C   0  0  0  0  0  2  0  0  0  0  0  0
  182.6870  176.8120  137.5580 C   0  0  0  0  0  2  0  0  0  0  0  0
  183.9000  176.1500  135.0450 C   0  0  0  0  0  1  0  0  0  0  0  0
  183.9790  179.4710  139.1320 C   0  0  0  0  0  2  0  0  0  0  0  0
  185.0400  177.8780  137.3990 C   0  0  2  0  0  3  0  0  0  0  0  0
  189.6130  174.6880  134.5940 C   0  0  0  0  0  2  0  0  0  0  0  0
  182.7080  178.6480  139.2980 C   0  0  0  0  0  2  0  0  0  0  0  0
  188.8950  178.6270  139.5300 S   0  0  0  0  0  0  0  0  0  0  0  0
  189.8150  177.4820  138.4730 C   0  0  2  0  0  3  0  0  0  0  0  0
  186.8680  173.5880  137.6260 C   0  0  0  0  0  2  0  0  0  0  0  0
  188.9050  177.0760  137.2980 C   0  0  2  0  0  0  0  0  0  0  0  0
  187.0030  172.4010  136.6590 C   0  0  2  0  0  3  0  0  0  0  0  0
  189.3730  175.7300  136.7110 C   0  0  0  0  0  2  0  0  0  0  0  0
  184.6640  174.3160  136.6010 C   0  0  1  0  0  3  0  0  0  0  0  0
  183.9820  173.1760  134.5940 O   0  0  0  0  0  1  0  0  0  0  0  0
  186.1850  178.5250  139.5060 C   0  0  0  0  0  3  0  0  0  0  0  0
  189.0570  178.1690  136.2410 C   0  0  0  0  0  1  0  0  0  0  0  0
  187.4540  177.0010  137.8430 C   0  0  2  0  0  3  0  0  0  0  0  0
  190.3490  176.3470  139.3060 C   0  0  0  0  0  0  0  0  0  0  0  0
  190.9300  175.3660  138.7680 O   0  0  0  0  0  0  0  0  0  0  0  0
  190.1810  176.3740  140.6850 O   0  0  0  0  0  1  0  0  0  0  0  0
  1  8  1  1  0  0  0
  1 18  1  0  0  0  0
  1 31  1  0  0  0  0
  2 29  1  6  0  0  0
  2 21  1  0  0  0  0
  3 28  1  1  0  0  0
  3 14  1  0  0  0  0
  3 27  1  0  0  0  0
  4 17  1  0  0  0  0
  4 29  2  0  0  0  0
  6 12  1  0  0  0  0
  6 10  1  0  0  0  0
  7 16  1  6  0  0  0
  7 27  1  0  0  0  0
  7  9  1  0  0  0  0
  8  7  1  0  0  0  0
  9 15  1  6  0  0  0
 10 25  1  0  0  0  0
 11 20  1  0  0  0  0
 12 19  1  6  0  0  0
 12 26  1  0  0  0  0
 13 10  2  0  0  0  0
 15 11  1  0  0  0  0
 17 20  1  0  0  0  0
 18  9  1  0  0  0  0
 18  4  1  1  0  0  0
 19  6  1  0  0  0  0
 22 32  1  1  0  0  0
 22 21  1  0  0  0  0
 23  5  1  0  0  0  0
 24 30  1  6  0  0  0
 24 31  1  0  0  0  0
 24 22  1  0  0  0  0
 25 14  1  6  0  0  0
 25 23  1  0  0  0  0
 26 24  1  0  0  0  0
 27  5  1  1  0  0  0
 31  2  1  0  0  0  0
 32 34  1  0  0  0  0
 33 32  2  0  0  0  0
M  END
>  <MODEL>
1

>  <REMARK>
 VINA RESULT:      -5.6      0.000      0.000
  Name = 
  1 active torsions:
  status: ('A' for Active; 'I' for Inactive)
    1  A    between atoms: C_3  and  C_25
                            x       y       z     vdW  Elec       q    Type
                         _______ _______ _______ _____ _____    ______ ____

>  <TORSDO>
F 1

$$$$
=
 OpenBabel11052416033D

 34 40  0  0  1  0  0  0  0  0999 V2000
  186.2100  178.0040  137.6180 C   0  0  1  0  0  3  0  0  0  0  0  0
  187.4070  177.7470  139.9520 C   0  0  1  0  0  3  0  0  0  0  0  0
  184.8960  174.5290  135.3600 C   0  0  2  0  0  3  0  0  0  0  0  0
  185.1120  178.7210  139.8290 C   0  0  0  0  0  0  0  0  0  0  0  0
  185.3830  174.3930  137.8860 C   0  0  0  0  0  2  0  0  0  0  0  0
  188.4700  174.9850  135.1880 N   0  0  0  0  0  0  0  0  0  0  0  0
  184.5690  176.5980  136.8450 C   0  0  1  0  0  0  0  0  0  0  0  0
  185.8790  177.0780  136.6030 O   0  0  0  0  0  0  0  0  0  0  0  0
  184.1430  177.0690  138.2370 C   0  0  2  0  0  3  0  0  0  0  0  0
  188.0400  173.6290  135.3030 C   0  0  0  0  0  0  0  0  0  0  0  0
  182.1280  178.4290  139.1830 C   0  0  0  0  0  2  0  0  0  0  0  0
  188.4750  176.4210  135.6030 C   0  0  2  0  0  3  0  0  0  0  0  0
  188.5890  172.7440  134.5940 O   0  0  0  0  0  0  0  0  0  0  0  0
  185.5950  173.1740  135.4050 C   0  0  0  0  0  2  0  0  0  0  0  0
  182.6150  177.1850  138.4400 C   0  0  0  0  0  2  0  0  0  0  0  0
  183.6540  177.1920  135.7670 C   0  0  0  0  0  1  0  0  0  0  0  0
  183.9860  179.4120  140.5310 C   0  0  0  0  0  2  0  0  0  0  0  0
  184.9390  178.3220  138.3930 C   0  0  2  0  0  3  0  0  0  0  0  0
  189.3360  176.0430  134.5940 C   0  0  0  0  0  2  0  0  0  0  0  0
  182.7400  178.5390  140.5730 C   0  0  0  0  0  2  0  0  0  0  0  0
  188.9270  178.6340  140.3840 S   0  0  0  0  0  0  0  0  0  0  0  0
  189.7820  177.8080  139.0190 C   0  0  2  0  0  3  0  0  0  0  0  0
  186.8240  174.1600  137.4370 C   0  0  0  0  0  2  0  0  0  0  0  0
  188.7950  177.6760  137.8430 C   0  0  2  0  0  0  0  0  0  0  0  0
  186.9040  173.2490  136.2010 C   0  0  2  0  0  3  0  0  0  0  0  0
  189.2350  176.5290  136.9140 C   0  0  0  0  0  2  0  0  0  0  0  0
  184.5450  175.0550  136.7700 C   0  0  1  0  0  3  0  0  0  0  0  0
  183.7350  174.4210  134.5940 O   0  0  0  0  0  1  0  0  0  0  0  0
  186.2230  178.4660  140.5140 C   0  0  0  0  0  3  0  0  0  0  0  0
  188.8600  178.9990  137.0800 C   0  0  0  0  0  1  0  0  0  0  0  0
  187.3880  177.4300  138.4470 C   0  0  2  0  0  3  0  0  0  0  0  0
  190.3860  176.5190  139.5110 C   0  0  0  0  0  0  0  0  0  0  0  0
  190.9500  175.7230  138.7120 O   0  0  0  0  0  0  0  0  0  0  0  0
  190.3020  176.1960  140.8590 O   0  0  0  0  0  1  0  0  0  0  0  0
  1  8  1  6  0  0  0
  1 18  1  0  0  0  0
  1 31  1  0  0  0  0
  2 21  1  0  0  0  0
  2 29  1  6  0  0  0
  3 28  1  6  0  0  0
  3 14  1  0  0  0  0
  3 27  1  0  0  0  0
  4 29  2  0  0  0  0
  4 17  1  0  0  0  0
  6 10  1  0  0  0  0
  6 12  1  0  0  0  0
  7 16  1  6  0  0  0
  7  9  1  0  0  0  0
  8  7  1  0  0  0  0
  9 18  1  0  0  0  0
  9 15  1  6  0  0  0
 10 25  1  0  0  0  0
 11 20  1  0  0  0  0
 12 19  1  6  0  0  0
 12 26  1  0  0  0  0
 13 10  2  0  0  0  0
 15 11  1  0  0  0  0
 17 20  1  0  0  0  0
 18  4  1  1  0  0  0
 19  6  1  0  0  0  0
 22 32  1  1  0  0  0
 22 21  1  0  0  0  0
 23  5  1  0  0  0  0
 24 30  1  6  0  0  0
 24 31  1  0  0  0  0
 24 22  1  0  0  0  0
 25 14  1  6  0  0  0
 25 23  1  0  0  0  0
 26 24  1  0  0  0  0
 27  7  1  0  0  0  0
 27  5  1  1  0  0  0
 31  2  1  0  0  0  0
 32 34  1  0  0  0  0
 33 32  2  0  0  0  0
M  END
>  <MODEL>
2

>  <REMARK>
 VINA RESULT:      -5.3      0.958      1.012
  Name = 
  1 active torsions:
  status: ('A' for Active; 'I' for Inactive)
    1  A    between atoms: C_3  and  C_25
                            x       y       z     vdW  Elec       q    Type
                         _______ _______ _______ _____ _____    ______ ____

>  <TORSDO>
F 1

$$$$
=
 OpenBabel11052416033D

 34 40  0  0  1  0  0  0  0  0999 V2000
  188.9000  178.5880  140.6850 C   0  0  1  0  0  3  0  0  0  0  0  0
  188.3050  176.8810  142.6040 C   0  0  1  0  0  3  0  0  0  0  0  0
  190.0630  177.2190  136.7260 C   0  0  2  0  0  3  0  0  0  0  0  0
  186.5170  178.3090  141.6070 C   0  0  0  0  0  0  0  0  0  0  0  0
  188.7980  175.6880  138.3660 C   0  0  0  0  0  2  0  0  0  0  0  0
  192.7130  176.8020  139.1360 N   0  0  0  0  0  0  0  0  0  0  0  0
  188.4640  178.2350  138.4600 C   0  0  1  0  0  0  0  0  0  0  0  0
  189.4930  178.4310  139.4120 O   0  0  0  0  0  0  0  0  0  0  0  0
  187.1540  178.0100  139.2180 C   0  0  2  0  0  3  0  0  0  0  0  0
  192.5780  175.7350  138.1980 C   0  0  0  0  0  0  0  0  0  0  0  0
  184.8020  179.1370  139.2030 C   0  0  0  0  0  2  0  0  0  0  0  0
  192.1760  177.7670  140.1430 C   0  0  2  0  0  3  0  0  0  0  0  0
  193.6100  175.2380  137.6740 O   0  0  0  0  0  0  0  0  0  0  0  0
  190.8020  175.9110  136.4630 C   0  0  0  0  0  2  0  0  0  0  0  0
  185.8780  178.3770  138.4270 C   0  0  0  0  0  2  0  0  0  0  0  0
  188.3830  179.5020  137.6010 C   0  0  0  0  0  1  0  0  0  0  0  0
  185.1020  178.7930  141.6580 C   0  0  0  0  0  2  0  0  0  0  0  0
  187.4010  178.7630  140.4840 C   0  0  2  0  0  3  0  0  0  0  0  0
  193.5370  177.7640  139.9230 C   0  0  0  0  0  2  0  0  0  0  0  0
  184.3240  178.3620  140.4230 C   0  0  0  0  0  2  0  0  0  0  0  0
  188.9730  177.0130  144.2830 S   0  0  0  0  0  0  0  0  0  0  0  0
  190.6460  176.8270  143.6190 C   0  0  2  0  0  3  0  0  0  0  0  0
  190.1930  175.3720  138.9030 C   0  0  0  0  0  2  0  0  0  0  0  0
  190.7130  177.5660  142.2690 C   0  0  2  0  0  0  0  0  0  0  0  0
  191.2290  175.2410  137.7750 C   0  0  2  0  0  3  0  0  0  0  0  0
  191.8580  176.9940  141.4120 C   0  0  0  0  0  2  0  0  0  0  0  0
  188.7870  177.0120  137.5720 C   0  0  1  0  0  3  0  0  0  0  0  0
  189.7300  177.8110  135.5070 O   0  0  0  0  0  1  0  0  0  0  0  0
  186.9340  177.4740  142.5540 C   0  0  0  0  0  3  0  0  0  0  0  0
  191.0100  179.0290  142.5970 C   0  0  0  0  0  1  0  0  0  0  0  0
  189.3320  177.4000  141.5830 C   0  0  2  0  0  3  0  0  0  0  0  0
  191.0120  175.3660  143.5800 C   0  0  0  0  0  0  0  0  0  0  0  0
  190.2620  174.5260  143.0130 O   0  0  0  0  0  0  0  0  0  0  0  0
  192.1820  174.9390  144.1950 O   0  0  0  0  0  1  0  0  0  0  0  0
  1  8  1  6  0  0  0
  1 31  1  0  0  0  0
  2 29  1  1  0  0  0
  2 21  1  0  0  0  0
  3 28  1  6  0  0  0
  3 27  1  0  0  0  0
  4 17  1  0  0  0  0
  4 29  2  0  0  0  0
  5 23  1  0  0  0  0
  6 19  1  0  0  0  0
  6 12  1  0  0  0  0
  7 16  1  6  0  0  0
  7  9  1  0  0  0  0
  7  8  1  0  0  0  0
  9 15  1  6  0  0  0
  9 18  1  0  0  0  0
 10  6  1  0  0  0  0
 11 20  1  0  0  0  0
 12 19  1  1  0  0  0
 12 26  1  0  0  0  0
 13 10  2  0  0  0  0
 14  3  1  0  0  0  0
 15 11  1  0  0  0  0
 18  1  1  0  0  0  0
 18  4  1  1  0  0  0
 20 17  1  0  0  0  0
 22 32  1  6  0  0  0
 22 21  1  0  0  0  0
 24 30  1  1  0  0  0
 24 22  1  0  0  0  0
 25 14  1  6  0  0  0
 25 10  1  0  0  0  0
 25 23  1  0  0  0  0
 26 24  1  0  0  0  0
 27  5  1  1  0  0  0
 27  7  1  0  0  0  0
 31 24  1  0  0  0  0
 31  2  1  0  0  0  0
 32 34  1  0  0  0  0
 33 32  2  0  0  0  0
M  END
>  <MODEL>
3

>  <REMARK>
 VINA RESULT:      -4.9      3.523      5.066
  Name = 
  1 active torsions:
  status: ('A' for Active; 'I' for Inactive)
    1  A    between atoms: C_3  and  C_25
                            x       y       z     vdW  Elec       q    Type
                         _______ _______ _______ _____ _____    ______ ____

>  <TORSDO>
F 1

$$$$
=
 OpenBabel11052416033D

 34 40  0  0  1  0  0  0  0  0999 V2000
  183.8330  175.7860  136.2490 C   0  0  1  0  0  3  0  0  0  0  0  0
  184.0970  176.9760  138.5860 C   0  0  1  0  0  3  0  0  0  0  0  0
  185.5900  171.8820  135.4900 C   0  0  2  0  0  3  0  0  0  0  0  0
  181.8620  176.1330  137.8620 C   0  0  0  0  0  0  0  0  0  0  0  0
  185.1890  172.7400  137.8860 C   0  0  0  0  0  2  0  0  0  0  0  0
  188.0640  174.5060  135.4830 N   0  0  0  0  0  0  0  0  0  0  0  0
  183.6650  173.5150  135.9660 C   0  0  1  0  0  0  0  0  0  0  0  0
  184.4530  174.6540  135.6730 O   0  0  0  0  0  0  0  0  0  0  0  0
  182.6120  173.9210  136.9990 C   0  0  2  0  0  3  0  0  0  0  0  0
  188.4790  173.2880  136.1000 C   0  0  0  0  0  0  0  0  0  0  0  0
  180.0080  173.8070  137.1140 C   0  0  0  0  0  2  0  0  0  0  0  0
  187.1080  175.6360  135.2750 C   0  0  2  0  0  3  0  0  0  0  0  0
  189.6330  172.8390  135.8680 O   0  0  0  0  0  0  0  0  0  0  0  0
  186.8730  171.3870  136.1500 C   0  0  0  0  0  2  0  0  0  0  0  0
  181.3330  173.0530  136.9920 C   0  0  0  0  0  2  0  0  0  0  0  0
  183.0000  173.0660  134.6590 C   0  0  0  0  0  1  0  0  0  0  0  0
  180.3880  176.0640  138.1120 C   0  0  0  0  0  2  0  0  0  0  0  0
  182.4390  175.3740  136.7040 C   0  0  2  0  0  3  0  0  0  0  0  0
  188.3060  175.6770  134.5940 C   0  0  0  0  0  2  0  0  0  0  0  0
  179.9400  174.6360  138.3890 C   0  0  0  0  0  2  0  0  0  0  0  0
  184.5850  178.7120  138.7590 S   0  0  0  0  0  0  0  0  0  0  0  0
  186.1530  178.3410  137.9350 C   0  0  2  0  0  3  0  0  0  0  0  0
  186.5510  173.4060  137.7090 C   0  0  0  0  0  2  0  0  0  0  0  0
  185.8820  177.3040  136.8290 C   0  0  2  0  0  0  0  0  0  0  0  0
  187.5450  172.4990  136.9650 C   0  0  2  0  0  3  0  0  0  0  0  0
  187.1780  176.5410  136.4940 C   0  0  0  0  0  2  0  0  0  0  0  0
  184.5550  172.3810  136.5240 C   0  0  1  0  0  3  0  0  0  0  0  0
  185.0370  170.8520  134.7300 O   0  0  0  0  0  1  0  0  0  0  0  0
  182.6110  176.8530  138.6930 C   0  0  0  0  0  3  0  0  0  0  0  0
  185.4300  178.0960  135.6020 C   0  0  0  0  0  1  0  0  0  0  0  0
  184.7660  176.3590  137.3460 C   0  0  2  0  0  3  0  0  0  0  0  0
  187.1790  177.9430  138.9640 C   0  0  0  0  0  0  0  0  0  0  0  0
  187.1710  178.4520  140.1170 O   0  0  0  0  0  1  0  0  0  0  0  0
  188.1570  177.0150  138.6300 O   0  0  0  0  0  0  0  0  0  0  0  0
  1  8  1  1  0  0  0
  1 18  1  0  0  0  0
  1 31  1  0  0  0  0
  2 29  1  6  0  0  0
  2 21  1  0  0  0  0
  3 28  1  1  0  0  0
  3 14  1  0  0  0  0
  3 27  1  0  0  0  0
  4 17  1  0  0  0  0
  4 29  2  0  0  0  0
  6 10  1  0  0  0  0
  7 16  1  6  0  0  0
  7 27  1  0  0  0  0
  7  9  1  0  0  0  0
  8  7  1  0  0  0  0
  9 15  1  6  0  0  0
 10 25  1  0  0  0  0
 11 20  1  0  0  0  0
 12 19  1  6  0  0  0
 12  6  1  0  0  0  0
 12 26  1  0  0  0  0
 13 10  2  0  0  0  0
 15 11  1  0  0  0  0
 17 20  1  0  0  0  0
 18  9  1  0  0  0  0
 18  4  1  1  0  0  0
 19  6  1  0  0  0  0
 22 21  1  0  0  0  0
 22 32  1  1  0  0  0
 23  5  1  0  0  0  0
 24 30  1  6  0  0  0
 24 31  1  0  0  0  0
 24 22  1  0  0  0  0
 25 14  1  6  0  0  0
 25 23  1  0  0  0  0
 26 24  1  0  0  0  0
 27  5  1  1  0  0  0
 31  2  1  0  0  0  0
 32 33  1  0  0  0  0
 34 32  2  0  0  0  0
M  END
>  <MODEL>
4

>  <REMARK>
 VINA RESULT:      -4.4      2.026      3.141
  Name = 
  1 active torsions:
  status: ('A' for Active; 'I' for Inactive)
    1  A    between atoms: C_3  and  C_25
                            x       y       z     vdW  Elec       q    Type
                         _______ _______ _______ _____ _____    ______ ____

>  <TORSDO>
F 1

$$$$
=
 OpenBabel11052416033D

 34 40  0  0  1  0  0  0  0  0999 V2000
  185.2870  177.9450  137.4510 C   0  0  1  0  0  3  0  0  0  0  0  0
  186.7520  175.7600  137.2850 C   0  0  1  0  0  3  0  0  0  0  0  0
  181.3310  177.8810  139.2530 C   0  0  2  0  0  3  0  0  0  0  0  0
  187.4410  177.6090  138.8140 C   0  0  0  0  0  0  0  0  0  0  0  0
  183.0530  176.0200  139.7090 C   0  0  0  0  0  2  0  0  0  0  0  0
  181.3420  176.4180  135.9570 N   0  0  0  0  0  0  0  0  0  0  0  0
  183.8440  178.4070  139.1740 C   0  0  1  0  0  0  0  0  0  0  0  0
  183.9310  178.1680  137.7820 O   0  0  0  0  0  0  0  0  0  0  0  0
  185.2000  178.0700  139.7980 C   0  0  2  0  0  3  0  0  0  0  0  0
  180.5190  175.7480  136.9110 C   0  0  0  0  0  0  0  0  0  0  0  0
  186.9180  179.3620  141.2750 C   0  0  0  0  0  2  0  0  0  0  0  0
  182.6260  177.0360  135.5050 C   0  0  2  0  0  3  0  0  0  0  0  0
  179.3710  175.3570  136.5720 O   0  0  0  0  0  0  0  0  0  0  0  0
  180.4030  176.6710  139.2200 C   0  0  0  0  0  2  0  0  0  0  0  0
  185.5020  178.8060  141.1230 C   0  0  0  0  0  2  0  0  0  0  0  0
  183.5110  179.8910  139.3680 C   0  0  0  0  0  1  0  0  0  0  0  0
  188.4800  178.1850  139.7230 C   0  0  0  0  0  2  0  0  0  0  0  0
  186.1320  178.3250  138.6600 C   0  0  2  0  0  3  0  0  0  0  0  0
  181.5900  176.9730  134.5960 C   0  0  0  0  0  2  0  0  0  0  0  0
  187.9750  178.2730  141.1560 C   0  0  0  0  0  2  0  0  0  0  0  0
  187.5970  175.2530  135.7650 S   0  0  0  0  0  0  0  0  0  0  0  0
  185.9970  175.1370  134.9280 C   0  0  2  0  0  3  0  0  0  0  0  0
  182.4960  175.4060  138.4260 C   0  0  0  0  0  2  0  0  0  0  0  0
  185.1000  176.2770  135.4460 C   0  0  2  0  0  0  0  0  0  0  0  0
  180.9690  175.5600  138.3280 C   0  0  2  0  0  3  0  0  0  0  0  0
  183.6170  175.9160  135.2340 C   0  0  0  0  0  2  0  0  0  0  0  0
  182.7340  177.5280  139.7960 C   0  0  1  0  0  3  0  0  0  0  0  0
  180.7570  178.8780  140.0430 O   0  0  0  0  0  1  0  0  0  0  0  0
  187.7100  176.4670  138.1880 C   0  0  0  0  0  3  0  0  0  0  0  0
  185.4450  177.5070  134.6070 C   0  0  0  0  0  1  0  0  0  0  0  0
  185.4400  176.4880  136.9440 C   0  0  2  0  0  3  0  0  0  0  0  0
  185.4430  173.7450  135.0930 C   0  0  0  0  0  0  0  0  0  0  0  0
  184.2660  173.4710  134.7360 O   0  0  0  0  0  0  0  0  0  0  0  0
  186.2360  172.7590  135.6640 O   0  0  0  0  0  1  0  0  0  0  0  0
  1  8  1  1  0  0  0
  1 18  1  0  0  0  0
  2 29  1  6  0  0  0
  3 27  1  0  0  0  0
  3 28  1  1  0  0  0
  4 17  1  0  0  0  0
  6 10  1  0  0  0  0
  7 16  1  1  0  0  0
  7 27  1  0  0  0  0
  7  9  1  0  0  0  0
  8  7  1  0  0  0  0
  9 15  1  1  0  0  0
 10 25  1  0  0  0  0
 12 19  1  6  0  0  0
 12  6  1  0  0  0  0
 13 10  2  0  0  0  0
 14  3  1  0  0  0  0
 15 11  1  0  0  0  0
 17 20  1  0  0  0  0
 18  4  1  1  0  0  0
 18  9  1  0  0  0  0
 19  6  1  0  0  0  0
 20 11  1  0  0  0  0
 21  2  1  0  0  0  0
 22 32  1  1  0  0  0
 22 24  1  0  0  0  0
 22 21  1  0  0  0  0
 23  5  1  0  0  0  0
 24 30  1  6  0  0  0
 24 31  1  0  0  0  0
 25 23  1  6  0  0  0
 25 14  1  0  0  0  0
 26 24  1  0  0  0  0
 26 12  1  0  0  0  0
 27  5  1  6  0  0  0
 29  4  2  0  0  0  0
 31  2  1  0  0  0  0
 31  1  1  0  0  0  0
 32 34  1  0  0  0  0
 33 32  2  0  0  0  0
M  END
>  <MODEL>
5

>  <REMARK>
 VINA RESULT:      -4.4      2.936      5.810
  Name = 
  1 active torsions:
  status: ('A' for Active; 'I' for Inactive)
    1  A    between atoms: C_3  and  C_25
                            x       y       z     vdW  Elec       q    Type
                         _______ _______ _______ _____ _____    ______ ____

>  <TORSDO>
F 1

$$$$
=
 OpenBabel11052416033D

 34 40  0  0  1  0  0  0  0  0999 V2000
  181.9340  175.7970  136.8910 C   0  0  1  0  0  3  0  0  0  0  0  0
  182.2690  176.8240  139.2960 C   0  0  1  0  0  3  0  0  0  0  0  0
  184.5420  172.6590  135.3930 C   0  0  2  0  0  3  0  0  0  0  0  0
  180.2640  175.4180  138.8090 C   0  0  0  0  0  0  0  0  0  0  0  0
  184.3520  173.1680  137.9110 C   0  0  0  0  0  2  0  0  0  0  0  0
  186.1470  175.8880  135.3530 N   0  0  0  0  0  0  0  0  0  0  0  0
  182.3570  173.6070  136.3500 C   0  0  1  0  0  0  0  0  0  0  0  0
  182.7320  174.9480  136.0920 O   0  0  0  0  0  0  0  0  0  0  0  0
  181.4330  173.6010  137.5700 C   0  0  2  0  0  3  0  0  0  0  0  0
  186.9880  174.8020  135.7430 C   0  0  0  0  0  0  0  0  0  0  0  0
  179.0280  172.7150  138.0540 C   0  0  0  0  0  2  0  0  0  0  0  0
  184.8940  176.6980  135.4340 C   0  0  2  0  0  3  0  0  0  0  0  0
  188.1600  174.7340  135.2880 O   0  0  0  0  0  0  0  0  0  0  0  0
  186.0090  172.5140  135.7870 C   0  0  0  0  0  2  0  0  0  0  0  0
  180.4660  172.3980  137.6430 C   0  0  0  0  0  2  0  0  0  0  0  0
  181.6210  173.0860  135.1100 C   0  0  0  0  0  1  0  0  0  0  0  0
  178.9370  174.8980  139.2630 C   0  0  0  0  0  2  0  0  0  0  0  0
  180.8140  174.9570  137.4920 C   0  0  2  0  0  3  0  0  0  0  0  0
  185.8920  177.1450  134.5940 C   0  0  0  0  0  2  0  0  0  0  0  0
  178.9600  173.3840  139.4200 C   0  0  0  0  0  2  0  0  0  0  0  0
  182.2770  178.6070  139.6140 S   0  0  0  0  0  0  0  0  0  0  0  0
  183.7140  178.7820  138.5270 C   0  0  2  0  0  3  0  0  0  0  0  0
  185.4220  174.2190  137.6200 C   0  0  0  0  0  2  0  0  0  0  0  0
  183.5490  177.8020  137.3510 C   0  0  2  0  0  0  0  0  0  0  0  0
  186.4790  173.7070  136.6280 C   0  0  2  0  0  3  0  0  0  0  0  0
  184.9250  177.4850  136.7340 C   0  0  0  0  0  2  0  0  0  0  0  0
  183.6120  172.7470  136.6230 C   0  0  1  0  0  3  0  0  0  0  0  0
  184.1720  171.5740  134.5970 O   0  0  0  0  0  1  0  0  0  0  0  0
  180.9190  176.2590  139.6040 C   0  0  0  0  0  3  0  0  0  0  0  0
  182.6840  178.5190  136.3150 C   0  0  0  0  0  1  0  0  0  0  0  0
  182.8510  176.5310  137.9030 C   0  0  2  0  0  3  0  0  0  0  0  0
  184.9760  178.6250  139.3350 C   0  0  0  0  0  0  0  0  0  0  0  0
  184.9460  178.6540  140.5950 O   0  0  0  0  0  1  0  0  0  0  0  0
  186.1900  178.4630  138.6790 O   0  0  0  0  0  0  0  0  0  0  0  0
  1  8  1  1  0  0  0
  1 18  1  0  0  0  0
  1 31  1  0  0  0  0
  2 29  1  6  0  0  0
  2 21  1  0  0  0  0
  3 28  1  6  0  0  0
  3 14  1  0  0  0  0
  3 27  1  0  0  0  0
  4 17  1  0  0  0  0
  4 29  2  0  0  0  0
  6 12  1  0  0  0  0
  6 10  1  0  0  0  0
  7 16  1  6  0  0  0
  7 27  1  0  0  0  0
  7  9  1  0  0  0  0
  8  7  1  0  0  0  0
  9 15  1  6  0  0  0
 10 25  1  0  0  0  0
 11 20  1  0  0  0  0
 12 19  1  6  0  0  0
 12 26  1  0  0  0  0
 13 10  2  0  0  0  0
 15 11  1  0  0  0  0
 17 20  1  0  0  0  0
 18  9  1  0  0  0  0
 18  4  1  1  0  0  0
 19  6  1  0  0  0  0
 22 32  1  1  0  0  0
 22 21  1  0  0  0  0
 23  5  1  0  0  0  0
 24 30  1  6  0  0  0
 24 31  1  0  0  0  0
 24 22  1  0  0  0  0
 25 14  1  6  0  0  0
 25 23  1  0  0  0  0
 26 24  1  0  0  0  0
 27  5  1  1  0  0  0
 31  2  1  0  0  0  0
 32 33  1  0  0  0  0
 34 32  2  0  0  0  0
M  END
>  <MODEL>
6

>  <REMARK>
 VINA RESULT:      -4.3      2.958      4.642
  Name = 
  1 active torsions:
  status: ('A' for Active; 'I' for Inactive)
    1  A    between atoms: C_3  and  C_25
                            x       y       z     vdW  Elec       q    Type
                         _______ _______ _______ _____ _____    ______ ____

>  <TORSDO>
F 1

$$$$
=
 OpenBabel11052416033D

 34 40  0  0  1  0  0  0  0  0999 V2000
  183.7810  175.4670  138.0640 C   0  0  1  0  0  3  0  0  0  0  0  0
  183.2370  177.8730  137.1340 C   0  0  1  0  0  3  0  0  0  0  0  0
  183.0850  171.9080  135.6660 C   0  0  2  0  0  3  0  0  0  0  0  0
  185.6080  177.1850  137.5040 C   0  0  0  0  0  0  0  0  0  0  0  0
  183.2710  174.2430  134.5940 C   0  0  0  0  0  2  0  0  0  0  0  0
  180.0180  173.2820  136.9710 N   0  0  0  0  0  0  0  0  0  0  0  0
  184.5270  173.7210  136.7760 C   0  0  1  0  0  0  0  0  0  0  0  0
  183.4690  174.1670  137.6030 O   0  0  0  0  0  0  0  0  0  0  0  0
  185.4480  174.9110  136.5020 C   0  0  2  0  0  3  0  0  0  0  0  0
  179.9360  172.7900  135.6340 C   0  0  0  0  0  0  0  0  0  0  0  0
  187.9930  175.3810  136.8250 C   0  0  0  0  0  2  0  0  0  0  0  0
  180.6470  174.0960  138.0550 C   0  0  2  0  0  3  0  0  0  0  0  0
  178.9350  172.1090  135.2860 O   0  0  0  0  0  0  0  0  0  0  0  0
  181.9790  171.7910  134.6220 C   0  0  0  0  0  2  0  0  0  0  0  0
  186.9080  174.5330  136.1610 C   0  0  0  0  0  2  0  0  0  0  0  0
  185.2740  172.6190  137.5370 C   0  0  0  0  0  1  0  0  0  0  0  0
  187.0520  177.5770  137.5510 C   0  0  0  0  0  2  0  0  0  0  0  0
  185.2370  175.7480  137.7190 C   0  0  2  0  0  3  0  0  0  0  0  0
  179.4730  173.4340  138.3510 C   0  0  0  0  0  2  0  0  0  0  0  0
  187.8560  176.8570  136.4780 C   0  0  0  0  0  2  0  0  0  0  0  0
  182.3190  179.1130  138.0840 S   0  0  0  0  0  0  0  0  0  0  0  0
  180.8930  177.9990  138.1350 C   0  0  2  0  0  3  0  0  0  0  0  0
  181.7810  174.3380  134.9150 C   0  0  0  0  0  2  0  0  0  0  0  0
  181.4140  176.5570  138.2850 C   0  0  2  0  0  0  0  0  0  0  0  0
  181.0500  173.0100  134.6570 C   0  0  2  0  0  3  0  0  0  0  0  0
  180.3560  175.5600  137.7740 C   0  0  0  0  0  2  0  0  0  0  0  0
  183.9640  173.1600  135.4500 C   0  0  1  0  0  3  0  0  0  0  0  0
  183.8790  170.7610  135.6240 O   0  0  0  0  0  1  0  0  0  0  0  0
  184.7050  178.1280  137.2500 C   0  0  0  0  0  3  0  0  0  0  0  0
  181.6360  176.3360  139.7810 C   0  0  0  0  0  1  0  0  0  0  0  0
  182.7400  176.4600  137.4870 C   0  0  2  0  0  3  0  0  0  0  0  0
  180.0130  178.2530  136.9390 C   0  0  0  0  0  0  0  0  0  0  0  0
  178.9310  178.8890  137.0550 O   0  0  0  0  0  1  0  0  0  0  0  0
  180.3930  177.7640  135.6960 O   0  0  0  0  0  0  0  0  0  0  0  0
  1  8  1  6  0  0  0
  2 29  1  1  0  0  0
  2 31  1  0  0  0  0
  2 21  1  0  0  0  0
  3 28  1  6  0  0  0
  4 17  1  0  0  0  0
  5 23  1  0  0  0  0
  6 12  1  0  0  0  0
  6 19  1  0  0  0  0
  7 16  1  1  0  0  0
  7  8  1  0  0  0  0
  9 15  1  1  0  0  0
  9  7  1  0  0  0  0
  9 18  1  0  0  0  0
 10  6  1  0  0  0  0
 12 26  1  6  0  0  0
 12 19  1  0  0  0  0
 13 10  2  0  0  0  0
 14  3  1  0  0  0  0
 15 11  1  0  0  0  0
 18  4  1  6  0  0  0
 18  1  1  0  0  0  0
 20 11  1  0  0  0  0
 20 17  1  0  0  0  0
 21 22  1  0  0  0  0
 22 32  1  6  0  0  0
 22 24  1  0  0  0  0
 24 30  1  1  0  0  0
 25 14  1  1  0  0  0
 25 23  1  0  0  0  0
 25 10  1  0  0  0  0
 26 24  1  0  0  0  0
 27  5  1  1  0  0  0
 27  3  1  0  0  0  0
 27  7  1  0  0  0  0
 29  4  2  0  0  0  0
 31  1  1  0  0  0  0
 31 24  1  0  0  0  0
 32 33  1  0  0  0  0
 34 32  2  0  0  0  0
M  END
>  <MODEL>
7

>  <REMARK>
 VINA RESULT:      -4.2      3.479      6.704
  Name = 
  1 active torsions:
  status: ('A' for Active; 'I' for Inactive)
    1  A    between atoms: C_3  and  C_25
                            x       y       z     vdW  Elec       q    Type
                         _______ _______ _______ _____ _____    ______ ____

>  <TORSDO>
F 1

$$$$
=
 OpenBabel11052416033D

 34 40  0  0  1  0  0  0  0  0999 V2000
  184.7920  178.8420  139.0490 C   0  0  1  0  0  3  0  0  0  0  0  0
  187.0110  177.5240  139.5870 C   0  0  1  0  0  3  0  0  0  0  0  0
  181.0310  176.7610  138.4010 C   0  0  2  0  0  3  0  0  0  0  0  0
  185.9470  178.9440  141.3440 C   0  0  0  0  0  0  0  0  0  0  0  0
  183.0040  175.6360  139.6170 C   0  0  0  0  0  2  0  0  0  0  0  0
  183.2430  176.4740  135.5680 N   0  0  0  0  0  0  0  0  0  0  0  0
  182.7020  178.1870  139.7310 C   0  0  1  0  0  0  0  0  0  0  0  0
  183.5170  178.4290  138.6000 O   0  0  0  0  0  0  0  0  0  0  0  0
  183.5960  178.2120  140.9730 C   0  0  2  0  0  3  0  0  0  0  0  0
  182.5100  175.2910  135.8820 C   0  0  0  0  0  0  0  0  0  0  0  0
  183.5930  179.5450  143.2150 C   0  0  0  0  0  2  0  0  0  0  0  0
  184.1180  177.6330  135.9210 C   0  0  2  0  0  3  0  0  0  0  0  0
  181.9900  174.6200  134.9510 O   0  0  0  0  0  0  0  0  0  0  0  0
  180.9270  175.3620  137.8020 C   0  0  0  0  0  2  0  0  0  0  0  0
  182.8660  178.5720  142.2870 C   0  0  0  0  0  2  0  0  0  0  0  0
  181.6540  179.3050  139.7940 C   0  0  0  0  0  1  0  0  0  0  0  0
  186.0370  179.5650  142.7020 C   0  0  0  0  0  2  0  0  0  0  0  0
  184.6930  179.1280  140.5410 C   0  0  2  0  0  3  0  0  0  0  0  0
  183.7860  177.4630  134.5940 C   0  0  0  0  0  2  0  0  0  0  0  0
  184.9610  179.0210  143.6310 C   0  0  0  0  0  2  0  0  0  0  0  0
  188.5820  177.8540  138.7480 S   0  0  0  0  0  0  0  0  0  0  0  0
  187.8190  177.4050  137.1690 C   0  0  2  0  0  3  0  0  0  0  0  0
  183.4650  175.2760  138.2070 C   0  0  0  0  0  2  0  0  0  0  0  0
  186.3650  177.9120  137.1770 C   0  0  2  0  0  0  0  0  0  0  0  0
  182.2900  174.8680  137.3020 C   0  0  2  0  0  3  0  0  0  0  0  0
  185.5200  177.1030  136.1730 C   0  0  0  0  0  2  0  0  0  0  0  0
  182.0050  176.8130  139.6000 C   0  0  1  0  0  3  0  0  0  0  0  0
  179.7630  177.1820  138.8040 O   0  0  0  0  0  1  0  0  0  0  0  0
  186.9810  178.2320  140.9040 C   0  0  0  0  0  3  0  0  0  0  0  0
  186.4190  179.3730  136.7300 C   0  0  0  0  0  1  0  0  0  0  0  0
  185.8350  177.7740  138.6280 C   0  0  2  0  0  3  0  0  0  0  0  0
  187.9920  175.9270  136.9300 C   0  0  0  0  0  0  0  0  0  0  0  0
  187.3420  175.0820  137.6030 O   0  0  0  0  0  1  0  0  0  0  0  0
  188.8940  175.4930  135.9670 O   0  0  0  0  0  0  0  0  0  0  0  0
  1  8  1  1  0  0  0
  1 18  1  0  0  0  0
  2 29  1  1  0  0  0
  3 28  1  1  0  0  0
  3 27  1  0  0  0  0
  4 17  1  0  0  0  0
  6 10  1  0  0  0  0
  6 12  1  0  0  0  0
  7 16  1  1  0  0  0
  7  9  1  0  0  0  0
  8  7  1  0  0  0  0
  9 15  1  1  0  0  0
 10 25  1  0  0  0  0
 11 20  1  0  0  0  0
 12 19  1  6  0  0  0
 12 26  1  0  0  0  0
 13 10  2  0  0  0  0
 14  3  1  0  0  0  0
 15 11  1  0  0  0  0
 17 20  1  0  0  0  0
 18  9  1  0  0  0  0
 18  4  1  1  0  0  0
 19  6  1  0  0  0  0
 21  2  1  0  0  0  0
 22 32  1  1  0  0  0
 22 24  1  0  0  0  0
 22 21  1  0  0  0  0
 23  5  1  0  0  0  0
 24 30  1  6  0  0  0
 24 31  1  0  0  0  0
 25 14  1  1  0  0  0
 25 23  1  0  0  0  0
 26 24  1  0  0  0  0
 27  5  1  6  0  0  0
 27  7  1  0  0  0  0
 29  4  2  0  0  0  0
 31  1  1  0  0  0  0
 31  2  1  0  0  0  0
 32 33  1  0  0  0  0
 34 32  2  0  0  0  0
M  END
>  <MODEL>
8

>  <REMARK>
 VINA RESULT:      -4.0      2.650      4.601
  Name = 
  1 active torsions:
  status: ('A' for Active; 'I' for Inactive)
    1  A    between atoms: C_3  and  C_25
                            x       y       z     vdW  Elec       q    Type
                         _______ _______ _______ _____ _____    ______ ____

>  <TORSDO>
F 1

$$$$
=
 OpenBabel11052416033D

 34 40  0  0  1  0  0  0  0  0999 V2000
  183.5520  175.8610  136.1270 C   0  0  1  0  0  3  0  0  0  0  0  0
  182.9990  173.3860  136.8460 C   0  0  1  0  0  3  0  0  0  0  0  0
  183.3260  179.1430  138.9690 C   0  0  2  0  0  3  0  0  0  0  0  0
  185.3430  174.0220  136.2670 C   0  0  0  0  0  0  0  0  0  0  0  0
  183.5160  176.6940  139.7460 C   0  0  0  0  0  2  0  0  0  0  0  0
  180.0600  178.0440  137.9060 N   0  0  0  0  0  0  0  0  0  0  0  0
  184.5320  177.4170  137.4980 C   0  0  1  0  0  0  0  0  0  0  0  0
  183.3630  177.1090  136.7620 O   0  0  0  0  0  0  0  0  0  0  0  0
  185.4180  176.1700  137.5250 C   0  0  2  0  0  3  0  0  0  0  0  0
  180.1610  178.3820  139.2880 C   0  0  0  0  0  0  0  0  0  0  0  0
  187.8800  175.6450  136.8440 C   0  0  0  0  0  2  0  0  0  0  0  0
  180.5160  177.3380  136.6700 C   0  0  2  0  0  3  0  0  0  0  0  0
  179.2440  179.0550  139.8290 O   0  0  0  0  0  0  0  0  0  0  0  0
  182.3570  179.1800  140.1470 C   0  0  0  0  0  2  0  0  0  0  0  0
  186.9240  176.4510  137.7240 C   0  0  0  0  0  2  0  0  0  0  0  0
  185.2410  178.5700  136.7780 C   0  0  0  0  0  1  0  0  0  0  0  0
  186.7490  173.5850  136.0010 C   0  0  0  0  0  2  0  0  0  0  0  0
  185.0230  175.4870  136.2580 C   0  0  2  0  0  3  0  0  0  0  0  0
  179.3510  178.0730  136.5950 C   0  0  0  0  0  2  0  0  0  0  0  0
  187.7090  174.1450  137.0400 C   0  0  0  0  0  2  0  0  0  0  0  0
  181.9140  172.2990  135.8850 S   0  0  0  0  0  0  0  0  0  0  0  0
  180.5500  173.4640  136.1310 C   0  0  2  0  0  3  0  0  0  0  0  0
  181.9960  176.6930  139.6020 C   0  0  0  0  0  2  0  0  0  0  0  0
  181.1230  174.8930  136.0780 C   0  0  2  0  0  0  0  0  0  0  0  0
  181.3690  178.0090  140.0920 C   0  0  2  0  0  3  0  0  0  0  0  0
  180.1850  175.8630  136.8210 C   0  0  0  0  0  2  0  0  0  0  0  0
  184.1590  177.8420  138.9370 C   0  0  1  0  0  3  0  0  0  0  0  0
  184.1770  180.2460  139.0400 O   0  0  0  0  0  1  0  0  0  0  0  0
  184.4290  173.0900  136.5230 C   0  0  0  0  0  3  0  0  0  0  0  0
  181.1790  175.2760  134.6000 C   0  0  0  0  0  1  0  0  0  0  0  0
  182.5370  174.8470  136.7140 C   0  0  2  0  0  3  0  0  0  0  0  0
  179.8050  173.1070  137.3910 C   0  0  0  0  0  0  0  0  0  0  0  0
  178.9310  172.1980  137.3900 O   0  0  0  0  0  0  0  0  0  0  0  0
  180.0740  173.8020  138.5630 O   0  0  0  0  0  1  0  0  0  0  0  0
  1 18  1  0  0  0  0
  1 31  1  0  0  0  0
  1  8  1  1  0  0  0
  2 29  1  6  0  0  0
  3 28  1  1  0  0  0
  3 14  1  0  0  0  0
  4 29  2  0  0  0  0
  6 10  1  0  0  0  0
  7 16  1  6  0  0  0
  7  9  1  0  0  0  0
  7 27  1  0  0  0  0
  8  7  1  0  0  0  0
  9 15  1  6  0  0  0
 10 13  2  0  0  0  0
 10 25  1  0  0  0  0
 11 20  1  0  0  0  0
 11 15  1  0  0  0  0
 12 19  1  6  0  0  0
 12 26  1  0  0  0  0
 12  6  1  0  0  0  0
 17  4  1  0  0  0  0
 17 20  1  0  0  0  0
 18  4  1  1  0  0  0
 18  9  1  0  0  0  0
 19  6  1  0  0  0  0
 21 22  1  0  0  0  0
 21  2  1  0  0  0  0
 22 32  1  1  0  0  0
 23  5  1  0  0  0  0
 24 30  1  6  0  0  0
 24 22  1  0  0  0  0
 24 31  1  0  0  0  0
 24 26  1  0  0  0  0
 25 23  1  6  0  0  0
 25 14  1  0  0  0  0
 27  3  1  0  0  0  0
 27  5  1  6  0  0  0
 31  2  1  0  0  0  0
 32 34  1  0  0  0  0
 33 32  2  0  0  0  0
M  END
>  <MODEL>
9

>  <REMARK>
 VINA RESULT:      -3.7      3.822      7.836
  Name = 
  1 active torsions:
  status: ('A' for Active; 'I' for Inactive)
    1  A    between atoms: C_3  and  C_25
                            x       y       z     vdW  Elec       q    Type
                         _______ _______ _______ _____ _____    ______ ____

>  <TORSDO>
F 1

$$$$
