=
 OpenBabel11052414073D

 34 39  0  0  1  0  0  0  0  0999 V2000
  184.1830  178.5950  145.0660 C   0  0  0  0  0  0  0  0  0  0  0  0
  186.2600  177.9430  143.9460 C   0  0  0  0  0  0  0  0  0  0  0  0
  184.1190  178.5810  142.6230 C   0  0  0  0  0  0  0  0  0  0  0  0
  183.8740  178.7610  140.2190 C   0  0  0  0  0  0  0  0  0  0  0  0
  186.3910  178.5850  146.2350 C   0  0  0  0  0  3  0  0  0  0  0  0
  186.9960  178.3000  145.1210 N   0  0  0  0  0  0  0  0  0  0  0  0
  186.0040  178.4930  141.0230 N   0  0  0  0  0  0  0  0  0  0  0  0
  184.8400  178.3720  143.8390 C   0  0  0  0  0  0  0  0  0  0  0  0
  187.4900  178.4150  139.0780 N   0  0  0  0  0  2  0  0  0  0  0  0
  184.7800  178.7650  138.8090 S   0  0  0  0  0  0  0  0  0  0  0  0
  184.9020  178.4280  146.3770 C   0  0  0  0  0  2  0  0  0  0  0  0
  182.1300  178.9950  143.9290 N   0  0  0  0  0  0  0  0  0  0  0  0
  182.8230  178.8840  145.0860 C   0  0  0  0  0  3  0  0  0  0  0  0
  186.8020  177.2050  143.0850 O   0  0  0  0  0  0  0  0  0  0  0  0
  182.5420  178.9550  140.3120 N   0  0  0  0  0  0  0  0  0  0  0  0
  181.9440  179.0160  141.5380 C   0  0  0  0  0  0  0  0  0  0  0  0
  186.2070  178.5590  139.6850 C   0  0  0  0  0  0  0  0  0  0  0  0
  184.6850  178.5880  141.3270 C   0  0  0  0  0  0  0  0  0  0  0  0
  182.7180  178.8590  142.7120 C   0  0  0  0  0  0  0  0  0  0  0  0
  179.1840  177.7480  139.9660 N   0  0  0  0  0  0  0  0  0  0  0  0
  179.0350  178.7440  139.1480 C   0  0  0  0  0  3  0  0  0  0  0  0
  180.4540  179.2130  141.6180 C   0  0  2  0  0  3  0  0  0  0  0  0
  179.4100  180.1120  139.5450 C   0  0  0  0  0  3  0  0  0  0  0  0
  179.7610  177.9240  141.2650 C   0  0  0  0  0  0  0  0  0  0  0  0
  180.0310  180.3370  140.7040 C   0  0  0  0  0  3  0  0  0  0  0  0
  179.7240  176.9810  142.0990 O   0  0  0  0  0  0  0  0  0  0  0  0
  188.6290  178.1400  139.8460 N   0  0  0  0  0  2  0  0  0  0  0  0
  189.1060  176.9190  137.7820 C   0  0  0  0  0  2  0  0  0  0  0  0
  189.6850  177.7690  138.9170 C   0  0  2  0  0  3  0  0  0  0  0  0
  190.2030  176.5270  136.7990 C   0  0  0  0  0  2  0  0  0  0  0  0
  190.8500  174.5260  137.9580 O   0  0  0  0  0  1  0  0  0  0  0  0
  191.8780  176.5800  138.6840 C   0  0  0  0  0  2  0  0  0  0  0  0
  190.7670  176.9860  139.6580 C   0  0  0  0  0  2  0  0  0  0  0  0
  191.3210  175.7620  137.5110 C   0  0  2  0  0  3  0  0  0  0  0  0
  1 13  1  0  0  0  0
  1 11  1  0  0  0  0
  2  6  1  0  0  0  0
  3 19  1  0  0  0  0
  3  8  1  0  0  0  0
  4 15  2  0  0  0  0
  4 18  1  0  0  0  0
  5 11  1  0  0  0  0
  6  5  2  0  0  0  0
  7 18  1  0  0  0  0
  8  2  1  0  0  0  0
  8  1  2  0  0  0  0
  9 17  1  0  0  0  0
  9 27  1  0  0  0  0
 10 17  1  0  0  0  0
 10  4  1  0  0  0  0
 12 13  2  0  0  0  0
 14  2  2  0  0  0  0
 15 16  1  0  0  0  0
 16 19  2  0  0  0  0
 17  7  2  0  0  0  0
 18  3  2  0  0  0  0
 19 12  1  0  0  0  0
 20 24  1  0  0  0  0
 21 23  1  0  0  0  0
 21 20  2  0  0  0  0
 22 16  1  6  0  0  0
 23 25  2  0  0  0  0
 24 22  1  0  0  0  0
 24 26  2  0  0  0  0
 25 22  1  0  0  0  0
 28 29  1  0  0  0  0
 29 33  1  0  0  0  0
 29 27  1  1  0  0  0
 30 34  1  0  0  0  0
 30 28  1  0  0  0  0
 32 33  1  0  0  0  0
 34 31  1  1  0  0  0
 34 32  1  0  0  0  0
M  END
>  <MODEL>
1

>  <REMARK>
 VINA RESULT:      -9.1      0.000      0.000
  Name = 
  3 active torsions:
  status: ('A' for Active; 'I' for Inactive)
    1  A    between atoms: N_3  and  C_13
    2  A    between atoms: N_3  and  N_17
    3  A    between atoms: C_12  and  C_28
                            x       y       z     vdW  Elec       q    Type
                         _______ _______ _______ _____ _____    ______ ____

>  <TORSDO>
F 3

$$$$
=
 OpenBabel11052414073D

 34 39  0  0  1  0  0  0  0  0999 V2000
  184.7940  178.4520  145.2200 C   0  0  0  0  0  0  0  0  0  0  0  0
  185.1960  179.1050  142.8950 C   0  0  0  0  0  0  0  0  0  0  0  0
  187.0190  177.9520  144.3400 C   0  0  0  0  0  0  0  0  0  0  0  0
  189.2290  177.2500  143.6360 C   0  0  0  0  0  0  0  0  0  0  0  0
  182.9360  178.9720  143.6320 C   0  0  0  0  0  3  0  0  0  0  0  0
  183.7850  179.0920  142.6560 N   0  0  0  0  0  0  0  0  0  0  0  0
  187.7890  177.9360  141.9890 N   0  0  0  0  0  0  0  0  0  0  0  0
  185.7110  178.4940  144.1500 C   0  0  0  0  0  0  0  0  0  0  0  0
  189.0140  177.7900  139.8730 N   0  0  0  0  0  2  0  0  0  0  0  0
  190.1650  177.0640  142.2580 S   0  0  0  0  0  0  0  0  0  0  0  0
  183.3910  178.9720  145.0660 C   0  0  0  0  0  2  0  0  0  0  0  0
  186.4740  177.5790  146.6630 N   0  0  0  0  0  0  0  0  0  0  0  0
  185.2050  178.0100  146.4720 C   0  0  0  0  0  3  0  0  0  0  0  0
  185.9470  179.7100  142.0890 O   0  0  0  0  0  0  0  0  0  0  0  0
  189.5870  176.9190  144.8940 N   0  0  0  0  0  0  0  0  0  0  0  0
  188.6880  177.0410  145.9150 C   0  0  0  0  0  0  0  0  0  0  0  0
  188.9040  177.6200  141.2850 C   0  0  0  0  0  0  0  0  0  0  0  0
  187.9760  177.7460  143.3200 C   0  0  0  0  0  0  0  0  0  0  0  0
  187.3860  177.5310  145.6570 C   0  0  0  0  0  0  0  0  0  0  0  0
  191.1720  177.9830  148.0680 N   0  0  0  0  0  0  0  0  0  0  0  0
  191.9420  176.9660  147.8270 C   0  0  0  0  0  3  0  0  0  0  0  0
  189.1150  176.6850  147.3130 C   0  0  2  0  0  3  0  0  0  0  0  0
  191.3730  175.6520  147.4820 C   0  0  0  0  0  3  0  0  0  0  0  0
  189.7470  177.8870  147.9630 C   0  0  0  0  0  0  0  0  0  0  0  0
  190.0620  175.5100  147.2820 C   0  0  0  0  0  3  0  0  0  0  0  0
  189.0250  178.8310  148.3780 O   0  0  0  0  0  0  0  0  0  0  0  0
  187.9700  178.3550  139.1260 N   0  0  0  0  0  2  0  0  0  0  0  0
  188.5010  176.2980  137.9150 C   0  0  0  0  0  2  0  0  0  0  0  0
  188.0220  177.7490  137.8050 C   0  0  2  0  0  3  0  0  0  0  0  0
  188.5550  175.6510  136.5360 C   0  0  0  0  0  2  0  0  0  0  0  0
  190.7990  176.3460  136.0410 O   0  0  0  0  0  1  0  0  0  0  0  0
  189.0410  177.9090  135.5220 C   0  0  0  0  0  2  0  0  0  0  0  0
  188.9710  178.5470  136.9130 C   0  0  0  0  0  2  0  0  0  0  0  0
  189.4770  176.4390  135.6030 C   0  0  2  0  0  3  0  0  0  0  0  0
  1 13  1  0  0  0  0
  2  8  1  0  0  0  0
  3 19  1  0  0  0  0
  4 15  2  0  0  0  0
  5 11  1  0  0  0  0
  6  2  1  0  0  0  0
  6  5  2  0  0  0  0
  7 18  1  0  0  0  0
  8  3  1  0  0  0  0
  8  1  2  0  0  0  0
  9 17  1  0  0  0  0
 10  4  1  0  0  0  0
 11  1  1  0  0  0  0
 13 12  2  0  0  0  0
 14  2  2  0  0  0  0
 15 16  1  0  0  0  0
 17  7  2  0  0  0  0
 17 10  1  0  0  0  0
 18  4  1  0  0  0  0
 18  3  2  0  0  0  0
 19 16  2  0  0  0  0
 19 12  1  0  0  0  0
 21 20  2  0  0  0  0
 22 16  1  6  0  0  0
 22 24  1  0  0  0  0
 23 21  1  0  0  0  0
 24 20  1  0  0  0  0
 24 26  2  0  0  0  0
 25 22  1  0  0  0  0
 25 23  2  0  0  0  0
 27  9  1  0  0  0  0
 29 28  1  0  0  0  0
 29 27  1  1  0  0  0
 30 28  1  0  0  0  0
 32 34  1  0  0  0  0
 32 33  1  0  0  0  0
 33 29  1  0  0  0  0
 34 31  1  1  0  0  0
 34 30  1  0  0  0  0
M  END
>  <MODEL>
2

>  <REMARK>
 VINA RESULT:      -9.0      3.120      7.050
  Name = 
  3 active torsions:
  status: ('A' for Active; 'I' for Inactive)
    1  A    between atoms: N_3  and  C_13
    2  A    between atoms: N_3  and  N_17
    3  A    between atoms: C_12  and  C_28
                            x       y       z     vdW  Elec       q    Type
                         _______ _______ _______ _____ _____    ______ ____

>  <TORSDO>
F 3

$$$$
=
 OpenBabel11052414073D

 34 39  0  0  1  0  0  0  0  0999 V2000
  190.0130  176.9770  137.4120 C   0  0  0  0  0  0  0  0  0  0  0  0
  187.6250  177.3890  137.0670 C   0  0  0  0  0  0  0  0  0  0  0  0
  188.7320  177.5600  139.4090 C   0  0  0  0  0  0  0  0  0  0  0  0
  187.6860  178.2450  141.4850 C   0  0  0  0  0  0  0  0  0  0  0  0
  189.0420  177.4350  135.1550 C   0  0  0  0  0  3  0  0  0  0  0  0
  187.8800  177.6680  135.6870 N   0  0  0  0  0  0  0  0  0  0  0  0
  186.4630  178.5350  139.5680 N   0  0  0  0  0  0  0  0  0  0  0  0
  188.7780  177.3120  138.0040 C   0  0  0  0  0  0  0  0  0  0  0  0
  184.3020  179.4700  140.2400 N   0  0  0  0  0  2  0  0  0  0  0  0
  186.2680  178.9190  142.0750 S   0  0  0  0  0  0  0  0  0  0  0  0
  190.1300  176.7440  135.9300 C   0  0  0  0  0  2  0  0  0  0  0  0
  191.0560  176.9170  139.5510 N   0  0  0  0  0  0  0  0  0  0  0  0
  191.1320  176.7640  138.2090 C   0  0  0  0  0  3  0  0  0  0  0  0
  186.4500  177.1260  137.4310 O   0  0  0  0  0  0  0  0  0  0  0  0
  188.7840  177.9370  142.2070 N   0  0  0  0  0  0  0  0  0  0  0  0
  189.9060  177.4760  141.5800 C   0  0  0  0  0  0  0  0  0  0  0  0
  185.6210  179.0030  140.5200 C   0  0  0  0  0  0  0  0  0  0  0  0
  187.6240  178.0890  140.1120 C   0  0  0  0  0  0  0  0  0  0  0  0
  189.9130  177.3050  140.1760 C   0  0  0  0  0  0  0  0  0  0  0  0
  190.5040  176.4730  144.7940 N   0  0  0  0  0  0  0  0  0  0  0  0
  190.8440  177.6470  145.2320 C   0  0  0  0  0  3  0  0  0  0  0  0
  191.1120  177.1190  142.4070 C   0  0  2  0  0  3  0  0  0  0  0  0
  191.5200  178.6160  144.3530 C   0  0  0  0  0  3  0  0  0  0  0  0
  190.7260  176.0880  143.4330 C   0  0  0  0  0  0  0  0  0  0  0  0
  191.6800  178.3580  143.0540 C   0  0  0  0  0  3  0  0  0  0  0  0
  190.5550  174.8890  143.0870 O   0  0  0  0  0  0  0  0  0  0  0  0
  183.7750  179.4200  138.9420 N   0  0  0  0  0  2  0  0  0  0  0  0
  181.6350  180.5960  138.8130 C   0  0  0  0  0  2  0  0  0  0  0  0
  182.3360  179.2590  139.0770 C   0  0  2  0  0  3  0  0  0  0  0  0
  180.1240  180.4390  138.9490 C   0  0  0  0  0  2  0  0  0  0  0  0
  180.0550  180.8780  141.3070 O   0  0  0  0  0  1  0  0  0  0  0  0
  180.4900  178.6050  140.6410 C   0  0  0  0  0  2  0  0  0  0  0  0
  182.0060  178.7650  140.4850 C   0  0  0  0  0  2  0  0  0  0  0  0
  179.7550  179.9180  140.3390 C   0  0  2  0  0  3  0  0  0  0  0  0
  1  8  2  0  0  0  0
  1 13  1  0  0  0  0
  2 14  2  0  0  0  0
  2  8  1  0  0  0  0
  3 18  2  0  0  0  0
  3 19  1  0  0  0  0
  4 10  1  0  0  0  0
  4 15  2  0  0  0  0
  5  6  2  0  0  0  0
  5 11  1  0  0  0  0
  6  2  1  0  0  0  0
  7 18  1  0  0  0  0
  7 17  2  0  0  0  0
  8  3  1  0  0  0  0
  9 17  1  0  0  0  0
 11  1  1  0  0  0  0
 12 19  1  0  0  0  0
 13 12  2  0  0  0  0
 16 15  1  0  0  0  0
 17 10  1  0  0  0  0
 18  4  1  0  0  0  0
 19 16  2  0  0  0  0
 20 21  2  0  0  0  0
 22 16  1  1  0  0  0
 22 25  1  0  0  0  0
 22 24  1  0  0  0  0
 23 21  1  0  0  0  0
 24 20  1  0  0  0  0
 25 23  2  0  0  0  0
 26 24  2  0  0  0  0
 27  9  1  0  0  0  0
 28 30  1  0  0  0  0
 28 29  1  0  0  0  0
 29 27  1  1  0  0  0
 29 33  1  0  0  0  0
 30 34  1  0  0  0  0
 33 32  1  0  0  0  0
 34 32  1  0  0  0  0
 34 31  1  1  0  0  0
M  END
>  <MODEL>
3

>  <REMARK>
 VINA RESULT:      -9.0      2.934      9.248
  Name = 
  3 active torsions:
  status: ('A' for Active; 'I' for Inactive)
    1  A    between atoms: N_3  and  C_13
    2  A    between atoms: N_3  and  N_17
    3  A    between atoms: C_12  and  C_28
                            x       y       z     vdW  Elec       q    Type
                         _______ _______ _______ _____ _____    ______ ____

>  <TORSDO>
F 3

$$$$
=
 OpenBabel11052414073D

 34 39  0  0  1  0  0  0  0  0999 V2000
  185.7170  178.2370  145.7780 C   0  0  0  0  0  0  0  0  0  0  0  0
  187.2790  177.6510  143.9860 C   0  0  0  0  0  0  0  0  0  0  0  0
  184.8510  178.4330  143.5010 C   0  0  0  0  0  0  0  0  0  0  0  0
  183.8350  178.8210  141.3360 C   0  0  0  0  0  0  0  0  0  0  0  0
  188.1850  178.0930  146.1430 C   0  0  0  0  0  3  0  0  0  0  0  0
  188.3750  177.8950  144.8740 N   0  0  0  0  0  0  0  0  0  0  0  0
  186.0970  178.4510  141.3640 N   0  0  0  0  0  0  0  0  0  0  0  0
  185.9220  178.1090  144.3890 C   0  0  0  0  0  0  0  0  0  0  0  0
  186.8540  178.5170  139.0360 N   0  0  0  0  0  2  0  0  0  0  0  0
  184.2250  178.9310  139.7090 S   0  0  0  0  0  0  0  0  0  0  0  0
  186.8200  177.9480  146.7590 C   0  0  0  0  0  2  0  0  0  0  0  0
  183.4230  178.7640  145.4210 N   0  0  0  0  0  0  0  0  0  0  0  0
  184.4530  178.5450  146.2700 C   0  0  0  0  0  3  0  0  0  0  0  0
  187.4750  176.9800  142.9410 O   0  0  0  0  0  0  0  0  0  0  0  0
  182.6170  179.0270  141.8800 N   0  0  0  0  0  0  0  0  0  0  0  0
  182.4610  178.9920  143.2360 C   0  0  0  0  0  0  0  0  0  0  0  0
  185.8500  178.6280  140.0430 C   0  0  0  0  0  0  0  0  0  0  0  0
  184.9570  178.5410  142.0950 C   0  0  0  0  0  0  0  0  0  0  0  0
  183.5710  178.7230  144.0700 C   0  0  0  0  0  0  0  0  0  0  0  0
  179.2670  178.0200  142.4940 N   0  0  0  0  0  0  0  0  0  0  0  0
  178.9310  179.1270  141.9060 C   0  0  0  0  0  3  0  0  0  0  0  0
  181.0900  179.2050  143.8200 C   0  0  2  0  0  3  0  0  0  0  0  0
  179.5010  180.4150  142.3350 C   0  0  0  0  0  3  0  0  0  0  0  0
  180.2380  177.9940  143.5470 C   0  0  0  0  0  0  0  0  0  0  0  0
  180.4720  180.4570  143.2480 C   0  0  0  0  0  3  0  0  0  0  0  0
  180.4060  176.9420  144.2160 O   0  0  0  0  0  0  0  0  0  0  0  0
  188.1700  178.1590  139.3590 N   0  0  0  0  0  2  0  0  0  0  0  0
  189.9670  177.2890  137.9480 C   0  0  0  0  0  2  0  0  0  0  0  0
  188.5430  177.0710  138.4690 C   0  0  2  0  0  3  0  0  0  0  0  0
  190.3710  176.1520  137.0150 C   0  0  0  0  0  2  0  0  0  0  0  0
  189.4960  177.1640  135.0220 O   0  0  0  0  0  1  0  0  0  0  0  0
  187.9540  175.8730  136.3480 C   0  0  0  0  0  2  0  0  0  0  0  0
  187.5630  177.0090  137.2990 C   0  0  0  0  0  2  0  0  0  0  0  0
  189.3940  176.0390  135.8430 C   0  0  2  0  0  3  0  0  0  0  0  0
  1 13  1  0  0  0  0
  1 11  1  0  0  0  0
  2  8  1  0  0  0  0
  2  6  1  0  0  0  0
  3 19  1  0  0  0  0
  3  8  1  0  0  0  0
  4 15  2  0  0  0  0
  4 18  1  0  0  0  0
  5 11  1  0  0  0  0
  6  5  2  0  0  0  0
  7 18  1  0  0  0  0
  8  1  2  0  0  0  0
  9 27  1  0  0  0  0
  9 17  1  0  0  0  0
 10 17  1  0  0  0  0
 10  4  1  0  0  0  0
 12 13  2  0  0  0  0
 14  2  2  0  0  0  0
 15 16  1  0  0  0  0
 16 19  2  0  0  0  0
 17  7  2  0  0  0  0
 18  3  2  0  0  0  0
 19 12  1  0  0  0  0
 20 24  1  0  0  0  0
 21 23  1  0  0  0  0
 21 20  2  0  0  0  0
 22 16  1  6  0  0  0
 23 25  2  0  0  0  0
 24 22  1  0  0  0  0
 24 26  2  0  0  0  0
 25 22  1  0  0  0  0
 28 29  1  0  0  0  0
 29 27  1  1  0  0  0
 30 28  1  0  0  0  0
 32 33  1  0  0  0  0
 33 29  1  0  0  0  0
 34 31  1  6  0  0  0
 34 32  1  0  0  0  0
 34 30  1  0  0  0  0
M  END
>  <MODEL>
4

>  <REMARK>
 VINA RESULT:      -8.8      1.586      2.076
  Name = 
  3 active torsions:
  status: ('A' for Active; 'I' for Inactive)
    1  A    between atoms: N_3  and  C_13
    2  A    between atoms: N_3  and  N_17
    3  A    between atoms: C_12  and  C_28
                            x       y       z     vdW  Elec       q    Type
                         _______ _______ _______ _____ _____    ______ ____

>  <TORSDO>
F 3

$$$$
=
 OpenBabel11052414073D

 34 39  0  0  1  0  0  0  0  0999 V2000
  189.7600  177.0830  137.3870 C   0  0  0  0  0  0  0  0  0  0  0  0
  187.3700  177.4280  136.9830 C   0  0  0  0  0  0  0  0  0  0  0  0
  188.4250  177.6950  139.3410 C   0  0  0  0  0  0  0  0  0  0  0  0
  187.3210  178.4170  141.3730 C   0  0  0  0  0  0  0  0  0  0  0  0
  188.8260  177.4510  135.0990 C   0  0  0  0  0  3  0  0  0  0  0  0
  187.6480  177.6720  135.6000 N   0  0  0  0  0  0  0  0  0  0  0  0
  186.1320  178.6210  139.4240 N   0  0  0  0  0  0  0  0  0  0  0  0
  188.5060  177.4070  137.9440 C   0  0  0  0  0  0  0  0  0  0  0  0
  183.9370  179.5240  140.0250 N   0  0  0  0  0  2  0  0  0  0  0  0
  185.8770  179.0740  141.9150 S   0  0  0  0  0  0  0  0  0  0  0  0
  189.9130  176.8080  135.9160 C   0  0  0  0  0  2  0  0  0  0  0  0
  190.7600  177.1110  139.5480 N   0  0  0  0  0  0  0  0  0  0  0  0
  190.8670  176.9200  138.2120 C   0  0  0  0  0  3  0  0  0  0  0  0
  186.1950  177.1490  137.3310 O   0  0  0  0  0  0  0  0  0  0  0  0
  188.4110  178.1560  142.1260 N   0  0  0  0  0  0  0  0  0  0  0  0
  189.5550  177.7030  141.5360 C   0  0  0  0  0  0  0  0  0  0  0  0
  185.2600  179.0970  140.3450 C   0  0  0  0  0  0  0  0  0  0  0  0
  187.2910  178.2190  140.0040 C   0  0  0  0  0  0  0  0  0  0  0  0
  189.5950  177.4900  140.1380 C   0  0  0  0  0  0  0  0  0  0  0  0
  190.1030  176.5640  144.7140 N   0  0  0  0  0  0  0  0  0  0  0  0
  190.3230  177.7340  145.2310 C   0  0  0  0  0  3  0  0  0  0  0  0
  190.7520  177.4000  142.3960 C   0  0  2  0  0  3  0  0  0  0  0  0
  190.9490  178.8070  144.4400 C   0  0  0  0  0  3  0  0  0  0  0  0
  190.4130  176.2800  143.3450 C   0  0  0  0  0  0  0  0  0  0  0  0
  191.1850  178.6410  143.1380 C   0  0  0  0  0  3  0  0  0  0  0  0
  190.3610  175.0940  142.9250 O   0  0  0  0  0  0  0  0  0  0  0  0
  183.4380  179.4240  138.7190 N   0  0  0  0  0  2  0  0  0  0  0  0
  181.8300  178.4210  140.2640 C   0  0  0  0  0  2  0  0  0  0  0  0
  182.1040  178.8530  138.8200 C   0  0  2  0  0  3  0  0  0  0  0  0
  180.4320  177.8230  140.3830 C   0  0  0  0  0  2  0  0  0  0  0  0
  181.0920  175.5790  139.8460 O   0  0  0  0  0  1  0  0  0  0  0  0
  180.5920  177.0340  137.9930 C   0  0  0  0  0  2  0  0  0  0  0  0
  181.9900  177.6510  137.8840 C   0  0  0  0  0  2  0  0  0  0  0  0
  180.2700  176.6310  139.4390 C   0  0  2  0  0  3  0  0  0  0  0  0
  1  8  2  0  0  0  0
  1 13  1  0  0  0  0
  2 14  2  0  0  0  0
  2  8  1  0  0  0  0
  3 18  2  0  0  0  0
  3 19  1  0  0  0  0
  4 10  1  0  0  0  0
  4 15  2  0  0  0  0
  5  6  2  0  0  0  0
  5 11  1  0  0  0  0
  6  2  1  0  0  0  0
  7 18  1  0  0  0  0
  7 17  2  0  0  0  0
  8  3  1  0  0  0  0
  9 17  1  0  0  0  0
 11  1  1  0  0  0  0
 12 19  1  0  0  0  0
 13 12  2  0  0  0  0
 16 15  1  0  0  0  0
 17 10  1  0  0  0  0
 18  4  1  0  0  0  0
 19 16  2  0  0  0  0
 20 21  2  0  0  0  0
 22 16  1  1  0  0  0
 22 25  1  0  0  0  0
 22 24  1  0  0  0  0
 23 21  1  0  0  0  0
 24 20  1  0  0  0  0
 25 23  2  0  0  0  0
 26 24  2  0  0  0  0
 27  9  1  0  0  0  0
 28 30  1  0  0  0  0
 29 27  1  1  0  0  0
 29 28  1  0  0  0  0
 32 34  1  0  0  0  0
 33 32  1  0  0  0  0
 33 29  1  0  0  0  0
 34 31  1  1  0  0  0
 34 30  1  0  0  0  0
M  END
>  <MODEL>
5

>  <REMARK>
 VINA RESULT:      -8.8      2.943      8.874
  Name = 
  3 active torsions:
  status: ('A' for Active; 'I' for Inactive)
    1  A    between atoms: N_3  and  C_13
    2  A    between atoms: N_3  and  N_17
    3  A    between atoms: C_12  and  C_28
                            x       y       z     vdW  Elec       q    Type
                         _______ _______ _______ _____ _____    ______ ____

>  <TORSDO>
F 3

$$$$
=
 OpenBabel11052414073D

 34 39  0  0  1  0  0  0  0  0999 V2000
  184.9690  178.3300  138.7730 C   0  0  0  0  0  0  0  0  0  0  0  0
  186.9480  178.6190  140.1840 C   0  0  0  0  0  0  0  0  0  0  0  0
  184.5490  178.5300  141.1720 C   0  0  0  0  0  0  0  0  0  0  0  0
  183.9180  178.5750  143.5120 C   0  0  0  0  0  0  0  0  0  0  0  0
  187.2760  177.8040  137.9720 C   0  0  0  0  0  3  0  0  0  0  0  0
  187.7560  178.0370  139.1560 N   0  0  0  0  0  0  0  0  0  0  0  0
  186.1520  178.3440  143.0480 N   0  0  0  0  0  0  0  0  0  0  0  0
  185.4690  178.5000  140.0800 C   0  0  0  0  0  0  0  0  0  0  0  0
  187.3160  178.2530  145.2010 N   0  0  0  0  0  2  0  0  0  0  0  0
  184.5840  178.4860  145.0480 S   0  0  0  0  0  0  0  0  0  0  0  0
  185.8930  178.2520  137.5880 C   0  0  0  0  0  2  0  0  0  0  0  0
  182.7330  178.4420  139.5830 N   0  0  0  0  0  0  0  0  0  0  0  0
  183.5970  178.3250  138.5480 C   0  0  0  0  0  3  0  0  0  0  0  0
  187.5030  179.2900  141.0920 O   0  0  0  0  0  0  0  0  0  0  0  0
  182.6040  178.6530  143.2150 N   0  0  0  0  0  0  0  0  0  0  0  0
  182.1960  178.6290  141.9130 C   0  0  0  0  0  0  0  0  0  0  0  0
  186.1360  178.3330  144.4030 C   0  0  0  0  0  0  0  0  0  0  0  0
  184.9020  178.4990  142.5420 C   0  0  0  0  0  0  0  0  0  0  0  0
  183.1500  178.5400  140.8720 C   0  0  0  0  0  0  0  0  0  0  0  0
  179.6650  180.8190  142.6160 N   0  0  0  0  0  0  0  0  0  0  0  0
  179.1680  180.1270  143.5960 C   0  0  0  0  0  3  0  0  0  0  0  0
  180.7270  178.7370  141.6040 C   0  0  2  0  0  3  0  0  0  0  0  0
  179.2350  178.6560  143.5950 C   0  0  0  0  0  3  0  0  0  0  0  0
  180.3400  180.1890  141.5210 C   0  0  0  0  0  0  0  0  0  0  0  0
  179.9220  178.0090  142.6530 C   0  0  0  0  0  3  0  0  0  0  0  0
  180.6460  180.8650  140.5040 O   0  0  0  0  0  0  0  0  0  0  0  0
  188.5880  178.2330  144.6140 N   0  0  0  0  0  2  0  0  0  0  0  0
  188.9990  177.1960  146.7900 C   0  0  0  0  0  2  0  0  0  0  0  0
  189.3530  177.2030  145.2990 C   0  0  2  0  0  3  0  0  0  0  0  0
  189.7920  176.1170  147.5190 C   0  0  0  0  0  2  0  0  0  0  0  0
  191.6960  177.5020  147.9850 O   0  0  0  0  0  1  0  0  0  0  0  0
  191.6600  176.3940  145.8470 C   0  0  0  0  0  2  0  0  0  0  0  0
  190.8460  177.4680  145.1180 C   0  0  0  0  0  2  0  0  0  0  0  0
  191.2960  176.3330  147.3370 C   0  0  2  0  0  3  0  0  0  0  0  0
  1  8  1  0  0  0  0
  2 14  2  0  0  0  0
  3 18  1  0  0  0  0
  4 10  1  0  0  0  0
  5  6  2  0  0  0  0
  6  2  1  0  0  0  0
  7 17  2  0  0  0  0
  8  2  1  0  0  0  0
  8  3  2  0  0  0  0
 11  5  1  0  0  0  0
 11  1  1  0  0  0  0
 12 19  2  0  0  0  0
 13  1  2  0  0  0  0
 13 12  1  0  0  0  0
 15  4  1  0  0  0  0
 16 15  2  0  0  0  0
 17 10  1  0  0  0  0
 17  9  1  0  0  0  0
 18  7  1  0  0  0  0
 18  4  2  0  0  0  0
 19  3  1  0  0  0  0
 19 16  1  0  0  0  0
 20 21  2  0  0  0  0
 22 16  1  1  0  0  0
 22 25  1  0  0  0  0
 23 21  1  0  0  0  0
 24 22  1  0  0  0  0
 24 20  1  0  0  0  0
 25 23  2  0  0  0  0
 26 24  2  0  0  0  0
 27  9  1  0  0  0  0
 28 30  1  0  0  0  0
 29 27  1  6  0  0  0
 29 28  1  0  0  0  0
 32 34  1  0  0  0  0
 33 29  1  0  0  0  0
 33 32  1  0  0  0  0
 34 30  1  0  0  0  0
 34 31  1  1  0  0  0
M  END
>  <MODEL>
6

>  <REMARK>
 VINA RESULT:      -8.8      2.940      5.677
  Name = 
  3 active torsions:
  status: ('A' for Active; 'I' for Inactive)
    1  A    between atoms: N_3  and  C_13
    2  A    between atoms: N_3  and  N_17
    3  A    between atoms: C_12  and  C_28
                            x       y       z     vdW  Elec       q    Type
                         _______ _______ _______ _____ _____    ______ ____

>  <TORSDO>
F 3

$$$$
=
 OpenBabel11052414073D

 34 39  0  0  1  0  0  0  0  0999 V2000
  183.2440  178.6530  143.0040 C   0  0  0  0  0  0  0  0  0  0  0  0
  184.4020  179.1420  140.9030 C   0  0  0  0  0  0  0  0  0  0  0  0
  185.6660  178.3260  143.0190 C   0  0  0  0  0  0  0  0  0  0  0  0
  188.0250  177.8120  143.2170 C   0  0  0  0  0  0  0  0  0  0  0  0
  182.0430  178.8260  140.8190 C   0  0  0  0  0  3  0  0  0  0  0  0
  183.1740  178.9530  140.1920 N   0  0  0  0  0  0  0  0  0  0  0  0
  187.2240  178.1900  141.1020 N   0  0  0  0  0  0  0  0  0  0  0  0
  184.4770  178.7030  142.3220 C   0  0  0  0  0  0  0  0  0  0  0  0
  189.1310  177.9950  139.5780 N   0  0  0  0  0  2  0  0  0  0  0  0
  189.4030  177.6110  142.2820 S   0  0  0  0  0  0  0  0  0  0  0  0
  181.9550  179.0010  142.3100 C   0  0  0  0  0  2  0  0  0  0  0  0
  184.3550  178.0990  145.0350 N   0  0  0  0  0  0  0  0  0  0  0  0
  183.2110  178.3700  144.3650 C   0  0  0  0  0  3  0  0  0  0  0  0
  185.3460  179.7530  140.3420 O   0  0  0  0  0  0  0  0  0  0  0  0
  187.9330  177.6330  144.5510 N   0  0  0  0  0  0  0  0  0  0  0  0
  186.7230  177.7440  145.1730 C   0  0  0  0  0  0  0  0  0  0  0  0
  188.5360  177.9380  140.8730 C   0  0  0  0  0  0  0  0  0  0  0  0
  186.9370  178.1380  142.4280 C   0  0  0  0  0  0  0  0  0  0  0  0
  185.5670  178.0630  144.4220 C   0  0  0  0  0  0  0  0  0  0  0  0
  188.1580  179.1750  147.9280 N   0  0  0  0  0  0  0  0  0  0  0  0
  189.0550  178.2530  148.0970 C   0  0  0  0  0  3  0  0  0  0  0  0
  186.6470  177.5600  146.6650 C   0  0  2  0  0  3  0  0  0  0  0  0
  188.7780  176.8520  147.7380 C   0  0  0  0  0  3  0  0  0  0  0  0
  186.8840  178.8830  147.3430 C   0  0  0  0  0  0  0  0  0  0  0  0
  187.6480  176.5220  147.1110 C   0  0  0  0  0  3  0  0  0  0  0  0
  185.9730  179.7530  147.3610 O   0  0  0  0  0  0  0  0  0  0  0  0
  188.3860  178.3750  138.4530 N   0  0  0  0  0  2  0  0  0  0  0  0
  187.9310  176.1380  137.5760 C   0  0  0  0  0  2  0  0  0  0  0  0
  188.7190  177.4390  137.3910 C   0  0  2  0  0  3  0  0  0  0  0  0
  188.2690  175.1500  136.4650 C   0  0  0  0  0  2  0  0  0  0  0  0
  190.1450  174.1650  137.5940 O   0  0  0  0  0  1  0  0  0  0  0  0
  190.5770  176.1540  136.3070 C   0  0  0  0  0  2  0  0  0  0  0  0
  190.2180  177.1500  137.4150 C   0  0  0  0  0  2  0  0  0  0  0  0
  189.7700  174.8560  136.4400 C   0  0  2  0  0  3  0  0  0  0  0  0
  1 13  1  0  0  0  0
  2  8  1  0  0  0  0
  3 19  1  0  0  0  0
  4 15  2  0  0  0  0
  5 11  1  0  0  0  0
  6  5  2  0  0  0  0
  6  2  1  0  0  0  0
  7 18  1  0  0  0  0
  8  1  2  0  0  0  0
  8  3  1  0  0  0  0
  9 17  1  0  0  0  0
 10  4  1  0  0  0  0
 11  1  1  0  0  0  0
 13 12  2  0  0  0  0
 14  2  2  0  0  0  0
 15 16  1  0  0  0  0
 17  7  2  0  0  0  0
 17 10  1  0  0  0  0
 18  3  2  0  0  0  0
 18  4  1  0  0  0  0
 19 12  1  0  0  0  0
 19 16  2  0  0  0  0
 20 21  2  0  0  0  0
 22 16  1  6  0  0  0
 22 25  1  0  0  0  0
 22 24  1  0  0  0  0
 23 21  1  0  0  0  0
 24 26  2  0  0  0  0
 24 20  1  0  0  0  0
 25 23  2  0  0  0  0
 27  9  1  0  0  0  0
 29 33  1  0  0  0  0
 29 28  1  0  0  0  0
 29 27  1  1  0  0  0
 30 28  1  0  0  0  0
 32 34  1  0  0  0  0
 32 33  1  0  0  0  0
 34 30  1  0  0  0  0
 34 31  1  1  0  0  0
M  END
>  <MODEL>
7

>  <REMARK>
 VINA RESULT:      -8.7      2.390      5.957
  Name = 
  3 active torsions:
  status: ('A' for Active; 'I' for Inactive)
    1  A    between atoms: N_3  and  C_13
    2  A    between atoms: N_3  and  N_17
    3  A    between atoms: C_12  and  C_28
                            x       y       z     vdW  Elec       q    Type
                         _______ _______ _______ _____ _____    ______ ____

>  <TORSDO>
F 3

$$$$
=
 OpenBabel11052414073D

 34 39  0  0  1  0  0  0  0  0999 V2000
  183.7100  178.7790  141.6270 C   0  0  0  0  0  0  0  0  0  0  0  0
  185.2440  178.4160  143.5000 C   0  0  0  0  0  0  0  0  0  0  0  0
  186.0350  178.3280  141.0290 C   0  0  0  0  0  0  0  0  0  0  0  0
  188.3000  178.0290  140.2190 C   0  0  0  0  0  0  0  0  0  0  0  0
  183.1550  179.4580  143.9670 C   0  0  0  0  0  3  0  0  0  0  0  0
  184.3460  179.1240  144.3620 N   0  0  0  0  0  0  0  0  0  0  0  0
  188.0460  178.3790  142.4710 N   0  0  0  0  0  0  0  0  0  0  0  0
  185.0310  178.4960  142.0300 C   0  0  0  0  0  0  0  0  0  0  0  0
  190.2850  178.2940  143.4570 N   0  0  0  0  0  2  0  0  0  0  0  0
  189.8870  177.9880  140.7580 S   0  0  0  0  0  0  0  0  0  0  0  0
  182.6170  179.0050  142.6380 C   0  0  0  0  0  2  0  0  0  0  0  0
  184.3180  178.5140  139.3410 N   0  0  0  0  0  0  0  0  0  0  0  0
  183.3730  178.7610  140.2780 C   0  0  0  0  0  3  0  0  0  0  0  0
  186.1250  177.6770  144.0080 O   0  0  0  0  0  0  0  0  0  0  0  0
  187.8900  177.9380  138.9370 N   0  0  0  0  0  0  0  0  0  0  0  0
  186.5670  178.0780  138.6310 C   0  0  0  0  0  0  0  0  0  0  0  0
  189.3900  178.2550  142.3480 C   0  0  0  0  0  0  0  0  0  0  0  0
  187.4260  178.2340  141.2720 C   0  0  0  0  0  0  0  0  0  0  0  0
  185.6220  178.3010  139.6600 C   0  0  0  0  0  0  0  0  0  0  0  0
  186.9220  175.7860  136.1180 N   0  0  0  0  0  0  0  0  0  0  0  0
  187.8960  176.4020  135.5210 C   0  0  0  0  0  3  0  0  0  0  0  0
  186.1300  177.9530  137.1960 C   0  0  2  0  0  3  0  0  0  0  0  0
  187.9890  177.8720  135.5440 C   0  0  0  0  0  3  0  0  0  0  0  0
  185.9270  176.4990  136.8610 C   0  0  0  0  0  0  0  0  0  0  0  0
  187.1490  178.5940  136.2870 C   0  0  0  0  0  3  0  0  0  0  0  0
  184.9010  175.8960  137.2710 O   0  0  0  0  0  0  0  0  0  0  0  0
  189.8100  178.4140  144.7700 N   0  0  0  0  0  2  0  0  0  0  0  0
  189.8360  177.3160  146.9550 C   0  0  0  0  0  2  0  0  0  0  0  0
  190.1830  177.1930  145.4670 C   0  0  2  0  0  3  0  0  0  0  0  0
  190.2200  176.0400  147.6960 C   0  0  0  0  0  2  0  0  0  0  0  0
  192.4730  176.7160  148.1740 O   0  0  0  0  0  1  0  0  0  0  0  0
  192.0860  175.6680  146.0410 C   0  0  0  0  0  2  0  0  0  0  0  0
  191.6810  176.9450  145.2990 C   0  0  0  0  0  2  0  0  0  0  0  0
  191.7110  175.7420  147.5270 C   0  0  2  0  0  3  0  0  0  0  0  0
  1  8  1  0  0  0  0
  1 11  1  0  0  0  0
  2 14  2  0  0  0  0
  2  6  1  0  0  0  0
  3 18  1  0  0  0  0
  3  8  2  0  0  0  0
  4 10  1  0  0  0  0
  4 18  2  0  0  0  0
  5  6  2  0  0  0  0
  8  2  1  0  0  0  0
  9 27  1  0  0  0  0
 10 17  1  0  0  0  0
 11  5  1  0  0  0  0
 12 19  2  0  0  0  0
 12 13  1  0  0  0  0
 13  1  2  0  0  0  0
 15  4  1  0  0  0  0
 16 15  2  0  0  0  0
 16 19  1  0  0  0  0
 17  7  2  0  0  0  0
 17  9  1  0  0  0  0
 18  7  1  0  0  0  0
 19  3  1  0  0  0  0
 20 24  1  0  0  0  0
 21 23  1  0  0  0  0
 21 20  2  0  0  0  0
 22 16  1  1  0  0  0
 23 25  2  0  0  0  0
 24 22  1  0  0  0  0
 24 26  2  0  0  0  0
 25 22  1  0  0  0  0
 28 30  1  0  0  0  0
 29 27  1  6  0  0  0
 29 28  1  0  0  0  0
 32 34  1  0  0  0  0
 33 29  1  0  0  0  0
 33 32  1  0  0  0  0
 34 30  1  0  0  0  0
 34 31  1  1  0  0  0
M  END
>  <MODEL>
8

>  <REMARK>
 VINA RESULT:      -8.6      3.487      6.389
  Name = 
  3 active torsions:
  status: ('A' for Active; 'I' for Inactive)
    1  A    between atoms: N_3  and  C_13
    2  A    between atoms: N_3  and  N_17
    3  A    between atoms: C_12  and  C_28
                            x       y       z     vdW  Elec       q    Type
                         _______ _______ _______ _____ _____    ______ ____

>  <TORSDO>
F 3

$$$$
=
 OpenBabel11052414073D

 34 39  0  0  1  0  0  0  0  0999 V2000
  183.4250  177.5250  137.2370 C   0  0  0  0  0  0  0  0  0  0  0  0
  185.7630  177.8690  137.8760 C   0  0  0  0  0  0  0  0  0  0  0  0
  183.8130  178.1480  139.5670 C   0  0  0  0  0  0  0  0  0  0  0  0
  183.9770  178.6280  141.9370 C   0  0  0  0  0  0  0  0  0  0  0  0
  185.3310  176.6790  135.8600 C   0  0  0  0  0  3  0  0  0  0  0  0
  186.1760  177.0590  136.7700 N   0  0  0  0  0  0  0  0  0  0  0  0
  185.9320  178.1320  140.8460 N   0  0  0  0  0  0  0  0  0  0  0  0
  184.3280  177.8620  138.2660 C   0  0  0  0  0  0  0  0  0  0  0  0
  187.7280  178.2920  142.5020 N   0  0  0  0  0  2  0  0  0  0  0  0
  185.1030  178.7320  143.1760 S   0  0  0  0  0  0  0  0  0  0  0  0
  183.9120  177.1760  135.8560 C   0  0  0  0  0  2  0  0  0  0  0  0
  181.5770  177.9600  138.6730 N   0  0  0  0  0  0  0  0  0  0  0  0
  182.0550  177.6020  137.4580 C   0  0  0  0  0  3  0  0  0  0  0  0
  186.6010  178.6280  138.4260 O   0  0  0  0  0  0  0  0  0  0  0  0
  182.6410  178.7690  142.0600 N   0  0  0  0  0  0  0  0  0  0  0  0
  181.8310  178.5690  140.9790 C   0  0  0  0  0  0  0  0  0  0  0  0
  186.3560  178.3430  142.1150 C   0  0  0  0  0  0  0  0  0  0  0  0
  184.5900  178.3100  140.7380 C   0  0  0  0  0  0  0  0  0  0  0  0
  182.3940  178.2300  139.7260 C   0  0  0  0  0  0  0  0  0  0  0  0
  179.7500  180.8350  142.4710 N   0  0  0  0  0  0  0  0  0  0  0  0
  179.5360  180.1280  143.5380 C   0  0  0  0  0  3  0  0  0  0  0  0
  180.3460  178.7510  141.1340 C   0  0  2  0  0  3  0  0  0  0  0  0
  179.5230  178.6570  143.4810 C   0  0  0  0  0  3  0  0  0  0  0  0
  180.0280  180.2210  141.2070 C   0  0  0  0  0  0  0  0  0  0  0  0
  179.8590  178.0180  142.3590 C   0  0  0  0  0  3  0  0  0  0  0  0
  180.0480  180.9220  140.1620 O   0  0  0  0  0  0  0  0  0  0  0  0
  188.7400  178.0680  141.5590 N   0  0  0  0  0  2  0  0  0  0  0  0
  189.8090  176.2830  142.8430 C   0  0  0  0  0  2  0  0  0  0  0  0
  189.9380  177.7100  142.3020 C   0  0  2  0  0  3  0  0  0  0  0  0
  191.0610  175.8950  143.6220 C   0  0  0  0  0  2  0  0  0  0  0  0
  190.2990  176.7540  145.7300 O   0  0  0  0  0  1  0  0  0  0  0  0
  191.3880  178.3150  144.2540 C   0  0  0  0  0  2  0  0  0  0  0  0
  190.1350  178.6910  143.4570 C   0  0  0  0  0  2  0  0  0  0  0  0
  191.3080  176.8720  144.7730 C   0  0  2  0  0  3  0  0  0  0  0  0
  1 13  2  0  0  0  0
  1  8  1  0  0  0  0
  2  8  1  0  0  0  0
  2 14  2  0  0  0  0
  3 19  1  0  0  0  0
  3 18  1  0  0  0  0
  4 15  1  0  0  0  0
  4 10  1  0  0  0  0
  5  6  2  0  0  0  0
  6  2  1  0  0  0  0
  7 17  2  0  0  0  0
  8  3  2  0  0  0  0
 11  5  1  0  0  0  0
 11  1  1  0  0  0  0
 12 19  2  0  0  0  0
 13 12  1  0  0  0  0
 16 15  2  0  0  0  0
 17  9  1  0  0  0  0
 17 10  1  0  0  0  0
 18  7  1  0  0  0  0
 18  4  2  0  0  0  0
 19 16  1  0  0  0  0
 20 21  2  0  0  0  0
 22 16  1  1  0  0  0
 22 24  1  0  0  0  0
 22 25  1  0  0  0  0
 23 21  1  0  0  0  0
 24 20  1  0  0  0  0
 25 23  2  0  0  0  0
 26 24  2  0  0  0  0
 27  9  1  0  0  0  0
 28 30  1  0  0  0  0
 29 27  1  1  0  0  0
 29 28  1  0  0  0  0
 29 33  1  0  0  0  0
 30 34  1  0  0  0  0
 32 34  1  0  0  0  0
 33 32  1  0  0  0  0
 34 31  1  1  0  0  0
M  END
>  <MODEL>
9

>  <REMARK>
 VINA RESULT:      -8.4      3.028      5.299
  Name = 
  3 active torsions:
  status: ('A' for Active; 'I' for Inactive)
    1  A    between atoms: N_3  and  C_13
    2  A    between atoms: N_3  and  N_17
    3  A    between atoms: C_12  and  C_28
                            x       y       z     vdW  Elec       q    Type
                         _______ _______ _______ _____ _____    ______ ____

>  <TORSDO>
F 3

$$$$
