=
 OpenBabel11052412493D

 25 29  0  0  1  0  0  0  0  0999 V2000
  189.5500  177.4710  143.2860 C   0  0  0  0  0  0  0  0  0  0  0  0
  190.4360  178.2290  143.9190 C   0  0  0  0  0  0  0  0  0  0  0  0
  191.3090  179.2710  143.3100 C   0  0  0  0  0  1  0  0  0  0  0  0
  188.8910  176.5520  144.2590 C   0  0  0  0  0  2  0  0  0  0  0  0
  189.5580  176.9060  145.5920 C   0  0  1  0  0  3  0  0  0  0  0  0
  190.4760  177.9400  145.2690 O   0  0  0  0  0  0  0  0  0  0  0  0
  188.0750  178.0200  141.2580 C   0  0  0  0  0  0  0  0  0  0  0  0
  189.1550  177.4560  139.2420 C   0  0  0  0  0  3  0  0  0  0  0  0
  186.8570  178.7210  141.7280 C   0  0  1  0  0  3  0  0  0  0  0  0
  184.0010  178.7340  141.3470 C   0  0  0  0  0  3  0  0  0  0  0  0
  190.1680  177.0080  140.5300 S   0  0  0  0  0  0  0  0  0  0  0  0
  186.1890  178.9490  140.3870 C   0  0  0  0  0  0  0  0  0  0  0  0
  184.7450  179.1940  140.3320 C   0  0  0  0  0  3  0  0  0  0  0  0
  184.6180  177.9610  142.4580 C   0  0  0  0  0  3  0  0  0  0  0  0
  188.0640  178.0130  139.8920 C   0  0  0  0  0  0  0  0  0  0  0  0
  186.8730  178.5550  139.3530 N   0  0  0  0  0  0  0  0  0  0  0  0
  185.9510  177.8950  142.6050 C   0  0  0  0  0  3  0  0  0  0  0  0
  189.2180  177.5060  141.8450 C   0  0  0  0  0  0  0  0  0  0  0  0
  186.2950  178.2650  146.9780 C   0  0  0  0  0  0  0  0  0  0  0  0
  188.5460  177.3950  146.5770 C   0  0  0  0  0  0  0  0  0  0  0  0
  187.1350  177.6010  146.1800 C   0  0  0  0  0  3  0  0  0  0  0  0
  184.6270  178.4820  146.4980 Cl  0  0  0  0  0  0  0  0  0  0  0  0
  188.9300  177.6620  147.8300 C   0  0  0  0  0  3  0  0  0  0  0  0
  186.8020  178.9130  148.2390 C   0  0  0  0  0  2  0  0  0  0  0  0
  187.9210  178.0770  148.8680 C   0  0  0  0  0  2  0  0  0  0  0  0
  1  2  2  0  0  0  0
  1  4  1  0  0  0  0
  2  6  1  0  0  0  0
  3  2  1  0  0  0  0
  4  5  1  0  0  0  0
  5 20  1  1  0  0  0
  6  5  1  0  0  0  0
  7  9  1  0  0  0  0
  7 18  2  0  0  0  0
  8 15  2  0  0  0  0
  8 11  1  0  0  0  0
  9 17  1  1  0  0  0
 10 14  1  0  0  0  0
 11 18  1  0  0  0  0
 12  9  1  0  0  0  0
 13 12  1  0  0  0  0
 13 10  2  0  0  0  0
 14 17  2  0  0  0  0
 15  7  1  0  0  0  0
 16 15  1  0  0  0  0
 16 12  2  0  0  0  0
 18  1  1  0  0  0  0
 19 24  1  0  0  0  0
 20 23  2  0  0  0  0
 21 20  1  0  0  0  0
 21 19  2  0  0  0  0
 22 19  1  0  0  0  0
 23 25  1  0  0  0  0
 24 25  1  0  0  0  0
M  END
>  <MODEL>
1

>  <REMARK>
 VINA RESULT:      -9.3      0.000      0.000
  Name = 
  2 active torsions:
  status: ('A' for Active; 'I' for Inactive)
    1  A    between atoms: C_3  and  C_24
    2  A    between atoms: C_6  and  C_20
                            x       y       z     vdW  Elec       q    Type
                         _______ _______ _______ _____ _____    ______ ____

>  <TORSDO>
F 2

$$$$
=
 OpenBabel11052412493D

 25 29  0  0  1  0  0  0  0  0999 V2000
  189.3560  177.6710  143.1150 C   0  0  0  0  0  0  0  0  0  0  0  0
  190.3110  178.3310  143.7570 C   0  0  0  0  0  0  0  0  0  0  0  0
  191.1860  179.3960  143.1940 C   0  0  0  0  0  1  0  0  0  0  0  0
  188.7210  176.6850  144.0380 C   0  0  0  0  0  2  0  0  0  0  0  0
  189.4850  176.8830  145.3510 C   0  0  1  0  0  3  0  0  0  0  0  0
  190.4240  177.9100  145.0670 O   0  0  0  0  0  0  0  0  0  0  0  0
  189.5930  177.4280  140.5700 C   0  0  0  0  0  0  0  0  0  0  0  0
  187.7200  178.3190  139.4530 C   0  0  0  0  0  3  0  0  0  0  0  0
  190.8160  176.6450  140.2750 C   0  0  1  0  0  3  0  0  0  0  0  0
  193.1050  176.6520  138.5250 C   0  0  0  0  0  3  0  0  0  0  0  0
  187.5130  178.5720  141.1200 S   0  0  0  0  0  0  0  0  0  0  0  0
  190.7180  176.6220  138.7640 C   0  0  0  0  0  0  0  0  0  0  0  0
  191.9200  176.3690  137.9660 C   0  0  0  0  0  3  0  0  0  0  0  0
  193.1830  177.2490  139.8860 C   0  0  0  0  0  3  0  0  0  0  0  0
  188.9340  177.6510  139.3950 C   0  0  0  0  0  0  0  0  0  0  0  0
  189.6540  177.1840  138.2680 N   0  0  0  0  0  0  0  0  0  0  0  0
  192.1060  177.3090  140.6840 C   0  0  0  0  0  3  0  0  0  0  0  0
  188.9360  177.8600  141.7090 C   0  0  0  0  0  0  0  0  0  0  0  0
  186.3530  178.1550  147.0790 C   0  0  0  0  0  0  0  0  0  0  0  0
  188.5590  177.3090  146.4430 C   0  0  0  0  0  0  0  0  0  0  0  0
  187.1220  177.5420  146.1740 C   0  0  0  0  0  3  0  0  0  0  0  0
  184.6540  178.4050  146.7490 Cl  0  0  0  0  0  0  0  0  0  0  0  0
  189.0430  177.4930  147.6760 C   0  0  0  0  0  3  0  0  0  0  0  0
  186.9640  178.7180  148.3350 C   0  0  0  0  0  2  0  0  0  0  0  0
  188.1230  177.8410  148.8160 C   0  0  0  0  0  2  0  0  0  0  0  0
  1  2  2  0  0  0  0
  1  4  1  0  0  0  0
  2  6  1  0  0  0  0
  3  2  1  0  0  0  0
  4  5  1  0  0  0  0
  5 20  1  1  0  0  0
  6  5  1  0  0  0  0
  7 18  2  0  0  0  0
  8 11  1  0  0  0  0
  9  7  1  0  0  0  0
  9 17  1  6  0  0  0
 10 14  1  0  0  0  0
 11 18  1  0  0  0  0
 12  9  1  0  0  0  0
 13 10  2  0  0  0  0
 13 12  1  0  0  0  0
 14 17  2  0  0  0  0
 15  8  2  0  0  0  0
 15  7  1  0  0  0  0
 16 12  2  0  0  0  0
 16 15  1  0  0  0  0
 18  1  1  0  0  0  0
 19 24  1  0  0  0  0
 20 23  2  0  0  0  0
 21 20  1  0  0  0  0
 21 19  2  0  0  0  0
 22 19  1  0  0  0  0
 23 25  1  0  0  0  0
 24 25  1  0  0  0  0
M  END
>  <MODEL>
2

>  <REMARK>
 VINA RESULT:      -8.5      1.879      3.805
  Name = 
  2 active torsions:
  status: ('A' for Active; 'I' for Inactive)
    1  A    between atoms: C_3  and  C_24
    2  A    between atoms: C_6  and  C_20
                            x       y       z     vdW  Elec       q    Type
                         _______ _______ _______ _____ _____    ______ ____

>  <TORSDO>
F 2

$$$$
=
 OpenBabel11052412493D

 25 29  0  0  1  0  0  0  0  0999 V2000
  186.6130  178.0380  146.2550 C   0  0  0  0  0  0  0  0  0  0  0  0
  185.9420  179.0970  146.6900 C   0  0  0  0  0  0  0  0  0  0  0  0
  186.4460  180.1470  147.6170 C   0  0  0  0  0  1  0  0  0  0  0  0
  185.7450  177.2330  145.3470 C   0  0  0  0  0  2  0  0  0  0  0  0
  184.4260  178.0130  145.3310 C   0  0  1  0  0  3  0  0  0  0  0  0
  184.6610  179.1290  146.1760 O   0  0  0  0  0  0  0  0  0  0  0  0
  189.0880  177.6330  145.7060 C   0  0  0  0  0  0  0  0  0  0  0  0
  190.3170  177.1170  147.6480 C   0  0  0  0  0  3  0  0  0  0  0  0
  189.3160  177.9320  144.2720 C   0  0  1  0  0  3  0  0  0  0  0  0
  190.6430  176.8590  141.9510 C   0  0  0  0  0  3  0  0  0  0  0  0
  188.6880  177.3110  148.0870 S   0  0  0  0  0  0  0  0  0  0  0  0
  190.8030  177.6500  144.2100 C   0  0  0  0  0  0  0  0  0  0  0  0
  191.4280  177.3510  142.9190 C   0  0  0  0  0  3  0  0  0  0  0  0
  189.2030  176.5810  142.2030 C   0  0  0  0  0  3  0  0  0  0  0  0
  190.2960  177.3640  146.2840 C   0  0  0  0  0  0  0  0  0  0  0  0
  191.3560  177.3350  145.3450 N   0  0  0  0  0  0  0  0  0  0  0  0
  188.5920  177.0210  143.3140 C   0  0  0  0  0  3  0  0  0  0  0  0
  188.0120  177.6790  146.5750 C   0  0  0  0  0  0  0  0  0  0  0  0
  182.3760  179.0060  142.2930 C   0  0  0  0  0  0  0  0  0  0  0  0
  184.0980  178.4670  143.9450 C   0  0  0  0  0  0  0  0  0  0  0  0
  182.7150  178.8420  143.5750 C   0  0  0  0  0  3  0  0  0  0  0  0
  180.7400  179.4660  141.8780 Cl  0  0  0  0  0  0  0  0  0  0  0  0
  185.0700  178.5210  143.0270 C   0  0  0  0  0  3  0  0  0  0  0  0
  183.3680  178.6990  141.2020 C   0  0  0  0  0  2  0  0  0  0  0  0
  184.7900  179.0510  141.6460 C   0  0  0  0  0  2  0  0  0  0  0  0
  1 18  1  0  0  0  0
  1  2  2  0  0  0  0
  2  3  1  0  0  0  0
  4  1  1  0  0  0  0
  5 20  1  6  0  0  0
  5  4  1  0  0  0  0
  5  6  1  0  0  0  0
  6  2  1  0  0  0  0
  7 15  1  0  0  0  0
  7 18  2  0  0  0  0
  8 11  1  0  0  0  0
  9 17  1  6  0  0  0
  9  7  1  0  0  0  0
 10 14  1  0  0  0  0
 10 13  2  0  0  0  0
 12  9  1  0  0  0  0
 12 16  2  0  0  0  0
 13 12  1  0  0  0  0
 14 17  2  0  0  0  0
 15  8  2  0  0  0  0
 16 15  1  0  0  0  0
 18 11  1  0  0  0  0
 19 21  2  0  0  0  0
 21 20  1  0  0  0  0
 22 19  1  0  0  0  0
 23 20  2  0  0  0  0
 24 25  1  0  0  0  0
 24 19  1  0  0  0  0
 25 23  1  0  0  0  0
M  END
>  <MODEL>
3

>  <REMARK>
 VINA RESULT:      -8.5      3.128      6.077
  Name = 
  2 active torsions:
  status: ('A' for Active; 'I' for Inactive)
    1  A    between atoms: C_3  and  C_24
    2  A    between atoms: C_6  and  C_20
                            x       y       z     vdW  Elec       q    Type
                         _______ _______ _______ _____ _____    ______ ____

>  <TORSDO>
F 2

$$$$
=
 OpenBabel11052412493D

 25 29  0  0  1  0  0  0  0  0999 V2000
  190.2570  176.7190  141.6070 C   0  0  0  0  0  0  0  0  0  0  0  0
  191.5250  177.0990  141.6980 C   0  0  0  0  0  0  0  0  0  0  0  0
  192.2670  177.9510  140.7280 C   0  0  0  0  0  1  0  0  0  0  0  0
  189.9040  175.8680  142.7810 C   0  0  0  0  0  2  0  0  0  0  0  0
  191.2070  175.8120  143.5850 C   0  0  1  0  0  3  0  0  0  0  0  0
  192.1230  176.5990  142.8370 O   0  0  0  0  0  0  0  0  0  0  0  0
  188.1100  177.7710  140.6720 C   0  0  0  0  0  0  0  0  0  0  0  0
  188.0110  177.5610  138.3280 C   0  0  0  0  0  3  0  0  0  0  0  0
  187.3850  178.4410  141.7770 C   0  0  1  0  0  3  0  0  0  0  0  0
  184.7280  178.7250  142.8560 C   0  0  0  0  0  3  0  0  0  0  0  0
  189.4240  176.7910  138.8700 S   0  0  0  0  0  0  0  0  0  0  0  0
  186.2110  178.9840  140.9880 C   0  0  0  0  0  0  0  0  0  0  0  0
  184.9700  179.3320  141.6860 C   0  0  0  0  0  3  0  0  0  0  0  0
  185.6640  177.7000  143.3930 C   0  0  0  0  0  3  0  0  0  0  0  0
  187.4580  178.0450  139.5030 C   0  0  0  0  0  0  0  0  0  0  0  0
  186.2550  178.7660  139.7060 N   0  0  0  0  0  0  0  0  0  0  0  0
  186.8800  177.5160  142.8540 C   0  0  0  0  0  3  0  0  0  0  0  0
  189.2960  177.0710  140.5380 C   0  0  0  0  0  0  0  0  0  0  0  0
  191.6490  176.3950  147.3110 C   0  0  0  0  0  0  0  0  0  0  0  0
  191.0130  176.3920  144.9490 C   0  0  0  0  0  0  0  0  0  0  0  0
  191.9550  176.0840  146.0480 C   0  0  0  0  0  3  0  0  0  0  0  0
  192.7840  176.0380  148.5930 Cl  0  0  0  0  0  0  0  0  0  0  0  0
  189.9640  177.1900  145.1760 C   0  0  0  0  0  3  0  0  0  0  0  0
  190.2940  176.9580  147.6450 C   0  0  0  0  0  2  0  0  0  0  0  0
  189.7840  177.8560  146.5140 C   0  0  0  0  0  2  0  0  0  0  0  0
  1  2  2  0  0  0  0
  1  4  1  0  0  0  0
  2  6  1  0  0  0  0
  3  2  1  0  0  0  0
  4  5  1  0  0  0  0
  5 20  1  1  0  0  0
  6  5  1  0  0  0  0
  7  9  1  0  0  0  0
  8 11  1  0  0  0  0
  8 15  2  0  0  0  0
  9 17  1  1  0  0  0
 10 14  1  0  0  0  0
 11 18  1  0  0  0  0
 12 13  1  0  0  0  0
 12  9  1  0  0  0  0
 13 10  2  0  0  0  0
 15 16  1  0  0  0  0
 15  7  1  0  0  0  0
 16 12  2  0  0  0  0
 17 14  2  0  0  0  0
 18  7  2  0  0  0  0
 18  1  1  0  0  0  0
 19 24  1  0  0  0  0
 19 22  1  0  0  0  0
 20 23  2  0  0  0  0
 20 21  1  0  0  0  0
 21 19  2  0  0  0  0
 23 25  1  0  0  0  0
 25 24  1  0  0  0  0
M  END
>  <MODEL>
4

>  <REMARK>
 VINA RESULT:      -8.2      2.550      3.087
  Name = 
  2 active torsions:
  status: ('A' for Active; 'I' for Inactive)
    1  A    between atoms: C_3  and  C_24
    2  A    between atoms: C_6  and  C_20
                            x       y       z     vdW  Elec       q    Type
                         _______ _______ _______ _____ _____    ______ ____

>  <TORSDO>
F 2

$$$$
=
 OpenBabel11052412493D

 25 29  0  0  1  0  0  0  0  0999 V2000
  189.4820  177.4360  143.1150 C   0  0  0  0  0  0  0  0  0  0  0  0
  189.9790  176.3610  142.5190 C   0  0  0  0  0  0  0  0  0  0  0  0
  190.3910  175.0910  143.1800 C   0  0  0  0  0  1  0  0  0  0  0  0
  189.2060  178.4910  142.0950 C   0  0  0  0  0  2  0  0  0  0  0  0
  189.6400  177.8370  140.7800 C   0  0  1  0  0  3  0  0  0  0  0  0
  190.0880  176.5430  141.1540 O   0  0  0  0  0  0  0  0  0  0  0  0
  187.9690  177.7010  145.1730 C   0  0  0  0  0  0  0  0  0  0  0  0
  189.2380  177.7650  147.1570 C   0  0  0  0  0  3  0  0  0  0  0  0
  186.5540  177.6290  144.7390 C   0  0  1  0  0  3  0  0  0  0  0  0
  184.0270  178.9550  145.1390 C   0  0  0  0  0  3  0  0  0  0  0  0
  190.3110  177.6500  145.8450 S   0  0  0  0  0  0  0  0  0  0  0  0
  185.8900  177.7810  146.0920 C   0  0  0  0  0  0  0  0  0  0  0  0
  184.4990  178.2360  146.1670 C   0  0  0  0  0  3  0  0  0  0  0  0
  184.9050  179.3170  143.9940 C   0  0  0  0  0  3  0  0  0  0  0  0
  187.9970  177.7570  146.5370 C   0  0  0  0  0  0  0  0  0  0  0  0
  186.7030  177.8470  147.1060 N   0  0  0  0  0  0  0  0  0  0  0  0
  186.1130  178.7520  143.8350 C   0  0  0  0  0  3  0  0  0  0  0  0
  189.2060  177.6070  144.5580 C   0  0  0  0  0  0  0  0  0  0  0  0
  187.6600  177.0310  137.6420 C   0  0  0  0  0  0  0  0  0  0  0  0
  188.4880  177.7360  139.8330 C   0  0  0  0  0  0  0  0  0  0  0  0
  188.5850  176.9240  138.5990 C   0  0  0  0  0  3  0  0  0  0  0  0
  187.7840  176.0500  136.1990 Cl  0  0  0  0  0  0  0  0  0  0  0  0
  187.3600  178.4030  140.1030 C   0  0  0  0  0  3  0  0  0  0  0  0
  186.5700  178.0640  137.7540 C   0  0  0  0  0  2  0  0  0  0  0  0
  186.1530  178.2580  139.2150 C   0  0  0  0  0  2  0  0  0  0  0  0
  1 18  1  0  0  0  0
  2  1  2  0  0  0  0
  2  3  1  0  0  0  0
  4  1  1  0  0  0  0
  5 20  1  6  0  0  0
  5  6  1  0  0  0  0
  5  4  1  0  0  0  0
  6  2  1  0  0  0  0
  7 15  1  0  0  0  0
  9 17  1  6  0  0  0
  9  7  1  0  0  0  0
  9 12  1  0  0  0  0
 10 13  2  0  0  0  0
 11  8  1  0  0  0  0
 12 13  1  0  0  0  0
 12 16  2  0  0  0  0
 14 10  1  0  0  0  0
 15 16  1  0  0  0  0
 15  8  2  0  0  0  0
 17 14  2  0  0  0  0
 18  7  2  0  0  0  0
 18 11  1  0  0  0  0
 19 24  1  0  0  0  0
 19 21  2  0  0  0  0
 20 23  2  0  0  0  0
 21 20  1  0  0  0  0
 22 19  1  0  0  0  0
 24 25  1  0  0  0  0
 25 23  1  0  0  0  0
M  END
>  <MODEL>
5

>  <REMARK>
 VINA RESULT:      -8.0      3.366      6.271
  Name = 
  2 active torsions:
  status: ('A' for Active; 'I' for Inactive)
    1  A    between atoms: C_3  and  C_24
    2  A    between atoms: C_6  and  C_20
                            x       y       z     vdW  Elec       q    Type
                         _______ _______ _______ _____ _____    ______ ____

>  <TORSDO>
F 2

$$$$
=
 OpenBabel11052412493D

 25 29  0  0  1  0  0  0  0  0999 V2000
  189.5160  177.4500  142.8570 C   0  0  0  0  0  0  0  0  0  0  0  0
  190.1780  176.3870  142.4220 C   0  0  0  0  0  0  0  0  0  0  0  0
  190.5230  175.1720  143.2120 C   0  0  0  0  0  1  0  0  0  0  0  0
  189.3860  178.4460  141.7520 C   0  0  0  0  0  2  0  0  0  0  0  0
  190.1040  177.7710  140.5790 C   0  0  1  0  0  3  0  0  0  0  0  0
  190.5410  176.5230  141.0970 O   0  0  0  0  0  0  0  0  0  0  0  0
  187.6200  177.7760  144.5580 C   0  0  0  0  0  0  0  0  0  0  0  0
  188.4610  177.8790  146.7570 C   0  0  0  0  0  3  0  0  0  0  0  0
  186.3220  177.7040  143.8480 C   0  0  1  0  0  3  0  0  0  0  0  0
  183.7830  179.0570  143.6970 C   0  0  0  0  0  3  0  0  0  0  0  0
  189.7760  177.7240  145.6930 S   0  0  0  0  0  0  0  0  0  0  0  0
  185.3990  177.8940  145.0340 C   0  0  0  0  0  0  0  0  0  0  0  0
  184.0270  178.3600  144.8150 C   0  0  0  0  0  3  0  0  0  0  0  0
  184.8790  179.3850  142.7460 C   0  0  0  0  0  3  0  0  0  0  0  0
  187.3720  177.8650  145.8980 C   0  0  0  0  0  0  0  0  0  0  0  0
  185.9900  177.9780  146.1900 N   0  0  0  0  0  0  0  0  0  0  0  0
  186.0870  178.8080  142.8490 C   0  0  0  0  0  3  0  0  0  0  0  0
  188.9550  177.6580  144.2100 C   0  0  0  0  0  0  0  0  0  0  0  0
  186.9130  177.8420  138.5220 C   0  0  0  0  0  0  0  0  0  0  0  0
  189.1650  177.5620  139.4350 C   0  0  0  0  0  0  0  0  0  0  0  0
  187.8390  178.2190  139.4080 C   0  0  0  0  0  3  0  0  0  0  0  0
  185.3580  178.6440  138.4960 Cl  0  0  0  0  0  0  0  0  0  0  0  0
  189.5290  176.7570  138.4300 C   0  0  0  0  0  3  0  0  0  0  0  0
  187.1650  176.6660  137.6170 C   0  0  0  0  0  2  0  0  0  0  0  0
  188.6430  176.5890  137.2240 C   0  0  0  0  0  2  0  0  0  0  0  0
  1 18  1  0  0  0  0
  2  1  2  0  0  0  0
  2  3  1  0  0  0  0
  4  1  1  0  0  0  0
  5 20  1  6  0  0  0
  5  6  1  0  0  0  0
  5  4  1  0  0  0  0
  6  2  1  0  0  0  0
  7 15  1  0  0  0  0
  9 17  1  6  0  0  0
  9  7  1  0  0  0  0
  9 12  1  0  0  0  0
 10 13  2  0  0  0  0
 11  8  1  0  0  0  0
 12 16  2  0  0  0  0
 13 12  1  0  0  0  0
 14 17  2  0  0  0  0
 14 10  1  0  0  0  0
 15 16  1  0  0  0  0
 15  8  2  0  0  0  0
 18  7  2  0  0  0  0
 18 11  1  0  0  0  0
 19 21  2  0  0  0  0
 21 20  1  0  0  0  0
 22 19  1  0  0  0  0
 23 20  2  0  0  0  0
 24 19  1  0  0  0  0
 25 24  1  0  0  0  0
 25 23  1  0  0  0  0
M  END
>  <MODEL>
6

>  <REMARK>
 VINA RESULT:      -7.6      2.907      6.016
  Name = 
  2 active torsions:
  status: ('A' for Active; 'I' for Inactive)
    1  A    between atoms: C_3  and  C_24
    2  A    between atoms: C_6  and  C_20
                            x       y       z     vdW  Elec       q    Type
                         _______ _______ _______ _____ _____    ______ ____

>  <TORSDO>
F 2

$$$$
=
 OpenBabel11052412493D

 25 29  0  0  1  0  0  0  0  0999 V2000
  189.5290  177.5110  142.9520 C   0  0  0  0  0  0  0  0  0  0  0  0
  189.8080  178.3660  143.9270 C   0  0  0  0  0  0  0  0  0  0  0  0
  190.9090  179.3680  143.9390 C   0  0  0  0  0  1  0  0  0  0  0  0
  188.3520  176.6780  143.3380 C   0  0  0  0  0  2  0  0  0  0  0  0
  187.9900  177.1980  144.7330 C   0  0  1  0  0  3  0  0  0  0  0  0
  188.9360  178.2260  144.9880 O   0  0  0  0  0  0  0  0  0  0  0  0
  189.7970  177.8150  140.4170 C   0  0  0  0  0  0  0  0  0  0  0  0
  191.8930  177.0280  139.6830 C   0  0  0  0  0  3  0  0  0  0  0  0
  188.6260  178.5600  139.8970 C   0  0  1  0  0  3  0  0  0  0  0  0
  186.7370  178.5140  137.7210 C   0  0  0  0  0  3  0  0  0  0  0  0
  191.7720  176.7370  141.3520 S   0  0  0  0  0  0  0  0  0  0  0  0
  189.0250  178.6280  138.4370 C   0  0  0  0  0  0  0  0  0  0  0  0
  187.9970  178.8570  137.4180 C   0  0  0  0  0  3  0  0  0  0  0  0
  186.4130  177.8770  139.0260 C   0  0  0  0  0  3  0  0  0  0  0  0
  190.6880  177.6510  139.3940 C   0  0  0  0  0  0  0  0  0  0  0  0
  190.1890  178.1210  138.1550 N   0  0  0  0  0  0  0  0  0  0  0  0
  187.3100  177.8350  140.0240 C   0  0  0  0  0  3  0  0  0  0  0  0
  190.2310  177.3780  141.6560 C   0  0  0  0  0  0  0  0  0  0  0  0
  184.6900  178.5880  143.4690 C   0  0  0  0  0  0  0  0  0  0  0  0
  186.6020  177.7520  144.7470 C   0  0  0  0  0  0  0  0  0  0  0  0
  185.8180  177.8730  143.4960 C   0  0  0  0  0  3  0  0  0  0  0  0
  183.7700  178.7040  141.9860 Cl  0  0  0  0  0  0  0  0  0  0  0  0
  186.0700  178.1550  145.9060 C   0  0  0  0  0  3  0  0  0  0  0  0
  184.2620  179.3740  144.6800 C   0  0  0  0  0  2  0  0  0  0  0  0
  184.6470  178.6400  145.9680 C   0  0  0  0  0  2  0  0  0  0  0  0
  1  4  1  0  0  0  0
  1  2  2  0  0  0  0
  2  3  1  0  0  0  0
  2  6  1  0  0  0  0
  4  5  1  0  0  0  0
  5 20  1  6  0  0  0
  5  6  1  0  0  0  0
  7 18  2  0  0  0  0
  8 11  1  0  0  0  0
  9 17  1  6  0  0  0
  9  7  1  0  0  0  0
 10 14  1  0  0  0  0
 11 18  1  0  0  0  0
 12  9  1  0  0  0  0
 13 10  2  0  0  0  0
 13 12  1  0  0  0  0
 14 17  2  0  0  0  0
 15  8  2  0  0  0  0
 15  7  1  0  0  0  0
 16 12  2  0  0  0  0
 16 15  1  0  0  0  0
 18  1  1  0  0  0  0
 19 21  2  0  0  0  0
 19 24  1  0  0  0  0
 20 23  2  0  0  0  0
 21 20  1  0  0  0  0
 22 19  1  0  0  0  0
 23 25  1  0  0  0  0
 24 25  1  0  0  0  0
M  END
>  <MODEL>
7

>  <REMARK>
 VINA RESULT:      -7.6      2.067      3.027
  Name = 
  2 active torsions:
  status: ('A' for Active; 'I' for Inactive)
    1  A    between atoms: C_3  and  C_24
    2  A    between atoms: C_6  and  C_20
                            x       y       z     vdW  Elec       q    Type
                         _______ _______ _______ _____ _____    ______ ____

>  <TORSDO>
F 2

$$$$
=
 OpenBabel11052412493D

 25 29  0  0  1  0  0  0  0  0999 V2000
  187.4480  178.0050  142.4150 C   0  0  0  0  0  0  0  0  0  0  0  0
  188.3080  176.9970  142.3400 C   0  0  0  0  0  0  0  0  0  0  0  0
  188.3510  175.8010  143.2270 C   0  0  0  0  0  1  0  0  0  0  0  0
  187.7510  179.0010  141.3460 C   0  0  0  0  0  2  0  0  0  0  0  0
  188.9590  178.3940  140.6250 C   0  0  1  0  0  3  0  0  0  0  0  0
  189.2080  177.1750  141.3090 O   0  0  0  0  0  0  0  0  0  0  0  0
  186.4240  178.3160  144.7490 C   0  0  0  0  0  0  0  0  0  0  0  0
  184.0800  178.5150  144.6280 C   0  0  0  0  0  3  0  0  0  0  0  0
  187.5190  178.4480  145.7390 C   0  0  1  0  0  3  0  0  0  0  0  0
  188.2970  177.5020  148.3470 C   0  0  0  0  0  3  0  0  0  0  0  0
  184.6710  178.2530  143.0580 S   0  0  0  0  0  0  0  0  0  0  0  0
  186.6810  178.6400  146.9860 C   0  0  0  0  0  0  0  0  0  0  0  0
  187.2660  178.3580  148.2990 C   0  0  0  0  0  3  0  0  0  0  0  0
  188.7870  176.8290  147.1140 C   0  0  0  0  0  3  0  0  0  0  0  0
  185.2370  178.5300  145.3910 C   0  0  0  0  0  0  0  0  0  0  0  0
  185.3950  178.6920  146.7890 N   0  0  0  0  0  0  0  0  0  0  0  0
  188.3790  177.2210  145.8960 C   0  0  0  0  0  3  0  0  0  0  0  0
  186.3340  178.1550  143.3770 C   0  0  0  0  0  0  0  0  0  0  0  0
  186.9520  177.5740  137.5070 C   0  0  0  0  0  0  0  0  0  0  0  0
  188.6410  178.1310  139.1890 C   0  0  0  0  0  0  0  0  0  0  0  0
  187.2370  178.0500  138.7230 C   0  0  0  0  0  3  0  0  0  0  0  0
  185.2900  177.5040  136.9700 Cl  0  0  0  0  0  0  0  0  0  0  0  0
  189.6410  177.9530  138.3190 C   0  0  0  0  0  3  0  0  0  0  0  0
  188.0450  177.0070  136.6410 C   0  0  0  0  0  2  0  0  0  0  0  0
  189.3570  177.7680  136.8530 C   0  0  0  0  0  2  0  0  0  0  0  0
  1 18  1  0  0  0  0
  2  1  2  0  0  0  0
  2  3  1  0  0  0  0
  4  1  1  0  0  0  0
  5 20  1  6  0  0  0
  5  6  1  0  0  0  0
  5  4  1  0  0  0  0
  6  2  1  0  0  0  0
  7 15  1  0  0  0  0
  7  9  1  0  0  0  0
  8 15  2  0  0  0  0
  9 17  1  1  0  0  0
  9 12  1  0  0  0  0
 11 18  1  0  0  0  0
 11  8  1  0  0  0  0
 12 13  1  0  0  0  0
 13 10  2  0  0  0  0
 14 10  1  0  0  0  0
 15 16  1  0  0  0  0
 16 12  2  0  0  0  0
 17 14  2  0  0  0  0
 18  7  2  0  0  0  0
 19 21  2  0  0  0  0
 21 20  1  0  0  0  0
 22 19  1  0  0  0  0
 23 20  2  0  0  0  0
 24 25  1  0  0  0  0
 24 19  1  0  0  0  0
 25 23  1  0  0  0  0
M  END
>  <MODEL>
8

>  <REMARK>
 VINA RESULT:      -7.5      3.291      7.044
  Name = 
  2 active torsions:
  status: ('A' for Active; 'I' for Inactive)
    1  A    between atoms: C_3  and  C_24
    2  A    between atoms: C_6  and  C_20
                            x       y       z     vdW  Elec       q    Type
                         _______ _______ _______ _____ _____    ______ ____

>  <TORSDO>
F 2

$$$$
=
 OpenBabel11052412493D

 25 29  0  0  1  0  0  0  0  0999 V2000
  188.6400  177.6380  142.3830 C   0  0  0  0  0  0  0  0  0  0  0  0
  189.5410  176.7730  141.9380 C   0  0  0  0  0  0  0  0  0  0  0  0
  190.0290  175.5570  142.6470 C   0  0  0  0  0  1  0  0  0  0  0  0
  188.4390  178.7170  141.3710 C   0  0  0  0  0  2  0  0  0  0  0  0
  189.3990  178.3280  140.2410 C   0  0  1  0  0  3  0  0  0  0  0  0
  190.0120  177.1290  140.6900 O   0  0  0  0  0  0  0  0  0  0  0  0
  188.4370  177.6480  144.9420 C   0  0  0  0  0  0  0  0  0  0  0  0
  186.1810  177.5630  145.6160 C   0  0  0  0  0  3  0  0  0  0  0  0
  189.7840  177.8420  145.5290 C   0  0  1  0  0  3  0  0  0  0  0  0
  191.4790  176.8110  147.6190 C   0  0  0  0  0  3  0  0  0  0  0  0
  186.2310  177.4920  143.9200 S   0  0  0  0  0  0  0  0  0  0  0  0
  189.4010  177.8360  146.9950 C   0  0  0  0  0  0  0  0  0  0  0  0
  190.4180  177.5330  148.0060 C   0  0  0  0  0  3  0  0  0  0  0  0
  191.5850  176.2960  146.2270 C   0  0  0  0  0  3  0  0  0  0  0  0
  187.5220  177.6660  145.9560 C   0  0  0  0  0  0  0  0  0  0  0  0
  188.1250  177.7430  147.2350 N   0  0  0  0  0  0  0  0  0  0  0  0
  190.7570  176.7230  145.2600 C   0  0  0  0  0  3  0  0  0  0  0  0
  187.9060  177.5780  143.6660 C   0  0  0  0  0  0  0  0  0  0  0  0
  188.7280  177.7580  136.5480 C   0  0  0  0  0  0  0  0  0  0  0  0
  188.6490  178.0870  138.9710 C   0  0  0  0  0  0  0  0  0  0  0  0
  189.3620  177.7290  137.7230 C   0  0  0  0  0  3  0  0  0  0  0  0
  189.5840  177.3150  135.0880 Cl  0  0  0  0  0  0  0  0  0  0  0  0
  187.3180  178.2110  138.9640 C   0  0  0  0  0  3  0  0  0  0  0  0
  187.3130  178.2660  136.4620 C   0  0  0  0  0  2  0  0  0  0  0  0
  186.5260  177.8960  137.7230 C   0  0  0  0  0  2  0  0  0  0  0  0
  1 18  1  0  0  0  0
  2  1  2  0  0  0  0
  2  3  1  0  0  0  0
  4  1  1  0  0  0  0
  5 20  1  6  0  0  0
  5  6  1  0  0  0  0
  5  4  1  0  0  0  0
  6  2  1  0  0  0  0
  7  9  1  0  0  0  0
  7 15  1  0  0  0  0
  8 15  2  0  0  0  0
  9 17  1  1  0  0  0
  9 12  1  0  0  0  0
 10 13  2  0  0  0  0
 11  8  1  0  0  0  0
 12 16  2  0  0  0  0
 12 13  1  0  0  0  0
 14 10  1  0  0  0  0
 15 16  1  0  0  0  0
 17 14  2  0  0  0  0
 18 11  1  0  0  0  0
 18  7  2  0  0  0  0
 19 21  2  0  0  0  0
 21 20  1  0  0  0  0
 22 19  1  0  0  0  0
 23 20  2  0  0  0  0
 24 19  1  0  0  0  0
 24 25  1  0  0  0  0
 25 23  1  0  0  0  0
M  END
>  <MODEL>
9

>  <REMARK>
 VINA RESULT:      -7.4      3.783      7.508
  Name = 
  2 active torsions:
  status: ('A' for Active; 'I' for Inactive)
    1  A    between atoms: C_3  and  C_24
    2  A    between atoms: C_6  and  C_20
                            x       y       z     vdW  Elec       q    Type
                         _______ _______ _______ _____ _____    ______ ____

>  <TORSDO>
F 2

$$$$
