=
 OpenBabel11052417043D

 32 32  0  0  1  0  0  0  0  0999 V2000
  190.1220  176.9310  143.0710 C   0  0  2  0  0  3  0  0  0  0  0  0
  189.4070  176.9130  141.7160 C   0  0  1  0  0  3  0  0  0  0  0  0
  189.0370  178.2050  141.3300 O   0  0  0  0  0  0  0  0  0  0  0  0
  187.6450  178.2280  141.4320 C   0  0  0  0  0  2  0  0  0  0  0  0
  187.0480  178.5840  140.0870 C   0  0  0  0  0  1  0  0  0  0  0  0
  190.2830  176.3340  140.7070 N   0  0  0  0  0  2  0  0  0  0  0  0
  190.8040  177.4260  139.9000 C   0  0  0  0  0  2  0  0  0  0  0  0
  189.7950  175.9370  138.1940 C   0  0  1  0  0  3  0  0  0  0  0  0
  188.9400  176.8850  137.5000 N   0  0  0  0  0  2  0  0  0  0  0  0
  189.8520  177.9370  137.7230 N   0  0  0  0  0  2  0  0  0  0  0  0
  190.3740  174.9510  137.1970 C   0  0  0  0  0  1  0  0  0  0  0  0
  190.7660  177.0520  138.4250 C   0  0  1  0  0  3  0  0  0  0  0  0
  190.6190  175.5510  143.5350 C   0  0  0  0  0  2  0  0  0  0  0  0
  192.0100  175.5910  143.9590 N   0  0  0  0  0  2  0  0  0  0  0  0
  192.0460  175.0880  145.3200 C   0  0  0  0  0  2  0  0  0  0  0  0
  191.9390  176.1540  146.2110 O   0  0  0  0  0  0  0  0  0  0  0  0
  192.4220  175.6500  147.4190 C   0  0  0  0  0  1  0  0  0  0  0  0
  189.4090  177.7380  144.0810 N   0  0  0  0  0  0  0  0  0  0  0  0
  190.3190  178.6920  144.7260 C   0  0  0  0  0  2  0  0  0  0  0  0
  191.4050  179.2200  143.7930 C   0  0  0  0  0  1  0  0  0  0  0  0
  188.6790  176.9400  145.0690 C   0  0  0  0  0  2  0  0  0  0  0  0
  187.1750  177.1090  144.8920 C   0  0  0  0  0  2  0  0  0  0  0  0
  186.7220  178.4980  145.3110 C   0  0  0  0  0  2  0  0  0  0  0  0
  185.3570  178.4360  145.9760 C   0  0  0  0  0  2  0  0  0  0  0  0
  184.2950  178.8910  145.0300 C   0  0  0  0  0  0  0  0  0  0  0  0
  183.1290  178.9380  145.3890 O   0  0  0  0  0  0  0  0  0  0  0  0
  184.6630  179.2890  143.6390 C   0  0  0  0  0  2  0  0  0  0  0  0
  183.6940  178.7090  142.6560 C   0  0  0  0  0  0  0  0  0  0  0  0
  184.0890  177.8140  141.8650 O   0  0  0  0  0  0  0  0  0  0  0  0
  182.3600  179.1160  142.6120 O   0  0  0  0  0  0  0  0  0  0  0  0
  181.4530  178.6460  141.6260 C   0  0  0  0  0  2  0  0  0  0  0  0
  179.8230  179.3920  141.8970 S   0  0  0  0  0  1  0  0  0  0  0  0
  1 13  1  1  0  0  0
  1 18  1  0  0  0  0
  2  6  1  6  0  0  0
  2  1  1  0  0  0  0
  3  4  1  0  0  0  0
  3  2  1  0  0  0  0
  5  4  1  0  0  0  0
  7  6  1  0  0  0  0
  8 11  1  6  0  0  0
  8 12  1  0  0  0  0
  9 10  1  0  0  0  0
  9  8  1  0  0  0  0
 10 12  1  0  0  0  0
 12  7  1  1  0  0  0
 13 14  1  0  0  0  0
 14 15  1  0  0  0  0
 15 16  1  0  0  0  0
 16 17  1  0  0  0  0
 18 19  1  0  0  0  0
 18 21  1  0  0  0  0
 20 19  1  0  0  0  0
 22 21  1  0  0  0  0
 22 23  1  0  0  0  0
 23 24  1  0  0  0  0
 25 26  2  0  0  0  0
 25 24  1  0  0  0  0
 27 25  1  0  0  0  0
 28 27  1  0  0  0  0
 29 28  2  0  0  0  0
 30 28  1  0  0  0  0
 31 32  1  0  0  0  0
 31 30  1  0  0  0  0
M  END
>  <MODEL>
1

>  <REMARK>
 VINA RESULT:      -5.4      0.000      0.000
  Name = 
  21 active torsions:
  status: ('A' for Active; 'I' for Inactive)
    1  A    between atoms: C_1  and  O_20
    2  A    between atoms: C_2  and  C_9
    3  A    between atoms: C_2  and  C_23
    4  A    between atoms: C_3  and  N_14
    5  A    between atoms: C_4  and  O_5
    6  A    between atoms: C_4  and  N_13
    7  A    between atoms: C_6  and  O_31
    8  A    between atoms: C_7  and  N_27
    9  A    between atoms: C_7  and  C_32
   10  A    between atoms: C_8  and  C_23
   11  A    between atoms: C_8  and  C_28
   12  A    between atoms: C_9  and  C_10
   13  A    between atoms: C_10  and  C_19
   14  A    between atoms: N_13  and  C_15
   15  A    between atoms: N_14  and  C_26
   16  A    between atoms: N_14  and  C_28
   17  A    between atoms: C_15  and  C_26
   18  A    between atoms: C_16  and  C_26
   19  A    between atoms: C_16  and  N_27
   20  A    between atoms: C_16  and  O_31
   21  A    between atoms: C_19  and  O_20
                            x       y       z     vdW  Elec       q    Type
                         _______ _______ _______ _____ _____    ______ ____

>  <TORSDO>
F 21

$$$$
=
 OpenBabel11052417043D

 32 32  0  0  1  0  0  0  0  0999 V2000
  189.9810  177.2990  143.1150 C   0  0  2  0  0  3  0  0  0  0  0  0
  190.2460  177.8930  141.7280 C   0  0  1  0  0  3  0  0  0  0  0  0
  191.6150  177.9140  141.4470 O   0  0  0  0  0  0  0  0  0  0  0  0
  191.7380  177.2940  140.2030 C   0  0  0  0  0  2  0  0  0  0  0  0
  193.1980  177.2540  139.8030 C   0  0  0  0  0  1  0  0  0  0  0  0
  189.5520  177.1080  140.7180 N   0  0  0  0  0  2  0  0  0  0  0  0
  188.5560  177.9700  140.1010 C   0  0  0  0  0  2  0  0  0  0  0  0
  187.1140  177.8870  138.0860 C   0  0  1  0  0  3  0  0  0  0  0  0
  187.5480  179.0970  137.4090 N   0  0  0  0  0  2  0  0  0  0  0  0
  188.8630  178.9490  137.8970 N   0  0  0  0  0  2  0  0  0  0  0  0
  186.8180  176.8100  137.0600 C   0  0  0  0  0  1  0  0  0  0  0  0
  188.5100  177.7270  138.5990 C   0  0  1  0  0  3  0  0  0  0  0  0
  190.1660  175.7730  143.1900 C   0  0  0  0  0  2  0  0  0  0  0  0
  191.4980  175.4110  143.6480 N   0  0  0  0  0  2  0  0  0  0  0  0
  191.7920  176.2600  144.7880 C   0  0  0  0  0  2  0  0  0  0  0  0
  191.5890  175.5430  145.9660 O   0  0  0  0  0  0  0  0  0  0  0  0
  191.8630  176.4560  146.9830 C   0  0  0  0  0  1  0  0  0  0  0  0
  188.7560  177.8360  143.7410 N   0  0  0  0  0  0  0  0  0  0  0  0
  188.9990  178.1930  145.1440 C   0  0  0  0  0  2  0  0  0  0  0  0
  188.2840  177.2780  146.1350 C   0  0  0  0  0  1  0  0  0  0  0  0
  187.5900  176.9620  143.6040 C   0  0  0  0  0  2  0  0  0  0  0  0
  186.4290  177.7110  142.9600 C   0  0  0  0  0  2  0  0  0  0  0  0
  185.4680  178.2480  144.0100 C   0  0  0  0  0  2  0  0  0  0  0  0
  184.1930  178.7540  143.3560 C   0  0  0  0  0  2  0  0  0  0  0  0
  183.1030  178.8810  144.3680 C   0  0  0  0  0  0  0  0  0  0  0  0
  183.3550  179.2730  145.4970 O   0  0  0  0  0  0  0  0  0  0  0  0
  181.7010  178.5270  143.9980 C   0  0  0  0  0  2  0  0  0  0  0  0
  181.2700  179.2960  142.7880 C   0  0  0  0  0  0  0  0  0  0  0  0
  180.5760  180.3350  142.9400 O   0  0  0  0  0  0  0  0  0  0  0  0
  181.6390  178.9060  141.5000 O   0  0  0  0  0  0  0  0  0  0  0  0
  181.1040  177.7500  140.8730 C   0  0  0  0  0  2  0  0  0  0  0  0
  179.3030  177.7270  141.0800 S   0  0  0  0  0  1  0  0  0  0  0  0
  1 13  1  6  0  0  0
  1 18  1  0  0  0  0
  2  6  1  6  0  0  0
  2  1  1  0  0  0  0
  3  2  1  0  0  0  0
  4  3  1  0  0  0  0
  5  4  1  0  0  0  0
  7  6  1  0  0  0  0
  8 11  1  6  0  0  0
  8 12  1  0  0  0  0
  9 10  1  0  0  0  0
  9  8  1  0  0  0  0
 10 12  1  0  0  0  0
 12  7  1  1  0  0  0
 13 14  1  0  0  0  0
 14 15  1  0  0  0  0
 15 16  1  0  0  0  0
 16 17  1  0  0  0  0
 18 19  1  0  0  0  0
 19 20  1  0  0  0  0
 21 18  1  0  0  0  0
 22 21  1  0  0  0  0
 22 23  1  0  0  0  0
 24 23  1  0  0  0  0
 24 25  1  0  0  0  0
 25 26  2  0  0  0  0
 27 25  1  0  0  0  0
 28 29  2  0  0  0  0
 28 27  1  0  0  0  0
 30 28  1  0  0  0  0
 31 32  1  0  0  0  0
 31 30  1  0  0  0  0
M  END
>  <MODEL>
2

>  <REMARK>
 VINA RESULT:      -5.4      1.640      2.535
  Name = 
  21 active torsions:
  status: ('A' for Active; 'I' for Inactive)
    1  A    between atoms: C_1  and  O_20
    2  A    between atoms: C_2  and  C_9
    3  A    between atoms: C_2  and  C_23
    4  A    between atoms: C_3  and  N_14
    5  A    between atoms: C_4  and  O_5
    6  A    between atoms: C_4  and  N_13
    7  A    between atoms: C_6  and  O_31
    8  A    between atoms: C_7  and  N_27
    9  A    between atoms: C_7  and  C_32
   10  A    between atoms: C_8  and  C_23
   11  A    between atoms: C_8  and  C_28
   12  A    between atoms: C_9  and  C_10
   13  A    between atoms: C_10  and  C_19
   14  A    between atoms: N_13  and  C_15
   15  A    between atoms: N_14  and  C_26
   16  A    between atoms: N_14  and  C_28
   17  A    between atoms: C_15  and  C_26
   18  A    between atoms: C_16  and  C_26
   19  A    between atoms: C_16  and  N_27
   20  A    between atoms: C_16  and  O_31
   21  A    between atoms: C_19  and  O_20
                            x       y       z     vdW  Elec       q    Type
                         _______ _______ _______ _____ _____    ______ ____

>  <TORSDO>
F 21

$$$$
=
 OpenBabel11052417043D

 32 32  0  0  1  0  0  0  0  0999 V2000
  189.0570  177.8400  140.9550 C   0  0  2  0  0  3  0  0  0  0  0  0
  189.1560  177.8090  139.4260 C   0  0  1  0  0  3  0  0  0  0  0  0
  189.0130  179.0920  138.8900 O   0  0  0  0  0  0  0  0  0  0  0  0
  189.0450  178.9110  137.5070 C   0  0  0  0  0  2  0  0  0  0  0  0
  187.6530  178.5830  137.0100 C   0  0  0  0  0  1  0  0  0  0  0  0
  190.4420  177.2540  139.0300 N   0  0  0  0  0  2  0  0  0  0  0  0
  190.1860  175.9900  138.3570 C   0  0  0  0  0  2  0  0  0  0  0  0
  191.4340  174.2450  137.1150 C   0  0  1  0  0  3  0  0  0  0  0  0
  190.8600  174.4130  135.7900 N   0  0  0  0  0  2  0  0  0  0  0  0
  190.7000  175.8000  135.9890 N   0  0  0  0  0  2  0  0  0  0  0  0
  192.9060  173.9050  136.9910 C   0  0  0  0  0  1  0  0  0  0  0  0
  191.2690  175.7170  137.3230 C   0  0  1  0  0  3  0  0  0  0  0  0
  190.0890  176.9490  141.6690 C   0  0  0  0  0  2  0  0  0  0  0  0
  191.3060  177.6790  141.9870 N   0  0  0  0  0  2  0  0  0  0  0  0
  191.5500  177.4850  143.4040 C   0  0  0  0  0  2  0  0  0  0  0  0
  190.6360  178.2390  144.1400 O   0  0  0  0  0  0  0  0  0  0  0  0
  191.1700  179.5270  144.1470 C   0  0  0  0  0  1  0  0  0  0  0  0
  187.6650  177.7380  141.4390 N   0  0  0  0  0  0  0  0  0  0  0  0
  186.9220  178.9720  141.1590 C   0  0  0  0  0  2  0  0  0  0  0  0
  185.7170  178.7600  140.2460 C   0  0  0  0  0  1  0  0  0  0  0  0
  187.5560  177.3520  142.8470 C   0  0  0  0  0  2  0  0  0  0  0  0
  186.1150  177.4770  143.3290 C   0  0  0  0  0  2  0  0  0  0  0  0
  186.0440  178.1680  144.6820 C   0  0  0  0  0  2  0  0  0  0  0  0
  187.2720  177.8380  145.5140 C   0  0  0  0  0  2  0  0  0  0  0  0
  186.9800  178.0170  146.9670 C   0  0  0  0  0  0  0  0  0  0  0  0
  186.1410  178.8250  147.3320 O   0  0  0  0  0  0  0  0  0  0  0  0
  187.7190  177.2030  147.9780 C   0  0  0  0  0  2  0  0  0  0  0  0
  189.1810  177.5220  147.9370 C   0  0  0  0  0  0  0  0  0  0  0  0
  189.6100  178.5070  148.5910 O   0  0  0  0  0  0  0  0  0  0  0  0
  190.0830  176.7390  147.2130 O   0  0  0  0  0  0  0  0  0  0  0  0
  191.4830  176.9730  147.2380 C   0  0  0  0  0  2  0  0  0  0  0  0
  192.3520  175.4160  147.5700 S   0  0  0  0  0  1  0  0  0  0  0  0
  1 18  1  0  0  0  0
  1 13  1  1  0  0  0
  2  3  1  1  0  0  0
  2  1  1  0  0  0  0
  4  3  1  0  0  0  0
  5  4  1  0  0  0  0
  6  2  1  0  0  0  0
  7  6  1  0  0  0  0
  8 11  1  6  0  0  0
  8 12  1  0  0  0  0
  9 10  1  0  0  0  0
  9  8  1  0  0  0  0
 10 12  1  0  0  0  0
 12  7  1  1  0  0  0
 13 14  1  0  0  0  0
 14 15  1  0  0  0  0
 15 16  1  0  0  0  0
 16 17  1  0  0  0  0
 18 21  1  0  0  0  0
 19 18  1  0  0  0  0
 20 19  1  0  0  0  0
 21 22  1  0  0  0  0
 22 23  1  0  0  0  0
 23 24  1  0  0  0  0
 24 25  1  0  0  0  0
 25 26  2  0  0  0  0
 25 27  1  0  0  0  0
 28 27  1  0  0  0  0
 28 29  2  0  0  0  0
 30 31  1  0  0  0  0
 30 28  1  0  0  0  0
 31 32  1  0  0  0  0
M  END
>  <MODEL>
3

>  <REMARK>
 VINA RESULT:      -5.2      3.532      5.213
  Name = 
  21 active torsions:
  status: ('A' for Active; 'I' for Inactive)
    1  A    between atoms: C_1  and  O_20
    2  A    between atoms: C_2  and  C_9
    3  A    between atoms: C_2  and  C_23
    4  A    between atoms: C_3  and  N_14
    5  A    between atoms: C_4  and  O_5
    6  A    between atoms: C_4  and  N_13
    7  A    between atoms: C_6  and  O_31
    8  A    between atoms: C_7  and  N_27
    9  A    between atoms: C_7  and  C_32
   10  A    between atoms: C_8  and  C_23
   11  A    between atoms: C_8  and  C_28
   12  A    between atoms: C_9  and  C_10
   13  A    between atoms: C_10  and  C_19
   14  A    between atoms: N_13  and  C_15
   15  A    between atoms: N_14  and  C_26
   16  A    between atoms: N_14  and  C_28
   17  A    between atoms: C_15  and  C_26
   18  A    between atoms: C_16  and  C_26
   19  A    between atoms: C_16  and  N_27
   20  A    between atoms: C_16  and  O_31
   21  A    between atoms: C_19  and  O_20
                            x       y       z     vdW  Elec       q    Type
                         _______ _______ _______ _____ _____    ______ ____

>  <TORSDO>
F 21

$$$$
=
 OpenBabel11052417043D

 32 32  0  0  1  0  0  0  0  0999 V2000
  189.1070  177.5580  144.1690 C   0  0  2  0  0  3  0  0  0  0  0  0
  188.4090  177.4990  142.8060 C   0  0  1  0  0  3  0  0  0  0  0  0
  188.4950  178.7290  142.1480 O   0  0  0  0  0  0  0  0  0  0  0  0
  187.4140  178.7430  141.2640 C   0  0  0  0  0  2  0  0  0  0  0  0
  186.1210  178.7310  142.0510 C   0  0  0  0  0  1  0  0  0  0  0  0
  189.0210  176.4630  141.9870 N   0  0  0  0  0  2  0  0  0  0  0  0
  189.9760  177.1110  141.1010 C   0  0  0  0  0  2  0  0  0  0  0  0
  190.1730  177.8080  138.7300 C   0  0  1  0  0  3  0  0  0  0  0  0
  191.2040  176.8890  138.2780 N   0  0  0  0  0  2  0  0  0  0  0  0
  190.7490  175.8810  139.1530 N   0  0  0  0  0  2  0  0  0  0  0  0
  189.1630  178.0250  137.6200 C   0  0  0  0  0  1  0  0  0  0  0  0
  189.6870  176.7360  139.6550 C   0  0  1  0  0  3  0  0  0  0  0  0
  190.1580  176.4550  144.3840 C   0  0  0  0  0  2  0  0  0  0  0  0
  191.4540  177.0050  144.7490 N   0  0  0  0  0  2  0  0  0  0  0  0
  192.0210  176.1130  145.7420 C   0  0  0  0  0  2  0  0  0  0  0  0
  192.0930  176.7700  146.9690 O   0  0  0  0  0  0  0  0  0  0  0  0
  192.4730  175.7800  147.8750 C   0  0  0  0  0  1  0  0  0  0  0  0
  188.1630  177.7820  145.2830 N   0  0  0  0  0  0  0  0  0  0  0  0
  188.6000  177.0720  146.4910 C   0  0  0  0  0  2  0  0  0  0  0  0
  188.9890  178.0040  147.6360 C   0  0  0  0  0  1  0  0  0  0  0  0
  186.7720  177.4710  144.9510 C   0  0  0  0  0  2  0  0  0  0  0  0
  185.8330  177.9670  146.0450 C   0  0  0  0  0  2  0  0  0  0  0  0
  184.9480  179.0970  145.5430 C   0  0  0  0  0  2  0  0  0  0  0  0
  183.5170  178.6170  145.3680 C   0  0  0  0  0  2  0  0  0  0  0  0
  182.8930  179.2620  144.1750 C   0  0  0  0  0  0  0  0  0  0  0  0
  183.3970  180.2580  143.6800 O   0  0  0  0  0  0  0  0  0  0  0  0
  181.6480  178.6860  143.5870 C   0  0  0  0  0  2  0  0  0  0  0  0
  181.6100  178.9200  142.1090 C   0  0  0  0  0  0  0  0  0  0  0  0
  182.4720  178.3650  141.3800 O   0  0  0  0  0  0  0  0  0  0  0  0
  180.6290  179.7170  141.5170 O   0  0  0  0  0  0  0  0  0  0  0  0
  179.3280  179.2300  141.2250 C   0  0  0  0  0  2  0  0  0  0  0  0
  179.4110  177.4530  140.8730 S   0  0  0  0  0  1  0  0  0  0  0  0
  1 13  1  1  0  0  0
  1 18  1  0  0  0  0
  2  6  1  6  0  0  0
  2  1  1  0  0  0  0
  3  2  1  0  0  0  0
  4  5  1  0  0  0  0
  4  3  1  0  0  0  0
  7  6  1  0  0  0  0
  8 11  1  6  0  0  0
  8 12  1  0  0  0  0
  9  8  1  0  0  0  0
  9 10  1  0  0  0  0
 10 12  1  0  0  0  0
 12  7  1  1  0  0  0
 13 14  1  0  0  0  0
 14 15  1  0  0  0  0
 15 16  1  0  0  0  0
 16 17  1  0  0  0  0
 18 19  1  0  0  0  0
 19 20  1  0  0  0  0
 21 18  1  0  0  0  0
 21 22  1  0  0  0  0
 23 22  1  0  0  0  0
 24 23  1  0  0  0  0
 25 24  1  0  0  0  0
 26 25  2  0  0  0  0
 27 25  1  0  0  0  0
 28 27  1  0  0  0  0
 29 28  2  0  0  0  0
 30 28  1  0  0  0  0
 31 30  1  0  0  0  0
 32 31  1  0  0  0  0
M  END
>  <MODEL>
4

>  <REMARK>
 VINA RESULT:      -5.0      1.584      2.114
  Name = 
  21 active torsions:
  status: ('A' for Active; 'I' for Inactive)
    1  A    between atoms: C_1  and  O_20
    2  A    between atoms: C_2  and  C_9
    3  A    between atoms: C_2  and  C_23
    4  A    between atoms: C_3  and  N_14
    5  A    between atoms: C_4  and  O_5
    6  A    between atoms: C_4  and  N_13
    7  A    between atoms: C_6  and  O_31
    8  A    between atoms: C_7  and  N_27
    9  A    between atoms: C_7  and  C_32
   10  A    between atoms: C_8  and  C_23
   11  A    between atoms: C_8  and  C_28
   12  A    between atoms: C_9  and  C_10
   13  A    between atoms: C_10  and  C_19
   14  A    between atoms: N_13  and  C_15
   15  A    between atoms: N_14  and  C_26
   16  A    between atoms: N_14  and  C_28
   17  A    between atoms: C_15  and  C_26
   18  A    between atoms: C_16  and  C_26
   19  A    between atoms: C_16  and  N_27
   20  A    between atoms: C_16  and  O_31
   21  A    between atoms: C_19  and  O_20
                            x       y       z     vdW  Elec       q    Type
                         _______ _______ _______ _____ _____    ______ ____

>  <TORSDO>
F 21

$$$$
=
 OpenBabel11052417043D

 32 32  0  0  1  0  0  0  0  0999 V2000
  188.1740  178.4380  140.7080 C   0  0  2  0  0  3  0  0  0  0  0  0
  188.5420  177.7310  142.0180 C   0  0  1  0  0  3  0  0  0  0  0  0
  189.4700  178.4810  142.7450 O   0  0  0  0  0  0  0  0  0  0  0  0
  190.6290  177.7030  142.7620 C   0  0  0  0  0  2  0  0  0  0  0  0
  191.6010  178.2710  143.7740 C   0  0  0  0  0  1  0  0  0  0  0  0
  187.3430  177.5280  142.8180 N   0  0  0  0  0  2  0  0  0  0  0  0
  187.7550  176.9370  144.0820 C   0  0  0  0  0  2  0  0  0  0  0  0
  186.5990  177.5780  146.1790 C   0  0  1  0  0  3  0  0  0  0  0  0
  187.6520  177.3110  147.1440 N   0  0  0  0  0  2  0  0  0  0  0  0
  188.6520  177.6730  146.2170 N   0  0  0  0  0  2  0  0  0  0  0  0
  185.8190  178.8060  146.6060 C   0  0  0  0  0  1  0  0  0  0  0  0
  187.6590  177.9670  145.1980 C   0  0  1  0  0  3  0  0  0  0  0  0
  186.7040  178.2600  140.2920 C   0  0  0  0  0  2  0  0  0  0  0  0
  185.9130  179.4480  140.5740 N   0  0  0  0  0  2  0  0  0  0  0  0
  184.5220  179.0390  140.5510 C   0  0  0  0  0  2  0  0  0  0  0  0
  184.2880  178.1310  141.5820 O   0  0  0  0  0  0  0  0  0  0  0  0
  183.1620  178.6290  142.2380 C   0  0  0  0  0  1  0  0  0  0  0  0
  189.1800  178.2300  139.6470 N   0  0  0  0  0  0  0  0  0  0  0  0
  188.9060  179.0920  138.4910 C   0  0  0  0  0  2  0  0  0  0  0  0
  188.3520  178.3340  137.2870 C   0  0  0  0  0  1  0  0  0  0  0  0
  189.3380  176.8300  139.2470 C   0  0  0  0  0  2  0  0  0  0  0  0
  190.8090  176.4330  139.2450 C   0  0  0  0  0  2  0  0  0  0  0  0
  191.3410  176.2930  137.8270 C   0  0  0  0  0  2  0  0  0  0  0  0
  192.0870  174.9790  137.6660 C   0  0  0  0  0  2  0  0  0  0  0  0
  193.5620  175.2130  137.6680 C   0  0  0  0  0  0  0  0  0  0  0  0
  194.0050  176.3450  137.7820 O   0  0  0  0  0  0  0  0  0  0  0  0
  194.4960  174.0570  137.5270 C   0  0  0  0  0  2  0  0  0  0  0  0
  195.7710  174.3230  138.2660 C   0  0  0  0  0  0  0  0  0  0  0  0
  195.8740  173.9450  139.4620 O   0  0  0  0  0  0  0  0  0  0  0  0
  196.8550  174.9530  137.6540 O   0  0  0  0  0  0  0  0  0  0  0  0
  197.9970  174.2380  137.2050 C   0  0  0  0  0  2  0  0  0  0  0  0
  198.4380  174.7890  135.5350 S   0  0  0  0  0  1  0  0  0  0  0  0
  1 13  1  6  0  0  0
  1  2  1  0  0  0  0
  2  3  1  1  0  0  0
  2  6  1  0  0  0  0
  3  4  1  0  0  0  0
  4  5  1  0  0  0  0
  6  7  1  0  0  0  0
  8 11  1  1  0  0  0
  8  9  1  0  0  0  0
 10  9  1  0  0  0  0
 12  7  1  6  0  0  0
 12  8  1  0  0  0  0
 12 10  1  0  0  0  0
 13 14  1  0  0  0  0
 15 14  1  0  0  0  0
 15 16  1  0  0  0  0
 16 17  1  0  0  0  0
 18  1  1  0  0  0  0
 19 18  1  0  0  0  0
 20 19  1  0  0  0  0
 21 18  1  0  0  0  0
 22 21  1  0  0  0  0
 23 22  1  0  0  0  0
 24 25  1  0  0  0  0
 24 23  1  0  0  0  0
 25 26  2  0  0  0  0
 27 25  1  0  0  0  0
 27 28  1  0  0  0  0
 28 29  2  0  0  0  0
 30 28  1  0  0  0  0
 31 30  1  0  0  0  0
 32 31  1  0  0  0  0
M  END
>  <MODEL>
5

>  <REMARK>
 VINA RESULT:      -5.0      5.032      9.908
  Name = 
  21 active torsions:
  status: ('A' for Active; 'I' for Inactive)
    1  A    between atoms: C_1  and  O_20
    2  A    between atoms: C_2  and  C_9
    3  A    between atoms: C_2  and  C_23
    4  A    between atoms: C_3  and  N_14
    5  A    between atoms: C_4  and  O_5
    6  A    between atoms: C_4  and  N_13
    7  A    between atoms: C_6  and  O_31
    8  A    between atoms: C_7  and  N_27
    9  A    between atoms: C_7  and  C_32
   10  A    between atoms: C_8  and  C_23
   11  A    between atoms: C_8  and  C_28
   12  A    between atoms: C_9  and  C_10
   13  A    between atoms: C_10  and  C_19
   14  A    between atoms: N_13  and  C_15
   15  A    between atoms: N_14  and  C_26
   16  A    between atoms: N_14  and  C_28
   17  A    between atoms: C_15  and  C_26
   18  A    between atoms: C_16  and  C_26
   19  A    between atoms: C_16  and  N_27
   20  A    between atoms: C_16  and  O_31
   21  A    between atoms: C_19  and  O_20
                            x       y       z     vdW  Elec       q    Type
                         _______ _______ _______ _____ _____    ______ ____

>  <TORSDO>
F 21

$$$$
=
 OpenBabel11052417043D

 32 32  0  0  1  0  0  0  0  0999 V2000
  189.2310  178.4520  138.5480 C   0  0  2  0  0  3  0  0  0  0  0  0
  187.9090  178.1430  139.2600 C   0  0  1  0  0  3  0  0  0  0  0  0
  187.8870  178.7070  140.5380 O   0  0  0  0  0  0  0  0  0  0  0  0
  187.5050  177.6670  141.3860 C   0  0  0  0  0  2  0  0  0  0  0  0
  186.9310  178.2440  142.6630 C   0  0  0  0  0  1  0  0  0  0  0  0
  186.7980  178.6620  138.4770 N   0  0  0  0  0  2  0  0  0  0  0  0
  185.7430  177.6610  138.4950 C   0  0  0  0  0  2  0  0  0  0  0  0
  184.0420  178.1110  140.2420 C   0  0  1  0  0  3  0  0  0  0  0  0
  184.2620  179.5320  140.4550 N   0  0  0  0  0  2  0  0  0  0  0  0
  184.6090  179.7240  139.1020 N   0  0  0  0  0  2  0  0  0  0  0  0
  182.5620  177.8040  140.3600 C   0  0  0  0  0  1  0  0  0  0  0  0
  184.4040  178.3160  138.8050 C   0  0  1  0  0  3  0  0  0  0  0  0
  189.0600  179.0520  137.1420 C   0  0  0  0  0  2  0  0  0  0  0  0
  189.2740  178.0610  136.1000 N   0  0  0  0  0  2  0  0  0  0  0  0
  188.0010  177.8830  135.4250 C   0  0  0  0  0  2  0  0  0  0  0  0
  187.7070  176.5240  135.3390 O   0  0  0  0  0  0  0  0  0  0  0  0
  188.7540  175.9850  134.5940 C   0  0  0  0  0  1  0  0  0  0  0  0
  190.2150  177.3580  138.6720 N   0  0  0  0  0  0  0  0  0  0  0  0
  189.5450  176.0530  138.7100 C   0  0  0  0  0  2  0  0  0  0  0  0
  190.1560  175.0290  137.7570 C   0  0  0  0  0  1  0  0  0  0  0  0
  191.1400  177.5200  139.7960 C   0  0  0  0  0  2  0  0  0  0  0  0
  190.6580  176.7320  141.0080 C   0  0  0  0  0  2  0  0  0  0  0  0
  191.1270  177.3720  142.3050 C   0  0  0  0  0  2  0  0  0  0  0  0
  191.0350  176.3810  143.4530 C   0  0  0  0  0  2  0  0  0  0  0  0
  191.0030  177.1000  144.7610 C   0  0  0  0  0  0  0  0  0  0  0  0
  191.9070  176.9480  145.5680 O   0  0  0  0  0  0  0  0  0  0  0  0
  189.8610  178.0050  145.0830 C   0  0  0  0  0  2  0  0  0  0  0  0
  188.9500  177.3630  146.0820 C   0  0  0  0  0  0  0  0  0  0  0  0
  189.4510  176.7440  147.0560 O   0  0  0  0  0  0  0  0  0  0  0  0
  187.5610  177.4560  145.9750 O   0  0  0  0  0  0  0  0  0  0  0  0
  186.7640  178.0970  146.9590 C   0  0  0  0  0  2  0  0  0  0  0  0
  185.1760  178.5820  146.2310 S   0  0  0  0  0  1  0  0  0  0  0  0
  1 13  1  6  0  0  0
  1 18  1  0  0  0  0
  1  2  1  0  0  0  0
  2  6  1  6  0  0  0
  2  3  1  0  0  0  0
  3  4  1  0  0  0  0
  4  5  1  0  0  0  0
  6  7  1  0  0  0  0
  8 11  1  6  0  0  0
  8  9  1  0  0  0  0
 10  9  1  0  0  0  0
 12  7  1  1  0  0  0
 12 10  1  0  0  0  0
 12  8  1  0  0  0  0
 14 13  1  0  0  0  0
 15 14  1  0  0  0  0
 16 15  1  0  0  0  0
 17 16  1  0  0  0  0
 18 19  1  0  0  0  0
 18 21  1  0  0  0  0
 20 19  1  0  0  0  0
 21 22  1  0  0  0  0
 22 23  1  0  0  0  0
 23 24  1  0  0  0  0
 24 25  1  0  0  0  0
 25 27  1  0  0  0  0
 25 26  2  0  0  0  0
 27 28  1  0  0  0  0
 28 29  2  0  0  0  0
 30 28  1  0  0  0  0
 30 31  1  0  0  0  0
 32 31  1  0  0  0  0
M  END
>  <MODEL>
6

>  <REMARK>
 VINA RESULT:      -5.0      2.952      6.985
  Name = 
  21 active torsions:
  status: ('A' for Active; 'I' for Inactive)
    1  A    between atoms: C_1  and  O_20
    2  A    between atoms: C_2  and  C_9
    3  A    between atoms: C_2  and  C_23
    4  A    between atoms: C_3  and  N_14
    5  A    between atoms: C_4  and  O_5
    6  A    between atoms: C_4  and  N_13
    7  A    between atoms: C_6  and  O_31
    8  A    between atoms: C_7  and  N_27
    9  A    between atoms: C_7  and  C_32
   10  A    between atoms: C_8  and  C_23
   11  A    between atoms: C_8  and  C_28
   12  A    between atoms: C_9  and  C_10
   13  A    between atoms: C_10  and  C_19
   14  A    between atoms: N_13  and  C_15
   15  A    between atoms: N_14  and  C_26
   16  A    between atoms: N_14  and  C_28
   17  A    between atoms: C_15  and  C_26
   18  A    between atoms: C_16  and  C_26
   19  A    between atoms: C_16  and  N_27
   20  A    between atoms: C_16  and  O_31
   21  A    between atoms: C_19  and  O_20
                            x       y       z     vdW  Elec       q    Type
                         _______ _______ _______ _____ _____    ______ ____

>  <TORSDO>
F 21

$$$$
=
 OpenBabel11052417043D

 32 32  0  0  1  0  0  0  0  0999 V2000
  187.2170  176.7640  136.8830 C   0  0  2  0  0  3  0  0  0  0  0  0
  185.8710  177.4060  136.5290 C   0  0  1  0  0  3  0  0  0  0  0  0
  184.8840  176.4320  136.3550 O   0  0  0  0  0  0  0  0  0  0  0  0
  184.6400  176.4060  134.9820 C   0  0  0  0  0  2  0  0  0  0  0  0
  183.9020  175.1320  134.6260 C   0  0  0  0  0  1  0  0  0  0  0  0
  185.4730  178.3230  137.5870 N   0  0  0  0  0  2  0  0  0  0  0  0
  184.3810  177.7000  138.3200 C   0  0  0  0  0  2  0  0  0  0  0  0
  183.9390  178.2910  140.6860 C   0  0  1  0  0  3  0  0  0  0  0  0
  184.8450  179.4150  140.8440 N   0  0  0  0  0  2  0  0  0  0  0  0
  184.6630  179.8050  139.5010 N   0  0  0  0  0  2  0  0  0  0  0  0
  182.6710  178.5460  141.4770 C   0  0  0  0  0  1  0  0  0  0  0  0
  183.7410  178.7080  139.2630 C   0  0  1  0  0  3  0  0  0  0  0  0
  187.0960  175.3790  137.5420 C   0  0  0  0  0  2  0  0  0  0  0  0
  187.5830  174.3200  136.6710 N   0  0  0  0  0  2  0  0  0  0  0  0
  186.5160  173.3420  136.5670 C   0  0  0  0  0  2  0  0  0  0  0  0
  186.0040  173.0770  137.8360 O   0  0  0  0  0  0  0  0  0  0  0  0
  184.6930  172.6630  137.6050 C   0  0  0  0  0  1  0  0  0  0  0  0
  188.1490  177.7110  137.5280 N   0  0  0  0  0  0  0  0  0  0  0  0
  189.2820  178.0130  136.6450 C   0  0  0  0  0  2  0  0  0  0  0  0
  190.2530  176.8460  136.4850 C   0  0  0  0  0  1  0  0  0  0  0  0
  188.6000  177.2860  138.8540 C   0  0  0  0  0  2  0  0  0  0  0  0
  188.0190  178.1890  139.9360 C   0  0  0  0  0  2  0  0  0  0  0  0
  188.8070  178.0780  141.2310 C   0  0  0  0  0  2  0  0  0  0  0  0
  189.6000  176.7820  141.2630 C   0  0  0  0  0  2  0  0  0  0  0  0
  189.6320  176.2250  142.6480 C   0  0  0  0  0  0  0  0  0  0  0  0
  190.3940  175.3120  142.9260 O   0  0  0  0  0  0  0  0  0  0  0  0
  188.7270  176.7860  143.6940 C   0  0  0  0  0  2  0  0  0  0  0  0
  189.5240  177.4360  144.7810 C   0  0  0  0  0  0  0  0  0  0  0  0
  190.1280  178.5120  144.5360 O   0  0  0  0  0  0  0  0  0  0  0  0
  189.5940  176.8930  146.0650 O   0  0  0  0  0  0  0  0  0  0  0  0
  189.2310  177.6310  147.2230 C   0  0  0  0  0  2  0  0  0  0  0  0
  187.4320  177.8510  147.2630 S   0  0  0  0  0  1  0  0  0  0  0  0
  1 18  1  0  0  0  0
  1 13  1  1  0  0  0
  2  3  1  1  0  0  0
  2  1  1  0  0  0  0
  2  6  1  0  0  0  0
  4  3  1  0  0  0  0
  5  4  1  0  0  0  0
  6  7  1  0  0  0  0
  8  9  1  0  0  0  0
  8 11  1  1  0  0  0
 10  9  1  0  0  0  0
 12  7  1  6  0  0  0
 12 10  1  0  0  0  0
 12  8  1  0  0  0  0
 14 13  1  0  0  0  0
 15 14  1  0  0  0  0
 15 16  1  0  0  0  0
 17 16  1  0  0  0  0
 18 21  1  0  0  0  0
 19 18  1  0  0  0  0
 20 19  1  0  0  0  0
 21 22  1  0  0  0  0
 22 23  1  0  0  0  0
 23 24  1  0  0  0  0
 24 25  1  0  0  0  0
 25 26  2  0  0  0  0
 25 27  1  0  0  0  0
 27 28  1  0  0  0  0
 28 30  1  0  0  0  0
 29 28  2  0  0  0  0
 30 31  1  0  0  0  0
 31 32  1  0  0  0  0
M  END
>  <MODEL>
7

>  <REMARK>
 VINA RESULT:      -5.0      3.991      7.625
  Name = 
  21 active torsions:
  status: ('A' for Active; 'I' for Inactive)
    1  A    between atoms: C_1  and  O_20
    2  A    between atoms: C_2  and  C_9
    3  A    between atoms: C_2  and  C_23
    4  A    between atoms: C_3  and  N_14
    5  A    between atoms: C_4  and  O_5
    6  A    between atoms: C_4  and  N_13
    7  A    between atoms: C_6  and  O_31
    8  A    between atoms: C_7  and  N_27
    9  A    between atoms: C_7  and  C_32
   10  A    between atoms: C_8  and  C_23
   11  A    between atoms: C_8  and  C_28
   12  A    between atoms: C_9  and  C_10
   13  A    between atoms: C_10  and  C_19
   14  A    between atoms: N_13  and  C_15
   15  A    between atoms: N_14  and  C_26
   16  A    between atoms: N_14  and  C_28
   17  A    between atoms: C_15  and  C_26
   18  A    between atoms: C_16  and  C_26
   19  A    between atoms: C_16  and  N_27
   20  A    between atoms: C_16  and  O_31
   21  A    between atoms: C_19  and  O_20
                            x       y       z     vdW  Elec       q    Type
                         _______ _______ _______ _____ _____    ______ ____

>  <TORSDO>
F 21

$$$$
=
 OpenBabel11052417043D

 32 32  0  0  1  0  0  0  0  0999 V2000
  180.6670  177.9360  141.3780 C   0  0  2  0  0  3  0  0  0  0  0  0
  181.3170  178.9900  140.4750 C   0  0  1  0  0  3  0  0  0  0  0  0
  182.3630  178.4340  139.7330 O   0  0  0  0  0  0  0  0  0  0  0  0
  183.4180  179.3400  139.8610 C   0  0  0  0  0  2  0  0  0  0  0  0
  184.6480  178.7780  139.1800 C   0  0  0  0  0  1  0  0  0  0  0  0
  180.3190  179.5450  139.5730 N   0  0  0  0  0  2  0  0  0  0  0  0
  180.1100  180.9340  139.9520 C   0  0  0  0  0  2  0  0  0  0  0  0
  181.1650  182.0450  138.0030 C   0  0  1  0  0  3  0  0  0  0  0  0
  180.7000  181.1800  136.9320 N   0  0  0  0  0  2  0  0  0  0  0  0
  179.4850  180.9310  137.6030 N   0  0  0  0  0  2  0  0  0  0  0  0
  181.2040  183.4800  137.5160 C   0  0  0  0  0  1  0  0  0  0  0  0
  179.8740  181.7850  138.7120 C   0  0  1  0  0  3  0  0  0  0  0  0
  179.2770  177.4770  140.9050 C   0  0  0  0  0  2  0  0  0  0  0  0
  179.0810  176.0500  141.1050 N   0  0  0  0  0  2  0  0  0  0  0  0
  180.0390  175.3730  140.2510 C   0  0  0  0  0  2  0  0  0  0  0  0
  179.8900  173.9940  140.3870 O   0  0  0  0  0  0  0  0  0  0  0  0
  179.3370  173.8250  141.6560 C   0  0  0  0  0  1  0  0  0  0  0  0
  180.7910  178.2600  142.8130 N   0  0  0  0  0  0  0  0  0  0  0  0
  179.4900  178.6390  143.3790 C   0  0  0  0  0  2  0  0  0  0  0  0
  179.2970  180.1480  143.4960 C   0  0  0  0  0  1  0  0  0  0  0  0
  181.8160  179.2640  143.1070 C   0  0  0  0  0  2  0  0  0  0  0  0
  182.8940  178.6830  144.0150 C   0  0  0  0  0  2  0  0  0  0  0  0
  184.1300  179.5680  144.0400 C   0  0  0  0  0  2  0  0  0  0  0  0
  184.9310  179.3290  145.3100 C   0  0  0  0  0  2  0  0  0  0  0  0
  185.8110  178.1330  145.1530 C   0  0  0  0  0  0  0  0  0  0  0  0
  185.9990  177.3800  146.0950 O   0  0  0  0  0  0  0  0  0  0  0  0
  186.4640  177.8600  143.8390 C   0  0  0  0  0  2  0  0  0  0  0  0
  187.8070  177.2330  144.0430 C   0  0  0  0  0  0  0  0  0  0  0  0
  188.0200  176.0810  143.5820 O   0  0  0  0  0  0  0  0  0  0  0  0
  188.8370  177.9020  144.7070 O   0  0  0  0  0  0  0  0  0  0  0  0
  189.5290  177.3310  145.8070 C   0  0  0  0  0  2  0  0  0  0  0  0
  191.2300  176.9400  145.3150 S   0  0  0  0  0  1  0  0  0  0  0  0
  1 13  1  6  0  0  0
  1 18  1  0  0  0  0
  2  6  1  6  0  0  0
  2  1  1  0  0  0  0
  3  4  1  0  0  0  0
  3  2  1  0  0  0  0
  5  4  1  0  0  0  0
  6  7  1  0  0  0  0
  8 11  1  6  0  0  0
  8 12  1  0  0  0  0
  9 10  1  0  0  0  0
  9  8  1  0  0  0  0
 10 12  1  0  0  0  0
 12  7  1  1  0  0  0
 13 14  1  0  0  0  0
 15 16  1  0  0  0  0
 15 14  1  0  0  0  0
 16 17  1  0  0  0  0
 18 21  1  0  0  0  0
 18 19  1  0  0  0  0
 19 20  1  0  0  0  0
 21 22  1  0  0  0  0
 22 23  1  0  0  0  0
 23 24  1  0  0  0  0
 25 24  1  0  0  0  0
 25 26  2  0  0  0  0
 27 28  1  0  0  0  0
 27 25  1  0  0  0  0
 28 30  1  0  0  0  0
 29 28  2  0  0  0  0
 30 31  1  0  0  0  0
 32 31  1  0  0  0  0
M  END
>  <MODEL>
8

>  <REMARK>
 VINA RESULT:      -4.8      5.395      9.254
  Name = 
  21 active torsions:
  status: ('A' for Active; 'I' for Inactive)
    1  A    between atoms: C_1  and  O_20
    2  A    between atoms: C_2  and  C_9
    3  A    between atoms: C_2  and  C_23
    4  A    between atoms: C_3  and  N_14
    5  A    between atoms: C_4  and  O_5
    6  A    between atoms: C_4  and  N_13
    7  A    between atoms: C_6  and  O_31
    8  A    between atoms: C_7  and  N_27
    9  A    between atoms: C_7  and  C_32
   10  A    between atoms: C_8  and  C_23
   11  A    between atoms: C_8  and  C_28
   12  A    between atoms: C_9  and  C_10
   13  A    between atoms: C_10  and  C_19
   14  A    between atoms: N_13  and  C_15
   15  A    between atoms: N_14  and  C_26
   16  A    between atoms: N_14  and  C_28
   17  A    between atoms: C_15  and  C_26
   18  A    between atoms: C_16  and  C_26
   19  A    between atoms: C_16  and  N_27
   20  A    between atoms: C_16  and  O_31
   21  A    between atoms: C_19  and  O_20
                            x       y       z     vdW  Elec       q    Type
                         _______ _______ _______ _____ _____    ______ ____

>  <TORSDO>
F 21

$$$$
=
 OpenBabel11052417043D

 32 32  0  0  1  0  0  0  0  0999 V2000
  189.0220  178.4970  141.4020 C   0  0  2  0  0  3  0  0  0  0  0  0
  189.0310  177.9750  139.9610 C   0  0  1  0  0  3  0  0  0  0  0  0
  188.5340  178.9380  139.0780 O   0  0  0  0  0  0  0  0  0  0  0  0
  188.2530  178.2390  137.9020 C   0  0  0  0  0  2  0  0  0  0  0  0
  188.8470  178.9800  136.7230 C   0  0  0  0  0  1  0  0  0  0  0  0
  190.3890  177.6160  139.5790 N   0  0  0  0  0  2  0  0  0  0  0  0
  190.4180  176.1790  139.3580 C   0  0  0  0  0  2  0  0  0  0  0  0
  192.3210  175.4680  137.9370 C   0  0  1  0  0  3  0  0  0  0  0  0
  191.8940  174.1230  137.5900 N   0  0  0  0  0  2  0  0  0  0  0  0
  190.5370  174.5060  137.5990 N   0  0  0  0  0  2  0  0  0  0  0  0
  193.0300  176.0960  136.7530 C   0  0  0  0  0  1  0  0  0  0  0  0
  190.8810  175.8760  137.9400 C   0  0  1  0  0  3  0  0  0  0  0  0
  190.2910  178.1540  142.2010 C   0  0  0  0  0  2  0  0  0  0  0  0
  190.2820  178.7660  143.5200 N   0  0  0  0  0  2  0  0  0  0  0  0
  191.6520  178.7510  143.9970 C   0  0  0  0  0  2  0  0  0  0  0  0
  192.0070  177.4490  144.3480 O   0  0  0  0  0  0  0  0  0  0  0  0
  191.2760  177.1880  145.5060 C   0  0  0  0  0  1  0  0  0  0  0  0
  187.7360  178.2540  142.0870 N   0  0  0  0  0  0  0  0  0  0  0  0
  187.6540  176.8700  142.5700 C   0  0  0  0  0  2  0  0  0  0  0  0
  187.7330  176.7530  144.0900 C   0  0  0  0  0  1  0  0  0  0  0  0
  186.5630  178.6150  141.2890 C   0  0  0  0  0  2  0  0  0  0  0  0
  185.3090  177.9500  141.8430 C   0  0  0  0  0  2  0  0  0  0  0  0
  184.3350  178.9800  142.3940 C   0  0  0  0  0  2  0  0  0  0  0  0
  183.8310  178.5580  143.7640 C   0  0  0  0  0  2  0  0  0  0  0  0
  184.8000  178.9650  144.8240 C   0  0  0  0  0  0  0  0  0  0  0  0
  185.6080  179.8560  144.6100 O   0  0  0  0  0  0  0  0  0  0  0  0
  184.7830  178.2770  146.1480 C   0  0  0  0  0  2  0  0  0  0  0  0
  185.9110  178.7610  147.0040 C   0  0  0  0  0  0  0  0  0  0  0  0
  185.7440  179.7880  147.7120 O   0  0  0  0  0  0  0  0  0  0  0  0
  187.1330  178.0880  147.0580 O   0  0  0  0  0  0  0  0  0  0  0  0
  187.6980  177.6330  148.2790 C   0  0  0  0  0  2  0  0  0  0  0  0
  189.3960  178.2510  148.4280 S   0  0  0  0  0  1  0  0  0  0  0  0
  1 18  1  0  0  0  0
  1 13  1  1  0  0  0
  2  3  1  6  0  0  0
  2  1  1  0  0  0  0
  4  3  1  0  0  0  0
  5  4  1  0  0  0  0
  6  2  1  0  0  0  0
  7  6  1  0  0  0  0
  8 11  1  6  0  0  0
  8 12  1  0  0  0  0
  9 10  1  0  0  0  0
  9  8  1  0  0  0  0
 10 12  1  0  0  0  0
 12  7  1  1  0  0  0
 13 14  1  0  0  0  0
 14 15  1  0  0  0  0
 15 16  1  0  0  0  0
 16 17  1  0  0  0  0
 18 19  1  0  0  0  0
 19 20  1  0  0  0  0
 21 22  1  0  0  0  0
 21 18  1  0  0  0  0
 22 23  1  0  0  0  0
 23 24  1  0  0  0  0
 24 25  1  0  0  0  0
 25 27  1  0  0  0  0
 26 25  2  0  0  0  0
 27 28  1  0  0  0  0
 28 30  1  0  0  0  0
 28 29  2  0  0  0  0
 30 31  1  0  0  0  0
 31 32  1  0  0  0  0
M  END
>  <MODEL>
9

>  <REMARK>
 VINA RESULT:      -4.8      3.020      4.280
  Name = 
  21 active torsions:
  status: ('A' for Active; 'I' for Inactive)
    1  A    between atoms: C_1  and  O_20
    2  A    between atoms: C_2  and  C_9
    3  A    between atoms: C_2  and  C_23
    4  A    between atoms: C_3  and  N_14
    5  A    between atoms: C_4  and  O_5
    6  A    between atoms: C_4  and  N_13
    7  A    between atoms: C_6  and  O_31
    8  A    between atoms: C_7  and  N_27
    9  A    between atoms: C_7  and  C_32
   10  A    between atoms: C_8  and  C_23
   11  A    between atoms: C_8  and  C_28
   12  A    between atoms: C_9  and  C_10
   13  A    between atoms: C_10  and  C_19
   14  A    between atoms: N_13  and  C_15
   15  A    between atoms: N_14  and  C_26
   16  A    between atoms: N_14  and  C_28
   17  A    between atoms: C_15  and  C_26
   18  A    between atoms: C_16  and  C_26
   19  A    between atoms: C_16  and  N_27
   20  A    between atoms: C_16  and  O_31
   21  A    between atoms: C_19  and  O_20
                            x       y       z     vdW  Elec       q    Type
                         _______ _______ _______ _____ _____    ______ ____

>  <TORSDO>
F 21

$$$$
