=
 OpenBabel11052414433D

 32 35  0  0  1  0  0  0  0  0999 V2000
  189.9610  177.9950  142.7790 C   0  0  0  0  0  2  0  0  0  0  0  0
  191.2950  177.3480  142.3910 C   0  0  1  0  0  3  0  0  0  0  0  0
  189.2520  177.2250  143.8970 C   0  0  1  0  0  3  0  0  0  0  0  0
  190.2530  176.6300  144.9040 C   0  0  1  0  0  3  0  0  0  0  0  0
  191.3370  175.7950  144.1970 C   0  0  0  0  0  2  0  0  0  0  0  0
  191.2990  175.9260  142.7370 N   0  0  0  0  0  2  0  0  0  0  0  0
  188.2050  178.1100  144.5630 C   0  0  0  0  0  2  0  0  0  0  0  0
  186.7980  177.6740  144.1860 C   0  0  2  0  0  3  0  0  0  0  0  0
  182.4130  178.8350  142.5380 C   0  0  0  0  0  3  0  0  0  0  0  0
  186.4310  178.0870  142.4360 S   0  0  0  0  0  0  0  0  0  0  0  0
  183.3000  178.8310  144.8020 C   0  0  0  0  0  3  0  0  0  0  0  0
  184.5660  178.5560  144.2800 C   0  0  0  0  0  0  0  0  0  0  0  0
  185.7810  178.3560  145.1000 C   0  0  0  0  0  2  0  0  0  0  0  0
  184.7600  178.4400  142.9200 C   0  0  0  0  0  0  0  0  0  0  0  0
  182.2190  178.9720  143.9210 C   0  0  0  0  0  3  0  0  0  0  0  0
  183.6910  178.5630  142.0300 C   0  0  0  0  0  3  0  0  0  0  0  0
  190.8620  177.6420  145.6530 O   0  0  0  0  0  0  0  0  0  0  0  0
  191.0180  177.1010  146.9300 C   0  0  0  0  0  2  0  0  0  0  0  0
  189.6560  176.8010  147.5210 C   0  0  0  0  0  2  0  0  0  0  0  0
  189.1260  178.0370  148.2150 C   0  0  0  0  0  1  0  0  0  0  0  0
  191.5330  177.5300  140.9010 C   0  0  0  0  0  2  0  0  0  0  0  0
  190.4290  176.8730  140.0800 C   0  0  0  0  0  2  0  0  0  0  0  0
  190.1990  177.6070  138.7600 C   0  0  0  0  0  2  0  0  0  0  0  0
  188.7210  178.9880  139.9970 F   0  0  0  0  0  0  0  0  0  0  0  0
  188.9600  179.4490  137.8020 O   0  0  0  0  0  1  0  0  0  0  0  0
  188.8940  178.4180  138.7480 C   0  0  1  0  0  0  0  0  0  0  0  0
  187.7830  177.5800  138.4980 O   0  0  0  0  0  0  0  0  0  0  0  0
  186.5180  176.6740  136.6290 C   0  0  2  0  0  3  0  0  0  0  0  0
  187.4110  175.5990  137.2140 C   0  0  0  0  0  2  0  0  0  0  0  0
  187.8880  177.0370  137.2010 C   0  0  2  0  0  3  0  0  0  0  0  0
  185.4900  176.9690  137.5280 O   0  0  0  0  0  0  0  0  0  0  0  0
  184.3790  176.2930  137.0260 C   0  0  0  0  0  1  0  0  0  0  0  0
  1  3  1  0  0  0  0
  2 21  1  6  0  0  0
  2  6  1  0  0  0  0
  2  1  1  0  0  0  0
  3  7  1  1  0  0  0
  3  4  1  0  0  0  0
  4 17  1  6  0  0  0
  5  4  1  0  0  0  0
  6  5  1  0  0  0  0
  8  7  1  1  0  0  0
  8 13  1  0  0  0  0
  9 15  1  0  0  0  0
 10 14  1  0  0  0  0
 10  8  1  0  0  0  0
 12 11  1  0  0  0  0
 12 13  1  0  0  0  0
 14 12  2  0  0  0  0
 15 11  2  0  0  0  0
 16  9  2  0  0  0  0
 16 14  1  0  0  0  0
 17 18  1  0  0  0  0
 18 19  1  0  0  0  0
 19 20  1  0  0  0  0
 22 21  1  0  0  0  0
 23 22  1  0  0  0  0
 26 25  1  6  0  0  0
 26 23  1  0  0  0  0
 26 24  1  0  0  0  0
 27 26  1  0  0  0  0
 28 30  1  0  0  0  0
 28 29  1  0  0  0  0
 28 31  1  1  0  0  0
 30 29  1  0  0  0  0
 30 27  1  1  0  0  0
 32 31  1  0  0  0  0
M  END
>  <MODEL>
1

>  <REMARK>
 VINA RESULT:      -7.5      0.000      0.000
  Name = 
  12 active torsions:
  status: ('A' for Active; 'I' for Inactive)
    1  A    between atoms: C_2  and  C_5
    2  A    between atoms: C_2  and  C_6
    3  A    between atoms: C_3  and  O_22
    4  A    between atoms: C_4  and  C_27
    5  A    between atoms: O_7  and  C_19
    6  A    between atoms: O_7  and  C_26
    7  A    between atoms: C_13  and  C_29
    8  A    between atoms: C_14  and  O_18
    9  A    between atoms: O_18  and  C_29
   10  A    between atoms: C_20  and  C_24
   11  A    between atoms: C_20  and  C_26
   12  A    between atoms: C_24  and  C_27
                            x       y       z     vdW  Elec       q    Type
                         _______ _______ _______ _____ _____    ______ ____

>  <TORSDO>
F 12

$$$$
=
 OpenBabel11052414433D

 32 35  0  0  1  0  0  0  0  0999 V2000
  184.8360  178.1630  140.3680 C   0  0  0  0  0  2  0  0  0  0  0  0
  184.4510  178.6060  138.9520 C   0  0  1  0  0  3  0  0  0  0  0  0
  184.0650  178.9380  141.4410 C   0  0  1  0  0  3  0  0  0  0  0  0
  182.6280  179.2590  140.9930 C   0  0  1  0  0  3  0  0  0  0  0  0
  182.6070  179.9580  139.6200 C   0  0  0  0  0  2  0  0  0  0  0  0
  183.9180  179.9690  138.9630 N   0  0  0  0  0  2  0  0  0  0  0  0
  184.1130  178.1880  142.7670 C   0  0  0  0  0  2  0  0  0  0  0  0
  185.2780  178.6580  143.6220 C   0  0  2  0  0  3  0  0  0  0  0  0
  188.4940  177.7290  147.0990 C   0  0  0  0  0  3  0  0  0  0  0  0
  186.7300  177.5550  143.4150 S   0  0  0  0  0  0  0  0  0  0  0  0
  186.2350  178.6180  147.2340 C   0  0  0  0  0  3  0  0  0  0  0  0
  186.0820  178.3690  145.8680 C   0  0  0  0  0  0  0  0  0  0  0  0
  184.8630  178.6910  145.0930 C   0  0  0  0  0  2  0  0  0  0  0  0
  187.0990  177.7970  145.1340 C   0  0  0  0  0  0  0  0  0  0  0  0
  187.4510  178.2930  147.8500 C   0  0  0  0  0  3  0  0  0  0  0  0
  188.3220  177.4810  145.7300 C   0  0  0  0  0  3  0  0  0  0  0  0
  181.8570  178.0930  140.9310 O   0  0  0  0  0  0  0  0  0  0  0  0
  180.5670  178.4950  141.2800 C   0  0  0  0  0  2  0  0  0  0  0  0
  180.6130  179.2570  142.5890 C   0  0  0  0  0  2  0  0  0  0  0  0
  180.2520  178.3250  143.7260 C   0  0  0  0  0  1  0  0  0  0  0  0
  185.6690  178.5230  138.0460 C   0  0  0  0  0  2  0  0  0  0  0  0
  186.8840  177.9920  138.7990 C   0  0  0  0  0  2  0  0  0  0  0  0
  187.9480  177.4600  137.8420 C   0  0  0  0  0  2  0  0  0  0  0  0
  190.1520  177.7060  137.0040 F   0  0  0  0  0  0  0  0  0  0  0  0
  188.9960  179.5980  137.4180 O   0  0  0  0  0  1  0  0  0  0  0  0
  189.2400  178.2920  137.8630 C   0  0  1  0  0  0  0  0  0  0  0  0
  189.8100  178.3030  139.1570 O   0  0  0  0  0  0  0  0  0  0  0  0
  190.4700  176.7340  140.8940 C   0  0  2  0  0  3  0  0  0  0  0  0
  191.7010  177.2910  140.2090 C   0  0  0  0  0  2  0  0  0  0  0  0
  190.4390  177.0650  139.4030 C   0  0  2  0  0  3  0  0  0  0  0  0
  189.8660  177.7370  141.6570 O   0  0  0  0  0  0  0  0  0  0  0  0
  190.6610  177.8390  142.7980 C   0  0  0  0  0  1  0  0  0  0  0  0
  1  3  1  0  0  0  0
  2 21  1  6  0  0  0
  2  6  1  0  0  0  0
  2  1  1  0  0  0  0
  3  7  1  1  0  0  0
  4 17  1  6  0  0  0
  4  3  1  0  0  0  0
  5  4  1  0  0  0  0
  6  5  1  0  0  0  0
  8  7  1  6  0  0  0
  8 13  1  0  0  0  0
  9 15  1  0  0  0  0
 10  8  1  0  0  0  0
 10 14  1  0  0  0  0
 11 15  2  0  0  0  0
 12 11  1  0  0  0  0
 13 12  1  0  0  0  0
 14 16  1  0  0  0  0
 14 12  2  0  0  0  0
 16  9  2  0  0  0  0
 17 18  1  0  0  0  0
 18 19  1  0  0  0  0
 19 20  1  0  0  0  0
 21 22  1  0  0  0  0
 23 26  1  0  0  0  0
 23 22  1  0  0  0  0
 25 26  1  0  0  0  0
 26 24  1  6  0  0  0
 26 27  1  0  0  0  0
 28 31  1  1  0  0  0
 29 28  1  0  0  0  0
 30 27  1  1  0  0  0
 30 29  1  0  0  0  0
 30 28  1  0  0  0  0
 31 32  1  0  0  0  0
M  END
>  <MODEL>
2

>  <REMARK>
 VINA RESULT:      -7.0      2.568      6.451
  Name = 
  12 active torsions:
  status: ('A' for Active; 'I' for Inactive)
    1  A    between atoms: C_2  and  C_5
    2  A    between atoms: C_2  and  C_6
    3  A    between atoms: C_3  and  O_22
    4  A    between atoms: C_4  and  C_27
    5  A    between atoms: O_7  and  C_19
    6  A    between atoms: O_7  and  C_26
    7  A    between atoms: C_13  and  C_29
    8  A    between atoms: C_14  and  O_18
    9  A    between atoms: O_18  and  C_29
   10  A    between atoms: C_20  and  C_24
   11  A    between atoms: C_20  and  C_26
   12  A    between atoms: C_24  and  C_27
                            x       y       z     vdW  Elec       q    Type
                         _______ _______ _______ _____ _____    ______ ____

>  <TORSDO>
F 12

$$$$
=
 OpenBabel11052414433D

 32 35  0  0  1  0  0  0  0  0999 V2000
  189.9450  178.0300  142.8520 C   0  0  0  0  0  2  0  0  0  0  0  0
  191.2870  177.3470  142.5680 C   0  0  1  0  0  3  0  0  0  0  0  0
  189.1350  177.2840  143.9170 C   0  0  1  0  0  3  0  0  0  0  0  0
  190.0430  176.6710  144.9990 C   0  0  1  0  0  3  0  0  0  0  0  0
  191.1550  175.8050  144.3790 C   0  0  0  0  0  2  0  0  0  0  0  0
  191.2300  175.9280  142.9200 N   0  0  0  0  0  2  0  0  0  0  0  0
  188.0640  178.1990  144.4990 C   0  0  0  0  0  2  0  0  0  0  0  0
  186.6720  177.7390  144.0950 C   0  0  2  0  0  3  0  0  0  0  0  0
  182.2840  178.8350  142.4110 C   0  0  0  0  0  3  0  0  0  0  0  0
  186.3180  178.1780  142.3490 S   0  0  0  0  0  0  0  0  0  0  0  0
  183.1410  178.8080  144.6860 C   0  0  0  0  0  3  0  0  0  0  0  0
  184.4190  178.5710  144.1760 C   0  0  0  0  0  0  0  0  0  0  0  0
  185.6280  178.3820  145.0080 C   0  0  0  0  0  2  0  0  0  0  0  0
  184.6340  178.4850  142.8170 C   0  0  0  0  0  0  0  0  0  0  0  0
  182.0690  178.9420  143.7940 C   0  0  0  0  0  3  0  0  0  0  0  0
  183.5740  178.6010  141.9150 C   0  0  0  0  0  3  0  0  0  0  0  0
  190.6190  177.6730  145.7870 O   0  0  0  0  0  0  0  0  0  0  0  0
  190.5710  177.1780  147.0910 C   0  0  0  0  0  2  0  0  0  0  0  0
  189.4830  177.8950  147.8630 C   0  0  0  0  0  2  0  0  0  0  0  0
  188.2650  177.0020  147.9610 C   0  0  0  0  0  1  0  0  0  0  0  0
  191.6400  177.5130  141.0990 C   0  0  0  0  0  2  0  0  0  0  0  0
  190.6790  176.7370  140.2070 C   0  0  0  0  0  2  0  0  0  0  0  0
  190.5040  177.4130  138.8490 C   0  0  0  0  0  2  0  0  0  0  0  0
  188.2650  177.4210  139.6250 F   0  0  0  0  0  0  0  0  0  0  0  0
  189.0030  179.2930  138.6070 O   0  0  0  0  0  1  0  0  0  0  0  0
  189.0660  177.8930  138.6010 C   0  0  1  0  0  0  0  0  0  0  0  0
  188.5640  177.3740  137.3850 O   0  0  0  0  0  0  0  0  0  0  0  0
  188.3700  175.1580  136.4020 C   0  0  2  0  0  3  0  0  0  0  0  0
  186.9920  175.7600  136.5900 C   0  0  0  0  0  2  0  0  0  0  0  0
  188.0820  176.0670  137.5970 C   0  0  2  0  0  3  0  0  0  0  0  0
  189.0440  175.8420  135.3870 O   0  0  0  0  0  0  0  0  0  0  0  0
  189.6690  174.8420  134.6440 C   0  0  0  0  0  1  0  0  0  0  0  0
  1  3  1  0  0  0  0
  2 21  1  6  0  0  0
  2  1  1  0  0  0  0
  2  6  1  0  0  0  0
  3  7  1  1  0  0  0
  3  4  1  0  0  0  0
  4 17  1  6  0  0  0
  5  4  1  0  0  0  0
  6  5  1  0  0  0  0
  8  7  1  1  0  0  0
  8 13  1  0  0  0  0
  9 15  1  0  0  0  0
 10 14  1  0  0  0  0
 10  8  1  0  0  0  0
 12 11  1  0  0  0  0
 12 13  1  0  0  0  0
 14 12  2  0  0  0  0
 15 11  2  0  0  0  0
 16  9  2  0  0  0  0
 16 14  1  0  0  0  0
 17 18  1  0  0  0  0
 18 19  1  0  0  0  0
 19 20  1  0  0  0  0
 22 21  1  0  0  0  0
 23 22  1  0  0  0  0
 26 25  1  6  0  0  0
 26 23  1  0  0  0  0
 26 24  1  0  0  0  0
 27 26  1  0  0  0  0
 28 31  1  6  0  0  0
 28 29  1  0  0  0  0
 28 30  1  0  0  0  0
 29 30  1  0  0  0  0
 30 27  1  6  0  0  0
 32 31  1  0  0  0  0
M  END
>  <MODEL>
3

>  <REMARK>
 VINA RESULT:      -6.9      1.100      1.498
  Name = 
  12 active torsions:
  status: ('A' for Active; 'I' for Inactive)
    1  A    between atoms: C_2  and  C_5
    2  A    between atoms: C_2  and  C_6
    3  A    between atoms: C_3  and  O_22
    4  A    between atoms: C_4  and  C_27
    5  A    between atoms: O_7  and  C_19
    6  A    between atoms: O_7  and  C_26
    7  A    between atoms: C_13  and  C_29
    8  A    between atoms: C_14  and  O_18
    9  A    between atoms: O_18  and  C_29
   10  A    between atoms: C_20  and  C_24
   11  A    between atoms: C_20  and  C_26
   12  A    between atoms: C_24  and  C_27
                            x       y       z     vdW  Elec       q    Type
                         _______ _______ _______ _____ _____    ______ ____

>  <TORSDO>
F 12

$$$$
=
 OpenBabel11052414433D

 32 35  0  0  1  0  0  0  0  0999 V2000
  188.1570  177.5160  145.3710 C   0  0  0  0  0  2  0  0  0  0  0  0
  187.2350  177.3130  146.5770 C   0  0  1  0  0  3  0  0  0  0  0  0
  189.4390  178.2650  145.7460 C   0  0  1  0  0  3  0  0  0  0  0  0
  189.9270  177.8910  147.1580 C   0  0  1  0  0  3  0  0  0  0  0  0
  188.8090  178.0560  148.2050 C   0  0  0  0  0  2  0  0  0  0  0  0
  187.4970  178.3220  147.6040 N   0  0  0  0  0  2  0  0  0  0  0  0
  190.5060  178.0500  144.6800 C   0  0  0  0  0  2  0  0  0  0  0  0
  189.9280  177.3550  143.4580 C   0  0  2  0  0  3  0  0  0  0  0  0
  189.6880  176.9630  138.6530 C   0  0  0  0  0  3  0  0  0  0  0  0
  191.2620  176.6500  142.4130 S   0  0  0  0  0  0  0  0  0  0  0  0
  188.4070  178.3440  140.1910 C   0  0  0  0  0  3  0  0  0  0  0  0
  189.2490  177.9300  141.2260 C   0  0  0  0  0  0  0  0  0  0  0  0
  189.1030  178.3470  142.6380 C   0  0  0  0  0  2  0  0  0  0  0  0
  190.2980  177.0690  140.9830 C   0  0  0  0  0  0  0  0  0  0  0  0
  188.6330  177.8550  138.8970 C   0  0  0  0  0  3  0  0  0  0  0  0
  190.5270  176.5620  139.7020 C   0  0  0  0  0  3  0  0  0  0  0  0
  190.3960  176.5730  147.1850 O   0  0  0  0  0  0  0  0  0  0  0  0
  191.6320  176.6450  147.8290 C   0  0  0  0  0  2  0  0  0  0  0  0
  192.4890  175.4670  147.4110 C   0  0  0  0  0  2  0  0  0  0  0  0
  192.1830  175.1090  145.9730 C   0  0  0  0  0  1  0  0  0  0  0  0
  185.7850  177.3840  146.1260 C   0  0  0  0  0  2  0  0  0  0  0  0
  185.5460  178.5860  145.2190 C   0  0  0  0  0  2  0  0  0  0  0  0
  185.3690  178.1630  143.7620 C   0  0  0  0  0  2  0  0  0  0  0  0
  184.4630  180.3520  143.7000 F   0  0  0  0  0  0  0  0  0  0  0  0
  185.6240  179.6720  141.8900 O   0  0  0  0  0  1  0  0  0  0  0  0
  184.7370  179.2620  142.8940 C   0  0  1  0  0  0  0  0  0  0  0  0
  183.5160  178.8210  142.3340 O   0  0  0  0  0  0  0  0  0  0  0  0
  182.2640  178.6470  140.2560 C   0  0  2  0  0  3  0  0  0  0  0  0
  183.1680  177.4410  140.4150 C   0  0  0  0  0  2  0  0  0  0  0  0
  183.6290  178.7890  140.9290 C   0  0  2  0  0  3  0  0  0  0  0  0
  181.2310  178.5840  141.1960 O   0  0  0  0  0  0  0  0  0  0  0  0
  180.1340  179.1510  140.5500 C   0  0  0  0  0  1  0  0  0  0  0  0
  1  3  1  0  0  0  0
  1  2  1  0  0  0  0
  2 21  1  6  0  0  0
  2  6  1  0  0  0  0
  3  7  1  6  0  0  0
  3  4  1  0  0  0  0
  4 17  1  6  0  0  0
  4  5  1  0  0  0  0
  6  5  1  0  0  0  0
  8  7  1  1  0  0  0
  9 15  2  0  0  0  0
  9 16  1  0  0  0  0
 10  8  1  0  0  0  0
 11 12  2  0  0  0  0
 12 13  1  0  0  0  0
 13  8  1  0  0  0  0
 14 12  1  0  0  0  0
 14 10  1  0  0  0  0
 15 11  1  0  0  0  0
 16 14  2  0  0  0  0
 17 18  1  0  0  0  0
 19 18  1  0  0  0  0
 20 19  1  0  0  0  0
 22 21  1  0  0  0  0
 23 22  1  0  0  0  0
 26 25  1  6  0  0  0
 26 24  1  0  0  0  0
 26 23  1  0  0  0  0
 27 26  1  0  0  0  0
 28 29  1  0  0  0  0
 28 30  1  0  0  0  0
 28 31  1  1  0  0  0
 29 30  1  0  0  0  0
 30 27  1  1  0  0  0
 32 31  1  0  0  0  0
M  END
>  <MODEL>
4

>  <REMARK>
 VINA RESULT:      -6.9      2.853      5.596
  Name = 
  12 active torsions:
  status: ('A' for Active; 'I' for Inactive)
    1  A    between atoms: C_2  and  C_5
    2  A    between atoms: C_2  and  C_6
    3  A    between atoms: C_3  and  O_22
    4  A    between atoms: C_4  and  C_27
    5  A    between atoms: O_7  and  C_19
    6  A    between atoms: O_7  and  C_26
    7  A    between atoms: C_13  and  C_29
    8  A    between atoms: C_14  and  O_18
    9  A    between atoms: O_18  and  C_29
   10  A    between atoms: C_20  and  C_24
   11  A    between atoms: C_20  and  C_26
   12  A    between atoms: C_24  and  C_27
                            x       y       z     vdW  Elec       q    Type
                         _______ _______ _______ _____ _____    ______ ____

>  <TORSDO>
F 12

$$$$
=
 OpenBabel11052414433D

 32 35  0  0  1  0  0  0  0  0999 V2000
  188.7240  178.1430  141.4100 C   0  0  0  0  0  2  0  0  0  0  0  0
  190.0360  177.4250  141.0800 C   0  0  1  0  0  3  0  0  0  0  0  0
  187.9780  177.4740  142.5680 C   0  0  1  0  0  3  0  0  0  0  0  0
  188.9490  176.9110  143.6230 C   0  0  1  0  0  3  0  0  0  0  0  0
  190.0090  175.9940  142.9840 C   0  0  0  0  0  2  0  0  0  0  0  0
  189.9880  176.0300  141.5180 N   0  0  0  0  0  2  0  0  0  0  0  0
  186.9580  178.4360  143.1630 C   0  0  0  0  0  2  0  0  0  0  0  0
  185.5380  177.9510  142.9210 C   0  0  2  0  0  3  0  0  0  0  0  0
  180.9150  178.9880  142.0010 C   0  0  0  0  0  3  0  0  0  0  0  0
  184.9160  178.5320  141.2950 S   0  0  0  0  0  0  0  0  0  0  0  0
  182.0990  178.7910  144.1150 C   0  0  0  0  0  3  0  0  0  0  0  0
  183.2960  178.6630  143.4060 C   0  0  0  0  0  0  0  0  0  0  0  0
  184.6200  178.4550  144.0330 C   0  0  0  0  0  2  0  0  0  0  0  0
  183.3100  178.7130  142.0280 C   0  0  0  0  0  0  0  0  0  0  0  0
  180.9030  178.9550  143.4040 C   0  0  0  0  0  3  0  0  0  0  0  0
  182.1260  178.8620  141.3040 C   0  0  0  0  0  3  0  0  0  0  0  0
  189.5880  177.9500  144.3100 O   0  0  0  0  0  0  0  0  0  0  0  0
  189.7560  177.4700  145.6100 C   0  0  0  0  0  2  0  0  0  0  0  0
  188.5340  177.8150  146.4370 C   0  0  0  0  0  2  0  0  0  0  0  0
  188.5900  177.0650  147.7510 C   0  0  0  0  0  1  0  0  0  0  0  0
  190.2930  177.4990  139.5830 C   0  0  0  0  0  2  0  0  0  0  0  0
  191.1160  176.3100  139.1030 C   0  0  0  0  0  2  0  0  0  0  0  0
  192.0940  176.7120  138.0010 C   0  0  0  0  0  2  0  0  0  0  0  0
  192.3710  174.3600  137.9070 F   0  0  0  0  0  0  0  0  0  0  0  0
  193.1020  175.5490  136.1360 O   0  0  0  0  0  1  0  0  0  0  0  0
  192.9770  175.5450  137.5310 C   0  0  1  0  0  0  0  0  0  0  0  0
  194.2480  175.5960  138.1480 O   0  0  0  0  0  0  0  0  0  0  0  0
  195.8870  174.1580  139.2250 C   0  0  2  0  0  3  0  0  0  0  0  0
  196.2990  174.4250  137.7910 C   0  0  0  0  0  2  0  0  0  0  0  0
  194.8280  174.3120  138.1340 C   0  0  2  0  0  3  0  0  0  0  0  0
  196.0260  175.3290  139.9760 O   0  0  0  0  0  0  0  0  0  0  0  0
  197.3180  175.2640  140.4930 C   0  0  0  0  0  1  0  0  0  0  0  0
  1  3  1  0  0  0  0
  2 21  1  6  0  0  0
  2  1  1  0  0  0  0
  2  6  1  0  0  0  0
  3  7  1  1  0  0  0
  3  4  1  0  0  0  0
  4 17  1  6  0  0  0
  5  4  1  0  0  0  0
  6  5  1  0  0  0  0
  8  7  1  1  0  0  0
  8 13  1  0  0  0  0
  9 15  1  0  0  0  0
 10 14  1  0  0  0  0
 10  8  1  0  0  0  0
 12 13  1  0  0  0  0
 12 11  1  0  0  0  0
 14 12  2  0  0  0  0
 15 11  2  0  0  0  0
 16  9  2  0  0  0  0
 16 14  1  0  0  0  0
 17 18  1  0  0  0  0
 18 19  1  0  0  0  0
 19 20  1  0  0  0  0
 22 21  1  0  0  0  0
 23 22  1  0  0  0  0
 26 25  1  6  0  0  0
 26 24  1  0  0  0  0
 26 23  1  0  0  0  0
 26 27  1  0  0  0  0
 28 31  1  1  0  0  0
 29 30  1  0  0  0  0
 29 28  1  0  0  0  0
 30 27  1  1  0  0  0
 30 28  1  0  0  0  0
 31 32  1  0  0  0  0
M  END
>  <MODEL>
5

>  <REMARK>
 VINA RESULT:      -6.8      3.463      4.857
  Name = 
  12 active torsions:
  status: ('A' for Active; 'I' for Inactive)
    1  A    between atoms: C_2  and  C_5
    2  A    between atoms: C_2  and  C_6
    3  A    between atoms: C_3  and  O_22
    4  A    between atoms: C_4  and  C_27
    5  A    between atoms: O_7  and  C_19
    6  A    between atoms: O_7  and  C_26
    7  A    between atoms: C_13  and  C_29
    8  A    between atoms: C_14  and  O_18
    9  A    between atoms: O_18  and  C_29
   10  A    between atoms: C_20  and  C_24
   11  A    between atoms: C_20  and  C_26
   12  A    between atoms: C_24  and  C_27
                            x       y       z     vdW  Elec       q    Type
                         _______ _______ _______ _____ _____    ______ ____

>  <TORSDO>
F 12

$$$$
=
 OpenBabel11052414433D

 32 35  0  0  1  0  0  0  0  0999 V2000
  188.7650  177.9440  142.7400 C   0  0  0  0  0  2  0  0  0  0  0  0
  189.9510  177.5750  141.8440 C   0  0  1  0  0  3  0  0  0  0  0  0
  188.5670  176.9350  143.8750 C   0  0  1  0  0  3  0  0  0  0  0  0
  189.9100  176.3880  144.3940 C   0  0  1  0  0  3  0  0  0  0  0  0
  190.7770  175.8360  143.2460 C   0  0  0  0  0  2  0  0  0  0  0  0
  190.2310  176.1410  141.9190 N   0  0  0  0  0  2  0  0  0  0  0  0
  187.7160  177.5470  144.9810 C   0  0  0  0  0  2  0  0  0  0  0  0
  186.6360  178.4490  144.4070 C   0  0  2  0  0  3  0  0  0  0  0  0
  182.0300  179.0720  143.1080 C   0  0  0  0  0  3  0  0  0  0  0  0
  185.2490  178.6460  145.5920 S   0  0  0  0  0  0  0  0  0  0  0  0
  183.9230  178.2110  141.8490 C   0  0  0  0  0  3  0  0  0  0  0  0
  184.6860  178.2460  143.0190 C   0  0  0  0  0  0  0  0  0  0  0  0
  186.1130  177.8640  143.0950 C   0  0  0  0  0  2  0  0  0  0  0  0
  184.1350  178.6650  144.2110 C   0  0  0  0  0  0  0  0  0  0  0  0
  182.5850  178.6270  141.8990 C   0  0  0  0  0  3  0  0  0  0  0  0
  182.8080  179.0960  144.2740 C   0  0  0  0  0  3  0  0  0  0  0  0
  190.6200  177.3850  145.0730 O   0  0  0  0  0  0  0  0  0  0  0  0
  191.6800  176.7160  145.6880 C   0  0  0  0  0  2  0  0  0  0  0  0
  191.3040  176.3820  147.1170 C   0  0  0  0  0  2  0  0  0  0  0  0
  192.4410  175.6280  147.7720 C   0  0  0  0  0  1  0  0  0  0  0  0
  189.6480  177.9790  140.4100 C   0  0  0  0  0  2  0  0  0  0  0  0
  188.1460  178.0330  140.1560 C   0  0  0  0  0  2  0  0  0  0  0  0
  187.7830  177.4260  138.8020 C   0  0  0  0  0  2  0  0  0  0  0  0
  185.8390  178.7350  139.1500 F   0  0  0  0  0  0  0  0  0  0  0  0
  186.9480  179.0440  137.2110 O   0  0  0  0  0  1  0  0  0  0  0  0
  186.5560  178.0900  138.1590 C   0  0  1  0  0  0  0  0  0  0  0  0
  185.7090  177.1210  137.5740 O   0  0  0  0  0  0  0  0  0  0  0  0
  183.4580  176.2680  137.9210 C   0  0  2  0  0  3  0  0  0  0  0  0
  183.5270  177.0170  136.6060 C   0  0  0  0  0  2  0  0  0  0  0  0
  184.3640  177.4900  137.7770 C   0  0  2  0  0  3  0  0  0  0  0  0
  184.1820  175.0760  137.8190 O   0  0  0  0  0  0  0  0  0  0  0  0
  183.4020  174.2610  137.0000 C   0  0  0  0  0  1  0  0  0  0  0  0
  1  3  1  0  0  0  0
  2 21  1  6  0  0  0
  2  6  1  0  0  0  0
  2  1  1  0  0  0  0
  3  4  1  0  0  0  0
  3  7  1  1  0  0  0
  4 17  1  6  0  0  0
  5  4  1  0  0  0  0
  6  5  1  0  0  0  0
  8  7  1  1  0  0  0
  8 10  1  0  0  0  0
  9 16  1  0  0  0  0
 11 15  1  0  0  0  0
 11 12  2  0  0  0  0
 12 13  1  0  0  0  0
 12 14  1  0  0  0  0
 13  8  1  0  0  0  0
 14 16  2  0  0  0  0
 14 10  1  0  0  0  0
 15  9  2  0  0  0  0
 17 18  1  0  0  0  0
 18 19  1  0  0  0  0
 19 20  1  0  0  0  0
 22 21  1  0  0  0  0
 23 22  1  0  0  0  0
 26 25  1  6  0  0  0
 26 23  1  0  0  0  0
 26 24  1  0  0  0  0
 27 26  1  0  0  0  0
 28 31  1  6  0  0  0
 29 30  1  0  0  0  0
 29 28  1  0  0  0  0
 30 27  1  6  0  0  0
 30 28  1  0  0  0  0
 32 31  1  0  0  0  0
M  END
>  <MODEL>
6

>  <REMARK>
 VINA RESULT:      -6.7      1.580      2.274
  Name = 
  12 active torsions:
  status: ('A' for Active; 'I' for Inactive)
    1  A    between atoms: C_2  and  C_5
    2  A    between atoms: C_2  and  C_6
    3  A    between atoms: C_3  and  O_22
    4  A    between atoms: C_4  and  C_27
    5  A    between atoms: O_7  and  C_19
    6  A    between atoms: O_7  and  C_26
    7  A    between atoms: C_13  and  C_29
    8  A    between atoms: C_14  and  O_18
    9  A    between atoms: O_18  and  C_29
   10  A    between atoms: C_20  and  C_24
   11  A    between atoms: C_20  and  C_26
   12  A    between atoms: C_24  and  C_27
                            x       y       z     vdW  Elec       q    Type
                         _______ _______ _______ _____ _____    ______ ____

>  <TORSDO>
F 12

$$$$
=
 OpenBabel11052414433D

 32 35  0  0  1  0  0  0  0  0999 V2000
  188.2510  178.1940  139.1170 C   0  0  0  0  0  2  0  0  0  0  0  0
  187.4800  178.0080  137.8070 C   0  0  1  0  0  3  0  0  0  0  0  0
  189.0440  176.9400  139.5000 C   0  0  1  0  0  3  0  0  0  0  0  0
  189.6000  176.2160  138.2610 C   0  0  1  0  0  3  0  0  0  0  0  0
  188.4940  175.9310  137.2280 C   0  0  0  0  0  2  0  0  0  0  0  0
  187.2240  176.5900  137.5530 N   0  0  0  0  0  2  0  0  0  0  0  0
  190.1280  177.2920  140.5120 C   0  0  0  0  0  2  0  0  0  0  0  0
  189.5360  177.9640  141.7400 C   0  0  2  0  0  3  0  0  0  0  0  0
  188.2580  177.6960  146.3860 C   0  0  0  0  0  3  0  0  0  0  0  0
  190.7260  177.9400  143.1360 S   0  0  0  0  0  0  0  0  0  0  0  0
  187.0090  177.1570  144.3710 C   0  0  0  0  0  3  0  0  0  0  0  0
  188.1710  177.3660  143.6240 C   0  0  0  0  0  0  0  0  0  0  0  0
  188.2470  177.2520  142.1510 C   0  0  0  0  0  2  0  0  0  0  0  0
  189.3550  177.7140  144.2400 C   0  0  0  0  0  0  0  0  0  0  0  0
  187.0580  177.3230  145.7620 C   0  0  0  0  0  3  0  0  0  0  0  0
  189.4160  177.8980  145.6220 C   0  0  0  0  0  3  0  0  0  0  0  0
  190.6130  176.9710  137.6600 O   0  0  0  0  0  0  0  0  0  0  0  0
  191.3720  176.0470  136.9400 C   0  0  0  0  0  2  0  0  0  0  0  0
  192.4380  175.4580  137.8400 C   0  0  0  0  0  2  0  0  0  0  0  0
  193.2770  176.5750  138.4230 C   0  0  0  0  0  1  0  0  0  0  0  0
  186.1700  178.7770  137.8750 C   0  0  0  0  0  2  0  0  0  0  0  0
  185.2070  178.1410  138.8700 C   0  0  0  0  0  2  0  0  0  0  0  0
  184.5330  179.1920  139.7490 C   0  0  0  0  0  2  0  0  0  0  0  0
  185.1160  177.6670  141.4670 F   0  0  0  0  0  0  0  0  0  0  0  0
  185.9490  179.7570  141.6260 O   0  0  0  0  0  1  0  0  0  0  0  0
  184.8320  179.0020  141.2440 C   0  0  1  0  0  0  0  0  0  0  0  0
  183.7070  179.3410  142.0300 O   0  0  0  0  0  0  0  0  0  0  0  0
  182.3890  178.6210  143.9430 C   0  0  2  0  0  3  0  0  0  0  0  0
  183.4830  179.5660  144.3980 C   0  0  0  0  0  2  0  0  0  0  0  0
  183.7470  178.6230  143.2420 C   0  0  2  0  0  3  0  0  0  0  0  0
  181.4320  179.3310  143.2130 O   0  0  0  0  0  0  0  0  0  0  0  0
  180.2130  178.9610  143.7780 C   0  0  0  0  0  1  0  0  0  0  0  0
  1  3  1  0  0  0  0
  2 21  1  1  0  0  0
  2  1  1  0  0  0  0
  3  7  1  1  0  0  0
  4 17  1  6  0  0  0
  4  3  1  0  0  0  0
  5  6  1  0  0  0  0
  5  4  1  0  0  0  0
  6  2  1  0  0  0  0
  8  7  1  6  0  0  0
  8 13  1  0  0  0  0
  8 10  1  0  0  0  0
 10 14  1  0  0  0  0
 11 15  2  0  0  0  0
 12 14  2  0  0  0  0
 12 11  1  0  0  0  0
 13 12  1  0  0  0  0
 14 16  1  0  0  0  0
 15  9  1  0  0  0  0
 16  9  2  0  0  0  0
 18 17  1  0  0  0  0
 18 19  1  0  0  0  0
 19 20  1  0  0  0  0
 21 22  1  0  0  0  0
 22 23  1  0  0  0  0
 23 26  1  0  0  0  0
 26 24  1  1  0  0  0
 26 25  1  0  0  0  0
 26 27  1  0  0  0  0
 28 31  1  6  0  0  0
 28 29  1  0  0  0  0
 30 27  1  6  0  0  0
 30 28  1  0  0  0  0
 30 29  1  0  0  0  0
 31 32  1  0  0  0  0
M  END
>  <MODEL>
7

>  <REMARK>
 VINA RESULT:      -6.6      2.907      6.591
  Name = 
  12 active torsions:
  status: ('A' for Active; 'I' for Inactive)
    1  A    between atoms: C_2  and  C_5
    2  A    between atoms: C_2  and  C_6
    3  A    between atoms: C_3  and  O_22
    4  A    between atoms: C_4  and  C_27
    5  A    between atoms: O_7  and  C_19
    6  A    between atoms: O_7  and  C_26
    7  A    between atoms: C_13  and  C_29
    8  A    between atoms: C_14  and  O_18
    9  A    between atoms: O_18  and  C_29
   10  A    between atoms: C_20  and  C_24
   11  A    between atoms: C_20  and  C_26
   12  A    between atoms: C_24  and  C_27
                            x       y       z     vdW  Elec       q    Type
                         _______ _______ _______ _____ _____    ______ ____

>  <TORSDO>
F 12

$$$$
=
 OpenBabel11052414433D

 32 35  0  0  1  0  0  0  0  0999 V2000
  188.2410  178.5640  141.6530 C   0  0  0  0  0  2  0  0  0  0  0  0
  189.4570  177.7690  142.1380 C   0  0  1  0  0  3  0  0  0  0  0  0
  186.9230  177.9430  142.1280 C   0  0  1  0  0  3  0  0  0  0  0  0
  187.0540  177.3290  143.5330 C   0  0  1  0  0  3  0  0  0  0  0  0
  188.2400  176.3480  143.6130 C   0  0  0  0  0  2  0  0  0  0  0  0
  189.0900  176.3800  142.4180 N   0  0  0  0  0  2  0  0  0  0  0  0
  185.7970  178.9660  142.0370 C   0  0  0  0  0  2  0  0  0  0  0  0
  184.4370  178.2990  142.1610 C   0  0  2  0  0  3  0  0  0  0  0  0
  179.6270  178.6930  142.2010 C   0  0  0  0  0  3  0  0  0  0  0  0
  183.4160  178.6110  140.6680 S   0  0  0  0  0  0  0  0  0  0  0  0
  181.2430  178.8800  144.0090 C   0  0  0  0  0  3  0  0  0  0  0  0
  182.2700  178.8050  143.0660 C   0  0  0  0  0  0  0  0  0  0  0  0
  183.7120  178.8230  143.3990 C   0  0  0  0  0  2  0  0  0  0  0  0
  181.9890  178.6950  141.7200 C   0  0  0  0  0  0  0  0  0  0  0  0
  179.9130  178.8240  143.5690 C   0  0  0  0  0  3  0  0  0  0  0  0
  180.6710  178.6230  141.2670 C   0  0  0  0  0  3  0  0  0  0  0  0
  187.2140  178.3300  144.4970 O   0  0  0  0  0  0  0  0  0  0  0  0
  187.5930  177.6530  145.6580 C   0  0  0  0  0  2  0  0  0  0  0  0
  186.4400  177.6530  146.6410 C   0  0  0  0  0  2  0  0  0  0  0  0
  185.6910  178.9640  146.5370 C   0  0  0  0  0  1  0  0  0  0  0  0
  190.5510  177.8230  141.0840 C   0  0  0  0  0  2  0  0  0  0  0  0
  190.5690  176.5550  140.2390 C   0  0  0  0  0  2  0  0  0  0  0  0
  191.4270  176.7270  138.9870 C   0  0  0  0  0  2  0  0  0  0  0  0
  191.5330  176.4510  136.6360 F   0  0  0  0  0  0  0  0  0  0  0  0
  190.9390  174.6480  137.8540 O   0  0  0  0  0  1  0  0  0  0  0  0
  190.8260  176.0410  137.7510 C   0  0  1  0  0  0  0  0  0  0  0  0
  189.4760  176.4210  137.5710 O   0  0  0  0  0  0  0  0  0  0  0  0
  188.2570  178.5090  137.3040 C   0  0  2  0  0  3  0  0  0  0  0  0
  188.1410  177.6800  136.0420 C   0  0  0  0  0  2  0  0  0  0  0  0
  189.4220  177.6300  136.8490 C   0  0  2  0  0  3  0  0  0  0  0  0
  187.5260  177.9030  138.3300 O   0  0  0  0  0  0  0  0  0  0  0  0
  186.1930  178.1000  137.9750 C   0  0  0  0  0  1  0  0  0  0  0  0
  1  3  1  0  0  0  0
  1  2  1  0  0  0  0
  2 21  1  6  0  0  0
  2  6  1  0  0  0  0
  3  7  1  1  0  0  0
  3  4  1  0  0  0  0
  4  5  1  0  0  0  0
  4 17  1  1  0  0  0
  6  5  1  0  0  0  0
  8  7  1  6  0  0  0
  8 13  1  0  0  0  0
  9 15  1  0  0  0  0
 10 14  1  0  0  0  0
 10  8  1  0  0  0  0
 12 13  1  0  0  0  0
 12 11  1  0  0  0  0
 14 12  2  0  0  0  0
 15 11  2  0  0  0  0
 16 14  1  0  0  0  0
 16  9  2  0  0  0  0
 17 18  1  0  0  0  0
 18 19  1  0  0  0  0
 20 19  1  0  0  0  0
 22 21  1  0  0  0  0
 23 22  1  0  0  0  0
 26 24  1  6  0  0  0
 26 25  1  0  0  0  0
 26 23  1  0  0  0  0
 27 26  1  0  0  0  0
 28 31  1  1  0  0  0
 29 30  1  0  0  0  0
 29 28  1  0  0  0  0
 30 28  1  0  0  0  0
 30 27  1  1  0  0  0
 32 31  1  0  0  0  0
M  END
>  <MODEL>
8

>  <REMARK>
 VINA RESULT:      -6.6      2.220      3.004
  Name = 
  12 active torsions:
  status: ('A' for Active; 'I' for Inactive)
    1  A    between atoms: C_2  and  C_5
    2  A    between atoms: C_2  and  C_6
    3  A    between atoms: C_3  and  O_22
    4  A    between atoms: C_4  and  C_27
    5  A    between atoms: O_7  and  C_19
    6  A    between atoms: O_7  and  C_26
    7  A    between atoms: C_13  and  C_29
    8  A    between atoms: C_14  and  O_18
    9  A    between atoms: O_18  and  C_29
   10  A    between atoms: C_20  and  C_24
   11  A    between atoms: C_20  and  C_26
   12  A    between atoms: C_24  and  C_27
                            x       y       z     vdW  Elec       q    Type
                         _______ _______ _______ _____ _____    ______ ____

>  <TORSDO>
F 12

$$$$
=
 OpenBabel11052414433D

 32 35  0  0  1  0  0  0  0  0999 V2000
  189.2090  178.0140  138.9190 C   0  0  0  0  0  2  0  0  0  0  0  0
  188.6690  177.7110  137.5180 C   0  0  1  0  0  3  0  0  0  0  0  0
  189.8770  176.7900  139.5540 C   0  0  1  0  0  3  0  0  0  0  0  0
  190.6110  175.9320  138.5070 C   0  0  1  0  0  3  0  0  0  0  0  0
  189.6880  175.5660  137.3290 C   0  0  0  0  0  2  0  0  0  0  0  0
  188.4070  176.2800  137.3620 N   0  0  0  0  0  2  0  0  0  0  0  0
  190.7840  177.2200  140.7000 C   0  0  0  0  0  2  0  0  0  0  0  0
  190.3340  176.6080  142.0170 C   0  0  2  0  0  3  0  0  0  0  0  0
  189.2150  177.1860  146.6760 C   0  0  0  0  0  3  0  0  0  0  0  0
  188.7920  177.4040  142.6150 S   0  0  0  0  0  0  0  0  0  0  0  0
  191.3550  176.7450  145.6080 C   0  0  0  0  0  3  0  0  0  0  0  0
  190.7410  176.9130  144.3650 C   0  0  0  0  0  0  0  0  0  0  0  0
  191.4350  176.7650  143.0660 C   0  0  0  0  0  2  0  0  0  0  0  0
  189.4020  177.2290  144.2730 C   0  0  0  0  0  0  0  0  0  0  0  0
  190.5830  176.8840  146.7700 C   0  0  0  0  0  3  0  0  0  0  0  0
  188.6160  177.3570  145.4200 C   0  0  0  0  0  3  0  0  0  0  0  0
  191.7390  176.6030  138.0220 O   0  0  0  0  0  0  0  0  0  0  0  0
  192.2100  175.8050  136.9780 C   0  0  0  0  0  2  0  0  0  0  0  0
  193.7190  175.9170  136.8970 C   0  0  0  0  0  2  0  0  0  0  0  0
  194.3490  174.8700  137.7900 C   0  0  0  0  0  1  0  0  0  0  0  0
  187.3960  178.5090  137.2830 C   0  0  0  0  0  2  0  0  0  0  0  0
  186.2040  177.8700  137.9860 C   0  0  0  0  0  2  0  0  0  0  0  0
  185.8330  178.6270  139.2600 C   0  0  0  0  0  2  0  0  0  0  0  0
  183.9840  180.0240  138.7650 F   0  0  0  0  0  0  0  0  0  0  0  0
  183.6080  177.8010  138.8000 O   0  0  0  0  0  1  0  0  0  0  0  0
  184.3190  178.8450  139.4050 C   0  0  1  0  0  0  0  0  0  0  0  0
  183.9580  178.9740  140.7660 O   0  0  0  0  0  0  0  0  0  0  0  0
  184.5010  178.2790  143.0330 C   0  0  2  0  0  3  0  0  0  0  0  0
  185.4530  179.3700  142.5870 C   0  0  0  0  0  2  0  0  0  0  0  0
  184.9420  178.3670  141.5720 C   0  0  2  0  0  3  0  0  0  0  0  0
  183.2250  178.8190  143.2180 O   0  0  0  0  0  0  0  0  0  0  0  0
  183.1250  179.0190  144.5940 C   0  0  0  0  0  1  0  0  0  0  0  0
  1  3  1  0  0  0  0
  2 21  1  1  0  0  0
  2  1  1  0  0  0  0
  3  7  1  1  0  0  0
  4 17  1  6  0  0  0
  4  3  1  0  0  0  0
  5  6  1  0  0  0  0
  5  4  1  0  0  0  0
  6  2  1  0  0  0  0
  8  7  1  6  0  0  0
  8 10  1  0  0  0  0
  8 13  1  0  0  0  0
  9 15  1  0  0  0  0
 10 14  1  0  0  0  0
 11 15  2  0  0  0  0
 12 11  1  0  0  0  0
 13 12  1  0  0  0  0
 14 12  2  0  0  0  0
 14 16  1  0  0  0  0
 16  9  2  0  0  0  0
 18 17  1  0  0  0  0
 19 18  1  0  0  0  0
 19 20  1  0  0  0  0
 21 22  1  0  0  0  0
 22 23  1  0  0  0  0
 23 26  1  0  0  0  0
 25 26  1  0  0  0  0
 26 24  1  6  0  0  0
 26 27  1  0  0  0  0
 28 31  1  6  0  0  0
 29 28  1  0  0  0  0
 30 27  1  6  0  0  0
 30 29  1  0  0  0  0
 30 28  1  0  0  0  0
 31 32  1  0  0  0  0
M  END
>  <MODEL>
9

>  <REMARK>
 VINA RESULT:      -6.6      2.777      6.723
  Name = 
  12 active torsions:
  status: ('A' for Active; 'I' for Inactive)
    1  A    between atoms: C_2  and  C_5
    2  A    between atoms: C_2  and  C_6
    3  A    between atoms: C_3  and  O_22
    4  A    between atoms: C_4  and  C_27
    5  A    between atoms: O_7  and  C_19
    6  A    between atoms: O_7  and  C_26
    7  A    between atoms: C_13  and  C_29
    8  A    between atoms: C_14  and  O_18
    9  A    between atoms: O_18  and  C_29
   10  A    between atoms: C_20  and  C_24
   11  A    between atoms: C_20  and  C_26
   12  A    between atoms: C_24  and  C_27
                            x       y       z     vdW  Elec       q    Type
                         _______ _______ _______ _____ _____    ______ ____

>  <TORSDO>
F 12

$$$$
