=
 OpenBabel11052414133D

 34 37  0  0  1  0  0  0  0  0999 V2000
  187.8130  178.0780  146.9290 C   0  0  0  0  0  2  0  0  0  0  0  0
  190.7420  176.5090  144.7410 C   0  0  0  0  0  2  0  0  0  0  0  0
  188.7910  177.3250  143.4230 C   0  0  1  0  0  3  0  0  0  0  0  0
  188.2120  178.0860  141.0730 N   0  0  0  0  0  0  0  0  0  0  0  0
  190.0530  177.3850  147.7180 C   0  0  0  0  0  2  0  0  0  0  0  0
  191.1140  176.4110  147.2360 C   0  0  0  0  0  2  0  0  0  0  0  0
  190.4190  177.6470  141.6920 O   0  0  0  0  0  0  0  0  0  0  0  0
  189.8570  177.7050  144.4420 C   0  0  0  0  0  2  0  0  0  0  0  0
  188.6780  176.8910  147.3130 C   0  0  0  0  0  2  0  0  0  0  0  0
  187.4290  177.9010  143.8610 C   0  0  1  0  0  3  0  0  0  0  0  0
  186.5460  177.6170  146.2240 C   0  0  0  0  0  2  0  0  0  0  0  0
  191.6890  176.8320  145.8860 C   0  0  0  0  0  2  0  0  0  0  0  0
  186.8480  178.2520  141.4620 C   0  0  0  0  0  3  0  0  0  0  0  0
  186.4370  178.1520  142.7310 C   0  0  0  0  0  0  0  0  0  0  0  0
  189.2060  177.7220  142.0350 C   0  0  0  0  0  0  0  0  0  0  0  0
  186.8370  176.9340  144.8890 C   0  0  0  0  0  2  0  0  0  0  0  0
  182.6790  178.5040  142.3600 C   0  0  0  0  0  0  0  0  0  0  0  0
  182.3310  179.0760  143.5860 C   0  0  0  0  0  3  0  0  0  0  0  0
  185.0220  178.4920  143.0170 C   0  0  0  0  0  0  0  0  0  0  0  0
  183.3210  179.3540  144.5320 C   0  0  0  0  0  3  0  0  0  0  0  0
  184.0170  178.2100  142.0790 C   0  0  0  0  0  3  0  0  0  0  0  0
  184.6580  179.0610  144.2500 C   0  0  0  0  0  3  0  0  0  0  0  0
  181.7200  178.2300  141.4440 F   0  0  0  0  0  0  0  0  0  0  0  0
  188.5810  178.4190  139.7060 C   0  0  0  0  0  2  0  0  0  0  0  0
  188.6970  177.1480  138.8900 C   0  0  0  0  0  2  0  0  0  0  0  0
  187.9230  177.2940  137.5950 C   0  0  0  0  0  2  0  0  0  0  0  0
  186.9480  178.4560  137.7050 C   0  0  0  0  0  2  0  0  0  0  0  0
  184.8540  179.8060  139.1470 O   0  0  0  0  0  0  0  0  0  0  0  0
  185.5870  177.9640  137.8920 N   0  0  0  0  0  0  0  0  0  0  0  0
  184.5680  178.7570  138.5110 C   0  0  0  0  0  0  0  0  0  0  0  0
  182.9340  177.7650  136.9760 C   0  0  0  0  0  2  0  0  0  0  0  0
  183.9420  176.6720  136.5700 C   0  0  0  0  0  2  0  0  0  0  0  0
  185.2280  176.6340  137.4120 C   0  0  0  0  0  2  0  0  0  0  0  0
  183.1500  178.3120  138.3890 C   0  0  0  0  0  2  0  0  0  0  0  0
  1  9  1  0  0  0  0
  2 12  1  0  0  0  0
  3 10  1  0  0  0  0
  3  8  1  1  0  0  0
  4 13  1  0  0  0  0
  4 15  1  0  0  0  0
  6  5  1  0  0  0  0
  7 15  2  0  0  0  0
  8  2  1  0  0  0  0
  9  5  1  0  0  0  0
 10 16  1  1  0  0  0
 11  1  1  0  0  0  0
 12  6  1  0  0  0  0
 13 14  2  0  0  0  0
 14 19  1  0  0  0  0
 14 10  1  0  0  0  0
 15  3  1  0  0  0  0
 16 11  1  0  0  0  0
 17 18  1  0  0  0  0
 18 20  2  0  0  0  0
 19 22  2  0  0  0  0
 21 17  2  0  0  0  0
 21 19  1  0  0  0  0
 22 20  1  0  0  0  0
 23 17  1  0  0  0  0
 24  4  1  0  0  0  0
 25 24  1  0  0  0  0
 26 27  1  0  0  0  0
 26 25  1  0  0  0  0
 27 29  1  0  0  0  0
 29 30  1  0  0  0  0
 30 28  2  0  0  0  0
 31 34  1  0  0  0  0
 32 31  1  0  0  0  0
 32 33  1  0  0  0  0
 33 29  1  0  0  0  0
 34 30  1  0  0  0  0
M  END
>  <MODEL>
1

>  <REMARK>
 VINA RESULT:     -10.6      0.000      0.000
  Name = 
  6 active torsions:
  status: ('A' for Active; 'I' for Inactive)
    1  A    between atoms: C_3  and  N_13
    2  A    between atoms: C_3  and  C_17
    3  A    between atoms: N_5  and  C_18
    4  A    between atoms: C_12  and  C_28
    5  A    between atoms: C_17  and  C_29
    6  A    between atoms: C_18  and  C_29
                            x       y       z     vdW  Elec       q    Type
                         _______ _______ _______ _____ _____    ______ ____

>  <TORSDO>
F 6

$$$$
=
 OpenBabel11052414133D

 34 37  0  0  1  0  0  0  0  0999 V2000
  187.7540  178.0190  146.9360 C   0  0  0  0  0  2  0  0  0  0  0  0
  190.7690  176.5240  144.8140 C   0  0  0  0  0  2  0  0  0  0  0  0
  188.8620  177.3660  143.4490 C   0  0  1  0  0  3  0  0  0  0  0  0
  188.3640  178.1870  141.1010 N   0  0  0  0  0  0  0  0  0  0  0  0
  189.9680  177.3170  147.7870 C   0  0  0  0  0  2  0  0  0  0  0  0
  191.0520  176.3610  147.3170 C   0  0  0  0  0  2  0  0  0  0  0  0
  190.5500  177.7420  141.7870 O   0  0  0  0  0  0  0  0  0  0  0  0
  189.8890  177.7240  144.5150 C   0  0  0  0  0  2  0  0  0  0  0  0
  188.6110  176.8280  147.3190 C   0  0  0  0  0  2  0  0  0  0  0  0
  187.4820  177.9230  143.8520 C   0  0  1  0  0  3  0  0  0  0  0  0
  186.5160  177.5720  146.1740 C   0  0  0  0  0  2  0  0  0  0  0  0
  191.6730  176.8210  146.0010 C   0  0  0  0  0  2  0  0  0  0  0  0
  186.9860  178.3360  141.4440 C   0  0  0  0  0  3  0  0  0  0  0  0
  186.5310  178.2000  142.6940 C   0  0  0  0  0  0  0  0  0  0  0  0
  189.3250  177.8030  142.0880 C   0  0  0  0  0  0  0  0  0  0  0  0
  186.8590  176.9270  144.8320 C   0  0  0  0  0  2  0  0  0  0  0  0
  182.7830  178.5180  142.2080 C   0  0  0  0  0  0  0  0  0  0  0  0
  182.3910  179.0810  143.4250 C   0  0  0  0  0  3  0  0  0  0  0  0
  185.1030  178.5250  142.9380 C   0  0  0  0  0  0  0  0  0  0  0  0
  183.3490  179.3650  144.4020 C   0  0  0  0  0  3  0  0  0  0  0  0
  184.1310  178.2380  141.9680 C   0  0  0  0  0  3  0  0  0  0  0  0
  184.6970  179.0860  144.1610 C   0  0  0  0  0  3  0  0  0  0  0  0
  181.8540  178.2380  141.2630 F   0  0  0  0  0  0  0  0  0  0  0  0
  188.7810  178.5590  139.7570 C   0  0  0  0  0  2  0  0  0  0  0  0
  188.5960  177.3770  138.8260 C   0  0  0  0  0  2  0  0  0  0  0  0
  189.8790  177.1160  138.0630 C   0  0  0  0  0  2  0  0  0  0  0  0
  190.7880  176.2090  138.8780 C   0  0  0  0  0  2  0  0  0  0  0  0
  190.3030  173.7210  137.5140 O   0  0  0  0  0  0  0  0  0  0  0  0
  191.7320  175.5160  138.0060 N   0  0  0  0  0  0  0  0  0  0  0  0
  191.3660  174.3490  137.2620 C   0  0  0  0  0  0  0  0  0  0  0  0
  192.8180  175.1160  135.4420 C   0  0  0  0  0  2  0  0  0  0  0  0
  193.4760  176.1560  136.3720 C   0  0  0  0  0  2  0  0  0  0  0  0
  193.0870  176.0330  137.8550 C   0  0  0  0  0  2  0  0  0  0  0  0
  192.2750  173.8870  136.1740 C   0  0  0  0  0  2  0  0  0  0  0  0
  1  9  1  0  0  0  0
  2 12  1  0  0  0  0
  3 10  1  0  0  0  0
  3  8  1  1  0  0  0
  4 13  1  0  0  0  0
  4 15  1  0  0  0  0
  6  5  1  0  0  0  0
  7 15  2  0  0  0  0
  8  2  1  0  0  0  0
  9  5  1  0  0  0  0
 10 16  1  1  0  0  0
 11  1  1  0  0  0  0
 12  6  1  0  0  0  0
 13 14  2  0  0  0  0
 14 19  1  0  0  0  0
 14 10  1  0  0  0  0
 15  3  1  0  0  0  0
 16 11  1  0  0  0  0
 17 18  1  0  0  0  0
 18 20  2  0  0  0  0
 19 22  2  0  0  0  0
 21 17  2  0  0  0  0
 21 19  1  0  0  0  0
 22 20  1  0  0  0  0
 23 17  1  0  0  0  0
 24  4  1  0  0  0  0
 25 24  1  0  0  0  0
 26 25  1  0  0  0  0
 26 27  1  0  0  0  0
 29 27  1  0  0  0  0
 30 28  2  0  0  0  0
 30 29  1  0  0  0  0
 31 34  1  0  0  0  0
 31 32  1  0  0  0  0
 32 33  1  0  0  0  0
 33 29  1  0  0  0  0
 34 30  1  0  0  0  0
M  END
>  <MODEL>
2

>  <REMARK>
 VINA RESULT:     -10.3      2.439      4.111
  Name = 
  6 active torsions:
  status: ('A' for Active; 'I' for Inactive)
    1  A    between atoms: C_3  and  N_13
    2  A    between atoms: C_3  and  C_17
    3  A    between atoms: N_5  and  C_18
    4  A    between atoms: C_12  and  C_28
    5  A    between atoms: C_17  and  C_29
    6  A    between atoms: C_18  and  C_29
                            x       y       z     vdW  Elec       q    Type
                         _______ _______ _______ _____ _____    ______ ____

>  <TORSDO>
F 6

$$$$
=
 OpenBabel11052414133D

 34 37  0  0  1  0  0  0  0  0999 V2000
  191.4230  176.2590  144.0620 C   0  0  0  0  0  2  0  0  0  0  0  0
  188.7950  177.8670  146.5800 C   0  0  0  0  0  2  0  0  0  0  0  0
  188.0990  177.9180  144.1880 C   0  0  1  0  0  3  0  0  0  0  0  0
  185.9970  178.0950  142.7770 N   0  0  0  0  0  0  0  0  0  0  0  0
  191.5090  176.2120  146.5340 C   0  0  0  0  0  2  0  0  0  0  0  0
  190.9370  177.0690  147.6520 C   0  0  0  0  0  2  0  0  0  0  0  0
  185.8800  177.8760  145.0980 O   0  0  0  0  0  0  0  0  0  0  0  0
  188.5450  177.0280  145.3410 C   0  0  0  0  0  2  0  0  0  0  0  0
  191.7540  177.0650  145.3050 C   0  0  0  0  0  2  0  0  0  0  0  0
  188.8350  177.5020  142.8990 C   0  0  1  0  0  3  0  0  0  0  0  0
  191.3500  177.1590  142.8380 C   0  0  0  0  0  2  0  0  0  0  0  0
  189.4120  177.0110  147.6760 C   0  0  0  0  0  2  0  0  0  0  0  0
  186.7910  178.0750  141.5910 C   0  0  0  0  0  3  0  0  0  0  0  0
  188.1060  177.8310  141.6010 C   0  0  0  0  0  0  0  0  0  0  0  0
  186.6010  177.9260  144.0630 C   0  0  0  0  0  0  0  0  0  0  0  0
  190.2110  178.1730  142.9260 C   0  0  0  0  0  2  0  0  0  0  0  0
  189.3670  178.6030  138.1080 C   0  0  0  0  0  0  0  0  0  0  0  0
  190.1200  177.4620  137.8260 C   0  0  0  0  0  3  0  0  0  0  0  0
  188.7830  177.6930  140.2880 C   0  0  0  0  0  0  0  0  0  0  0  0
  190.2120  176.4360  138.7700 C   0  0  0  0  0  3  0  0  0  0  0  0
  188.7060  178.7200  139.3350 C   0  0  0  0  0  3  0  0  0  0  0  0
  189.5500  176.5520  139.9950 C   0  0  0  0  0  3  0  0  0  0  0  0
  189.2810  179.6000  137.1960 F   0  0  0  0  0  0  0  0  0  0  0  0
  184.5510  178.1650  142.6340 C   0  0  0  0  0  2  0  0  0  0  0  0
  184.2040  178.7000  141.2600 C   0  0  0  0  0  2  0  0  0  0  0  0
  183.4740  177.6380  140.4620 C   0  0  0  0  0  2  0  0  0  0  0  0
  183.0970  178.1860  139.0940 C   0  0  0  0  0  2  0  0  0  0  0  0
  185.6560  179.1780  138.2280 O   0  0  0  0  0  0  0  0  0  0  0  0
  183.9350  177.5930  138.0580 N   0  0  0  0  0  0  0  0  0  0  0  0
  185.2540  178.0730  137.7770 C   0  0  0  0  0  0  0  0  0  0  0  0
  185.9400  175.7650  137.3140 C   0  0  0  0  0  2  0  0  0  0  0  0
  184.4680  175.3120  137.2610 C   0  0  0  0  0  2  0  0  0  0  0  0
  183.4390  176.4540  137.2940 C   0  0  0  0  0  2  0  0  0  0  0  0
  186.1510  177.2320  136.9320 C   0  0  0  0  0  2  0  0  0  0  0  0
  1  9  1  0  0  0  0
  2 12  1  0  0  0  0
  3  8  1  1  0  0  0
  4 15  1  0  0  0  0
  5  6  1  0  0  0  0
  6 12  1  0  0  0  0
  8  2  1  0  0  0  0
  9  5  1  0  0  0  0
 10 16  1  6  0  0  0
 10  3  1  0  0  0  0
 11 16  1  0  0  0  0
 11  1  1  0  0  0  0
 13 14  2  0  0  0  0
 13  4  1  0  0  0  0
 14 10  1  0  0  0  0
 15  3  1  0  0  0  0
 15  7  2  0  0  0  0
 17 21  1  0  0  0  0
 18 17  2  0  0  0  0
 18 20  1  0  0  0  0
 19 14  1  0  0  0  0
 20 22  2  0  0  0  0
 21 19  2  0  0  0  0
 22 19  1  0  0  0  0
 23 17  1  0  0  0  0
 24  4  1  0  0  0  0
 25 24  1  0  0  0  0
 26 25  1  0  0  0  0
 27 26  1  0  0  0  0
 29 27  1  0  0  0  0
 30 29  1  0  0  0  0
 30 28  2  0  0  0  0
 32 33  1  0  0  0  0
 32 31  1  0  0  0  0
 33 29  1  0  0  0  0
 34 31  1  0  0  0  0
 34 30  1  0  0  0  0
M  END
>  <MODEL>
3

>  <REMARK>
 VINA RESULT:      -9.6      2.269      4.655
  Name = 
  6 active torsions:
  status: ('A' for Active; 'I' for Inactive)
    1  A    between atoms: C_3  and  N_13
    2  A    between atoms: C_3  and  C_17
    3  A    between atoms: N_5  and  C_18
    4  A    between atoms: C_12  and  C_28
    5  A    between atoms: C_17  and  C_29
    6  A    between atoms: C_18  and  C_29
                            x       y       z     vdW  Elec       q    Type
                         _______ _______ _______ _____ _____    ______ ____

>  <TORSDO>
F 6

$$$$
=
 OpenBabel11052414133D

 34 37  0  0  1  0  0  0  0  0999 V2000
  191.3650  176.3120  144.1500 C   0  0  0  0  0  2  0  0  0  0  0  0
  188.7060  177.9440  146.6180 C   0  0  0  0  0  2  0  0  0  0  0  0
  188.0520  177.9950  144.2150 C   0  0  1  0  0  3  0  0  0  0  0  0
  185.9770  178.1860  142.7670 N   0  0  0  0  0  0  0  0  0  0  0  0
  191.4090  176.2700  146.6230 C   0  0  0  0  0  2  0  0  0  0  0  0
  190.8230  177.1320  147.7280 C   0  0  0  0  0  2  0  0  0  0  0  0
  185.8170  177.9710  145.0850 O   0  0  0  0  0  0  0  0  0  0  0  0
  188.4720  177.1040  145.3760 C   0  0  0  0  0  2  0  0  0  0  0  0
  191.6810  177.1180  145.3960 C   0  0  0  0  0  2  0  0  0  0  0  0
  188.8080  177.5720  142.9390 C   0  0  1  0  0  3  0  0  0  0  0  0
  191.3210  177.2100  142.9220 C   0  0  0  0  0  2  0  0  0  0  0  0
  189.2980  177.0860  147.7260 C   0  0  0  0  0  2  0  0  0  0  0  0
  186.7920  178.1570  141.5940 C   0  0  0  0  0  3  0  0  0  0  0  0
  188.1040  177.9030  141.6280 C   0  0  0  0  0  0  0  0  0  0  0  0
  186.5580  178.0140  144.0630 C   0  0  0  0  0  0  0  0  0  0  0  0
  190.1880  178.2320  142.9890 C   0  0  0  0  0  2  0  0  0  0  0  0
  189.2810  178.5730  138.0850 C   0  0  0  0  0  0  0  0  0  0  0  0
  190.1770  177.5200  137.8860 C   0  0  0  0  0  3  0  0  0  0  0  0
  188.8030  177.7580  140.3270 C   0  0  0  0  0  0  0  0  0  0  0  0
  190.3930  176.5870  138.9020 C   0  0  0  0  0  3  0  0  0  0  0  0
  188.6020  178.6930  139.3010 C   0  0  0  0  0  3  0  0  0  0  0  0
  189.7120  176.7060  140.1170 C   0  0  0  0  0  3  0  0  0  0  0  0
  189.0750  179.4820  137.1020 F   0  0  0  0  0  0  0  0  0  0  0  0
  184.5340  178.2650  142.5980 C   0  0  0  0  0  2  0  0  0  0  0  0
  184.2110  178.5890  141.1540 C   0  0  0  0  0  2  0  0  0  0  0  0
  182.9140  177.9160  140.7520 C   0  0  0  0  0  2  0  0  0  0  0  0
  181.7380  178.6330  141.3970 C   0  0  0  0  0  2  0  0  0  0  0  0
  179.8100  180.6960  141.9520 O   0  0  0  0  0  0  0  0  0  0  0  0
  180.9970  179.3980  140.4000 N   0  0  0  0  0  0  0  0  0  0  0  0
  180.1520  180.4970  140.7560 C   0  0  0  0  0  0  0  0  0  0  0  0
  180.8290  181.6230  138.6860 C   0  0  0  0  0  2  0  0  0  0  0  0
  181.4360  180.3130  138.1430 C   0  0  0  0  0  2  0  0  0  0  0  0
  181.1340  179.0630  138.9870 C   0  0  0  0  0  2  0  0  0  0  0  0
  179.6800  181.4090  139.6740 C   0  0  0  0  0  2  0  0  0  0  0  0
  1  9  1  0  0  0  0
  2 12  1  0  0  0  0
  3  8  1  1  0  0  0
  4 15  1  0  0  0  0
  5  6  1  0  0  0  0
  8  2  1  0  0  0  0
  9  5  1  0  0  0  0
 10 16  1  6  0  0  0
 10  3  1  0  0  0  0
 11 16  1  0  0  0  0
 11  1  1  0  0  0  0
 12  6  1  0  0  0  0
 13 14  2  0  0  0  0
 13  4  1  0  0  0  0
 14 10  1  0  0  0  0
 15  3  1  0  0  0  0
 15  7  2  0  0  0  0
 17 21  1  0  0  0  0
 18 17  2  0  0  0  0
 18 20  1  0  0  0  0
 19 14  1  0  0  0  0
 20 22  2  0  0  0  0
 21 19  2  0  0  0  0
 22 19  1  0  0  0  0
 23 17  1  0  0  0  0
 24  4  1  0  0  0  0
 25 24  1  0  0  0  0
 26 25  1  0  0  0  0
 26 27  1  0  0  0  0
 29 30  1  0  0  0  0
 29 27  1  0  0  0  0
 30 28  2  0  0  0  0
 31 34  1  0  0  0  0
 32 31  1  0  0  0  0
 32 33  1  0  0  0  0
 33 29  1  0  0  0  0
 34 30  1  0  0  0  0
M  END
>  <MODEL>
4

>  <REMARK>
 VINA RESULT:      -9.4      2.865      5.167
  Name = 
  6 active torsions:
  status: ('A' for Active; 'I' for Inactive)
    1  A    between atoms: C_3  and  N_13
    2  A    between atoms: C_3  and  C_17
    3  A    between atoms: N_5  and  C_18
    4  A    between atoms: C_12  and  C_28
    5  A    between atoms: C_17  and  C_29
    6  A    between atoms: C_18  and  C_29
                            x       y       z     vdW  Elec       q    Type
                         _______ _______ _______ _____ _____    ______ ____

>  <TORSDO>
F 6

$$$$
=
 OpenBabel11052414133D

 34 37  0  0  1  0  0  0  0  0999 V2000
  190.9420  177.3750  141.2240 C   0  0  0  0  0  2  0  0  0  0  0  0
  187.6410  177.7490  139.0350 C   0  0  0  0  0  2  0  0  0  0  0  0
  187.2800  177.9500  141.4930 C   0  0  1  0  0  3  0  0  0  0  0  0
  185.6140  178.9230  143.1410 N   0  0  0  0  0  0  0  0  0  0  0  0
  190.8000  177.5280  138.7590 C   0  0  0  0  0  2  0  0  0  0  0  0
  189.7320  177.2350  137.7180 C   0  0  0  0  0  2  0  0  0  0  0  0
  185.4220  179.3250  140.8500 O   0  0  0  0  0  0  0  0  0  0  0  0
  188.0460  178.4940  140.2940 C   0  0  0  0  0  2  0  0  0  0  0  0
  190.6210  176.6110  139.9520 C   0  0  0  0  0  2  0  0  0  0  0  0
  188.2410  177.7780  142.6850 C   0  0  1  0  0  3  0  0  0  0  0  0
  190.4790  176.6020  142.4500 C   0  0  0  0  0  2  0  0  0  0  0  0
  188.5300  178.1630  137.8730 C   0  0  0  0  0  2  0  0  0  0  0  0
  186.3830  178.4030  144.2260 C   0  0  0  0  0  3  0  0  0  0  0  0
  187.5870  177.8440  144.0610 C   0  0  0  0  0  0  0  0  0  0  0  0
  186.0770  178.7990  141.7930 C   0  0  0  0  0  0  0  0  0  0  0  0
  188.9610  176.4400  142.4990 C   0  0  0  0  0  2  0  0  0  0  0  0
  190.4530  177.0460  146.4130 C   0  0  0  0  0  0  0  0  0  0  0  0
  189.7760  176.8490  147.6190 C   0  0  0  0  0  3  0  0  0  0  0  0
  188.3410  177.4780  145.2850 C   0  0  0  0  0  0  0  0  0  0  0  0
  188.3850  176.9680  147.6660 C   0  0  0  0  0  3  0  0  0  0  0  0
  189.7390  177.3630  145.2540 C   0  0  0  0  0  3  0  0  0  0  0  0
  187.6720  177.2840  146.5060 C   0  0  0  0  0  3  0  0  0  0  0  0
  191.8020  176.9350  146.3680 F   0  0  0  0  0  0  0  0  0  0  0  0
  184.4190  179.6920  143.4530 C   0  0  0  0  0  2  0  0  0  0  0  0
  183.7310  179.0870  144.6610 C   0  0  0  0  0  2  0  0  0  0  0  0
  182.3340  178.6350  144.2850 C   0  0  0  0  0  2  0  0  0  0  0  0
  181.8200  179.4620  143.1160 C   0  0  0  0  0  2  0  0  0  0  0  0
  179.2350  178.2010  143.1990 O   0  0  0  0  0  0  0  0  0  0  0  0
  181.2610  178.5940  142.0850 N   0  0  0  0  0  0  0  0  0  0  0  0
  179.9150  178.1110  142.1420 C   0  0  0  0  0  0  0  0  0  0  0  0
  179.7970  178.2960  139.7000 C   0  0  0  0  0  2  0  0  0  0  0  0
  181.3280  178.4610  139.6140 C   0  0  0  0  0  2  0  0  0  0  0  0
  182.0780  178.2210  140.9350 C   0  0  0  0  0  2  0  0  0  0  0  0
  179.3280  177.4950  140.9170 C   0  0  0  0  0  2  0  0  0  0  0  0
  1 11  1  0  0  0  0
  2  8  1  0  0  0  0
  3  8  1  6  0  0  0
  3 15  1  0  0  0  0
  3 10  1  0  0  0  0
  4 24  1  0  0  0  0
  4 13  1  0  0  0  0
  5  9  1  0  0  0  0
  6 12  1  0  0  0  0
  6  5  1  0  0  0  0
  7 15  2  0  0  0  0
  9  1  1  0  0  0  0
 10 16  1  6  0  0  0
 10 14  1  0  0  0  0
 11 16  1  0  0  0  0
 12  2  1  0  0  0  0
 14 13  2  0  0  0  0
 14 19  1  0  0  0  0
 15  4  1  0  0  0  0
 17 18  1  0  0  0  0
 18 20  2  0  0  0  0
 19 22  2  0  0  0  0
 21 19  1  0  0  0  0
 21 17  2  0  0  0  0
 22 20  1  0  0  0  0
 23 17  1  0  0  0  0
 24 25  1  0  0  0  0
 26 25  1  0  0  0  0
 27 26  1  0  0  0  0
 29 30  1  0  0  0  0
 29 27  1  0  0  0  0
 30 28  2  0  0  0  0
 31 34  1  0  0  0  0
 32 31  1  0  0  0  0
 32 33  1  0  0  0  0
 33 29  1  0  0  0  0
 34 30  1  0  0  0  0
M  END
>  <MODEL>
5

>  <REMARK>
 VINA RESULT:      -9.0      3.017      6.336
  Name = 
  6 active torsions:
  status: ('A' for Active; 'I' for Inactive)
    1  A    between atoms: C_3  and  N_13
    2  A    between atoms: C_3  and  C_17
    3  A    between atoms: N_5  and  C_18
    4  A    between atoms: C_12  and  C_28
    5  A    between atoms: C_17  and  C_29
    6  A    between atoms: C_18  and  C_29
                            x       y       z     vdW  Elec       q    Type
                         _______ _______ _______ _____ _____    ______ ____

>  <TORSDO>
F 6

$$$$
=
 OpenBabel11052414133D

 34 37  0  0  1  0  0  0  0  0999 V2000
  191.4690  176.2260  144.1570 C   0  0  0  0  0  2  0  0  0  0  0  0
  188.8240  177.8710  146.6320 C   0  0  0  0  0  2  0  0  0  0  0  0
  188.1600  177.9180  144.2310 C   0  0  1  0  0  3  0  0  0  0  0  0
  186.0790  178.1090  142.7920 N   0  0  0  0  0  0  0  0  0  0  0  0
  191.5220  176.1900  146.6300 C   0  0  0  0  0  2  0  0  0  0  0  0
  190.9440  177.0580  147.7360 C   0  0  0  0  0  2  0  0  0  0  0  0
  185.9290  177.9020  145.1110 O   0  0  0  0  0  0  0  0  0  0  0  0
  188.5820  177.0290  145.3930 C   0  0  0  0  0  2  0  0  0  0  0  0
  191.7910  177.0350  145.4000 C   0  0  0  0  0  2  0  0  0  0  0  0
  188.9090  177.4890  142.9540 C   0  0  1  0  0  3  0  0  0  0  0  0
  191.4210  177.1210  142.9270 C   0  0  0  0  0  2  0  0  0  0  0  0
  189.4180  177.0150  147.7400 C   0  0  0  0  0  2  0  0  0  0  0  0
  186.8880  178.0750  141.6160 C   0  0  0  0  0  3  0  0  0  0  0  0
  188.2010  177.8180  141.6450 C   0  0  0  0  0  0  0  0  0  0  0  0
  186.6650  177.9400  144.0860 C   0  0  0  0  0  0  0  0  0  0  0  0
  190.2910  178.1460  142.9950 C   0  0  0  0  0  2  0  0  0  0  0  0
  189.4000  178.5000  138.1120 C   0  0  0  0  0  0  0  0  0  0  0  0
  190.2580  177.4190  137.8960 C   0  0  0  0  0  3  0  0  0  0  0  0
  188.8940  177.6680  140.3410 C   0  0  0  0  0  0  0  0  0  0  0  0
  190.4400  176.4620  138.8980 C   0  0  0  0  0  3  0  0  0  0  0  0
  188.7260  178.6260  139.3300 C   0  0  0  0  0  3  0  0  0  0  0  0
  189.7640  176.5880  140.1140 C   0  0  0  0  0  3  0  0  0  0  0  0
  189.2270  179.4300  137.1430 F   0  0  0  0  0  0  0  0  0  0  0  0
  184.6360  178.1920  142.6290 C   0  0  0  0  0  2  0  0  0  0  0  0
  184.3130  178.8870  141.3220 C   0  0  0  0  0  2  0  0  0  0  0  0
  183.0410  178.3130  140.7320 C   0  0  0  0  0  2  0  0  0  0  0  0
  183.2950  177.8540  139.3040 C   0  0  0  0  0  2  0  0  0  0  0  0
  182.4030  177.1270  136.6660 O   0  0  0  0  0  0  0  0  0  0  0  0
  182.6250  178.7380  138.3570 N   0  0  0  0  0  0  0  0  0  0  0  0
  182.0960  178.2630  137.1140 C   0  0  0  0  0  0  0  0  0  0  0  0
  180.2470  179.8550  137.3500 C   0  0  0  0  0  2  0  0  0  0  0  0
  180.9970  180.5980  138.4740 C   0  0  0  0  0  2  0  0  0  0  0  0
  182.4530  180.1480  138.6850 C   0  0  0  0  0  2  0  0  0  0  0  0
  181.1670  179.1480  136.3530 C   0  0  0  0  0  2  0  0  0  0  0  0
  1  9  1  0  0  0  0
  2 12  1  0  0  0  0
  3  8  1  1  0  0  0
  4 15  1  0  0  0  0
  5  6  1  0  0  0  0
  6 12  1  0  0  0  0
  8  2  1  0  0  0  0
  9  5  1  0  0  0  0
 10 16  1  6  0  0  0
 10  3  1  0  0  0  0
 11 16  1  0  0  0  0
 11  1  1  0  0  0  0
 13 14  2  0  0  0  0
 13  4  1  0  0  0  0
 14 10  1  0  0  0  0
 15  3  1  0  0  0  0
 15  7  2  0  0  0  0
 17 21  1  0  0  0  0
 18 17  2  0  0  0  0
 18 20  1  0  0  0  0
 19 14  1  0  0  0  0
 20 22  2  0  0  0  0
 21 19  2  0  0  0  0
 22 19  1  0  0  0  0
 23 17  1  0  0  0  0
 24  4  1  0  0  0  0
 25 24  1  0  0  0  0
 26 25  1  0  0  0  0
 27 26  1  0  0  0  0
 28 30  2  0  0  0  0
 29 33  1  0  0  0  0
 29 27  1  0  0  0  0
 30 29  1  0  0  0  0
 31 32  1  0  0  0  0
 32 33  1  0  0  0  0
 34 30  1  0  0  0  0
 34 31  1  0  0  0  0
M  END
>  <MODEL>
6

>  <REMARK>
 VINA RESULT:      -8.9      2.512      4.898
  Name = 
  6 active torsions:
  status: ('A' for Active; 'I' for Inactive)
    1  A    between atoms: C_3  and  N_13
    2  A    between atoms: C_3  and  C_17
    3  A    between atoms: N_5  and  C_18
    4  A    between atoms: C_12  and  C_28
    5  A    between atoms: C_17  and  C_29
    6  A    between atoms: C_18  and  C_29
                            x       y       z     vdW  Elec       q    Type
                         _______ _______ _______ _____ _____    ______ ____

>  <TORSDO>
F 6

$$$$
=
 OpenBabel11052414133D

 34 37  0  0  1  0  0  0  0  0999 V2000
  191.3860  176.3200  144.1510 C   0  0  0  0  0  2  0  0  0  0  0  0
  188.6860  177.9280  146.5910 C   0  0  0  0  0  2  0  0  0  0  0  0
  188.0650  177.9890  144.1790 C   0  0  1  0  0  3  0  0  0  0  0  0
  186.0090  178.1790  142.7040 N   0  0  0  0  0  0  0  0  0  0  0  0
  191.3950  176.2650  146.6240 C   0  0  0  0  0  2  0  0  0  0  0  0
  190.7910  177.1190  147.7260 C   0  0  0  0  0  2  0  0  0  0  0  0
  185.8180  177.9520  145.0190 O   0  0  0  0  0  0  0  0  0  0  0  0
  188.4720  177.0940  145.3420 C   0  0  0  0  0  2  0  0  0  0  0  0
  191.6810  177.1210  145.4060 C   0  0  0  0  0  2  0  0  0  0  0  0
  188.8400  177.5760  142.9120 C   0  0  1  0  0  3  0  0  0  0  0  0
  191.3540  177.2240  142.9280 C   0  0  0  0  0  2  0  0  0  0  0  0
  189.2660  177.0670  147.7030 C   0  0  0  0  0  2  0  0  0  0  0  0
  186.8390  178.1600  141.5430 C   0  0  0  0  0  3  0  0  0  0  0  0
  188.1520  177.9110  141.5930 C   0  0  0  0  0  0  0  0  0  0  0  0
  186.5720  178.0020  144.0080 C   0  0  0  0  0  0  0  0  0  0  0  0
  190.2160  178.2420  142.9840 C   0  0  0  0  0  2  0  0  0  0  0  0
  190.4670  176.6080  138.8860 C   0  0  0  0  0  0  0  0  0  0  0  0
  190.1810  177.4790  137.8320 C   0  0  0  0  0  3  0  0  0  0  0  0
  188.8700  177.7760  140.3010 C   0  0  0  0  0  0  0  0  0  0  0  0
  189.2390  178.4970  138.0050 C   0  0  0  0  0  3  0  0  0  0  0  0
  189.8110  176.7530  140.1120 C   0  0  0  0  0  3  0  0  0  0  0  0
  188.5860  178.6420  139.2320 C   0  0  0  0  0  3  0  0  0  0  0  0
  191.3760  175.6180  138.7170 F   0  0  0  0  0  0  0  0  0  0  0  0
  184.5680  178.2530  142.5160 C   0  0  0  0  0  2  0  0  0  0  0  0
  184.2640  179.0020  141.2350 C   0  0  0  0  0  2  0  0  0  0  0  0
  182.9050  178.5880  140.7060 C   0  0  0  0  0  2  0  0  0  0  0  0
  183.0250  177.2790  139.9410 C   0  0  0  0  0  2  0  0  0  0  0  0
  182.4530  175.0690  138.1880 O   0  0  0  0  0  0  0  0  0  0  0  0
  181.7040  176.7180  139.6790 N   0  0  0  0  0  0  0  0  0  0  0  0
  181.5200  175.5350  138.8950 C   0  0  0  0  0  0  0  0  0  0  0  0
  179.6600  174.9090  140.3640 C   0  0  0  0  0  2  0  0  0  0  0  0
  179.6270  176.3280  140.9670 C   0  0  0  0  0  2  0  0  0  0  0  0
  180.5240  177.3540  140.2530 C   0  0  0  0  0  2  0  0  0  0  0  0
  180.1910  174.8580  138.9300 C   0  0  0  0  0  2  0  0  0  0  0  0
  1  9  1  0  0  0  0
  2 12  1  0  0  0  0
  3  8  1  1  0  0  0
  4 15  1  0  0  0  0
  5  6  1  0  0  0  0
  8  2  1  0  0  0  0
  9  5  1  0  0  0  0
 10 16  1  6  0  0  0
 10  3  1  0  0  0  0
 11 16  1  0  0  0  0
 11  1  1  0  0  0  0
 12  6  1  0  0  0  0
 13 14  2  0  0  0  0
 13  4  1  0  0  0  0
 14 10  1  0  0  0  0
 15  3  1  0  0  0  0
 15  7  2  0  0  0  0
 17 21  1  0  0  0  0
 18 20  1  0  0  0  0
 18 17  2  0  0  0  0
 19 14  1  0  0  0  0
 20 22  2  0  0  0  0
 21 19  2  0  0  0  0
 22 19  1  0  0  0  0
 23 17  1  0  0  0  0
 24  4  1  0  0  0  0
 25 24  1  0  0  0  0
 26 25  1  0  0  0  0
 27 26  1  0  0  0  0
 28 30  2  0  0  0  0
 29 27  1  0  0  0  0
 29 33  1  0  0  0  0
 30 34  1  0  0  0  0
 30 29  1  0  0  0  0
 31 32  1  0  0  0  0
 33 32  1  0  0  0  0
 34 31  1  0  0  0  0
M  END
>  <MODEL>
7

>  <REMARK>
 VINA RESULT:      -8.9      3.053      5.247
  Name = 
  6 active torsions:
  status: ('A' for Active; 'I' for Inactive)
    1  A    between atoms: C_3  and  N_13
    2  A    between atoms: C_3  and  C_17
    3  A    between atoms: N_5  and  C_18
    4  A    between atoms: C_12  and  C_28
    5  A    between atoms: C_17  and  C_29
    6  A    between atoms: C_18  and  C_29
                            x       y       z     vdW  Elec       q    Type
                         _______ _______ _______ _____ _____    ______ ____

>  <TORSDO>
F 6

$$$$
=
 OpenBabel11052414133D

 34 37  0  0  1  0  0  0  0  0999 V2000
  188.3180  177.9980  146.0550 C   0  0  0  0  0  2  0  0  0  0  0  0
  190.8240  176.3970  143.4110 C   0  0  0  0  0  2  0  0  0  0  0  0
  188.7470  177.3510  142.4200 C   0  0  1  0  0  3  0  0  0  0  0  0
  187.8750  178.2340  140.2070 N   0  0  0  0  0  0  0  0  0  0  0  0
  190.6120  177.1760  146.4860 C   0  0  0  0  0  2  0  0  0  0  0  0
  191.5450  176.1780  145.8210 C   0  0  0  0  0  2  0  0  0  0  0  0
  190.1240  177.6750  140.4830 O   0  0  0  0  0  0  0  0  0  0  0  0
  189.9650  177.6420  143.2860 C   0  0  0  0  0  2  0  0  0  0  0  0
  189.1710  176.7600  146.2670 C   0  0  0  0  0  2  0  0  0  0  0  0
  187.4910  177.9660  143.0700 C   0  0  1  0  0  3  0  0  0  0  0  0
  186.9420  177.6220  145.5250 C   0  0  0  0  0  2  0  0  0  0  0  0
  191.9400  176.6310  144.4180 C   0  0  0  0  0  2  0  0  0  0  0  0
  186.5910  178.4430  140.7950 C   0  0  0  0  0  3  0  0  0  0  0  0
  186.3620  178.3070  142.1050 C   0  0  0  0  0  0  0  0  0  0  0  0
  188.9780  177.7880  141.0010 C   0  0  0  0  0  0  0  0  0  0  0  0
  187.0060  176.9840  144.1380 C   0  0  0  0  0  2  0  0  0  0  0  0
  182.5970  178.6830  142.3790 C   0  0  0  0  0  0  0  0  0  0  0  0
  182.4740  179.3740  143.5860 C   0  0  0  0  0  3  0  0  0  0  0  0
  185.0190  178.6960  142.6050 C   0  0  0  0  0  0  0  0  0  0  0  0
  183.6170  179.7260  144.3080 C   0  0  0  0  0  3  0  0  0  0  0  0
  183.8630  178.3420  141.8940 C   0  0  0  0  0  3  0  0  0  0  0  0
  184.8830  179.3860  143.8220 C   0  0  0  0  0  3  0  0  0  0  0  0
  181.4900  178.3370  141.6800 F   0  0  0  0  0  0  0  0  0  0  0  0
  188.0610  178.6090  138.8130 C   0  0  0  0  0  2  0  0  0  0  0  0
  187.0530  177.8720  137.9530 C   0  0  0  0  0  2  0  0  0  0  0  0
  187.5870  176.5000  137.5940 C   0  0  0  0  0  2  0  0  0  0  0  0
  187.1320  176.1200  136.1930 C   0  0  0  0  0  2  0  0  0  0  0  0
  187.9460  173.3960  135.7440 O   0  0  0  0  0  0  0  0  0  0  0  0
  186.2600  174.9510  136.2390 N   0  0  0  0  0  0  0  0  0  0  0  0
  186.7680  173.6170  136.1330 C   0  0  0  0  0  0  0  0  0  0  0  0
  185.0470  172.8890  137.7210 C   0  0  0  0  0  2  0  0  0  0  0  0
  184.2930  174.2240  137.5530 C   0  0  0  0  0  2  0  0  0  0  0  0
  184.8250  175.1290  136.4290 C   0  0  0  0  0  2  0  0  0  0  0  0
  185.8680  172.4830  136.4950 C   0  0  0  0  0  2  0  0  0  0  0  0
  1  9  1  0  0  0  0
  2 12  1  0  0  0  0
  3 10  1  0  0  0  0
  3  8  1  1  0  0  0
  4 13  1  0  0  0  0
  4 15  1  0  0  0  0
  6  5  1  0  0  0  0
  7 15  2  0  0  0  0
  8  2  1  0  0  0  0
  9  5  1  0  0  0  0
 10 16  1  1  0  0  0
 11  1  1  0  0  0  0
 12  6  1  0  0  0  0
 13 14  2  0  0  0  0
 14 19  1  0  0  0  0
 14 10  1  0  0  0  0
 15  3  1  0  0  0  0
 16 11  1  0  0  0  0
 17 18  1  0  0  0  0
 18 20  2  0  0  0  0
 19 22  2  0  0  0  0
 21 17  2  0  0  0  0
 21 19  1  0  0  0  0
 22 20  1  0  0  0  0
 23 17  1  0  0  0  0
 24  4  1  0  0  0  0
 25 24  1  0  0  0  0
 26 25  1  0  0  0  0
 27 29  1  0  0  0  0
 27 26  1  0  0  0  0
 28 30  2  0  0  0  0
 29 33  1  0  0  0  0
 30 29  1  0  0  0  0
 30 34  1  0  0  0  0
 32 31  1  0  0  0  0
 33 32  1  0  0  0  0
 34 31  1  0  0  0  0
M  END
>  <MODEL>
8

>  <REMARK>
 VINA RESULT:      -8.8      2.105      2.600
  Name = 
  6 active torsions:
  status: ('A' for Active; 'I' for Inactive)
    1  A    between atoms: C_3  and  N_13
    2  A    between atoms: C_3  and  C_17
    3  A    between atoms: N_5  and  C_18
    4  A    between atoms: C_12  and  C_28
    5  A    between atoms: C_17  and  C_29
    6  A    between atoms: C_18  and  C_29
                            x       y       z     vdW  Elec       q    Type
                         _______ _______ _______ _____ _____    ______ ____

>  <TORSDO>
F 6

$$$$
=
 OpenBabel11052414133D

 34 37  0  0  1  0  0  0  0  0999 V2000
  186.1860  177.2160  145.7850 C   0  0  0  0  0  2  0  0  0  0  0  0
  185.3970  179.4700  142.6030 C   0  0  0  0  0  2  0  0  0  0  0  0
  187.6410  178.3860  142.5710 C   0  0  1  0  0  3  0  0  0  0  0  0
  189.4430  177.6930  140.9260 N   0  0  0  0  0  0  0  0  0  0  0  0
  184.0250  178.2720  145.2090 C   0  0  0  0  0  2  0  0  0  0  0  0
  183.5950  179.4650  144.3710 C   0  0  0  0  0  2  0  0  0  0  0  0
  187.3830  178.5060  140.1900 O   0  0  0  0  0  0  0  0  0  0  0  0
  186.1400  178.1490  142.6820 C   0  0  0  0  0  2  0  0  0  0  0  0
  185.4050  178.5180  145.7840 C   0  0  0  0  0  2  0  0  0  0  0  0
  188.3780  177.5290  143.6190 C   0  0  1  0  0  3  0  0  0  0  0  0
  187.6620  177.4710  146.0550 C   0  0  0  0  0  2  0  0  0  0  0  0
  183.9200  179.2580  142.8940 C   0  0  0  0  0  2  0  0  0  0  0  0
  190.2580  177.2390  142.0070 C   0  0  0  0  0  3  0  0  0  0  0  0
  189.8170  177.1700  143.2680 C   0  0  0  0  0  0  0  0  0  0  0  0
  188.1160  178.1740  141.1620 C   0  0  0  0  0  0  0  0  0  0  0  0
  188.3240  178.2880  144.9470 C   0  0  0  0  0  2  0  0  0  0  0  0
  191.6790  176.4940  146.5020 C   0  0  0  0  0  0  0  0  0  0  0  0
  192.3660  175.3200  146.1870 C   0  0  0  0  0  3  0  0  0  0  0  0
  190.7150  176.5430  144.2690 C   0  0  0  0  0  0  0  0  0  0  0  0
  192.2300  174.7510  144.9190 C   0  0  0  0  0  3  0  0  0  0  0  0
  190.8550  177.1000  145.5490 C   0  0  0  0  0  3  0  0  0  0  0  0
  191.4070  175.3570  143.9660 C   0  0  0  0  0  3  0  0  0  0  0  0
  191.8070  177.0440  147.7330 F   0  0  0  0  0  0  0  0  0  0  0  0
  189.9500  177.5340  139.5710 C   0  0  0  0  0  2  0  0  0  0  0  0
  190.8990  176.3540  139.5220 C   0  0  0  0  0  2  0  0  0  0  0  0
  191.8870  176.5330  138.3880 C   0  0  0  0  0  2  0  0  0  0  0  0
  191.7880  175.3600  137.4250 C   0  0  0  0  0  2  0  0  0  0  0  0
  189.7140  173.3630  137.4160 O   0  0  0  0  0  0  0  0  0  0  0  0
  190.5430  175.4260  136.6660 N   0  0  0  0  0  0  0  0  0  0  0  0
  189.5050  174.4520  136.8180 C   0  0  0  0  0  0  0  0  0  0  0  0
  187.8540  176.2340  136.4870 C   0  0  0  0  0  2  0  0  0  0  0  0
  188.9500  177.1880  135.9720 C   0  0  0  0  0  2  0  0  0  0  0  0
  190.3210  176.5310  135.7400 C   0  0  0  0  0  2  0  0  0  0  0  0
  188.1600  174.7540  136.2490 C   0  0  0  0  0  2  0  0  0  0  0  0
  1 11  1  0  0  0  0
  2  8  1  0  0  0  0
  2 12  1  0  0  0  0
  3  8  1  6  0  0  0
  3 10  1  0  0  0  0
  4 15  1  0  0  0  0
  4 13  1  0  0  0  0
  5  9  1  0  0  0  0
  6  5  1  0  0  0  0
  7 15  2  0  0  0  0
  9  1  1  0  0  0  0
 10 16  1  1  0  0  0
 12  6  1  0  0  0  0
 13 14  2  0  0  0  0
 14 10  1  0  0  0  0
 14 19  1  0  0  0  0
 15  3  1  0  0  0  0
 16 11  1  0  0  0  0
 17 23  1  0  0  0  0
 18 17  1  0  0  0  0
 19 21  1  0  0  0  0
 20 18  2  0  0  0  0
 21 17  2  0  0  0  0
 22 19  2  0  0  0  0
 22 20  1  0  0  0  0
 24  4  1  0  0  0  0
 25 24  1  0  0  0  0
 26 25  1  0  0  0  0
 27 26  1  0  0  0  0
 29 30  1  0  0  0  0
 29 27  1  0  0  0  0
 30 28  2  0  0  0  0
 32 31  1  0  0  0  0
 33 32  1  0  0  0  0
 33 29  1  0  0  0  0
 34 31  1  0  0  0  0
 34 30  1  0  0  0  0
M  END
>  <MODEL>
9

>  <REMARK>
 VINA RESULT:      -8.8      3.076      6.127
  Name = 
  6 active torsions:
  status: ('A' for Active; 'I' for Inactive)
    1  A    between atoms: C_3  and  N_13
    2  A    between atoms: C_3  and  C_17
    3  A    between atoms: N_5  and  C_18
    4  A    between atoms: C_12  and  C_28
    5  A    between atoms: C_17  and  C_29
    6  A    between atoms: C_18  and  C_29
                            x       y       z     vdW  Elec       q    Type
                         _______ _______ _______ _____ _____    ______ ____

>  <TORSDO>
F 6

$$$$
