=
 OpenBabel11052415463D

 34 38  0  0  1  0  0  0  0  0999 V2000
  187.5670  178.4200  144.5410 N   0  0  2  0  0  0  0  0  0  0  0  0
  186.7420  177.7020  145.5340 C   0  0  2  0  0  3  0  0  0  0  0  0
  186.3120  177.7660  144.1130 C   0  0  1  0  0  3  0  0  0  0  0  0
  185.4900  179.2860  142.3020 C   0  0  0  0  0  2  0  0  0  0  0  0
  182.8890  179.0520  143.3370 O   0  0  0  0  0  0  0  0  0  0  0  0
  183.3050  178.8180  139.1130 C   0  0  1  0  0  3  0  0  0  0  0  0
  184.5750  179.1070  139.9440 C   0  0  0  0  0  2  0  0  0  0  0  0
  184.4410  178.6640  141.3980 C   0  0  2  0  0  3  0  0  0  0  0  0
  181.9600  178.1950  141.2330 C   0  0  0  0  0  2  0  0  0  0  0  0
  183.0430  179.0230  141.9240 C   0  0  1  0  0  3  0  0  0  0  0  0
  182.3430  177.8140  139.7880 C   0  0  0  0  0  2  0  0  0  0  0  0
  183.8660  178.2510  143.9650 C   0  0  0  0  0  2  0  0  0  0  0  0
  185.2760  178.8290  143.7530 C   0  0  1  0  0  3  0  0  0  0  0  0
  182.6190  180.0970  138.7250 C   0  0  0  0  0  0  0  0  0  0  0  0
  183.2390  181.1470  138.7490 O   0  0  0  0  0  0  0  0  0  0  0  0
  181.3180  180.1020  138.3270 F   0  0  0  0  0  0  0  0  0  0  0  0
  190.2020  178.6080  142.4110 C   0  0  0  0  0  2  0  0  0  0  0  0
  189.7990  177.2270  141.9520 C   0  0  1  0  0  3  0  0  0  0  0  0
  188.6010  175.4490  143.0320 O   0  0  0  0  0  1  0  0  0  0  0  0
  188.6390  176.8340  142.8390 C   0  0  1  0  0  3  0  0  0  0  0  0
  189.8900  178.6570  143.8930 C   0  0  0  0  0  2  0  0  0  0  0  0
  188.7760  177.6450  144.1630 C   0  0  1  0  0  0  0  0  0  0  0  0
  190.1360  176.5750  139.5580 O   0  0  0  0  0  0  0  0  0  0  0  0
  189.3870  177.2470  140.5170 C   0  0  0  0  0  0  0  0  0  0  0  0
  188.3550  177.8810  140.1750 O   0  0  0  0  0  1  0  0  0  0  0  0
  189.1340  176.7440  145.3760 C   0  0  0  0  0  2  0  0  0  0  0  0
  191.5320  175.9540  145.6050 C   0  0  0  0  0  3  0  0  0  0  0  0
  192.4440  175.6950  147.8310 C   0  0  0  0  0  2  0  0  0  0  0  0
  192.4200  175.4520  146.3990 N   0  0  0  0  0  0  0  0  0  0  0  0
  190.4040  177.0620  147.5970 C   0  0  0  0  0  2  0  0  0  0  0  0
  190.4880  176.9370  146.0780 C   0  0  2  0  0  3  0  0  0  0  0  0
  191.8020  177.0310  148.1910 C   0  0  0  0  0  2  0  0  0  0  0  0
  186.1100  178.6780  146.4360 C   0  0  0  0  0  0  0  0  0  0  0  0
  185.6130  179.4460  147.1460 N   0  0  0  0  0  0  0  0  0  0  0  0
  1 22  1  6  0  0  0
  1  2  1  0  0  0  0
  2 33  1  1  0  0  0
  3 13  1  1  0  0  0
  3  1  1  0  0  0  0
  3  2  1  0  0  0  0
  5 12  1  0  0  0  0
  6 14  1  1  0  0  0
  6 11  1  0  0  0  0
  6  7  1  0  0  0  0
  8  7  1  6  0  0  0
  8 10  1  0  0  0  0
  8  4  1  0  0  0  0
 10  9  1  6  0  0  0
 10  5  1  0  0  0  0
 11  9  1  0  0  0  0
 13  4  1  6  0  0  0
 13 12  1  0  0  0  0
 14 15  2  0  0  0  0
 16 14  1  0  0  0  0
 17 21  1  0  0  0  0
 18 24  1  6  0  0  0
 18 17  1  0  0  0  0
 18 20  1  0  0  0  0
 20 19  1  1  0  0  0
 20 22  1  0  0  0  0
 21 22  1  0  0  0  0
 22 26  1  1  0  0  0
 23 24  2  0  0  0  0
 25 24  1  0  0  0  0
 27 31  1  0  0  0  0
 27 29  2  0  0  0  0
 28 32  1  0  0  0  0
 29 28  1  0  0  0  0
 30 32  1  0  0  0  0
 31 26  1  1  0  0  0
 31 30  1  0  0  0  0
 33 34  3  0  0  0  0
M  END
>  <MODEL>
1

>  <REMARK>
 VINA RESULT:      -7.9      0.000      0.000
  Name = 
  7 active torsions:
  status: ('A' for Active; 'I' for Inactive)
    1  A    between atoms: C_1  and  C_20
    2  A    between atoms: C_1  and  C_34
    3  A    between atoms: N_5  and  C_34
    4  A    between atoms: C_7  and  C_11
    5  A    between atoms: C_8  and  C_18
    6  A    between atoms: C_13  and  C_23
    7  A    between atoms: C_31  and  C_33
                            x       y       z     vdW  Elec       q    Type
                         _______ _______ _______ _____ _____    ______ ____

>  <TORSDO>
F 7

$$$$
=
 OpenBabel11052415463D

 34 38  0  0  1  0  0  0  0  0999 V2000
  187.5690  178.6370  143.9140 N   0  0  2  0  0  0  0  0  0  0  0  0
  186.8210  177.7410  144.8190 C   0  0  2  0  0  3  0  0  0  0  0  0
  186.4070  177.8810  143.4000 C   0  0  1  0  0  3  0  0  0  0  0  0
  185.3700  179.3590  141.6660 C   0  0  0  0  0  2  0  0  0  0  0  0
  182.8460  178.8360  142.7820 O   0  0  0  0  0  0  0  0  0  0  0  0
  183.1250  178.7600  138.5410 C   0  0  1  0  0  3  0  0  0  0  0  0
  184.3890  179.1530  139.3360 C   0  0  0  0  0  2  0  0  0  0  0  0
  184.3550  178.6600  140.7790 C   0  0  2  0  0  3  0  0  0  0  0  0
  181.9280  177.9480  140.6860 C   0  0  0  0  0  2  0  0  0  0  0  0
  182.9490  178.8610  141.3640 C   0  0  1  0  0  3  0  0  0  0  0  0
  182.2940  177.6470  139.2170 C   0  0  0  0  0  2  0  0  0  0  0  0
  183.9210  178.1210  143.3510 C   0  0  0  0  0  2  0  0  0  0  0  0
  185.2570  178.8440  143.1080 C   0  0  1  0  0  3  0  0  0  0  0  0
  182.3000  179.9740  138.2170 C   0  0  0  0  0  0  0  0  0  0  0  0
  181.2730  179.8520  137.5700 O   0  0  0  0  0  0  0  0  0  0  0  0
  182.6700  181.2090  138.6490 F   0  0  0  0  0  0  0  0  0  0  0  0
  189.5180  175.9420  144.5890 C   0  0  0  0  0  2  0  0  0  0  0  0
  190.6310  176.9350  144.8280 C   0  0  1  0  0  3  0  0  0  0  0  0
  191.0170  179.1600  144.0130 O   0  0  0  0  0  1  0  0  0  0  0  0
  190.0390  178.2870  144.4980 C   0  0  1  0  0  3  0  0  0  0  0  0
  188.6770  176.5280  143.4720 C   0  0  0  0  0  2  0  0  0  0  0  0
  188.8660  178.0450  143.5000 C   0  0  1  0  0  0  0  0  0  0  0  0
  190.2420  177.3000  147.2740 O   0  0  0  0  0  1  0  0  0  0  0  0
  191.0850  176.8870  146.2490 C   0  0  0  0  0  0  0  0  0  0  0  0
  192.2410  176.4700  146.5190 O   0  0  0  0  0  0  0  0  0  0  0  0
  189.1780  178.5860  142.0780 C   0  0  0  0  0  2  0  0  0  0  0  0
  190.5370  177.2080  140.4390 C   0  0  0  0  0  3  0  0  0  0  0  0
  189.9100  177.2630  138.1020 C   0  0  0  0  0  2  0  0  0  0  0  0
  190.8330  177.0140  139.1960 N   0  0  0  0  0  0  0  0  0  0  0  0
  188.2360  178.0390  139.7410 C   0  0  0  0  0  2  0  0  0  0  0  0
  189.1530  177.6150  140.8860 C   0  0  2  0  0  3  0  0  0  0  0  0
  188.4570  177.1280  138.5460 C   0  0  0  0  0  2  0  0  0  0  0  0
  186.0640  178.5510  145.7880 C   0  0  0  0  0  0  0  0  0  0  0  0
  185.4690  179.1890  146.5490 N   0  0  0  0  0  0  0  0  0  0  0  0
  1 22  1  6  0  0  0
  1  2  1  0  0  0  0
  2 33  1  1  0  0  0
  3 13  1  1  0  0  0
  3  1  1  0  0  0  0
  3  2  1  0  0  0  0
  5 12  1  0  0  0  0
  6 14  1  1  0  0  0
  6 11  1  0  0  0  0
  6  7  1  0  0  0  0
  8  7  1  6  0  0  0
  8 10  1  0  0  0  0
  8  4  1  0  0  0  0
 10  9  1  6  0  0  0
 10  5  1  0  0  0  0
 11  9  1  0  0  0  0
 13  4  1  6  0  0  0
 13 12  1  0  0  0  0
 14 16  1  0  0  0  0
 15 14  2  0  0  0  0
 17 18  1  0  0  0  0
 18 24  1  1  0  0  0
 20 19  1  6  0  0  0
 20 18  1  0  0  0  0
 21 22  1  0  0  0  0
 21 17  1  0  0  0  0
 22 26  1  6  0  0  0
 22 20  1  0  0  0  0
 24 25  2  0  0  0  0
 24 23  1  0  0  0  0
 27 31  1  0  0  0  0
 28 32  1  0  0  0  0
 28 29  1  0  0  0  0
 29 27  2  0  0  0  0
 30 31  1  0  0  0  0
 31 26  1  1  0  0  0
 32 30  1  0  0  0  0
 33 34  3  0  0  0  0
M  END
>  <MODEL>
2

>  <REMARK>
 VINA RESULT:      -7.3      2.102      4.305
  Name = 
  7 active torsions:
  status: ('A' for Active; 'I' for Inactive)
    1  A    between atoms: C_1  and  C_20
    2  A    between atoms: C_1  and  C_34
    3  A    between atoms: N_5  and  C_34
    4  A    between atoms: C_7  and  C_11
    5  A    between atoms: C_8  and  C_18
    6  A    between atoms: C_13  and  C_23
    7  A    between atoms: C_31  and  C_33
                            x       y       z     vdW  Elec       q    Type
                         _______ _______ _______ _____ _____    ______ ____

>  <TORSDO>
F 7

$$$$
=
 OpenBabel11052415463D

 34 38  0  0  1  0  0  0  0  0999 V2000
  185.4230  178.8170  138.8060 N   0  0  2  0  0  0  0  0  0  0  0  0
  185.8680  177.8770  137.7570 C   0  0  2  0  0  3  0  0  0  0  0  0
  186.3250  177.7000  139.1590 C   0  0  1  0  0  3  0  0  0  0  0  0
  187.7290  178.6910  140.9790 C   0  0  0  0  0  2  0  0  0  0  0  0
  189.9960  177.4880  139.8350 O   0  0  0  0  0  0  0  0  0  0  0  0
  189.6270  177.2590  144.0640 C   0  0  1  0  0  3  0  0  0  0  0  0
  188.5570  178.0630  143.2930 C   0  0  0  0  0  2  0  0  0  0  0  0
  188.4670  177.6650  141.8230 C   0  0  2  0  0  3  0  0  0  0  0  0
  190.5590  176.2440  141.8750 C   0  0  0  0  0  2  0  0  0  0  0  0
  189.8780  177.4620  141.2520 C   0  0  1  0  0  3  0  0  0  0  0  0
  190.0920  175.9850  143.3220 C   0  0  0  0  0  2  0  0  0  0  0  0
  188.7650  177.1670  139.2240 C   0  0  0  0  0  2  0  0  0  0  0  0
  187.7070  178.2480  139.5090 C   0  0  1  0  0  3  0  0  0  0  0  0
  190.7750  178.1430  144.4610 C   0  0  0  0  0  0  0  0  0  0  0  0
  191.6400  177.7120  145.2060 O   0  0  0  0  0  0  0  0  0  0  0  0
  190.8780  179.4130  143.9880 F   0  0  0  0  0  0  0  0  0  0  0  0
  182.9920  176.4820  138.4120 C   0  0  0  0  0  2  0  0  0  0  0  0
  182.1170  177.6200  137.9420 C   0  0  1  0  0  3  0  0  0  0  0  0
  182.1620  179.9800  138.3750 O   0  0  0  0  0  1  0  0  0  0  0  0
  182.9600  178.8650  138.1030 C   0  0  1  0  0  3  0  0  0  0  0  0
  183.8900  177.0690  139.4840 C   0  0  0  0  0  2  0  0  0  0  0  0
  184.0160  178.5680  139.2100 C   0  0  1  0  0  0  0  0  0  0  0  0
  182.6730  177.4870  135.5050 O   0  0  0  0  0  0  0  0  0  0  0  0
  181.7220  177.4260  136.5160 C   0  0  0  0  0  0  0  0  0  0  0  0
  180.5160  177.2090  136.2280 O   0  0  0  0  0  1  0  0  0  0  0  0
  183.7640  179.3870  140.5040 C   0  0  0  0  0  2  0  0  0  0  0  0
  182.4130  178.7400  142.5510 C   0  0  0  0  0  3  0  0  0  0  0  0
  183.4350  179.0030  144.7270 C   0  0  0  0  0  2  0  0  0  0  0  0
  182.3010  178.8460  143.8330 N   0  0  0  0  0  0  0  0  0  0  0  0
  184.9350  178.9920  142.7680 C   0  0  0  0  0  2  0  0  0  0  0  0
  183.7530  178.6600  141.8590 C   0  0  2  0  0  3  0  0  0  0  0  0
  184.7050  178.3920  144.1440 C   0  0  0  0  0  2  0  0  0  0  0  0
  186.8130  178.5630  136.8600 C   0  0  0  0  0  0  0  0  0  0  0  0
  187.5550  179.1030  136.1550 N   0  0  0  0  0  0  0  0  0  0  0  0
  1  3  1  0  0  0  0
  1 22  1  1  0  0  0
  2 33  1  6  0  0  0
  2  1  1  0  0  0  0
  2  3  1  0  0  0  0
  3 13  1  6  0  0  0
  5 10  1  0  0  0  0
  6 14  1  6  0  0  0
  7  6  1  0  0  0  0
  8  4  1  6  0  0  0
  8  7  1  0  0  0  0
  9 11  1  0  0  0  0
 10  8  1  0  0  0  0
 10  9  1  6  0  0  0
 11  6  1  0  0  0  0
 12  5  1  0  0  0  0
 13 12  1  1  0  0  0
 13  4  1  0  0  0  0
 14 15  2  0  0  0  0
 16 14  1  0  0  0  0
 17 21  1  0  0  0  0
 18 24  1  6  0  0  0
 18 20  1  0  0  0  0
 18 17  1  0  0  0  0
 20 19  1  1  0  0  0
 20 22  1  0  0  0  0
 22 21  1  0  0  0  0
 22 26  1  1  0  0  0
 23 24  2  0  0  0  0
 25 24  1  0  0  0  0
 27 29  2  0  0  0  0
 29 28  1  0  0  0  0
 30 32  1  0  0  0  0
 31 26  1  6  0  0  0
 31 27  1  0  0  0  0
 31 30  1  0  0  0  0
 32 28  1  0  0  0  0
 34 33  3  0  0  0  0
M  END
>  <MODEL>
3

>  <REMARK>
 VINA RESULT:      -6.7      3.594      8.309
  Name = 
  7 active torsions:
  status: ('A' for Active; 'I' for Inactive)
    1  A    between atoms: C_1  and  C_20
    2  A    between atoms: C_1  and  C_34
    3  A    between atoms: N_5  and  C_34
    4  A    between atoms: C_7  and  C_11
    5  A    between atoms: C_8  and  C_18
    6  A    between atoms: C_13  and  C_23
    7  A    between atoms: C_31  and  C_33
                            x       y       z     vdW  Elec       q    Type
                         _______ _______ _______ _____ _____    ______ ____

>  <TORSDO>
F 7

$$$$
=
 OpenBabel11052415463D

 34 38  0  0  1  0  0  0  0  0999 V2000
  190.3190  176.7910  140.4180 N   0  0  2  0  0  0  0  0  0  0  0  0
  191.4030  177.7630  140.1660 C   0  0  2  0  0  3  0  0  0  0  0  0
  190.0990  177.9040  139.4690 C   0  0  1  0  0  3  0  0  0  0  0  0
  189.1130  176.1120  138.0260 C   0  0  0  0  0  2  0  0  0  0  0  0
  189.0700  177.9190  135.8750 O   0  0  0  0  0  0  0  0  0  0  0  0
  185.6180  175.4990  136.4210 C   0  0  1  0  0  3  0  0  0  0  0  0
  186.8190  175.2570  137.3620 C   0  0  0  0  0  2  0  0  0  0  0  0
  187.7540  176.4610  137.4440 C   0  0  2  0  0  3  0  0  0  0  0  0
  186.6480  177.7000  135.5340 C   0  0  0  0  0  2  0  0  0  0  0  0
  187.9430  177.0690  136.0460 C   0  0  1  0  0  3  0  0  0  0  0  0
  185.3930  176.9900  136.0810 C   0  0  0  0  0  2  0  0  0  0  0  0
  189.4840  178.4580  137.1120 C   0  0  0  0  0  2  0  0  0  0  0  0
  190.0140  177.3560  138.0460 C   0  0  1  0  0  3  0  0  0  0  0  0
  185.7210  174.6400  135.1930 C   0  0  0  0  0  0  0  0  0  0  0  0
  184.7080  174.3180  134.5940 O   0  0  0  0  0  0  0  0  0  0  0  0
  186.9290  174.2290  134.7240 F   0  0  0  0  0  0  0  0  0  0  0  0
  191.0480  178.0420  143.4870 C   0  0  0  0  0  2  0  0  0  0  0  0
  190.5260  176.7340  144.0320 C   0  0  1  0  0  3  0  0  0  0  0  0
  188.9590  175.1330  143.1700 O   0  0  0  0  0  1  0  0  0  0  0  0
  190.0240  175.9700  142.8270 C   0  0  1  0  0  3  0  0  0  0  0  0
  190.1990  178.3490  142.2690 C   0  0  0  0  0  2  0  0  0  0  0  0
  189.6670  177.0200  141.7320 C   0  0  1  0  0  0  0  0  0  0  0  0
  192.0100  176.3350  146.0080 O   0  0  0  0  0  1  0  0  0  0  0  0
  191.6120  175.9800  144.7250 C   0  0  0  0  0  0  0  0  0  0  0  0
  192.1720  175.0180  144.1390 O   0  0  0  0  0  0  0  0  0  0  0  0
  188.1380  177.1060  141.4700 C   0  0  0  0  0  2  0  0  0  0  0  0
  186.9380  177.6270  143.6420 C   0  0  0  0  0  3  0  0  0  0  0  0
  184.7250  178.5970  143.5230 C   0  0  0  0  0  2  0  0  0  0  0  0
  185.8020  177.8930  144.1970 N   0  0  0  0  0  0  0  0  0  0  0  0
  186.1200  178.7110  141.4910 C   0  0  0  0  0  2  0  0  0  0  0  0
  187.3000  178.1220  142.2620 C   0  0  2  0  0  3  0  0  0  0  0  0
  185.2500  179.5250  142.4330 C   0  0  0  0  0  2  0  0  0  0  0  0
  192.4720  177.1090  139.3940 C   0  0  0  0  0  0  0  0  0  0  0  0
  193.3130  176.5940  138.7870 N   0  0  0  0  0  0  0  0  0  0  0  0
  1 22  1  1  0  0  0
  2 33  1  6  0  0  0
  2  1  1  0  0  0  0
  3 13  1  6  0  0  0
  3  2  1  0  0  0  0
  3  1  1  0  0  0  0
  4 13  1  0  0  0  0
  5 10  1  0  0  0  0
  5 12  1  0  0  0  0
  6 14  1  6  0  0  0
  6  7  1  0  0  0  0
  8  7  1  6  0  0  0
  8  4  1  0  0  0  0
  9 11  1  0  0  0  0
 10  9  1  1  0  0  0
 10  8  1  0  0  0  0
 11  6  1  0  0  0  0
 13 12  1  6  0  0  0
 15 14  2  0  0  0  0
 16 14  1  0  0  0  0
 17 18  1  0  0  0  0
 18 24  1  6  0  0  0
 20 19  1  1  0  0  0
 20 18  1  0  0  0  0
 21 17  1  0  0  0  0
 22 26  1  6  0  0  0
 22 21  1  0  0  0  0
 22 20  1  0  0  0  0
 24 23  1  0  0  0  0
 25 24  2  0  0  0  0
 27 29  2  0  0  0  0
 28 29  1  0  0  0  0
 30 31  1  0  0  0  0
 30 32  1  0  0  0  0
 31 26  1  6  0  0  0
 31 27  1  0  0  0  0
 32 28  1  0  0  0  0
 34 33  3  0  0  0  0
M  END
>  <MODEL>
4

>  <REMARK>
 VINA RESULT:      -6.6      3.838      6.676
  Name = 
  7 active torsions:
  status: ('A' for Active; 'I' for Inactive)
    1  A    between atoms: C_1  and  C_20
    2  A    between atoms: C_1  and  C_34
    3  A    between atoms: N_5  and  C_34
    4  A    between atoms: C_7  and  C_11
    5  A    between atoms: C_8  and  C_18
    6  A    between atoms: C_13  and  C_23
    7  A    between atoms: C_31  and  C_33
                            x       y       z     vdW  Elec       q    Type
                         _______ _______ _______ _____ _____    ______ ____

>  <TORSDO>
F 7

$$$$
=
 OpenBabel11052415463D

 34 38  0  0  1  0  0  0  0  0999 V2000
  187.6660  178.3700  143.9370 N   0  0  2  0  0  0  0  0  0  0  0  0
  187.1400  177.3190  144.8320 C   0  0  2  0  0  3  0  0  0  0  0  0
  186.3190  177.8080  143.6940 C   0  0  1  0  0  3  0  0  0  0  0  0
  184.6320  179.3690  142.7050 C   0  0  0  0  0  2  0  0  0  0  0  0
  183.0440  179.0510  145.0010 O   0  0  0  0  0  0  0  0  0  0  0  0
  181.0410  178.9610  141.2530 C   0  0  1  0  0  3  0  0  0  0  0  0
  182.5590  179.2480  141.2480 C   0  0  0  0  0  2  0  0  0  0  0  0
  183.2550  178.7560  142.5130 C   0  0  2  0  0  3  0  0  0  0  0  0
  181.1010  178.2440  143.7370 C   0  0  0  0  0  2  0  0  0  0  0  0
  182.3860  179.0700  143.7400 C   0  0  1  0  0  3  0  0  0  0  0  0
  180.6150  177.9170  142.3100 C   0  0  0  0  0  2  0  0  0  0  0  0
  184.2040  178.2490  144.9490 C   0  0  0  0  0  2  0  0  0  0  0  0
  185.2600  178.8620  144.0110 C   0  0  1  0  0  3  0  0  0  0  0  0
  180.2570  180.2380  141.3600 C   0  0  0  0  0  0  0  0  0  0  0  0
  179.9840  180.8680  140.3510 O   0  0  0  0  0  0  0  0  0  0  0  0
  179.8270  180.6980  142.5660 F   0  0  0  0  0  0  0  0  0  0  0  0
  189.4640  175.5420  143.4030 C   0  0  0  0  0  2  0  0  0  0  0  0
  190.6820  176.4370  143.4130 C   0  0  1  0  0  3  0  0  0  0  0  0
  190.9800  178.7670  142.9230 O   0  0  0  0  0  1  0  0  0  0  0  0
  190.1430  177.8430  143.5550 C   0  0  1  0  0  3  0  0  0  0  0  0
  188.3560  176.3620  142.7720 C   0  0  0  0  0  2  0  0  0  0  0  0
  188.6860  177.8370  143.0000 C   0  0  1  0  0  0  0  0  0  0  0  0
  192.2720  174.8890  144.5720 O   0  0  0  0  0  0  0  0  0  0  0  0
  191.5790  176.0930  144.5550 C   0  0  0  0  0  0  0  0  0  0  0  0
  191.7050  176.9010  145.5120 O   0  0  0  0  0  1  0  0  0  0  0  0
  188.5530  178.6410  141.6790 C   0  0  0  0  0  2  0  0  0  0  0  0
  189.6520  177.8730  139.5260 C   0  0  0  0  0  3  0  0  0  0  0  0
  188.4230  178.1310  137.4580 C   0  0  0  0  0  2  0  0  0  0  0  0
  189.6350  177.9400  138.2360 N   0  0  0  0  0  0  0  0  0  0  0  0
  187.1360  178.2490  139.5600 C   0  0  0  0  0  2  0  0  0  0  0  0
  188.3880  177.8800  140.3530 C   0  0  2  0  0  3  0  0  0  0  0  0
  187.1920  177.6020  138.1870 C   0  0  0  0  0  2  0  0  0  0  0  0
  186.8280  177.9100  146.1440 C   0  0  0  0  0  0  0  0  0  0  0  0
  186.5820  178.3740  147.1750 N   0  0  0  0  0  0  0  0  0  0  0  0
  1 22  1  6  0  0  0
  1  2  1  0  0  0  0
  2 33  1  1  0  0  0
  3  1  1  0  0  0  0
  3 13  1  1  0  0  0
  3  2  1  0  0  0  0
  6 14  1  1  0  0  0
  6 11  1  0  0  0  0
  7  6  1  0  0  0  0
  8  7  1  6  0  0  0
  8  4  1  0  0  0  0
  8 10  1  0  0  0  0
 10  9  1  1  0  0  0
 10  5  1  0  0  0  0
 11  9  1  0  0  0  0
 12  5  1  0  0  0  0
 13  4  1  6  0  0  0
 13 12  1  0  0  0  0
 14 16  1  0  0  0  0
 15 14  2  0  0  0  0
 17 18  1  0  0  0  0
 18 20  1  0  0  0  0
 18 24  1  1  0  0  0
 20 19  1  6  0  0  0
 21 22  1  0  0  0  0
 21 17  1  0  0  0  0
 22 26  1  6  0  0  0
 22 20  1  0  0  0  0
 24 23  2  0  0  0  0
 24 25  1  0  0  0  0
 27 31  1  0  0  0  0
 28 32  1  0  0  0  0
 28 29  1  0  0  0  0
 29 27  2  0  0  0  0
 30 31  1  0  0  0  0
 31 26  1  1  0  0  0
 32 30  1  0  0  0  0
 33 34  3  0  0  0  0
M  END
>  <MODEL>
5

>  <REMARK>
 VINA RESULT:      -6.2      2.489      4.676
  Name = 
  7 active torsions:
  status: ('A' for Active; 'I' for Inactive)
    1  A    between atoms: C_1  and  C_20
    2  A    between atoms: C_1  and  C_34
    3  A    between atoms: N_5  and  C_34
    4  A    between atoms: C_7  and  C_11
    5  A    between atoms: C_8  and  C_18
    6  A    between atoms: C_13  and  C_23
    7  A    between atoms: C_31  and  C_33
                            x       y       z     vdW  Elec       q    Type
                         _______ _______ _______ _____ _____    ______ ____

>  <TORSDO>
F 7

$$$$
=
 OpenBabel11052415463D

 34 38  0  0  1  0  0  0  0  0999 V2000
  189.5470  177.5560  138.5820 N   0  0  2  0  0  0  0  0  0  0  0  0
  190.3840  176.5090  139.2040 C   0  0  2  0  0  3  0  0  0  0  0  0
  189.1000  176.9090  139.8350 C   0  0  1  0  0  3  0  0  0  0  0  0
  187.7950  178.5300  141.2280 C   0  0  0  0  0  2  0  0  0  0  0  0
  189.4880  177.9700  143.3990 O   0  0  0  0  0  0  0  0  0  0  0  0
  185.3230  178.2030  144.2190 C   0  0  1  0  0  3  0  0  0  0  0  0
  185.7890  178.5130  142.7790 C   0  0  0  0  0  2  0  0  0  0  0  0
  187.1560  177.9150  142.4610 C   0  0  2  0  0  3  0  0  0  0  0  0
  187.6440  177.2550  144.8540 C   0  0  0  0  0  2  0  0  0  0  0  0
  188.0960  178.0980  143.6620 C   0  0  1  0  0  3  0  0  0  0  0  0
  186.1150  177.0570  144.8880 C   0  0  0  0  0  2  0  0  0  0  0  0
  189.7110  177.1960  142.2410 C   0  0  0  0  0  2  0  0  0  0  0  0
  189.1800  177.9110  140.9860 C   0  0  1  0  0  3  0  0  0  0  0  0
  185.3040  179.4510  145.0550 C   0  0  0  0  0  0  0  0  0  0  0  0
  185.4050  179.3690  146.2680 O   0  0  0  0  0  0  0  0  0  0  0  0
  185.1960  180.6780  144.4790 F   0  0  0  0  0  0  0  0  0  0  0  0
  189.1950  174.6950  136.7920 C   0  0  0  0  0  2  0  0  0  0  0  0
  189.5620  175.5260  135.5850 C   0  0  1  0  0  3  0  0  0  0  0  0
  189.3570  177.8700  135.1130 O   0  0  0  0  0  1  0  0  0  0  0  0
  189.6980  176.9410  136.1000 C   0  0  1  0  0  3  0  0  0  0  0  0
  188.4000  175.6140  137.6980 C   0  0  0  0  0  2  0  0  0  0  0  0
  188.8260  177.0490  137.3880 C   0  0  1  0  0  0  0  0  0  0  0  0
  191.9250  175.9160  134.8580 O   0  0  0  0  0  1  0  0  0  0  0  0
  190.8440  175.0520  134.9880 C   0  0  0  0  0  0  0  0  0  0  0  0
  190.9460  173.8600  134.5960 O   0  0  0  0  0  0  0  0  0  0  0  0
  187.5840  177.9590  137.1870 C   0  0  0  0  0  2  0  0  0  0  0  0
  185.3890  176.9740  136.3870 C   0  0  0  0  0  3  0  0  0  0  0  0
  183.3340  177.8560  137.3110 C   0  0  0  0  0  2  0  0  0  0  0  0
  184.1090  177.1370  136.3150 N   0  0  0  0  0  0  0  0  0  0  0  0
  185.4200  178.3260  138.5410 C   0  0  0  0  0  2  0  0  0  0  0  0
  186.1950  177.4280  137.5800 C   0  0  2  0  0  3  0  0  0  0  0  0
  183.9980  177.8140  138.6840 C   0  0  0  0  0  2  0  0  0  0  0  0
  191.5940  177.1280  139.7700 C   0  0  0  0  0  0  0  0  0  0  0  0
  192.5460  177.6130  140.2150 N   0  0  0  0  0  0  0  0  0  0  0  0
  1 22  1  6  0  0  0
  1  2  1  0  0  0  0
  1  3  1  0  0  0  0
  2 33  1  1  0  0  0
  2  3  1  0  0  0  0
  3 13  1  1  0  0  0
  5 10  1  0  0  0  0
  6 11  1  0  0  0  0
  6 14  1  1  0  0  0
  7  6  1  0  0  0  0
  8  4  1  6  0  0  0
  8  7  1  0  0  0  0
  8 10  1  0  0  0  0
  9 11  1  0  0  0  0
 10  9  1  1  0  0  0
 12  5  1  0  0  0  0
 13  4  1  1  0  0  0
 13 12  1  0  0  0  0
 14 15  2  0  0  0  0
 16 14  1  0  0  0  0
 17 21  1  0  0  0  0
 18 24  1  1  0  0  0
 18 20  1  0  0  0  0
 18 17  1  0  0  0  0
 20 19  1  6  0  0  0
 20 22  1  0  0  0  0
 22 26  1  6  0  0  0
 22 21  1  0  0  0  0
 23 24  1  0  0  0  0
 25 24  2  0  0  0  0
 27 31  1  0  0  0  0
 28 32  1  0  0  0  0
 29 27  2  0  0  0  0
 29 28  1  0  0  0  0
 30 32  1  0  0  0  0
 31 26  1  6  0  0  0
 31 30  1  0  0  0  0
 33 34  3  0  0  0  0
M  END
>  <MODEL>
6

>  <REMARK>
 VINA RESULT:      -6.2      3.921      7.824
  Name = 
  7 active torsions:
  status: ('A' for Active; 'I' for Inactive)
    1  A    between atoms: C_1  and  C_20
    2  A    between atoms: C_1  and  C_34
    3  A    between atoms: N_5  and  C_34
    4  A    between atoms: C_7  and  C_11
    5  A    between atoms: C_8  and  C_18
    6  A    between atoms: C_13  and  C_23
    7  A    between atoms: C_31  and  C_33
                            x       y       z     vdW  Elec       q    Type
                         _______ _______ _______ _____ _____    ______ ____

>  <TORSDO>
F 7

$$$$
=
 OpenBabel11052415463D

 34 38  0  0  1  0  0  0  0  0999 V2000
  189.9350  177.2640  138.6350 N   0  0  2  0  0  0  0  0  0  0  0  0
  190.8480  176.4020  139.4130 C   0  0  2  0  0  3  0  0  0  0  0  0
  189.4980  176.7270  139.9420 C   0  0  1  0  0  3  0  0  0  0  0  0
  187.9500  178.3170  141.1000 C   0  0  0  0  0  2  0  0  0  0  0  0
  189.6290  178.2540  143.3520 O   0  0  0  0  0  0  0  0  0  0  0  0
  185.4450  178.0320  144.0680 C   0  0  1  0  0  3  0  0  0  0  0  0
  185.9130  178.2250  142.6080 C   0  0  0  0  0  2  0  0  0  0  0  0
  187.3560  177.7780  142.3890 C   0  0  2  0  0  3  0  0  0  0  0  0
  187.8470  177.4840  144.8540 C   0  0  0  0  0  2  0  0  0  0  0  0
  188.2250  178.2280  143.5740 C   0  0  1  0  0  3  0  0  0  0  0  0
  186.3560  177.0910  144.8880 C   0  0  0  0  0  2  0  0  0  0  0  0
  189.9880  177.3820  142.3020 C   0  0  0  0  0  2  0  0  0  0  0  0
  189.4100  177.8630  140.9600 C   0  0  1  0  0  3  0  0  0  0  0  0
  185.2380  179.3590  144.7410 C   0  0  0  0  0  0  0  0  0  0  0  0
  185.3170  179.4400  145.9560 O   0  0  0  0  0  0  0  0  0  0  0  0
  184.9810  180.4800  144.0150 F   0  0  0  0  0  0  0  0  0  0  0  0
  188.1700  177.9000  135.8080 C   0  0  0  0  0  2  0  0  0  0  0  0
  187.1850  176.8710  136.3130 C   0  0  1  0  0  3  0  0  0  0  0  0
  187.4220  174.9960  137.7920 O   0  0  0  0  0  1  0  0  0  0  0  0
  187.7940  176.3280  137.5860 C   0  0  1  0  0  3  0  0  0  0  0  0
  189.5360  177.4140  136.2510 C   0  0  0  0  0  2  0  0  0  0  0  0
  189.3350  176.5380  137.4880 C   0  0  1  0  0  0  0  0  0  0  0  0
  185.6540  178.2480  137.7380 O   0  0  0  0  0  1  0  0  0  0  0  0
  185.8590  177.5000  136.5840 C   0  0  0  0  0  0  0  0  0  0  0  0
  184.9190  177.3480  135.7620 O   0  0  0  0  0  0  0  0  0  0  0  0
  190.1070  175.1990  137.3440 C   0  0  0  0  0  2  0  0  0  0  0  0
  190.2290  173.6090  135.3720 C   0  0  0  0  0  3  0  0  0  0  0  0
  192.4120  172.9140  134.5950 C   0  0  0  0  0  2  0  0  0  0  0  0
  190.9700  172.7830  134.7120 N   0  0  0  0  0  0  0  0  0  0  0  0
  192.3080  174.9190  136.0290 C   0  0  0  0  0  2  0  0  0  0  0  0
  190.7820  174.8650  136.0030 C   0  0  2  0  0  3  0  0  0  0  0  0
  192.8610  174.3660  134.7270 C   0  0  0  0  0  2  0  0  0  0  0  0
  191.9530  177.2180  139.9420 C   0  0  0  0  0  0  0  0  0  0  0  0
  192.8230  177.8590  140.3570 N   0  0  0  0  0  0  0  0  0  0  0  0
  1 22  1  6  0  0  0
  1  2  1  0  0  0  0
  1  3  1  0  0  0  0
  2  3  1  0  0  0  0
  2 33  1  1  0  0  0
  3 13  1  1  0  0  0
  5 10  1  0  0  0  0
  6 14  1  1  0  0  0
  6 11  1  0  0  0  0
  7  6  1  0  0  0  0
  8  4  1  6  0  0  0
  8  7  1  0  0  0  0
  8 10  1  0  0  0  0
  9 11  1  0  0  0  0
 10  9  1  1  0  0  0
 12  5  1  0  0  0  0
 13  4  1  1  0  0  0
 13 12  1  0  0  0  0
 14 15  2  0  0  0  0
 16 14  1  0  0  0  0
 17 21  1  0  0  0  0
 17 18  1  0  0  0  0
 18 24  1  1  0  0  0
 18 20  1  0  0  0  0
 20 19  1  6  0  0  0
 21 22  1  0  0  0  0
 22 26  1  6  0  0  0
 22 20  1  0  0  0  0
 24 23  1  0  0  0  0
 25 24  2  0  0  0  0
 27 31  1  0  0  0  0
 28 29  1  0  0  0  0
 28 32  1  0  0  0  0
 29 27  2  0  0  0  0
 31 30  1  0  0  0  0
 31 26  1  1  0  0  0
 32 30  1  0  0  0  0
 33 34  3  0  0  0  0
M  END
>  <MODEL>
7

>  <REMARK>
 VINA RESULT:      -5.9      4.555      7.725
  Name = 
  7 active torsions:
  status: ('A' for Active; 'I' for Inactive)
    1  A    between atoms: C_1  and  C_20
    2  A    between atoms: C_1  and  C_34
    3  A    between atoms: N_5  and  C_34
    4  A    between atoms: C_7  and  C_11
    5  A    between atoms: C_8  and  C_18
    6  A    between atoms: C_13  and  C_23
    7  A    between atoms: C_31  and  C_33
                            x       y       z     vdW  Elec       q    Type
                         _______ _______ _______ _____ _____    ______ ____

>  <TORSDO>
F 7

$$$$
=
 OpenBabel11052415463D

 34 38  0  0  1  0  0  0  0  0999 V2000
  183.3770  179.3330  139.7580 N   0  0  2  0  0  0  0  0  0  0  0  0
  184.1070  178.1710  139.2110 C   0  0  2  0  0  3  0  0  0  0  0  0
  183.9460  178.3270  140.6790 C   0  0  1  0  0  3  0  0  0  0  0  0
  184.6510  179.4030  142.8260 C   0  0  0  0  0  2  0  0  0  0  0  0
  187.2040  178.2720  142.5130 O   0  0  0  0  0  0  0  0  0  0  0  0
  185.4890  178.1010  146.3990 C   0  0  1  0  0  3  0  0  0  0  0  0
  184.7020  178.8480  145.3010 C   0  0  0  0  0  2  0  0  0  0  0  0
  185.1070  178.4230  143.8930 C   0  0  2  0  0  3  0  0  0  0  0  0
  187.1140  177.0870  144.6610 C   0  0  0  0  0  2  0  0  0  0  0  0
  186.6330  178.2660  143.8160 C   0  0  1  0  0  3  0  0  0  0  0  0
  186.2110  176.8340  145.8860 C   0  0  0  0  0  2  0  0  0  0  0  0
  186.2490  177.8930  141.5460 C   0  0  0  0  0  2  0  0  0  0  0  0
  185.1220  178.9350  141.4420 C   0  0  1  0  0  3  0  0  0  0  0  0
  186.4170  179.0360  147.1210 C   0  0  0  0  0  0  0  0  0  0  0  0
  187.5050  178.6350  147.5030 O   0  0  0  0  0  0  0  0  0  0  0  0
  186.0730  180.3340  147.3410 F   0  0  0  0  0  0  0  0  0  0  0  0
  180.9680  179.9200  137.4410 C   0  0  0  0  0  2  0  0  0  0  0  0
  180.2540  180.6900  138.5270 C   0  0  1  0  0  3  0  0  0  0  0  0
  180.3200  180.5450  140.9220 O   0  0  0  0  0  1  0  0  0  0  0  0
  181.1050  180.5150  139.7660 C   0  0  1  0  0  3  0  0  0  0  0  0
  181.6640  178.7700  138.1410 C   0  0  0  0  0  2  0  0  0  0  0  0
  181.9090  179.1920  139.5900 C   0  0  1  0  0  0  0  0  0  0  0  0
  180.9490  182.6790  137.1750 O   0  0  0  0  0  0  0  0  0  0  0  0
  180.1380  182.1320  138.1620 C   0  0  0  0  0  0  0  0  0  0  0  0
  179.2990  182.8590  138.7560 O   0  0  0  0  0  1  0  0  0  0  0  0
  181.4450  178.0820  140.5720 C   0  0  0  0  0  2  0  0  0  0  0  0
  179.3800  176.6440  140.8830 C   0  0  0  0  0  3  0  0  0  0  0  0
  179.6030  174.2490  140.6240 C   0  0  0  0  0  2  0  0  0  0  0  0
  178.9320  175.4500  141.0900 N   0  0  0  0  0  0  0  0  0  0  0  0
  181.3990  175.6600  139.6900 C   0  0  0  0  0  2  0  0  0  0  0  0
  180.6000  176.9140  140.0360 C   0  0  2  0  0  3  0  0  0  0  0  0
  180.4460  174.5170  139.3820 C   0  0  0  0  0  2  0  0  0  0  0  0
  185.3950  178.6230  138.6590 C   0  0  0  0  0  0  0  0  0  0  0  0
  186.4080  178.9780  138.2260 N   0  0  0  0  0  0  0  0  0  0  0  0
  1 22  1  6  0  0  0
  1  3  1  0  0  0  0
  2 33  1  1  0  0  0
  2  1  1  0  0  0  0
  2  3  1  0  0  0  0
  3 13  1  1  0  0  0
  5 10  1  0  0  0  0
  6 14  1  6  0  0  0
  7  6  1  0  0  0  0
  8  4  1  6  0  0  0
  8  7  1  0  0  0  0
  9 11  1  0  0  0  0
 10  8  1  0  0  0  0
 10  9  1  6  0  0  0
 11  6  1  0  0  0  0
 12  5  1  0  0  0  0
 13 12  1  1  0  0  0
 13  4  1  0  0  0  0
 14 16  1  0  0  0  0
 14 15  2  0  0  0  0
 17 21  1  0  0  0  0
 17 18  1  0  0  0  0
 18 24  1  6  0  0  0
 18 20  1  0  0  0  0
 20 19  1  1  0  0  0
 21 22  1  0  0  0  0
 22 20  1  0  0  0  0
 22 26  1  1  0  0  0
 23 24  2  0  0  0  0
 24 25  1  0  0  0  0
 27 29  2  0  0  0  0
 28 29  1  0  0  0  0
 30 31  1  0  0  0  0
 31 26  1  1  0  0  0
 31 27  1  0  0  0  0
 32 30  1  0  0  0  0
 32 28  1  0  0  0  0
 34 33  3  0  0  0  0
M  END
>  <MODEL>
8

>  <REMARK>
 VINA RESULT:      -5.9      4.168      9.210
  Name = 
  7 active torsions:
  status: ('A' for Active; 'I' for Inactive)
    1  A    between atoms: C_1  and  C_20
    2  A    between atoms: C_1  and  C_34
    3  A    between atoms: N_5  and  C_34
    4  A    between atoms: C_7  and  C_11
    5  A    between atoms: C_8  and  C_18
    6  A    between atoms: C_13  and  C_23
    7  A    between atoms: C_31  and  C_33
                            x       y       z     vdW  Elec       q    Type
                         _______ _______ _______ _____ _____    ______ ____

>  <TORSDO>
F 7

$$$$
=
 OpenBabel11052415463D

 34 38  0  0  1  0  0  0  0  0999 V2000
  182.7440  179.1000  140.0960 N   0  0  2  0  0  0  0  0  0  0  0  0
  183.5390  178.0020  139.5090 C   0  0  2  0  0  3  0  0  0  0  0  0
  183.4720  178.1670  140.9840 C   0  0  1  0  0  3  0  0  0  0  0  0
  184.2570  179.2640  143.0920 C   0  0  0  0  0  2  0  0  0  0  0  0
  186.8830  178.4710  142.4830 O   0  0  0  0  0  0  0  0  0  0  0  0
  185.6120  177.9790  146.5090 C   0  0  1  0  0  3  0  0  0  0  0  0
  184.6300  178.6520  145.5250 C   0  0  0  0  0  2  0  0  0  0  0  0
  184.9370  178.3200  144.0680 C   0  0  2  0  0  3  0  0  0  0  0  0
  187.1610  177.2250  144.5800 C   0  0  0  0  0  2  0  0  0  0  0  0
  186.4550  178.3580  143.8340 C   0  0  1  0  0  3  0  0  0  0  0  0
  186.4260  176.8280  145.8770 C   0  0  0  0  0  2  0  0  0  0  0  0
  185.8870  178.0020  141.6000 C   0  0  0  0  0  2  0  0  0  0  0  0
  184.6360  178.8980  141.6500 C   0  0  1  0  0  3  0  0  0  0  0  0
  186.4880  179.0030  147.1730 C   0  0  0  0  0  0  0  0  0  0  0  0
  186.0230  180.0880  147.4820 O   0  0  0  0  0  0  0  0  0  0  0  0
  187.7910  178.7340  147.4540 F   0  0  0  0  0  0  0  0  0  0  0  0
  179.8180  180.3470  141.2780 C   0  0  0  0  0  2  0  0  0  0  0  0
  179.5480  178.9520  141.7910 C   0  0  1  0  0  3  0  0  0  0  0  0
  180.3220  176.7920  141.0850 O   0  0  0  0  0  1  0  0  0  0  0  0
  180.7120  178.1160  141.3060 C   0  0  1  0  0  3  0  0  0  0  0  0
  180.5730  180.1680  139.9760 C   0  0  0  0  0  2  0  0  0  0  0  0
  181.2880  178.8180  140.0390 C   0  0  1  0  0  0  0  0  0  0  0  0
  179.9550  177.8600  144.0070 O   0  0  0  0  0  1  0  0  0  0  0  0
  179.4720  178.9430  143.2810 C   0  0  0  0  0  0  0  0  0  0  0  0
  178.9640  179.9240  143.8840 O   0  0  0  0  0  0  0  0  0  0  0  0
  181.0340  178.0010  138.7430 C   0  0  0  0  0  2  0  0  0  0  0  0
  179.3140  177.7490  136.8960 C   0  0  0  0  0  3  0  0  0  0  0  0
  179.8670  178.5890  134.6950 C   0  0  0  0  0  2  0  0  0  0  0  0
  179.1070  177.7660  135.6210 N   0  0  0  0  0  0  0  0  0  0  0  0
  181.2180  179.4090  136.5900 C   0  0  0  0  0  2  0  0  0  0  0  0
  180.3040  178.6710  137.5670 C   0  0  2  0  0  3  0  0  0  0  0  0
  180.4200  179.8390  135.3710 C   0  0  0  0  0  2  0  0  0  0  0  0
  184.7350  178.5620  138.8580 C   0  0  0  0  0  0  0  0  0  0  0  0
  185.6750  179.0020  138.3460 N   0  0  0  0  0  0  0  0  0  0  0  0
  1 22  1  1  0  0  0
  1  3  1  0  0  0  0
  2 33  1  6  0  0  0
  2  1  1  0  0  0  0
  2  3  1  0  0  0  0
  3 13  1  6  0  0  0
  5 10  1  0  0  0  0
  6 14  1  6  0  0  0
  7  6  1  0  0  0  0
  8  4  1  6  0  0  0
  8  7  1  0  0  0  0
  9 11  1  0  0  0  0
 10  8  1  0  0  0  0
 10  9  1  6  0  0  0
 11  6  1  0  0  0  0
 12  5  1  0  0  0  0
 13 12  1  1  0  0  0
 13  4  1  0  0  0  0
 14 16  1  0  0  0  0
 14 15  2  0  0  0  0
 17 18  1  0  0  0  0
 18 24  1  1  0  0  0
 20 19  1  6  0  0  0
 20 18  1  0  0  0  0
 21 22  1  0  0  0  0
 21 17  1  0  0  0  0
 22 26  1  6  0  0  0
 22 20  1  0  0  0  0
 24 25  2  0  0  0  0
 24 23  1  0  0  0  0
 27 31  1  0  0  0  0
 28 32  1  0  0  0  0
 28 29  1  0  0  0  0
 29 27  2  0  0  0  0
 30 31  1  0  0  0  0
 31 26  1  1  0  0  0
 32 30  1  0  0  0  0
 34 33  3  0  0  0  0
M  END
>  <MODEL>
9

>  <REMARK>
 VINA RESULT:      -5.8      4.370      9.907
  Name = 
  7 active torsions:
  status: ('A' for Active; 'I' for Inactive)
    1  A    between atoms: C_1  and  C_20
    2  A    between atoms: C_1  and  C_34
    3  A    between atoms: N_5  and  C_34
    4  A    between atoms: C_7  and  C_11
    5  A    between atoms: C_8  and  C_18
    6  A    between atoms: C_13  and  C_23
    7  A    between atoms: C_31  and  C_33
                            x       y       z     vdW  Elec       q    Type
                         _______ _______ _______ _____ _____    ______ ____

>  <TORSDO>
F 7

$$$$
