=
 OpenBabel11052416273D

 43 46  0  0  1  0  0  0  0  0999 V2000
  182.5110  177.0560  139.2860 C   0  0  0  0  0  0  0  0  0  0  0  0
  185.0080  178.0610  138.1890 C   0  0  0  0  0  0  0  0  0  0  0  0
  181.3090  174.7330  137.7060 C   0  0  0  0  0  0  0  0  0  0  0  0
  182.3440  175.4520  137.3080 C   0  0  0  0  0  3  0  0  0  0  0  0
  183.9940  177.3870  137.2570 C   0  0  0  0  0  2  0  0  0  0  0  0
  183.1280  176.4510  138.1000 C   0  0  0  0  0  0  0  0  0  0  0  0
  181.2500  176.4250  139.8400 C   0  0  0  0  0  3  0  0  0  0  0  0
  183.3190  177.9970  140.0260 C   0  0  1  0  0  3  0  0  0  0  0  0
  184.6400  178.3560  139.4370 C   0  0  0  0  0  3  0  0  0  0  0  0
  180.7580  175.0900  139.1650 C   0  0  0  0  0  3  0  0  0  0  0  0
  186.3540  178.3130  137.6750 C   0  0  2  0  0  3  0  0  0  0  0  0
  186.4480  177.7120  136.3950 O   0  0  0  0  0  1  0  0  0  0  0  0
  187.2960  177.7160  138.5790 N   0  0  0  0  0  2  0  0  0  0  0  0
  188.6080  178.1110  138.8990 C   0  0  0  0  0  0  0  0  0  0  0  0
  189.0340  179.2770  138.5290 O   0  0  0  0  0  0  0  0  0  0  0  0
  189.4920  177.2240  139.6480 C   0  0  2  0  0  3  0  0  0  0  0  0
  189.5810  177.6260  141.1560 C   0  0  1  0  0  3  0  0  0  0  0  0
  188.4110  178.2870  141.5940 O   0  0  0  0  0  1  0  0  0  0  0  0
  190.0160  176.5690  142.1610 C   0  0  0  0  0  2  0  0  0  0  0  0
  191.0600  177.2040  143.0550 C   0  0  0  0  0  2  0  0  0  0  0  0
  191.8040  176.9510  145.3420 O   0  0  0  0  0  0  0  0  0  0  0  0
  190.7290  177.0310  144.4240 C   0  0  1  0  0  3  0  0  0  0  0  0
  191.2480  176.7870  147.5430 C   0  0  0  0  0  2  0  0  0  0  0  0
  189.0950  177.6590  146.1740 C   0  0  0  0  0  2  0  0  0  0  0  0
  189.7580  176.7640  147.2760 C   0  0  0  0  0  2  0  0  0  0  0  0
  189.4580  177.1820  144.8140 C   0  0  0  0  0  2  0  0  0  0  0  0
  191.8940  176.0930  146.4190 C   0  0  0  0  0  2  0  0  0  0  0  0
  190.6060  176.1020  138.1450 C   0  0  0  0  0  1  0  0  0  0  0  0
  190.7100  177.2170  138.9940 O   0  0  0  0  0  0  0  0  0  0  0  0
  182.8880  178.5870  141.2640 N   0  0  0  0  0  2  0  0  0  0  0  0
  185.6510  178.0990  143.8740 C   0  0  0  0  0  2  0  0  0  0  0  0
  184.9040  178.7160  145.0330 C   0  0  0  0  0  0  0  0  0  0  0  0
  182.8350  178.9710  143.5820 C   0  0  0  0  0  2  0  0  0  0  0  0
  184.8270  177.9670  142.5660 C   0  0  0  0  0  2  0  0  0  0  0  0
  183.7130  178.9930  142.3600 C   0  0  1  0  0  3  0  0  0  0  0  0
  183.6620  179.1620  144.8990 C   0  0  0  0  0  3  0  0  0  0  0  0
  185.6310  178.9820  146.2880 C   0  0  0  0  0  2  0  0  0  0  0  0
  185.1150  178.3590  147.3440 F   0  0  0  0  0  0  0  0  0  0  0  0
  180.8900  173.5450  136.7660 C   0  0  1  0  0  3  0  0  0  0  0  0
  181.8180  172.2010  137.2210 C   0  0  0  0  0  2  0  0  0  0  0  0
  183.5980  171.8830  136.9190 S   0  0  0  0  0  1  0  0  0  0  0  0
  179.3410  172.8310  135.0600 O   0  0  0  0  0  1  0  0  0  0  0  0
  179.4940  173.4180  136.3550 N   0  0  0  0  0  2  0  0  0  0  0  0
  1  7  1  0  0  0  0
  1  8  1  0  0  0  0
  2  9  2  0  0  0  0
  3 10  1  0  0  0  0
  4  3  2  0  0  0  0
  4  6  1  0  0  0  0
  5  6  1  0  0  0  0
  5  2  1  0  0  0  0
  6  1  2  0  0  0  0
  8 30  1  6  0  0  0
  9  8  1  0  0  0  0
 10  7  2  0  0  0  0
 11 12  1  6  0  0  0
 11  2  1  0  0  0  0
 11 13  1  0  0  0  0
 13 14  1  0  0  0  0
 15 14  2  0  0  0  0
 16 14  1  6  0  0  0
 16 17  1  0  0  0  0
 17 18  1  1  0  0  0
 17 19  1  0  0  0  0
 19 20  1  0  0  0  0
 21 27  1  0  0  0  0
 22 20  1  6  0  0  0
 22 26  1  0  0  0  0
 22 21  1  0  0  0  0
 24 25  1  0  0  0  0
 25 23  1  0  0  0  0
 26 24  1  0  0  0  0
 27 23  1  0  0  0  0
 28 29  1  0  0  0  0
 29 16  1  0  0  0  0
 31 32  1  0  0  0  0
 32 37  1  0  0  0  0
 33 36  1  0  0  0  0
 34 31  1  0  0  0  0
 35 30  1  6  0  0  0
 35 34  1  0  0  0  0
 35 33  1  0  0  0  0
 36 32  2  0  0  0  0
 37 38  1  0  0  0  0
 39 40  1  1  0  0  0
 39  3  1  0  0  0  0
 41 40  1  0  0  0  0
 42 43  1  0  0  0  0
 43 39  1  0  0  0  0
M  END
>  <MODEL>
1

>  <REMARK>
 VINA RESULT:      -8.9      0.000      0.000
  Name = 
  14 active torsions:
  status: ('A' for Active; 'I' for Inactive)
    1  A    between atoms: N_1  and  C_34
    2  A    between atoms: N_1  and  C_35
    3  A    between atoms: C_2  and  N_6
    4  A    between atoms: C_2  and  C_13
    5  A    between atoms: C_3  and  C_4
    6  A    between atoms: C_3  and  C_12
    7  A    between atoms: C_3  and  O_42
    8  A    between atoms: C_4  and  C_22
    9  A    between atoms: C_5  and  C_16
   10  A    between atoms: C_5  and  C_18
   11  A    between atoms: C_5  and  N_23
   12  A    between atoms: C_14  and  C_41
   13  A    between atoms: C_19  and  C_25
   14  A    between atoms: C_22  and  C_41
                            x       y       z     vdW  Elec       q    Type
                         _______ _______ _______ _____ _____    ______ ____

>  <TORSDO>
F 14

$$$$
=
 OpenBabel11052416273D

 43 46  0  0  1  0  0  0  0  0999 V2000
  190.7940  177.2180  139.4400 C   0  0  0  0  0  0  0  0  0  0  0  0
  188.2570  177.5570  138.0640 C   0  0  0  0  0  0  0  0  0  0  0  0
  193.0810  176.3220  137.6220 C   0  0  0  0  0  0  0  0  0  0  0  0
  191.8130  176.3820  137.2560 C   0  0  0  0  0  3  0  0  0  0  0  0
  189.2890  176.5680  137.5070 C   0  0  0  0  0  2  0  0  0  0  0  0
  190.6710  177.0050  137.9930 C   0  0  0  0  0  0  0  0  0  0  0  0
  192.1670  177.0960  140.0690 C   0  0  0  0  0  3  0  0  0  0  0  0
  189.6710  177.8430  140.1000 C   0  0  1  0  0  3  0  0  0  0  0  0
  188.4560  178.0850  139.2720 C   0  0  0  0  0  3  0  0  0  0  0  0
  193.3840  176.8630  139.0980 C   0  0  0  0  0  3  0  0  0  0  0  0
  187.1150  177.9080  137.2200 C   0  0  2  0  0  3  0  0  0  0  0  0
  187.5640  178.8390  136.2500 O   0  0  0  0  0  1  0  0  0  0  0  0
  186.1080  178.4990  138.0540 N   0  0  0  0  0  2  0  0  0  0  0  0
  184.7970  178.0650  138.3240 C   0  0  0  0  0  0  0  0  0  0  0  0
  184.4330  176.8710  137.9770 O   0  0  0  0  0  0  0  0  0  0  0  0
  183.8450  178.9430  138.9960 C   0  0  2  0  0  3  0  0  0  0  0  0
  183.6490  178.5520  140.4970 C   0  0  1  0  0  3  0  0  0  0  0  0
  182.9490  177.3320  140.6360 O   0  0  0  0  0  1  0  0  0  0  0  0
  184.8600  178.5900  141.4180 C   0  0  0  0  0  2  0  0  0  0  0  0
  184.3630  178.9760  142.7960 C   0  0  0  0  0  2  0  0  0  0  0  0
  184.8620  178.6780  145.1420 O   0  0  0  0  0  0  0  0  0  0  0  0
  185.2920  178.5900  143.7970 C   0  0  1  0  0  3  0  0  0  0  0  0
  186.3270  177.9490  146.7240 C   0  0  0  0  0  2  0  0  0  0  0  0
  187.0950  176.9800  144.3290 C   0  0  0  0  0  2  0  0  0  0  0  0
  187.4120  177.6210  145.7220 C   0  0  0  0  0  2  0  0  0  0  0  0
  186.4150  177.9570  143.4380 C   0  0  0  0  0  2  0  0  0  0  0  0
  185.6120  179.1270  146.2110 C   0  0  0  0  0  2  0  0  0  0  0  0
  182.1950  180.2350  138.3900 C   0  0  0  0  0  1  0  0  0  0  0  0
  182.6790  178.9230  138.2530 O   0  0  0  0  0  0  0  0  0  0  0  0
  189.6920  178.2090  141.4900 N   0  0  0  0  0  2  0  0  0  0  0  0
  190.8380  175.6670  144.1190 C   0  0  0  0  0  2  0  0  0  0  0  0
  191.2290  176.6750  145.1740 C   0  0  0  0  0  0  0  0  0  0  0  0
  190.3450  178.5610  143.7200 C   0  0  0  0  0  2  0  0  0  0  0  0
  190.1730  176.2740  142.8550 C   0  0  0  0  0  2  0  0  0  0  0  0
  190.5700  177.7070  142.5020 C   0  0  1  0  0  3  0  0  0  0  0  0
  191.0660  177.9770  144.9840 C   0  0  0  0  0  3  0  0  0  0  0  0
  191.9630  176.2100  146.3650 C   0  0  0  0  0  2  0  0  0  0  0  0
  192.4460  174.9760  146.2450 F   0  0  0  0  0  0  0  0  0  0  0  0
  194.1040  175.8900  136.5100 C   0  0  1  0  0  3  0  0  0  0  0  0
  194.0600  174.1970  136.4250 C   0  0  0  0  0  2  0  0  0  0  0  0
  194.7830  173.0960  135.1520 S   0  0  0  0  0  1  0  0  0  0  0  0
  195.1300  177.8340  135.5170 O   0  0  0  0  0  1  0  0  0  0  0  0
  194.2540  176.7210  135.3180 N   0  0  0  0  0  2  0  0  0  0  0  0
  1  7  1  0  0  0  0
  1  8  1  0  0  0  0
  2  9  2  0  0  0  0
  3 10  1  0  0  0  0
  4  3  2  0  0  0  0
  4  6  1  0  0  0  0
  5  6  1  0  0  0  0
  5  2  1  0  0  0  0
  6  1  2  0  0  0  0
  8 30  1  1  0  0  0
  9  8  1  0  0  0  0
 10  7  2  0  0  0  0
 11 12  1  6  0  0  0
 11 13  1  0  0  0  0
 11  2  1  0  0  0  0
 13 14  1  0  0  0  0
 14 16  1  0  0  0  0
 15 14  2  0  0  0  0
 16 29  1  6  0  0  0
 16 17  1  0  0  0  0
 17 18  1  6  0  0  0
 17 19  1  0  0  0  0
 19 20  1  0  0  0  0
 21 27  1  0  0  0  0
 22 20  1  6  0  0  0
 22 21  1  0  0  0  0
 24 25  1  0  0  0  0
 25 23  1  0  0  0  0
 26 22  1  0  0  0  0
 26 24  1  0  0  0  0
 27 23  1  0  0  0  0
 29 28  1  0  0  0  0
 31 32  1  0  0  0  0
 32 37  1  0  0  0  0
 33 36  1  0  0  0  0
 34 31  1  0  0  0  0
 35 30  1  6  0  0  0
 35 34  1  0  0  0  0
 35 33  1  0  0  0  0
 36 32  2  0  0  0  0
 38 37  1  0  0  0  0
 39 40  1  6  0  0  0
 39  3  1  0  0  0  0
 41 40  1  0  0  0  0
 43 42  1  0  0  0  0
 43 39  1  0  0  0  0
M  END
>  <MODEL>
2

>  <REMARK>
 VINA RESULT:      -8.7      3.883      7.934
  Name = 
  14 active torsions:
  status: ('A' for Active; 'I' for Inactive)
    1  A    between atoms: N_1  and  C_34
    2  A    between atoms: N_1  and  C_35
    3  A    between atoms: C_2  and  N_6
    4  A    between atoms: C_2  and  C_13
    5  A    between atoms: C_3  and  C_4
    6  A    between atoms: C_3  and  C_12
    7  A    between atoms: C_3  and  O_42
    8  A    between atoms: C_4  and  C_22
    9  A    between atoms: C_5  and  C_16
   10  A    between atoms: C_5  and  C_18
   11  A    between atoms: C_5  and  N_23
   12  A    between atoms: C_14  and  C_41
   13  A    between atoms: C_19  and  C_25
   14  A    between atoms: C_22  and  C_41
                            x       y       z     vdW  Elec       q    Type
                         _______ _______ _______ _____ _____    ______ ____

>  <TORSDO>
F 14

$$$$
=
 OpenBabel11052416273D

 43 46  0  0  1  0  0  0  0  0999 V2000
  187.6710  178.2140  142.1630 C   0  0  0  0  0  0  0  0  0  0  0  0
  185.3850  178.9170  140.5130 C   0  0  0  0  0  0  0  0  0  0  0  0
  186.9840  177.7620  145.1070 C   0  0  0  0  0  0  0  0  0  0  0  0
  186.1450  178.2460  144.2080 C   0  0  0  0  0  3  0  0  0  0  0  0
  185.3680  179.2580  142.0080 C   0  0  0  0  0  2  0  0  0  0  0  0
  186.3170  178.2970  142.7220 C   0  0  0  0  0  0  0  0  0  0  0  0
  188.7970  177.7670  143.0740 C   0  0  0  0  0  3  0  0  0  0  0  0
  187.7800  178.2460  140.7230 C   0  0  1  0  0  3  0  0  0  0  0  0
  186.5230  178.4940  139.9620 C   0  0  0  0  0  3  0  0  0  0  0  0
  188.4070  177.3100  144.5290 C   0  0  0  0  0  3  0  0  0  0  0  0
  184.1330  179.0330  139.7660 C   0  0  2  0  0  3  0  0  0  0  0  0
  184.2040  180.2120  138.9820 O   0  0  0  0  0  1  0  0  0  0  0  0
  183.0570  179.1240  140.7110 N   0  0  0  0  0  2  0  0  0  0  0  0
  181.8500  178.4020  140.7690 C   0  0  0  0  0  0  0  0  0  0  0  0
  181.6950  177.3510  140.0290 O   0  0  0  0  0  0  0  0  0  0  0  0
  180.7730  178.8220  141.6590 C   0  0  2  0  0  3  0  0  0  0  0  0
  179.8010  179.8310  140.9650 C   0  0  1  0  0  3  0  0  0  0  0  0
  179.7050  181.0460  141.6810 O   0  0  0  0  0  1  0  0  0  0  0  0
  179.9720  180.0910  139.4750 C   0  0  0  0  0  2  0  0  0  0  0  0
  180.4930  181.5050  139.3240 C   0  0  0  0  0  2  0  0  0  0  0  0
  180.9060  183.2280  137.6790 O   0  0  0  0  0  0  0  0  0  0  0  0
  180.4310  181.9270  137.9710 C   0  0  1  0  0  3  0  0  0  0  0  0
  180.9010  183.8410  135.4870 C   0  0  0  0  0  2  0  0  0  0  0  0
  180.6740  181.1590  135.6300 C   0  0  0  0  0  2  0  0  0  0  0  0
  180.2810  182.5440  135.0140 C   0  0  0  0  0  2  0  0  0  0  0  0
  180.1560  181.0290  137.0180 C   0  0  0  0  0  2  0  0  0  0  0  0
  180.3290  184.1310  136.8100 C   0  0  0  0  0  2  0  0  0  0  0  0
  180.7320  178.5760  143.8260 C   0  0  0  0  0  1  0  0  0  0  0  0
  181.3640  179.3120  142.8100 O   0  0  0  0  0  0  0  0  0  0  0  0
  189.0280  178.0680  140.0340 N   0  0  0  0  0  2  0  0  0  0  0  0
  191.2820  175.6180  138.1340 C   0  0  0  0  0  2  0  0  0  0  0  0
  190.8490  176.0260  136.7460 C   0  0  0  0  0  0  0  0  0  0  0  0
  189.4200  177.8850  137.7240 C   0  0  0  0  0  2  0  0  0  0  0  0
  190.6830  176.4750  139.2810 C   0  0  0  0  0  2  0  0  0  0  0  0
  189.3200  177.1110  139.0100 C   0  0  1  0  0  3  0  0  0  0  0  0
  189.9710  177.0020  136.5520 C   0  0  0  0  0  3  0  0  0  0  0  0
  191.2790  175.2080  135.5970 C   0  0  0  0  0  2  0  0  0  0  0  0
  192.5980  175.0560  135.5160 F   0  0  0  0  0  0  0  0  0  0  0  0
  186.4050  177.5540  146.5530 C   0  0  1  0  0  3  0  0  0  0  0  0
  187.7110  177.1600  147.5590 C   0  0  0  0  0  2  0  0  0  0  0  0
  188.8150  178.2850  148.4940 S   0  0  0  0  0  1  0  0  0  0  0  0
  185.7090  179.7400  147.2980 O   0  0  0  0  0  1  0  0  0  0  0  0
  185.3040  178.3990  147.0080 N   0  0  0  0  0  2  0  0  0  0  0  0
  1  6  2  0  0  0  0
  1  7  1  0  0  0  0
  2  5  1  0  0  0  0
  3 39  1  0  0  0  0
  4  3  2  0  0  0  0
  5  6  1  0  0  0  0
  6  4  1  0  0  0  0
  7 10  2  0  0  0  0
  8 30  1  1  0  0  0
  8  1  1  0  0  0  0
  9  2  2  0  0  0  0
  9  8  1  0  0  0  0
 10  3  1  0  0  0  0
 11 12  1  1  0  0  0
 11  2  1  0  0  0  0
 11 13  1  0  0  0  0
 13 14  1  0  0  0  0
 15 14  2  0  0  0  0
 16 14  1  6  0  0  0
 16 29  1  0  0  0  0
 17 16  1  0  0  0  0
 17 18  1  1  0  0  0
 19 17  1  0  0  0  0
 20 19  1  0  0  0  0
 21 22  1  0  0  0  0
 22 20  1  1  0  0  0
 23 27  1  0  0  0  0
 24 26  1  0  0  0  0
 25 23  1  0  0  0  0
 25 24  1  0  0  0  0
 26 22  1  0  0  0  0
 27 21  1  0  0  0  0
 29 28  1  0  0  0  0
 31 34  1  0  0  0  0
 32 31  1  0  0  0  0
 33 35  1  0  0  0  0
 35 34  1  0  0  0  0
 35 30  1  1  0  0  0
 36 32  2  0  0  0  0
 36 33  1  0  0  0  0
 37 32  1  0  0  0  0
 38 37  1  0  0  0  0
 39 43  1  0  0  0  0
 39 40  1  1  0  0  0
 40 41  1  0  0  0  0
 43 42  1  0  0  0  0
M  END
>  <MODEL>
3

>  <REMARK>
 VINA RESULT:      -8.3      5.073     10.565
  Name = 
  14 active torsions:
  status: ('A' for Active; 'I' for Inactive)
    1  A    between atoms: N_1  and  C_34
    2  A    between atoms: N_1  and  C_35
    3  A    between atoms: C_2  and  N_6
    4  A    between atoms: C_2  and  C_13
    5  A    between atoms: C_3  and  C_4
    6  A    between atoms: C_3  and  C_12
    7  A    between atoms: C_3  and  O_42
    8  A    between atoms: C_4  and  C_22
    9  A    between atoms: C_5  and  C_16
   10  A    between atoms: C_5  and  C_18
   11  A    between atoms: C_5  and  N_23
   12  A    between atoms: C_14  and  C_41
   13  A    between atoms: C_19  and  C_25
   14  A    between atoms: C_22  and  C_41
                            x       y       z     vdW  Elec       q    Type
                         _______ _______ _______ _____ _____    ______ ____

>  <TORSDO>
F 14

$$$$
=
 OpenBabel11052416273D

 43 46  0  0  1  0  0  0  0  0999 V2000
  186.9640  178.0680  142.5830 C   0  0  0  0  0  0  0  0  0  0  0  0
  188.4580  178.0740  140.0910 C   0  0  0  0  0  0  0  0  0  0  0  0
  188.6710  177.4960  145.0530 C   0  0  0  0  0  0  0  0  0  0  0  0
  189.0970  177.3880  143.8060 C   0  0  0  0  0  3  0  0  0  0  0  0
  188.9650  177.2350  141.2710 C   0  0  0  0  0  2  0  0  0  0  0  0
  188.4150  177.8500  142.5580 C   0  0  0  0  0  0  0  0  0  0  0  0
  186.2710  178.1270  143.9300 C   0  0  0  0  0  3  0  0  0  0  0  0
  186.3580  178.5350  141.3580 C   0  0  1  0  0  3  0  0  0  0  0  0
  187.2430  178.6170  140.1620 C   0  0  0  0  0  3  0  0  0  0  0  0
  187.1830  178.0640  145.2110 C   0  0  0  0  0  3  0  0  0  0  0  0
  189.3560  178.2740  138.9540 C   0  0  2  0  0  3  0  0  0  0  0  0
  188.8980  179.4070  138.2350 O   0  0  0  0  0  1  0  0  0  0  0  0
  189.3000  177.1010  138.1300 N   0  0  0  0  0  2  0  0  0  0  0  0
  190.1850  176.0090  138.0610 C   0  0  0  0  0  0  0  0  0  0  0  0
  191.0910  175.8600  138.9740 O   0  0  0  0  0  0  0  0  0  0  0  0
  190.0900  175.0390  136.9750 C   0  0  2  0  0  3  0  0  0  0  0  0
  188.6640  175.0200  136.3330 C   0  0  1  0  0  3  0  0  0  0  0  0
  188.6970  175.3880  134.9680 O   0  0  0  0  0  1  0  0  0  0  0  0
  187.7930  173.7910  136.5430 C   0  0  0  0  0  2  0  0  0  0  0  0
  186.7270  173.8070  135.4660 C   0  0  0  0  0  2  0  0  0  0  0  0
  185.1710  174.2370  137.2660 O   0  0  0  0  0  0  0  0  0  0  0  0
  185.5550  174.4640  135.9230 C   0  0  1  0  0  3  0  0  0  0  0  0
  183.3530  175.3870  138.0090 C   0  0  0  0  0  2  0  0  0  0  0  0
  184.2520  176.5610  135.7550 C   0  0  0  0  0  2  0  0  0  0  0  0
  183.0920  176.0480  136.6730 C   0  0  0  0  0  2  0  0  0  0  0  0
  185.0070  175.4230  135.1680 C   0  0  0  0  0  2  0  0  0  0  0  0
  183.8840  174.0460  137.7260 C   0  0  0  0  0  2  0  0  0  0  0  0
  191.4580  173.3940  136.5530 C   0  0  0  0  0  1  0  0  0  0  0  0
  190.4940  173.8180  137.4830 O   0  0  0  0  0  0  0  0  0  0  0  0
  184.9690  178.8930  141.2640 N   0  0  0  0  0  2  0  0  0  0  0  0
  182.5830  179.3340  138.2980 C   0  0  0  0  0  2  0  0  0  0  0  0
  181.4620  178.4870  138.8510 C   0  0  0  0  0  0  0  0  0  0  0  0
  182.7370  178.1970  141.0290 C   0  0  0  0  0  2  0  0  0  0  0  0
  183.7760  179.5470  139.2670 C   0  0  0  0  0  2  0  0  0  0  0  0
  184.0250  178.4390  140.2900 C   0  0  1  0  0  3  0  0  0  0  0  0
  181.5430  177.9250  140.0500 C   0  0  0  0  0  3  0  0  0  0  0  0
  180.3320  178.1380  137.9710 C   0  0  0  0  0  2  0  0  0  0  0  0
  180.5080  178.5080  136.7050 F   0  0  0  0  0  0  0  0  0  0  0  0
  189.7340  177.2100  146.1750 C   0  0  1  0  0  3  0  0  0  0  0  0
  188.8750  176.8350  147.5880 C   0  0  0  0  0  2  0  0  0  0  0  0
  188.1300  177.9780  148.8110 S   0  0  0  0  0  1  0  0  0  0  0  0
  192.0540  176.8320  146.7150 O   0  0  0  0  0  1  0  0  0  0  0  0
  190.9780  176.5310  145.8220 N   0  0  0  0  0  2  0  0  0  0  0  0
  1  7  1  0  0  0  0
  2  9  2  0  0  0  0
  2  5  1  0  0  0  0
  3 10  1  0  0  0  0
  3 39  1  0  0  0  0
  4  3  2  0  0  0  0
  5  6  1  0  0  0  0
  6  1  2  0  0  0  0
  6  4  1  0  0  0  0
  7 10  2  0  0  0  0
  8 30  1  6  0  0  0
  8  1  1  0  0  0  0
  9  8  1  0  0  0  0
 11 12  1  6  0  0  0
 11  2  1  0  0  0  0
 13 11  1  0  0  0  0
 14 13  1  0  0  0  0
 14 15  2  0  0  0  0
 16 29  1  1  0  0  0
 16 14  1  0  0  0  0
 17 18  1  6  0  0  0
 17 19  1  0  0  0  0
 17 16  1  0  0  0  0
 20 19  1  0  0  0  0
 21 27  1  0  0  0  0
 22 20  1  1  0  0  0
 22 21  1  0  0  0  0
 24 25  1  0  0  0  0
 25 23  1  0  0  0  0
 26 24  1  0  0  0  0
 26 22  1  0  0  0  0
 27 23  1  0  0  0  0
 28 29  1  0  0  0  0
 31 32  1  0  0  0  0
 31 34  1  0  0  0  0
 32 36  2  0  0  0  0
 34 35  1  0  0  0  0
 35 33  1  0  0  0  0
 35 30  1  1  0  0  0
 36 33  1  0  0  0  0
 37 32  1  0  0  0  0
 38 37  1  0  0  0  0
 39 40  1  1  0  0  0
 40 41  1  0  0  0  0
 43 39  1  0  0  0  0
 43 42  1  0  0  0  0
M  END
>  <MODEL>
4

>  <REMARK>
 VINA RESULT:      -8.1      3.761      8.646
  Name = 
  14 active torsions:
  status: ('A' for Active; 'I' for Inactive)
    1  A    between atoms: N_1  and  C_34
    2  A    between atoms: N_1  and  C_35
    3  A    between atoms: C_2  and  N_6
    4  A    between atoms: C_2  and  C_13
    5  A    between atoms: C_3  and  C_4
    6  A    between atoms: C_3  and  C_12
    7  A    between atoms: C_3  and  O_42
    8  A    between atoms: C_4  and  C_22
    9  A    between atoms: C_5  and  C_16
   10  A    between atoms: C_5  and  C_18
   11  A    between atoms: C_5  and  N_23
   12  A    between atoms: C_14  and  C_41
   13  A    between atoms: C_19  and  C_25
   14  A    between atoms: C_22  and  C_41
                            x       y       z     vdW  Elec       q    Type
                         _______ _______ _______ _____ _____    ______ ____

>  <TORSDO>
F 14

$$$$
=
 OpenBabel11052416273D

 43 46  0  0  1  0  0  0  0  0999 V2000
  189.7480  176.3090  137.0580 C   0  0  0  0  0  0  0  0  0  0  0  0
  188.5610  177.4820  139.4380 C   0  0  0  0  0  0  0  0  0  0  0  0
  192.6990  175.5790  137.3740 C   0  0  0  0  0  0  0  0  0  0  0  0
  191.9990  176.2690  138.2580 C   0  0  0  0  0  3  0  0  0  0  0  0
  190.0680  177.6330  139.1950 C   0  0  0  0  0  2  0  0  0  0  0  0
  190.5190  176.4840  138.2940 C   0  0  0  0  0  0  0  0  0  0  0  0
  190.4170  175.6190  135.8860 C   0  0  0  0  0  3  0  0  0  0  0  0
  188.3200  176.5060  137.1530 C   0  0  1  0  0  3  0  0  0  0  0  0
  187.7970  176.9970  138.4590 C   0  0  0  0  0  3  0  0  0  0  0  0
  191.8600  175.0350  136.1250 C   0  0  0  0  0  3  0  0  0  0  0  0
  188.0380  177.8390  140.7560 C   0  0  2  0  0  3  0  0  0  0  0  0
  187.3680  179.0830  140.6320 O   0  0  0  0  0  1  0  0  0  0  0  0
  189.1460  177.9540  141.6600 N   0  0  0  0  0  2  0  0  0  0  0  0
  189.5020  177.1430  142.7530 C   0  0  0  0  0  0  0  0  0  0  0  0
  188.9220  175.9960  142.9150 O   0  0  0  0  0  0  0  0  0  0  0  0
  190.5200  177.5770  143.7030 C   0  0  2  0  0  3  0  0  0  0  0  0
  190.2970  176.9590  145.1220 C   0  0  1  0  0  3  0  0  0  0  0  0
  191.4890  176.4160  145.6530 O   0  0  0  0  0  1  0  0  0  0  0  0
  189.5680  177.7910  146.1670 C   0  0  0  0  0  2  0  0  0  0  0  0
  188.3380  177.0110  146.5830 C   0  0  0  0  0  2  0  0  0  0  0  0
  186.7100  177.2750  144.8160 O   0  0  0  0  0  0  0  0  0  0  0  0
  187.1560  177.6370  146.1090 C   0  0  1  0  0  3  0  0  0  0  0  0
  184.7530  178.2060  144.1210 C   0  0  0  0  0  2  0  0  0  0  0  0
  184.9310  178.4740  146.7970 C   0  0  0  0  0  2  0  0  0  0  0  0
  184.5740  179.0300  145.3770 C   0  0  0  0  0  2  0  0  0  0  0  0
  186.4020  178.3420  146.9610 C   0  0  0  0  0  2  0  0  0  0  0  0
  186.1970  178.1300  143.8610 C   0  0  0  0  0  2  0  0  0  0  0  0
  191.8780  179.2690  143.9290 C   0  0  0  0  0  1  0  0  0  0  0  0
  190.5290  178.9590  143.6870 O   0  0  0  0  0  0  0  0  0  0  0  0
  187.4270  176.2660  136.0530 N   0  0  0  0  0  2  0  0  0  0  0  0
  184.0800  174.5030  136.6660 C   0  0  0  0  0  2  0  0  0  0  0  0
  184.6530  173.1300  136.9250 C   0  0  0  0  0  0  0  0  0  0  0  0
  187.0090  174.0710  136.7810 C   0  0  0  0  0  2  0  0  0  0  0  0
  185.1370  175.6250  136.4780 C   0  0  0  0  0  2  0  0  0  0  0  0
  186.4920  175.1920  135.9190 C   0  0  1  0  0  3  0  0  0  0  0  0
  185.9620  172.9130  136.9220 C   0  0  0  0  0  3  0  0  0  0  0  0
  183.7360  171.9800  137.0120 C   0  0  0  0  0  2  0  0  0  0  0  0
  184.2210  170.8690  136.4640 F   0  0  0  0  0  0  0  0  0  0  0  0
  194.1880  175.2640  137.7640 C   0  0  1  0  0  3  0  0  0  0  0  0
  195.1170  175.4340  136.3550 C   0  0  0  0  0  2  0  0  0  0  0  0
  195.1220  176.8120  135.1470 S   0  0  0  0  0  1  0  0  0  0  0  0
  195.7070  174.8170  139.5840 O   0  0  0  0  0  1  0  0  0  0  0  0
  194.6860  175.6790  139.0730 N   0  0  0  0  0  2  0  0  0  0  0  0
  1  8  1  0  0  0  0
  1  6  1  0  0  0  0
  2 11  1  0  0  0  0
  3 39  1  0  0  0  0
  3  4  1  0  0  0  0
  4  6  2  0  0  0  0
  5  2  1  0  0  0  0
  6  5  1  0  0  0  0
  7 10  1  0  0  0  0
  7  1  2  0  0  0  0
  8 30  1  6  0  0  0
  8  9  1  0  0  0  0
  9  2  2  0  0  0  0
 10  3  2  0  0  0  0
 11 12  1  6  0  0  0
 11 13  1  0  0  0  0
 13 14  1  0  0  0  0
 14 15  2  0  0  0  0
 16 14  1  6  0  0  0
 16 17  1  0  0  0  0
 17 18  1  1  0  0  0
 17 19  1  0  0  0  0
 19 20  1  0  0  0  0
 21 22  1  0  0  0  0
 22 20  1  1  0  0  0
 22 26  1  0  0  0  0
 23 25  1  0  0  0  0
 24 26  1  0  0  0  0
 25 24  1  0  0  0  0
 27 23  1  0  0  0  0
 27 21  1  0  0  0  0
 29 16  1  0  0  0  0
 29 28  1  0  0  0  0
 31 32  1  0  0  0  0
 32 37  1  0  0  0  0
 33 36  1  0  0  0  0
 34 31  1  0  0  0  0
 35 30  1  1  0  0  0
 35 34  1  0  0  0  0
 35 33  1  0  0  0  0
 36 32  2  0  0  0  0
 38 37  1  0  0  0  0
 39 40  1  6  0  0  0
 39 43  1  0  0  0  0
 41 40  1  0  0  0  0
 43 42  1  0  0  0  0
M  END
>  <MODEL>
5

>  <REMARK>
 VINA RESULT:      -8.1      4.347      8.418
  Name = 
  14 active torsions:
  status: ('A' for Active; 'I' for Inactive)
    1  A    between atoms: N_1  and  C_34
    2  A    between atoms: N_1  and  C_35
    3  A    between atoms: C_2  and  N_6
    4  A    between atoms: C_2  and  C_13
    5  A    between atoms: C_3  and  C_4
    6  A    between atoms: C_3  and  C_12
    7  A    between atoms: C_3  and  O_42
    8  A    between atoms: C_4  and  C_22
    9  A    between atoms: C_5  and  C_16
   10  A    between atoms: C_5  and  C_18
   11  A    between atoms: C_5  and  N_23
   12  A    between atoms: C_14  and  C_41
   13  A    between atoms: C_19  and  C_25
   14  A    between atoms: C_22  and  C_41
                            x       y       z     vdW  Elec       q    Type
                         _______ _______ _______ _____ _____    ______ ____

>  <TORSDO>
F 14

$$$$
=
 OpenBabel11052416273D

 43 46  0  0  1  0  0  0  0  0999 V2000
  187.0700  178.1310  143.0220 C   0  0  0  0  0  0  0  0  0  0  0  0
  184.2640  178.7510  143.4560 C   0  0  0  0  0  0  0  0  0  0  0  0
  187.8940  178.1030  140.0790 C   0  0  0  0  0  0  0  0  0  0  0  0
  186.6470  178.1970  140.5070 C   0  0  0  0  0  3  0  0  0  0  0  0
  184.6970  178.1000  142.1360 C   0  0  0  0  0  2  0  0  0  0  0  0
  186.1690  178.4350  141.9040 C   0  0  0  0  0  0  0  0  0  0  0  0
  188.5360  177.8940  142.7180 C   0  0  0  0  0  3  0  0  0  0  0  0
  186.5680  178.4000  144.3500 C   0  0  1  0  0  3  0  0  0  0  0  0
  185.1450  178.8310  144.4530 C   0  0  0  0  0  3  0  0  0  0  0  0
  189.0060  178.1080  141.2310 C   0  0  0  0  0  3  0  0  0  0  0  0
  182.9100  179.2940  143.5440 C   0  0  2  0  0  3  0  0  0  0  0  0
  182.2330  178.6040  144.5810 O   0  0  0  0  0  1  0  0  0  0  0  0
  182.2570  179.0720  142.2850 N   0  0  0  0  0  2  0  0  0  0  0  0
  181.0010  179.5180  141.8340 C   0  0  0  0  0  0  0  0  0  0  0  0
  180.3660  180.4280  142.5010 O   0  0  0  0  0  0  0  0  0  0  0  0
  180.4090  178.9690  140.6180 C   0  0  2  0  0  3  0  0  0  0  0  0
  180.1810  177.4260  140.7240 C   0  0  1  0  0  3  0  0  0  0  0  0
  178.9310  177.1180  141.3100 O   0  0  0  0  0  1  0  0  0  0  0  0
  180.4260  176.5720  139.4890 C   0  0  0  0  0  2  0  0  0  0  0  0
  181.5080  175.5730  139.8420 C   0  0  0  0  0  2  0  0  0  0  0  0
  182.7510  174.6730  137.9740 O   0  0  0  0  0  0  0  0  0  0  0  0
  182.6100  175.6840  138.9550 C   0  0  1  0  0  3  0  0  0  0  0  0
  184.4590  174.9300  136.4920 C   0  0  0  0  0  2  0  0  0  0  0  0
  184.0010  177.2980  137.6960 C   0  0  0  0  0  2  0  0  0  0  0  0
  184.9680  176.2020  137.1350 C   0  0  0  0  0  2  0  0  0  0  0  0
  183.3140  176.8210  138.9250 C   0  0  0  0  0  2  0  0  0  0  0  0
  183.9340  174.0850  137.5740 C   0  0  0  0  0  2  0  0  0  0  0  0
  180.6800  180.5840  139.1770 C   0  0  0  0  0  1  0  0  0  0  0  0
  181.2210  179.3470  139.5640 O   0  0  0  0  0  0  0  0  0  0  0  0
  187.3740  178.2520  145.5300 N   0  0  0  0  0  2  0  0  0  0  0  0
  189.9290  176.3200  147.6340 C   0  0  0  0  0  2  0  0  0  0  0  0
  191.1080  176.5370  146.7160 C   0  0  0  0  0  0  0  0  0  0  0  0
  189.6970  178.0460  145.2380 C   0  0  0  0  0  2  0  0  0  0  0  0
  188.6340  177.0670  147.2180 C   0  0  0  0  0  2  0  0  0  0  0  0
  188.4600  177.3400  145.7250 C   0  0  1  0  0  3  0  0  0  0  0  0
  191.0020  177.2610  145.6100 C   0  0  0  0  0  3  0  0  0  0  0  0
  192.3530  175.7870  146.9660 C   0  0  0  0  0  2  0  0  0  0  0  0
  192.5170  175.4370  148.2390 F   0  0  0  0  0  0  0  0  0  0  0  0
  188.0980  178.1670  138.5220 C   0  0  1  0  0  3  0  0  0  0  0  0
  188.9210  176.7550  138.0710 C   0  0  0  0  0  2  0  0  0  0  0  0
  190.6510  176.2730  138.4360 S   0  0  0  0  0  1  0  0  0  0  0  0
  187.5390  179.7570  136.7960 O   0  0  0  0  0  1  0  0  0  0  0  0
  187.0510  178.7520  137.6890 N   0  0  0  0  0  2  0  0  0  0  0  0
  1  8  1  0  0  0  0
  2 11  1  0  0  0  0
  2  9  2  0  0  0  0
  3  4  2  0  0  0  0
  3 10  1  0  0  0  0
  4  6  1  0  0  0  0
  5  2  1  0  0  0  0
  6  5  1  0  0  0  0
  6  1  2  0  0  0  0
  7  1  1  0  0  0  0
  8  9  1  0  0  0  0
  8 30  1  1  0  0  0
 10  7  2  0  0  0  0
 11 12  1  1  0  0  0
 13 11  1  0  0  0  0
 14 13  1  0  0  0  0
 14 15  2  0  0  0  0
 16 29  1  6  0  0  0
 16 17  1  0  0  0  0
 16 14  1  0  0  0  0
 17 18  1  6  0  0  0
 19 20  1  0  0  0  0
 19 17  1  0  0  0  0
 21 22  1  0  0  0  0
 22 20  1  6  0  0  0
 23 25  1  0  0  0  0
 23 27  1  0  0  0  0
 24 26  1  0  0  0  0
 25 24  1  0  0  0  0
 26 22  1  0  0  0  0
 27 21  1  0  0  0  0
 28 29  1  0  0  0  0
 32 37  1  0  0  0  0
 32 31  1  0  0  0  0
 33 36  1  0  0  0  0
 33 35  1  0  0  0  0
 34 31  1  0  0  0  0
 35 30  1  1  0  0  0
 35 34  1  0  0  0  0
 36 32  2  0  0  0  0
 37 38  1  0  0  0  0
 39 40  1  6  0  0  0
 39  3  1  0  0  0  0
 40 41  1  0  0  0  0
 42 43  1  0  0  0  0
 43 39  1  0  0  0  0
M  END
>  <MODEL>
6

>  <REMARK>
 VINA RESULT:      -7.8      3.407      8.536
  Name = 
  14 active torsions:
  status: ('A' for Active; 'I' for Inactive)
    1  A    between atoms: N_1  and  C_34
    2  A    between atoms: N_1  and  C_35
    3  A    between atoms: C_2  and  N_6
    4  A    between atoms: C_2  and  C_13
    5  A    between atoms: C_3  and  C_4
    6  A    between atoms: C_3  and  C_12
    7  A    between atoms: C_3  and  O_42
    8  A    between atoms: C_4  and  C_22
    9  A    between atoms: C_5  and  C_16
   10  A    between atoms: C_5  and  C_18
   11  A    between atoms: C_5  and  N_23
   12  A    between atoms: C_14  and  C_41
   13  A    between atoms: C_19  and  C_25
   14  A    between atoms: C_22  and  C_41
                            x       y       z     vdW  Elec       q    Type
                         _______ _______ _______ _____ _____    ______ ____

>  <TORSDO>
F 14

$$$$
=
 OpenBabel11052416273D

 43 46  0  0  1  0  0  0  0  0999 V2000
  186.6510  178.0960  143.3140 C   0  0  0  0  0  0  0  0  0  0  0  0
  188.2570  177.9000  140.8990 C   0  0  0  0  0  0  0  0  0  0  0  0
  188.2070  177.5500  145.8860 C   0  0  0  0  0  0  0  0  0  0  0  0
  188.6840  177.3590  144.6680 C   0  0  0  0  0  3  0  0  0  0  0  0
  188.6600  177.0930  142.1400 C   0  0  0  0  0  2  0  0  0  0  0  0
  188.0870  177.7970  143.3690 C   0  0  0  0  0  0  0  0  0  0  0  0
  185.9010  178.2570  144.6210 C   0  0  0  0  0  3  0  0  0  0  0  0
  186.1300  178.5360  142.0400 C   0  0  1  0  0  3  0  0  0  0  0  0
  187.0720  178.5120  140.8860 C   0  0  0  0  0  3  0  0  0  0  0  0
  186.7490  178.2050  145.9470 C   0  0  0  0  0  3  0  0  0  0  0  0
  189.2160  177.9970  139.7990 C   0  0  2  0  0  3  0  0  0  0  0  0
  189.0550  179.2680  139.1940 O   0  0  0  0  0  1  0  0  0  0  0  0
  188.9220  176.9530  138.8590 N   0  0  0  0  0  2  0  0  0  0  0  0
  189.5830  176.6070  137.6660 C   0  0  0  0  0  0  0  0  0  0  0  0
  190.7460  177.1140  137.4070 O   0  0  0  0  0  0  0  0  0  0  0  0
  188.9740  175.6780  136.7190 C   0  0  2  0  0  3  0  0  0  0  0  0
  189.6170  174.2540  136.8030 C   0  0  1  0  0  3  0  0  0  0  0  0
  190.6120  174.1850  137.8040 O   0  0  0  0  0  1  0  0  0  0  0  0
  188.6930  173.0480  136.8720 C   0  0  0  0  0  2  0  0  0  0  0  0
  187.8170  173.0830  135.6360 C   0  0  0  0  0  2  0  0  0  0  0  0
  186.0560  171.4270  135.6610 O   0  0  0  0  0  0  0  0  0  0  0  0
  186.4760  172.7460  135.9550 C   0  0  1  0  0  3  0  0  0  0  0  0
  183.9370  170.8750  136.2830 C   0  0  0  0  0  2  0  0  0  0  0  0
  184.6700  173.1040  137.6090 C   0  0  0  0  0  2  0  0  0  0  0  0
  183.6200  172.2550  136.8170 C   0  0  0  0  0  2  0  0  0  0  0  0
  185.7530  173.5820  136.7100 C   0  0  0  0  0  2  0  0  0  0  0  0
  184.8350  171.0580  135.1330 C   0  0  0  0  0  2  0  0  0  0  0  0
  187.7700  176.7920  135.2820 C   0  0  0  0  0  1  0  0  0  0  0  0
  189.0570  176.2600  135.4680 O   0  0  0  0  0  0  0  0  0  0  0  0
  184.7700  178.9640  141.8630 N   0  0  0  0  0  2  0  0  0  0  0  0
  182.7310  179.1680  138.6250 C   0  0  0  0  0  2  0  0  0  0  0  0
  181.4340  178.6540  139.2040 C   0  0  0  0  0  0  0  0  0  0  0  0
  182.4700  178.6170  141.5240 C   0  0  0  0  0  2  0  0  0  0  0  0
  183.8690  179.3770  139.6590 C   0  0  0  0  0  2  0  0  0  0  0  0
  183.8310  178.4810  140.8970 C   0  0  1  0  0  3  0  0  0  0  0  0
  181.3220  178.3490  140.4900 C   0  0  0  0  0  3  0  0  0  0  0  0
  180.3270  178.3220  138.2890 C   0  0  0  0  0  2  0  0  0  0  0  0
  180.2880  179.0870  137.2010 F   0  0  0  0  0  0  0  0  0  0  0  0
  189.2000  177.2600  147.0710 C   0  0  1  0  0  3  0  0  0  0  0  0
  190.6990  176.8750  146.3790 C   0  0  0  0  0  2  0  0  0  0  0  0
  191.9960  175.7480  147.0140 S   0  0  0  0  0  1  0  0  0  0  0  0
  187.9560  177.6890  149.0930 O   0  0  0  0  0  1  0  0  0  0  0  0
  189.0920  178.0440  148.2990 N   0  0  0  0  0  2  0  0  0  0  0  0
  1  6  2  0  0  0  0
  1  7  1  0  0  0  0
  2  5  1  0  0  0  0
  3 10  1  0  0  0  0
  3 39  1  0  0  0  0
  4  3  2  0  0  0  0
  5  6  1  0  0  0  0
  6  4  1  0  0  0  0
  7 10  2  0  0  0  0
  8 30  1  6  0  0  0
  8  1  1  0  0  0  0
  9  2  2  0  0  0  0
  9  8  1  0  0  0  0
 11 12  1  6  0  0  0
 11  2  1  0  0  0  0
 13 11  1  0  0  0  0
 14 13  1  0  0  0  0
 15 14  2  0  0  0  0
 16 29  1  6  0  0  0
 16 17  1  0  0  0  0
 16 14  1  0  0  0  0
 17 19  1  0  0  0  0
 17 18  1  1  0  0  0
 20 19  1  0  0  0  0
 21 22  1  0  0  0  0
 22 20  1  1  0  0  0
 22 26  1  0  0  0  0
 23 25  1  0  0  0  0
 25 24  1  0  0  0  0
 26 24  1  0  0  0  0
 27 21  1  0  0  0  0
 27 23  1  0  0  0  0
 28 29  1  0  0  0  0
 31 32  1  0  0  0  0
 31 34  1  0  0  0  0
 32 36  2  0  0  0  0
 34 35  1  0  0  0  0
 35 33  1  0  0  0  0
 35 30  1  1  0  0  0
 36 33  1  0  0  0  0
 37 32  1  0  0  0  0
 38 37  1  0  0  0  0
 39 40  1  6  0  0  0
 39 43  1  0  0  0  0
 40 41  1  0  0  0  0
 43 42  1  0  0  0  0
M  END
>  <MODEL>
7

>  <REMARK>
 VINA RESULT:      -7.8      3.994      8.804
  Name = 
  14 active torsions:
  status: ('A' for Active; 'I' for Inactive)
    1  A    between atoms: N_1  and  C_34
    2  A    between atoms: N_1  and  C_35
    3  A    between atoms: C_2  and  N_6
    4  A    between atoms: C_2  and  C_13
    5  A    between atoms: C_3  and  C_4
    6  A    between atoms: C_3  and  C_12
    7  A    between atoms: C_3  and  O_42
    8  A    between atoms: C_4  and  C_22
    9  A    between atoms: C_5  and  C_16
   10  A    between atoms: C_5  and  C_18
   11  A    between atoms: C_5  and  N_23
   12  A    between atoms: C_14  and  C_41
   13  A    between atoms: C_19  and  C_25
   14  A    between atoms: C_22  and  C_41
                            x       y       z     vdW  Elec       q    Type
                         _______ _______ _______ _____ _____    ______ ____

>  <TORSDO>
F 14

$$$$
=
 OpenBabel11052416273D

 43 46  0  0  1  0  0  0  0  0999 V2000
  190.9550  177.1490  139.0160 C   0  0  0  0  0  0  0  0  0  0  0  0
  188.4120  176.7420  137.6680 C   0  0  0  0  0  0  0  0  0  0  0  0
  190.7100  177.5120  142.0410 C   0  0  0  0  0  0  0  0  0  0  0  0
  189.6860  177.4770  141.2060 C   0  0  0  0  0  3  0  0  0  0  0  0
  188.4490  177.5280  138.9850 C   0  0  0  0  0  2  0  0  0  0  0  0
  189.6910  177.0910  139.7610 C   0  0  0  0  0  0  0  0  0  0  0  0
  192.2440  177.2880  139.8010 C   0  0  0  0  0  3  0  0  0  0  0  0
  190.9080  176.7450  137.6300 C   0  0  1  0  0  3  0  0  0  0  0  0
  189.5630  176.4400  137.0660 C   0  0  0  0  0  3  0  0  0  0  0  0
  192.1380  177.2410  141.3710 C   0  0  0  0  0  3  0  0  0  0  0  0
  187.1090  176.3210  137.1540 C   0  0  2  0  0  3  0  0  0  0  0  0
  187.1380  176.4540  135.7430 O   0  0  0  0  0  1  0  0  0  0  0  0
  186.1080  177.1810  137.7180 N   0  0  0  0  0  2  0  0  0  0  0  0
  184.7080  177.0470  137.7220 C   0  0  0  0  0  0  0  0  0  0  0  0
  184.1710  175.9230  137.3700 O   0  0  0  0  0  0  0  0  0  0  0  0
  183.8540  178.1590  138.1250 C   0  0  2  0  0  3  0  0  0  0  0  0
  184.5250  179.0410  139.2290 C   0  0  1  0  0  3  0  0  0  0  0  0
  184.1800  180.4050  139.0930 O   0  0  0  0  0  1  0  0  0  0  0  0
  184.4110  178.5940  140.6780 C   0  0  0  0  0  2  0  0  0  0  0  0
  185.7600  178.8250  141.3260 C   0  0  0  0  0  2  0  0  0  0  0  0
  184.4160  178.9490  143.3320 O   0  0  0  0  0  0  0  0  0  0  0  0
  185.6750  178.6960  142.7360 C   0  0  1  0  0  3  0  0  0  0  0  0
  184.2750  178.6270  145.5800 C   0  0  0  0  0  2  0  0  0  0  0  0
  186.4850  177.3810  144.6700 C   0  0  0  0  0  2  0  0  0  0  0  0
  185.7350  178.2590  145.7280 C   0  0  0  0  0  2  0  0  0  0  0  0
  186.6890  178.1320  143.4040 C   0  0  0  0  0  2  0  0  0  0  0  0
  184.1930  179.6320  144.5100 C   0  0  0  0  0  2  0  0  0  0  0  0
  181.7160  178.3810  137.7520 C   0  0  0  0  0  1  0  0  0  0  0  0
  182.6350  177.6220  138.4970 O   0  0  0  0  0  0  0  0  0  0  0  0
  192.0830  176.6500  136.8090 N   0  0  0  0  0  2  0  0  0  0  0  0
  193.8800  173.3040  137.3210 C   0  0  0  0  0  2  0  0  0  0  0  0
  194.9380  173.5120  136.2630 C   0  0  0  0  0  0  0  0  0  0  0  0
  194.0850  175.8700  135.8560 C   0  0  0  0  0  2  0  0  0  0  0  0
  192.9500  174.5220  137.5600 C   0  0  0  0  0  2  0  0  0  0  0  0
  192.7330  175.4530  136.3680 C   0  0  1  0  0  3  0  0  0  0  0  0
  195.0040  174.6350  135.5600 C   0  0  0  0  0  3  0  0  0  0  0  0
  195.8020  172.3780  135.8870 C   0  0  0  0  0  2  0  0  0  0  0  0
  197.0870  172.7050  135.7680 F   0  0  0  0  0  0  0  0  0  0  0  0
  190.3550  177.6480  143.5660 C   0  0  1  0  0  3  0  0  0  0  0  0
  191.2220  176.4440  144.3870 C   0  0  0  0  0  2  0  0  0  0  0  0
  191.6800  176.3710  146.1590 S   0  0  0  0  0  1  0  0  0  0  0  0
  191.2960  179.8250  144.0090 O   0  0  0  0  0  1  0  0  0  0  0  0
  190.1500  178.9780  144.1340 N   0  0  0  0  0  2  0  0  0  0  0  0
  1  6  2  0  0  0  0
  1  7  1  0  0  0  0
  2  5  1  0  0  0  0
  3 39  1  0  0  0  0
  4  3  2  0  0  0  0
  5  6  1  0  0  0  0
  6  4  1  0  0  0  0
  7 10  2  0  0  0  0
  8 30  1  6  0  0  0
  8  1  1  0  0  0  0
  9  8  1  0  0  0  0
  9  2  2  0  0  0  0
 10  3  1  0  0  0  0
 11 12  1  6  0  0  0
 11  2  1  0  0  0  0
 11 13  1  0  0  0  0
 13 14  1  0  0  0  0
 15 14  2  0  0  0  0
 16 14  1  1  0  0  0
 16 29  1  0  0  0  0
 16 17  1  0  0  0  0
 17 18  1  1  0  0  0
 17 19  1  0  0  0  0
 19 20  1  0  0  0  0
 21 27  1  0  0  0  0
 22 20  1  6  0  0  0
 22 21  1  0  0  0  0
 22 26  1  0  0  0  0
 23 25  1  0  0  0  0
 24 25  1  0  0  0  0
 26 24  1  0  0  0  0
 27 23  1  0  0  0  0
 28 29  1  0  0  0  0
 31 34  1  0  0  0  0
 32 31  1  0  0  0  0
 33 35  1  0  0  0  0
 35 30  1  1  0  0  0
 35 34  1  0  0  0  0
 36 33  1  0  0  0  0
 36 32  2  0  0  0  0
 37 32  1  0  0  0  0
 38 37  1  0  0  0  0
 39 43  1  0  0  0  0
 39 40  1  1  0  0  0
 40 41  1  0  0  0  0
 42 43  1  0  0  0  0
M  END
>  <MODEL>
8

>  <REMARK>
 VINA RESULT:      -7.7      4.439      9.622
  Name = 
  14 active torsions:
  status: ('A' for Active; 'I' for Inactive)
    1  A    between atoms: N_1  and  C_34
    2  A    between atoms: N_1  and  C_35
    3  A    between atoms: C_2  and  N_6
    4  A    between atoms: C_2  and  C_13
    5  A    between atoms: C_3  and  C_4
    6  A    between atoms: C_3  and  C_12
    7  A    between atoms: C_3  and  O_42
    8  A    between atoms: C_4  and  C_22
    9  A    between atoms: C_5  and  C_16
   10  A    between atoms: C_5  and  C_18
   11  A    between atoms: C_5  and  N_23
   12  A    between atoms: C_14  and  C_41
   13  A    between atoms: C_19  and  C_25
   14  A    between atoms: C_22  and  C_41
                            x       y       z     vdW  Elec       q    Type
                         _______ _______ _______ _____ _____    ______ ____

>  <TORSDO>
F 14

$$$$
=
 OpenBabel11052416273D

 43 46  0  0  1  0  0  0  0  0999 V2000
  189.2670  176.8460  137.3160 C   0  0  0  0  0  0  0  0  0  0  0  0
  190.9680  177.1810  139.6490 C   0  0  0  0  0  0  0  0  0  0  0  0
  186.4150  177.8770  137.7020 C   0  0  0  0  0  0  0  0  0  0  0  0
  187.3110  177.7730  138.6680 C   0  0  0  0  0  3  0  0  0  0  0  0
  189.4510  177.0480  139.8350 C   0  0  0  0  0  2  0  0  0  0  0  0
  188.7750  177.4920  138.5390 C   0  0  0  0  0  0  0  0  0  0  0  0
  188.3410  176.7790  136.1180 C   0  0  0  0  0  3  0  0  0  0  0  0
  190.6910  176.6170  137.2330 C   0  0  1  0  0  3  0  0  0  0  0  0
  191.4930  176.9360  138.4480 C   0  0  0  0  0  3  0  0  0  0  0  0
  186.9550  177.5160  136.2390 C   0  0  0  0  0  3  0  0  0  0  0  0
  191.7670  177.6130  140.7950 C   0  0  2  0  0  3  0  0  0  0  0  0
  193.0860  177.1280  140.6110 O   0  0  0  0  0  1  0  0  0  0  0  0
  191.1860  177.0520  141.9810 N   0  0  0  0  0  2  0  0  0  0  0  0
  191.2330  177.5140  143.3090 C   0  0  0  0  0  0  0  0  0  0  0  0
  191.6640  178.7090  143.5570 O   0  0  0  0  0  0  0  0  0  0  0  0
  190.7950  176.6620  144.4100 C   0  0  2  0  0  3  0  0  0  0  0  0
  189.3020  176.9250  144.7940 C   0  0  1  0  0  3  0  0  0  0  0  0
  189.1000  178.2520  145.2370 O   0  0  0  0  0  1  0  0  0  0  0  0
  188.2190  176.5100  143.8100 C   0  0  0  0  0  2  0  0  0  0  0  0
  187.7010  177.7730  143.1550 C   0  0  0  0  0  2  0  0  0  0  0  0
  186.1650  178.4730  144.8850 O   0  0  0  0  0  0  0  0  0  0  0  0
  186.3650  178.0400  143.5530 C   0  0  1  0  0  3  0  0  0  0  0  0
  184.0300  179.0030  145.4690 C   0  0  0  0  0  2  0  0  0  0  0  0
  184.2000  178.9540  142.7790 C   0  0  0  0  0  2  0  0  0  0  0  0
  183.4550  178.6330  144.1190 C   0  0  0  0  0  2  0  0  0  0  0  0
  185.4050  178.0980  142.6240 C   0  0  0  0  0  2  0  0  0  0  0  0
  185.1440  178.0790  145.7270 C   0  0  0  0  0  2  0  0  0  0  0  0
  192.0570  175.5420  145.7930 C   0  0  0  0  0  1  0  0  0  0  0  0
  191.6860  176.8530  145.4510 O   0  0  0  0  0  0  0  0  0  0  0  0
  191.3260  176.0920  136.0560 N   0  0  0  0  0  2  0  0  0  0  0  0
  193.2280  172.8650  136.8670 C   0  0  0  0  0  2  0  0  0  0  0  0
  194.5570  173.5180  137.1640 C   0  0  0  0  0  0  0  0  0  0  0  0
  193.5050  175.8140  136.8920 C   0  0  0  0  0  2  0  0  0  0  0  0
  192.0630  173.8540  136.5930 C   0  0  0  0  0  2  0  0  0  0  0  0
  192.4510  175.2100  136.0030 C   0  0  1  0  0  3  0  0  0  0  0  0
  194.7070  174.8350  137.1220 C   0  0  0  0  0  3  0  0  0  0  0  0
  195.7470  172.6650  137.3340 C   0  0  0  0  0  2  0  0  0  0  0  0
  195.5580  171.6470  138.1680 F   0  0  0  0  0  0  0  0  0  0  0  0
  185.0260  178.4880  138.1090 C   0  0  1  0  0  3  0  0  0  0  0  0
  183.8470  177.3230  137.7530 C   0  0  0  0  0  2  0  0  0  0  0  0
  183.0410  176.1280  138.8840 S   0  0  0  0  0  1  0  0  0  0  0  0
  184.1330  180.5020  139.0930 O   0  0  0  0  0  1  0  0  0  0  0  0
  184.9410  179.3390  139.2930 N   0  0  0  0  0  2  0  0  0  0  0  0
  1  6  1  0  0  0  0
  2  5  1  0  0  0  0
  2 11  1  0  0  0  0
  3 39  1  0  0  0  0
  3  4  1  0  0  0  0
  6  4  2  0  0  0  0
  6  5  1  0  0  0  0
  7 10  1  0  0  0  0
  7  1  2  0  0  0  0
  8 30  1  1  0  0  0
  8  1  1  0  0  0  0
  8  9  1  0  0  0  0
  9  2  2  0  0  0  0
 10  3  2  0  0  0  0
 11 12  1  6  0  0  0
 11 13  1  0  0  0  0
 13 14  1  0  0  0  0
 14 15  2  0  0  0  0
 16 14  1  6  0  0  0
 16 17  1  0  0  0  0
 16 29  1  0  0  0  0
 17 18  1  6  0  0  0
 19 17  1  0  0  0  0
 20 19  1  0  0  0  0
 21 27  1  0  0  0  0
 22 20  1  6  0  0  0
 22 21  1  0  0  0  0
 23 27  1  0  0  0  0
 24 25  1  0  0  0  0
 25 23  1  0  0  0  0
 26 24  1  0  0  0  0
 26 22  1  0  0  0  0
 29 28  1  0  0  0  0
 31 32  1  0  0  0  0
 32 37  1  0  0  0  0
 33 36  1  0  0  0  0
 34 31  1  0  0  0  0
 35 30  1  1  0  0  0
 35 34  1  0  0  0  0
 35 33  1  0  0  0  0
 36 32  2  0  0  0  0
 37 38  1  0  0  0  0
 39 40  1  1  0  0  0
 39 43  1  0  0  0  0
 40 41  1  0  0  0  0
 42 43  1  0  0  0  0
M  END
>  <MODEL>
9

>  <REMARK>
 VINA RESULT:      -7.7      3.921      8.144
  Name = 
  14 active torsions:
  status: ('A' for Active; 'I' for Inactive)
    1  A    between atoms: N_1  and  C_34
    2  A    between atoms: N_1  and  C_35
    3  A    between atoms: C_2  and  N_6
    4  A    between atoms: C_2  and  C_13
    5  A    between atoms: C_3  and  C_4
    6  A    between atoms: C_3  and  C_12
    7  A    between atoms: C_3  and  O_42
    8  A    between atoms: C_4  and  C_22
    9  A    between atoms: C_5  and  C_16
   10  A    between atoms: C_5  and  C_18
   11  A    between atoms: C_5  and  N_23
   12  A    between atoms: C_14  and  C_41
   13  A    between atoms: C_19  and  C_25
   14  A    between atoms: C_22  and  C_41
                            x       y       z     vdW  Elec       q    Type
                         _______ _______ _______ _____ _____    ______ ____

>  <TORSDO>
F 14

$$$$
