=
 OpenBabel11052414363D

 32 36  0  0  1  0  0  0  0  0999 V2000
  186.3670  178.5690  140.3170 C   0  0  0  0  0  0  0  0  0  0  0  0
  188.8260  178.0830  140.2130 C   0  0  2  0  0  3  0  0  0  0  0  0
  185.2970  178.9060  139.6550 N   0  0  0  0  0  0  0  0  0  0  0  0
  187.4390  177.7360  139.6670 C   0  0  2  0  0  3  0  0  0  0  0  0
  189.7340  177.0840  139.8350 O   0  0  0  0  0  0  0  0  0  0  0  0
  188.8490  178.4220  141.7320 C   0  0  1  0  0  3  0  0  0  0  0  0
  189.6010  177.0710  137.3840 C   0  0  2  0  0  3  0  0  0  0  0  0
  187.4720  177.8980  138.1450 C   0  0  1  0  0  3  0  0  0  0  0  0
  188.1780  176.7580  137.5700 N   0  0  0  0  0  2  0  0  0  0  0  0
  186.0930  178.0100  137.5610 C   0  0  0  0  0  3  0  0  0  0  0  0
  187.5800  178.0790  142.3810 N   0  0  0  0  0  2  0  0  0  0  0  0
  190.3150  175.8430  136.8590 C   0  0  0  0  0  1  0  0  0  0  0  0
  186.5060  178.8830  141.7870 C   0  0  2  0  0  3  0  0  0  0  0  0
  190.3160  177.5740  138.6550 C   0  0  0  0  0  2  0  0  0  0  0  0
  185.0990  178.5370  138.2810 C   0  0  0  0  0  3  0  0  0  0  0  0
  184.4050  178.7190  144.9030 C   0  0  0  0  0  0  0  0  0  0  0  0
  181.0200  178.5860  144.0250 O   0  0  0  0  0  1  0  0  0  0  0  0
  184.5540  178.3660  146.2070 F   0  0  0  0  0  0  0  0  0  0  0  0
  182.7040  178.5070  142.3910 C   0  0  0  0  0  3  0  0  0  0  0  0
  185.2220  178.6770  142.5450 C   0  0  0  0  0  0  0  0  0  0  0  0
  183.2370  179.5760  144.5480 C   0  0  0  0  0  2  0  0  0  0  0  0
  184.0660  178.6900  141.8540 C   0  0  0  0  0  3  0  0  0  0  0  0
  185.3180  178.3430  143.9940 C   0  0  0  0  0  0  0  0  0  0  0  0
  186.5110  177.5720  144.4620 C   0  0  0  0  0  1  0  0  0  0  0  0
  182.3200  178.8570  143.6180 C   0  0  0  0  0  0  0  0  0  0  0  0
  191.5440  175.8680  144.7390 C   0  0  0  0  0  2  0  0  0  0  0  0
  191.7700  178.3650  144.2780 C   0  0  0  0  0  2  0  0  0  0  0  0
  190.4800  178.8040  143.5970 C   0  0  0  0  0  2  0  0  0  0  0  0
  190.0460  177.8360  142.4950 C   0  0  0  0  0  3  0  0  0  0  0  0
  189.6980  176.4700  143.0880 C   0  0  0  0  0  2  0  0  0  0  0  0
  191.4590  177.2880  145.3070 C   0  0  0  0  0  2  0  0  0  0  0  0
  190.9770  175.6820  143.3280 C   0  0  0  0  0  2  0  0  0  0  0  0
  1 13  1  0  0  0  0
  2  5  1  1  0  0  0
  2  6  1  0  0  0  0
  3  1  2  0  0  0  0
  4  2  1  0  0  0  0
  4  1  1  1  0  0  0
  6 11  1  0  0  0  0
  6 29  1  1  0  0  0
  7 12  1  1  0  0  0
  7  9  1  0  0  0  0
  7 14  1  0  0  0  0
  8 10  1  6  0  0  0
  8  4  1  0  0  0  0
  9  8  1  0  0  0  0
 10 15  2  0  0  0  0
 13 11  1  0  0  0  0
 13 20  1  1  0  0  0
 14  5  1  0  0  0  0
 15  3  1  0  0  0  0
 16 18  1  0  0  0  0
 19 25  2  0  0  0  0
 20 23  1  0  0  0  0
 21 16  1  0  0  0  0
 22 19  1  0  0  0  0
 22 20  2  0  0  0  0
 23 24  1  0  0  0  0
 23 16  2  0  0  0  0
 25 17  1  0  0  0  0
 25 21  1  0  0  0  0
 26 31  1  0  0  0  0
 27 31  1  0  0  0  0
 28 27  1  0  0  0  0
 29 30  1  0  0  0  0
 29 28  1  0  0  0  0
 30 32  1  0  0  0  0
 32 26  1  0  0  0  0
M  END
>  <MODEL>
1

>  <REMARK>
 VINA RESULT:     -10.7      0.000      0.000
  Name = 
  2 active torsions:
  status: ('A' for Active; 'I' for Inactive)
    1  A    between atoms: C_10  and  C_17
    2  A    between atoms: C_16  and  C_27
                            x       y       z     vdW  Elec       q    Type
                         _______ _______ _______ _____ _____    ______ ____

>  <TORSDO>
F 2

$$$$
=
 OpenBabel11052414363D

 32 36  0  0  1  0  0  0  0  0999 V2000
  187.9420  178.1920  140.0810 C   0  0  0  0  0  0  0  0  0  0  0  0
  188.6940  177.5730  137.7690 C   0  0  2  0  0  3  0  0  0  0  0  0
  187.0590  178.8190  140.8050 N   0  0  0  0  0  0  0  0  0  0  0  0
  187.5450  177.5450  138.7800 C   0  0  2  0  0  3  0  0  0  0  0  0
  188.4040  176.6920  136.7170 O   0  0  0  0  0  0  0  0  0  0  0  0
  190.1040  177.3720  138.3960 C   0  0  1  0  0  3  0  0  0  0  0  0
  186.2710  177.5240  135.8300 C   0  0  2  0  0  3  0  0  0  0  0  0
  186.3270  178.2120  138.1360 C   0  0  1  0  0  3  0  0  0  0  0  0
  185.7390  177.2830  137.1770 N   0  0  0  0  0  2  0  0  0  0  0  0
  185.3070  178.6280  139.1570 C   0  0  0  0  0  3  0  0  0  0  0  0
  190.0150  176.9330  139.7920 N   0  0  0  0  0  2  0  0  0  0  0  0
  185.6990  176.4950  134.8780 C   0  0  0  0  0  1  0  0  0  0  0  0
  189.3490  177.9750  140.5810 C   0  0  2  0  0  3  0  0  0  0  0  0
  187.8110  177.5060  135.7380 C   0  0  0  0  0  2  0  0  0  0  0  0
  185.6900  178.9570  140.3940 C   0  0  0  0  0  3  0  0  0  0  0  0
  190.8260  178.0780  144.0400 C   0  0  0  0  0  0  0  0  0  0  0  0
  188.5340  176.7530  146.3290 O   0  0  0  0  0  1  0  0  0  0  0  0
  192.0560  178.1530  144.6130 F   0  0  0  0  0  0  0  0  0  0  0  0
  188.1090  176.7130  144.0200 C   0  0  0  0  0  3  0  0  0  0  0  0
  189.3950  177.6280  142.0440 C   0  0  0  0  0  0  0  0  0  0  0  0
  189.6480  178.4360  144.8810 C   0  0  0  0  0  2  0  0  0  0  0  0
  188.2830  177.1210  142.6130 C   0  0  0  0  0  3  0  0  0  0  0  0
  190.7050  177.7440  142.7450 C   0  0  0  0  0  0  0  0  0  0  0  0
  191.9510  177.5030  141.9540 C   0  0  0  0  0  1  0  0  0  0  0  0
  188.7470  177.2610  145.0530 C   0  0  0  0  0  0  0  0  0  0  0  0
  192.6250  173.6220  136.8440 C   0  0  0  0  0  2  0  0  0  0  0  0
  193.4800  176.0140  137.0630 C   0  0  0  0  0  2  0  0  0  0  0  0
  192.4930  176.7530  137.9580 C   0  0  0  0  0  2  0  0  0  0  0  0
  191.0380  176.4670  137.5800 C   0  0  0  0  0  3  0  0  0  0  0  0
  190.7050  174.9930  137.8100 C   0  0  0  0  0  2  0  0  0  0  0  0
  193.6100  174.5730  137.5320 C   0  0  0  0  0  2  0  0  0  0  0  0
  191.2100  174.1710  136.6330 C   0  0  0  0  0  2  0  0  0  0  0  0
  1 13  1  0  0  0  0
  1  3  2  0  0  0  0
  2  5  1  6  0  0  0
  2  6  1  0  0  0  0
  2  4  1  0  0  0  0
  4  1  1  1  0  0  0
  6 29  1  6  0  0  0
  6 11  1  0  0  0  0
  7 12  1  6  0  0  0
  7  9  1  0  0  0  0
  8  4  1  0  0  0  0
  8 10  1  1  0  0  0
  9  8  1  0  0  0  0
 10 15  2  0  0  0  0
 11 13  1  0  0  0  0
 13 20  1  1  0  0  0
 14  7  1  0  0  0  0
 14  5  1  0  0  0  0
 15  3  1  0  0  0  0
 16 18  1  0  0  0  0
 16 21  1  0  0  0  0
 19 25  2  0  0  0  0
 20 22  2  0  0  0  0
 20 23  1  0  0  0  0
 21 25  1  0  0  0  0
 22 19  1  0  0  0  0
 23 16  2  0  0  0  0
 24 23  1  0  0  0  0
 25 17  1  0  0  0  0
 26 31  1  0  0  0  0
 27 31  1  0  0  0  0
 27 28  1  0  0  0  0
 29 30  1  0  0  0  0
 29 28  1  0  0  0  0
 32 26  1  0  0  0  0
 32 30  1  0  0  0  0
M  END
>  <MODEL>
2

>  <REMARK>
 VINA RESULT:      -9.8      2.950      5.237
  Name = 
  2 active torsions:
  status: ('A' for Active; 'I' for Inactive)
    1  A    between atoms: C_10  and  C_17
    2  A    between atoms: C_16  and  C_27
                            x       y       z     vdW  Elec       q    Type
                         _______ _______ _______ _____ _____    ______ ____

>  <TORSDO>
F 2

$$$$
=
 OpenBabel11052414363D

 32 36  0  0  1  0  0  0  0  0999 V2000
  189.0740  177.0680  142.3200 C   0  0  0  0  0  0  0  0  0  0  0  0
  187.0680  177.8020  141.0060 C   0  0  2  0  0  3  0  0  0  0  0  0
  190.2590  176.5260  142.2850 N   0  0  0  0  0  0  0  0  0  0  0  0
  188.5850  177.9150  141.1760 C   0  0  2  0  0  3  0  0  0  0  0  0
  186.6210  178.8320  140.1660 O   0  0  0  0  0  0  0  0  0  0  0  0
  186.2810  177.6840  142.3430 C   0  0  1  0  0  3  0  0  0  0  0  0
  187.8880  178.4870  138.0920 C   0  0  2  0  0  3  0  0  0  0  0  0
  189.2440  177.5460  139.8440 C   0  0  1  0  0  3  0  0  0  0  0  0
  189.0870  178.6650  138.9210 N   0  0  0  0  0  2  0  0  0  0  0  0
  190.6960  177.2010  140.0100 C   0  0  0  0  0  3  0  0  0  0  0  0
  187.1350  177.9730  143.4990 N   0  0  0  0  0  2  0  0  0  0  0  0
  187.7150  179.7000  137.2020 C   0  0  0  0  0  1  0  0  0  0  0  0
  188.2130  176.9800  143.5570 C   0  0  2  0  0  3  0  0  0  0  0  0
  186.5890  178.2480  138.8890 C   0  0  0  0  0  2  0  0  0  0  0  0
  191.1340  176.6750  141.1560 C   0  0  0  0  0  3  0  0  0  0  0  0
  188.6450  177.0550  147.2940 C   0  0  0  0  0  0  0  0  0  0  0  0
  192.0560  177.1280  148.0750 O   0  0  0  0  0  1  0  0  0  0  0  0
  187.9160  177.3920  148.3900 F   0  0  0  0  0  0  0  0  0  0  0  0
  191.3140  177.2660  145.8520 C   0  0  0  0  0  3  0  0  0  0  0  0
  189.0060  177.1470  144.8250 C   0  0  0  0  0  0  0  0  0  0  0  0
  189.8340  176.1790  147.4970 C   0  0  0  0  0  2  0  0  0  0  0  0
  190.3510  177.1200  144.7440 C   0  0  0  0  0  3  0  0  0  0  0  0
  188.2570  177.4640  146.0750 C   0  0  0  0  0  0  0  0  0  0  0  0
  186.9930  178.2530  145.9590 C   0  0  0  0  0  1  0  0  0  0  0  0
  191.0860  176.8900  147.1100 C   0  0  0  0  0  0  0  0  0  0  0  0
  181.9910  179.3780  143.5890 C   0  0  0  0  0  2  0  0  0  0  0  0
  182.7540  178.8300  141.2180 C   0  0  0  0  0  2  0  0  0  0  0  0
  183.9960  177.9590  141.3480 C   0  0  0  0  0  2  0  0  0  0  0  0
  184.9800  178.4990  142.3880 C   0  0  0  0  0  3  0  0  0  0  0  0
  184.3600  178.4580  143.7850 C   0  0  0  0  0  2  0  0  0  0  0  0
  181.7860  178.5050  142.3470 C   0  0  0  0  0  2  0  0  0  0  0  0
  183.4480  179.6610  143.9680 C   0  0  0  0  0  2  0  0  0  0  0  0
  1 13  1  0  0  0  0
  2  5  1  1  0  0  0
  2  4  1  0  0  0  0
  2  6  1  0  0  0  0
  3  1  2  0  0  0  0
  4  1  1  1  0  0  0
  6 29  1  6  0  0  0
  6 11  1  0  0  0  0
  7 12  1  1  0  0  0
  7 14  1  0  0  0  0
  7  9  1  0  0  0  0
  8 10  1  1  0  0  0
  8  4  1  0  0  0  0
  9  8  1  0  0  0  0
 10 15  2  0  0  0  0
 11 13  1  0  0  0  0
 13 20  1  1  0  0  0
 14  5  1  0  0  0  0
 15  3  1  0  0  0  0
 16 21  1  0  0  0  0
 16 18  1  0  0  0  0
 19 25  2  0  0  0  0
 20 23  1  0  0  0  0
 22 20  2  0  0  0  0
 22 19  1  0  0  0  0
 23 16  2  0  0  0  0
 24 23  1  0  0  0  0
 25 21  1  0  0  0  0
 25 17  1  0  0  0  0
 26 32  1  0  0  0  0
 27 28  1  0  0  0  0
 27 31  1  0  0  0  0
 28 29  1  0  0  0  0
 29 30  1  0  0  0  0
 30 32  1  0  0  0  0
 31 26  1  0  0  0  0
M  END
>  <MODEL>
3

>  <REMARK>
 VINA RESULT:      -9.6      2.406      6.165
  Name = 
  2 active torsions:
  status: ('A' for Active; 'I' for Inactive)
    1  A    between atoms: C_10  and  C_17
    2  A    between atoms: C_16  and  C_27
                            x       y       z     vdW  Elec       q    Type
                         _______ _______ _______ _____ _____    ______ ____

>  <TORSDO>
F 2

$$$$
=
 OpenBabel11052414363D

 32 36  0  0  1  0  0  0  0  0999 V2000
  185.7740  178.6210  140.3620 C   0  0  0  0  0  0  0  0  0  0  0  0
  187.9260  178.1470  141.5590 C   0  0  2  0  0  3  0  0  0  0  0  0
  185.2090  179.0440  139.2660 N   0  0  0  0  0  0  0  0  0  0  0  0
  187.0820  177.8770  140.3110 C   0  0  2  0  0  3  0  0  0  0  0  0
  188.9620  177.2030  141.6280 O   0  0  0  0  0  0  0  0  0  0  0  0
  187.1030  178.2840  142.8720 C   0  0  1  0  0  3  0  0  0  0  0  0
  190.1730  177.5110  139.5150 C   0  0  2  0  0  3  0  0  0  0  0  0
  187.9190  178.2370  139.0810 C   0  0  1  0  0  3  0  0  0  0  0  0
  188.9010  177.1800  138.8610 N   0  0  0  0  0  2  0  0  0  0  0  0
  187.0700  178.4280  137.8580 C   0  0  0  0  0  3  0  0  0  0  0  0
  185.7110  177.8620  142.6830 N   0  0  0  0  0  2  0  0  0  0  0  0
  191.1410  176.3610  139.3300 C   0  0  0  0  0  1  0  0  0  0  0  0
  185.0760  178.7400  141.6950 C   0  0  2  0  0  3  0  0  0  0  0  0
  190.0530  177.8420  141.0170 C   0  0  0  0  0  2  0  0  0  0  0  0
  185.8110  178.8590  137.9750 C   0  0  0  0  0  3  0  0  0  0  0  0
  181.4500  179.2930  142.5340 C   0  0  0  0  0  0  0  0  0  0  0  0
  179.4480  177.4240  140.3560 O   0  0  0  0  0  1  0  0  0  0  0  0
  180.7090  179.7100  143.5940 F   0  0  0  0  0  0  0  0  0  0  0  0
  181.7870  177.2360  140.3210 C   0  0  0  0  0  3  0  0  0  0  0  0
  183.6040  178.4400  141.6040 C   0  0  0  0  0  0  0  0  0  0  0  0
  180.8100  179.3270  141.1880 C   0  0  0  0  0  2  0  0  0  0  0  0
  183.1750  177.6560  140.5950 C   0  0  0  0  0  3  0  0  0  0  0  0
  182.7280  178.9200  142.7100 C   0  0  0  0  0  0  0  0  0  0  0  0
  183.3140  179.0180  144.0820 C   0  0  0  0  0  1  0  0  0  0  0  0
  180.7050  177.9520  140.6200 C   0  0  0  0  0  0  0  0  0  0  0  0
  188.3070  177.1280  147.3490 C   0  0  0  0  0  2  0  0  0  0  0  0
  189.9080  177.3530  145.3790 C   0  0  0  0  0  2  0  0  0  0  0  0
  189.1620  178.1160  144.2920 C   0  0  0  0  0  2  0  0  0  0  0  0
  187.7360  177.6000  144.0930 C   0  0  0  0  0  3  0  0  0  0  0  0
  186.8980  177.8430  145.3490 C   0  0  0  0  0  2  0  0  0  0  0  0
  189.4950  177.8820  146.7450 C   0  0  0  0  0  2  0  0  0  0  0  0
  187.1900  176.7540  146.3700 C   0  0  0  0  0  2  0  0  0  0  0  0
  1 13  1  0  0  0  0
  2  5  1  1  0  0  0
  2  6  1  0  0  0  0
  3  1  2  0  0  0  0
  4  1  1  1  0  0  0
  4  2  1  0  0  0  0
  6 29  1  1  0  0  0
  7 12  1  1  0  0  0
  7 14  1  0  0  0  0
  8 10  1  6  0  0  0
  8  4  1  0  0  0  0
  9  8  1  0  0  0  0
  9  7  1  0  0  0  0
 10 15  2  0  0  0  0
 11  6  1  0  0  0  0
 13 20  1  6  0  0  0
 13 11  1  0  0  0  0
 14  5  1  0  0  0  0
 15  3  1  0  0  0  0
 16 23  2  0  0  0  0
 16 18  1  0  0  0  0
 17 25  1  0  0  0  0
 19 22  1  0  0  0  0
 19 25  2  0  0  0  0
 20 23  1  0  0  0  0
 21 16  1  0  0  0  0
 22 20  2  0  0  0  0
 23 24  1  0  0  0  0
 25 21  1  0  0  0  0
 27 31  1  0  0  0  0
 28 27  1  0  0  0  0
 29 28  1  0  0  0  0
 29 30  1  0  0  0  0
 30 32  1  0  0  0  0
 31 26  1  0  0  0  0
 32 26  1  0  0  0  0
M  END
>  <MODEL>
4

>  <REMARK>
 VINA RESULT:      -9.5      1.936      2.750
  Name = 
  2 active torsions:
  status: ('A' for Active; 'I' for Inactive)
    1  A    between atoms: C_10  and  C_17
    2  A    between atoms: C_16  and  C_27
                            x       y       z     vdW  Elec       q    Type
                         _______ _______ _______ _____ _____    ______ ____

>  <TORSDO>
F 2

$$$$
=
 OpenBabel11052414363D

 32 36  0  0  1  0  0  0  0  0999 V2000
  189.4220  177.8930  142.0600 C   0  0  0  0  0  0  0  0  0  0  0  0
  187.6450  178.1820  143.8070 C   0  0  2  0  0  3  0  0  0  0  0  0
  190.6980  177.8960  141.7960 N   0  0  0  0  0  0  0  0  0  0  0  0
  188.9190  177.4350  143.4030 C   0  0  2  0  0  3  0  0  0  0  0  0
  187.0390  177.5130  144.8800 O   0  0  0  0  0  0  0  0  0  0  0  0
  186.6820  178.4910  142.6250 C   0  0  1  0  0  3  0  0  0  0  0  0
  188.7780  177.4920  146.6130 C   0  0  2  0  0  3  0  0  0  0  0  0
  189.9540  177.6200  144.5160 C   0  0  1  0  0  3  0  0  0  0  0  0
  189.5930  176.7570  145.6360 N   0  0  0  0  0  2  0  0  0  0  0  0
  191.3460  177.3140  144.0460 C   0  0  0  0  0  3  0  0  0  0  0  0
  187.0700  177.7680  141.4100 N   0  0  0  0  0  2  0  0  0  0  0  0
  188.3590  176.5480  147.7200 C   0  0  0  0  0  1  0  0  0  0  0  0
  188.4040  178.2150  140.9930 C   0  0  2  0  0  3  0  0  0  0  0  0
  187.5280  178.1730  146.0190 C   0  0  0  0  0  2  0  0  0  0  0  0
  191.6810  177.5030  142.7660 C   0  0  0  0  0  3  0  0  0  0  0  0
  188.3610  178.0620  137.2340 C   0  0  0  0  0  0  0  0  0  0  0  0
  190.7100  175.7130  136.1330 O   0  0  0  0  0  1  0  0  0  0  0  0
  187.5140  178.3730  136.2180 F   0  0  0  0  0  0  0  0  0  0  0  0
  190.2600  176.0030  138.4190 C   0  0  0  0  0  3  0  0  0  0  0  0
  188.7580  177.6170  139.6580 C   0  0  0  0  0  0  0  0  0  0  0  0
  189.8050  177.8940  136.9030 C   0  0  0  0  0  2  0  0  0  0  0  0
  189.7550  176.7110  139.6110 C   0  0  0  0  0  3  0  0  0  0  0  0
  187.8990  177.9660  138.4910 C   0  0  0  0  0  0  0  0  0  0  0  0
  186.4530  178.2530  138.7410 C   0  0  0  0  0  1  0  0  0  0  0  0
  190.2520  176.4990  137.1820 C   0  0  0  0  0  0  0  0  0  0  0  0
  181.9110  178.7360  142.5340 C   0  0  0  0  0  2  0  0  0  0  0  0
  183.3800  178.8990  144.6110 C   0  0  0  0  0  2  0  0  0  0  0  0
  184.7960  179.1790  144.1270 C   0  0  0  0  0  2  0  0  0  0  0  0
  185.1950  178.2880  142.9480 C   0  0  0  0  0  3  0  0  0  0  0  0
  184.3260  178.5940  141.7280 C   0  0  0  0  0  2  0  0  0  0  0  0
  182.3840  179.6050  143.7030 C   0  0  0  0  0  2  0  0  0  0  0  0
  182.9900  177.8780  141.8660 C   0  0  0  0  0  2  0  0  0  0  0  0
  2  5  1  1  0  0  0
  3  1  2  0  0  0  0
  3 15  1  0  0  0  0
  4  1  1  6  0  0  0
  4  2  1  0  0  0  0
  4  8  1  0  0  0  0
  5 14  1  0  0  0  0
  6 29  1  1  0  0  0
  6  2  1  0  0  0  0
  7 12  1  1  0  0  0
  8 10  1  6  0  0  0
  8  9  1  0  0  0  0
  9  7  1  0  0  0  0
 11  6  1  0  0  0  0
 13 20  1  6  0  0  0
 13 11  1  0  0  0  0
 13  1  1  0  0  0  0
 14  7  1  0  0  0  0
 15 10  2  0  0  0  0
 16 23  2  0  0  0  0
 17 25  1  0  0  0  0
 18 16  1  0  0  0  0
 19 22  1  0  0  0  0
 21 25  1  0  0  0  0
 21 16  1  0  0  0  0
 22 20  2  0  0  0  0
 23 24  1  0  0  0  0
 23 20  1  0  0  0  0
 25 19  2  0  0  0  0
 26 31  1  0  0  0  0
 28 27  1  0  0  0  0
 29 28  1  0  0  0  0
 30 32  1  0  0  0  0
 30 29  1  0  0  0  0
 31 27  1  0  0  0  0
 32 26  1  0  0  0  0
M  END
>  <MODEL>
5

>  <REMARK>
 VINA RESULT:      -9.2      2.739      7.596
  Name = 
  2 active torsions:
  status: ('A' for Active; 'I' for Inactive)
    1  A    between atoms: C_10  and  C_17
    2  A    between atoms: C_16  and  C_27
                            x       y       z     vdW  Elec       q    Type
                         _______ _______ _______ _____ _____    ______ ____

>  <TORSDO>
F 2

$$$$
=
 OpenBabel11052414363D

 32 36  0  0  1  0  0  0  0  0999 V2000
  183.0210  178.6510  141.4850 C   0  0  0  0  0  0  0  0  0  0  0  0
  185.2460  178.2020  142.5530 C   0  0  2  0  0  3  0  0  0  0  0  0
  181.7260  178.6400  141.6250 N   0  0  0  0  0  0  0  0  0  0  0  0
  183.9160  178.9530  142.6570 C   0  0  2  0  0  3  0  0  0  0  0  0
  186.1580  178.7520  143.4660 O   0  0  0  0  0  0  0  0  0  0  0  0
  185.7970  178.0740  141.1030 C   0  0  1  0  0  3  0  0  0  0  0  0
  185.0360  178.5000  145.6350 C   0  0  2  0  0  3  0  0  0  0  0  0
  183.2720  178.5980  144.0000 C   0  0  1  0  0  3  0  0  0  0  0  0
  183.9670  179.3250  145.0570 N   0  0  0  0  0  2  0  0  0  0  0  0
  181.8050  178.9150  144.0210 C   0  0  0  0  0  3  0  0  0  0  0  0
  185.0610  178.9300  140.1680 N   0  0  0  0  0  2  0  0  0  0  0  0
  185.7830  179.3110  146.6730 C   0  0  0  0  0  1  0  0  0  0  0  0
  183.6600  178.4970  140.1260 C   0  0  2  0  0  3  0  0  0  0  0  0
  186.0380  177.9390  144.6050 C   0  0  0  0  0  2  0  0  0  0  0  0
  181.0920  178.8770  142.8920 C   0  0  0  0  0  3  0  0  0  0  0  0
  181.4580  178.7570  137.0850 C   0  0  0  0  0  0  0  0  0  0  0  0
  180.4880  182.0880  136.6260 O   0  0  0  0  0  1  0  0  0  0  0  0
  181.2060  178.0460  135.9550 F   0  0  0  0  0  0  0  0  0  0  0  0
  182.0240  181.4880  138.2970 C   0  0  0  0  0  3  0  0  0  0  0  0
  182.9170  179.2450  139.0510 C   0  0  0  0  0  0  0  0  0  0  0  0
  180.4450  179.7660  137.5080 C   0  0  0  0  0  2  0  0  0  0  0  0
  182.7180  180.5680  139.2190 C   0  0  0  0  0  3  0  0  0  0  0  0
  182.5610  178.5040  137.8080 C   0  0  0  0  0  0  0  0  0  0  0  0
  183.4670  177.4020  137.3610 C   0  0  0  0  0  1  0  0  0  0  0  0
  181.0270  181.1390  137.4850 C   0  0  0  0  0  0  0  0  0  0  0  0
  190.3320  177.8640  139.6140 C   0  0  0  0  0  2  0  0  0  0  0  0
  189.5380  177.6590  142.0270 C   0  0  0  0  0  2  0  0  0  0  0  0
  188.0420  177.3770  141.9750 C   0  0  0  0  0  2  0  0  0  0  0  0
  187.3140  178.2820  140.9800 C   0  0  0  0  0  3  0  0  0  0  0  0
  187.7870  178.0020  139.5530 C   0  0  0  0  0  2  0  0  0  0  0  0
  190.2250  176.9740  140.8550 C   0  0  0  0  0  2  0  0  0  0  0  0
  189.1030  178.7250  139.3060 C   0  0  0  0  0  2  0  0  0  0  0  0
  1  3  2  0  0  0  0
  2  4  1  0  0  0  0
  2  5  1  1  0  0  0
  3 15  1  0  0  0  0
  4  1  1  6  0  0  0
  4  8  1  0  0  0  0
  5 14  1  0  0  0  0
  6 29  1  1  0  0  0
  6  2  1  0  0  0  0
  7 12  1  1  0  0  0
  8 10  1  6  0  0  0
  8  9  1  0  0  0  0
  9  7  1  0  0  0  0
 11  6  1  0  0  0  0
 13 20  1  6  0  0  0
 13 11  1  0  0  0  0
 13  1  1  0  0  0  0
 14  7  1  0  0  0  0
 15 10  2  0  0  0  0
 16 21  1  0  0  0  0
 16 23  2  0  0  0  0
 17 25  1  0  0  0  0
 18 16  1  0  0  0  0
 19 22  1  0  0  0  0
 20 22  2  0  0  0  0
 23 20  1  0  0  0  0
 24 23  1  0  0  0  0
 25 21  1  0  0  0  0
 25 19  2  0  0  0  0
 26 31  1  0  0  0  0
 28 27  1  0  0  0  0
 29 28  1  0  0  0  0
 30 29  1  0  0  0  0
 31 27  1  0  0  0  0
 32 30  1  0  0  0  0
 32 26  1  0  0  0  0
M  END
>  <MODEL>
6

>  <REMARK>
 VINA RESULT:      -9.2      3.465      6.339
  Name = 
  2 active torsions:
  status: ('A' for Active; 'I' for Inactive)
    1  A    between atoms: C_10  and  C_17
    2  A    between atoms: C_16  and  C_27
                            x       y       z     vdW  Elec       q    Type
                         _______ _______ _______ _____ _____    ______ ____

>  <TORSDO>
F 2

$$$$
=
 OpenBabel11052414363D

 32 36  0  0  1  0  0  0  0  0999 V2000
  185.0840  178.1270  138.6230 C   0  0  0  0  0  0  0  0  0  0  0  0
  186.8020  178.6160  140.3840 C   0  0  2  0  0  3  0  0  0  0  0  0
  184.8410  177.9870  137.3500 N   0  0  0  0  0  0  0  0  0  0  0  0
  186.4190  177.7310  139.1950 C   0  0  2  0  0  3  0  0  0  0  0  0
  187.8650  178.0210  141.0780 O   0  0  0  0  0  0  0  0  0  0  0  0
  185.6030  179.0270  141.2880 C   0  0  1  0  0  3  0  0  0  0  0  0
  189.6260  177.8130  139.3800 C   0  0  2  0  0  3  0  0  0  0  0  0
  187.5490  177.8030  138.1640 C   0  0  1  0  0  3  0  0  0  0  0  0
  188.6640  176.9900  138.6370 N   0  0  0  0  0  2  0  0  0  0  0  0
  187.1020  177.3440  136.8060 C   0  0  0  0  0  3  0  0  0  0  0  0
  184.3960  178.2620  140.9630 N   0  0  0  0  0  2  0  0  0  0  0  0
  190.7280  176.9250  139.9190 C   0  0  0  0  0  1  0  0  0  0  0  0
  184.0000  178.5570  139.5810 C   0  0  2  0  0  3  0  0  0  0  0  0
  189.0120  178.6270  140.5380 C   0  0  0  0  0  2  0  0  0  0  0  0
  185.8280  177.4910  136.4330 C   0  0  0  0  0  3  0  0  0  0  0  0
  180.7680  178.2120  137.6850 C   0  0  0  0  0  0  0  0  0  0  0  0
  179.2450  175.1730  138.5150 O   0  0  0  0  0  1  0  0  0  0  0  0
  179.8720  179.0190  137.0600 F   0  0  0  0  0  0  0  0  0  0  0  0
  181.1940  175.8940  139.6070 C   0  0  0  0  0  3  0  0  0  0  0  0
  182.6720  177.9190  139.2740 C   0  0  0  0  0  0  0  0  0  0  0  0
  180.7510  176.7610  137.3420 C   0  0  0  0  0  2  0  0  0  0  0  0
  182.4220  176.6950  139.7790 C   0  0  0  0  0  3  0  0  0  0  0  0
  181.6640  178.7350  138.5390 C   0  0  0  0  0  0  0  0  0  0  0  0
  181.6720  180.2160  138.7420 C   0  0  0  0  0  1  0  0  0  0  0  0
  180.4020  175.9400  138.5360 C   0  0  0  0  0  0  0  0  0  0  0  0
  186.2240  177.5520  145.7900 C   0  0  0  0  0  2  0  0  0  0  0  0
  184.9780  179.6530  145.0610 C   0  0  0  0  0  2  0  0  0  0  0  0
  184.6880  179.4980  143.5740 C   0  0  0  0  0  2  0  0  0  0  0  0
  185.9030  178.9910  142.7930 C   0  0  0  0  0  3  0  0  0  0  0  0
  186.2760  177.5780  143.2410 C   0  0  0  0  0  2  0  0  0  0  0  0
  184.8850  178.2950  145.7400 C   0  0  0  0  0  2  0  0  0  0  0  0
  187.0860  177.6510  144.5270 C   0  0  0  0  0  2  0  0  0  0  0  0
  1 13  1  0  0  0  0
  2  5  1  1  0  0  0
  2  6  1  0  0  0  0
  3  1  2  0  0  0  0
  4  1  1  6  0  0  0
  4  2  1  0  0  0  0
  6 29  1  1  0  0  0
  7 12  1  1  0  0  0
  7 14  1  0  0  0  0
  8 10  1  6  0  0  0
  8  9  1  0  0  0  0
  8  4  1  0  0  0  0
  9  7  1  0  0  0  0
 11  6  1  0  0  0  0
 13 20  1  6  0  0  0
 13 11  1  0  0  0  0
 14  5  1  0  0  0  0
 15 10  2  0  0  0  0
 15  3  1  0  0  0  0
 16 23  2  0  0  0  0
 17 25  1  0  0  0  0
 18 16  1  0  0  0  0
 19 22  1  0  0  0  0
 20 22  2  0  0  0  0
 21 16  1  0  0  0  0
 21 25  1  0  0  0  0
 23 24  1  0  0  0  0
 23 20  1  0  0  0  0
 25 19  2  0  0  0  0
 27 31  1  0  0  0  0
 28 27  1  0  0  0  0
 29 30  1  0  0  0  0
 29 28  1  0  0  0  0
 30 32  1  0  0  0  0
 31 26  1  0  0  0  0
 32 26  1  0  0  0  0
M  END
>  <MODEL>
7

>  <REMARK>
 VINA RESULT:      -9.1      3.181      4.909
  Name = 
  2 active torsions:
  status: ('A' for Active; 'I' for Inactive)
    1  A    between atoms: C_10  and  C_17
    2  A    between atoms: C_16  and  C_27
                            x       y       z     vdW  Elec       q    Type
                         _______ _______ _______ _____ _____    ______ ____

>  <TORSDO>
F 2

$$$$
=
 OpenBabel11052414363D

 32 36  0  0  1  0  0  0  0  0999 V2000
  189.9880  177.6590  140.4160 C   0  0  0  0  0  0  0  0  0  0  0  0
  189.0800  178.0060  142.7280 C   0  0  2  0  0  3  0  0  0  0  0  0
  191.0400  177.6780  139.6470 N   0  0  0  0  0  0  0  0  0  0  0  0
  190.1060  177.2680  141.8650 C   0  0  2  0  0  3  0  0  0  0  0  0
  189.0030  177.3860  143.9830 O   0  0  0  0  0  0  0  0  0  0  0  0
  187.7010  178.2220  142.0390 C   0  0  1  0  0  3  0  0  0  0  0  0
  191.3000  177.5090  144.8380 C   0  0  2  0  0  3  0  0  0  0  0  0
  191.4980  177.5430  142.4400 C   0  0  1  0  0  3  0  0  0  0  0  0
  191.6720  176.7390  143.6450 N   0  0  0  0  0  2  0  0  0  0  0  0
  192.5860  177.2440  141.4480 C   0  0  0  0  0  3  0  0  0  0  0  0
  187.5860  177.4390  140.8050 N   0  0  0  0  0  2  0  0  0  0  0  0
  191.4190  176.6210  146.0600 C   0  0  0  0  0  1  0  0  0  0  0  0
  188.6070  177.8930  139.8540 C   0  0  2  0  0  3  0  0  0  0  0  0
  189.8860  178.1230  144.7880 C   0  0  0  0  0  2  0  0  0  0  0  0
  192.3530  177.3660  140.1390 C   0  0  0  0  0  3  0  0  0  0  0  0
  187.4370  177.7570  136.2810 C   0  0  0  0  0  0  0  0  0  0  0  0
  188.7420  174.9040  134.7310 O   0  0  0  0  0  1  0  0  0  0  0  0
  186.4290  178.2680  135.5260 F   0  0  0  0  0  0  0  0  0  0  0  0
  189.0580  175.2950  137.0240 C   0  0  0  0  0  3  0  0  0  0  0  0
  188.4060  177.2270  138.5190 C   0  0  0  0  0  0  0  0  0  0  0  0
  188.6410  177.2400  135.5680 C   0  0  0  0  0  2  0  0  0  0  0  0
  189.1040  176.1050  138.2570 C   0  0  0  0  0  3  0  0  0  0  0  0
  187.3520  177.7770  137.6210 C   0  0  0  0  0  0  0  0  0  0  0  0
  186.1520  178.4110  138.2470 C   0  0  0  0  0  1  0  0  0  0  0  0
  188.8070  175.7780  135.8090 C   0  0  0  0  0  0  0  0  0  0  0  0
  183.5840  178.8070  144.3920 C   0  0  0  0  0  2  0  0  0  0  0  0
  185.7730  177.9640  145.3910 C   0  0  0  0  0  2  0  0  0  0  0  0
  186.8750  178.3270  144.4040 C   0  0  0  0  0  2  0  0  0  0  0  0
  186.4910  178.0020  142.9580 C   0  0  0  0  0  3  0  0  0  0  0  0
  185.3060  178.8590  142.5130 C   0  0  0  0  0  2  0  0  0  0  0  0
  184.7140  179.0570  145.3950 C   0  0  0  0  0  2  0  0  0  0  0  0
  184.0140  178.2460  143.0330 C   0  0  0  0  0  2  0  0  0  0  0  0
  2  5  1  1  0  0  0
  3 15  1  0  0  0  0
  3  1  2  0  0  0  0
  4  1  1  6  0  0  0
  4  8  1  0  0  0  0
  4  2  1  0  0  0  0
  5 14  1  0  0  0  0
  6  2  1  0  0  0  0
  6 29  1  1  0  0  0
  7 12  1  1  0  0  0
  8 10  1  6  0  0  0
  8  9  1  0  0  0  0
  9  7  1  0  0  0  0
 11  6  1  0  0  0  0
 13 20  1  6  0  0  0
 13  1  1  0  0  0  0
 13 11  1  0  0  0  0
 14  7  1  0  0  0  0
 15 10  2  0  0  0  0
 16 23  2  0  0  0  0
 17 25  1  0  0  0  0
 18 16  1  0  0  0  0
 19 22  1  0  0  0  0
 21 25  1  0  0  0  0
 21 16  1  0  0  0  0
 22 20  2  0  0  0  0
 23 24  1  0  0  0  0
 23 20  1  0  0  0  0
 25 19  2  0  0  0  0
 26 31  1  0  0  0  0
 27 31  1  0  0  0  0
 28 27  1  0  0  0  0
 29 28  1  0  0  0  0
 30 29  1  0  0  0  0
 30 32  1  0  0  0  0
 32 26  1  0  0  0  0
M  END
>  <MODEL>
8

>  <REMARK>
 VINA RESULT:      -9.0      2.881      7.011
  Name = 
  2 active torsions:
  status: ('A' for Active; 'I' for Inactive)
    1  A    between atoms: C_10  and  C_17
    2  A    between atoms: C_16  and  C_27
                            x       y       z     vdW  Elec       q    Type
                         _______ _______ _______ _____ _____    ______ ____

>  <TORSDO>
F 2

$$$$
=
 OpenBabel11052414363D

 32 36  0  0  1  0  0  0  0  0999 V2000
  185.6390  178.7540  141.9180 C   0  0  0  0  0  0  0  0  0  0  0  0
  184.9570  178.5460  139.5130 C   0  0  2  0  0  3  0  0  0  0  0  0
  185.3130  179.1710  143.1090 N   0  0  0  0  0  0  0  0  0  0  0  0
  184.5860  178.2480  140.9680 C   0  0  2  0  0  3  0  0  0  0  0  0
  184.1370  177.7880  138.6650 O   0  0  0  0  0  0  0  0  0  0  0  0
  186.4770  178.4270  139.2030 C   0  0  1  0  0  3  0  0  0  0  0  0
  181.8630  178.4790  139.2780 C   0  0  2  0  0  3  0  0  0  0  0  0
  183.2060  178.8500  141.2420 C   0  0  1  0  0  3  0  0  0  0  0  0
  182.1950  177.9970  140.6250 N   0  0  0  0  0  2  0  0  0  0  0  0
  182.9390  179.0020  142.7120 C   0  0  0  0  0  3  0  0  0  0  0  0
  187.2060  177.7950  140.3070 N   0  0  0  0  0  2  0  0  0  0  0  0
  180.8710  177.5290  138.6410 C   0  0  0  0  0  1  0  0  0  0  0  0
  187.0860  178.6370  141.5030 C   0  0  2  0  0  3  0  0  0  0  0  0
  183.0780  178.6520  138.3440 C   0  0  0  0  0  2  0  0  0  0  0  0
  183.9500  179.2030  143.5610 C   0  0  0  0  0  3  0  0  0  0  0  0
  190.3540  178.1830  143.3100 C   0  0  0  0  0  0  0  0  0  0  0  0
  189.7650  176.7520  146.4490 O   0  0  0  0  0  1  0  0  0  0  0  0
  191.6750  178.0900  143.0050 F   0  0  0  0  0  0  0  0  0  0  0  0
  188.0260  177.0410  144.8990 C   0  0  0  0  0  3  0  0  0  0  0  0
  187.9610  178.1020  142.6040 C   0  0  0  0  0  0  0  0  0  0  0  0
  189.9910  178.5180  144.7180 C   0  0  0  0  0  2  0  0  0  0  0  0
  187.3650  177.6130  143.7090 C   0  0  0  0  0  3  0  0  0  0  0  0
  189.4280  178.0280  142.3510 C   0  0  0  0  0  0  0  0  0  0  0  0
  189.8900  177.7970  140.9480 C   0  0  0  0  0  1  0  0  0  0  0  0
  189.2280  177.4020  145.3450 C   0  0  0  0  0  0  0  0  0  0  0  0
  188.7110  176.1020  135.6770 C   0  0  0  0  0  2  0  0  0  0  0  0
  187.3420  178.2390  135.4300 C   0  0  0  0  0  2  0  0  0  0  0  0
  187.1790  178.8200  136.8280 C   0  0  0  0  0  2  0  0  0  0  0  0
  186.8000  177.7560  137.8600 C   0  0  0  0  0  3  0  0  0  0  0  0
  187.9290  176.7360  138.0190 C   0  0  0  0  0  2  0  0  0  0  0  0
  188.7120  177.5890  135.3070 C   0  0  0  0  0  2  0  0  0  0  0  0
  187.8550  175.7200  136.8890 C   0  0  0  0  0  2  0  0  0  0  0  0
  1  3  2  0  0  0  0
  2  5  1  6  0  0  0
  2  4  1  0  0  0  0
  3 15  1  0  0  0  0
  4  8  1  0  0  0  0
  4  1  1  1  0  0  0
  6 29  1  6  0  0  0
  6  2  1  0  0  0  0
  6 11  1  0  0  0  0
  7 12  1  6  0  0  0
  7  9  1  0  0  0  0
  8 10  1  1  0  0  0
  9  8  1  0  0  0  0
 10 15  2  0  0  0  0
 11 13  1  0  0  0  0
 13  1  1  0  0  0  0
 13 20  1  1  0  0  0
 14  5  1  0  0  0  0
 14  7  1  0  0  0  0
 16 21  1  0  0  0  0
 18 16  1  0  0  0  0
 19 25  2  0  0  0  0
 20 22  2  0  0  0  0
 21 25  1  0  0  0  0
 22 19  1  0  0  0  0
 23 20  1  0  0  0  0
 23 16  2  0  0  0  0
 24 23  1  0  0  0  0
 25 17  1  0  0  0  0
 26 32  1  0  0  0  0
 27 28  1  0  0  0  0
 28 29  1  0  0  0  0
 29 30  1  0  0  0  0
 31 27  1  0  0  0  0
 31 26  1  0  0  0  0
 32 30  1  0  0  0  0
M  END
>  <MODEL>
9

>  <REMARK>
 VINA RESULT:      -9.0      2.751      6.375
  Name = 
  2 active torsions:
  status: ('A' for Active; 'I' for Inactive)
    1  A    between atoms: C_10  and  C_17
    2  A    between atoms: C_16  and  C_27
                            x       y       z     vdW  Elec       q    Type
                         _______ _______ _______ _____ _____    ______ ____

>  <TORSDO>
F 2

$$$$
