=
 OpenBabel11052414513D

 55 60  0  0  1  0  0  0  0  0999 V2000
  185.4290  175.9700  135.7210 C   0  0  0  0  0  2  0  0  0  0  0  0
  186.6140  178.4420  140.4520 C   0  0  0  0  0  2  0  0  0  0  0  0
  183.8030  179.1400  141.4060 C   0  0  0  0  0  1  0  0  0  0  0  0
  181.2170  177.7570  138.2990 C   0  0  0  0  0  2  0  0  0  0  0  0
  179.9880  178.4130  137.6810 C   0  0  0  0  0  2  0  0  0  0  0  0
  182.2990  177.7480  135.9850 C   0  0  1  0  0  3  0  0  0  0  0  0
  181.0070  178.3260  135.4100 C   0  0  0  0  0  2  0  0  0  0  0  0
  183.8970  177.4900  139.5400 C   0  0  0  0  0  2  0  0  0  0  0  0
  179.8040  177.9200  136.2520 C   0  0  0  0  0  2  0  0  0  0  0  0
  186.2020  178.1530  136.4280 O   0  0  0  0  0  0  0  0  0  0  0  0
  182.4840  178.0900  137.4910 C   0  0  2  0  0  3  0  0  0  0  0  0
  188.5310  177.6820  136.7470 C   0  0  1  0  0  0  0  0  0  0  0  0
  185.1120  175.4330  137.1190 C   0  0  0  0  0  2  0  0  0  0  0  0
  187.8500  176.4390  136.2540 C   0  0  0  0  0  2  0  0  0  0  0  0
  182.5500  175.5270  136.7080 C   0  0  2  0  0  3  0  0  0  0  0  0
  187.9240  178.9040  140.2440 O   0  0  0  0  0  0  0  0  0  0  0  0
  182.4740  176.3900  135.5900 O   0  0  0  0  0  0  0  0  0  0  0  0
  185.6320  179.3290  139.6990 C   0  0  0  0  0  2  0  0  0  0  0  0
  184.1780  178.9300  139.9500 C   0  0  2  0  0  3  0  0  0  0  0  0
  187.3880  178.6520  137.0040 C   0  0  0  0  0  2  0  0  0  0  0  0
  188.7990  177.7970  140.1950 C   0  0  2  0  0  3  0  0  0  0  0  0
  186.5540  176.9960  135.7100 C   0  0  1  0  0  3  0  0  0  0  0  0
  183.7250  177.3500  138.0290 C   0  0  2  0  0  3  0  0  0  0  0  0
  183.7330  175.8660  137.6380 C   0  0  2  0  0  3  0  0  0  0  0  0
  188.5950  176.9370  138.9500 C   0  0  0  0  0  2  0  0  0  0  0  0
  189.3480  177.4700  137.8870 O   0  0  0  0  0  0  0  0  0  0  0  0
  189.3240  178.1960  135.7180 O   0  0  0  0  0  1  0  0  0  0  0  0
  181.4290  173.3550  137.2690 C   0  0  0  0  0  2  0  0  0  0  0  0
  180.1130  172.3770  135.3350 C   0  0  2  0  0  3  0  0  0  0  0  0
  182.1200  173.8450  134.8400 C   0  0  0  0  0  2  0  0  0  0  0  0
  181.4570  172.4940  134.5940 C   0  0  0  0  0  2  0  0  0  0  0  0
  180.0530  173.2240  136.6190 C   0  0  0  0  0  2  0  0  0  0  0  0
  182.4310  174.0490  136.3330 C   0  0  1  0  0  3  0  0  0  0  0  0
  179.7620  170.9430  135.6140 C   0  0  0  0  0  0  0  0  0  0  0  0
  179.2520  170.6240  136.7200 O   0  0  0  0  0  1  0  0  0  0  0  0
  179.9390  169.9640  134.6410 O   0  0  0  0  0  0  0  0  0  0  0  0
  188.8300  176.9850  141.4960 C   0  0  0  0  0  2  0  0  0  0  0  0
  191.5060  175.5960  143.6610 O   0  0  0  0  0  0  0  0  0  0  0  0
  191.7400  177.7080  140.4660 O   0  0  0  0  0  0  0  0  0  0  0  0
  191.7950  176.6800  144.5280 C   0  0  1  0  0  3  0  0  0  0  0  0
  191.3510  178.0660  144.0340 C   0  0  0  0  0  2  0  0  0  0  0  0
  191.2780  177.4890  141.6150 C   0  0  0  0  0  0  0  0  0  0  0  0
  190.2170  176.4210  141.7740 C   0  0  1  0  0  3  0  0  0  0  0  0
  191.7590  178.2570  142.6870 O   0  0  0  0  0  0  0  0  0  0  0  0
  190.2060  175.7480  143.1460 C   0  0  0  0  0  2  0  0  0  0  0  0
  191.4410  176.4020  145.9940 C   0  0  0  0  0  2  0  0  0  0  0  0
  190.7620  177.5770  146.6910 C   0  0  0  0  0  2  0  0  0  0  0  0
  189.2490  177.4050  146.7300 C   0  0  1  0  0  3  0  0  0  0  0  0
  188.6660  178.0690  147.9790 C   0  0  0  0  0  3  0  0  0  0  0  0
  187.6670  177.2700  148.5340 O   0  0  0  0  0  1  0  0  0  0  0  0
  189.6720  178.2600  148.9240 O   0  0  0  0  0  1  0  0  0  0  0  0
  188.6970  177.9860  145.5550 O   0  0  0  0  0  0  0  0  0  0  0  0
  187.4600  177.5880  145.0420 C   0  0  0  0  0  0  0  0  0  0  0  0
  186.4280  178.2890  145.2220 O   0  0  0  0  0  0  0  0  0  0  0  0
  187.3650  176.4290  144.3480 F   0  0  0  0  0  0  0  0  0  0  0  0
  1 13  1  0  0  0  0
  5  4  1  0  0  0  0
  6  7  1  1  0  0  0
  6 11  1  0  0  0  0
  7  9  1  0  0  0  0
  8 19  1  0  0  0  0
  9  5  1  0  0  0  0
 10 20  1  0  0  0  0
 11 23  1  0  0  0  0
 11  4  1  1  0  0  0
 12 27  1  6  0  0  0
 12 20  1  0  0  0  0
 12 26  1  0  0  0  0
 14 12  1  0  0  0  0
 15 17  1  6  0  0  0
 15 24  1  0  0  0  0
 16  2  1  0  0  0  0
 17  6  1  0  0  0  0
 18 19  1  0  0  0  0
 18  2  1  0  0  0  0
 19  3  1  1  0  0  0
 21 16  1  0  0  0  0
 21 37  1  1  0  0  0
 22  1  1  1  0  0  0
 22 14  1  0  0  0  0
 22 10  1  0  0  0  0
 23  8  1  1  0  0  0
 24 13  1  6  0  0  0
 24 23  1  0  0  0  0
 25 21  1  0  0  0  0
 26 25  1  0  0  0  0
 29 34  1  1  0  0  0
 29 32  1  0  0  0  0
 31 30  1  0  0  0  0
 31 29  1  0  0  0  0
 32 28  1  0  0  0  0
 33 30  1  6  0  0  0
 33 15  1  0  0  0  0
 33 28  1  0  0  0  0
 34 35  1  0  0  0  0
 36 34  2  0  0  0  0
 38 40  1  0  0  0  0
 39 42  2  0  0  0  0
 40 46  1  1  0  0  0
 41 40  1  0  0  0  0
 42 43  1  0  0  0  0
 42 44  1  0  0  0  0
 43 37  1  1  0  0  0
 43 45  1  0  0  0  0
 44 41  1  0  0  0  0
 45 38  1  0  0  0  0
 46 47  1  0  0  0  0
 48 47  1  6  0  0  0
 48 49  1  0  0  0  0
 49 50  1  0  0  0  0
 49 51  1  0  0  0  0
 52 48  1  0  0  0  0
 53 54  2  0  0  0  0
 53 52  1  0  0  0  0
 55 53  1  0  0  0  0
M  END
>  <MODEL>
1

>  <REMARK>
 VINA RESULT:      -7.9      0.000      0.000
  Name = 
  10 active torsions:
  status: ('A' for Active; 'I' for Inactive)
    1  A    between atoms: C_1  and  O_53
    2  A    between atoms: C_3  and  C_12
    3  A    between atoms: C_3  and  C_38
    4  A    between atoms: C_8  and  C_22
    5  A    between atoms: C_8  and  C_43
    6  A    between atoms: C_10  and  C_32
    7  A    between atoms: C_11  and  C_29
    8  A    between atoms: C_29  and  C_38
    9  A    between atoms: C_29  and  O_53
   10  A    between atoms: C_33  and  C_52
                            x       y       z     vdW  Elec       q    Type
                         _______ _______ _______ _____ _____    ______ ____

>  <TORSDO>
F 10

$$$$
=
 OpenBabel11052414513D

 55 60  0  0  1  0  0  0  0  0999 V2000
  185.6200  175.5390  135.6140 C   0  0  0  0  0  2  0  0  0  0  0  0
  186.6580  178.3340  140.1980 C   0  0  0  0  0  2  0  0  0  0  0  0
  183.8170  179.0680  141.0280 C   0  0  0  0  0  1  0  0  0  0  0  0
  181.3260  177.4540  137.9540 C   0  0  0  0  0  2  0  0  0  0  0  0
  180.1100  178.0550  137.2600 C   0  0  0  0  0  2  0  0  0  0  0  0
  182.4710  177.3010  135.6750 C   0  0  1  0  0  3  0  0  0  0  0  0
  181.1900  177.8260  135.0290 C   0  0  0  0  0  2  0  0  0  0  0  0
  183.9740  177.2970  139.2810 C   0  0  0  0  0  2  0  0  0  0  0  0
  179.9680  177.4650  135.8640 C   0  0  0  0  0  2  0  0  0  0  0  0
  186.3570  177.7720  136.1930 O   0  0  0  0  0  0  0  0  0  0  0  0
  182.6130  177.7440  137.1590 C   0  0  2  0  0  3  0  0  0  0  0  0
  188.6800  177.3470  136.6040 C   0  0  1  0  0  0  0  0  0  0  0  0
  185.2700  175.0950  137.0360 C   0  0  0  0  0  2  0  0  0  0  0  0
  188.0230  176.0670  136.1780 C   0  0  0  0  0  2  0  0  0  0  0  0
  182.7190  175.1350  136.5520 C   0  0  2  0  0  3  0  0  0  0  0  0
  187.9700  178.7940  139.9940 O   0  0  0  0  0  0  0  0  0  0  0  0
  182.6670  175.9200  135.3770 O   0  0  0  0  0  0  0  0  0  0  0  0
  185.6890  179.1600  139.3610 C   0  0  0  0  0  2  0  0  0  0  0  0
  184.2330  178.7640  139.6000 C   0  0  2  0  0  3  0  0  0  0  0  0
  187.5230  178.3200  136.7660 C   0  0  0  0  0  2  0  0  0  0  0  0
  188.8540  177.6950  140.0420 C   0  0  2  0  0  3  0  0  0  0  0  0
  186.7380  176.5730  135.5640 C   0  0  1  0  0  3  0  0  0  0  0  0
  183.8440  177.0550  137.7780 C   0  0  2  0  0  3  0  0  0  0  0  0
  183.8750  175.5470  137.4880 C   0  0  2  0  0  3  0  0  0  0  0  0
  188.6910  176.7510  138.8530 C   0  0  0  0  0  2  0  0  0  0  0  0
  189.4680  177.2200  137.7770 O   0  0  0  0  0  0  0  0  0  0  0  0
  189.4960  177.7970  135.5640 O   0  0  0  0  0  1  0  0  0  0  0  0
  183.2820  173.3130  134.9240 C   0  0  0  0  0  2  0  0  0  0  0  0
  184.7270  171.4860  135.9240 C   0  0  2  0  0  3  0  0  0  0  0  0
  183.1650  172.7870  137.4400 C   0  0  0  0  0  2  0  0  0  0  0  0
  183.5940  171.4030  136.9620 C   0  0  0  0  0  2  0  0  0  0  0  0
  184.7040  172.7890  135.1040 C   0  0  0  0  0  2  0  0  0  0  0  0
  182.6230  173.6340  136.2750 C   0  0  1  0  0  3  0  0  0  0  0  0
  184.7410  170.2810  135.0280 C   0  0  0  0  0  0  0  0  0  0  0  0
  183.6580  169.8070  134.5940 O   0  0  0  0  0  0  0  0  0  0  0  0
  185.9420  169.7110  134.6170 O   0  0  0  0  0  1  0  0  0  0  0  0
  188.8560  176.9730  141.3950 C   0  0  0  0  0  2  0  0  0  0  0  0
  191.4780  175.7500  143.7210 O   0  0  0  0  0  0  0  0  0  0  0  0
  191.7890  177.6780  140.4190 O   0  0  0  0  0  0  0  0  0  0  0  0
  191.7240  176.8850  144.5330 C   0  0  1  0  0  3  0  0  0  0  0  0
  191.2790  178.2340  143.9470 C   0  0  0  0  0  2  0  0  0  0  0  0
  191.2920  177.5190  141.5630 C   0  0  0  0  0  0  0  0  0  0  0  0
  190.2410  176.4460  141.7490 C   0  0  1  0  0  3  0  0  0  0  0  0
  191.7280  178.3540  142.6040 O   0  0  0  0  0  0  0  0  0  0  0  0
  190.1930  175.8520  143.1570 C   0  0  0  0  0  2  0  0  0  0  0  0
  191.3270  176.6860  146.0010 C   0  0  0  0  0  2  0  0  0  0  0  0
  190.3980  177.7720  146.5340 C   0  0  0  0  0  2  0  0  0  0  0  0
  189.1340  177.1790  147.1410 C   0  0  1  0  0  3  0  0  0  0  0  0
  188.4830  178.1740  148.1030 C   0  0  0  0  0  3  0  0  0  0  0  0
  187.5700  177.5250  148.9340 O   0  0  0  0  0  1  0  0  0  0  0  0
  189.4620  178.7790  148.8900 O   0  0  0  0  0  1  0  0  0  0  0  0
  188.2380  176.8470  146.0880 O   0  0  0  0  0  0  0  0  0  0  0  0
  187.4640  177.8140  145.4410 C   0  0  0  0  0  0  0  0  0  0  0  0
  186.2890  178.0640  145.8200 O   0  0  0  0  0  0  0  0  0  0  0  0
  187.9800  178.4870  144.3850 F   0  0  0  0  0  0  0  0  0  0  0  0
  1 13  1  0  0  0  0
  5  4  1  0  0  0  0
  6  7  1  1  0  0  0
  6 11  1  0  0  0  0
  7  9  1  0  0  0  0
  8 19  1  0  0  0  0
  9  5  1  0  0  0  0
 10 20  1  0  0  0  0
 11 23  1  0  0  0  0
 11  4  1  1  0  0  0
 12 27  1  6  0  0  0
 12 20  1  0  0  0  0
 12 26  1  0  0  0  0
 14 12  1  0  0  0  0
 15 17  1  6  0  0  0
 15 24  1  0  0  0  0
 16 21  1  0  0  0  0
 16  2  1  0  0  0  0
 17  6  1  0  0  0  0
 18 19  1  0  0  0  0
 18  2  1  0  0  0  0
 19  3  1  1  0  0  0
 21 37  1  1  0  0  0
 22  1  1  1  0  0  0
 22 14  1  0  0  0  0
 22 10  1  0  0  0  0
 23  8  1  1  0  0  0
 24 13  1  6  0  0  0
 24 23  1  0  0  0  0
 25 21  1  0  0  0  0
 26 25  1  0  0  0  0
 28 32  1  0  0  0  0
 29 34  1  6  0  0  0
 29 31  1  0  0  0  0
 31 30  1  0  0  0  0
 32 29  1  0  0  0  0
 33 28  1  6  0  0  0
 33 15  1  0  0  0  0
 33 30  1  0  0  0  0
 35 34  2  0  0  0  0
 36 34  1  0  0  0  0
 38 40  1  0  0  0  0
 39 42  2  0  0  0  0
 40 46  1  1  0  0  0
 41 40  1  0  0  0  0
 42 43  1  0  0  0  0
 42 44  1  0  0  0  0
 43 37  1  1  0  0  0
 43 45  1  0  0  0  0
 44 41  1  0  0  0  0
 45 38  1  0  0  0  0
 46 47  1  0  0  0  0
 48 47  1  6  0  0  0
 48 49  1  0  0  0  0
 49 51  1  0  0  0  0
 49 50  1  0  0  0  0
 52 48  1  0  0  0  0
 53 54  2  0  0  0  0
 53 52  1  0  0  0  0
 55 53  1  0  0  0  0
M  END
>  <MODEL>
2

>  <REMARK>
 VINA RESULT:      -7.2      1.434      1.788
  Name = 
  10 active torsions:
  status: ('A' for Active; 'I' for Inactive)
    1  A    between atoms: C_1  and  O_53
    2  A    between atoms: C_3  and  C_12
    3  A    between atoms: C_3  and  C_38
    4  A    between atoms: C_8  and  C_22
    5  A    between atoms: C_8  and  C_43
    6  A    between atoms: C_10  and  C_32
    7  A    between atoms: C_11  and  C_29
    8  A    between atoms: C_29  and  C_38
    9  A    between atoms: C_29  and  O_53
   10  A    between atoms: C_33  and  C_52
                            x       y       z     vdW  Elec       q    Type
                         _______ _______ _______ _____ _____    ______ ____

>  <TORSDO>
F 10

$$$$
=
 OpenBabel11052414513D

 55 60  0  0  1  0  0  0  0  0999 V2000
  185.1990  175.9800  136.3220 C   0  0  0  0  0  2  0  0  0  0  0  0
  184.6300  178.6090  141.0820 C   0  0  0  0  0  2  0  0  0  0  0  0
  181.6230  178.3140  141.4970 C   0  0  0  0  0  1  0  0  0  0  0  0
  180.2430  176.2120  138.0430 C   0  0  0  0  0  2  0  0  0  0  0  0
  178.9980  176.4350  137.1910 C   0  0  0  0  0  2  0  0  0  0  0  0
  181.6640  176.6110  135.9570 C   0  0  1  0  0  3  0  0  0  0  0  0
  180.3790  176.7370  135.1410 C   0  0  0  0  0  2  0  0  0  0  0  0
  182.5910  176.8270  139.7460 C   0  0  0  0  0  2  0  0  0  0  0  0
  179.2470  175.9370  135.7740 C   0  0  0  0  0  2  0  0  0  0  0  0
  185.0660  178.2820  137.0640 O   0  0  0  0  0  0  0  0  0  0  0  0
  181.4520  176.9640  137.4570 C   0  0  2  0  0  3  0  0  0  0  0  0
  187.3230  178.6060  137.8070 C   0  0  1  0  0  0  0  0  0  0  0  0
  184.8320  175.3410  137.6620 C   0  0  0  0  0  2  0  0  0  0  0  0
  187.1910  177.2180  137.2530 C   0  0  0  0  0  2  0  0  0  0  0  0
  182.5010  174.5850  136.8040 C   0  0  2  0  0  3  0  0  0  0  0  0
  185.7280  179.4850  141.0890 O   0  0  0  0  0  0  0  0  0  0  0  0
  182.3460  175.3960  135.6560 O   0  0  0  0  0  0  0  0  0  0  0  0
  183.5610  179.1350  140.1330 C   0  0  0  0  0  2  0  0  0  0  0  0
  182.3020  178.2700  140.1400 C   0  0  2  0  0  3  0  0  0  0  0  0
  185.8960  179.1340  137.8190 C   0  0  0  0  0  2  0  0  0  0  0  0
  186.9140  178.7330  141.2400 C   0  0  2  0  0  3  0  0  0  0  0  0
  185.9040  177.3230  136.4670 C   0  0  1  0  0  3  0  0  0  0  0  0
  182.7490  176.6690  138.2350 C   0  0  2  0  0  3  0  0  0  0  0  0
  183.3180  175.2790  137.9130 C   0  0  2  0  0  3  0  0  0  0  0  0
  187.2330  177.8800  140.0150 C   0  0  0  0  0  2  0  0  0  0  0  0
  187.9450  178.6550  139.0810 O   0  0  0  0  0  0  0  0  0  0  0  0
  188.0720  179.3750  136.9130 O   0  0  0  0  0  1  0  0  0  0  0  0
  183.6690  173.1420  135.1180 C   0  0  0  0  0  2  0  0  0  0  0  0
  185.6800  171.9220  136.0650 C   0  0  2  0  0  3  0  0  0  0  0  0
  183.7640  172.5240  137.6140 C   0  0  0  0  0  2  0  0  0  0  0  0
  184.6580  171.4030  137.0920 C   0  0  0  0  0  2  0  0  0  0  0  0
  185.1860  173.1570  135.2900 C   0  0  0  0  0  2  0  0  0  0  0  0
  182.9470  173.1590  136.4750 C   0  0  1  0  0  3  0  0  0  0  0  0
  186.1190  170.8330  135.1280 C   0  0  0  0  0  0  0  0  0  0  0  0
  187.2580  170.8840  134.5950 O   0  0  0  0  0  0  0  0  0  0  0  0
  185.3040  169.7310  134.8840 O   0  0  0  0  0  1  0  0  0  0  0  0
  186.9770  177.9520  142.5580 C   0  0  0  0  0  2  0  0  0  0  0  0
  190.6670  178.3410  142.6270 O   0  0  0  0  0  0  0  0  0  0  0  0
  188.2990  176.6650  145.1370 O   0  0  0  0  0  0  0  0  0  0  0  0
  191.1180  177.1170  142.0690 C   0  0  1  0  0  3  0  0  0  0  0  0
  190.1060  175.9610  142.0950 C   0  0  0  0  0  2  0  0  0  0  0  0
  188.7230  176.8420  143.9660 C   0  0  0  0  0  0  0  0  0  0  0  0
  188.3280  178.1120  143.2420 C   0  0  1  0  0  3  0  0  0  0  0  0
  189.5270  175.8490  143.3880 O   0  0  0  0  0  0  0  0  0  0  0  0
  189.3480  178.5850  142.2060 C   0  0  0  0  0  2  0  0  0  0  0  0
  191.8330  177.2850  140.7240 C   0  0  0  0  0  2  0  0  0  0  0  0
  190.8900  177.2730  139.5250 C   0  0  0  0  0  2  0  0  0  0  0  0
  191.4450  176.4320  138.3840 C   0  0  1  0  0  3  0  0  0  0  0  0
  192.9530  176.2340  138.5490 C   0  0  0  0  0  3  0  0  0  0  0  0
  193.3010  174.9070  138.2980 O   0  0  0  0  0  1  0  0  0  0  0  0
  193.6370  177.0600  137.6590 O   0  0  0  0  0  1  0  0  0  0  0  0
  190.7770  175.1770  138.3790 O   0  0  0  0  0  0  0  0  0  0  0  0
  190.0980  174.7030  137.2530 C   0  0  0  0  0  0  0  0  0  0  0  0
  189.9330  175.4340  136.2400 O   0  0  0  0  0  0  0  0  0  0  0  0
  189.6040  173.4420  137.2520 F   0  0  0  0  0  0  0  0  0  0  0  0
  1 13  1  0  0  0  0
  2 16  1  0  0  0  0
  5  4  1  0  0  0  0
  6  7  1  6  0  0  0
  6 11  1  0  0  0  0
  7  9  1  0  0  0  0
  8 19  1  0  0  0  0
  9  5  1  0  0  0  0
 10 20  1  0  0  0  0
 11  4  1  1  0  0  0
 11 23  1  0  0  0  0
 12 27  1  6  0  0  0
 12 20  1  0  0  0  0
 12 26  1  0  0  0  0
 14 12  1  0  0  0  0
 15 17  1  6  0  0  0
 15 24  1  0  0  0  0
 16 21  1  0  0  0  0
 17  6  1  0  0  0  0
 18 19  1  0  0  0  0
 18  2  1  0  0  0  0
 19  3  1  1  0  0  0
 21 37  1  1  0  0  0
 22  1  1  1  0  0  0
 22 10  1  0  0  0  0
 22 14  1  0  0  0  0
 23  8  1  1  0  0  0
 24 13  1  6  0  0  0
 24 23  1  0  0  0  0
 25 21  1  0  0  0  0
 26 25  1  0  0  0  0
 28 32  1  0  0  0  0
 29 34  1  6  0  0  0
 29 31  1  0  0  0  0
 31 30  1  0  0  0  0
 32 29  1  0  0  0  0
 33 28  1  6  0  0  0
 33 15  1  0  0  0  0
 33 30  1  0  0  0  0
 35 34  2  0  0  0  0
 36 34  1  0  0  0  0
 40 46  1  6  0  0  0
 40 41  1  0  0  0  0
 40 38  1  0  0  0  0
 41 44  1  0  0  0  0
 42 39  2  0  0  0  0
 43 37  1  6  0  0  0
 43 42  1  0  0  0  0
 44 42  1  0  0  0  0
 45 38  1  0  0  0  0
 45 43  1  0  0  0  0
 47 46  1  0  0  0  0
 48 49  1  0  0  0  0
 48 47  1  1  0  0  0
 50 49  1  0  0  0  0
 51 49  1  0  0  0  0
 52 48  1  0  0  0  0
 53 52  1  0  0  0  0
 54 53  2  0  0  0  0
 55 53  1  0  0  0  0
M  END
>  <MODEL>
3

>  <REMARK>
 VINA RESULT:      -6.0      2.614      4.834
  Name = 
  10 active torsions:
  status: ('A' for Active; 'I' for Inactive)
    1  A    between atoms: C_1  and  O_53
    2  A    between atoms: C_3  and  C_12
    3  A    between atoms: C_3  and  C_38
    4  A    between atoms: C_8  and  C_22
    5  A    between atoms: C_8  and  C_43
    6  A    between atoms: C_10  and  C_32
    7  A    between atoms: C_11  and  C_29
    8  A    between atoms: C_29  and  C_38
    9  A    between atoms: C_29  and  O_53
   10  A    between atoms: C_33  and  C_52
                            x       y       z     vdW  Elec       q    Type
                         _______ _______ _______ _____ _____    ______ ____

>  <TORSDO>
F 10

$$$$
=
 OpenBabel11052414513D

 55 60  0  0  1  0  0  0  0  0999 V2000
  185.3870  175.5080  135.0730 C   0  0  0  0  0  2  0  0  0  0  0  0
  187.0210  178.3470  139.4510 C   0  0  0  0  0  2  0  0  0  0  0  0
  184.3210  179.2800  140.5180 C   0  0  0  0  0  1  0  0  0  0  0  0
  181.4580  177.7500  137.7400 C   0  0  0  0  0  2  0  0  0  0  0  0
  180.2200  178.4090  137.1430 C   0  0  0  0  0  2  0  0  0  0  0  0
  182.3700  177.4670  135.3700 C   0  0  1  0  0  3  0  0  0  0  0  0
  181.0680  178.0550  134.8290 C   0  0  0  0  0  2  0  0  0  0  0  0
  184.2050  177.4590  138.8190 C   0  0  0  0  0  2  0  0  0  0  0  0
  179.9110  177.7940  135.7850 C   0  0  0  0  0  2  0  0  0  0  0  0
  186.3090  177.7040  135.5110 O   0  0  0  0  0  0  0  0  0  0  0  0
  182.6780  177.9380  136.8200 C   0  0  2  0  0  3  0  0  0  0  0  0
  188.6310  177.1430  135.7180 C   0  0  1  0  0  0  0  0  0  0  0  0
  185.1470  175.1230  136.5340 C   0  0  0  0  0  2  0  0  0  0  0  0
  187.8600  175.8970  135.3950 C   0  0  0  0  0  2  0  0  0  0  0  0
  182.5690  175.3130  136.2880 C   0  0  2  0  0  3  0  0  0  0  0  0
  188.3330  178.7170  139.1120 O   0  0  0  0  0  0  0  0  0  0  0  0
  182.4530  176.0700  135.0990 O   0  0  0  0  0  0  0  0  0  0  0  0
  186.0290  179.2110  138.6830 C   0  0  0  0  0  2  0  0  0  0  0  0
  184.5810  178.9140  139.0670 C   0  0  2  0  0  3  0  0  0  0  0  0
  187.5550  178.1910  135.9560 C   0  0  0  0  0  2  0  0  0  0  0  0
  189.1490  177.5660  139.1130 C   0  0  2  0  0  3  0  0  0  0  0  0
  186.5560  176.4680  134.8870 C   0  0  1  0  0  3  0  0  0  0  0  0
  183.9190  177.1870  137.3430 C   0  0  2  0  0  3  0  0  0  0  0  0
  183.8300  175.6740  137.0990 C   0  0  2  0  0  3  0  0  0  0  0  0
  188.8180  176.6050  137.9740 C   0  0  0  0  0  2  0  0  0  0  0  0
  189.5170  176.9960  136.8170 O   0  0  0  0  0  0  0  0  0  0  0  0
  189.3710  177.5140  134.5940 O   0  0  0  0  0  1  0  0  0  0  0  0
  181.4360  173.2540  137.1640 C   0  0  0  0  0  2  0  0  0  0  0  0
  179.8820  172.1710  135.4790 C   0  0  2  0  0  3  0  0  0  0  0  0
  181.8770  173.4940  134.6410 C   0  0  0  0  0  2  0  0  0  0  0  0
  181.1410  172.1580  134.5940 C   0  0  0  0  0  2  0  0  0  0  0  0
  179.9940  173.1310  136.6780 C   0  0  0  0  0  2  0  0  0  0  0  0
  182.3560  173.8140  136.0680 C   0  0  1  0  0  3  0  0  0  0  0  0
  179.5110  170.7860  135.9270 C   0  0  0  0  0  0  0  0  0  0  0  0
  179.2250  170.5700  137.1330 O   0  0  0  0  0  1  0  0  0  0  0  0
  179.4200  169.7410  135.0110 O   0  0  0  0  0  0  0  0  0  0  0  0
  189.2350  176.8800  140.4820 C   0  0  0  0  0  2  0  0  0  0  0  0
  190.8300  178.0640  143.6170 O   0  0  0  0  0  0  0  0  0  0  0  0
  187.3740  178.8380  142.1410 O   0  0  0  0  0  0  0  0  0  0  0  0
  190.3340  177.1490  144.5810 C   0  0  1  0  0  3  0  0  0  0  0  0
  189.0600  176.3870  144.1830 C   0  0  0  0  0  2  0  0  0  0  0  0
  188.2730  178.0280  142.4860 C   0  0  0  0  0  0  0  0  0  0  0  0
  189.4900  177.8840  141.5980 C   0  0  1  0  0  3  0  0  0  0  0  0
  188.0930  177.2910  143.6660 O   0  0  0  0  0  0  0  0  0  0  0  0
  190.7630  177.4760  142.3420 C   0  0  0  0  0  2  0  0  0  0  0  0
  191.4200  176.2610  145.1980 C   0  0  0  0  0  2  0  0  0  0  0  0
  192.1120  176.8900  146.4030 C   0  0  0  0  0  2  0  0  0  0  0  0
  191.4810  176.4340  147.7110 C   0  0  1  0  0  3  0  0  0  0  0  0
  192.5620  176.0320  148.7160 C   0  0  0  0  0  3  0  0  0  0  0  0
  193.5510  175.2720  148.0910 O   0  0  0  0  0  1  0  0  0  0  0  0
  193.1460  177.1740  149.2630 O   0  0  0  0  0  1  0  0  0  0  0  0
  190.6920  177.4970  148.2290 O   0  0  0  0  0  0  0  0  0  0  0  0
  189.3010  177.5210  148.0980 C   0  0  0  0  0  0  0  0  0  0  0  0
  188.6590  178.6010  148.1960 O   0  0  0  0  0  0  0  0  0  0  0  0
  188.6310  176.3650  147.8700 F   0  0  0  0  0  0  0  0  0  0  0  0
  1 13  1  0  0  0  0
  5  4  1  0  0  0  0
  6  7  1  1  0  0  0
  6 11  1  0  0  0  0
  7  9  1  0  0  0  0
  8 19  1  0  0  0  0
  9  5  1  0  0  0  0
 10 20  1  0  0  0  0
 11 23  1  0  0  0  0
 11  4  1  1  0  0  0
 12 27  1  6  0  0  0
 12 20  1  0  0  0  0
 12 26  1  0  0  0  0
 14 12  1  0  0  0  0
 15 17  1  6  0  0  0
 15 24  1  0  0  0  0
 16 21  1  0  0  0  0
 16  2  1  0  0  0  0
 17  6  1  0  0  0  0
 18 19  1  0  0  0  0
 18  2  1  0  0  0  0
 19  3  1  1  0  0  0
 21 37  1  1  0  0  0
 22  1  1  1  0  0  0
 22 14  1  0  0  0  0
 22 10  1  0  0  0  0
 23  8  1  1  0  0  0
 24 13  1  6  0  0  0
 24 23  1  0  0  0  0
 25 21  1  0  0  0  0
 26 25  1  0  0  0  0
 29 34  1  1  0  0  0
 29 32  1  0  0  0  0
 31 30  1  0  0  0  0
 31 29  1  0  0  0  0
 32 28  1  0  0  0  0
 33 30  1  6  0  0  0
 33 15  1  0  0  0  0
 33 28  1  0  0  0  0
 34 35  1  0  0  0  0
 36 34  2  0  0  0  0
 38 40  1  0  0  0  0
 39 42  2  0  0  0  0
 40 46  1  6  0  0  0
 41 40  1  0  0  0  0
 42 44  1  0  0  0  0
 43 37  1  6  0  0  0
 43 45  1  0  0  0  0
 43 42  1  0  0  0  0
 44 41  1  0  0  0  0
 45 38  1  0  0  0  0
 46 47  1  0  0  0  0
 48 47  1  6  0  0  0
 48 52  1  0  0  0  0
 48 49  1  0  0  0  0
 49 51  1  0  0  0  0
 50 49  1  0  0  0  0
 53 54  2  0  0  0  0
 53 52  1  0  0  0  0
 55 53  1  0  0  0  0
M  END
>  <MODEL>
4

>  <REMARK>
 VINA RESULT:      -5.8      1.431      2.052
  Name = 
  10 active torsions:
  status: ('A' for Active; 'I' for Inactive)
    1  A    between atoms: C_1  and  O_53
    2  A    between atoms: C_3  and  C_12
    3  A    between atoms: C_3  and  C_38
    4  A    between atoms: C_8  and  C_22
    5  A    between atoms: C_8  and  C_43
    6  A    between atoms: C_10  and  C_32
    7  A    between atoms: C_11  and  C_29
    8  A    between atoms: C_29  and  C_38
    9  A    between atoms: C_29  and  O_53
   10  A    between atoms: C_33  and  C_52
                            x       y       z     vdW  Elec       q    Type
                         _______ _______ _______ _____ _____    ______ ____

>  <TORSDO>
F 10

$$$$
=
 OpenBabel11052414513D

 55 60  0  0  1  0  0  0  0  0999 V2000
  184.1320  176.8820  137.2220 C   0  0  0  0  0  2  0  0  0  0  0  0
  187.0770  178.2160  141.6320 C   0  0  0  0  0  2  0  0  0  0  0  0
  184.8580  179.2110  143.4720 C   0  0  0  0  0  1  0  0  0  0  0  0
  181.2840  178.8830  141.1540 C   0  0  0  0  0  2  0  0  0  0  0  0
  180.1080  179.8440  141.0220 C   0  0  0  0  0  2  0  0  0  0  0  0
  181.6630  179.1030  138.6370 C   0  0  1  0  0  3  0  0  0  0  0  0
  180.4230  179.9910  138.5570 C   0  0  0  0  0  2  0  0  0  0  0  0
  184.0740  177.9330  141.4800 C   0  0  0  0  0  2  0  0  0  0  0  0
  179.4370  179.6560  139.6690 C   0  0  0  0  0  2  0  0  0  0  0  0
  185.5280  178.7330  137.9190 O   0  0  0  0  0  0  0  0  0  0  0  0
  182.3230  179.1300  140.0460 C   0  0  2  0  0  3  0  0  0  0  0  0
  187.6940  177.8140  137.4560 C   0  0  1  0  0  0  0  0  0  0  0  0
  184.0990  176.1660  138.5740 C   0  0  0  0  0  2  0  0  0  0  0  0
  186.6480  176.8180  137.0470 C   0  0  0  0  0  2  0  0  0  0  0  0
  181.6080  176.7780  138.9760 C   0  0  2  0  0  3  0  0  0  0  0  0
  188.3490  178.4720  141.0930 O   0  0  0  0  0  0  0  0  0  0  0  0
  181.4210  177.8280  138.0470 O   0  0  0  0  0  0  0  0  0  0  0  0
  186.1460  179.3820  141.3260 C   0  0  0  0  0  2  0  0  0  0  0  0
  184.7660  179.2040  141.9560 C   0  0  2  0  0  3  0  0  0  0  0  0
  186.9060  178.9050  138.1640 C   0  0  0  0  0  2  0  0  0  0  0  0
  188.9110  177.2570  140.6470 C   0  0  2  0  0  3  0  0  0  0  0  0
  185.4090  177.6810  136.9940 C   0  0  1  0  0  3  0  0  0  0  0  0
  183.4700  178.1000  140.0870 C   0  0  2  0  0  3  0  0  0  0  0  0
  183.0450  176.7320  139.5360 C   0  0  2  0  0  3  0  0  0  0  0  0
  188.1920  176.6840  139.4280 C   0  0  0  0  0  2  0  0  0  0  0  0
  188.7240  177.2600  138.2600 O   0  0  0  0  0  0  0  0  0  0  0  0
  188.2680  178.3580  136.3050 O   0  0  0  0  0  1  0  0  0  0  0  0
  179.9870  175.6720  137.4140 C   0  0  0  0  0  2  0  0  0  0  0  0
  181.0990  174.1080  135.7580 C   0  0  2  0  0  3  0  0  0  0  0  0
  182.1920  174.4900  138.0140 C   0  0  0  0  0  2  0  0  0  0  0  0
  181.6650  173.4510  137.0290 C   0  0  0  0  0  2  0  0  0  0  0  0
  180.5470  175.5240  136.0020 C   0  0  0  0  0  2  0  0  0  0  0  0
  181.0700  175.4350  138.4780 C   0  0  1  0  0  3  0  0  0  0  0  0
  180.0730  173.2320  135.0970 C   0  0  0  0  0  0  0  0  0  0  0  0
  179.0320  173.7430  134.6050 O   0  0  0  0  0  0  0  0  0  0  0  0
  180.2830  171.8620  134.9640 O   0  0  0  0  0  1  0  0  0  0  0  0
  189.1170  176.2310  141.7680 C   0  0  0  0  0  2  0  0  0  0  0  0
  191.6920  176.5250  144.4260 O   0  0  0  0  0  0  0  0  0  0  0  0
  191.8290  177.4910  140.7150 O   0  0  0  0  0  0  0  0  0  0  0  0
  191.5180  177.8580  144.8780 C   0  0  1  0  0  3  0  0  0  0  0  0
  190.7850  178.8000  143.9110 C   0  0  0  0  0  2  0  0  0  0  0  0
  191.2690  177.5060  141.8410 C   0  0  0  0  0  0  0  0  0  0  0  0
  190.5430  176.2600  142.3010 C   0  0  1  0  0  3  0  0  0  0  0  0
  191.3330  178.6810  142.6060 O   0  0  0  0  0  0  0  0  0  0  0  0
  190.5030  176.0820  143.8190 C   0  0  0  0  0  2  0  0  0  0  0  0
  191.0270  177.9530  146.3270 C   0  0  0  0  0  2  0  0  0  0  0  0
  190.3070  176.6980  146.8110 C   0  0  0  0  0  2  0  0  0  0  0  0
  188.8790  177.0030  147.2420 C   0  0  1  0  0  3  0  0  0  0  0  0
  188.8710  177.7920  148.5520 C   0  0  0  0  0  3  0  0  0  0  0  0
  190.1330  178.3300  148.8050 O   0  0  0  0  0  1  0  0  0  0  0  0
  187.9430  178.8290  148.4740 O   0  0  0  0  0  1  0  0  0  0  0  0
  188.2440  177.7480  146.2100 O   0  0  0  0  0  0  0  0  0  0  0  0
  187.0660  177.3110  145.5980 C   0  0  0  0  0  0  0  0  0  0  0  0
  185.9830  177.2590  146.2400 O   0  0  0  0  0  0  0  0  0  0  0  0
  187.0890  176.9320  144.2970 F   0  0  0  0  0  0  0  0  0  0  0  0
  1 13  1  0  0  0  0
  5  4  1  0  0  0  0
  6  7  1  1  0  0  0
  6 11  1  0  0  0  0
  7  9  1  0  0  0  0
  8 19  1  0  0  0  0
  9  5  1  0  0  0  0
 10 20  1  0  0  0  0
 11 23  1  0  0  0  0
 11  4  1  1  0  0  0
 12 27  1  6  0  0  0
 12 20  1  0  0  0  0
 12 26  1  0  0  0  0
 14 12  1  0  0  0  0
 15 17  1  6  0  0  0
 15 24  1  0  0  0  0
 16  2  1  0  0  0  0
 17  6  1  0  0  0  0
 18  2  1  0  0  0  0
 18 19  1  0  0  0  0
 19  3  1  1  0  0  0
 21 16  1  0  0  0  0
 21 37  1  1  0  0  0
 22 14  1  1  0  0  0
 22  1  1  0  0  0  0
 22 10  1  0  0  0  0
 23  8  1  1  0  0  0
 24 13  1  6  0  0  0
 24 23  1  0  0  0  0
 25 21  1  0  0  0  0
 26 25  1  0  0  0  0
 29 34  1  1  0  0  0
 29 32  1  0  0  0  0
 29 31  1  0  0  0  0
 30 33  1  0  0  0  0
 31 30  1  0  0  0  0
 32 28  1  0  0  0  0
 33 28  1  6  0  0  0
 33 15  1  0  0  0  0
 35 34  2  0  0  0  0
 36 34  1  0  0  0  0
 38 40  1  0  0  0  0
 39 42  2  0  0  0  0
 40 46  1  1  0  0  0
 41 40  1  0  0  0  0
 42 43  1  0  0  0  0
 42 44  1  0  0  0  0
 43 37  1  1  0  0  0
 43 45  1  0  0  0  0
 44 41  1  0  0  0  0
 45 38  1  0  0  0  0
 46 47  1  0  0  0  0
 48 47  1  6  0  0  0
 48 49  1  0  0  0  0
 49 50  1  0  0  0  0
 51 49  1  0  0  0  0
 52 48  1  0  0  0  0
 53 52  1  0  0  0  0
 53 54  2  0  0  0  0
 55 53  1  0  0  0  0
M  END
>  <MODEL>
5

>  <REMARK>
 VINA RESULT:      -5.7      1.538      2.040
  Name = 
  10 active torsions:
  status: ('A' for Active; 'I' for Inactive)
    1  A    between atoms: C_1  and  O_53
    2  A    between atoms: C_3  and  C_12
    3  A    between atoms: C_3  and  C_38
    4  A    between atoms: C_8  and  C_22
    5  A    between atoms: C_8  and  C_43
    6  A    between atoms: C_10  and  C_32
    7  A    between atoms: C_11  and  C_29
    8  A    between atoms: C_29  and  C_38
    9  A    between atoms: C_29  and  O_53
   10  A    between atoms: C_33  and  C_52
                            x       y       z     vdW  Elec       q    Type
                         _______ _______ _______ _____ _____    ______ ____

>  <TORSDO>
F 10

$$$$
=
 OpenBabel11052414513D

 55 60  0  0  1  0  0  0  0  0999 V2000
  189.0740  178.5860  137.8790 C   0  0  0  0  0  2  0  0  0  0  0  0
  186.3040  174.2610  136.0010 C   0  0  0  0  0  2  0  0  0  0  0  0
  188.4040  172.0820  136.3740 C   0  0  0  0  0  1  0  0  0  0  0  0
  191.8230  174.1120  137.9400 C   0  0  0  0  0  2  0  0  0  0  0  0
  193.3000  173.9520  137.5980 C   0  0  0  0  0  2  0  0  0  0  0  0
  191.9870  176.5580  137.2220 C   0  0  1  0  0  3  0  0  0  0  0  0
  193.4820  176.3580  136.9820 C   0  0  0  0  0  2  0  0  0  0  0  0
  188.8810  174.2140  137.5740 C   0  0  0  0  0  2  0  0  0  0  0  0
  194.0370  175.2550  137.8750 C   0  0  0  0  0  2  0  0  0  0  0  0
  188.5050  177.6550  135.7170 O   0  0  0  0  0  0  0  0  0  0  0  0
  191.1820  175.2330  137.1000 C   0  0  2  0  0  3  0  0  0  0  0  0
  186.2610  178.4710  135.4940 C   0  0  1  0  0  0  0  0  0  0  0  0
  188.5790  177.4040  138.7150 C   0  0  0  0  0  2  0  0  0  0  0  0
  186.8350  178.9800  136.7840 C   0  0  0  0  0  2  0  0  0  0  0  0
  190.9920  176.6820  139.3470 C   0  0  2  0  0  3  0  0  0  0  0  0
  185.3680  174.8430  135.1300 O   0  0  0  0  0  0  0  0  0  0  0  0
  191.7560  177.3670  138.3730 O   0  0  0  0  0  0  0  0  0  0  0  0
  187.6790  174.2510  135.3450 C   0  0  0  0  0  2  0  0  0  0  0  0
  188.7290  173.5560  136.2090 C   0  0  2  0  0  3  0  0  0  0  0  0
  187.3120  177.4980  134.9830 C   0  0  0  0  0  2  0  0  0  0  0  0
  184.4230  175.5670  135.8890 C   0  0  2  0  0  3  0  0  0  0  0  0
  188.3140  178.7570  136.5690 C   0  0  1  0  0  3  0  0  0  0  0  0
  189.7170  175.4910  137.5020 C   0  0  2  0  0  3  0  0  0  0  0  0
  189.6020  176.2650  138.8230 C   0  0  2  0  0  3  0  0  0  0  0  0
  185.0180  176.8100  136.5460 C   0  0  0  0  0  2  0  0  0  0  0  0
  184.9780  177.8810  135.6340 O   0  0  0  0  0  0  0  0  0  0  0  0
  186.1690  179.5360  134.5950 O   0  0  0  0  0  1  0  0  0  0  0  0
  189.6850  177.0440  141.4560 C   0  0  0  0  0  2  0  0  0  0  0  0
  190.9380  176.3440  143.5460 C   0  0  2  0  0  3  0  0  0  0  0  0
  192.2560  177.1130  141.5200 C   0  0  0  0  0  2  0  0  0  0  0  0
  192.0100  177.3120  143.0120 C   0  0  0  0  0  2  0  0  0  0  0  0
  189.9080  175.9330  142.4780 C   0  0  0  0  0  2  0  0  0  0  0  0
  190.9800  177.3880  140.7040 C   0  0  1  0  0  3  0  0  0  0  0  0
  190.2620  176.8940  144.7690 C   0  0  0  0  0  0  0  0  0  0  0  0
  189.0110  176.8140  144.8860 O   0  0  0  0  0  0  0  0  0  0  0  0
  191.0070  177.4400  145.8110 O   0  0  0  0  0  1  0  0  0  0  0  0
  183.6210  174.6910  136.8600 C   0  0  0  0  0  2  0  0  0  0  0  0
  180.2010  176.1100  137.1110 O   0  0  0  0  0  0  0  0  0  0  0  0
  181.3570  172.4840  136.6220 O   0  0  0  0  0  0  0  0  0  0  0  0
  179.8970  175.9420  138.4860 C   0  0  1  0  0  3  0  0  0  0  0  0
  180.7410  174.8960  139.2330 C   0  0  0  0  0  2  0  0  0  0  0  0
  181.4040  173.5880  137.2230 C   0  0  0  0  0  0  0  0  0  0  0  0
  182.1290  174.7390  136.5590 C   0  0  1  0  0  3  0  0  0  0  0  0
  180.7970  173.6900  138.4840 O   0  0  0  0  0  0  0  0  0  0  0  0
  181.5970  176.1200  136.9420 C   0  0  0  0  0  2  0  0  0  0  0  0
  179.7370  177.2650  139.2440 C   0  0  0  0  0  2  0  0  0  0  0  0
  180.5710  177.3420  140.5190 C   0  0  0  0  0  2  0  0  0  0  0  0
  181.4650  178.5740  140.5290 C   0  0  1  0  0  3  0  0  0  0  0  0
  181.6290  179.1060  141.9540 C   0  0  0  0  0  3  0  0  0  0  0  0
  180.5650  178.6930  142.7550 O   0  0  0  0  0  1  0  0  0  0  0  0
  182.8200  178.6320  142.5010 O   0  0  0  0  0  1  0  0  0  0  0  0
  182.7290  178.2220  139.9820 O   0  0  0  0  0  0  0  0  0  0  0  0
  183.4070  179.0520  139.0850 C   0  0  0  0  0  0  0  0  0  0  0  0
  184.3990  179.7340  139.4570 O   0  0  0  0  0  0  0  0  0  0  0  0
  182.9880  179.1300  137.7990 F   0  0  0  0  0  0  0  0  0  0  0  0
  1 13  1  0  0  0  0
  5  9  1  0  0  0  0
  5  4  1  0  0  0  0
  6  7  1  1  0  0  0
  6 17  1  0  0  0  0
  7  9  1  0  0  0  0
 10 22  1  0  0  0  0
 11  6  1  0  0  0  0
 11 23  1  0  0  0  0
 11  4  1  1  0  0  0
 12 27  1  6  0  0  0
 12 26  1  0  0  0  0
 12 14  1  0  0  0  0
 15 17  1  6  0  0  0
 15 33  1  0  0  0  0
 16 21  1  0  0  0  0
 16  2  1  0  0  0  0
 18  2  1  0  0  0  0
 18 19  1  0  0  0  0
 19  3  1  1  0  0  0
 19  8  1  0  0  0  0
 20 12  1  0  0  0  0
 20 10  1  0  0  0  0
 21 25  1  0  0  0  0
 21 37  1  1  0  0  0
 22 14  1  1  0  0  0
 22  1  1  0  0  0  0
 23  8  1  1  0  0  0
 23 24  1  0  0  0  0
 24 13  1  6  0  0  0
 24 15  1  0  0  0  0
 26 25  1  0  0  0  0
 28 32  1  0  0  0  0
 29 34  1  1  0  0  0
 30 31  1  0  0  0  0
 31 29  1  0  0  0  0
 32 29  1  0  0  0  0
 33 28  1  1  0  0  0
 33 30  1  0  0  0  0
 34 35  2  0  0  0  0
 34 36  1  0  0  0  0
 38 40  1  0  0  0  0
 39 42  2  0  0  0  0
 40 41  1  0  0  0  0
 40 46  1  1  0  0  0
 42 44  1  0  0  0  0
 43 37  1  1  0  0  0
 43 45  1  0  0  0  0
 43 42  1  0  0  0  0
 44 41  1  0  0  0  0
 45 38  1  0  0  0  0
 46 47  1  0  0  0  0
 48 47  1  1  0  0  0
 48 49  1  0  0  0  0
 49 51  1  0  0  0  0
 49 50  1  0  0  0  0
 52 48  1  0  0  0  0
 53 54  2  0  0  0  0
 53 52  1  0  0  0  0
 55 53  1  0  0  0  0
M  END
>  <MODEL>
6

>  <REMARK>
 VINA RESULT:      -5.7      2.938      9.900
  Name = 
  10 active torsions:
  status: ('A' for Active; 'I' for Inactive)
    1  A    between atoms: C_1  and  O_53
    2  A    between atoms: C_3  and  C_12
    3  A    between atoms: C_3  and  C_38
    4  A    between atoms: C_8  and  C_22
    5  A    between atoms: C_8  and  C_43
    6  A    between atoms: C_10  and  C_32
    7  A    between atoms: C_11  and  C_29
    8  A    between atoms: C_29  and  C_38
    9  A    between atoms: C_29  and  O_53
   10  A    between atoms: C_33  and  C_52
                            x       y       z     vdW  Elec       q    Type
                         _______ _______ _______ _____ _____    ______ ____

>  <TORSDO>
F 10

$$$$
=
 OpenBabel11052414513D

 55 60  0  0  1  0  0  0  0  0999 V2000
  185.6250  175.9260  136.4540 C   0  0  0  0  0  2  0  0  0  0  0  0
  184.8040  178.6850  141.1030 C   0  0  0  0  0  2  0  0  0  0  0  0
  181.7620  178.8810  141.0760 C   0  0  0  0  0  1  0  0  0  0  0  0
  180.5740  176.9750  137.4410 C   0  0  0  0  0  2  0  0  0  0  0  0
  179.5180  177.3820  136.4200 C   0  0  0  0  0  2  0  0  0  0  0  0
  182.3270  177.1100  135.5860 C   0  0  1  0  0  3  0  0  0  0  0  0
  181.2100  177.4270  134.5940 C   0  0  0  0  0  2  0  0  0  0  0  0
  182.7200  177.2320  139.4710 C   0  0  0  0  0  2  0  0  0  0  0  0
  179.8860  176.8290  135.0490 C   0  0  0  0  0  2  0  0  0  0  0  0
  185.7580  178.2300  137.1880 O   0  0  0  0  0  0  0  0  0  0  0  0
  181.9600  177.5150  137.0430 C   0  0  2  0  0  3  0  0  0  0  0  0
  187.9060  178.2010  138.2530 C   0  0  1  0  0  0  0  0  0  0  0  0
  184.9700  175.3750  137.7220 C   0  0  0  0  0  2  0  0  0  0  0  0
  187.6340  176.8430  137.6740 C   0  0  0  0  0  2  0  0  0  0  0  0
  182.6970  174.9890  136.5290 C   0  0  2  0  0  3  0  0  0  0  0  0
  186.0170  179.3730  141.2770 O   0  0  0  0  0  0  0  0  0  0  0  0
  182.8410  175.7970  135.3770 O   0  0  0  0  0  0  0  0  0  0  0  0
  183.9830  179.3600  140.0130 C   0  0  0  0  0  2  0  0  0  0  0  0
  182.6130  178.7090  139.8310 C   0  0  2  0  0  3  0  0  0  0  0  0
  186.5960  178.9510  138.0630 C   0  0  0  0  0  2  0  0  0  0  0  0
  187.0310  178.4440  141.5920 C   0  0  2  0  0  3  0  0  0  0  0  0
  186.5080  177.1410  136.7120 C   0  0  1  0  0  3  0  0  0  0  0  0
  183.0680  177.0270  137.9980 C   0  0  2  0  0  3  0  0  0  0  0  0
  183.4460  175.5600  137.7500 C   0  0  2  0  0  3  0  0  0  0  0  0
  187.3830  177.5320  140.4190 C   0  0  0  0  0  2  0  0  0  0  0  0
  188.3380  178.1690  139.6040 O   0  0  0  0  0  0  0  0  0  0  0  0
  188.8900  178.8250  137.4840 O   0  0  0  0  0  1  0  0  0  0  0  0
  183.6860  173.3430  134.9170 C   0  0  0  0  0  2  0  0  0  0  0  0
  185.4970  171.8970  135.9450 C   0  0  2  0  0  3  0  0  0  0  0  0
  183.6550  172.8060  137.4320 C   0  0  0  0  0  2  0  0  0  0  0  0
  184.3970  171.5570  136.9670 C   0  0  0  0  0  2  0  0  0  0  0  0
  185.1880  173.1590  135.1190 C   0  0  0  0  0  2  0  0  0  0  0  0
  182.9510  173.5050  136.2560 C   0  0  1  0  0  3  0  0  0  0  0  0
  185.7990  170.7260  135.0540 C   0  0  0  0  0  0  0  0  0  0  0  0
  186.9610  170.5670  134.5970 O   0  0  0  0  0  0  0  0  0  0  0  0
  184.8240  169.7740  134.7710 O   0  0  0  0  0  1  0  0  0  0  0  0
  186.7770  177.6830  142.8990 C   0  0  0  0  0  2  0  0  0  0  0  0
  188.0340  178.8780  146.1800 O   0  0  0  0  0  0  0  0  0  0  0  0
  184.5230  179.0690  144.6450 O   0  0  0  0  0  0  0  0  0  0  0  0
  187.7150  177.8000  147.0450 C   0  0  1  0  0  3  0  0  0  0  0  0
  186.6320  176.8360  146.5360 C   0  0  0  0  0  2  0  0  0  0  0  0
  185.5610  178.4300  144.9540 C   0  0  0  0  0  0  0  0  0  0  0  0
  186.8000  178.6130  144.1040 C   0  0  1  0  0  3  0  0  0  0  0  0
  185.5110  177.5690  146.0610 O   0  0  0  0  0  0  0  0  0  0  0  0
  188.1140  178.4060  144.8580 C   0  0  0  0  0  2  0  0  0  0  0  0
  188.9470  177.0970  147.6260 C   0  0  0  0  0  2  0  0  0  0  0  0
  189.8830  176.5280  146.5630 C   0  0  0  0  0  2  0  0  0  0  0  0
  191.3350  176.8920  146.8440 C   0  0  1  0  0  3  0  0  0  0  0  0
  192.0270  175.7720  147.6230 C   0  0  0  0  0  3  0  0  0  0  0  0
  193.0830  175.2430  146.8820 O   0  0  0  0  0  1  0  0  0  0  0  0
  192.5220  176.2710  148.8270 O   0  0  0  0  0  1  0  0  0  0  0  0
  191.9940  177.1160  145.6040 O   0  0  0  0  0  0  0  0  0  0  0  0
  191.2900  177.3510  144.4210 C   0  0  0  0  0  0  0  0  0  0  0  0
  190.8510  178.4990  144.1450 O   0  0  0  0  0  0  0  0  0  0  0  0
  191.0690  176.3280  143.5600 F   0  0  0  0  0  0  0  0  0  0  0  0
  1 13  1  0  0  0  0
  2 16  1  0  0  0  0
  5  4  1  0  0  0  0
  6  7  1  6  0  0  0
  6 11  1  0  0  0  0
  7  9  1  0  0  0  0
  8 19  1  0  0  0  0
  9  5  1  0  0  0  0
 10 20  1  0  0  0  0
 11  4  1  1  0  0  0
 11 23  1  0  0  0  0
 12 27  1  6  0  0  0
 12 26  1  0  0  0  0
 14 12  1  0  0  0  0
 15 17  1  6  0  0  0
 15 24  1  0  0  0  0
 16 21  1  0  0  0  0
 17  6  1  0  0  0  0
 18  2  1  0  0  0  0
 19 18  1  0  0  0  0
 19  3  1  1  0  0  0
 20 12  1  0  0  0  0
 21 37  1  1  0  0  0
 22  1  1  1  0  0  0
 22 10  1  0  0  0  0
 22 14  1  0  0  0  0
 23  8  1  1  0  0  0
 24 13  1  6  0  0  0
 24 23  1  0  0  0  0
 25 21  1  0  0  0  0
 26 25  1  0  0  0  0
 28 32  1  0  0  0  0
 29 34  1  6  0  0  0
 29 31  1  0  0  0  0
 31 30  1  0  0  0  0
 32 29  1  0  0  0  0
 33 28  1  6  0  0  0
 33 15  1  0  0  0  0
 33 30  1  0  0  0  0
 35 34  2  0  0  0  0
 36 34  1  0  0  0  0
 38 40  1  0  0  0  0
 39 42  2  0  0  0  0
 40 46  1  6  0  0  0
 41 40  1  0  0  0  0
 42 44  1  0  0  0  0
 43 37  1  6  0  0  0
 43 45  1  0  0  0  0
 43 42  1  0  0  0  0
 44 41  1  0  0  0  0
 45 38  1  0  0  0  0
 47 46  1  0  0  0  0
 48 47  1  6  0  0  0
 48 49  1  0  0  0  0
 49 51  1  0  0  0  0
 50 49  1  0  0  0  0
 52 48  1  0  0  0  0
 53 52  1  0  0  0  0
 54 53  2  0  0  0  0
 55 53  1  0  0  0  0
M  END
>  <MODEL>
7

>  <REMARK>
 VINA RESULT:      -5.1      2.164      3.604
  Name = 
  10 active torsions:
  status: ('A' for Active; 'I' for Inactive)
    1  A    between atoms: C_1  and  O_53
    2  A    between atoms: C_3  and  C_12
    3  A    between atoms: C_3  and  C_38
    4  A    between atoms: C_8  and  C_22
    5  A    between atoms: C_8  and  C_43
    6  A    between atoms: C_10  and  C_32
    7  A    between atoms: C_11  and  C_29
    8  A    between atoms: C_29  and  C_38
    9  A    between atoms: C_29  and  O_53
   10  A    between atoms: C_33  and  C_52
                            x       y       z     vdW  Elec       q    Type
                         _______ _______ _______ _____ _____    ______ ____

>  <TORSDO>
F 10

$$$$
