=
 OpenBabel11052414053D

 34 39  0  0  1  0  0  0  0  0999 V2000
  188.8100  177.2920  146.5930 C   0  0  0  0  0  0  0  0  0  0  0  0
  190.8710  177.2000  145.1340 C   0  0  0  0  0  2  0  0  0  0  0  0
  188.5320  177.5650  144.1770 C   0  0  0  0  0  0  0  0  0  0  0  0
  188.2030  177.9980  141.7570 C   0  0  0  0  0  0  0  0  0  0  0  0
  190.9480  176.7740  147.5650 C   0  0  0  0  0  3  0  0  0  0  0  0
  191.5870  176.8240  146.3990 C   0  0  0  0  0  3  0  0  0  0  0  0
  190.3120  177.1830  142.2610 C   0  0  1  0  0  3  0  0  0  0  0  0
  189.3720  177.3240  145.2950 C   0  0  0  0  0  0  0  0  0  0  0  0
  188.8550  178.0220  140.5070 N   0  0  0  0  0  2  0  0  0  0  0  0
  189.5430  177.0430  147.6390 N   0  0  0  0  0  0  0  0  0  0  0  0
  187.1450  177.8260  144.3730 C   0  0  0  0  0  0  0  0  0  0  0  0
  187.4500  177.5240  146.7700 C   0  0  0  0  0  3  0  0  0  0  0  0
  190.4600  175.6700  142.4030 C   0  0  0  0  0  1  0  0  0  0  0  0
  186.9150  178.2550  141.9440 C   0  0  0  0  0  3  0  0  0  0  0  0
  186.3390  178.1410  143.3110 C   0  0  0  0  0  0  0  0  0  0  0  0
  190.2430  177.6580  140.7770 C   0  0  2  0  0  3  0  0  0  0  0  0
  189.0310  177.5980  142.8210 N   0  0  0  0  0  0  0  0  0  0  0  0
  186.6320  177.7970  145.6790 C   0  0  0  0  0  3  0  0  0  0  0  0
  182.6680  178.6440  142.4600 C   0  0  0  0  0  0  0  0  0  0  0  0
  182.1460  178.9900  143.7090 C   0  0  0  0  0  3  0  0  0  0  0  0
  184.8830  178.4070  143.4420 C   0  0  0  0  0  0  0  0  0  0  0  0
  182.9870  179.0530  144.8230 C   0  0  0  0  0  3  0  0  0  0  0  0
  184.0290  178.3600  142.3260 C   0  0  0  0  0  3  0  0  0  0  0  0
  184.3490  178.7680  144.6880 C   0  0  0  0  0  3  0  0  0  0  0  0
  181.8540  178.5900  141.3780 F   0  0  0  0  0  0  0  0  0  0  0  0
  190.8050  176.7140  139.7110 C   0  0  0  0  0  2  0  0  0  0  0  0
  190.6760  177.2890  138.3790 N   0  0  0  0  0  2  0  0  0  0  0  0
  190.4880  174.9820  138.1640 O   0  0  0  0  0  1  0  0  0  0  0  0
  190.4920  176.1840  137.4520 C   0  0  1  0  0  3  0  0  0  0  0  0
  189.1730  176.3460  136.7020 C   0  0  1  0  0  3  0  0  0  0  0  0
  187.2730  178.3210  137.0240 S   0  0  0  0  0  0  0  0  0  0  0  0
  186.5930  176.3440  136.7310 S   0  0  0  0  0  0  0  0  0  0  0  0
  188.0800  175.7650  137.4740 N   0  0  0  0  0  2  0  0  0  0  0  0
  188.9050  177.8240  136.4030 C   0  0  0  0  0  2  0  0  0  0  0  0
  1 12  1  0  0  0  0
  1 10  2  0  0  0  0
  2  8  1  0  0  0  0
  2  6  1  0  0  0  0
  3 11  1  0  0  0  0
  3  8  2  0  0  0  0
  4 14  2  0  0  0  0
  4 17  1  0  0  0  0
  5 10  1  0  0  0  0
  6  5  2  0  0  0  0
  7 13  1  6  0  0  0
  7 17  1  0  0  0  0
  8  1  1  0  0  0  0
  9 16  1  0  0  0  0
  9  4  1  0  0  0  0
 11 18  1  0  0  0  0
 14 15  1  0  0  0  0
 15 21  1  0  0  0  0
 15 11  2  0  0  0  0
 16 26  1  6  0  0  0
 16  7  1  0  0  0  0
 17  3  1  0  0  0  0
 18 12  2  0  0  0  0
 19 20  1  0  0  0  0
 20 22  2  0  0  0  0
 21 24  2  0  0  0  0
 23 19  2  0  0  0  0
 23 21  1  0  0  0  0
 24 22  1  0  0  0  0
 25 19  1  0  0  0  0
 27 26  1  0  0  0  0
 29 28  1  1  0  0  0
 29 27  1  0  0  0  0
 30 29  1  1  0  0  0
 30 33  1  0  0  0  0
 32 31  1  0  0  0  0
 32 33  1  0  0  0  0
 34 30  1  0  0  0  0
 34 31  1  0  0  0  0
M  END
>  <MODEL>
1

>  <REMARK>
 VINA RESULT:     -10.9      0.000      0.000
  Name = 
  5 active torsions:
  status: ('A' for Active; 'I' for Inactive)
    1  A    between atoms: N_3  and  C_13
    2  A    between atoms: N_3  and  C_17
    3  A    between atoms: C_12  and  C_28
    4  A    between atoms: C_13  and  C_14
    5  A    between atoms: C_17  and  C_29
                            x       y       z     vdW  Elec       q    Type
                         _______ _______ _______ _____ _____    ______ ____

>  <TORSDO>
F 5

$$$$
=
 OpenBabel11052414053D

 34 39  0  0  1  0  0  0  0  0999 V2000
  187.0560  177.8820  146.7260 C   0  0  0  0  0  0  0  0  0  0  0  0
  189.3330  177.7750  145.6370 C   0  0  0  0  0  2  0  0  0  0  0  0
  187.1790  177.9750  144.2830 C   0  0  0  0  0  0  0  0  0  0  0  0
  187.2460  178.2230  141.8170 C   0  0  0  0  0  0  0  0  0  0  0  0
  189.0160  177.5240  148.0730 C   0  0  0  0  0  3  0  0  0  0  0  0
  189.8390  177.5180  147.0270 C   0  0  0  0  0  3  0  0  0  0  0  0
  189.2640  177.5340  142.7210 C   0  0  1  0  0  3  0  0  0  0  0  0
  187.8260  177.8470  145.5400 C   0  0  0  0  0  0  0  0  0  0  0  0
  188.0970  178.1870  140.6930 N   0  0  0  0  0  2  0  0  0  0  0  0
  187.6110  177.7390  147.8940 N   0  0  0  0  0  0  0  0  0  0  0  0
  185.7710  178.1910  144.2280 C   0  0  0  0  0  0  0  0  0  0  0  0
  185.6790  178.0700  146.6580 C   0  0  0  0  0  3  0  0  0  0  0  0
  189.4310  176.0420  143.0000 C   0  0  0  0  0  1  0  0  0  0  0  0
  185.9380  178.4390  141.7690 C   0  0  0  0  0  3  0  0  0  0  0  0
  185.1460  178.3970  143.0270 C   0  0  0  0  0  0  0  0  0  0  0  0
  189.4310  177.9010  141.2140 C   0  0  2  0  0  3  0  0  0  0  0  0
  187.8960  177.9330  143.0290 N   0  0  0  0  0  0  0  0  0  0  0  0
  185.0480  178.2320  145.4300 C   0  0  0  0  0  3  0  0  0  0  0  0
  181.6770  178.8230  141.5300 C   0  0  0  0  0  0  0  0  0  0  0  0
  180.9200  179.0950  142.6730 C   0  0  0  0  0  3  0  0  0  0  0  0
  183.6800  178.6110  142.8950 C   0  0  0  0  0  0  0  0  0  0  0  0
  181.5390  179.1330  143.9250 C   0  0  0  0  0  3  0  0  0  0  0  0
  183.0490  178.5880  141.6390 C   0  0  0  0  0  3  0  0  0  0  0  0
  182.9120  178.8980  144.0340 C   0  0  0  0  0  3  0  0  0  0  0  0
  181.0790  178.7910  140.3140 F   0  0  0  0  0  0  0  0  0  0  0  0
  190.1910  176.9090  140.3300 C   0  0  0  0  0  2  0  0  0  0  0  0
  190.6850  177.5540  139.1210 N   0  0  0  0  0  2  0  0  0  0  0  0
  190.6700  175.2650  138.7160 O   0  0  0  0  0  1  0  0  0  0  0  0
  190.8410  176.5150  138.1160 C   0  0  1  0  0  3  0  0  0  0  0  0
  189.8120  176.7030  137.0070 C   0  0  1  0  0  3  0  0  0  0  0  0
  187.5010  178.2110  137.0760 S   0  0  0  0  0  0  0  0  0  0  0  0
  187.4170  176.3310  136.1190 S   0  0  0  0  0  0  0  0  0  0  0  0
  188.7000  175.7750  137.1870 N   0  0  0  0  0  2  0  0  0  0  0  0
  189.3130  178.1510  136.9770 C   0  0  0  0  0  2  0  0  0  0  0  0
  1 10  2  0  0  0  0
  2  6  1  0  0  0  0
  3  8  2  0  0  0  0
  4 17  1  0  0  0  0
  6  5  2  0  0  0  0
  7 13  1  6  0  0  0
  7 17  1  0  0  0  0
  8  2  1  0  0  0  0
  8  1  1  0  0  0  0
  9 16  1  0  0  0  0
  9  4  1  0  0  0  0
 10  5  1  0  0  0  0
 11  3  1  0  0  0  0
 11 18  1  0  0  0  0
 12  1  1  0  0  0  0
 14  4  2  0  0  0  0
 14 15  1  0  0  0  0
 15 11  2  0  0  0  0
 16 26  1  6  0  0  0
 16  7  1  0  0  0  0
 17  3  1  0  0  0  0
 18 12  2  0  0  0  0
 19 23  2  0  0  0  0
 19 20  1  0  0  0  0
 20 22  2  0  0  0  0
 21 15  1  0  0  0  0
 21 24  2  0  0  0  0
 22 24  1  0  0  0  0
 23 21  1  0  0  0  0
 25 19  1  0  0  0  0
 27 26  1  0  0  0  0
 29 28  1  1  0  0  0
 29 27  1  0  0  0  0
 30 33  1  0  0  0  0
 30 29  1  1  0  0  0
 32 31  1  0  0  0  0
 32 33  1  0  0  0  0
 34 30  1  0  0  0  0
 34 31  1  0  0  0  0
M  END
>  <MODEL>
2

>  <REMARK>
 VINA RESULT:     -10.5      1.052      1.350
  Name = 
  5 active torsions:
  status: ('A' for Active; 'I' for Inactive)
    1  A    between atoms: N_3  and  C_13
    2  A    between atoms: N_3  and  C_17
    3  A    between atoms: C_12  and  C_28
    4  A    between atoms: C_13  and  C_14
    5  A    between atoms: C_17  and  C_29
                            x       y       z     vdW  Elec       q    Type
                         _______ _______ _______ _____ _____    ______ ____

>  <TORSDO>
F 5

$$$$
=
 OpenBabel11052414053D

 34 39  0  0  1  0  0  0  0  0999 V2000
  186.8570  177.9080  146.6350 C   0  0  0  0  0  0  0  0  0  0  0  0
  189.1720  177.7950  145.6280 C   0  0  0  0  0  2  0  0  0  0  0  0
  187.0670  177.9990  144.1980 C   0  0  0  0  0  0  0  0  0  0  0  0
  187.2220  178.2460  141.7360 C   0  0  0  0  0  0  0  0  0  0  0  0
  188.7670  177.5460  148.0510 C   0  0  0  0  0  3  0  0  0  0  0  0
  189.6270  177.5380  147.0350 C   0  0  0  0  0  3  0  0  0  0  0  0
  189.2050  177.5540  142.7110 C   0  0  1  0  0  3  0  0  0  0  0  0
  187.6690  177.8710  145.4770 C   0  0  0  0  0  0  0  0  0  0  0  0
  188.1120  178.2080  140.6420 N   0  0  0  0  0  2  0  0  0  0  0  0
  187.3700  177.7630  147.8220 N   0  0  0  0  0  0  0  0  0  0  0  0
  185.6620  178.2180  144.0930 C   0  0  0  0  0  0  0  0  0  0  0  0
  185.4840  178.0980  146.5190 C   0  0  0  0  0  3  0  0  0  0  0  0
  189.3590  176.0610  142.9960 C   0  0  0  0  0  1  0  0  0  0  0  0
  185.9170  178.4650  141.6410 C   0  0  0  0  0  3  0  0  0  0  0  0
  185.0800  178.4250  142.8700 C   0  0  0  0  0  0  0  0  0  0  0  0
  189.4260  177.9190  141.2110 C   0  0  2  0  0  3  0  0  0  0  0  0
  187.8280  177.9550  142.9710 N   0  0  0  0  0  0  0  0  0  0  0  0
  184.8970  178.2600  145.2690 C   0  0  0  0  0  3  0  0  0  0  0  0
  181.3810  178.9180  143.5980 C   0  0  0  0  0  0  0  0  0  0  0  0
  180.8560  178.9760  142.3040 C   0  0  0  0  0  3  0  0  0  0  0  0
  183.6210  178.6420  142.6870 C   0  0  0  0  0  0  0  0  0  0  0  0
  181.7060  178.8600  141.2020 C   0  0  0  0  0  3  0  0  0  0  0  0
  182.7540  178.7460  143.7890 C   0  0  0  0  0  3  0  0  0  0  0  0
  183.0800  178.6880  141.3930 C   0  0  0  0  0  3  0  0  0  0  0  0
  180.5570  179.0240  144.6680 F   0  0  0  0  0  0  0  0  0  0  0  0
  190.2140  176.9260  140.3540 C   0  0  0  0  0  2  0  0  0  0  0  0
  190.7010  177.5550  139.1340 N   0  0  0  0  0  2  0  0  0  0  0  0
  190.6340  175.2630  138.7500 O   0  0  0  0  0  1  0  0  0  0  0  0
  190.8560  176.5020  138.1430 C   0  0  1  0  0  3  0  0  0  0  0  0
  189.8620  176.7070  137.0050 C   0  0  1  0  0  3  0  0  0  0  0  0
  187.5470  178.2080  137.0260 S   0  0  0  0  0  0  0  0  0  0  0  0
  187.4980  176.3450  136.0340 S   0  0  0  0  0  0  0  0  0  0  0  0
  188.7480  175.7730  137.1330 N   0  0  0  0  0  2  0  0  0  0  0  0
  189.3610  178.1540  136.9850 C   0  0  0  0  0  2  0  0  0  0  0  0
  1 10  2  0  0  0  0
  2  6  1  0  0  0  0
  3  8  2  0  0  0  0
  4 17  1  0  0  0  0
  6  5  2  0  0  0  0
  7 17  1  0  0  0  0
  7 13  1  6  0  0  0
  8  2  1  0  0  0  0
  8  1  1  0  0  0  0
  9 16  1  0  0  0  0
  9  4  1  0  0  0  0
 10  5  1  0  0  0  0
 11  3  1  0  0  0  0
 11 18  1  0  0  0  0
 12  1  1  0  0  0  0
 14  4  2  0  0  0  0
 14 15  1  0  0  0  0
 15 11  2  0  0  0  0
 16 26  1  6  0  0  0
 16  7  1  0  0  0  0
 17  3  1  0  0  0  0
 18 12  2  0  0  0  0
 19 23  1  0  0  0  0
 19 25  1  0  0  0  0
 20 19  2  0  0  0  0
 21 15  1  0  0  0  0
 21 23  2  0  0  0  0
 22 24  2  0  0  0  0
 22 20  1  0  0  0  0
 24 21  1  0  0  0  0
 27 26  1  0  0  0  0
 29 28  1  1  0  0  0
 29 27  1  0  0  0  0
 30 33  1  0  0  0  0
 30 29  1  1  0  0  0
 32 31  1  0  0  0  0
 32 33  1  0  0  0  0
 34 30  1  0  0  0  0
 34 31  1  0  0  0  0
M  END
>  <MODEL>
3

>  <REMARK>
 VINA RESULT:     -10.5      1.244      1.783
  Name = 
  5 active torsions:
  status: ('A' for Active; 'I' for Inactive)
    1  A    between atoms: N_3  and  C_13
    2  A    between atoms: N_3  and  C_17
    3  A    between atoms: C_12  and  C_28
    4  A    between atoms: C_13  and  C_14
    5  A    between atoms: C_17  and  C_29
                            x       y       z     vdW  Elec       q    Type
                         _______ _______ _______ _____ _____    ______ ____

>  <TORSDO>
F 5

$$$$
=
 OpenBabel11052414053D

 34 39  0  0  1  0  0  0  0  0999 V2000
  188.7780  177.3130  146.5790 C   0  0  0  0  0  0  0  0  0  0  0  0
  190.8530  177.1920  145.1440 C   0  0  0  0  0  2  0  0  0  0  0  0
  188.5270  177.5550  144.1560 C   0  0  0  0  0  0  0  0  0  0  0  0
  188.2260  177.9560  141.7280 C   0  0  0  0  0  0  0  0  0  0  0  0
  190.9030  176.8000  147.5810 C   0  0  0  0  0  3  0  0  0  0  0  0
  191.5540  176.8310  146.4210 C   0  0  0  0  0  3  0  0  0  0  0  0
  190.3260  177.1390  142.2650 C   0  0  1  0  0  3  0  0  0  0  0  0
  189.3540  177.3250  145.2870 C   0  0  0  0  0  0  0  0  0  0  0  0
  188.8910  177.9610  140.4850 N   0  0  0  0  0  2  0  0  0  0  0  0
  189.4980  177.0760  147.6360 N   0  0  0  0  0  0  0  0  0  0  0  0
  187.1390  177.8250  144.3340 C   0  0  0  0  0  0  0  0  0  0  0  0
  187.4160  177.5540  146.7380 C   0  0  0  0  0  3  0  0  0  0  0  0
  190.4660  175.6280  142.4290 C   0  0  0  0  0  1  0  0  0  0  0  0
  186.9370  178.2210  141.8970 C   0  0  0  0  0  3  0  0  0  0  0  0
  186.3460  178.1290  143.2590 C   0  0  0  0  0  0  0  0  0  0  0  0
  190.2750  177.5940  140.7740 C   0  0  2  0  0  3  0  0  0  0  0  0
  189.0400  177.5670  142.8060 N   0  0  0  0  0  0  0  0  0  0  0  0
  186.6120  177.8150  145.6350 C   0  0  0  0  0  3  0  0  0  0  0  0
  182.6880  178.6440  142.3610 C   0  0  0  0  0  0  0  0  0  0  0  0
  182.1530  179.0010  143.6010 C   0  0  0  0  0  3  0  0  0  0  0  0
  184.8890  178.4030  143.3700 C   0  0  0  0  0  0  0  0  0  0  0  0
  182.9810  179.0680  144.7240 C   0  0  0  0  0  3  0  0  0  0  0  0
  184.0490  178.3520  142.2450 C   0  0  0  0  0  3  0  0  0  0  0  0
  184.3430  178.7760  144.6080 C   0  0  0  0  0  3  0  0  0  0  0  0
  181.8870  178.5850  141.2690 F   0  0  0  0  0  0  0  0  0  0  0  0
  190.8440  176.6340  139.7270 C   0  0  0  0  0  2  0  0  0  0  0  0
  192.2080  176.9970  139.3660 N   0  0  0  0  0  2  0  0  0  0  0  0
  193.7150  176.8000  137.6070 O   0  0  0  0  0  1  0  0  0  0  0  0
  192.3620  176.7210  137.9460 C   0  0  1  0  0  3  0  0  0  0  0  0
  191.8270  175.3300  137.6240 C   0  0  1  0  0  3  0  0  0  0  0  0
  192.9810  173.3980  136.0260 S   0  0  0  0  0  0  0  0  0  0  0  0
  190.8900  173.6620  135.8920 S   0  0  0  0  0  0  0  0  0  0  0  0
  191.1130  175.3460  136.3520 N   0  0  0  0  0  2  0  0  0  0  0  0
  192.9690  174.3100  137.5960 C   0  0  0  0  0  2  0  0  0  0  0  0
  1 12  1  0  0  0  0
  1 10  2  0  0  0  0
  2  8  1  0  0  0  0
  2  6  1  0  0  0  0
  3 11  1  0  0  0  0
  3  8  2  0  0  0  0
  4 14  2  0  0  0  0
  4 17  1  0  0  0  0
  5 10  1  0  0  0  0
  6  5  2  0  0  0  0
  7 13  1  6  0  0  0
  7 17  1  0  0  0  0
  8  1  1  0  0  0  0
  9 16  1  0  0  0  0
  9  4  1  0  0  0  0
 11 18  1  0  0  0  0
 14 15  1  0  0  0  0
 15 21  1  0  0  0  0
 15 11  2  0  0  0  0
 16 26  1  6  0  0  0
 16  7  1  0  0  0  0
 17  3  1  0  0  0  0
 18 12  2  0  0  0  0
 19 20  1  0  0  0  0
 20 22  2  0  0  0  0
 21 24  2  0  0  0  0
 23 19  2  0  0  0  0
 23 21  1  0  0  0  0
 24 22  1  0  0  0  0
 25 19  1  0  0  0  0
 27 26  1  0  0  0  0
 29 28  1  1  0  0  0
 29 27  1  0  0  0  0
 30 29  1  6  0  0  0
 31 34  1  0  0  0  0
 32 31  1  0  0  0  0
 32 33  1  0  0  0  0
 33 30  1  0  0  0  0
 34 30  1  0  0  0  0
M  END
>  <MODEL>
4

>  <REMARK>
 VINA RESULT:     -10.5      1.865      2.139
  Name = 
  5 active torsions:
  status: ('A' for Active; 'I' for Inactive)
    1  A    between atoms: N_3  and  C_13
    2  A    between atoms: N_3  and  C_17
    3  A    between atoms: C_12  and  C_28
    4  A    between atoms: C_13  and  C_14
    5  A    between atoms: C_17  and  C_29
                            x       y       z     vdW  Elec       q    Type
                         _______ _______ _______ _____ _____    ______ ____

>  <TORSDO>
F 5

$$$$
=
 OpenBabel11052414053D

 34 39  0  0  1  0  0  0  0  0999 V2000
  184.3220  178.6300  145.0040 C   0  0  0  0  0  0  0  0  0  0  0  0
  186.8260  178.4070  145.2490 C   0  0  0  0  0  3  0  0  0  0  0  0
  185.6730  178.4460  142.9710 C   0  0  0  0  0  0  0  0  0  0  0  0
  186.9980  178.4150  140.8750 C   0  0  0  0  0  0  0  0  0  0  0  0
  185.3020  178.4310  147.1910 C   0  0  0  0  0  3  0  0  0  0  0  0
  186.5410  178.3100  146.7190 C   0  0  0  0  0  3  0  0  0  0  0  0
  188.2350  177.8390  142.7470 C   0  0  1  0  0  3  0  0  0  0  0  0
  185.5840  178.4630  144.3880 C   0  0  0  0  0  0  0  0  0  0  0  0
  188.2980  178.2550  140.3540 N   0  0  0  0  0  2  0  0  0  0  0  0
  184.1970  178.6200  146.2990 N   0  0  0  0  0  0  0  0  0  0  0  0
  184.5030  178.6510  142.1840 C   0  0  0  0  0  0  0  0  0  0  0  0
  183.1830  178.8040  144.2240 C   0  0  0  0  0  3  0  0  0  0  0  0
  188.1550  176.3880  143.2170 C   0  0  0  0  0  1  0  0  0  0  0  0
  185.9100  178.6200  140.1450 C   0  0  0  0  0  3  0  0  0  0  0  0
  184.5870  178.7180  140.8180 C   0  0  0  0  0  0  0  0  0  0  0  0
  189.1640  178.0330  141.5090 C   0  0  2  0  0  3  0  0  0  0  0  0
  186.9240  178.2660  142.2710 N   0  0  0  0  0  0  0  0  0  0  0  0
  183.2730  178.8240  142.8370 C   0  0  0  0  0  2  0  0  0  0  0  0
  181.3130  178.1180  138.9810 C   0  0  0  0  0  0  0  0  0  0  0  0
  181.2250  179.2740  138.2010 C   0  0  0  0  0  3  0  0  0  0  0  0
  183.4060  178.9110  139.9360 C   0  0  0  0  0  0  0  0  0  0  0  0
  182.2250  180.2460  138.2790 C   0  0  0  0  0  3  0  0  0  0  0  0
  182.4000  177.9340  139.8380 C   0  0  0  0  0  3  0  0  0  0  0  0
  183.3130  180.0620  139.1380 C   0  0  0  0  0  3  0  0  0  0  0  0
  180.3460  177.1720  138.9000 F   0  0  0  0  0  0  0  0  0  0  0  0
  190.2120  176.9510  141.2400 C   0  0  0  0  0  2  0  0  0  0  0  0
  190.0970  176.4330  139.8830 N   0  0  0  0  0  2  0  0  0  0  0  0
  192.2320  177.3350  140.0710 O   0  0  0  0  0  1  0  0  0  0  0  0
  191.2840  176.8610  139.1600 C   0  0  1  0  0  3  0  0  0  0  0  0
  191.8630  175.6920  138.3700 C   0  0  1  0  0  3  0  0  0  0  0  0
  192.4110  175.5780  135.6680 S   0  0  0  0  0  0  0  0  0  0  0  0
  191.5610  173.8690  136.5690 S   0  0  0  0  0  0  0  0  0  0  0  0
  190.7900  174.9230  137.7480 N   0  0  0  0  0  2  0  0  0  0  0  0
  192.8540  176.1960  137.3170 C   0  0  0  0  0  2  0  0  0  0  0  0
  1 10  1  0  0  0  0
  2  6  2  0  0  0  0
  3  8  2  0  0  0  0
  4 17  1  0  0  0  0
  6  5  1  0  0  0  0
  7 13  1  6  0  0  0
  8  1  1  0  0  0  0
  8  2  1  0  0  0  0
  9  4  1  0  0  0  0
  9 16  1  0  0  0  0
 10  5  2  0  0  0  0
 11 18  1  0  0  0  0
 11  3  1  0  0  0  0
 12  1  2  0  0  0  0
 14 15  1  0  0  0  0
 14  4  2  0  0  0  0
 15 11  2  0  0  0  0
 16 26  1  6  0  0  0
 16  7  1  0  0  0  0
 17  7  1  0  0  0  0
 17  3  1  0  0  0  0
 18 12  1  0  0  0  0
 19 23  1  0  0  0  0
 20 22  1  0  0  0  0
 20 19  2  0  0  0  0
 21 15  1  0  0  0  0
 22 24  2  0  0  0  0
 23 21  2  0  0  0  0
 24 21  1  0  0  0  0
 25 19  1  0  0  0  0
 27 26  1  0  0  0  0
 29 27  1  0  0  0  0
 29 28  1  1  0  0  0
 30 29  1  6  0  0  0
 31 32  1  0  0  0  0
 31 34  1  0  0  0  0
 32 33  1  0  0  0  0
 33 30  1  0  0  0  0
 34 30  1  0  0  0  0
M  END
>  <MODEL>
5

>  <REMARK>
 VINA RESULT:      -9.7      2.729      3.999
  Name = 
  5 active torsions:
  status: ('A' for Active; 'I' for Inactive)
    1  A    between atoms: N_3  and  C_13
    2  A    between atoms: N_3  and  C_17
    3  A    between atoms: C_12  and  C_28
    4  A    between atoms: C_13  and  C_14
    5  A    between atoms: C_17  and  C_29
                            x       y       z     vdW  Elec       q    Type
                         _______ _______ _______ _____ _____    ______ ____

>  <TORSDO>
F 5

$$$$
=
 OpenBabel11052414053D

 34 39  0  0  1  0  0  0  0  0999 V2000
  184.9430  178.9550  141.5310 C   0  0  0  0  0  0  0  0  0  0  0  0
  185.9840  178.2530  139.3390 C   0  0  0  0  0  2  0  0  0  0  0  0
  187.2040  178.0190  141.5690 C   0  0  0  0  0  0  0  0  0  0  0  0
  189.4340  176.9410  141.6910 C   0  0  0  0  0  0  0  0  0  0  0  0
  183.7860  179.3700  139.4640 C   0  0  0  0  0  3  0  0  0  0  0  0
  184.7630  178.8640  138.7150 C   0  0  0  0  0  3  0  0  0  0  0  0
  188.8060  177.4990  139.5320 C   0  0  1  0  0  3  0  0  0  0  0  0
  186.0630  178.4390  140.8370 C   0  0  0  0  0  0  0  0  0  0  0  0
  190.4950  176.4320  140.9140 N   0  0  0  0  0  2  0  0  0  0  0  0
  183.8910  179.3780  140.8920 N   0  0  0  0  0  0  0  0  0  0  0  0
  187.1920  178.0680  142.9930 C   0  0  0  0  0  0  0  0  0  0  0  0
  184.9530  179.0210  142.9210 C   0  0  0  0  0  3  0  0  0  0  0  0
  189.0560  178.9370  139.0820 C   0  0  0  0  0  1  0  0  0  0  0  0
  189.4150  176.9750  143.0170 C   0  0  0  0  0  3  0  0  0  0  0  0
  188.2550  177.5900  143.7140 C   0  0  0  0  0  0  0  0  0  0  0  0
  190.0930  176.6190  139.5220 C   0  0  2  0  0  3  0  0  0  0  0  0
  188.3900  177.4960  140.9300 N   0  0  0  0  0  0  0  0  0  0  0  0
  186.0560  178.5760  143.6400 C   0  0  0  0  0  3  0  0  0  0  0  0
  189.5480  177.3740  147.2830 C   0  0  0  0  0  0  0  0  0  0  0  0
  188.3820  177.6300  148.0090 C   0  0  0  0  0  3  0  0  0  0  0  0
  188.3160  177.6270  145.1990 C   0  0  0  0  0  0  0  0  0  0  0  0
  187.1830  177.8770  147.3370 C   0  0  0  0  0  3  0  0  0  0  0  0
  189.5140  177.3660  145.8870 C   0  0  0  0  0  3  0  0  0  0  0  0
  187.1500  177.8700  145.9400 C   0  0  0  0  0  3  0  0  0  0  0  0
  190.7100  177.1270  147.9340 F   0  0  0  0  0  0  0  0  0  0  0  0
  191.2580  177.0880  138.6480 C   0  0  0  0  0  2  0  0  0  0  0  0
  191.9740  175.9570  138.0740 N   0  0  0  0  0  2  0  0  0  0  0  0
  193.9070  176.7500  139.0950 O   0  0  0  0  0  1  0  0  0  0  0  0
  193.3500  176.3820  137.8670 C   0  0  1  0  0  3  0  0  0  0  0  0
  194.1590  175.2470  137.2500 C   0  0  1  0  0  3  0  0  0  0  0  0
  196.4950  174.1210  138.1950 S   0  0  0  0  0  0  0  0  0  0  0  0
  196.3290  174.4350  136.1140 S   0  0  0  0  0  0  0  0  0  0  0  0
  195.2500  175.7850  136.4440 N   0  0  0  0  0  2  0  0  0  0  0  0
  194.6960  174.3160  138.3420 C   0  0  0  0  0  2  0  0  0  0  0  0
  1 12  1  0  0  0  0
  2  8  1  0  0  0  0
  3 11  1  0  0  0  0
  4 14  2  0  0  0  0
  5 10  1  0  0  0  0
  6  2  1  0  0  0  0
  6  5  2  0  0  0  0
  7 13  1  1  0  0  0
  7 17  1  0  0  0  0
  8  1  1  0  0  0  0
  8  3  2  0  0  0  0
  9  4  1  0  0  0  0
 10  1  2  0  0  0  0
 11 18  1  0  0  0  0
 11 15  2  0  0  0  0
 12 18  2  0  0  0  0
 14 15  1  0  0  0  0
 15 21  1  0  0  0  0
 16 26  1  6  0  0  0
 16  7  1  0  0  0  0
 16  9  1  0  0  0  0
 17  3  1  0  0  0  0
 17  4  1  0  0  0  0
 19 25  1  0  0  0  0
 19 20  1  0  0  0  0
 21 23  1  0  0  0  0
 21 24  2  0  0  0  0
 22 20  2  0  0  0  0
 23 19  2  0  0  0  0
 24 22  1  0  0  0  0
 27 26  1  0  0  0  0
 29 27  1  0  0  0  0
 29 28  1  1  0  0  0
 30 29  1  1  0  0  0
 30 34  1  0  0  0  0
 31 34  1  0  0  0  0
 32 33  1  0  0  0  0
 32 31  1  0  0  0  0
 33 30  1  0  0  0  0
M  END
>  <MODEL>
6

>  <REMARK>
 VINA RESULT:      -9.3      3.857      6.090
  Name = 
  5 active torsions:
  status: ('A' for Active; 'I' for Inactive)
    1  A    between atoms: N_3  and  C_13
    2  A    between atoms: N_3  and  C_17
    3  A    between atoms: C_12  and  C_28
    4  A    between atoms: C_13  and  C_14
    5  A    between atoms: C_17  and  C_29
                            x       y       z     vdW  Elec       q    Type
                         _______ _______ _______ _____ _____    ______ ____

>  <TORSDO>
F 5

$$$$
=
 OpenBabel11052414053D

 34 39  0  0  1  0  0  0  0  0999 V2000
  186.2510  178.1050  145.4310 C   0  0  0  0  0  0  0  0  0  0  0  0
  185.9150  177.9340  142.9330 C   0  0  0  0  0  2  0  0  0  0  0  0
  188.1620  177.4550  144.0460 C   0  0  0  0  0  0  0  0  0  0  0  0
  190.0940  176.6480  142.7170 C   0  0  0  0  0  0  0  0  0  0  0  0
  184.1460  178.7380  144.4560 C   0  0  0  0  0  3  0  0  0  0  0  0
  184.5510  178.4950  143.2110 C   0  0  0  0  0  3  0  0  0  0  0  0
  188.3790  177.5020  141.4130 C   0  0  1  0  0  3  0  0  0  0  0  0
  186.8060  177.8590  144.1530 C   0  0  0  0  0  0  0  0  0  0  0  0
  190.5530  176.4160  141.4040 N   0  0  0  0  0  2  0  0  0  0  0  0
  185.0210  178.5050  145.5660 N   0  0  0  0  0  0  0  0  0  0  0  0
  188.9360  177.2490  145.2250 C   0  0  0  0  0  0  0  0  0  0  0  0
  187.0240  177.9230  146.5740 C   0  0  0  0  0  3  0  0  0  0  0  0
  188.3370  179.0160  141.2200 C   0  0  0  0  0  1  0  0  0  0  0  0
  190.8080  176.4430  143.8150 C   0  0  0  0  0  3  0  0  0  0  0  0
  190.2210  176.7810  145.1400 C   0  0  0  0  0  0  0  0  0  0  0  0
  189.4510  176.7980  140.5250 C   0  0  2  0  0  3  0  0  0  0  0  0
  188.8020  177.2000  142.7760 N   0  0  0  0  0  0  0  0  0  0  0  0
  188.3420  177.4930  146.4730 C   0  0  0  0  0  3  0  0  0  0  0  0
  191.9490  177.2600  148.4930 C   0  0  0  0  0  0  0  0  0  0  0  0
  192.8000  176.1530  148.5190 C   0  0  0  0  0  3  0  0  0  0  0  0
  191.0900  176.5600  146.3260 C   0  0  0  0  0  0  0  0  0  0  0  0
  192.8060  175.2530  147.4510 C   0  0  0  0  0  3  0  0  0  0  0  0
  191.1030  177.4660  147.4000 C   0  0  0  0  0  3  0  0  0  0  0  0
  191.9590  175.4590  146.3580 C   0  0  0  0  0  3  0  0  0  0  0  0
  191.9470  178.1380  149.5260 F   0  0  0  0  0  0  0  0  0  0  0  0
  189.9420  177.5520  139.2860 C   0  0  0  0  0  2  0  0  0  0  0  0
  189.4250  176.9500  138.0650 N   0  0  0  0  0  2  0  0  0  0  0  0
  188.5440  177.8720  136.1210 O   0  0  0  0  0  1  0  0  0  0  0  0
  188.4440  177.8720  137.5150 C   0  0  1  0  0  3  0  0  0  0  0  0
  187.0400  177.4520  137.9350 C   0  0  1  0  0  3  0  0  0  0  0  0
  184.8180  177.1230  136.3310 S   0  0  0  0  0  0  0  0  0  0  0  0
  184.5420  178.0360  138.2140 S   0  0  0  0  0  0  0  0  0  0  0  0
  186.1970  178.6270  138.1260 N   0  0  0  0  0  2  0  0  0  0  0  0
  186.4300  176.5070  136.8950 C   0  0  0  0  0  2  0  0  0  0  0  0
  1 10  2  0  0  0  0
  1 12  1  0  0  0  0
  2  6  1  0  0  0  0
  2  8  1  0  0  0  0
  3  8  2  0  0  0  0
  3 11  1  0  0  0  0
  4 17  1  0  0  0  0
  4 14  2  0  0  0  0
  5 10  1  0  0  0  0
  6  5  2  0  0  0  0
  7 13  1  1  0  0  0
  7 17  1  0  0  0  0
  8  1  1  0  0  0  0
  9  4  1  0  0  0  0
 11 18  1  0  0  0  0
 14 15  1  0  0  0  0
 15 11  2  0  0  0  0
 15 21  1  0  0  0  0
 16 26  1  6  0  0  0
 16  9  1  0  0  0  0
 16  7  1  0  0  0  0
 17  3  1  0  0  0  0
 18 12  2  0  0  0  0
 19 20  1  0  0  0  0
 19 25  1  0  0  0  0
 21 24  2  0  0  0  0
 21 23  1  0  0  0  0
 22 20  2  0  0  0  0
 23 19  2  0  0  0  0
 24 22  1  0  0  0  0
 27 26  1  0  0  0  0
 29 28  1  6  0  0  0
 29 27  1  0  0  0  0
 30 29  1  6  0  0  0
 30 33  1  0  0  0  0
 31 34  1  0  0  0  0
 31 32  1  0  0  0  0
 33 32  1  0  0  0  0
 34 30  1  0  0  0  0
M  END
>  <MODEL>
7

>  <REMARK>
 VINA RESULT:      -9.2      2.880      5.708
  Name = 
  5 active torsions:
  status: ('A' for Active; 'I' for Inactive)
    1  A    between atoms: N_3  and  C_13
    2  A    between atoms: N_3  and  C_17
    3  A    between atoms: C_12  and  C_28
    4  A    between atoms: C_13  and  C_14
    5  A    between atoms: C_17  and  C_29
                            x       y       z     vdW  Elec       q    Type
                         _______ _______ _______ _____ _____    ______ ____

>  <TORSDO>
F 5

$$$$
=
 OpenBabel11052414053D

 34 39  0  0  1  0  0  0  0  0999 V2000
  185.9310  178.1890  145.8040 C   0  0  0  0  0  0  0  0  0  0  0  0
  185.4210  178.1950  143.3300 C   0  0  0  0  0  2  0  0  0  0  0  0
  187.7430  177.6600  144.2460 C   0  0  0  0  0  0  0  0  0  0  0  0
  189.5800  176.9710  142.7290 C   0  0  0  0  0  0  0  0  0  0  0  0
  183.7600  178.8700  145.0270 C   0  0  0  0  0  3  0  0  0  0  0  0
  184.0770  178.7210  143.7430 C   0  0  0  0  0  3  0  0  0  0  0  0
  187.7740  177.8980  141.6140 C   0  0  1  0  0  3  0  0  0  0  0  0
  186.3950  178.0410  144.4760 C   0  0  0  0  0  0  0  0  0  0  0  0
  189.9470  176.8390  141.3740 N   0  0  0  0  0  2  0  0  0  0  0  0
  184.7110  178.5660  146.0530 N   0  0  0  0  0  0  0  0  0  0  0  0
  188.5990  177.3770  145.3490 C   0  0  0  0  0  0  0  0  0  0  0  0
  186.7840  177.9330  146.8740 C   0  0  0  0  0  3  0  0  0  0  0  0
  187.7100  179.4220  141.5340 C   0  0  0  0  0  1  0  0  0  0  0  0
  190.3710  176.6940  143.7570 C   0  0  0  0  0  3  0  0  0  0  0  0
  189.8780  176.9300  145.1410 C   0  0  0  0  0  0  0  0  0  0  0  0
  188.7840  177.2720  140.6040 C   0  0  2  0  0  3  0  0  0  0  0  0
  188.2930  177.5040  142.9190 N   0  0  0  0  0  0  0  0  0  0  0  0
  188.0940  177.5250  146.6500 C   0  0  0  0  0  3  0  0  0  0  0  0
  191.8650  177.2050  148.3700 C   0  0  0  0  0  0  0  0  0  0  0  0
  192.6910  176.0830  148.2760 C   0  0  0  0  0  3  0  0  0  0  0  0
  190.8290  176.6330  146.2440 C   0  0  0  0  0  0  0  0  0  0  0  0
  192.5960  175.2390  147.1670 C   0  0  0  0  0  3  0  0  0  0  0  0
  190.9430  177.4820  147.3580 C   0  0  0  0  0  3  0  0  0  0  0  0
  191.6740  175.5160  146.1540 C   0  0  0  0  0  3  0  0  0  0  0  0
  191.9610  178.0280  149.4430 F   0  0  0  0  0  0  0  0  0  0  0  0
  189.1820  178.1180  139.3920 C   0  0  0  0  0  2  0  0  0  0  0  0
  188.4940  177.6700  138.1890 N   0  0  0  0  0  2  0  0  0  0  0  0
  187.9820  175.7190  137.0330 O   0  0  0  0  0  1  0  0  0  0  0  0
  188.8220  176.2650  138.0070 C   0  0  1  0  0  3  0  0  0  0  0  0
  190.2780  176.1210  137.5760 C   0  0  1  0  0  3  0  0  0  0  0  0
  191.3040  174.5190  135.5770 S   0  0  0  0  0  0  0  0  0  0  0  0
  192.3960  174.6610  137.3770 S   0  0  0  0  0  0  0  0  0  0  0  0
  190.8840  174.9630  138.2240 N   0  0  0  0  0  2  0  0  0  0  0  0
  190.3770  176.0070  136.0520 C   0  0  0  0  0  2  0  0  0  0  0  0
  1 10  2  0  0  0  0
  1 12  1  0  0  0  0
  2  6  1  0  0  0  0
  2  8  1  0  0  0  0
  3  8  2  0  0  0  0
  3 11  1  0  0  0  0
  4 17  1  0  0  0  0
  4 14  2  0  0  0  0
  5 10  1  0  0  0  0
  6  5  2  0  0  0  0
  7 13  1  1  0  0  0
  7 17  1  0  0  0  0
  8  1  1  0  0  0  0
  9  4  1  0  0  0  0
 11 18  1  0  0  0  0
 14 15  1  0  0  0  0
 15 11  2  0  0  0  0
 15 21  1  0  0  0  0
 16 26  1  6  0  0  0
 16  9  1  0  0  0  0
 16  7  1  0  0  0  0
 17  3  1  0  0  0  0
 18 12  2  0  0  0  0
 19 25  1  0  0  0  0
 20 19  1  0  0  0  0
 21 23  1  0  0  0  0
 22 20  2  0  0  0  0
 23 19  2  0  0  0  0
 24 21  2  0  0  0  0
 24 22  1  0  0  0  0
 27 26  1  0  0  0  0
 29 28  1  6  0  0  0
 29 27  1  0  0  0  0
 30 29  1  6  0  0  0
 30 33  1  0  0  0  0
 31 34  1  0  0  0  0
 31 32  1  0  0  0  0
 32 33  1  0  0  0  0
 34 30  1  0  0  0  0
M  END
>  <MODEL>
8

>  <REMARK>
 VINA RESULT:      -9.1      3.041      5.765
  Name = 
  5 active torsions:
  status: ('A' for Active; 'I' for Inactive)
    1  A    between atoms: N_3  and  C_13
    2  A    between atoms: N_3  and  C_17
    3  A    between atoms: C_12  and  C_28
    4  A    between atoms: C_13  and  C_14
    5  A    between atoms: C_17  and  C_29
                            x       y       z     vdW  Elec       q    Type
                         _______ _______ _______ _____ _____    ______ ____

>  <TORSDO>
F 5

$$$$
=
 OpenBabel11052414053D

 34 39  0  0  1  0  0  0  0  0999 V2000
  189.8500  177.3670  145.6470 C   0  0  0  0  0  0  0  0  0  0  0  0
  187.5930  177.4940  146.7740 C   0  0  0  0  0  3  0  0  0  0  0  0
  187.8790  177.7590  144.2510 C   0  0  0  0  0  0  0  0  0  0  0  0
  185.9070  178.0080  142.7680 C   0  0  0  0  0  0  0  0  0  0  0  0
  189.6980  177.2750  148.0460 C   0  0  0  0  0  3  0  0  0  0  0  0
  188.3750  177.4200  148.0530 C   0  0  0  0  0  3  0  0  0  0  0  0
  185.4100  178.3230  145.0080 C   0  0  1  0  0  3  0  0  0  0  0  0
  188.4560  177.5740  145.5350 C   0  0  0  0  0  0  0  0  0  0  0  0
  184.5090  178.1960  142.7550 N   0  0  0  0  0  2  0  0  0  0  0  0
  190.4190  177.2240  146.8090 N   0  0  0  0  0  0  0  0  0  0  0  0
  188.6970  177.6810  143.0870 C   0  0  0  0  0  0  0  0  0  0  0  0
  190.6430  177.3170  144.5050 C   0  0  0  0  0  3  0  0  0  0  0  0
  185.6750  179.7080  145.5940 C   0  0  0  0  0  1  0  0  0  0  0  0
  186.6680  177.9210  141.6850 C   0  0  0  0  0  3  0  0  0  0  0  0
  188.1410  177.7770  141.8380 C   0  0  0  0  0  0  0  0  0  0  0  0
  184.1050  178.2550  144.1580 C   0  0  2  0  0  3  0  0  0  0  0  0
  186.4650  177.9900  144.0580 N   0  0  0  0  0  0  0  0  0  0  0  0
  190.0740  177.4620  143.2440 C   0  0  0  0  0  2  0  0  0  0  0  0
  189.4200  178.5190  138.3360 C   0  0  0  0  0  0  0  0  0  0  0  0
  190.4080  177.5410  138.1960 C   0  0  0  0  0  3  0  0  0  0  0  0
  188.9360  177.7220  140.5840 C   0  0  0  0  0  0  0  0  0  0  0  0
  190.6580  176.6490  139.2410 C   0  0  0  0  0  3  0  0  0  0  0  0
  188.6840  178.6050  139.5200 C   0  0  0  0  0  3  0  0  0  0  0  0
  189.9220  176.7360  140.4260 C   0  0  0  0  0  3  0  0  0  0  0  0
  189.1710  179.3810  137.3200 F   0  0  0  0  0  0  0  0  0  0  0  0
  183.0490  179.3340  144.4040 C   0  0  0  0  0  2  0  0  0  0  0  0
  182.3130  179.6380  143.1840 N   0  0  0  0  0  2  0  0  0  0  0  0
  180.5480  178.6550  144.3360 O   0  0  0  0  0  1  0  0  0  0  0  0
  181.2080  178.6940  143.1050 C   0  0  1  0  0  3  0  0  0  0  0  0
  180.2370  179.1200  142.0100 C   0  0  1  0  0  3  0  0  0  0  0  0
  180.8340  180.1730  139.5300 S   0  0  0  0  0  0  0  0  0  0  0  0
  179.1960  180.9960  140.5770 S   0  0  0  0  0  0  0  0  0  0  0  0
  179.9890  180.5560  142.0840 N   0  0  0  0  0  2  0  0  0  0  0  0
  180.7800  178.7310  140.6310 C   0  0  0  0  0  2  0  0  0  0  0  0
  1 10  1  0  0  0  0
  2  6  2  0  0  0  0
  3  8  2  0  0  0  0
  4 17  1  0  0  0  0
  5  6  1  0  0  0  0
  7 13  1  6  0  0  0
  8  1  1  0  0  0  0
  8  2  1  0  0  0  0
  9  4  1  0  0  0  0
  9 16  1  0  0  0  0
 10  5  2  0  0  0  0
 11 18  1  0  0  0  0
 11  3  1  0  0  0  0
 12  1  2  0  0  0  0
 14 15  1  0  0  0  0
 14  4  2  0  0  0  0
 15 11  2  0  0  0  0
 16 26  1  6  0  0  0
 16  7  1  0  0  0  0
 17  3  1  0  0  0  0
 17  7  1  0  0  0  0
 18 12  1  0  0  0  0
 19 23  1  0  0  0  0
 20 19  2  0  0  0  0
 20 22  1  0  0  0  0
 21 15  1  0  0  0  0
 22 24  2  0  0  0  0
 23 21  2  0  0  0  0
 24 21  1  0  0  0  0
 25 19  1  0  0  0  0
 27 26  1  0  0  0  0
 29 27  1  0  0  0  0
 29 28  1  1  0  0  0
 30 33  1  0  0  0  0
 30 29  1  1  0  0  0
 31 32  1  0  0  0  0
 31 34  1  0  0  0  0
 32 33  1  0  0  0  0
 34 30  1  0  0  0  0
M  END
>  <MODEL>
9

>  <REMARK>
 VINA RESULT:      -9.1      4.093      6.860
  Name = 
  5 active torsions:
  status: ('A' for Active; 'I' for Inactive)
    1  A    between atoms: N_3  and  C_13
    2  A    between atoms: N_3  and  C_17
    3  A    between atoms: C_12  and  C_28
    4  A    between atoms: C_13  and  C_14
    5  A    between atoms: C_17  and  C_29
                            x       y       z     vdW  Elec       q    Type
                         _______ _______ _______ _____ _____    ______ ____

>  <TORSDO>
F 5

$$$$
