=
 OpenBabel11052413273D

 28 32  0  0  1  0  0  0  0  0999 V2000
  190.0070  176.3330  143.6820 C   0  0  0  0  0  0  0  0  0  0  0  0
  185.3510  177.9510  142.8790 C   0  0  0  0  0  2  0  0  0  0  0  0
  188.8490  178.2370  148.1020 C   0  0  0  0  0  1  0  0  0  0  0  0
  184.9070  179.1400  144.9980 C   0  0  1  0  0  3  0  0  0  0  0  0
  186.8620  177.5900  144.8720 C   0  0  0  0  0  0  0  0  0  0  0  0
  183.0630  178.9720  143.3400 C   0  0  0  0  0  0  0  0  0  0  0  0
  185.4540  177.8390  144.3980 C   0  0  2  0  0  3  0  0  0  0  0  0
  186.3390  178.8940  146.9600 N   0  0  0  0  0  2  0  0  0  0  0  0
  183.5120  179.4160  144.5200 C   0  0  0  0  0  3  0  0  0  0  0  0
  189.3730  176.7960  146.0240 C   0  0  2  0  0  3  0  0  0  0  0  0
  187.7100  176.9520  144.1180 N   0  0  0  0  0  0  0  0  0  0  0  0
  184.9610  179.0840  146.5180 C   0  0  0  0  0  2  0  0  0  0  0  0
  191.7430  176.6230  145.3660 C   0  0  0  0  0  3  0  0  0  0  0  0
  188.4640  177.7650  146.7370 C   0  0  0  0  0  0  0  0  0  0  0  0
  190.7560  177.0960  146.2390 O   0  0  0  0  0  0  0  0  0  0  0  0
  181.7790  179.3100  142.9390 O   0  0  0  0  0  1  0  0  0  0  0  0
  183.8810  178.0530  142.4620 C   0  0  0  0  0  2  0  0  0  0  0  0
  187.2560  178.0670  146.2280 C   0  0  0  0  0  0  0  0  0  0  0  0
  191.4080  176.2270  144.1370 C   0  0  0  0  0  3  0  0  0  0  0  0
  189.0490  176.6930  144.5520 C   0  0  0  0  0  0  0  0  0  0  0  0
  189.7110  176.1570  142.2200 C   0  0  0  0  0  2  0  0  0  0  0  0
  190.0490  177.4020  141.3950 C   0  0  2  0  0  3  0  0  0  0  0  0
  190.1930  177.7820  139.1300 C   0  0  1  0  0  3  0  0  0  0  0  0
  188.8780  178.0970  141.0420 O   0  0  0  0  0  0  0  0  0  0  0  0
  192.1500  177.5840  140.3790 C   0  0  0  0  0  1  0  0  0  0  0  0
  190.8120  177.0430  140.2050 N   0  0  0  0  0  0  0  0  0  0  0  0
  189.5630  176.8110  138.1490 C   0  0  0  0  0  1  0  0  0  0  0  0
  189.1190  178.6180  139.7680 C   0  0  0  0  0  2  0  0  0  0  0  0
  1 19  1  0  0  0  0
  1 20  2  0  0  0  0
  4  9  1  1  0  0  0
  4 12  1  0  0  0  0
  5 18  1  0  0  0  0
  6  9  2  0  0  0  0
  7  2  1  6  0  0  0
  7  5  1  0  0  0  0
  7  4  1  0  0  0  0
 10 20  1  6  0  0  0
 10 15  1  0  0  0  0
 10 14  1  0  0  0  0
 11 20  1  0  0  0  0
 11  5  2  0  0  0  0
 12  8  1  0  0  0  0
 13 15  1  0  0  0  0
 14  3  1  0  0  0  0
 16  6  1  0  0  0  0
 17  2  1  0  0  0  0
 17  6  1  0  0  0  0
 18 14  2  0  0  0  0
 18  8  1  0  0  0  0
 19 13  2  0  0  0  0
 21  1  1  0  0  0  0
 22 21  1  6  0  0  0
 23 27  1  6  0  0  0
 23 28  1  0  0  0  0
 23 26  1  0  0  0  0
 24 22  1  0  0  0  0
 26 25  1  0  0  0  0
 26 22  1  0  0  0  0
 28 24  1  0  0  0  0
M  END
>  <MODEL>
1

>  <REMARK>
 VINA RESULT:     -10.1      0.000      0.000
  Name = 
  2 active torsions:
  status: ('A' for Active; 'I' for Inactive)
    1  A    between atoms: C_1  and  C_2
    2  A    between atoms: C_2  and  C_3
                            x       y       z     vdW  Elec       q    Type
                         _______ _______ _______ _____ _____    ______ ____

>  <TORSDO>
F 2

$$$$
=
 OpenBabel11052413273D

 28 32  0  0  1  0  0  0  0  0999 V2000
  189.5150  177.4640  141.1310 C   0  0  0  0  0  0  0  0  0  0  0  0
  184.8420  178.4930  142.5640 C   0  0  0  0  0  2  0  0  0  0  0  0
  189.9650  177.4310  146.0610 C   0  0  0  0  0  1  0  0  0  0  0  0
  185.1560  178.7490  145.0010 C   0  0  1  0  0  3  0  0  0  0  0  0
  186.9720  177.6850  143.6570 C   0  0  0  0  0  0  0  0  0  0  0  0
  182.8460  178.8980  144.0940 C   0  0  0  0  0  0  0  0  0  0  0  0
  185.4820  177.8580  143.7960 C   0  0  2  0  0  3  0  0  0  0  0  0
  187.1990  178.0440  146.1370 N   0  0  0  0  0  2  0  0  0  0  0  0
  183.6760  178.9520  145.1430 C   0  0  0  0  0  3  0  0  0  0  0  0
  189.7460  176.9410  143.5340 C   0  0  2  0  0  3  0  0  0  0  0  0
  187.5100  177.5070  142.4850 N   0  0  0  0  0  0  0  0  0  0  0  0
  185.7490  178.1580  146.2710 C   0  0  0  0  0  2  0  0  0  0  0  0
  191.7290  177.4000  142.1430 C   0  0  0  0  0  3  0  0  0  0  0  0
  189.1300  177.4290  144.8210 C   0  0  0  0  0  0  0  0  0  0  0  0
  191.1080  177.3620  143.3970 O   0  0  0  0  0  0  0  0  0  0  0  0
  181.4960  179.1470  144.2920 O   0  0  0  0  0  1  0  0  0  0  0  0
  183.3180  178.5020  142.7140 C   0  0  0  0  0  2  0  0  0  0  0  0
  187.8130  177.6960  144.8870 C   0  0  0  0  0  0  0  0  0  0  0  0
  190.9870  177.4270  141.0340 C   0  0  0  0  0  3  0  0  0  0  0  0
  188.9220  177.3270  142.3290 C   0  0  0  0  0  0  0  0  0  0  0  0
  188.7200  177.7830  139.8970 C   0  0  0  0  0  2  0  0  0  0  0  0
  189.5540  177.6830  138.6160 C   0  0  2  0  0  3  0  0  0  0  0  0
  189.1320  176.7660  136.5480 C   0  0  1  0  0  3  0  0  0  0  0  0
  189.2810  178.7640  137.7600 O   0  0  0  0  0  0  0  0  0  0  0  0
  190.5350  175.6390  138.0280 C   0  0  0  0  0  1  0  0  0  0  0  0
  189.3080  176.4150  137.9370 N   0  0  0  0  0  0  0  0  0  0  0  0
  187.7090  176.4510  136.1250 C   0  0  0  0  0  1  0  0  0  0  0  0
  189.3640  178.2490  136.4640 C   0  0  0  0  0  2  0  0  0  0  0  0
  1 20  2  0  0  0  0
  2 17  1  0  0  0  0
  4  9  1  1  0  0  0
  4 12  1  0  0  0  0
  5  7  1  0  0  0  0
  5 18  1  0  0  0  0
  6 16  1  0  0  0  0
  6  9  2  0  0  0  0
  7  2  1  6  0  0  0
  7  4  1  0  0  0  0
  8 12  1  0  0  0  0
 10 20  1  6  0  0  0
 10 14  1  0  0  0  0
 11  5  2  0  0  0  0
 13 15  1  0  0  0  0
 14 18  2  0  0  0  0
 14  3  1  0  0  0  0
 15 10  1  0  0  0  0
 17  6  1  0  0  0  0
 18  8  1  0  0  0  0
 19  1  1  0  0  0  0
 19 13  2  0  0  0  0
 20 11  1  0  0  0  0
 21  1  1  0  0  0  0
 22 21  1  1  0  0  0
 23 27  1  1  0  0  0
 23 26  1  0  0  0  0
 24 22  1  0  0  0  0
 26 25  1  0  0  0  0
 26 22  1  0  0  0  0
 28 23  1  0  0  0  0
 28 24  1  0  0  0  0
M  END
>  <MODEL>
2

>  <REMARK>
 VINA RESULT:      -9.7      1.574      2.328
  Name = 
  2 active torsions:
  status: ('A' for Active; 'I' for Inactive)
    1  A    between atoms: C_1  and  C_2
    2  A    between atoms: C_2  and  C_3
                            x       y       z     vdW  Elec       q    Type
                         _______ _______ _______ _____ _____    ______ ____

>  <TORSDO>
F 2

$$$$
=
 OpenBabel11052413273D

 28 32  0  0  1  0  0  0  0  0999 V2000
  189.9970  177.4840  140.6710 C   0  0  0  0  0  0  0  0  0  0  0  0
  185.7120  178.5160  143.0220 C   0  0  0  0  0  2  0  0  0  0  0  0
  191.2730  176.7820  145.4020 C   0  0  0  0  0  1  0  0  0  0  0  0
  186.4510  178.4340  145.3770 C   0  0  1  0  0  3  0  0  0  0  0  0
  187.9390  177.4790  143.6130 C   0  0  0  0  0  0  0  0  0  0  0  0
  184.0360  178.8020  144.9180 C   0  0  0  0  0  0  0  0  0  0  0  0
  186.5090  177.6970  144.0340 C   0  0  2  0  0  3  0  0  0  0  0  0
  188.6060  177.4980  146.0390 N   0  0  0  0  0  2  0  0  0  0  0  0
  185.0330  178.6810  145.8020 C   0  0  0  0  0  3  0  0  0  0  0  0
  190.5980  176.6390  142.9130 C   0  0  2  0  0  3  0  0  0  0  0  0
  188.2570  177.4340  142.3520 N   0  0  0  0  0  0  0  0  0  0  0  0
  187.2110  177.6550  146.4410 C   0  0  0  0  0  2  0  0  0  0  0  0
  192.3420  177.1920  141.2600 C   0  0  0  0  0  3  0  0  0  0  0  0
  190.2420  176.9790  144.3380 C   0  0  0  0  0  0  0  0  0  0  0  0
  191.9410  177.0150  142.5900 O   0  0  0  0  0  0  0  0  0  0  0  0
  182.7570  179.0800  145.3800 O   0  0  0  0  0  1  0  0  0  0  0  0
  184.2400  178.5710  143.4380 C   0  0  0  0  0  2  0  0  0  0  0  0
  188.9750  177.2920  144.6680 C   0  0  0  0  0  0  0  0  0  0  0  0
  191.4260  177.3970  140.3110 C   0  0  0  0  0  3  0  0  0  0  0  0
  189.6080  177.2160  141.9290 C   0  0  0  0  0  0  0  0  0  0  0  0
  189.0270  177.9970  139.6440 C   0  0  0  0  0  2  0  0  0  0  0  0
  189.4510  177.6610  138.2120 C   0  0  2  0  0  3  0  0  0  0  0  0
  188.3100  176.8010  136.4080 C   0  0  1  0  0  3  0  0  0  0  0  0
  189.2050  178.7480  137.3540 O   0  0  0  0  0  0  0  0  0  0  0  0
  189.7720  175.4260  137.5910 C   0  0  0  0  0  1  0  0  0  0  0  0
  188.7650  176.4650  137.7360 N   0  0  0  0  0  0  0  0  0  0  0  0
  186.7930  176.8160  136.3840 C   0  0  0  0  0  1  0  0  0  0  0  0
  188.8300  178.1850  136.1310 C   0  0  0  0  0  2  0  0  0  0  0  0
  1 20  2  0  0  0  0
  2 17  1  0  0  0  0
  4  9  1  1  0  0  0
  4 12  1  0  0  0  0
  5  7  1  0  0  0  0
  5 18  1  0  0  0  0
  6 16  1  0  0  0  0
  6  9  2  0  0  0  0
  7  2  1  6  0  0  0
  7  4  1  0  0  0  0
  8 12  1  0  0  0  0
 10 20  1  6  0  0  0
 10 14  1  0  0  0  0
 11  5  2  0  0  0  0
 13 15  1  0  0  0  0
 14 18  2  0  0  0  0
 14  3  1  0  0  0  0
 15 10  1  0  0  0  0
 17  6  1  0  0  0  0
 18  8  1  0  0  0  0
 19  1  1  0  0  0  0
 19 13  2  0  0  0  0
 20 11  1  0  0  0  0
 21  1  1  0  0  0  0
 22 21  1  1  0  0  0
 23 27  1  1  0  0  0
 23 26  1  0  0  0  0
 24 22  1  0  0  0  0
 25 26  1  0  0  0  0
 26 22  1  0  0  0  0
 28 23  1  0  0  0  0
 28 24  1  0  0  0  0
M  END
>  <MODEL>
3

>  <REMARK>
 VINA RESULT:      -9.7      1.811      2.992
  Name = 
  2 active torsions:
  status: ('A' for Active; 'I' for Inactive)
    1  A    between atoms: C_1  and  C_2
    2  A    between atoms: C_2  and  C_3
                            x       y       z     vdW  Elec       q    Type
                         _______ _______ _______ _____ _____    ______ ____

>  <TORSDO>
F 2

$$$$
=
 OpenBabel11052413273D

 28 32  0  0  1  0  0  0  0  0999 V2000
  187.3900  178.1990  139.9780 C   0  0  0  0  0  0  0  0  0  0  0  0
  187.3110  177.9050  144.9640 C   0  0  0  0  0  2  0  0  0  0  0  0
  192.1630  177.3690  140.9930 C   0  0  0  0  0  1  0  0  0  0  0  0
  189.7290  177.7760  145.4540 C   0  0  1  0  0  3  0  0  0  0  0  0
  188.9510  177.3970  143.1100 C   0  0  0  0  0  0  0  0  0  0  0  0
  188.1360  177.5800  147.3520 C   0  0  0  0  0  0  0  0  0  0  0  0
  188.6120  177.2130  144.5670 C   0  0  2  0  0  3  0  0  0  0  0  0
  191.3920  177.3390  143.7200 N   0  0  0  0  0  2  0  0  0  0  0  0
  189.3980  177.6220  146.9090 C   0  0  0  0  0  3  0  0  0  0  0  0
  189.6680  177.3110  140.3280 C   0  0  2  0  0  3  0  0  0  0  0  0
  188.0090  177.5560  142.2280 N   0  0  0  0  0  0  0  0  0  0  0  0
  191.0550  177.1080  145.1220 C   0  0  0  0  0  2  0  0  0  0  0  0
  189.0590  178.4370  138.2210 C   0  0  0  0  0  3  0  0  0  0  0  0
  190.7250  177.4100  141.3990 C   0  0  0  0  0  0  0  0  0  0  0  0
  190.0290  178.0370  139.1480 O   0  0  0  0  0  0  0  0  0  0  0  0
  187.9050  177.4880  148.7170 O   0  0  0  0  0  1  0  0  0  0  0  0
  186.9540  177.5540  146.4110 C   0  0  0  0  0  2  0  0  0  0  0  0
  190.3840  177.3670  142.6990 C   0  0  0  0  0  0  0  0  0  0  0  0
  187.7770  178.5030  138.5870 C   0  0  0  0  0  3  0  0  0  0  0  0
  188.3070  177.7200  140.8370 C   0  0  0  0  0  0  0  0  0  0  0  0
  186.0030  178.5560  140.4330 C   0  0  0  0  0  2  0  0  0  0  0  0
  185.0530  178.8360  139.2660 C   0  0  2  0  0  3  0  0  0  0  0  0
  182.7920  178.5120  138.9810 C   0  0  1  0  0  3  0  0  0  0  0  0
  184.4580  180.1030  139.4030 O   0  0  0  0  0  0  0  0  0  0  0  0
  184.2900  177.0630  137.9400 C   0  0  0  0  0  1  0  0  0  0  0  0
  184.0330  177.7980  139.1680 N   0  0  0  0  0  0  0  0  0  0  0  0
  181.8950  178.2840  140.1830 C   0  0  0  0  0  1  0  0  0  0  0  0
  183.1620  179.9670  138.9000 C   0  0  0  0  0  2  0  0  0  0  0  0
  1 21  1  0  0  0  0
  1 20  2  0  0  0  0
  2 17  1  0  0  0  0
  3 14  1  0  0  0  0
  4 12  1  1  0  0  0
  4  9  1  0  0  0  0
  5  7  1  0  0  0  0
  6 16  1  0  0  0  0
  7  2  1  1  0  0  0
  7  4  1  0  0  0  0
  8 12  1  0  0  0  0
  9  6  2  0  0  0  0
 10 15  1  6  0  0  0
 10 20  1  0  0  0  0
 10 14  1  0  0  0  0
 11  5  2  0  0  0  0
 13 19  2  0  0  0  0
 13 15  1  0  0  0  0
 14 18  2  0  0  0  0
 17  6  1  0  0  0  0
 18  5  1  0  0  0  0
 18  8  1  0  0  0  0
 19  1  1  0  0  0  0
 20 11  1  0  0  0  0
 22 24  1  0  0  0  0
 22 21  1  1  0  0  0
 23 26  1  0  0  0  0
 23 27  1  1  0  0  0
 25 26  1  0  0  0  0
 26 22  1  0  0  0  0
 28 23  1  0  0  0  0
 28 24  1  0  0  0  0
M  END
>  <MODEL>
4

>  <REMARK>
 VINA RESULT:      -9.4      2.660      6.070
  Name = 
  2 active torsions:
  status: ('A' for Active; 'I' for Inactive)
    1  A    between atoms: C_1  and  C_2
    2  A    between atoms: C_2  and  C_3
                            x       y       z     vdW  Elec       q    Type
                         _______ _______ _______ _____ _____    ______ ____

>  <TORSDO>
F 2

$$$$
=
 OpenBabel11052413273D

 28 32  0  0  1  0  0  0  0  0999 V2000
  187.0700  178.3730  140.6930 C   0  0  0  0  0  0  0  0  0  0  0  0
  190.1920  177.1900  144.4090 C   0  0  0  0  0  2  0  0  0  0  0  0
  184.0660  178.6150  144.6200 C   0  0  0  0  0  1  0  0  0  0  0  0
  188.6140  177.0420  146.3030 C   0  0  1  0  0  3  0  0  0  0  0  0
  187.8580  178.1350  144.1880 C   0  0  0  0  0  0  0  0  0  0  0  0
  191.0380  176.7540  146.7710 C   0  0  0  0  0  0  0  0  0  0  0  0
  189.0320  177.9000  145.1030 C   0  0  2  0  0  3  0  0  0  0  0  0
  186.3250  177.8810  146.1670 N   0  0  0  0  0  2  0  0  0  0  0  0
  189.7760  176.7780  147.2150 C   0  0  0  0  0  3  0  0  0  0  0  0
  185.6250  178.9970  142.5970 C   0  0  2  0  0  3  0  0  0  0  0  0
  188.0390  178.2920  142.9080 N   0  0  0  0  0  0  0  0  0  0  0  0
  187.4700  177.7080  147.0550 C   0  0  0  0  0  2  0  0  0  0  0  0
  184.6650  178.5750  140.3650 C   0  0  0  0  0  3  0  0  0  0  0  0
  185.4320  178.5320  144.0180 C   0  0  0  0  0  0  0  0  0  0  0  0
  184.5240  178.6330  141.7570 O   0  0  0  0  0  0  0  0  0  0  0  0
  192.0580  176.4530  147.6620 O   0  0  0  0  0  1  0  0  0  0  0  0
  191.3980  177.1180  145.3490 C   0  0  0  0  0  2  0  0  0  0  0  0
  186.4930  178.2080  144.7790 C   0  0  0  0  0  0  0  0  0  0  0  0
  185.8810  178.4720  139.8240 C   0  0  0  0  0  3  0  0  0  0  0  0
  186.9400  178.5290  142.0210 C   0  0  0  0  0  0  0  0  0  0  0  0
  188.3800  177.9710  140.0760 C   0  0  0  0  0  2  0  0  0  0  0  0
  188.2640  177.6900  138.5760 C   0  0  2  0  0  3  0  0  0  0  0  0
  189.8120  177.1220  136.9700 C   0  0  1  0  0  3  0  0  0  0  0  0
  188.0930  176.3140  138.3400 O   0  0  0  0  0  0  0  0  0  0  0  0
  188.9860  179.3000  137.0350 C   0  0  0  0  0  1  0  0  0  0  0  0
  189.4340  178.1920  137.8630 N   0  0  0  0  0  0  0  0  0  0  0  0
  191.1730  176.5860  137.3740 C   0  0  0  0  0  1  0  0  0  0  0  0
  188.7760  176.0480  137.1500 C   0  0  0  0  0  2  0  0  0  0  0  0
  1 20  2  0  0  0  0
  2 17  1  0  0  0  0
  4 12  1  1  0  0  0
  4  9  1  0  0  0  0
  5 18  1  0  0  0  0
  5  7  1  0  0  0  0
  6  9  2  0  0  0  0
  6 16  1  0  0  0  0
  7  2  1  6  0  0  0
  7  4  1  0  0  0  0
  8 12  1  0  0  0  0
 10 15  1  6  0  0  0
 10 14  1  0  0  0  0
 11  5  2  0  0  0  0
 13 15  1  0  0  0  0
 14  3  1  0  0  0  0
 14 18  2  0  0  0  0
 17  6  1  0  0  0  0
 18  8  1  0  0  0  0
 19 13  2  0  0  0  0
 19  1  1  0  0  0  0
 20 10  1  0  0  0  0
 20 11  1  0  0  0  0
 21  1  1  0  0  0  0
 22 21  1  1  0  0  0
 23 28  1  0  0  0  0
 23 27  1  1  0  0  0
 23 26  1  0  0  0  0
 24 22  1  0  0  0  0
 25 26  1  0  0  0  0
 26 22  1  0  0  0  0
 28 24  1  0  0  0  0
M  END
>  <MODEL>
5

>  <REMARK>
 VINA RESULT:      -9.3      1.841      5.389
  Name = 
  2 active torsions:
  status: ('A' for Active; 'I' for Inactive)
    1  A    between atoms: C_1  and  C_2
    2  A    between atoms: C_2  and  C_3
                            x       y       z     vdW  Elec       q    Type
                         _______ _______ _______ _____ _____    ______ ____

>  <TORSDO>
F 2

$$$$
=
 OpenBabel11052413273D

 28 32  0  0  1  0  0  0  0  0999 V2000
  189.1950  177.5780  141.2410 C   0  0  0  0  0  0  0  0  0  0  0  0
  184.5700  178.4180  142.9290 C   0  0  0  0  0  2  0  0  0  0  0  0
  186.6890  178.1470  137.0100 C   0  0  0  0  0  1  0  0  0  0  0  0
  183.3010  178.4150  140.8100 C   0  0  1  0  0  3  0  0  0  0  0  0
  185.7910  178.5950  140.7240 C   0  0  0  0  0  0  0  0  0  0  0  0
  182.0760  178.9370  142.9090 C   0  0  0  0  0  0  0  0  0  0  0  0
  184.5550  178.9620  141.5030 C   0  0  2  0  0  3  0  0  0  0  0  0
  184.3960  178.5320  138.6310 N   0  0  0  0  0  2  0  0  0  0  0  0
  182.0600  178.7510  141.5840 C   0  0  0  0  0  3  0  0  0  0  0  0
  188.1630  178.3220  139.1240 C   0  0  2  0  0  3  0  0  0  0  0  0
  186.9260  178.4120  141.3340 N   0  0  0  0  0  0  0  0  0  0  0  0
  183.2140  178.9400  139.3840 C   0  0  0  0  0  2  0  0  0  0  0  0
  190.2580  177.0230  139.1210 C   0  0  0  0  0  3  0  0  0  0  0  0
  186.7930  178.2600  138.4970 C   0  0  0  0  0  0  0  0  0  0  0  0
  189.0910  177.4470  138.4750 O   0  0  0  0  0  0  0  0  0  0  0  0
  180.8820  179.1940  143.5670 O   0  0  0  0  0  1  0  0  0  0  0  0
  183.3610  178.9500  143.7040 C   0  0  0  0  0  2  0  0  0  0  0  0
  185.6930  178.4700  139.2420 C   0  0  0  0  0  0  0  0  0  0  0  0
  190.3450  177.0950  140.4510 C   0  0  0  0  0  3  0  0  0  0  0  0
  188.1170  178.0750  140.6130 C   0  0  0  0  0  0  0  0  0  0  0  0
  189.2120  177.3790  142.7300 C   0  0  0  0  0  2  0  0  0  0  0  0
  190.6300  177.2630  143.2940 C   0  0  2  0  0  3  0  0  0  0  0  0
  191.4590  177.2500  145.4420 C   0  0  1  0  0  3  0  0  0  0  0  0
  190.9420  175.9220  143.5830 O   0  0  0  0  0  0  0  0  0  0  0  0
  191.7010  179.1670  144.1390 C   0  0  0  0  0  1  0  0  0  0  0  0
  190.7830  178.0930  144.4850 N   0  0  0  0  0  0  0  0  0  0  0  0
  190.5370  176.9830  146.6160 C   0  0  0  0  0  1  0  0  0  0  0  0
  191.7460  175.9600  144.7250 C   0  0  0  0  0  2  0  0  0  0  0  0
  1 21  1  0  0  0  0
  2 17  1  0  0  0  0
  3 14  1  0  0  0  0
  4 12  1  6  0  0  0
  4  7  1  0  0  0  0
  4  9  1  0  0  0  0
  5 11  2  0  0  0  0
  5  7  1  0  0  0  0
  6 16  1  0  0  0  0
  6 17  1  0  0  0  0
  7  2  1  1  0  0  0
  8 18  1  0  0  0  0
  8 12  1  0  0  0  0
  9  6  2  0  0  0  0
 10 15  1  6  0  0  0
 10 20  1  0  0  0  0
 13 19  2  0  0  0  0
 14 10  1  0  0  0  0
 14 18  2  0  0  0  0
 15 13  1  0  0  0  0
 18  5  1  0  0  0  0
 19  1  1  0  0  0  0
 20  1  2  0  0  0  0
 20 11  1  0  0  0  0
 22 21  1  1  0  0  0
 22 24  1  0  0  0  0
 22 26  1  0  0  0  0
 23 27  1  1  0  0  0
 24 28  1  0  0  0  0
 25 26  1  0  0  0  0
 26 23  1  0  0  0  0
 28 23  1  0  0  0  0
M  END
>  <MODEL>
6

>  <REMARK>
 VINA RESULT:      -8.6      2.390      5.554
  Name = 
  2 active torsions:
  status: ('A' for Active; 'I' for Inactive)
    1  A    between atoms: C_1  and  C_2
    2  A    between atoms: C_2  and  C_3
                            x       y       z     vdW  Elec       q    Type
                         _______ _______ _______ _____ _____    ______ ____

>  <TORSDO>
F 2

$$$$
=
 OpenBabel11052413273D

 28 32  0  0  1  0  0  0  0  0999 V2000
  188.7030  177.0810  143.4290 C   0  0  0  0  0  0  0  0  0  0  0  0
  183.8650  178.3000  143.2010 C   0  0  0  0  0  2  0  0  0  0  0  0
  188.2160  178.2960  138.6550 C   0  0  0  0  0  1  0  0  0  0  0  0
  183.5890  178.6250  140.7680 C   0  0  1  0  0  3  0  0  0  0  0  0
  185.8970  178.5240  141.7160 C   0  0  0  0  0  0  0  0  0  0  0  0
  181.6460  179.1030  142.2430 C   0  0  0  0  0  0  0  0  0  0  0  0
  184.4790  178.9630  141.9700 C   0  0  2  0  0  3  0  0  0  0  0  0
  185.4910  178.8030  139.2490 N   0  0  0  0  0  0  0  0  0  0  0  0
  182.1660  179.0350  141.0120 C   0  0  0  0  0  3  0  0  0  0  0  0
  188.6930  178.1180  141.1870 C   0  0  2  0  0  3  0  0  0  0  0  0
  186.6630  178.1600  142.7030 N   0  0  0  0  0  0  0  0  0  0  0  0
  184.1350  179.2780  139.5060 C   0  0  0  0  0  2  0  0  0  0  0  0
  190.5060  176.5910  141.8660 C   0  0  0  0  0  3  0  0  0  0  0  0
  187.7040  178.2680  140.0590 C   0  0  1  0  0  3  0  0  0  0  0  0
  189.7440  177.2010  140.8630 O   0  0  0  0  0  0  0  0  0  0  0  0
  180.3070  179.4390  142.3900 O   0  0  0  0  0  1  0  0  0  0  0  0
  182.4850  178.9000  143.4830 C   0  0  0  0  0  2  0  0  0  0  0  0
  186.4120  178.5390  140.3170 C   0  0  0  0  0  0  0  0  0  0  0  0
  190.0400  176.5390  143.1160 C   0  0  0  0  0  3  0  0  0  0  0  0
  188.0180  177.7520  142.4870 C   0  0  0  0  0  0  0  0  0  0  0  0
  188.0890  176.7550  144.7600 C   0  0  0  0  0  2  0  0  0  0  0  0
  188.1440  177.9300  145.7400 C   0  0  2  0  0  3  0  0  0  0  0  0
  187.6870  178.1100  147.9890 C   0  0  1  0  0  3  0  0  0  0  0  0
  189.3920  177.9780  146.3880 O   0  0  0  0  0  0  0  0  0  0  0  0
  186.1560  178.9470  146.4450 C   0  0  0  0  0  1  0  0  0  0  0  0
  187.0620  177.8420  146.7150 N   0  0  0  0  0  0  0  0  0  0  0  0
  187.6130  176.8670  148.8570 C   0  0  0  0  0  1  0  0  0  0  0  0
  189.1250  178.4240  147.6850 C   0  0  0  0  0  2  0  0  0  0  0  0
  1 21  1  0  0  0  0
  2 17  1  0  0  0  0
  4 12  1  6  0  0  0
  4  9  1  0  0  0  0
  4  7  1  0  0  0  0
  5  7  1  0  0  0  0
  5 11  2  0  0  0  0
  6 16  1  0  0  0  0
  6 17  1  0  0  0  0
  7  2  1  1  0  0  0
  8 12  1  0  0  0  0
  8 18  2  0  0  0  0
  9  6  2  0  0  0  0
 10 15  1  6  0  0  0
 10 20  1  0  0  0  0
 13 19  2  0  0  0  0
 14  3  1  6  0  0  0
 14 18  1  0  0  0  0
 14 10  1  0  0  0  0
 15 13  1  0  0  0  0
 18  5  1  0  0  0  0
 19  1  1  0  0  0  0
 20 11  1  0  0  0  0
 20  1  2  0  0  0  0
 22 21  1  6  0  0  0
 22 24  1  0  0  0  0
 22 26  1  0  0  0  0
 23 27  1  1  0  0  0
 24 28  1  0  0  0  0
 25 26  1  0  0  0  0
 26 23  1  0  0  0  0
 28 23  1  0  0  0  0
M  END
>  <MODEL>
7

>  <REMARK>
 VINA RESULT:      -8.4      1.927      5.642
  Name = 
  2 active torsions:
  status: ('A' for Active; 'I' for Inactive)
    1  A    between atoms: C_1  and  C_2
    2  A    between atoms: C_2  and  C_3
                            x       y       z     vdW  Elec       q    Type
                         _______ _______ _______ _____ _____    ______ ____

>  <TORSDO>
F 2

$$$$
=
 OpenBabel11052413273D

 28 32  0  0  1  0  0  0  0  0999 V2000
  183.7690  178.6210  142.1640 C   0  0  0  0  0  0  0  0  0  0  0  0
  188.5830  177.3060  141.9500 C   0  0  0  0  0  2  0  0  0  0  0  0
  184.9260  178.3260  146.9680 C   0  0  0  0  0  1  0  0  0  0  0  0
  189.0520  176.8930  144.3390 C   0  0  1  0  0  3  0  0  0  0  0  0
  186.9680  178.1210  143.7150 C   0  0  0  0  0  0  0  0  0  0  0  0
  190.9350  176.7140  142.7270 C   0  0  0  0  0  0  0  0  0  0  0  0
  188.4110  177.8780  143.3550 C   0  0  2  0  0  3  0  0  0  0  0  0
  187.5280  177.5980  146.1110 N   0  0  0  0  0  2  0  0  0  0  0  0
  190.4840  176.6210  143.9830 C   0  0  0  0  0  3  0  0  0  0  0  0
  184.3520  178.9820  144.5370 C   0  0  2  0  0  3  0  0  0  0  0  0
  186.0950  178.4020  142.7910 N   0  0  0  0  0  0  0  0  0  0  0  0
  188.9340  177.4170  145.7630 C   0  0  0  0  0  2  0  0  0  0  0  0
  182.0040  178.7020  143.8410 C   0  0  0  0  0  3  0  0  0  0  0  0
  185.3180  178.3810  145.5270 C   0  0  0  0  0  0  0  0  0  0  0  0
  182.9960  178.6280  144.8260 O   0  0  0  0  0  0  0  0  0  0  0  0
  192.2600  176.3980  142.4630 O   0  0  0  0  0  1  0  0  0  0  0  0
  190.0710  177.2250  141.5970 C   0  0  0  0  0  2  0  0  0  0  0  0
  186.5680  178.0570  145.1490 C   0  0  0  0  0  0  0  0  0  0  0  0
  182.3480  178.7230  142.5520 C   0  0  0  0  0  3  0  0  0  0  0  0
  184.7220  178.6490  143.1110 C   0  0  0  0  0  0  0  0  0  0  0  0
  184.1040  178.3570  140.7240 C   0  0  0  0  0  2  0  0  0  0  0  0
  182.9150  177.8080  139.9320 C   0  0  2  0  0  3  0  0  0  0  0  0
  182.6240  177.2960  137.7070 C   0  0  1  0  0  3  0  0  0  0  0  0
  182.9830  176.4060  139.8430 O   0  0  0  0  0  0  0  0  0  0  0  0
  181.6710  179.2430  138.5620 C   0  0  0  0  0  1  0  0  0  0  0  0
  182.8590  178.4050  138.6020 N   0  0  0  0  0  0  0  0  0  0  0  0
  183.8270  177.1200  136.7990 C   0  0  0  0  0  1  0  0  0  0  0  0
  182.4750  176.0830  138.5820 C   0  0  0  0  0  2  0  0  0  0  0  0
  1 19  1  0  0  0  0
  1 20  2  0  0  0  0
  4  9  1  6  0  0  0
  4 12  1  0  0  0  0
  5 18  1  0  0  0  0
  6  9  2  0  0  0  0
  7  2  1  6  0  0  0
  7  5  1  0  0  0  0
  7  4  1  0  0  0  0
 10 20  1  6  0  0  0
 10 15  1  0  0  0  0
 10 14  1  0  0  0  0
 11 20  1  0  0  0  0
 11  5  2  0  0  0  0
 12  8  1  0  0  0  0
 13 15  1  0  0  0  0
 14  3  1  0  0  0  0
 16  6  1  0  0  0  0
 17  2  1  0  0  0  0
 17  6  1  0  0  0  0
 18 14  2  0  0  0  0
 18  8  1  0  0  0  0
 19 13  2  0  0  0  0
 21  1  1  0  0  0  0
 22 21  1  6  0  0  0
 23 27  1  6  0  0  0
 23 28  1  0  0  0  0
 23 26  1  0  0  0  0
 24 22  1  0  0  0  0
 25 26  1  0  0  0  0
 26 22  1  0  0  0  0
 28 24  1  0  0  0  0
M  END
>  <MODEL>
8

>  <REMARK>
 VINA RESULT:      -8.4      2.900      6.570
  Name = 
  2 active torsions:
  status: ('A' for Active; 'I' for Inactive)
    1  A    between atoms: C_1  and  C_2
    2  A    between atoms: C_2  and  C_3
                            x       y       z     vdW  Elec       q    Type
                         _______ _______ _______ _____ _____    ______ ____

>  <TORSDO>
F 2

$$$$
=
 OpenBabel11052413273D

 28 32  0  0  1  0  0  0  0  0999 V2000
  183.6090  178.7980  141.2270 C   0  0  0  0  0  0  0  0  0  0  0  0
  186.1050  177.9850  145.4760 C   0  0  0  0  0  2  0  0  0  0  0  0
  188.2760  178.5490  139.5970 C   0  0  0  0  0  1  0  0  0  0  0  0
  188.4360  178.1480  144.6760 C   0  0  1  0  0  3  0  0  0  0  0  0
  186.6010  177.9060  143.0000 C   0  0  0  0  0  0  0  0  0  0  0  0
  188.0530  177.5360  147.0550 C   0  0  0  0  0  0  0  0  0  0  0  0
  187.0660  177.5270  144.3810 C   0  0  2  0  0  3  0  0  0  0  0  0
  189.0080  178.1310  142.3030 N   0  0  0  0  0  2  0  0  0  0  0  0
  188.9060  177.8000  146.0580 C   0  0  0  0  0  3  0  0  0  0  0  0
  185.8020  178.2090  140.2550 C   0  0  2  0  0  3  0  0  0  0  0  0
  185.3310  178.0210  142.7380 N   0  0  0  0  0  0  0  0  0  0  0  0
  189.4510  177.7110  143.6290 C   0  0  0  0  0  2  0  0  0  0  0  0
  184.1270  179.4490  138.9380 C   0  0  0  0  0  3  0  0  0  0  0  0
  187.2470  178.3450  140.6620 C   0  0  0  0  0  0  0  0  0  0  0  0
  185.4590  179.0950  139.1850 O   0  0  0  0  0  0  0  0  0  0  0  0
  188.5580  177.2720  148.3200 O   0  0  0  0  0  1  0  0  0  0  0  0
  186.5610  177.4400  146.8320 C   0  0  0  0  0  2  0  0  0  0  0  0
  187.6210  178.1210  141.9350 C   0  0  0  0  0  0  0  0  0  0  0  0
  183.2100  179.2950  139.8950 C   0  0  0  0  0  3  0  0  0  0  0  0
  184.8660  178.3680  141.4290 C   0  0  0  0  0  0  0  0  0  0  0  0
  182.6270  178.9070  142.3590 C   0  0  0  0  0  2  0  0  0  0  0  0
  181.1960  179.1600  141.8770 C   0  0  2  0  0  3  0  0  0  0  0  0
  179.1490  179.0050  142.9170 C   0  0  1  0  0  3  0  0  0  0  0  0
  180.8030  180.4810  142.1600 O   0  0  0  0  0  0  0  0  0  0  0  0
  179.7910  177.3450  141.4140 C   0  0  0  0  0  1  0  0  0  0  0  0
  180.2700  178.2080  142.4810 N   0  0  0  0  0  0  0  0  0  0  0  0
  179.0610  178.9650  144.4310 C   0  0  0  0  0  1  0  0  0  0  0  0
  179.4420  180.4100  142.4690 C   0  0  0  0  0  2  0  0  0  0  0  0
  1 20  2  0  0  0  0
  1 21  1  0  0  0  0
  2 17  1  0  0  0  0
  3 14  1  0  0  0  0
  4 12  1  6  0  0  0
  4  9  1  0  0  0  0
  5  7  1  0  0  0  0
  6 16  1  0  0  0  0
  7  4  1  0  0  0  0
  7  2  1  1  0  0  0
  8 12  1  0  0  0  0
  9  6  2  0  0  0  0
 10 15  1  6  0  0  0
 10 14  1  0  0  0  0
 10 20  1  0  0  0  0
 11  5  2  0  0  0  0
 13 15  1  0  0  0  0
 13 19  2  0  0  0  0
 14 18  2  0  0  0  0
 17  6  1  0  0  0  0
 18  8  1  0  0  0  0
 18  5  1  0  0  0  0
 19  1  1  0  0  0  0
 20 11  1  0  0  0  0
 22 24  1  0  0  0  0
 22 21  1  1  0  0  0
 22 26  1  0  0  0  0
 23 27  1  1  0  0  0
 24 28  1  0  0  0  0
 25 26  1  0  0  0  0
 26 23  1  0  0  0  0
 28 23  1  0  0  0  0
M  END
>  <MODEL>
9

>  <REMARK>
 VINA RESULT:      -8.3      2.857      7.794
  Name = 
  2 active torsions:
  status: ('A' for Active; 'I' for Inactive)
    1  A    between atoms: C_1  and  C_2
    2  A    between atoms: C_2  and  C_3
                            x       y       z     vdW  Elec       q    Type
                         _______ _______ _______ _____ _____    ______ ____

>  <TORSDO>
F 2

$$$$
