=
 OpenBabel11052412203D

 30 32  0  0  1  0  0  0  0  0999 V2000
  188.2090  177.2950  141.8620 N   0  0  2  0  0  0  0  0  0  0  0  0
  189.4530  177.4740  142.6560 C   0  0  1  0  0  3  0  0  0  0  0  0
  188.0660  178.1990  140.7110 C   0  0  0  0  0  2  0  0  0  0  0  0
  189.4540  176.3910  138.5470 O   0  0  0  0  0  0  0  0  0  0  0  0
  190.0990  177.0630  139.5900 C   0  0  1  0  0  3  0  0  0  0  0  0
  188.9170  179.0010  138.2650 S   0  0  0  0  0  0  0  0  0  0  0  0
  189.3540  178.3590  139.8850 C   0  0  1  0  0  3  0  0  0  0  0  0
  190.2970  176.1370  140.7920 C   0  0  0  0  0  2  0  0  0  0  0  0
  190.3110  177.4070  136.6740 O   0  0  0  0  0  1  0  0  0  0  0  0
  189.2210  177.3520  137.5460 C   0  0  1  0  0  3  0  0  0  0  0  0
  190.6410  176.9010  141.9940 N   0  0  0  0  0  0  0  0  0  0  0  0
  191.2220  175.9520  142.9270 C   0  0  0  0  0  1  0  0  0  0  0  0
  187.3140  177.3450  144.1750 C   0  0  1  0  0  3  0  0  0  0  0  0
  184.7290  178.3180  143.1290 C   0  0  2  0  0  3  0  0  0  0  0  0
  186.0340  177.3000  145.0130 C   0  0  2  0  0  3  0  0  0  0  0  0
  188.1220  176.2730  144.5090 F   0  0  0  0  0  0  0  0  0  0  0  0
  185.0610  178.4200  144.6230 C   0  0  1  0  0  3  0  0  0  0  0  0
  186.3410  177.3710  146.3730 O   0  0  0  0  0  1  0  0  0  0  0  0
  186.9830  177.2940  142.6760 C   0  0  1  0  0  3  0  0  0  0  0  0
  185.6050  179.7990  144.9910 C   0  0  0  0  0  1  0  0  0  0  0  0
  185.9930  178.3960  142.2740 C   0  0  0  0  0  2  0  0  0  0  0  0
  183.8330  179.3210  142.7510 O   0  0  0  0  0  0  0  0  0  0  0  0
  182.6690  178.9190  143.2200 O   0  0  0  0  0  1  0  0  0  0  0  0
  189.7230  178.9310  143.0410 C   0  0  0  0  0  2  0  0  0  0  0  0
  190.7040  179.0030  144.1960 C   0  0  0  0  0  2  0  0  0  0  0  0
  190.0520  178.6050  145.4330 N   0  0  0  0  0  2  0  0  0  0  0  0
  190.4660  177.5230  146.2800 C   0  0  0  0  0  0  0  0  0  0  0  0
  189.5060  177.1190  147.5370 S   0  0  0  0  0  0  0  0  0  0  0  0
  191.7120  176.7550  146.0950 C   0  0  0  0  0  3  0  0  0  0  0  0
  192.1170  175.7800  146.8980 C   0  0  0  0  0  2  0  0  0  0  0  0
  1  3  1  6  0  0  0
  1  2  1  0  0  0  0
  1 19  1  0  0  0  0
  2 24  1  6  0  0  0
  4  5  1  0  0  0  0
  5  7  1  0  0  0  0
  5  8  1  1  0  0  0
  6  7  1  0  0  0  0
  7  3  1  1  0  0  0
  8 11  1  0  0  0  0
 10  9  1  6  0  0  0
 10  6  1  0  0  0  0
 10  4  1  0  0  0  0
 11  2  1  0  0  0  0
 11 12  1  0  0  0  0
 13 16  1  1  0  0  0
 13 15  1  0  0  0  0
 14 22  1  6  0  0  0
 14 17  1  0  0  0  0
 15 18  1  1  0  0  0
 17 20  1  6  0  0  0
 17 15  1  0  0  0  0
 19 21  1  6  0  0  0
 19 13  1  0  0  0  0
 21 14  1  0  0  0  0
 22 23  1  0  0  0  0
 24 25  1  0  0  0  0
 25 26  1  0  0  0  0
 26 27  1  0  0  0  0
 27 28  2  0  0  0  0
 29 27  1  0  0  0  0
 29 30  2  0  0  0  0
M  END
>  <MODEL>
1

>  <REMARK>
 VINA RESULT:      -5.9      0.000      0.000
  Name = 
  7 active torsions:
  status: ('A' for Active; 'I' for Inactive)
    1  A    between atoms: N_1  and  C_22
    2  A    between atoms: C_3  and  O_11
    3  A    between atoms: C_4  and  C_23
    4  A    between atoms: C_7  and  N_10
    5  A    between atoms: C_7  and  C_15
    6  A    between atoms: N_10  and  C_25
    7  A    between atoms: C_23  and  C_25
                            x       y       z     vdW  Elec       q    Type
                         _______ _______ _______ _____ _____    ______ ____

>  <TORSDO>
F 7

$$$$
=
 OpenBabel11052412203D

 30 32  0  0  1  0  0  0  0  0999 V2000
  189.1890  175.9920  137.0710 N   0  0  2  0  0  0  0  0  0  0  0  0
  189.0880  177.2410  137.8700 C   0  0  1  0  0  3  0  0  0  0  0  0
  188.0200  175.1030  137.1500 C   0  0  0  0  0  2  0  0  0  0  0  0
  186.4020  176.2720  134.7230 O   0  0  0  0  0  0  0  0  0  0  0  0
  186.5950  176.8990  135.9580 C   0  0  1  0  0  3  0  0  0  0  0  0
  185.4040  174.6480  136.6050 S   0  0  0  0  0  0  0  0  0  0  0  0
  186.6730  175.8390  137.0490 C   0  0  1  0  0  3  0  0  0  0  0  0
  187.7830  177.8620  135.8990 C   0  0  0  0  0  2  0  0  0  0  0  0
  184.1320  175.9320  134.6700 O   0  0  0  0  0  1  0  0  0  0  0  0
  185.3700  175.3360  134.9160 C   0  0  1  0  0  3  0  0  0  0  0  0
  188.2130  178.2510  137.2440 N   0  0  0  0  0  0  0  0  0  0  0  0
  189.0110  179.4540  137.0850 C   0  0  0  0  0  1  0  0  0  0  0  0
  190.6910  174.2370  136.1700 C   0  0  1  0  0  3  0  0  0  0  0  0
  192.8930  175.3040  137.8250 C   0  0  2  0  0  3  0  0  0  0  0  0
  191.9630  173.4290  136.4430 C   0  0  2  0  0  3  0  0  0  0  0  0
  189.6130  173.3770  136.0540 F   0  0  0  0  0  0  0  0  0  0  0  0
  193.1760  174.3400  136.6660 C   0  0  1  0  0  3  0  0  0  0  0  0
  192.2050  172.5370  135.3970 O   0  0  0  0  0  1  0  0  0  0  0  0
  190.4310  175.2390  137.3050 C   0  0  1  0  0  3  0  0  0  0  0  0
  193.5690  175.0850  135.3920 C   0  0  0  0  0  1  0  0  0  0  0  0
  191.6460  176.1440  137.5540 C   0  0  0  0  0  2  0  0  0  0  0  0
  193.9900  176.1360  138.0570 O   0  0  0  0  0  0  0  0  0  0  0  0
  193.6680  176.8160  139.1380 O   0  0  0  0  0  1  0  0  0  0  0  0
  188.6530  177.0010  139.3190 C   0  0  0  0  0  2  0  0  0  0  0  0
  189.7260  177.4770  140.2820 C   0  0  0  0  0  2  0  0  0  0  0  0
  189.2290  177.4300  141.6470 N   0  0  0  0  0  2  0  0  0  0  0  0
  190.0300  177.5830  142.8280 C   0  0  0  0  0  0  0  0  0  0  0  0
  191.6290  177.2760  142.7200 S   0  0  0  0  0  0  0  0  0  0  0  0
  189.4990  177.9910  144.1430 C   0  0  0  0  0  3  0  0  0  0  0  0
  188.5540  177.3370  144.8050 C   0  0  0  0  0  2  0  0  0  0  0  0
  1  3  1  1  0  0  0
  1 19  1  0  0  0  0
  1  2  1  0  0  0  0
  2 24  1  1  0  0  0
  4 10  1  0  0  0  0
  4  5  1  0  0  0  0
  5  8  1  6  0  0  0
  5  7  1  0  0  0  0
  6  7  1  0  0  0  0
  7  3  1  6  0  0  0
  8 11  1  0  0  0  0
 10  9  1  1  0  0  0
 10  6  1  0  0  0  0
 11  2  1  0  0  0  0
 12 11  1  0  0  0  0
 13 16  1  1  0  0  0
 13 15  1  0  0  0  0
 13 19  1  0  0  0  0
 14 22  1  6  0  0  0
 15 18  1  6  0  0  0
 15 17  1  0  0  0  0
 17 20  1  6  0  0  0
 17 14  1  0  0  0  0
 19 21  1  6  0  0  0
 21 14  1  0  0  0  0
 22 23  1  0  0  0  0
 24 25  1  0  0  0  0
 25 26  1  0  0  0  0
 26 27  1  0  0  0  0
 27 29  1  0  0  0  0
 28 27  2  0  0  0  0
 29 30  2  0  0  0  0
M  END
>  <MODEL>
2

>  <REMARK>
 VINA RESULT:      -5.6      4.437      7.665
  Name = 
  7 active torsions:
  status: ('A' for Active; 'I' for Inactive)
    1  A    between atoms: N_1  and  C_22
    2  A    between atoms: C_3  and  O_11
    3  A    between atoms: C_4  and  C_23
    4  A    between atoms: C_7  and  N_10
    5  A    between atoms: C_7  and  C_15
    6  A    between atoms: N_10  and  C_25
    7  A    between atoms: C_23  and  C_25
                            x       y       z     vdW  Elec       q    Type
                         _______ _______ _______ _____ _____    ______ ____

>  <TORSDO>
F 7

$$$$
=
 OpenBabel11052412203D

 30 32  0  0  1  0  0  0  0  0999 V2000
  186.1920  175.8700  136.1990 N   0  0  2  0  0  0  0  0  0  0  0  0
  185.0970  176.8430  136.4490 C   0  0  1  0  0  3  0  0  0  0  0  0
  186.0400  174.5700  136.8710 C   0  0  0  0  0  2  0  0  0  0  0  0
  184.4770  173.0700  134.5950 O   0  0  0  0  0  0  0  0  0  0  0  0
  183.9630  174.0800  135.4130 C   0  0  1  0  0  3  0  0  0  0  0  0
  184.6970  172.2300  137.1290 S   0  0  0  0  0  0  0  0  0  0  0  0
  184.6170  173.9920  136.7860 C   0  0  1  0  0  3  0  0  0  0  0  0
  184.0710  175.4440  134.7270 C   0  0  0  0  0  2  0  0  0  0  0  0
  183.2080  171.2460  135.1730 O   0  0  0  0  0  1  0  0  0  0  0  0
  184.4340  171.8880  135.3560 C   0  0  1  0  0  3  0  0  0  0  0  0
  183.8720  176.5330  135.6850 N   0  0  0  0  0  0  0  0  0  0  0  0
  183.5610  177.7140  134.9000 C   0  0  0  0  0  1  0  0  0  0  0  0
  187.4720  177.9220  136.7460 C   0  0  1  0  0  3  0  0  0  0  0  0
  189.7220  176.2460  137.6690 C   0  0  2  0  0  3  0  0  0  0  0  0
  188.8790  178.4940  136.9450 C   0  0  2  0  0  3  0  0  0  0  0  0
  186.8460  178.5880  135.7070 F   0  0  0  0  0  0  0  0  0  0  0  0
  189.6510  177.7350  138.0320 C   0  0  1  0  0  3  0  0  0  0  0  0
  188.8110  179.8540  137.2530 O   0  0  0  0  0  1  0  0  0  0  0  0
  187.5360  176.4200  136.4320 C   0  0  1  0  0  3  0  0  0  0  0  0
  189.0450  177.9540  139.4170 C   0  0  0  0  0  1  0  0  0  0  0  0
  188.3260  175.6490  137.5010 C   0  0  0  0  0  2  0  0  0  0  0  0
  190.4330  175.5340  138.6380 O   0  0  0  0  0  0  0  0  0  0  0  0
  190.7720  174.4100  138.0420 O   0  0  0  0  0  1  0  0  0  0  0  0
  184.7570  177.0060  137.9330 C   0  0  0  0  0  2  0  0  0  0  0  0
  184.3780  178.4440  138.2370 C   0  0  0  0  0  2  0  0  0  0  0  0
  185.2380  178.9790  139.2800 N   0  0  0  0  0  2  0  0  0  0  0  0
  185.0280  178.8250  140.6910 C   0  0  0  0  0  0  0  0  0  0  0  0
  183.5210  178.4730  141.2110 S   0  0  0  0  0  0  0  0  0  0  0  0
  186.0850  178.9760  141.7090 C   0  0  0  0  0  3  0  0  0  0  0  0
  186.2700  178.1460  142.7260 C   0  0  0  0  0  2  0  0  0  0  0  0
  1 19  1  0  0  0  0
  1  2  1  0  0  0  0
  1  3  1  1  0  0  0
  2 24  1  1  0  0  0
  4 10  1  0  0  0  0
  4  5  1  0  0  0  0
  5  8  1  6  0  0  0
  5  7  1  0  0  0  0
  7  3  1  6  0  0  0
  7  6  1  0  0  0  0
  8 11  1  0  0  0  0
 10  9  1  1  0  0  0
 10  6  1  0  0  0  0
 11  2  1  0  0  0  0
 12 11  1  0  0  0  0
 13 16  1  6  0  0  0
 13 15  1  0  0  0  0
 14 17  1  0  0  0  0
 14 22  1  1  0  0  0
 15 18  1  1  0  0  0
 15 17  1  0  0  0  0
 17 20  1  1  0  0  0
 19 13  1  0  0  0  0
 19 21  1  1  0  0  0
 21 14  1  0  0  0  0
 23 22  1  0  0  0  0
 24 25  1  0  0  0  0
 25 26  1  0  0  0  0
 26 27  1  0  0  0  0
 27 28  2  0  0  0  0
 27 29  1  0  0  0  0
 29 30  2  0  0  0  0
M  END
>  <MODEL>
3

>  <REMARK>
 VINA RESULT:      -5.6      5.088      8.133
  Name = 
  7 active torsions:
  status: ('A' for Active; 'I' for Inactive)
    1  A    between atoms: N_1  and  C_22
    2  A    between atoms: C_3  and  O_11
    3  A    between atoms: C_4  and  C_23
    4  A    between atoms: C_7  and  N_10
    5  A    between atoms: C_7  and  C_15
    6  A    between atoms: N_10  and  C_25
    7  A    between atoms: C_23  and  C_25
                            x       y       z     vdW  Elec       q    Type
                         _______ _______ _______ _____ _____    ______ ____

>  <TORSDO>
F 7

$$$$
=
 OpenBabel11052412203D

 30 32  0  0  1  0  0  0  0  0999 V2000
  182.3320  177.6250  140.7040 N   0  0  2  0  0  0  0  0  0  0  0  0
  181.5990  178.8680  140.3510 C   0  0  1  0  0  3  0  0  0  0  0  0
  183.7620  177.8030  140.9960 C   0  0  0  0  0  2  0  0  0  0  0  0
  183.5300  178.2890  144.0930 O   0  0  0  0  0  0  0  0  0  0  0  0
  183.1440  179.1850  143.0910 C   0  0  1  0  0  3  0  0  0  0  0  0
  185.6990  178.8050  142.6070 S   0  0  0  0  0  0  0  0  0  0  0  0
  184.0660  179.0180  141.8900 C   0  0  1  0  0  3  0  0  0  0  0  0
  181.6500  179.0520  142.7880 C   0  0  0  0  0  2  0  0  0  0  0  0
  185.2390  179.4030  145.1460 O   0  0  0  0  0  1  0  0  0  0  0  0
  184.9260  178.4130  144.2130 C   0  0  1  0  0  3  0  0  0  0  0  0
  181.3060  179.7120  141.5270 N   0  0  0  0  0  0  0  0  0  0  0  0
  179.8680  179.9120  141.5490 C   0  0  0  0  0  1  0  0  0  0  0  0
  180.6760  176.4790  139.2560 C   0  0  1  0  0  3  0  0  0  0  0  0
  182.8870  175.3810  137.6340 C   0  0  2  0  0  3  0  0  0  0  0  0
  180.4680  175.3090  138.2910 C   0  0  2  0  0  3  0  0  0  0  0  0
  179.8270  176.3410  140.3400 F   0  0  0  0  0  0  0  0  0  0  0  0
  181.4450  175.3670  137.1110 C   0  0  1  0  0  3  0  0  0  0  0  0
  179.1490  175.2860  137.8340 O   0  0  0  0  0  1  0  0  0  0  0  0
  182.1310  176.5280  139.7440 C   0  0  1  0  0  3  0  0  0  0  0  0
  181.1610  176.5560  136.1960 C   0  0  0  0  0  1  0  0  0  0  0  0
  183.1230  176.5640  138.5720 C   0  0  0  0  0  2  0  0  0  0  0  0
  183.7980  175.4200  136.5760 O   0  0  0  0  0  0  0  0  0  0  0  0
  184.9110  175.8740  137.1130 O   0  0  0  0  0  1  0  0  0  0  0  0
  182.3000  179.7010  139.2750 C   0  0  0  0  0  2  0  0  0  0  0  0
  181.3000  180.1820  138.2390 C   0  0  0  0  0  2  0  0  0  0  0  0
  181.1220  181.6210  138.3450 N   0  0  0  0  0  2  0  0  0  0  0  0
  180.9030  182.5150  137.2440 C   0  0  0  0  0  0  0  0  0  0  0  0
  180.3860  181.8830  135.8310 S   0  0  0  0  0  0  0  0  0  0  0  0
  181.1250  183.9720  137.3020 C   0  0  0  0  0  3  0  0  0  0  0  0
  181.0850  184.7780  136.2500 C   0  0  0  0  0  2  0  0  0  0  0  0
  1  3  1  6  0  0  0
  2 24  1  6  0  0  0
  2  1  1  0  0  0  0
  2 11  1  0  0  0  0
  4 10  1  0  0  0  0
  5  8  1  6  0  0  0
  5  4  1  0  0  0  0
  6 10  1  0  0  0  0
  7  3  1  1  0  0  0
  7  6  1  0  0  0  0
  7  5  1  0  0  0  0
 10  9  1  1  0  0  0
 11 12  1  0  0  0  0
 11  8  1  0  0  0  0
 13 19  1  0  0  0  0
 13 16  1  1  0  0  0
 14 22  1  6  0  0  0
 14 21  1  0  0  0  0
 15 18  1  6  0  0  0
 15 13  1  0  0  0  0
 17 20  1  1  0  0  0
 17 14  1  0  0  0  0
 17 15  1  0  0  0  0
 19 21  1  6  0  0  0
 19  1  1  0  0  0  0
 22 23  1  0  0  0  0
 25 26  1  0  0  0  0
 25 24  1  0  0  0  0
 27 29  1  0  0  0  0
 27 26  1  0  0  0  0
 28 27  2  0  0  0  0
 30 29  2  0  0  0  0
M  END
>  <MODEL>
4

>  <REMARK>
 VINA RESULT:      -5.5      6.232      9.837
  Name = 
  7 active torsions:
  status: ('A' for Active; 'I' for Inactive)
    1  A    between atoms: N_1  and  C_22
    2  A    between atoms: C_3  and  O_11
    3  A    between atoms: C_4  and  C_23
    4  A    between atoms: C_7  and  N_10
    5  A    between atoms: C_7  and  C_15
    6  A    between atoms: N_10  and  C_25
    7  A    between atoms: C_23  and  C_25
                            x       y       z     vdW  Elec       q    Type
                         _______ _______ _______ _____ _____    ______ ____

>  <TORSDO>
F 7

$$$$
=
 OpenBabel11052412203D

 30 32  0  0  1  0  0  0  0  0999 V2000
  189.6890  177.6820  139.4650 N   0  0  2  0  0  0  0  0  0  0  0  0
  190.5660  176.7270  138.7400 C   0  0  1  0  0  3  0  0  0  0  0  0
  189.1340  177.1840  140.7330 C   0  0  0  0  0  2  0  0  0  0  0  0
  191.4270  178.1730  142.6420 O   0  0  0  0  0  0  0  0  0  0  0  0
  191.5190  177.1180  141.7280 C   0  0  1  0  0  3  0  0  0  0  0  0
  189.5370  176.3880  143.2930 S   0  0  0  0  0  0  0  0  0  0  0  0
  190.1590  176.4420  141.6080 C   0  0  1  0  0  3  0  0  0  0  0  0
  192.1280  177.5960  140.4080 C   0  0  0  0  0  2  0  0  0  0  0  0
  191.6800  177.1200  144.6670 O   0  0  0  0  0  1  0  0  0  0  0  0
  190.7580  177.6590  143.7680 C   0  0  1  0  0  3  0  0  0  0  0  0
  191.9090  176.6150  139.3420 N   0  0  0  0  0  0  0  0  0  0  0  0
  192.8640  176.9320  138.2950 C   0  0  0  0  0  1  0  0  0  0  0  0
  188.7040  177.7300  137.1890 C   0  0  1  0  0  3  0  0  0  0  0  0
  186.1730  178.7390  138.3290 C   0  0  2  0  0  3  0  0  0  0  0  0
  187.6230  178.3720  136.3160 C   0  0  2  0  0  3  0  0  0  0  0  0
  189.9510  178.0070  136.6570 F   0  0  0  0  0  0  0  0  0  0  0  0
  186.2220  178.1670  136.9060 C   0  0  1  0  0  3  0  0  0  0  0  0
  187.6840  177.8660  135.0160 O   0  0  0  0  0  1  0  0  0  0  0  0
  188.6270  178.2630  138.6270 C   0  0  1  0  0  3  0  0  0  0  0  0
  185.7980  176.7000  136.8690 C   0  0  0  0  0  1  0  0  0  0  0  0
  187.2240  178.0850  139.2250 C   0  0  0  0  0  2  0  0  0  0  0  0
  184.9020  178.5770  138.8850 O   0  0  0  0  0  0  0  0  0  0  0  0
  184.6150  179.7530  139.4040 O   0  0  0  0  0  1  0  0  0  0  0  0
  189.9480  175.3350  138.5830 C   0  0  0  0  0  2  0  0  0  0  0  0
  190.5850  174.5990  137.4180 C   0  0  0  0  0  2  0  0  0  0  0  0
  189.8430  173.3820  137.1290 N   0  0  0  0  0  2  0  0  0  0  0  0
  188.5200  173.3270  136.5780 C   0  0  0  0  0  0  0  0  0  0  0  0
  188.1980  174.2280  135.2560 S   0  0  0  0  0  0  0  0  0  0  0  0
  187.4220  172.5130  137.1360 C   0  0  0  0  0  3  0  0  0  0  0  0
  186.2800  173.0090  137.5930 C   0  0  0  0  0  2  0  0  0  0  0  0
  1  3  1  1  0  0  0
  2 24  1  1  0  0  0
  2 11  1  0  0  0  0
  2  1  1  0  0  0  0
  4 10  1  0  0  0  0
  5  8  1  6  0  0  0
  5  4  1  0  0  0  0
  6 10  1  0  0  0  0
  7  3  1  6  0  0  0
  7  5  1  0  0  0  0
  7  6  1  0  0  0  0
 10  9  1  1  0  0  0
 11  8  1  0  0  0  0
 12 11  1  0  0  0  0
 13 16  1  6  0  0  0
 13 19  1  0  0  0  0
 14 22  1  1  0  0  0
 14 21  1  0  0  0  0
 15 18  1  6  0  0  0
 15 17  1  0  0  0  0
 15 13  1  0  0  0  0
 17 20  1  1  0  0  0
 17 14  1  0  0  0  0
 19 21  1  1  0  0  0
 19  1  1  0  0  0  0
 22 23  1  0  0  0  0
 25 24  1  0  0  0  0
 26 25  1  0  0  0  0
 27 26  1  0  0  0  0
 27 29  1  0  0  0  0
 28 27  2  0  0  0  0
 29 30  2  0  0  0  0
M  END
>  <MODEL>
5

>  <REMARK>
 VINA RESULT:      -5.5      3.876      7.112
  Name = 
  7 active torsions:
  status: ('A' for Active; 'I' for Inactive)
    1  A    between atoms: N_1  and  C_22
    2  A    between atoms: C_3  and  O_11
    3  A    between atoms: C_4  and  C_23
    4  A    between atoms: C_7  and  N_10
    5  A    between atoms: C_7  and  C_15
    6  A    between atoms: N_10  and  C_25
    7  A    between atoms: C_23  and  C_25
                            x       y       z     vdW  Elec       q    Type
                         _______ _______ _______ _____ _____    ______ ____

>  <TORSDO>
F 7

$$$$
=
 OpenBabel11052412203D

 30 32  0  0  1  0  0  0  0  0999 V2000
  190.9780  176.0580  136.7970 N   0  0  2  0  0  0  0  0  0  0  0  0
  190.3540  177.0100  137.7520 C   0  0  1  0  0  3  0  0  0  0  0  0
  190.4110  174.7010  136.8050 C   0  0  0  0  0  2  0  0  0  0  0  0
  188.2040  175.1260  134.6080 O   0  0  0  0  0  0  0  0  0  0  0  0
  188.1810  175.6480  135.9050 C   0  0  1  0  0  3  0  0  0  0  0  0
  188.3170  173.0540  136.3020 S   0  0  0  0  0  0  0  0  0  0  0  0
  188.8730  174.6730  136.8480 C   0  0  1  0  0  3  0  0  0  0  0  0
  188.7310  177.0760  135.9260 C   0  0  0  0  0  2  0  0  0  0  0  0
  186.4000  173.7050  134.5950 O   0  0  0  0  0  1  0  0  0  0  0  0
  187.7890  173.7860  134.7170 C   0  0  1  0  0  3  0  0  0  0  0  0
  189.0400  177.5020  137.2920 N   0  0  0  0  0  0  0  0  0  0  0  0
  189.1250  178.9510  137.2590 C   0  0  0  0  0  1  0  0  0  0  0  0
  192.9350  174.5720  137.1380 C   0  0  1  0  0  3  0  0  0  0  0  0
  194.6630  176.5910  135.8480 C   0  0  2  0  0  3  0  0  0  0  0  0
  194.4590  174.5360  137.2710 C   0  0  2  0  0  3  0  0  0  0  0  0
  192.3580  174.0800  138.2950 F   0  0  0  0  0  0  0  0  0  0  0  0
  195.1510  175.1500  136.0480 C   0  0  1  0  0  3  0  0  0  0  0  0
  194.8980  173.2270  137.4750 O   0  0  0  0  0  1  0  0  0  0  0  0
  192.4460  176.0070  136.8870 C   0  0  1  0  0  3  0  0  0  0  0  0
  194.9450  174.3020  134.7940 C   0  0  0  0  0  1  0  0  0  0  0  0
  193.1460  176.6430  135.6770 C   0  0  0  0  0  2  0  0  0  0  0  0
  195.2890  177.1780  134.7460 O   0  0  0  0  0  0  0  0  0  0  0  0
  195.7120  178.3440  135.1870 O   0  0  0  0  0  1  0  0  0  0  0  0
  190.2330  176.4520  139.1730 C   0  0  0  0  0  2  0  0  0  0  0  0
  190.7150  177.4730  140.1880 C   0  0  0  0  0  2  0  0  0  0  0  0
  191.1190  176.8070  141.4150 N   0  0  0  0  0  2  0  0  0  0  0  0
  190.6110  177.0970  142.7250 C   0  0  0  0  0  0  0  0  0  0  0  0
  191.3870  178.2180  143.6210 S   0  0  0  0  0  0  0  0  0  0  0  0
  189.4320  176.4400  143.3220 C   0  0  0  0  0  3  0  0  0  0  0  0
  188.1770  176.7070  142.9910 C   0  0  0  0  0  2  0  0  0  0  0  0
  1  3  1  1  0  0  0
  1 19  1  0  0  0  0
  1  2  1  0  0  0  0
  2 24  1  1  0  0  0
  4 10  1  0  0  0  0
  4  5  1  0  0  0  0
  5  8  1  6  0  0  0
  5  7  1  0  0  0  0
  6  7  1  0  0  0  0
  7  3  1  6  0  0  0
  8 11  1  0  0  0  0
 10  9  1  1  0  0  0
 10  6  1  0  0  0  0
 11  2  1  0  0  0  0
 12 11  1  0  0  0  0
 13 15  1  0  0  0  0
 13 16  1  1  0  0  0
 14 22  1  6  0  0  0
 14 17  1  0  0  0  0
 15 18  1  6  0  0  0
 17 20  1  6  0  0  0
 17 15  1  0  0  0  0
 19 21  1  6  0  0  0
 19 13  1  0  0  0  0
 21 14  1  0  0  0  0
 22 23  1  0  0  0  0
 24 25  1  0  0  0  0
 25 26  1  0  0  0  0
 26 27  1  0  0  0  0
 27 29  1  0  0  0  0
 27 28  2  0  0  0  0
 30 29  2  0  0  0  0
M  END
>  <MODEL>
6

>  <REMARK>
 VINA RESULT:      -5.3      4.790      8.373
  Name = 
  7 active torsions:
  status: ('A' for Active; 'I' for Inactive)
    1  A    between atoms: N_1  and  C_22
    2  A    between atoms: C_3  and  O_11
    3  A    between atoms: C_4  and  C_23
    4  A    between atoms: C_7  and  N_10
    5  A    between atoms: C_7  and  C_15
    6  A    between atoms: N_10  and  C_25
    7  A    between atoms: C_23  and  C_25
                            x       y       z     vdW  Elec       q    Type
                         _______ _______ _______ _____ _____    ______ ____

>  <TORSDO>
F 7

$$$$
=
 OpenBabel11052412203D

 30 32  0  0  1  0  0  0  0  0999 V2000
  181.0530  178.8150  138.9770 N   0  0  2  0  0  0  0  0  0  0  0  0
  181.8260  179.0630  140.2220 C   0  0  1  0  0  3  0  0  0  0  0  0
  181.2700  177.5010  138.3550 C   0  0  0  0  0  2  0  0  0  0  0  0
  178.9900  175.9220  139.8330 O   0  0  0  0  0  0  0  0  0  0  0  0
  180.1830  176.3690  140.4090 C   0  0  1  0  0  3  0  0  0  0  0  0
  181.0020  174.8050  138.4620 S   0  0  0  0  0  0  0  0  0  0  0  0
  181.2870  176.3350  139.3600 C   0  0  1  0  0  3  0  0  0  0  0  0
  179.9810  177.7200  141.0980 C   0  0  0  0  0  2  0  0  0  0  0  0
  179.1730  173.6380  139.9800 O   0  0  0  0  0  1  0  0  0  0  0  0
  179.3080  174.7420  139.1360 C   0  0  1  0  0  3  0  0  0  0  0  0
  181.2660  178.3590  141.3920 N   0  0  0  0  0  0  0  0  0  0  0  0
  180.9970  179.3710  142.3980 C   0  0  0  0  0  1  0  0  0  0  0  0
  180.0720  179.7920  136.9190 C   0  0  1  0  0  3  0  0  0  0  0  0
  181.4120  182.3540  137.5230 C   0  0  2  0  0  3  0  0  0  0  0  0
  180.2370  180.8870  135.8620 C   0  0  2  0  0  3  0  0  0  0  0  0
  180.1200  178.5500  136.3100 F   0  0  0  0  0  0  0  0  0  0  0  0
  180.2760  182.2840  136.4940 C   0  0  1  0  0  3  0  0  0  0  0  0
  179.2140  180.8060  134.9160 O   0  0  0  0  0  1  0  0  0  0  0  0
  181.1790  179.8890  137.9790 C   0  0  1  0  0  3  0  0  0  0  0  0
  178.9310  182.6680  137.1080 C   0  0  0  0  0  1  0  0  0  0  0  0
  181.2450  181.2900  138.6060 C   0  0  0  0  0  2  0  0  0  0  0  0
  181.4770  183.6220  138.1030 O   0  0  0  0  0  0  0  0  0  0  0  0
  182.1200  184.3580  137.2210 O   0  0  0  0  0  1  0  0  0  0  0  0
  183.3160  178.7390  140.0840 C   0  0  0  0  0  2  0  0  0  0  0  0
  183.8310  178.0590  141.3400 C   0  0  0  0  0  2  0  0  0  0  0  0
  184.8500  178.8810  141.9720 N   0  0  0  0  0  2  0  0  0  0  0  0
  185.3410  178.7130  143.3100 C   0  0  0  0  0  0  0  0  0  0  0  0
  186.5960  177.6970  143.5470 S   0  0  0  0  0  0  0  0  0  0  0  0
  184.7770  179.3920  144.4920 C   0  0  0  0  0  3  0  0  0  0  0  0
  183.7250  178.9600  145.1730 C   0  0  0  0  0  2  0  0  0  0  0  0
  1  3  1  6  0  0  0
  1  2  1  0  0  0  0
  2 24  1  6  0  0  0
  2 11  1  0  0  0  0
  4  5  1  0  0  0  0
  5  8  1  6  0  0  0
  6 10  1  0  0  0  0
  6  7  1  0  0  0  0
  7  3  1  6  0  0  0
  7  5  1  0  0  0  0
  8 11  1  0  0  0  0
 10  4  1  0  0  0  0
 10  9  1  1  0  0  0
 11 12  1  0  0  0  0
 13 16  1  6  0  0  0
 13 19  1  0  0  0  0
 14 22  1  1  0  0  0
 14 21  1  0  0  0  0
 15 18  1  6  0  0  0
 15 17  1  0  0  0  0
 15 13  1  0  0  0  0
 17 20  1  1  0  0  0
 17 14  1  0  0  0  0
 19 21  1  1  0  0  0
 19  1  1  0  0  0  0
 23 22  1  0  0  0  0
 24 25  1  0  0  0  0
 25 26  1  0  0  0  0
 26 27  1  0  0  0  0
 27 28  2  0  0  0  0
 27 29  1  0  0  0  0
 29 30  2  0  0  0  0
M  END
>  <MODEL>
7

>  <REMARK>
 VINA RESULT:      -5.2      6.652      9.182
  Name = 
  7 active torsions:
  status: ('A' for Active; 'I' for Inactive)
    1  A    between atoms: N_1  and  C_22
    2  A    between atoms: C_3  and  O_11
    3  A    between atoms: C_4  and  C_23
    4  A    between atoms: C_7  and  N_10
    5  A    between atoms: C_7  and  C_15
    6  A    between atoms: N_10  and  C_25
    7  A    between atoms: C_23  and  C_25
                            x       y       z     vdW  Elec       q    Type
                         _______ _______ _______ _____ _____    ______ ____

>  <TORSDO>
F 7

$$$$
=
 OpenBabel11052412203D

 30 32  0  0  1  0  0  0  0  0999 V2000
  183.9720  177.2330  138.0060 N   0  0  2  0  0  0  0  0  0  0  0  0
  183.5720  178.2260  139.0360 C   0  0  1  0  0  3  0  0  0  0  0  0
  183.2620  175.9470  138.0670 C   0  0  0  0  0  2  0  0  0  0  0  0
  180.8790  176.6590  136.1460 O   0  0  0  0  0  0  0  0  0  0  0  0
  181.0630  177.1520  137.4420 C   0  0  1  0  0  3  0  0  0  0  0  0
  180.9550  174.5500  137.7960 S   0  0  0  0  0  0  0  0  0  0  0  0
  181.7460  176.0860  138.2890 C   0  0  1  0  0  3  0  0  0  0  0  0
  181.7670  178.5100  137.4120 C   0  0  0  0  0  2  0  0  0  0  0  0
  178.9390  175.4450  136.3300 O   0  0  0  0  0  1  0  0  0  0  0  0
  180.3330  175.3710  136.2900 C   0  0  1  0  0  3  0  0  0  0  0  0
  182.2760  178.8690  138.7370 N   0  0  0  0  0  0  0  0  0  0  0  0
  182.5180  180.3000  138.7080 C   0  0  0  0  0  1  0  0  0  0  0  0
  185.7740  176.0010  136.8290 C   0  0  1  0  0  3  0  0  0  0  0  0
  187.7180  178.0410  137.7170 C   0  0  2  0  0  3  0  0  0  0  0  0
  187.2840  175.7550  136.7800 C   0  0  2  0  0  3  0  0  0  0  0  0
  185.1190  174.8080  137.0790 F   0  0  0  0  0  0  0  0  0  0  0  0
  188.0660  177.0610  136.5890 C   0  0  1  0  0  3  0  0  0  0  0  0
  187.5950  174.8460  135.7670 O   0  0  0  0  0  1  0  0  0  0  0  0
  185.4260  177.0200  137.9240 C   0  0  1  0  0  3  0  0  0  0  0  0
  187.8230  177.6730  135.2100 C   0  0  0  0  0  1  0  0  0  0  0  0
  186.2180  178.3260  137.7590 C   0  0  0  0  0  2  0  0  0  0  0  0
  188.4280  179.2340  137.5730 O   0  0  0  0  0  0  0  0  0  0  0  0
  189.0730  179.3760  138.7120 O   0  0  0  0  0  1  0  0  0  0  0  0
  183.5530  177.6540  140.4560 C   0  0  0  0  0  2  0  0  0  0  0  0
  184.1590  178.6420  141.4360 C   0  0  0  0  0  2  0  0  0  0  0  0
  185.5960  178.7300  141.2350 N   0  0  0  0  0  2  0  0  0  0  0  0
  186.5940  178.2570  142.1510 C   0  0  0  0  0  0  0  0  0  0  0  0
  186.1300  177.8870  143.6710 S   0  0  0  0  0  0  0  0  0  0  0  0
  188.0200  178.0910  141.8110 C   0  0  0  0  0  3  0  0  0  0  0  0
  188.9720  177.8110  142.6900 C   0  0  0  0  0  2  0  0  0  0  0  0
  1  3  1  1  0  0  0
  1  2  1  0  0  0  0
  2 24  1  1  0  0  0
  4 10  1  0  0  0  0
  4  5  1  0  0  0  0
  5  8  1  6  0  0  0
  5  7  1  0  0  0  0
  6  7  1  0  0  0  0
  7  3  1  6  0  0  0
  8 11  1  0  0  0  0
 10  9  1  1  0  0  0
 10  6  1  0  0  0  0
 11  2  1  0  0  0  0
 12 11  1  0  0  0  0
 13 16  1  1  0  0  0
 13 19  1  0  0  0  0
 14 22  1  6  0  0  0
 14 21  1  0  0  0  0
 15 18  1  6  0  0  0
 15 13  1  0  0  0  0
 17 20  1  6  0  0  0
 17 15  1  0  0  0  0
 17 14  1  0  0  0  0
 19 21  1  6  0  0  0
 19  1  1  0  0  0  0
 22 23  1  0  0  0  0
 24 25  1  0  0  0  0
 26 25  1  0  0  0  0
 26 27  1  0  0  0  0
 27 28  2  0  0  0  0
 29 27  1  0  0  0  0
 29 30  2  0  0  0  0
M  END
>  <MODEL>
8

>  <REMARK>
 VINA RESULT:      -5.2      5.091      7.927
  Name = 
  7 active torsions:
  status: ('A' for Active; 'I' for Inactive)
    1  A    between atoms: N_1  and  C_22
    2  A    between atoms: C_3  and  O_11
    3  A    between atoms: C_4  and  C_23
    4  A    between atoms: C_7  and  N_10
    5  A    between atoms: C_7  and  C_15
    6  A    between atoms: N_10  and  C_25
    7  A    between atoms: C_23  and  C_25
                            x       y       z     vdW  Elec       q    Type
                         _______ _______ _______ _____ _____    ______ ____

>  <TORSDO>
F 7

$$$$
=
 OpenBabel11052412203D

 30 32  0  0  1  0  0  0  0  0999 V2000
  189.7080  177.8000  139.6680 N   0  0  2  0  0  0  0  0  0  0  0  0
  190.6010  176.8790  138.9170 C   0  0  1  0  0  3  0  0  0  0  0  0
  189.1530  177.2550  140.9160 C   0  0  0  0  0  2  0  0  0  0  0  0
  191.4230  178.2060  142.8700 O   0  0  0  0  0  0  0  0  0  0  0  0
  191.5320  177.1840  141.9220 C   0  0  1  0  0  3  0  0  0  0  0  0
  189.5510  176.3800  143.4510 S   0  0  0  0  0  0  0  0  0  0  0  0
  190.1810  176.4960  141.7720 C   0  0  1  0  0  3  0  0  0  0  0  0
  192.1430  177.7100  140.6220 C   0  0  0  0  0  2  0  0  0  0  0  0
  191.6770  177.0910  144.8600 O   0  0  0  0  0  1  0  0  0  0  0  0
  190.7540  177.6480  143.9740 C   0  0  1  0  0  3  0  0  0  0  0  0
  191.9420  176.7630  139.5230 N   0  0  0  0  0  0  0  0  0  0  0  0
  192.8980  177.1250  138.4930 C   0  0  0  0  0  1  0  0  0  0  0  0
  188.7550  177.9360  137.3820 C   0  0  1  0  0  3  0  0  0  0  0  0
  186.1840  178.8270  138.5310 C   0  0  2  0  0  3  0  0  0  0  0  0
  187.6700  178.5930  136.5250 C   0  0  2  0  0  3  0  0  0  0  0  0
  190.0020  178.2680  136.8830 F   0  0  0  0  0  0  0  0  0  0  0  0
  186.2670  178.3270  137.0840 C   0  0  1  0  0  3  0  0  0  0  0  0
  187.7620  178.1530  135.2030 O   0  0  0  0  0  1  0  0  0  0  0  0
  188.6450  178.3950  138.8430 C   0  0  1  0  0  3  0  0  0  0  0  0
  185.8790  176.8540  136.9690 C   0  0  0  0  0  1  0  0  0  0  0  0
  187.2370  178.1550  139.4100 C   0  0  0  0  0  2  0  0  0  0  0  0
  184.9100  178.6080  139.0590 O   0  0  0  0  0  0  0  0  0  0  0  0
  184.5840  179.7520  139.6240 O   0  0  0  0  0  1  0  0  0  0  0  0
  190.0000  175.4850  138.7110 C   0  0  0  0  0  2  0  0  0  0  0  0
  190.4320  174.9130  137.3730 C   0  0  0  0  0  2  0  0  0  0  0  0
  191.5160  173.9630  137.5620 N   0  0  0  0  0  2  0  0  0  0  0  0
  192.7970  174.0250  136.9170 C   0  0  0  0  0  0  0  0  0  0  0  0
  192.8400  174.3740  135.3230 S   0  0  0  0  0  0  0  0  0  0  0  0
  194.0820  173.7830  137.6000 C   0  0  0  0  0  3  0  0  0  0  0  0
  195.2110  174.4180  137.3180 C   0  0  0  0  0  2  0  0  0  0  0  0
  1  3  1  1  0  0  0
  2 24  1  1  0  0  0
  2 11  1  0  0  0  0
  2  1  1  0  0  0  0
  4 10  1  0  0  0  0
  5  8  1  6  0  0  0
  5  4  1  0  0  0  0
  6 10  1  0  0  0  0
  7  3  1  6  0  0  0
  7  5  1  0  0  0  0
  7  6  1  0  0  0  0
 10  9  1  1  0  0  0
 11  8  1  0  0  0  0
 12 11  1  0  0  0  0
 13 16  1  6  0  0  0
 13 19  1  0  0  0  0
 14 22  1  1  0  0  0
 14 21  1  0  0  0  0
 15 18  1  6  0  0  0
 15 17  1  0  0  0  0
 15 13  1  0  0  0  0
 17 20  1  1  0  0  0
 17 14  1  0  0  0  0
 19 21  1  1  0  0  0
 19  1  1  0  0  0  0
 22 23  1  0  0  0  0
 25 26  1  0  0  0  0
 25 24  1  0  0  0  0
 27 26  1  0  0  0  0
 27 29  1  0  0  0  0
 28 27  2  0  0  0  0
 30 29  2  0  0  0  0
M  END
>  <MODEL>
9

>  <REMARK>
 VINA RESULT:      -5.1      3.785      6.897
  Name = 
  7 active torsions:
  status: ('A' for Active; 'I' for Inactive)
    1  A    between atoms: N_1  and  C_22
    2  A    between atoms: C_3  and  O_11
    3  A    between atoms: C_4  and  C_23
    4  A    between atoms: C_7  and  N_10
    5  A    between atoms: C_7  and  C_15
    6  A    between atoms: N_10  and  C_25
    7  A    between atoms: C_23  and  C_25
                            x       y       z     vdW  Elec       q    Type
                         _______ _______ _______ _____ _____    ______ ____

>  <TORSDO>
F 7

$$$$
