=
 OpenBabel11052413413D

 27 31  0  0  1  0  0  0  0  0999 V2000
  188.6330  176.5810  143.4400 C   0  0  0  0  0  2  0  0  0  0  0  0
  186.5830  177.9730  143.5720 C   0  0  0  0  0  0  0  0  0  0  0  0
  187.4420  178.6580  141.3970 N   0  0  0  0  0  2  0  0  0  0  0  0
  182.7600  178.3820  142.1580 O   0  0  0  0  0  0  0  0  0  0  0  0
  182.2510  177.4880  139.9860 C   0  0  0  0  0  1  0  0  0  0  0  0
  185.5770  177.9390  144.4070 N   0  0  0  0  0  0  0  0  0  0  0  0
  184.4010  178.6720  140.4840 C   0  0  1  0  0  3  0  0  0  0  0  0
  189.0020  177.4020  138.2750 C   0  0  0  0  0  3  0  0  0  0  0  0
  184.7220  179.8240  139.5540 C   0  0  0  0  0  1  0  0  0  0  0  0
  190.0660  176.6460  138.7660 C   0  0  0  0  0  3  0  0  0  0  0  0
  185.0590  178.8960  141.8420 C   0  0  1  0  0  3  0  0  0  0  0  0
  188.0010  177.8200  144.0530 C   0  0  1  0  0  3  0  0  0  0  0  0
  182.8870  178.6230  140.7650 C   0  0  2  0  0  3  0  0  0  0  0  0
  183.9950  178.4510  142.7580 C   0  0  0  0  0  0  0  0  0  0  0  0
  189.6290  176.9510  142.4450 N   0  0  0  0  0  2  0  0  0  0  0  0
  186.3110  178.0540  142.0820 C   0  0  2  0  0  3  0  0  0  0  0  0
  188.1270  178.0320  139.1600 C   0  0  0  0  0  3  0  0  0  0  0  0
  184.2420  178.0500  143.9650 N   0  0  0  0  0  0  0  0  0  0  0  0
  190.2480  176.5140  140.1430 C   0  0  0  0  0  3  0  0  0  0  0  0
  189.3630  177.1160  141.0460 C   0  0  0  0  0  0  0  0  0  0  0  0
  188.2910  177.8950  140.5440 C   0  0  0  0  0  0  0  0  0  0  0  0
  188.5080  177.8980  148.3270 C   0  0  0  0  0  3  0  0  0  0  0  0
  188.1550  177.8420  145.5470 C   0  0  0  0  0  0  0  0  0  0  0  0
  189.3620  177.4160  146.1130 C   0  0  0  0  0  3  0  0  0  0  0  0
  189.5380  177.4430  147.5000 C   0  0  0  0  0  3  0  0  0  0  0  0
  187.3010  178.3300  147.7680 C   0  0  0  0  0  3  0  0  0  0  0  0
  187.1240  178.3040  146.3820 C   0  0  0  0  0  3  0  0  0  0  0  0
  1 12  1  0  0  0  0
  2 12  1  0  0  0  0
  2  6  2  0  0  0  0
  4 14  1  0  0  0  0
  7  9  1  6  0  0  0
  7 13  1  0  0  0  0
  7 11  1  0  0  0  0
  8 10  2  0  0  0  0
  8 17  1  0  0  0  0
 10 19  1  0  0  0  0
 11 16  1  0  0  0  0
 11 14  1  1  0  0  0
 12 23  1  1  0  0  0
 13  5  1  6  0  0  0
 13  4  1  0  0  0  0
 14 18  2  0  0  0  0
 15  1  1  0  0  0  0
 16  3  1  6  0  0  0
 16  2  1  0  0  0  0
 17 21  2  0  0  0  0
 18  6  1  0  0  0  0
 19 20  2  0  0  0  0
 20 15  1  0  0  0  0
 21 20  1  0  0  0  0
 21  3  1  0  0  0  0
 23 24  2  0  0  0  0
 23 27  1  0  0  0  0
 24 25  1  0  0  0  0
 25 22  2  0  0  0  0
 26 22  1  0  0  0  0
 27 26  2  0  0  0  0
M  END
>  <MODEL>
1

>  <REMARK>
 VINA RESULT:      -9.5      0.000      0.000
  Name = 
  1 active torsions:
  status: ('A' for Active; 'I' for Inactive)
    1  A    between atoms: C_9  and  C_15
                            x       y       z     vdW  Elec       q    Type
                         _______ _______ _______ _____ _____    ______ ____

>  <TORSDO>
F 1

$$$$
=
 OpenBabel11052413413D

 27 31  0  0  1  0  0  0  0  0999 V2000
  186.4420  178.9230  142.1880 C   0  0  0  0  0  2  0  0  0  0  0  0
  185.9990  178.2420  144.5320 C   0  0  0  0  0  0  0  0  0  0  0  0
  187.9040  176.8160  144.0110 N   0  0  0  0  0  2  0  0  0  0  0  0
  187.3390  178.5760  148.3880 O   0  0  0  0  0  0  0  0  0  0  0  0
  189.6790  178.9960  148.7450 C   0  0  0  0  0  1  0  0  0  0  0  0
  185.2220  178.7670  145.4440 N   0  0  0  0  0  0  0  0  0  0  0  0
  188.8470  177.4240  146.9820 C   0  0  1  0  0  3  0  0  0  0  0  0
  191.2110  176.7500  142.3320 C   0  0  0  0  0  3  0  0  0  0  0  0
  189.4410  176.0310  147.0410 C   0  0  0  0  0  1  0  0  0  0  0  0
  190.9090  177.2770  141.0770 C   0  0  0  0  0  3  0  0  0  0  0  0
  187.4640  177.3760  146.3410 C   0  0  1  0  0  3  0  0  0  0  0  0
  185.5430  178.1090  143.1040 C   0  0  1  0  0  3  0  0  0  0  0  0
  188.6200  177.9640  148.4070 C   0  0  2  0  0  3  0  0  0  0  0  0
  186.7160  178.3190  147.1910 C   0  0  0  0  0  0  0  0  0  0  0  0
  187.2870  178.0490  141.3860 N   0  0  0  0  0  2  0  0  0  0  0  0
  187.4230  177.8660  144.8950 C   0  0  2  0  0  3  0  0  0  0  0  0
  190.2120  176.6370  143.3000 C   0  0  0  0  0  3  0  0  0  0  0  0
  185.6480  178.9260  146.7790 N   0  0  0  0  0  0  0  0  0  0  0  0
  189.6090  177.6980  140.7920 C   0  0  0  0  0  3  0  0  0  0  0  0
  188.6000  177.6170  141.7610 C   0  0  0  0  0  0  0  0  0  0  0  0
  188.9070  177.0690  143.0310 C   0  0  0  0  0  0  0  0  0  0  0  0
  181.3810  178.9670  142.4210 C   0  0  0  0  0  3  0  0  0  0  0  0
  184.0910  178.4240  142.8840 C   0  0  0  0  0  0  0  0  0  0  0  0
  183.5770  178.3850  141.5820 C   0  0  0  0  0  3  0  0  0  0  0  0
  182.2250  178.6580  141.3520 C   0  0  0  0  0  3  0  0  0  0  0  0
  181.8870  179.0010  143.7240 C   0  0  0  0  0  3  0  0  0  0  0  0
  183.2380  178.7300  143.9570 C   0  0  0  0  0  3  0  0  0  0  0  0
  1 12  1  0  0  0  0
  2 16  1  0  0  0  0
  2  6  2  0  0  0  0
  4 13  1  0  0  0  0
  6 18  1  0  0  0  0
  7  9  1  1  0  0  0
  7 13  1  0  0  0  0
  8 17  1  0  0  0  0
 10  8  2  0  0  0  0
 11  7  1  0  0  0  0
 11 14  1  1  0  0  0
 12 23  1  1  0  0  0
 12  2  1  0  0  0  0
 13  5  1  6  0  0  0
 14  4  1  0  0  0  0
 15 20  1  0  0  0  0
 15  1  1  0  0  0  0
 16  3  1  6  0  0  0
 16 11  1  0  0  0  0
 18 14  2  0  0  0  0
 19 10  1  0  0  0  0
 19 20  2  0  0  0  0
 20 21  1  0  0  0  0
 21 17  2  0  0  0  0
 21  3  1  0  0  0  0
 22 26  1  0  0  0  0
 23 27  1  0  0  0  0
 24 23  2  0  0  0  0
 25 24  1  0  0  0  0
 25 22  2  0  0  0  0
 26 27  2  0  0  0  0
M  END
>  <MODEL>
2

>  <REMARK>
 VINA RESULT:      -9.2      2.071      5.919
  Name = 
  1 active torsions:
  status: ('A' for Active; 'I' for Inactive)
    1  A    between atoms: C_9  and  C_15
                            x       y       z     vdW  Elec       q    Type
                         _______ _______ _______ _____ _____    ______ ____

>  <TORSDO>
F 1

$$$$
=
 OpenBabel11052413413D

 27 31  0  0  1  0  0  0  0  0999 V2000
  189.4630  176.2740  142.8180 C   0  0  0  0  0  2  0  0  0  0  0  0
  187.5070  177.6880  143.3940 C   0  0  0  0  0  0  0  0  0  0  0  0
  187.9820  178.4870  141.1420 N   0  0  0  0  0  2  0  0  0  0  0  0
  183.5060  178.2430  142.7150 O   0  0  0  0  0  0  0  0  0  0  0  0
  182.5930  177.4880  140.6240 C   0  0  0  0  0  1  0  0  0  0  0  0
  186.6660  177.6210  144.3930 N   0  0  0  0  0  0  0  0  0  0  0  0
  184.8280  178.6050  140.7920 C   0  0  1  0  0  3  0  0  0  0  0  0
  188.9250  177.3940  137.7240 C   0  0  0  0  0  3  0  0  0  0  0  0
  185.0090  179.8060  139.8850 C   0  0  0  0  0  1  0  0  0  0  0  0
  190.0390  176.5930  137.9740 C   0  0  0  0  0  3  0  0  0  0  0  0
  185.7240  178.7380  142.0200 C   0  0  1  0  0  3  0  0  0  0  0  0
  188.9840  177.4830  143.6030 C   0  0  1  0  0  3  0  0  0  0  0  0
  183.3880  178.5650  141.3380 C   0  0  2  0  0  3  0  0  0  0  0  0
  184.8290  178.2560  143.0860 C   0  0  0  0  0  0  0  0  0  0  0  0
  190.2750  176.6860  141.6820 N   0  0  0  0  0  2  0  0  0  0  0  0
  186.9750  177.8620  141.9840 C   0  0  2  0  0  3  0  0  0  0  0  0
  188.2390  177.9850  138.7870 C   0  0  0  0  0  3  0  0  0  0  0  0
  185.2770  177.7800  144.2050 N   0  0  0  0  0  0  0  0  0  0  0  0
  190.4610  176.3760  139.2860 C   0  0  0  0  0  3  0  0  0  0  0  0
  189.7680  176.9380  140.3660 C   0  0  0  0  0  0  0  0  0  0  0  0
  188.6440  177.7620  140.1090 C   0  0  0  0  0  0  0  0  0  0  0  0
  190.2480  177.2930  147.7130 C   0  0  0  0  0  3  0  0  0  0  0  0
  189.4020  177.4140  145.0440 C   0  0  0  0  0  0  0  0  0  0  0  0
  190.6370  176.8390  145.3660 C   0  0  0  0  0  3  0  0  0  0  0  0
  191.0580  176.7770  146.6980 C   0  0  0  0  0  3  0  0  0  0  0  0
  189.0170  177.8740  147.3970 C   0  0  0  0  0  3  0  0  0  0  0  0
  188.5940  177.9370  146.0660 C   0  0  0  0  0  3  0  0  0  0  0  0
  1 12  1  0  0  0  0
  2 12  1  0  0  0  0
  2  6  2  0  0  0  0
  4 14  1  0  0  0  0
  7  9  1  6  0  0  0
  7 13  1  0  0  0  0
  7 11  1  0  0  0  0
  8 10  2  0  0  0  0
  8 17  1  0  0  0  0
 10 19  1  0  0  0  0
 11 14  1  1  0  0  0
 12 23  1  1  0  0  0
 13  5  1  6  0  0  0
 13  4  1  0  0  0  0
 14 18  2  0  0  0  0
 15  1  1  0  0  0  0
 16  3  1  6  0  0  0
 16 11  1  0  0  0  0
 16  2  1  0  0  0  0
 17 21  2  0  0  0  0
 18  6  1  0  0  0  0
 19 20  2  0  0  0  0
 20 15  1  0  0  0  0
 21 20  1  0  0  0  0
 21  3  1  0  0  0  0
 23 24  2  0  0  0  0
 23 27  1  0  0  0  0
 24 25  1  0  0  0  0
 25 22  2  0  0  0  0
 26 22  1  0  0  0  0
 27 26  2  0  0  0  0
M  END
>  <MODEL>
3

>  <REMARK>
 VINA RESULT:      -8.8      0.881      1.087
  Name = 
  1 active torsions:
  status: ('A' for Active; 'I' for Inactive)
    1  A    between atoms: C_9  and  C_15
                            x       y       z     vdW  Elec       q    Type
                         _______ _______ _______ _____ _____    ______ ____

>  <TORSDO>
F 1

$$$$
=
 OpenBabel11052413413D

 27 31  0  0  1  0  0  0  0  0999 V2000
  186.1420  179.2410  141.2020 C   0  0  0  0  0  2  0  0  0  0  0  0
  186.6400  177.9250  143.2450 C   0  0  0  0  0  0  0  0  0  0  0  0
  188.0810  176.8010  141.6340 N   0  0  0  0  0  2  0  0  0  0  0  0
  189.4400  177.2700  146.1630 O   0  0  0  0  0  0  0  0  0  0  0  0
  191.7460  177.7050  145.6420 C   0  0  0  0  0  1  0  0  0  0  0  0
  186.3310  178.1390  144.4980 N   0  0  0  0  0  0  0  0  0  0  0  0
  190.1780  176.6290  144.0120 C   0  0  1  0  0  3  0  0  0  0  0  0
  190.4200  177.3760  138.8120 C   0  0  0  0  0  3  0  0  0  0  0  0
  190.6580  175.3070  143.4470 C   0  0  0  0  0  1  0  0  0  0  0  0
  189.6700  178.2070  137.9800 C   0  0  0  0  0  3  0  0  0  0  0  0
  188.6540  176.6810  143.9990 C   0  0  1  0  0  3  0  0  0  0  0  0
  185.6400  178.1610  142.1450 C   0  0  1  0  0  3  0  0  0  0  0  0
  190.5790  176.7470  145.4950 C   0  0  2  0  0  3  0  0  0  0  0  0
  188.3730  177.3150  145.2990 C   0  0  0  0  0  0  0  0  0  0  0  0
  186.5350  178.6660  139.9240 N   0  0  0  0  0  2  0  0  0  0  0  0
  188.0630  177.5430  142.8840 C   0  0  2  0  0  3  0  0  0  0  0  0
  189.8900  176.9490  140.0310 C   0  0  0  0  0  3  0  0  0  0  0  0
  187.2690  177.9520  145.5350 N   0  0  0  0  0  0  0  0  0  0  0  0
  188.3950  178.6170  138.3710 C   0  0  0  0  0  3  0  0  0  0  0  0
  187.8590  178.2210  139.6030 C   0  0  0  0  0  0  0  0  0  0  0  0
  188.6170  177.3660  140.4400 C   0  0  0  0  0  0  0  0  0  0  0  0
  181.6180  178.9320  143.4710 C   0  0  0  0  0  3  0  0  0  0  0  0
  184.2450  178.4440  142.6250 C   0  0  0  0  0  0  0  0  0  0  0  0
  183.2060  178.5190  141.6900 C   0  0  0  0  0  3  0  0  0  0  0  0
  181.8960  178.7640  142.1120 C   0  0  0  0  0  3  0  0  0  0  0  0
  182.6500  178.8530  144.4100 C   0  0  0  0  0  3  0  0  0  0  0  0
  183.9610  178.6080  143.9910 C   0  0  0  0  0  3  0  0  0  0  0  0
  1 12  1  0  0  0  0
  2  6  2  0  0  0  0
  6 18  1  0  0  0  0
  7  9  1  1  0  0  0
  7 13  1  0  0  0  0
  8 17  1  0  0  0  0
 10 19  1  0  0  0  0
 10  8  2  0  0  0  0
 11  7  1  0  0  0  0
 11 14  1  1  0  0  0
 12 23  1  1  0  0  0
 12  2  1  0  0  0  0
 13  5  1  6  0  0  0
 13  4  1  0  0  0  0
 14 18  2  0  0  0  0
 14  4  1  0  0  0  0
 15  1  1  0  0  0  0
 16  3  1  6  0  0  0
 16  2  1  0  0  0  0
 16 11  1  0  0  0  0
 17 21  2  0  0  0  0
 19 20  2  0  0  0  0
 20 15  1  0  0  0  0
 20 21  1  0  0  0  0
 21  3  1  0  0  0  0
 22 26  1  0  0  0  0
 23 27  1  0  0  0  0
 24 25  1  0  0  0  0
 24 23  2  0  0  0  0
 25 22  2  0  0  0  0
 27 26  2  0  0  0  0
M  END
>  <MODEL>
4

>  <REMARK>
 VINA RESULT:      -8.8      2.138      5.533
  Name = 
  1 active torsions:
  status: ('A' for Active; 'I' for Inactive)
    1  A    between atoms: C_9  and  C_15
                            x       y       z     vdW  Elec       q    Type
                         _______ _______ _______ _____ _____    ______ ____

>  <TORSDO>
F 1

$$$$
=
 OpenBabel11052413413D

 27 31  0  0  1  0  0  0  0  0999 V2000
  191.1890  177.5340  142.3190 C   0  0  0  0  0  2  0  0  0  0  0  0
  188.8030  177.6350  141.6450 C   0  0  0  0  0  0  0  0  0  0  0  0
  188.5940  176.6480  143.8630 N   0  0  0  0  0  2  0  0  0  0  0  0
  185.2760  179.6330  142.2330 O   0  0  0  0  0  0  0  0  0  0  0  0
  184.9300  180.7290  144.3440 C   0  0  0  0  0  1  0  0  0  0  0  0
  188.2230  178.2330  140.6370 N   0  0  0  0  0  0  0  0  0  0  0  0
  186.0180  178.4810  144.1570 C   0  0  1  0  0  3  0  0  0  0  0  0
  189.8640  176.8340  147.3430 C   0  0  0  0  0  3  0  0  0  0  0  0
  185.3870  177.3970  145.0080 C   0  0  0  0  0  1  0  0  0  0  0  0
  191.2440  176.7890  147.1500 C   0  0  0  0  0  3  0  0  0  0  0  0
  186.6950  177.8620  142.9380 C   0  0  1  0  0  3  0  0  0  0  0  0
  190.1030  176.8960  141.4690 C   0  0  1  0  0  3  0  0  0  0  0  0
  184.9280  179.4120  143.5920 C   0  0  2  0  0  3  0  0  0  0  0  0
  186.3280  178.8220  141.8830 C   0  0  0  0  0  0  0  0  0  0  0  0
  191.5300  176.6780  143.4460 N   0  0  0  0  0  2  0  0  0  0  0  0
  188.2170  177.7830  143.0360 C   0  0  2  0  0  3  0  0  0  0  0  0
  189.0060  176.8190  146.2430 C   0  0  0  0  0  3  0  0  0  0  0  0
  187.0210  178.9540  140.7950 N   0  0  0  0  0  0  0  0  0  0  0  0
  191.7660  176.7400  145.8570 C   0  0  0  0  0  3  0  0  0  0  0  0
  190.9200  176.7530  144.7410 C   0  0  0  0  0  0  0  0  0  0  0  0
  189.5170  176.7840  144.9400 C   0  0  0  0  0  0  0  0  0  0  0  0
  191.4050  176.4110  137.3950 C   0  0  0  0  0  3  0  0  0  0  0  0
  190.5360  176.7350  140.0400 C   0  0  0  0  0  0  0  0  0  0  0  0
  191.8850  176.9210  139.7130 C   0  0  0  0  0  3  0  0  0  0  0  0
  192.3180  176.7610  138.3940 C   0  0  0  0  0  3  0  0  0  0  0  0
  190.0580  176.2180  137.7160 C   0  0  0  0  0  3  0  0  0  0  0  0
  189.6230  176.3780  139.0340 C   0  0  0  0  0  3  0  0  0  0  0  0
  1 15  1  0  0  0  0
  3 21  1  0  0  0  0
  4 13  1  0  0  0  0
  6 18  1  0  0  0  0
  6  2  2  0  0  0  0
  7  9  1  1  0  0  0
 10  8  1  0  0  0  0
 11 14  1  6  0  0  0
 11 16  1  0  0  0  0
 11  7  1  0  0  0  0
 12 23  1  6  0  0  0
 12  2  1  0  0  0  0
 12  1  1  0  0  0  0
 13  7  1  0  0  0  0
 13  5  1  1  0  0  0
 14  4  1  0  0  0  0
 15 20  1  0  0  0  0
 16  2  1  6  0  0  0
 16  3  1  0  0  0  0
 17  8  2  0  0  0  0
 18 14  2  0  0  0  0
 19 10  2  0  0  0  0
 20 21  2  0  0  0  0
 20 19  1  0  0  0  0
 21 17  1  0  0  0  0
 22 26  2  0  0  0  0
 22 25  1  0  0  0  0
 24 23  1  0  0  0  0
 25 24  2  0  0  0  0
 26 27  1  0  0  0  0
 27 23  2  0  0  0  0
M  END
>  <MODEL>
5

>  <REMARK>
 VINA RESULT:      -8.8      2.187      6.008
  Name = 
  1 active torsions:
  status: ('A' for Active; 'I' for Inactive)
    1  A    between atoms: C_9  and  C_15
                            x       y       z     vdW  Elec       q    Type
                         _______ _______ _______ _____ _____    ______ ____

>  <TORSDO>
F 1

$$$$
=
 OpenBabel11052413413D

 27 31  0  0  1  0  0  0  0  0999 V2000
  189.7710  176.6610  140.5410 C   0  0  0  0  0  2  0  0  0  0  0  0
  187.9360  177.8810  141.6800 C   0  0  0  0  0  0  0  0  0  0  0  0
  187.7400  178.7920  139.4290 N   0  0  0  0  0  2  0  0  0  0  0  0
  183.8670  178.1100  142.0940 O   0  0  0  0  0  0  0  0  0  0  0  0
  182.4950  177.3490  140.2730 C   0  0  0  0  0  1  0  0  0  0  0  0
  187.3940  177.7090  142.8580 N   0  0  0  0  0  0  0  0  0  0  0  0
  184.6060  178.6480  139.9160 C   0  0  1  0  0  3  0  0  0  0  0  0
  187.8300  177.8980  135.8300 C   0  0  0  0  0  3  0  0  0  0  0  0
  184.4510  179.8890  139.0600 C   0  0  0  0  0  1  0  0  0  0  0  0
  189.0270  177.1880  135.7380 C   0  0  0  0  0  3  0  0  0  0  0  0
  185.7800  178.8170  140.8750 C   0  0  1  0  0  3  0  0  0  0  0  0
  189.4260  177.7980  141.4880 C   0  0  1  0  0  3  0  0  0  0  0  0
  183.3670  178.4660  140.8140 C   0  0  2  0  0  3  0  0  0  0  0  0
  185.2360  178.2250  142.1090 C   0  0  0  0  0  0  0  0  0  0  0  0
  190.2220  177.1780  139.2570 N   0  0  0  0  0  2  0  0  0  0  0  0
  187.0400  178.0550  140.4680 C   0  0  2  0  0  3  0  0  0  0  0  0
  187.4060  178.3910  137.0640 C   0  0  0  0  0  3  0  0  0  0  0  0
  185.9970  177.7530  143.0460 N   0  0  0  0  0  0  0  0  0  0  0  0
  189.7940  176.9650  136.8820 C   0  0  0  0  0  3  0  0  0  0  0  0
  189.3690  177.4290  138.1330 C   0  0  0  0  0  0  0  0  0  0  0  0
  188.1600  178.1610  138.2210 C   0  0  0  0  0  0  0  0  0  0  0  0
  191.7120  177.5120  145.1240 C   0  0  0  0  0  3  0  0  0  0  0  0
  190.2130  177.7180  142.7650 C   0  0  0  0  0  0  0  0  0  0  0  0
  190.5570  176.4600  143.2730 C   0  0  0  0  0  3  0  0  0  0  0  0
  191.3030  176.3570  144.4510 C   0  0  0  0  0  3  0  0  0  0  0  0
  191.3760  178.7710  144.6180 C   0  0  0  0  0  3  0  0  0  0  0  0
  190.6300  178.8760  143.4410 C   0  0  0  0  0  3  0  0  0  0  0  0
  1 12  1  0  0  0  0
  2  6  2  0  0  0  0
  4 14  1  0  0  0  0
  6 18  1  0  0  0  0
  7  9  1  1  0  0  0
  7 13  1  0  0  0  0
  7 11  1  0  0  0  0
  8 17  1  0  0  0  0
 10  8  2  0  0  0  0
 10 19  1  0  0  0  0
 11 14  1  1  0  0  0
 12  2  1  0  0  0  0
 12 23  1  1  0  0  0
 13  5  1  6  0  0  0
 13  4  1  0  0  0  0
 14 18  2  0  0  0  0
 15  1  1  0  0  0  0
 16  3  1  6  0  0  0
 16 11  1  0  0  0  0
 16  2  1  0  0  0  0
 17 21  2  0  0  0  0
 19 20  2  0  0  0  0
 20 21  1  0  0  0  0
 20 15  1  0  0  0  0
 21  3  1  0  0  0  0
 23 24  2  0  0  0  0
 23 27  1  0  0  0  0
 24 25  1  0  0  0  0
 25 22  2  0  0  0  0
 26 22  1  0  0  0  0
 27 26  2  0  0  0  0
M  END
>  <MODEL>
6

>  <REMARK>
 VINA RESULT:      -8.7      2.249      2.789
  Name = 
  1 active torsions:
  status: ('A' for Active; 'I' for Inactive)
    1  A    between atoms: C_9  and  C_15
                            x       y       z     vdW  Elec       q    Type
                         _______ _______ _______ _____ _____    ______ ____

>  <TORSDO>
F 1

$$$$
=
 OpenBabel11052413413D

 27 31  0  0  1  0  0  0  0  0999 V2000
  187.5700  176.9120  143.1550 C   0  0  0  0  0  2  0  0  0  0  0  0
  185.4810  178.2490  143.0990 C   0  0  0  0  0  0  0  0  0  0  0  0
  186.5000  178.9350  140.9950 N   0  0  0  0  0  2  0  0  0  0  0  0
  181.7800  178.5410  141.3660 O   0  0  0  0  0  0  0  0  0  0  0  0
  181.4780  177.6110  139.1710 C   0  0  0  0  0  1  0  0  0  0  0  0
  184.4100  178.1960  143.8470 N   0  0  0  0  0  0  0  0  0  0  0  0
  183.5470  178.8570  139.8310 C   0  0  1  0  0  3  0  0  0  0  0  0
  188.3480  177.6890  138.0290 C   0  0  0  0  0  3  0  0  0  0  0  0
  183.9150  180.0080  138.9160 C   0  0  0  0  0  1  0  0  0  0  0  0
  189.3860  176.9670  138.6170 C   0  0  0  0  0  3  0  0  0  0  0  0
  184.0830  179.1130  141.2360 C   0  0  1  0  0  3  0  0  0  0  0  0
  186.8570  178.1390  143.6980 C   0  0  1  0  0  3  0  0  0  0  0  0
  182.0170  178.7710  139.9850 C   0  0  2  0  0  3  0  0  0  0  0  0
  182.9580  178.6490  142.0660 C   0  0  0  0  0  0  0  0  0  0  0  0
  188.6360  177.2980  142.2420 N   0  0  0  0  0  2  0  0  0  0  0  0
  185.3320  178.3080  141.5900 C   0  0  2  0  0  3  0  0  0  0  0  0
  187.3860  178.3050  138.8300 C   0  0  0  0  0  3  0  0  0  0  0  0
  183.1140  178.2670  143.2940 N   0  0  0  0  0  0  0  0  0  0  0  0
  189.4560  176.8540  140.0060 C   0  0  0  0  0  3  0  0  0  0  0  0
  188.4830  177.4410  140.8240 C   0  0  0  0  0  0  0  0  0  0  0  0
  187.4370  178.1850  140.2250 C   0  0  0  0  0  0  0  0  0  0  0  0
  186.8680  178.2620  148.0010 C   0  0  0  0  0  3  0  0  0  0  0  0
  186.8840  178.1810  145.2000 C   0  0  0  0  0  0  0  0  0  0  0  0
  185.9140  178.9280  145.8770 C   0  0  0  0  0  3  0  0  0  0  0  0
  185.9070  178.9700  147.2740 C   0  0  0  0  0  3  0  0  0  0  0  0
  187.8360  177.5090  147.3310 C   0  0  0  0  0  3  0  0  0  0  0  0
  187.8450  177.4660  145.9330 C   0  0  0  0  0  3  0  0  0  0  0  0
  1 12  1  0  0  0  0
  2 12  1  0  0  0  0
  2  6  2  0  0  0  0
  4 14  1  0  0  0  0
  7  9  1  6  0  0  0
  7 13  1  0  0  0  0
  7 11  1  0  0  0  0
  8 10  2  0  0  0  0
  8 17  1  0  0  0  0
 10 19  1  0  0  0  0
 11 16  1  0  0  0  0
 11 14  1  1  0  0  0
 12 23  1  1  0  0  0
 13  5  1  6  0  0  0
 13  4  1  0  0  0  0
 14 18  2  0  0  0  0
 15  1  1  0  0  0  0
 16  3  1  6  0  0  0
 16  2  1  0  0  0  0
 17 21  2  0  0  0  0
 18  6  1  0  0  0  0
 19 20  2  0  0  0  0
 20 15  1  0  0  0  0
 21 20  1  0  0  0  0
 21  3  1  0  0  0  0
 23 24  2  0  0  0  0
 23 27  1  0  0  0  0
 24 25  1  0  0  0  0
 25 22  2  0  0  0  0
 26 22  1  0  0  0  0
 27 26  2  0  0  0  0
M  END
>  <MODEL>
7

>  <REMARK>
 VINA RESULT:      -8.7      1.042      1.523
  Name = 
  1 active torsions:
  status: ('A' for Active; 'I' for Inactive)
    1  A    between atoms: C_9  and  C_15
                            x       y       z     vdW  Elec       q    Type
                         _______ _______ _______ _____ _____    ______ ____

>  <TORSDO>
F 1

$$$$
=
 OpenBabel11052413413D

 27 31  0  0  1  0  0  0  0  0999 V2000
  189.2390  178.3660  140.1100 C   0  0  0  0  0  2  0  0  0  0  0  0
  191.2380  176.9480  139.7280 C   0  0  0  0  0  0  0  0  0  0  0  0
  189.6840  175.9580  138.1340 N   0  0  0  0  0  2  0  0  0  0  0  0
  194.3240  176.2010  137.1400 O   0  0  0  0  0  0  0  0  0  0  0  0
  194.0090  176.7260  134.8160 C   0  0  0  0  0  1  0  0  0  0  0  0
  192.4730  177.0810  140.1380 N   0  0  0  0  0  0  0  0  0  0  0  0
  192.2050  175.7050  136.2200 C   0  0  1  0  0  3  0  0  0  0  0  0
  187.0900  176.7580  135.6060 C   0  0  0  0  0  3  0  0  0  0  0  0
  191.6060  174.4310  135.6580 C   0  0  0  0  0  1  0  0  0  0  0  0
  186.2490  177.6150  136.3160 C   0  0  0  0  0  3  0  0  0  0  0  0
  192.0760  175.7170  137.7400 C   0  0  1  0  0  3  0  0  0  0  0  0
  190.0790  177.2200  140.6490 C   0  0  1  0  0  3  0  0  0  0  0  0
  193.7190  175.7480  135.9380 C   0  0  2  0  0  3  0  0  0  0  0  0
  193.3830  176.2660  138.1390 C   0  0  0  0  0  0  0  0  0  0  0  0
  187.9650  177.8770  139.6020 N   0  0  0  0  0  2  0  0  0  0  0  0
  190.9690  176.6250  138.2710 C   0  0  2  0  0  3  0  0  0  0  0  0
  188.2370  176.2470  136.2140 C   0  0  0  0  0  3  0  0  0  0  0  0
  193.5680  176.8590  139.2770 N   0  0  0  0  0  0  0  0  0  0  0  0
  186.5610  177.9670  137.6300 C   0  0  0  0  0  3  0  0  0  0  0  0
  187.7240  177.4860  138.2450 C   0  0  0  0  0  0  0  0  0  0  0  0
  188.5690  176.6050  137.5260 C   0  0  0  0  0  0  0  0  0  0  0  0
  191.2230  177.7890  144.7580 C   0  0  0  0  0  3  0  0  0  0  0  0
  190.4640  177.4370  142.0840 C   0  0  0  0  0  0  0  0  0  0  0  0
  190.7720  176.3280  142.8810 C   0  0  0  0  0  3  0  0  0  0  0  0
  191.1490  176.5030  144.2150 C   0  0  0  0  0  3  0  0  0  0  0  0
  190.9230  178.9010  143.9670 C   0  0  0  0  0  3  0  0  0  0  0  0
  190.5450  178.7270  142.6320 C   0  0  0  0  0  3  0  0  0  0  0  0
  1 12  1  0  0  0  0
  2  6  2  0  0  0  0
  2 12  1  0  0  0  0
  4 14  1  0  0  0  0
  7  9  1  1  0  0  0
  7 11  1  0  0  0  0
  8 17  2  0  0  0  0
  8 10  1  0  0  0  0
 10 19  2  0  0  0  0
 11 14  1  1  0  0  0
 11 16  1  0  0  0  0
 12 23  1  1  0  0  0
 13  5  1  6  0  0  0
 13  7  1  0  0  0  0
 13  4  1  0  0  0  0
 14 18  2  0  0  0  0
 15  1  1  0  0  0  0
 16  3  1  1  0  0  0
 16  2  1  0  0  0  0
 17 21  1  0  0  0  0
 18  6  1  0  0  0  0
 19 20  1  0  0  0  0
 20 15  1  0  0  0  0
 21  3  1  0  0  0  0
 21 20  2  0  0  0  0
 23 27  2  0  0  0  0
 23 24  1  0  0  0  0
 24 25  2  0  0  0  0
 25 22  1  0  0  0  0
 26 22  2  0  0  0  0
 27 26  1  0  0  0  0
M  END
>  <MODEL>
8

>  <REMARK>
 VINA RESULT:      -8.4      4.338      7.133
  Name = 
  1 active torsions:
  status: ('A' for Active; 'I' for Inactive)
    1  A    between atoms: C_9  and  C_15
                            x       y       z     vdW  Elec       q    Type
                         _______ _______ _______ _____ _____    ______ ____

>  <TORSDO>
F 1

$$$$
=
 OpenBabel11052413413D

 27 31  0  0  1  0  0  0  0  0999 V2000
  186.2070  178.9250  140.3840 C   0  0  0  0  0  2  0  0  0  0  0  0
  184.9080  178.3890  142.4300 C   0  0  0  0  0  0  0  0  0  0  0  0
  186.9640  177.1600  142.8780 N   0  0  0  0  0  2  0  0  0  0  0  0
  184.5500  179.1920  146.4310 O   0  0  0  0  0  0  0  0  0  0  0  0
  186.5080  179.9120  147.6240 C   0  0  0  0  0  1  0  0  0  0  0  0
  183.7930  178.8920  142.8920 N   0  0  0  0  0  0  0  0  0  0  0  0
  186.5800  178.1140  145.8820 C   0  0  1  0  0  3  0  0  0  0  0  0
  190.6620  177.3480  142.6560 C   0  0  0  0  0  3  0  0  0  0  0  0
  187.2030  176.8110  146.3390 C   0  0  0  0  0  1  0  0  0  0  0  0
  190.8530  177.7310  141.3280 C   0  0  0  0  0  3  0  0  0  0  0  0
  185.5800  177.8520  144.7600 C   0  0  1  0  0  3  0  0  0  0  0  0
  185.0790  178.0870  140.9650 C   0  0  1  0  0  3  0  0  0  0  0  0
  185.7570  178.7380  147.0250 C   0  0  2  0  0  3  0  0  0  0  0  0
  184.4850  178.7660  145.1260 C   0  0  0  0  0  0  0  0  0  0  0  0
  187.3660  178.0940  140.0920 N   0  0  0  0  0  2  0  0  0  0  0  0
  186.0890  178.2140  143.3660 C   0  0  2  0  0  3  0  0  0  0  0  0
  189.3690  177.1970  143.1580 C   0  0  0  0  0  3  0  0  0  0  0  0
  183.6310  179.2080  144.2570 N   0  0  0  0  0  0  0  0  0  0  0  0
  189.7500  177.9710  140.5070 C   0  0  0  0  0  3  0  0  0  0  0  0
  188.4460  177.8510  141.0030 C   0  0  0  0  0  0  0  0  0  0  0  0
  188.2550  177.4490  142.3480 C   0  0  0  0  0  0  0  0  0  0  0  0
  181.5050  178.4760  138.5980 C   0  0  0  0  0  3  0  0  0  0  0  0
  183.8200  178.2100  140.1550 C   0  0  0  0  0  0  0  0  0  0  0  0
  183.5970  179.3790  139.4180 C   0  0  0  0  0  3  0  0  0  0  0  0
  182.4410  179.5120  138.6430 C   0  0  0  0  0  3  0  0  0  0  0  0
  181.7250  177.3040  139.3270 C   0  0  0  0  0  3  0  0  0  0  0  0
  182.8790  177.1690  140.1030 C   0  0  0  0  0  3  0  0  0  0  0  0
  1 12  1  0  0  0  0
  2  6  2  0  0  0  0
  3 16  1  0  0  0  0
  4 13  1  0  0  0  0
  6 18  1  0  0  0  0
  7  9  1  1  0  0  0
  7 13  1  0  0  0  0
  8 17  1  0  0  0  0
 10  8  2  0  0  0  0
 11 14  1  1  0  0  0
 11  7  1  0  0  0  0
 12 23  1  6  0  0  0
 12  2  1  0  0  0  0
 13  5  1  6  0  0  0
 14  4  1  0  0  0  0
 15  1  1  0  0  0  0
 15 20  1  0  0  0  0
 16  2  1  6  0  0  0
 16 11  1  0  0  0  0
 18 14  2  0  0  0  0
 19 20  2  0  0  0  0
 19 10  1  0  0  0  0
 20 21  1  0  0  0  0
 21  3  1  0  0  0  0
 21 17  2  0  0  0  0
 22 25  2  0  0  0  0
 22 26  1  0  0  0  0
 24 23  2  0  0  0  0
 25 24  1  0  0  0  0
 26 27  2  0  0  0  0
 27 23  1  0  0  0  0
M  END
>  <MODEL>
9

>  <REMARK>
 VINA RESULT:      -8.3      1.861      5.956
  Name = 
  1 active torsions:
  status: ('A' for Active; 'I' for Inactive)
    1  A    between atoms: C_9  and  C_15
                            x       y       z     vdW  Elec       q    Type
                         _______ _______ _______ _____ _____    ______ ____

>  <TORSDO>
F 1

$$$$
