=
 OpenBabel11052414013D

 34 38  0  0  1  0  0  0  0  0999 V2000
  183.1930  178.5040  139.1290 C   0  0  0  0  0  0  0  0  0  0  0  0
  184.9330  178.6790  140.8720 C   0  0  0  0  0  0  0  0  0  0  0  0
  185.5410  178.1350  138.5510 C   0  0  0  0  0  0  0  0  0  0  0  0
  187.8280  178.8940  136.7340 C   0  0  0  0  0  2  0  0  0  0  0  0
  181.5550  178.2760  137.4070 F   0  0  0  0  0  0  0  0  0  0  0  0
  183.9990  178.9410  141.8690 O   0  0  0  0  0  1  0  0  0  0  0  0
  187.2510  178.4120  140.2730 C   0  0  0  0  0  3  0  0  0  0  0  0
  184.5460  178.4480  139.5310 C   0  0  0  0  0  0  0  0  0  0  0  0
  187.9790  178.1390  137.9660 N   0  0  0  0  0  0  0  0  0  0  0  0
  182.2790  178.8120  139.9420 O   0  0  0  0  0  0  0  0  0  0  0  0
  185.1400  177.7740  137.2770 N   0  0  0  0  0  0  0  0  0  0  0  0
  182.8490  178.2220  137.8120 C   0  0  0  0  0  0  0  0  0  0  0  0
  186.2750  178.6410  141.2300 C   0  0  0  0  0  3  0  0  0  0  0  0
  187.0690  178.0930  135.6880 C   0  0  0  0  0  2  0  0  0  0  0  0
  186.0090  177.1510  136.2680 C   0  0  1  0  0  3  0  0  0  0  0  0
  186.9160  178.1820  138.9340 C   0  0  0  0  0  0  0  0  0  0  0  0
  183.8310  177.8320  136.9140 C   0  0  0  0  0  3  0  0  0  0  0  0
  186.1410  173.5480  137.5470 C   0  0  0  0  0  0  0  0  0  0  0  0
  187.4540  173.1940  137.2310 C   0  0  0  0  0  3  0  0  0  0  0  0
  186.5150  175.7760  136.6470 C   0  0  0  0  0  0  0  0  0  0  0  0
  188.2960  174.1210  136.6110 C   0  0  0  0  0  3  0  0  0  0  0  0
  185.6700  174.8290  137.2490 C   0  0  0  0  0  3  0  0  0  0  0  0
  187.8260  175.4020  136.3120 C   0  0  0  0  0  3  0  0  0  0  0  0
  185.3190  172.6460  138.1370 F   0  0  0  0  0  0  0  0  0  0  0  0
  189.3230  177.7240  138.3460 C   0  0  0  0  0  2  0  0  0  0  0  0
  189.2570  176.7730  139.5260 C   0  0  0  0  0  2  0  0  0  0  0  0
  190.5610  176.7990  140.3050 C   0  0  0  0  0  2  0  0  0  0  0  0
  190.2140  175.2870  142.6570 O   0  0  0  0  0  1  0  0  0  0  0  0
  190.3580  177.4130  141.6120 N   0  0  0  0  0  0  0  0  0  0  0  0
  189.5610  176.5120  142.4630 C   0  0  2  0  0  3  0  0  0  0  0  0
  190.1500  178.3680  144.1070 C   0  0  0  0  0  2  0  0  0  0  0  0
  191.5890  178.0970  143.6750 C   0  0  0  0  0  2  0  0  0  0  0  0
  191.6780  177.6540  142.2040 C   0  0  0  0  0  2  0  0  0  0  0  0
  189.2600  177.1560  143.8210 C   0  0  0  0  0  2  0  0  0  0  0  0
  1  8  1  0  0  0  0
  1 10  2  0  0  0  0
  2 13  1  0  0  0  0
  2  6  1  0  0  0  0
  3 16  2  0  0  0  0
  3  8  1  0  0  0  0
  4  9  1  0  0  0  0
  5 12  1  0  0  0  0
  7 13  2  0  0  0  0
  8  2  2  0  0  0  0
  9 25  1  0  0  0  0
  9 16  1  0  0  0  0
 11  3  1  0  0  0  0
 12  1  1  0  0  0  0
 14 15  1  0  0  0  0
 14  4  1  0  0  0  0
 15 20  1  1  0  0  0
 15 11  1  0  0  0  0
 16  7  1  0  0  0  0
 17 11  1  0  0  0  0
 17 12  2  0  0  0  0
 18 24  1  0  0  0  0
 19 18  2  0  0  0  0
 20 22  2  0  0  0  0
 21 19  1  0  0  0  0
 22 18  1  0  0  0  0
 23 21  2  0  0  0  0
 23 20  1  0  0  0  0
 25 26  1  0  0  0  0
 26 27  1  0  0  0  0
 27 29  1  0  0  0  0
 29 33  1  0  0  0  0
 29 30  1  0  0  0  0
 30 28  1  1  0  0  0
 30 34  1  0  0  0  0
 32 31  1  0  0  0  0
 33 32  1  0  0  0  0
 34 31  1  0  0  0  0
M  END
>  <MODEL>
1

>  <REMARK>
 VINA RESULT:      -7.2      0.000      0.000
  Name = 
  5 active torsions:
  status: ('A' for Active; 'I' for Inactive)
    1  A    between atoms: C_3  and  N_13
    2  A    between atoms: C_3  and  C_17
    3  A    between atoms: C_12  and  C_28
    4  A    between atoms: C_17  and  C_29
    5  A    between atoms: N_18  and  C_29
                            x       y       z     vdW  Elec       q    Type
                         _______ _______ _______ _____ _____    ______ ____

>  <TORSDO>
F 5

$$$$
=
 OpenBabel11052414013D

 34 38  0  0  1  0  0  0  0  0999 V2000
  181.9550  178.4600  137.3780 C   0  0  0  0  0  0  0  0  0  0  0  0
  183.2420  178.8170  139.4550 C   0  0  0  0  0  0  0  0  0  0  0  0
  184.3220  177.8460  137.4690 C   0  0  0  0  0  0  0  0  0  0  0  0
  187.0400  178.1330  136.1890 C   0  0  0  0  0  2  0  0  0  0  0  0
  180.7570  178.0480  135.3550 F   0  0  0  0  0  0  0  0  0  0  0  0
  182.1320  179.3050  140.1350 O   0  0  0  0  0  1  0  0  0  0  0  0
  185.5950  178.3020  139.5020 C   0  0  0  0  0  3  0  0  0  0  0  0
  183.1610  178.3850  138.1100 C   0  0  0  0  0  0  0  0  0  0  0  0
  186.8150  177.5920  137.5190 N   0  0  0  0  0  0  0  0  0  0  0  0
  180.9120  178.9610  137.8810 O   0  0  0  0  0  0  0  0  0  0  0  0
  184.1970  177.2990  136.2030 N   0  0  0  0  0  0  0  0  0  0  0  0
  181.9050  177.9800  136.0740 C   0  0  0  0  0  0  0  0  0  0  0  0
  184.4500  178.7540  140.1390 C   0  0  0  0  0  3  0  0  0  0  0  0
  186.4700  177.2160  135.1190 C   0  0  0  0  0  2  0  0  0  0  0  0
  185.2100  176.4580  135.5490 C   0  0  1  0  0  3  0  0  0  0  0  0
  185.5640  177.8680  138.1720 C   0  0  0  0  0  0  0  0  0  0  0  0
  183.0250  177.3800  135.5200 C   0  0  0  0  0  3  0  0  0  0  0  0
  186.9560  173.3230  136.8760 C   0  0  0  0  0  0  0  0  0  0  0  0
  185.9400  172.7490  137.6430 C   0  0  0  0  0  3  0  0  0  0  0  0
  185.4650  175.1390  136.2440 C   0  0  0  0  0  0  0  0  0  0  0  0
  184.6910  173.3720  137.7260 C   0  0  0  0  0  3  0  0  0  0  0  0
  186.7230  174.5160  136.1880 C   0  0  0  0  0  3  0  0  0  0  0  0
  184.4590  174.5650  137.0370 C   0  0  0  0  0  3  0  0  0  0  0  0
  188.1710  172.7270  136.8050 F   0  0  0  0  0  0  0  0  0  0  0  0
  187.9800  177.1620  138.2810 C   0  0  0  0  0  2  0  0  0  0  0  0
  188.7780  178.3700  138.7340 C   0  0  0  0  0  2  0  0  0  0  0  0
  189.8870  177.9500  139.6850 C   0  0  0  0  0  2  0  0  0  0  0  0
  191.3190  177.6340  142.0900 O   0  0  0  0  0  1  0  0  0  0  0  0
  189.3240  177.2830  140.8530 N   0  0  0  0  0  0  0  0  0  0  0  0
  190.4080  176.6690  141.6410 C   0  0  2  0  0  3  0  0  0  0  0  0
  188.3920  176.2470  143.1420 C   0  0  0  0  0  2  0  0  0  0  0  0
  188.1650  177.7520  143.0160 C   0  0  0  0  0  2  0  0  0  0  0  0
  188.6130  178.2910  141.6470 C   0  0  0  0  0  2  0  0  0  0  0  0
  189.8500  175.8910  142.8380 C   0  0  0  0  0  2  0  0  0  0  0  0
  1 10  2  0  0  0  0
  1  8  1  0  0  0  0
  2  6  1  0  0  0  0
  2 13  1  0  0  0  0
  3  8  1  0  0  0  0
  3 16  2  0  0  0  0
  4  9  1  0  0  0  0
  5 12  1  0  0  0  0
  7 13  2  0  0  0  0
  8  2  2  0  0  0  0
  9 16  1  0  0  0  0
  9 25  1  0  0  0  0
 11  3  1  0  0  0  0
 12  1  1  0  0  0  0
 14 15  1  0  0  0  0
 14  4  1  0  0  0  0
 15 11  1  0  0  0  0
 15 20  1  1  0  0  0
 16  7  1  0  0  0  0
 17 12  2  0  0  0  0
 17 11  1  0  0  0  0
 18 19  1  0  0  0  0
 19 21  2  0  0  0  0
 20 23  2  0  0  0  0
 22 20  1  0  0  0  0
 22 18  2  0  0  0  0
 23 21  1  0  0  0  0
 24 18  1  0  0  0  0
 25 26  1  0  0  0  0
 26 27  1  0  0  0  0
 27 29  1  0  0  0  0
 29 30  1  0  0  0  0
 29 33  1  0  0  0  0
 30 28  1  1  0  0  0
 30 34  1  0  0  0  0
 32 31  1  0  0  0  0
 33 32  1  0  0  0  0
 34 31  1  0  0  0  0
M  END
>  <MODEL>
2

>  <REMARK>
 VINA RESULT:      -7.1      1.542      2.145
  Name = 
  5 active torsions:
  status: ('A' for Active; 'I' for Inactive)
    1  A    between atoms: C_3  and  N_13
    2  A    between atoms: C_3  and  C_17
    3  A    between atoms: C_12  and  C_28
    4  A    between atoms: C_17  and  C_29
    5  A    between atoms: N_18  and  C_29
                            x       y       z     vdW  Elec       q    Type
                         _______ _______ _______ _____ _____    ______ ____

>  <TORSDO>
F 5

$$$$
=
 OpenBabel11052414013D

 34 38  0  0  1  0  0  0  0  0999 V2000
  182.6780  178.7570  143.8760 C   0  0  0  0  0  0  0  0  0  0  0  0
  184.9860  178.4800  143.0430 C   0  0  0  0  0  0  0  0  0  0  0  0
  183.1370  178.9120  141.4780 C   0  0  0  0  0  0  0  0  0  0  0  0
  182.8360  180.5560  138.9650 C   0  0  0  0  0  2  0  0  0  0  0  0
  180.4190  178.9890  144.6120 F   0  0  0  0  0  0  0  0  0  0  0  0
  185.4860  178.2410  144.3180 O   0  0  0  0  0  1  0  0  0  0  0  0
  185.4420  178.7330  140.6910 C   0  0  0  0  0  3  0  0  0  0  0  0
  183.6100  178.7180  142.8150 C   0  0  0  0  0  0  0  0  0  0  0  0
  183.7360  179.4230  139.0980 N   0  0  0  0  0  0  0  0  0  0  0  0
  183.0440  178.6310  145.0760 O   0  0  0  0  0  0  0  0  0  0  0  0
  181.7740  179.0020  141.2530 N   0  0  0  0  0  0  0  0  0  0  0  0
  181.3270  178.9450  143.6050 C   0  0  0  0  0  0  0  0  0  0  0  0
  185.8810  178.4730  141.9800 C   0  0  0  0  0  3  0  0  0  0  0  0
  181.3830  180.1150  139.0270 C   0  0  0  0  0  2  0  0  0  0  0  0
  181.1330  178.9060  139.9340 C   0  0  1  0  0  3  0  0  0  0  0  0
  184.0920  178.9760  140.4180 C   0  0  0  0  0  0  0  0  0  0  0  0
  180.8960  179.0340  142.2900 C   0  0  0  0  0  3  0  0  0  0  0  0
  181.2030  176.1480  137.2830 C   0  0  0  0  0  0  0  0  0  0  0  0
  181.7110  175.0760  138.0190 C   0  0  0  0  0  3  0  0  0  0  0  0
  181.2920  177.5600  139.2620 C   0  0  0  0  0  0  0  0  0  0  0  0
  182.0250  175.2430  139.3700 C   0  0  0  0  0  3  0  0  0  0  0  0
  181.0030  177.3860  137.8990 C   0  0  0  0  0  3  0  0  0  0  0  0
  181.8250  176.4810  139.9860 C   0  0  0  0  0  3  0  0  0  0  0  0
  180.9100  175.9920  135.9690 F   0  0  0  0  0  0  0  0  0  0  0  0
  184.5430  179.0600  137.9400 C   0  0  0  0  0  2  0  0  0  0  0  0
  184.5560  177.5520  137.7710 C   0  0  0  0  0  2  0  0  0  0  0  0
  185.8170  177.1090  137.0480 C   0  0  0  0  0  2  0  0  0  0  0  0
  188.3130  175.8010  137.0610 O   0  0  0  0  0  1  0  0  0  0  0  0
  186.9960  177.6700  137.6970 N   0  0  0  0  0  0  0  0  0  0  0  0
  187.8810  176.5800  138.1420 C   0  0  2  0  0  3  0  0  0  0  0  0
  189.2960  178.6310  138.6800 C   0  0  0  0  0  2  0  0  0  0  0  0
  189.0550  179.0020  137.2180 C   0  0  0  0  0  2  0  0  0  0  0  0
  187.6790  178.5280  136.7210 C   0  0  0  0  0  2  0  0  0  0  0  0
  189.0970  177.1290  138.8990 C   0  0  0  0  0  2  0  0  0  0  0  0
  1 10  2  0  0  0  0
  2  6  1  0  0  0  0
  3  8  2  0  0  0  0
  4 14  1  0  0  0  0
  4  9  1  0  0  0  0
  7 13  1  0  0  0  0
  8  2  1  0  0  0  0
  8  1  1  0  0  0  0
  9 16  1  0  0  0  0
 11  3  1  0  0  0  0
 11 17  1  0  0  0  0
 12  1  1  0  0  0  0
 12  5  1  0  0  0  0
 13  2  2  0  0  0  0
 14 15  1  0  0  0  0
 15 20  1  6  0  0  0
 15 11  1  0  0  0  0
 16  7  2  0  0  0  0
 16  3  1  0  0  0  0
 17 12  2  0  0  0  0
 18 22  2  0  0  0  0
 18 19  1  0  0  0  0
 19 21  2  0  0  0  0
 20 23  2  0  0  0  0
 21 23  1  0  0  0  0
 22 20  1  0  0  0  0
 24 18  1  0  0  0  0
 25  9  1  0  0  0  0
 26 25  1  0  0  0  0
 27 29  1  0  0  0  0
 27 26  1  0  0  0  0
 29 30  1  0  0  0  0
 30 28  1  6  0  0  0
 30 34  1  0  0  0  0
 31 34  1  0  0  0  0
 32 31  1  0  0  0  0
 33 32  1  0  0  0  0
 33 29  1  0  0  0  0
M  END
>  <MODEL>
3

>  <REMARK>
 VINA RESULT:      -7.0      3.057      5.397
  Name = 
  5 active torsions:
  status: ('A' for Active; 'I' for Inactive)
    1  A    between atoms: C_3  and  N_13
    2  A    between atoms: C_3  and  C_17
    3  A    between atoms: C_12  and  C_28
    4  A    between atoms: C_17  and  C_29
    5  A    between atoms: N_18  and  C_29
                            x       y       z     vdW  Elec       q    Type
                         _______ _______ _______ _____ _____    ______ ____

>  <TORSDO>
F 5

$$$$
=
 OpenBabel11052414013D

 34 38  0  0  1  0  0  0  0  0999 V2000
  186.4100  178.5900  139.6560 C   0  0  0  0  0  0  0  0  0  0  0  0
  188.4910  177.7820  140.7100 C   0  0  0  0  0  0  0  0  0  0  0  0
  188.0410  177.3350  138.3340 C   0  0  0  0  0  0  0  0  0  0  0  0
  189.7360  177.2760  135.8370 C   0  0  0  0  0  2  0  0  0  0  0  0
  184.3970  179.3040  138.5880 F   0  0  0  0  0  0  0  0  0  0  0  0
  188.1320  178.2850  141.9560 O   0  0  0  0  0  1  0  0  0  0  0  0
  190.1360  176.6350  139.3760 C   0  0  0  0  0  3  0  0  0  0  0  0
  187.6470  177.9120  139.5820 C   0  0  0  0  0  0  0  0  0  0  0  0
  189.9110  176.3780  136.9650 N   0  0  0  0  0  0  0  0  0  0  0  0
  186.0300  179.1490  140.7210 O   0  0  0  0  0  0  0  0  0  0  0  0
  187.1480  177.3460  137.2760 N   0  0  0  0  0  0  0  0  0  0  0  0
  185.5870  178.6530  138.5370 C   0  0  0  0  0  0  0  0  0  0  0  0
  189.7140  177.1310  140.5990 C   0  0  0  0  0  3  0  0  0  0  0  0
  188.4190  177.0160  135.1260 C   0  0  0  0  0  2  0  0  0  0  0  0
  187.2890  176.5490  136.0490 C   0  0  1  0  0  3  0  0  0  0  0  0
  189.3360  176.7430  138.2330 C   0  0  0  0  0  0  0  0  0  0  0  0
  185.9610  178.0020  137.3720 C   0  0  0  0  0  3  0  0  0  0  0  0
  186.2680  173.1090  137.3750 C   0  0  0  0  0  0  0  0  0  0  0  0
  187.0380  172.2660  136.5710 C   0  0  0  0  0  3  0  0  0  0  0  0
  187.2220  175.0530  136.2690 C   0  0  0  0  0  0  0  0  0  0  0  0
  187.8890  172.8100  135.6060 C   0  0  0  0  0  3  0  0  0  0  0  0
  186.3520  174.4940  137.2200 C   0  0  0  0  0  3  0  0  0  0  0  0
  187.9740  174.1960  135.4500 C   0  0  0  0  0  3  0  0  0  0  0  0
  185.4320  172.5820  138.3030 F   0  0  0  0  0  0  0  0  0  0  0  0
  190.9750  175.3850  136.8820 C   0  0  0  0  0  2  0  0  0  0  0  0
  192.2780  176.0550  136.4900 C   0  0  0  0  0  2  0  0  0  0  0  0
  193.2480  176.0580  137.6600 C   0  0  0  0  0  2  0  0  0  0  0  0
  194.3190  173.4540  137.7660 O   0  0  0  0  0  1  0  0  0  0  0  0
  194.5960  175.7420  137.2000 N   0  0  0  0  0  0  0  0  0  0  0  0
  195.1180  174.5890  137.9550 C   0  0  2  0  0  3  0  0  0  0  0  0
  196.9710  174.9520  136.2430 C   0  0  0  0  0  2  0  0  0  0  0  0
  195.8420  174.8700  135.2180 C   0  0  0  0  0  2  0  0  0  0  0  0
  194.5200  175.4330  135.7680 C   0  0  0  0  0  2  0  0  0  0  0  0
  196.5640  174.2740  137.5530 C   0  0  0  0  0  2  0  0  0  0  0  0
  1 10  2  0  0  0  0
  2  6  1  0  0  0  0
  3  8  1  0  0  0  0
  4  9  1  0  0  0  0
  7 13  2  0  0  0  0
  8  1  1  0  0  0  0
  8  2  2  0  0  0  0
  9 16  1  0  0  0  0
 11 17  1  0  0  0  0
 11  3  1  0  0  0  0
 12  5  1  0  0  0  0
 12  1  1  0  0  0  0
 13  2  1  0  0  0  0
 14  4  1  0  0  0  0
 14 15  1  0  0  0  0
 15 20  1  1  0  0  0
 15 11  1  0  0  0  0
 16  3  2  0  0  0  0
 16  7  1  0  0  0  0
 17 12  2  0  0  0  0
 18 24  1  0  0  0  0
 19 18  2  0  0  0  0
 20 22  2  0  0  0  0
 21 19  1  0  0  0  0
 22 18  1  0  0  0  0
 23 21  2  0  0  0  0
 23 20  1  0  0  0  0
 25  9  1  0  0  0  0
 26 25  1  0  0  0  0
 26 27  1  0  0  0  0
 29 27  1  0  0  0  0
 29 30  1  0  0  0  0
 30 28  1  6  0  0  0
 31 34  1  0  0  0  0
 32 33  1  0  0  0  0
 32 31  1  0  0  0  0
 33 29  1  0  0  0  0
 34 30  1  0  0  0  0
M  END
>  <MODEL>
4

>  <REMARK>
 VINA RESULT:      -6.9      3.553      4.614
  Name = 
  5 active torsions:
  status: ('A' for Active; 'I' for Inactive)
    1  A    between atoms: C_3  and  N_13
    2  A    between atoms: C_3  and  C_17
    3  A    between atoms: C_12  and  C_28
    4  A    between atoms: C_17  and  C_29
    5  A    between atoms: N_18  and  C_29
                            x       y       z     vdW  Elec       q    Type
                         _______ _______ _______ _____ _____    ______ ____

>  <TORSDO>
F 5

$$$$
=
 OpenBabel11052414013D

 34 38  0  0  1  0  0  0  0  0999 V2000
  191.0640  174.5050  136.4250 C   0  0  0  0  0  0  0  0  0  0  0  0
  188.8190  173.4820  136.5270 C   0  0  0  0  0  0  0  0  0  0  0  0
  189.1530  175.8280  137.1890 C   0  0  0  0  0  0  0  0  0  0  0  0
  187.5600  178.3670  136.8440 C   0  0  0  0  0  2  0  0  0  0  0  0
  193.2150  175.5400  136.3930 F   0  0  0  0  0  0  0  0  0  0  0  0
  189.2930  172.2460  136.1020 O   0  0  0  0  0  1  0  0  0  0  0  0
  186.9280  174.8210  137.1850 C   0  0  0  0  0  3  0  0  0  0  0  0
  189.6810  174.5900  136.7040 C   0  0  0  0  0  0  0  0  0  0  0  0
  187.1050  177.2130  137.6000 N   0  0  0  0  0  0  0  0  0  0  0  0
  191.5770  173.4510  135.9600 O   0  0  0  0  0  0  0  0  0  0  0  0
  190.0260  176.8590  137.4910 N   0  0  0  0  0  0  0  0  0  0  0  0
  191.8860  175.6020  136.6580 C   0  0  0  0  0  0  0  0  0  0  0  0
  187.4590  173.6050  136.7860 C   0  0  0  0  0  3  0  0  0  0  0  0
  188.7500  179.0310  137.5170 C   0  0  0  0  0  2  0  0  0  0  0  0
  189.6710  178.0600  138.2610 C   0  0  1  0  0  3  0  0  0  0  0  0
  187.7420  175.9440  137.3700 C   0  0  0  0  0  0  0  0  0  0  0  0
  191.3530  176.7530  137.2170 C   0  0  0  0  0  3  0  0  0  0  0  0
  189.5610  176.5520  141.7750 C   0  0  0  0  0  0  0  0  0  0  0  0
  188.6210  177.3760  142.3970 C   0  0  0  0  0  3  0  0  0  0  0  0
  189.2820  177.7850  139.6970 C   0  0  0  0  0  0  0  0  0  0  0  0
  188.0200  178.4130  141.6790 C   0  0  0  0  0  3  0  0  0  0  0  0
  189.8970  176.7600  140.4360 C   0  0  0  0  0  3  0  0  0  0  0  0
  188.3560  178.6220  140.3390 C   0  0  0  0  0  3  0  0  0  0  0  0
  190.1540  175.5530  142.4740 F   0  0  0  0  0  0  0  0  0  0  0  0
  185.7930  177.2910  138.2310 C   0  0  0  0  0  2  0  0  0  0  0  0
  185.5420  178.7020  138.7300 C   0  0  0  0  0  2  0  0  0  0  0  0
  184.0540  179.0120  138.7240 C   0  0  0  0  0  2  0  0  0  0  0  0
  182.7230  176.8700  139.9810 O   0  0  0  0  0  1  0  0  0  0  0  0
  183.5490  179.0920  140.0890 N   0  0  0  0  0  0  0  0  0  0  0  0
  182.3830  178.2050  140.2380 C   0  0  2  0  0  3  0  0  0  0  0  0
  182.7170  179.0030  142.6350 C   0  0  0  0  0  2  0  0  0  0  0  0
  184.1520  178.5160  142.4450 C   0  0  0  0  0  2  0  0  0  0  0  0
  184.6310  178.6830  140.9920 C   0  0  0  0  0  2  0  0  0  0  0  0
  181.7750  178.3190  141.6410 C   0  0  0  0  0  2  0  0  0  0  0  0
  1 12  1  0  0  0  0
  1  8  1  0  0  0  0
  2  8  2  0  0  0  0
  2 13  1  0  0  0  0
  3 16  2  0  0  0  0
  3 11  1  0  0  0  0
  4 14  1  0  0  0  0
  4  9  1  0  0  0  0
  5 12  1  0  0  0  0
  6  2  1  0  0  0  0
  7 16  1  0  0  0  0
  8  3  1  0  0  0  0
  9 25  1  0  0  0  0
 10  1  2  0  0  0  0
 11 15  1  0  0  0  0
 12 17  2  0  0  0  0
 13  7  2  0  0  0  0
 14 15  1  0  0  0  0
 15 20  1  1  0  0  0
 16  9  1  0  0  0  0
 17 11  1  0  0  0  0
 18 19  1  0  0  0  0
 18 24  1  0  0  0  0
 20 23  2  0  0  0  0
 20 22  1  0  0  0  0
 21 19  2  0  0  0  0
 22 18  2  0  0  0  0
 23 21  1  0  0  0  0
 25 26  1  0  0  0  0
 27 26  1  0  0  0  0
 27 29  1  0  0  0  0
 29 30  1  0  0  0  0
 29 33  1  0  0  0  0
 30 28  1  1  0  0  0
 30 34  1  0  0  0  0
 32 31  1  0  0  0  0
 33 32  1  0  0  0  0
 34 31  1  0  0  0  0
M  END
>  <MODEL>
5

>  <REMARK>
 VINA RESULT:      -6.9      3.077      6.901
  Name = 
  5 active torsions:
  status: ('A' for Active; 'I' for Inactive)
    1  A    between atoms: C_3  and  N_13
    2  A    between atoms: C_3  and  C_17
    3  A    between atoms: C_12  and  C_28
    4  A    between atoms: C_17  and  C_29
    5  A    between atoms: N_18  and  C_29
                            x       y       z     vdW  Elec       q    Type
                         _______ _______ _______ _____ _____    ______ ____

>  <TORSDO>
F 5

$$$$
=
 OpenBabel11052414013D

 34 38  0  0  1  0  0  0  0  0999 V2000
  191.0090  174.1120  136.3400 C   0  0  0  0  0  0  0  0  0  0  0  0
  188.6960  173.2690  136.5330 C   0  0  0  0  0  0  0  0  0  0  0  0
  189.2140  175.6210  137.0380 C   0  0  0  0  0  0  0  0  0  0  0  0
  187.8080  178.2460  136.5470 C   0  0  0  0  0  2  0  0  0  0  0  0
  193.2300  174.9790  136.2160 F   0  0  0  0  0  0  0  0  0  0  0  0
  189.0700  171.9760  136.1840 O   0  0  0  0  0  1  0  0  0  0  0  0
  186.9210  174.7860  137.1240 C   0  0  0  0  0  3  0  0  0  0  0  0
  189.6410  174.3180  136.6280 C   0  0  0  0  0  0  0  0  0  0  0  0
  187.2810  177.1800  137.3820 N   0  0  0  0  0  0  0  0  0  0  0  0
  191.4350  172.9950  135.9380 O   0  0  0  0  0  0  0  0  0  0  0  0
  190.1660  176.6010  137.2630 N   0  0  0  0  0  0  0  0  0  0  0  0
  191.9140  175.1570  136.4920 C   0  0  0  0  0  0  0  0  0  0  0  0
  187.3540  173.5100  136.7990 C   0  0  0  0  0  3  0  0  0  0  0  0
  189.0550  178.8600  137.1620 C   0  0  0  0  0  2  0  0  0  0  0  0
  189.9140  177.8720  137.9570 C   0  0  1  0  0  3  0  0  0  0  0  0
  187.8180  175.8540  137.2270 C   0  0  0  0  0  0  0  0  0  0  0  0
  191.4770  176.3780  136.9810 C   0  0  0  0  0  3  0  0  0  0  0  0
  189.8060  176.6580  141.5840 C   0  0  0  0  0  0  0  0  0  0  0  0
  188.8750  177.5380  142.1390 C   0  0  0  0  0  3  0  0  0  0  0  0
  189.5290  177.7190  139.4130 C   0  0  0  0  0  0  0  0  0  0  0  0
  188.2810  178.5190  141.3400 C   0  0  0  0  0  3  0  0  0  0  0  0
  190.1380  176.7530  140.2300 C   0  0  0  0  0  3  0  0  0  0  0  0
  188.6120  178.6140  139.9860 C   0  0  0  0  0  3  0  0  0  0  0  0
  190.3940  175.7150  142.3600 F   0  0  0  0  0  0  0  0  0  0  0  0
  185.9900  177.3960  138.0210 C   0  0  0  0  0  2  0  0  0  0  0  0
  184.9020  177.5030  136.9690 C   0  0  0  0  0  2  0  0  0  0  0  0
  183.6330  178.0830  137.5710 C   0  0  0  0  0  2  0  0  0  0  0  0
  184.0750  180.4120  139.0930 O   0  0  0  0  0  1  0  0  0  0  0  0
  183.7120  178.0680  139.0270 N   0  0  0  0  0  0  0  0  0  0  0  0
  184.5800  179.1660  139.4860 C   0  0  2  0  0  3  0  0  0  0  0  0
  183.7100  178.2520  141.7000 C   0  0  0  0  0  2  0  0  0  0  0  0
  182.3310  178.4480  141.0740 C   0  0  0  0  0  2  0  0  0  0  0  0
  182.3510  178.2280  139.5510 C   0  0  0  0  0  2  0  0  0  0  0  0
  184.7510  179.1370  141.0100 C   0  0  0  0  0  2  0  0  0  0  0  0
  1 12  1  0  0  0  0
  1  8  1  0  0  0  0
  2  8  2  0  0  0  0
  2 13  1  0  0  0  0
  3 16  2  0  0  0  0
  3 11  1  0  0  0  0
  4 14  1  0  0  0  0
  4  9  1  0  0  0  0
  5 12  1  0  0  0  0
  6  2  1  0  0  0  0
  7 16  1  0  0  0  0
  8  3  1  0  0  0  0
  9 25  1  0  0  0  0
 10  1  2  0  0  0  0
 11 15  1  0  0  0  0
 12 17  2  0  0  0  0
 13  7  2  0  0  0  0
 14 15  1  0  0  0  0
 15 20  1  1  0  0  0
 16  9  1  0  0  0  0
 17 11  1  0  0  0  0
 18 19  1  0  0  0  0
 18 24  1  0  0  0  0
 20 23  2  0  0  0  0
 20 22  1  0  0  0  0
 21 19  2  0  0  0  0
 22 18  2  0  0  0  0
 23 21  1  0  0  0  0
 26 27  1  0  0  0  0
 26 25  1  0  0  0  0
 27 29  1  0  0  0  0
 29 30  1  0  0  0  0
 29 33  1  0  0  0  0
 30 28  1  1  0  0  0
 30 34  1  0  0  0  0
 32 31  1  0  0  0  0
 33 32  1  0  0  0  0
 34 31  1  0  0  0  0
M  END
>  <MODEL>
6

>  <REMARK>
 VINA RESULT:      -6.8      3.028      7.043
  Name = 
  5 active torsions:
  status: ('A' for Active; 'I' for Inactive)
    1  A    between atoms: C_3  and  N_13
    2  A    between atoms: C_3  and  C_17
    3  A    between atoms: C_12  and  C_28
    4  A    between atoms: C_17  and  C_29
    5  A    between atoms: N_18  and  C_29
                            x       y       z     vdW  Elec       q    Type
                         _______ _______ _______ _____ _____    ______ ____

>  <TORSDO>
F 5

$$$$
=
 OpenBabel11052414013D

 34 38  0  0  1  0  0  0  0  0999 V2000
  191.2600  174.4560  136.6730 C   0  0  0  0  0  0  0  0  0  0  0  0
  188.9750  173.5290  136.5510 C   0  0  0  0  0  0  0  0  0  0  0  0
  189.3460  175.8380  137.3130 C   0  0  0  0  0  0  0  0  0  0  0  0
  187.8930  178.4530  136.9150 C   0  0  0  0  0  2  0  0  0  0  0  0
  193.4460  175.3980  136.8560 F   0  0  0  0  0  0  0  0  0  0  0  0
  189.4330  172.2860  136.1290 O   0  0  0  0  0  1  0  0  0  0  0  0
  187.0910  174.9290  137.0890 C   0  0  0  0  0  3  0  0  0  0  0  0
  189.8630  174.5930  136.8360 C   0  0  0  0  0  0  0  0  0  0  0  0
  187.3280  177.2990  137.5930 N   0  0  0  0  0  0  0  0  0  0  0  0
  191.7680  173.3940  136.2200 O   0  0  0  0  0  0  0  0  0  0  0  0
  190.2300  176.8220  137.7210 N   0  0  0  0  0  0  0  0  0  0  0  0
  192.1030  175.5100  137.0100 C   0  0  0  0  0  0  0  0  0  0  0  0
  187.6040  173.7030  136.6970 C   0  0  0  0  0  3  0  0  0  0  0  0
  189.0460  179.0460  137.7080 C   0  0  0  0  0  2  0  0  0  0  0  0
  189.8600  178.0150  138.4960 C   0  0  1  0  0  3  0  0  0  0  0  0
  187.9300  176.0100  137.3780 C   0  0  0  0  0  0  0  0  0  0  0  0
  191.5710  176.6660  137.5580 C   0  0  0  0  0  3  0  0  0  0  0  0
  189.4660  176.4990  141.9870 C   0  0  0  0  0  0  0  0  0  0  0  0
  188.4200  177.2670  142.5010 C   0  0  0  0  0  3  0  0  0  0  0  0
  189.3380  177.7160  139.8850 C   0  0  0  0  0  0  0  0  0  0  0  0
  187.8400  178.2700  141.7190 C   0  0  0  0  0  3  0  0  0  0  0  0
  189.9290  176.7280  140.6890 C   0  0  0  0  0  3  0  0  0  0  0  0
  188.3030  178.4990  140.4210 C   0  0  0  0  0  3  0  0  0  0  0  0
  190.0380  175.5350  142.7490 F   0  0  0  0  0  0  0  0  0  0  0  0
  185.9710  177.4160  138.1130 C   0  0  0  0  0  2  0  0  0  0  0  0
  185.6230  178.8770  138.3270 C   0  0  0  0  0  2  0  0  0  0  0  0
  184.4730  179.0120  139.3110 C   0  0  0  0  0  2  0  0  0  0  0  0
  182.3160  178.4650  141.0400 O   0  0  0  0  0  1  0  0  0  0  0  0
  183.3970  178.0920  138.9600 N   0  0  0  0  0  0  0  0  0  0  0  0
  182.8430  177.4890  140.1850 C   0  0  2  0  0  3  0  0  0  0  0  0
  181.2560  176.5780  138.4110 C   0  0  0  0  0  2  0  0  0  0  0  0
  181.0830  178.0430  138.0190 C   0  0  0  0  0  2  0  0  0  0  0  0
  182.3670  178.8580  138.2480 C   0  0  0  0  0  2  0  0  0  0  0  0
  181.7590  176.4560  139.8520 C   0  0  0  0  0  2  0  0  0  0  0  0
  1  8  1  0  0  0  0
  1 12  1  0  0  0  0
  2 13  2  0  0  0  0
  2  8  1  0  0  0  0
  3 16  1  0  0  0  0
  3 11  1  0  0  0  0
  4  9  1  0  0  0  0
  4 14  1  0  0  0  0
  5 12  1  0  0  0  0
  6  2  1  0  0  0  0
  7 16  2  0  0  0  0
  8  3  2  0  0  0  0
  9 25  1  0  0  0  0
 10  1  2  0  0  0  0
 11 15  1  0  0  0  0
 12 17  2  0  0  0  0
 13  7  1  0  0  0  0
 14 15  1  0  0  0  0
 15 20  1  1  0  0  0
 16  9  1  0  0  0  0
 17 11  1  0  0  0  0
 18 19  1  0  0  0  0
 18 24  1  0  0  0  0
 20 23  2  0  0  0  0
 20 22  1  0  0  0  0
 21 19  2  0  0  0  0
 22 18  2  0  0  0  0
 23 21  1  0  0  0  0
 25 26  1  0  0  0  0
 26 27  1  0  0  0  0
 29 27  1  0  0  0  0
 29 30  1  0  0  0  0
 30 28  1  1  0  0  0
 31 34  1  0  0  0  0
 32 33  1  0  0  0  0
 32 31  1  0  0  0  0
 33 29  1  0  0  0  0
 34 30  1  0  0  0  0
M  END
>  <MODEL>
7

>  <REMARK>
 VINA RESULT:      -6.6      3.036      7.382
  Name = 
  5 active torsions:
  status: ('A' for Active; 'I' for Inactive)
    1  A    between atoms: C_3  and  N_13
    2  A    between atoms: C_3  and  C_17
    3  A    between atoms: C_12  and  C_28
    4  A    between atoms: C_17  and  C_29
    5  A    between atoms: N_18  and  C_29
                            x       y       z     vdW  Elec       q    Type
                         _______ _______ _______ _____ _____    ______ ____

>  <TORSDO>
F 5

$$$$
=
 OpenBabel11052414013D

 34 38  0  0  1  0  0  0  0  0999 V2000
  182.6920  178.7530  143.7660 C   0  0  0  0  0  0  0  0  0  0  0  0
  185.0430  178.4090  143.0950 C   0  0  0  0  0  0  0  0  0  0  0  0
  183.3180  178.8740  141.4040 C   0  0  0  0  0  0  0  0  0  0  0  0
  183.2340  180.5030  138.8650 C   0  0  0  0  0  2  0  0  0  0  0  0
  180.3940  179.0500  144.3420 F   0  0  0  0  0  0  0  0  0  0  0  0
  185.4480  178.1690  144.4040 O   0  0  0  0  0  1  0  0  0  0  0  0
  185.6660  178.6290  140.7790 C   0  0  0  0  0  3  0  0  0  0  0  0
  183.6930  178.6800  142.7710 C   0  0  0  0  0  0  0  0  0  0  0  0
  184.0920  179.3480  139.0670 N   0  0  0  0  0  0  0  0  0  0  0  0
  182.9710  178.6280  144.9890 O   0  0  0  0  0  0  0  0  0  0  0  0
  181.9770  178.9980  141.0850 N   0  0  0  0  0  0  0  0  0  0  0  0
  181.3680  178.9730  143.4010 C   0  0  0  0  0  0  0  0  0  0  0  0
  186.0080  178.3700  142.0970 C   0  0  0  0  0  3  0  0  0  0  0  0
  181.7690  180.1000  138.8290 C   0  0  0  0  0  2  0  0  0  0  0  0
  181.4250  178.9060  139.7260 C   0  0  1  0  0  3  0  0  0  0  0  0
  184.3450  178.9050  140.4120 C   0  0  0  0  0  0  0  0  0  0  0  0
  181.0310  179.0620  142.0590 C   0  0  0  0  0  3  0  0  0  0  0  0
  181.6470  176.1320  137.1010 C   0  0  0  0  0  0  0  0  0  0  0  0
  182.0330  175.0430  137.8860 C   0  0  0  0  0  3  0  0  0  0  0  0
  181.5950  177.5500  139.0760 C   0  0  0  0  0  0  0  0  0  0  0  0
  182.2170  175.2060  139.2620 C   0  0  0  0  0  3  0  0  0  0  0  0
  181.4380  177.3800  137.6910 C   0  0  0  0  0  3  0  0  0  0  0  0
  182.0070  176.4550  139.8520 C   0  0  0  0  0  3  0  0  0  0  0  0
  181.4810  175.9790  135.7650 F   0  0  0  0  0  0  0  0  0  0  0  0
  184.9670  178.9540  137.9700 C   0  0  0  0  0  2  0  0  0  0  0  0
  185.0320  177.4410  137.8780 C   0  0  0  0  0  2  0  0  0  0  0  0
  186.0850  177.0140  136.8690 C   0  0  0  0  0  2  0  0  0  0  0  0
  184.8260  174.8850  135.5190 O   0  0  0  0  0  1  0  0  0  0  0  0
  186.4530  175.6190  137.0830 N   0  0  0  0  0  0  0  0  0  0  0  0
  185.2850  174.7560  136.8360 C   0  0  2  0  0  3  0  0  0  0  0  0
  187.1170  173.0270  137.2190 C   0  0  0  0  0  2  0  0  0  0  0  0
  187.8670  173.7920  136.1310 C   0  0  0  0  0  2  0  0  0  0  0  0
  187.5420  175.2960  136.1540 C   0  0  0  0  0  2  0  0  0  0  0  0
  185.6110  173.2860  137.1260 C   0  0  0  0  0  2  0  0  0  0  0  0
  1 10  2  0  0  0  0
  2  6  1  0  0  0  0
  3  8  2  0  0  0  0
  4  9  1  0  0  0  0
  7 13  1  0  0  0  0
  8  2  1  0  0  0  0
  8  1  1  0  0  0  0
  9 16  1  0  0  0  0
 11  3  1  0  0  0  0
 11 17  1  0  0  0  0
 12  1  1  0  0  0  0
 12  5  1  0  0  0  0
 13  2  2  0  0  0  0
 14  4  1  0  0  0  0
 14 15  1  0  0  0  0
 15 20  1  6  0  0  0
 15 11  1  0  0  0  0
 16  7  2  0  0  0  0
 16  3  1  0  0  0  0
 17 12  2  0  0  0  0
 18 22  2  0  0  0  0
 18 19  1  0  0  0  0
 19 21  2  0  0  0  0
 20 23  2  0  0  0  0
 21 23  1  0  0  0  0
 22 20  1  0  0  0  0
 24 18  1  0  0  0  0
 25  9  1  0  0  0  0
 26 25  1  0  0  0  0
 27 29  1  0  0  0  0
 27 26  1  0  0  0  0
 30 28  1  6  0  0  0
 30 29  1  0  0  0  0
 30 34  1  0  0  0  0
 32 33  1  0  0  0  0
 32 31  1  0  0  0  0
 33 29  1  0  0  0  0
 34 31  1  0  0  0  0
M  END
>  <MODEL>
8

>  <REMARK>
 VINA RESULT:      -6.5      3.306      5.853
  Name = 
  5 active torsions:
  status: ('A' for Active; 'I' for Inactive)
    1  A    between atoms: C_3  and  N_13
    2  A    between atoms: C_3  and  C_17
    3  A    between atoms: C_12  and  C_28
    4  A    between atoms: C_17  and  C_29
    5  A    between atoms: N_18  and  C_29
                            x       y       z     vdW  Elec       q    Type
                         _______ _______ _______ _____ _____    ______ ____

>  <TORSDO>
F 5

$$$$
=
 OpenBabel11052414013D

 34 38  0  0  1  0  0  0  0  0999 V2000
  182.0060  178.8440  143.4730 C   0  0  0  0  0  0  0  0  0  0  0  0
  184.0380  178.4230  142.1350 C   0  0  0  0  0  0  0  0  0  0  0  0
  181.8460  178.6420  141.0410 C   0  0  0  0  0  0  0  0  0  0  0  0
  180.8820  179.9050  138.4740 C   0  0  0  0  0  2  0  0  0  0  0  0
  179.9980  179.2070  144.7120 F   0  0  0  0  0  0  0  0  0  0  0  0
  184.8470  178.3670  143.2640 O   0  0  0  0  0  1  0  0  0  0  0  0
  183.8840  178.3250  139.7340 C   0  0  0  0  0  3  0  0  0  0  0  0
  182.6430  178.6400  142.2290 C   0  0  0  0  0  0  0  0  0  0  0  0
  181.8150  178.7930  138.5380 N   0  0  0  0  0  0  0  0  0  0  0  0
  182.6640  178.8900  144.5480 O   0  0  0  0  0  0  0  0  0  0  0  0
  180.4680  178.7140  141.1550 N   0  0  0  0  0  0  0  0  0  0  0  0
  180.6260  179.0050  143.5270 C   0  0  0  0  0  0  0  0  0  0  0  0
  184.6380  178.2510  140.8940 C   0  0  0  0  0  3  0  0  0  0  0  0
  179.5030  179.4930  138.9620 C   0  0  0  0  0  2  0  0  0  0  0  0
  179.5190  178.4330  140.0680 C   0  0  1  0  0  3  0  0  0  0  0  0
  182.5020  178.5400  139.7770 C   0  0  0  0  0  0  0  0  0  0  0  0
  179.8770  178.9070  142.3640 C   0  0  0  0  0  3  0  0  0  0  0  0
  179.7940  174.6180  139.9940 C   0  0  0  0  0  0  0  0  0  0  0  0
  179.4580  174.3460  138.6660 C   0  0  0  0  0  3  0  0  0  0  0  0
  179.5410  177.0010  139.5790 C   0  0  0  0  0  0  0  0  0  0  0  0
  179.1480  175.3950  137.7960 C   0  0  0  0  0  3  0  0  0  0  0  0
  179.8260  175.9370  140.4510 C   0  0  0  0  0  3  0  0  0  0  0  0
  179.1810  176.7150  138.2530 C   0  0  0  0  0  3  0  0  0  0  0  0
  180.0810  173.6010  140.8420 F   0  0  0  0  0  0  0  0  0  0  0  0
  182.3160  178.2560  137.2800 C   0  0  0  0  0  2  0  0  0  0  0  0
  182.6240  176.7780  137.4340 C   0  0  0  0  0  2  0  0  0  0  0  0
  183.5370  176.3050  136.3140 C   0  0  0  0  0  2  0  0  0  0  0  0
  186.0510  175.1100  136.7490 O   0  0  0  0  0  1  0  0  0  0  0  0
  184.7800  177.0670  136.3190 N   0  0  0  0  0  0  0  0  0  0  0  0
  185.7620  176.4050  137.1960 C   0  0  2  0  0  3  0  0  0  0  0  0
  187.1670  178.2770  136.1870 C   0  0  0  0  0  2  0  0  0  0  0  0
  186.6920  177.7170  134.8480 C   0  0  0  0  0  2  0  0  0  0  0  0
  185.2740  177.1270  134.9390 C   0  0  0  0  0  2  0  0  0  0  0  0
  187.0580  177.2190  137.2880 C   0  0  0  0  0  2  0  0  0  0  0  0
  1 12  1  0  0  0  0
  1 10  2  0  0  0  0
  2  8  1  0  0  0  0
  2  6  1  0  0  0  0
  3 11  1  0  0  0  0
  3  8  2  0  0  0  0
  4  9  1  0  0  0  0
  4 14  1  0  0  0  0
  7 16  2  0  0  0  0
  7 13  1  0  0  0  0
  8  1  1  0  0  0  0
  9 16  1  0  0  0  0
 11 17  1  0  0  0  0
 12  5  1  0  0  0  0
 13  2  2  0  0  0  0
 14 15  1  0  0  0  0
 15 20  1  6  0  0  0
 15 11  1  0  0  0  0
 16  3  1  0  0  0  0
 17 12  2  0  0  0  0
 18 22  1  0  0  0  0
 18 24  1  0  0  0  0
 19 18  2  0  0  0  0
 20 22  2  0  0  0  0
 21 23  2  0  0  0  0
 21 19  1  0  0  0  0
 23 20  1  0  0  0  0
 25 26  1  0  0  0  0
 25  9  1  0  0  0  0
 27 29  1  0  0  0  0
 27 26  1  0  0  0  0
 29 30  1  0  0  0  0
 30 28  1  6  0  0  0
 30 34  1  0  0  0  0
 31 34  1  0  0  0  0
 32 33  1  0  0  0  0
 32 31  1  0  0  0  0
 33 29  1  0  0  0  0
M  END
>  <MODEL>
9

>  <REMARK>
 VINA RESULT:      -6.3      3.891      6.788
  Name = 
  5 active torsions:
  status: ('A' for Active; 'I' for Inactive)
    1  A    between atoms: C_3  and  N_13
    2  A    between atoms: C_3  and  C_17
    3  A    between atoms: C_12  and  C_28
    4  A    between atoms: C_17  and  C_29
    5  A    between atoms: N_18  and  C_29
                            x       y       z     vdW  Elec       q    Type
                         _______ _______ _______ _____ _____    ______ ____

>  <TORSDO>
F 5

$$$$
