=
 OpenBabel11052416083D

 43 48  0  0  1  0  0  0  0  0999 V2000
  185.0490  178.6770  145.8500 C   0  0  0  0  0  0  0  0  0  0  0  0
  182.5020  178.6840  141.3560 C   0  0  0  0  0  0  0  0  0  0  0  0
  184.3630  178.3850  139.1190 C   0  0  0  0  0  0  0  0  0  0  0  0
  183.3750  178.8270  144.0800 C   0  0  0  0  0  0  0  0  0  0  0  0
  186.0330  178.2150  144.8670 C   0  0  0  0  0  3  0  0  0  0  0  0
  185.3850  178.8230  147.1220 C   0  0  0  0  0  1  0  0  0  0  0  0
  184.2830  178.4330  143.1570 C   0  0  0  0  0  0  0  0  0  0  0  0
  183.7460  178.9610  145.4270 O   0  0  0  0  0  0  0  0  0  0  0  0
  185.6600  178.0970  143.5920 C   0  0  0  0  0  3  0  0  0  0  0  0
  185.0910  179.1040  140.6050 S   0  0  0  0  0  0  0  0  0  0  0  0
  183.9140  178.2430  141.7020 C   0  0  2  0  0  3  0  0  0  0  0  0
  181.5730  179.0580  142.4410 C   0  0  0  0  0  3  0  0  0  0  0  0
  182.0970  178.6860  140.0690 C   0  0  1  0  0  3  0  0  0  0  0  0
  183.0350  178.3350  138.9810 C   0  0  0  0  0  3  0  0  0  0  0  0
  181.9830  179.1220  143.7040 C   0  0  0  0  0  3  0  0  0  0  0  0
  185.2290  177.8620  138.0500 C   0  0  0  0  0  0  0  0  0  0  0  0
  186.5370  178.4070  137.8610 N   0  0  0  0  0  2  0  0  0  0  0  0
  184.8140  176.9350  137.3020 O   0  0  0  0  0  0  0  0  0  0  0  0
  187.4560  177.9420  136.8330 C   0  0  1  0  0  3  0  0  0  0  0  0
  188.2920  178.9750  136.4550 F   0  0  0  0  0  0  0  0  0  0  0  0
  188.2980  176.8060  137.3880 C   0  0  0  0  0  2  0  0  0  0  0  0
  189.4950  177.3350  138.0280 N   0  0  0  0  0  0  0  0  0  0  0  0
  190.8140  176.2860  139.6600 O   0  0  0  0  0  0  0  0  0  0  0  0
  190.6260  176.7290  137.3650 C   0  0  0  0  0  2  0  0  0  0  0  0
  189.5330  176.7910  139.3780 C   0  0  1  0  0  3  0  0  0  0  0  0
  191.3520  175.9350  138.4190 C   0  0  0  0  0  2  0  0  0  0  0  0
  189.1590  177.8520  140.3690 C   0  0  0  0  0  0  0  0  0  0  0  0
  188.6960  178.9490  139.9530 O   0  0  0  0  0  0  0  0  0  0  0  0
  189.2860  177.6070  141.8190 C   0  0  0  0  0  0  0  0  0  0  0  0
  190.1180  178.2830  144.0030 C   0  0  0  0  0  3  0  0  0  0  0  0
  188.8220  176.2500  143.7830 C   0  0  0  0  0  3  0  0  0  0  0  0
  189.5300  177.1540  144.5800 C   0  0  0  0  0  3  0  0  0  0  0  0
  188.7000  176.4770  142.4090 C   0  0  0  0  0  3  0  0  0  0  0  0
  189.9970  178.5090  142.6280 C   0  0  0  0  0  3  0  0  0  0  0  0
  180.6800  179.0190  139.6980 C   0  0  0  0  0  2  0  0  0  0  0  0
  180.3050  180.6630  136.2980 C   0  0  0  0  0  3  0  0  0  0  0  0
  180.6050  181.9980  136.5980 C   0  0  0  0  0  0  0  0  0  0  0  0
  180.9330  181.3870  138.9280 C   0  0  0  0  0  3  0  0  0  0  0  0
  180.3180  179.6930  137.3060 C   0  0  0  0  0  3  0  0  0  0  0  0
  180.6280  180.0550  138.6220 C   0  0  0  0  0  0  0  0  0  0  0  0
  180.9200  182.3550  137.9210 C   0  0  0  0  0  3  0  0  0  0  0  0
  180.9750  184.2990  135.7670 C   0  0  0  0  0  1  0  0  0  0  0  0
  180.5850  182.9450  135.5700 O   0  0  0  0  0  0  0  0  0  0  0  0
  1  6  1  0  0  0  0
  2 11  1  0  0  0  0
  2 12  2  0  0  0  0
  3 10  1  0  0  0  0
  4  8  1  0  0  0  0
  5  1  2  0  0  0  0
  7  9  2  0  0  0  0
  7  4  1  0  0  0  0
  8  1  1  0  0  0  0
  9  5  1  0  0  0  0
 11 10  1  6  0  0  0
 11  7  1  0  0  0  0
 12 15  1  0  0  0  0
 13 35  1  1  0  0  0
 13  2  1  0  0  0  0
 14  3  2  0  0  0  0
 14 13  1  0  0  0  0
 15  4  2  0  0  0  0
 16  3  1  0  0  0  0
 17 16  1  0  0  0  0
 18 16  2  0  0  0  0
 19 20  1  1  0  0  0
 19 21  1  0  0  0  0
 19 17  1  0  0  0  0
 21 22  1  0  0  0  0
 22 25  1  0  0  0  0
 24 22  1  0  0  0  0
 24 26  1  0  0  0  0
 25 23  1  0  0  0  0
 25 27  1  1  0  0  0
 26 23  1  0  0  0  0
 27 29  1  0  0  0  0
 28 27  2  0  0  0  0
 29 33  2  0  0  0  0
 29 34  1  0  0  0  0
 30 32  1  0  0  0  0
 31 32  2  0  0  0  0
 33 31  1  0  0  0  0
 34 30  2  0  0  0  0
 36 37  2  0  0  0  0
 36 39  1  0  0  0  0
 37 41  1  0  0  0  0
 39 40  2  0  0  0  0
 40 38  1  0  0  0  0
 40 35  1  0  0  0  0
 41 38  2  0  0  0  0
 43 42  1  0  0  0  0
 43 37  1  0  0  0  0
M  END
>  <MODEL>
1

>  <REMARK>
 VINA RESULT:      -9.9      0.000      0.000
  Name = 
  9 active torsions:
  status: ('A' for Active; 'I' for Inactive)
    1  A    between atoms: C_1  and  C_34
    2  A    between atoms: C_1  and  C_35
    3  A    between atoms: C_2  and  C_13
    4  A    between atoms: C_3  and  N_4
    5  A    between atoms: C_3  and  C_12
    6  A    between atoms: N_6  and  C_12
    7  A    between atoms: C_11  and  C_14
    8  A    between atoms: C_14  and  C_22
    9  A    between atoms: C_19  and  O_37
                            x       y       z     vdW  Elec       q    Type
                         _______ _______ _______ _____ _____    ______ ____

>  <TORSDO>
F 9

$$$$
=
 OpenBabel11052416083D

 43 48  0  0  1  0  0  0  0  0999 V2000
  187.6790  177.9810  146.9110 C   0  0  0  0  0  0  0  0  0  0  0  0
  183.8540  178.6000  143.4950 C   0  0  0  0  0  0  0  0  0  0  0  0
  184.9180  178.7290  140.7730 C   0  0  0  0  0  0  0  0  0  0  0  0
  185.5370  178.3440  145.7980 C   0  0  0  0  0  0  0  0  0  0  0  0
  188.3000  177.7180  145.6100 C   0  0  0  0  0  3  0  0  0  0  0  0
  188.3980  177.9370  148.0210 C   0  0  0  0  0  1  0  0  0  0  0  0
  186.1060  178.1360  144.5870 C   0  0  0  0  0  0  0  0  0  0  0  0
  186.3130  178.2780  146.9650 O   0  0  0  0  0  0  0  0  0  0  0  0
  187.5450  177.7890  144.5120 C   0  0  0  0  0  3  0  0  0  0  0  0
  186.0840  179.2310  142.0540 S   0  0  0  0  0  0  0  0  0  0  0  0
  185.2970  178.1630  143.3090 C   0  0  2  0  0  3  0  0  0  0  0  0
  183.3170  178.7620  144.8600 C   0  0  0  0  0  3  0  0  0  0  0  0
  183.0670  178.7890  142.4160 C   0  0  1  0  0  3  0  0  0  0  0  0
  183.6120  178.6510  141.0480 C   0  0  0  0  0  3  0  0  0  0  0  0
  184.1020  178.6420  145.9260 C   0  0  0  0  0  3  0  0  0  0  0  0
  185.3990  178.4140  139.4180 C   0  0  0  0  0  0  0  0  0  0  0  0
  186.7870  178.1500  139.1970 N   0  0  0  0  0  2  0  0  0  0  0  0
  184.5850  178.3790  138.4540 O   0  0  0  0  0  0  0  0  0  0  0  0
  187.3410  177.8250  137.8910 C   0  0  1  0  0  3  0  0  0  0  0  0
  187.8850  178.9600  137.3220 F   0  0  0  0  0  0  0  0  0  0  0  0
  188.4340  176.7840  138.0540 C   0  0  0  0  0  2  0  0  0  0  0  0
  189.6860  177.4250  138.4310 N   0  0  0  0  0  0  0  0  0  0  0  0
  191.5270  176.4330  139.4950 O   0  0  0  0  0  0  0  0  0  0  0  0
  190.6550  177.0810  137.4170 C   0  0  0  0  0  2  0  0  0  0  0  0
  190.1650  176.7540  139.6310 C   0  0  1  0  0  3  0  0  0  0  0  0
  191.7380  176.3060  138.1200 C   0  0  0  0  0  2  0  0  0  0  0  0
  189.9520  177.6310  140.8290 C   0  0  0  0  0  0  0  0  0  0  0  0
  189.2520  178.6740  140.7130 O   0  0  0  0  0  0  0  0  0  0  0  0
  190.5150  177.2620  142.1430 C   0  0  0  0  0  0  0  0  0  0  0  0
  191.6900  177.8850  144.1800 C   0  0  0  0  0  3  0  0  0  0  0  0
  190.9470  175.6020  143.8670 C   0  0  0  0  0  3  0  0  0  0  0  0
  191.5840  176.5720  144.6470 C   0  0  0  0  0  3  0  0  0  0  0  0
  190.4140  175.9460  142.6210 C   0  0  0  0  0  3  0  0  0  0  0  0
  191.1570  178.2280  142.9330 C   0  0  0  0  0  3  0  0  0  0  0  0
  181.6100  179.1220  142.5620 C   0  0  0  0  0  2  0  0  0  0  0  0
  179.8620  177.5600  139.5780 C   0  0  0  0  0  3  0  0  0  0  0  0
  179.5820  178.6870  138.7960 C   0  0  0  0  0  0  0  0  0  0  0  0
  180.6090  180.0990  140.4870 C   0  0  0  0  0  3  0  0  0  0  0  0
  180.5120  177.6980  140.8090 C   0  0  0  0  0  3  0  0  0  0  0  0
  180.8830  178.9690  141.2660 C   0  0  0  0  0  0  0  0  0  0  0  0
  179.9600  179.9600  139.2570 C   0  0  0  0  0  3  0  0  0  0  0  0
  178.9640  179.5020  136.5420 C   0  0  0  0  0  1  0  0  0  0  0  0
  178.9320  178.5170  137.5690 O   0  0  0  0  0  0  0  0  0  0  0  0
  1  8  1  0  0  0  0
  1  6  1  0  0  0  0
  2 12  2  0  0  0  0
  3 14  2  0  0  0  0
  3 10  1  0  0  0  0
  4 15  2  0  0  0  0
  4  8  1  0  0  0  0
  5  1  2  0  0  0  0
  7  4  1  0  0  0  0
  9  7  2  0  0  0  0
  9  5  1  0  0  0  0
 11 10  1  6  0  0  0
 11  2  1  0  0  0  0
 11  7  1  0  0  0  0
 12 15  1  0  0  0  0
 13 35  1  1  0  0  0
 13  2  1  0  0  0  0
 14 13  1  0  0  0  0
 16  3  1  0  0  0  0
 17 16  1  0  0  0  0
 18 16  2  0  0  0  0
 19 20  1  1  0  0  0
 19 21  1  0  0  0  0
 19 17  1  0  0  0  0
 21 22  1  0  0  0  0
 22 25  1  0  0  0  0
 23 25  1  0  0  0  0
 24 26  1  0  0  0  0
 24 22  1  0  0  0  0
 25 27  1  1  0  0  0
 26 23  1  0  0  0  0
 27 29  1  0  0  0  0
 28 27  2  0  0  0  0
 29 33  2  0  0  0  0
 29 34  1  0  0  0  0
 30 32  1  0  0  0  0
 31 32  2  0  0  0  0
 33 31  1  0  0  0  0
 34 30  2  0  0  0  0
 36 39  1  0  0  0  0
 37 41  1  0  0  0  0
 37 36  2  0  0  0  0
 38 40  1  0  0  0  0
 39 40  2  0  0  0  0
 40 35  1  0  0  0  0
 41 38  2  0  0  0  0
 42 43  1  0  0  0  0
 43 37  1  0  0  0  0
M  END
>  <MODEL>
2

>  <REMARK>
 VINA RESULT:      -9.3      1.805      2.503
  Name = 
  9 active torsions:
  status: ('A' for Active; 'I' for Inactive)
    1  A    between atoms: C_1  and  C_34
    2  A    between atoms: C_1  and  C_35
    3  A    between atoms: C_2  and  C_13
    4  A    between atoms: C_3  and  N_4
    5  A    between atoms: C_3  and  C_12
    6  A    between atoms: N_6  and  C_12
    7  A    between atoms: C_11  and  C_14
    8  A    between atoms: C_14  and  C_22
    9  A    between atoms: C_19  and  O_37
                            x       y       z     vdW  Elec       q    Type
                         _______ _______ _______ _____ _____    ______ ____

>  <TORSDO>
F 9

$$$$
=
 OpenBabel11052416083D

 43 48  0  0  1  0  0  0  0  0999 V2000
  185.3190  178.6540  146.0880 C   0  0  0  0  0  0  0  0  0  0  0  0
  182.7730  178.5240  141.5960 C   0  0  0  0  0  0  0  0  0  0  0  0
  184.6490  178.4910  139.3520 C   0  0  0  0  0  0  0  0  0  0  0  0
  183.6340  178.6780  144.3230 C   0  0  0  0  0  0  0  0  0  0  0  0
  186.3440  178.3280  145.0920 C   0  0  0  0  0  3  0  0  0  0  0  0
  185.6410  178.7960  147.3640 C   0  0  0  0  0  1  0  0  0  0  0  0
  184.5760  178.4100  143.3890 C   0  0  0  0  0  0  0  0  0  0  0  0
  183.9920  178.8100  145.6730 O   0  0  0  0  0  0  0  0  0  0  0  0
  185.9820  178.2090  143.8140 C   0  0  0  0  0  3  0  0  0  0  0  0
  185.3010  179.2380  140.8580 S   0  0  0  0  0  0  0  0  0  0  0  0
  184.2250  178.2250  141.9290 C   0  0  2  0  0  3  0  0  0  0  0  0
  181.8130  178.7650  142.6910 C   0  0  0  0  0  3  0  0  0  0  0  0
  182.3660  178.5210  140.3090 C   0  0  1  0  0  3  0  0  0  0  0  0
  183.3330  178.3050  139.2110 C   0  0  0  0  0  3  0  0  0  0  0  0
  182.2180  178.8350  143.9560 C   0  0  0  0  0  3  0  0  0  0  0  0
  185.5620  178.0940  138.2680 C   0  0  0  0  0  0  0  0  0  0  0  0
  186.9620  178.3620  138.3810 N   0  0  0  0  0  2  0  0  0  0  0  0
  185.1070  177.5210  137.2400 O   0  0  0  0  0  0  0  0  0  0  0  0
  187.9320  177.9960  137.3590 C   0  0  1  0  0  3  0  0  0  0  0  0
  189.0830  178.7410  137.5240 F   0  0  0  0  0  0  0  0  0  0  0  0
  188.2750  176.5230  137.4960 C   0  0  0  0  0  2  0  0  0  0  0  0
  189.6800  176.3040  137.1820 N   0  0  0  0  0  0  0  0  0  0  0  0
  191.0600  174.5780  137.9710 O   0  0  0  0  0  0  0  0  0  0  0  0
  189.7270  175.2730  136.1710 C   0  0  0  0  0  2  0  0  0  0  0  0
  190.2890  175.6890  138.3530 C   0  0  1  0  0  3  0  0  0  0  0  0
  190.4840  174.1230  136.7820 C   0  0  0  0  0  2  0  0  0  0  0  0
  191.1390  176.6920  139.0750 C   0  0  0  0  0  0  0  0  0  0  0  0
  192.1890  177.1210  138.5240 O   0  0  0  0  0  0  0  0  0  0  0  0
  190.7340  177.2100  140.3970 C   0  0  0  0  0  0  0  0  0  0  0  0
  189.0080  178.0590  141.8860 C   0  0  0  0  0  3  0  0  0  0  0  0
  191.2840  177.8380  142.6810 C   0  0  0  0  0  3  0  0  0  0  0  0
  189.9510  178.1920  142.9080 C   0  0  0  0  0  3  0  0  0  0  0  0
  191.6730  177.3490  141.4300 C   0  0  0  0  0  3  0  0  0  0  0  0
  189.3970  177.5700  140.6350 C   0  0  0  0  0  3  0  0  0  0  0  0
  180.9210  178.7130  139.9480 C   0  0  0  0  0  2  0  0  0  0  0  0
  179.8540  175.1500  139.1960 C   0  0  0  0  0  3  0  0  0  0  0  0
  179.4090  175.2640  137.8730 C   0  0  0  0  0  0  0  0  0  0  0  0
  179.9330  177.6370  137.9160 C   0  0  0  0  0  3  0  0  0  0  0  0
  180.3370  176.2710  139.8790 C   0  0  0  0  0  3  0  0  0  0  0  0
  180.3730  177.5170  139.2400 C   0  0  0  0  0  0  0  0  0  0  0  0
  179.4510  176.5160  137.2360 C   0  0  0  0  0  3  0  0  0  0  0  0
  179.4140  172.8170  137.5040 C   0  0  0  0  0  1  0  0  0  0  0  0
  178.9320  174.1250  137.2170 O   0  0  0  0  0  0  0  0  0  0  0  0
  1  6  1  0  0  0  0
  2 11  1  0  0  0  0
  2 12  2  0  0  0  0
  3 10  1  0  0  0  0
  4  8  1  0  0  0  0
  5  1  2  0  0  0  0
  7  9  2  0  0  0  0
  7  4  1  0  0  0  0
  8  1  1  0  0  0  0
  9  5  1  0  0  0  0
 11 10  1  6  0  0  0
 11  7  1  0  0  0  0
 12 15  1  0  0  0  0
 13 35  1  1  0  0  0
 13  2  1  0  0  0  0
 14  3  2  0  0  0  0
 14 13  1  0  0  0  0
 15  4  2  0  0  0  0
 16 17  1  0  0  0  0
 16  3  1  0  0  0  0
 18 16  2  0  0  0  0
 19 21  1  0  0  0  0
 19 20  1  1  0  0  0
 19 17  1  0  0  0  0
 22 21  1  0  0  0  0
 22 25  1  0  0  0  0
 23 25  1  0  0  0  0
 24 26  1  0  0  0  0
 24 22  1  0  0  0  0
 25 27  1  6  0  0  0
 26 23  1  0  0  0  0
 27 29  1  0  0  0  0
 28 27  2  0  0  0  0
 29 34  2  0  0  0  0
 29 33  1  0  0  0  0
 30 32  2  0  0  0  0
 31 32  1  0  0  0  0
 33 31  2  0  0  0  0
 34 30  1  0  0  0  0
 36 39  1  0  0  0  0
 37 36  2  0  0  0  0
 38 40  1  0  0  0  0
 40 39  2  0  0  0  0
 40 35  1  0  0  0  0
 41 37  1  0  0  0  0
 41 38  2  0  0  0  0
 43 42  1  0  0  0  0
 43 37  1  0  0  0  0
M  END
>  <MODEL>
3

>  <REMARK>
 VINA RESULT:      -8.9      2.251      3.333
  Name = 
  9 active torsions:
  status: ('A' for Active; 'I' for Inactive)
    1  A    between atoms: C_1  and  C_34
    2  A    between atoms: C_1  and  C_35
    3  A    between atoms: C_2  and  C_13
    4  A    between atoms: C_3  and  N_4
    5  A    between atoms: C_3  and  C_12
    6  A    between atoms: N_6  and  C_12
    7  A    between atoms: C_11  and  C_14
    8  A    between atoms: C_14  and  C_22
    9  A    between atoms: C_19  and  O_37
                            x       y       z     vdW  Elec       q    Type
                         _______ _______ _______ _____ _____    ______ ____

>  <TORSDO>
F 9

$$$$
=
 OpenBabel11052416083D

 43 48  0  0  1  0  0  0  0  0999 V2000
  191.7660  176.0760  147.2710 C   0  0  0  0  0  0  0  0  0  0  0  0
  187.4470  177.7260  144.9680 C   0  0  0  0  0  0  0  0  0  0  0  0
  187.9300  178.2480  142.1300 C   0  0  0  0  0  0  0  0  0  0  0  0
  189.5160  176.8670  146.7510 C   0  0  0  0  0  0  0  0  0  0  0  0
  192.0590  175.9970  145.8370 C   0  0  0  0  0  3  0  0  0  0  0  0
  192.6860  175.7490  148.1640 C   0  0  0  0  0  1  0  0  0  0  0  0
  189.7850  176.8290  145.4250 C   0  0  0  0  0  0  0  0  0  0  0  0
  190.5000  176.5020  147.6840 O   0  0  0  0  0  0  0  0  0  0  0  0
  191.1110  176.3510  144.9670 C   0  0  0  0  0  3  0  0  0  0  0  0
  189.3970  178.3750  143.1720 S   0  0  0  0  0  0  0  0  0  0  0  0
  188.7410  177.1810  144.3880 C   0  0  2  0  0  3  0  0  0  0  0  0
  187.2340  177.6870  146.4280 C   0  0  0  0  0  3  0  0  0  0  0  0
  186.4890  178.1960  144.1420 C   0  0  1  0  0  3  0  0  0  0  0  0
  186.7130  178.2590  142.6820 C   0  0  0  0  0  3  0  0  0  0  0  0
  188.1980  177.2860  147.2520 C   0  0  0  0  0  3  0  0  0  0  0  0
  188.0680  178.1430  140.6690 C   0  0  0  0  0  0  0  0  0  0  0  0
  189.2660  177.6040  140.1030 N   0  0  0  0  0  2  0  0  0  0  0  0
  187.1300  178.5290  139.9180 O   0  0  0  0  0  0  0  0  0  0  0  0
  189.4780  177.4590  138.6700 C   0  0  1  0  0  3  0  0  0  0  0  0
  189.4870  178.7060  138.0740 F   0  0  0  0  0  0  0  0  0  0  0  0
  190.8180  176.7880  138.4250 C   0  0  0  0  0  2  0  0  0  0  0  0
  190.7540  175.9600  137.2290 N   0  0  0  0  0  0  0  0  0  0  0  0
  190.8480  173.6180  137.1150 O   0  0  0  0  0  0  0  0  0  0  0  0
  189.4000  175.4630  137.1350 C   0  0  0  0  0  2  0  0  0  0  0  0
  191.5580  174.7730  137.4880 C   0  0  1  0  0  3  0  0  0  0  0  0
  189.4990  173.9640  137.2290 C   0  0  0  0  0  2  0  0  0  0  0  0
  192.8520  174.8570  136.7360 C   0  0  0  0  0  0  0  0  0  0  0  0
  192.9420  175.6350  135.7460 O   0  0  0  0  0  0  0  0  0  0  0  0
  194.0270  174.0770  137.1700 C   0  0  0  0  0  0  0  0  0  0  0  0
  195.5530  172.2100  136.8420 C   0  0  0  0  0  3  0  0  0  0  0  0
  195.8640  173.7050  138.7210 C   0  0  0  0  0  3  0  0  0  0  0  0
  196.2650  172.5870  137.9830 C   0  0  0  0  0  3  0  0  0  0  0  0
  194.7500  174.4460  138.3150 C   0  0  0  0  0  3  0  0  0  0  0  0
  194.4380  172.9520  136.4360 C   0  0  0  0  0  3  0  0  0  0  0  0
  185.1580  178.6500  144.6710 C   0  0  0  0  0  2  0  0  0  0  0  0
  183.4580  178.2370  141.3030 C   0  0  0  0  0  3  0  0  0  0  0  0
  182.1460  178.6250  141.6030 C   0  0  0  0  0  0  0  0  0  0  0  0
  182.8010  179.0070  143.9120 C   0  0  0  0  0  3  0  0  0  0  0  0
  184.4390  178.2330  142.3010 C   0  0  0  0  0  3  0  0  0  0  0  0
  184.1090  178.6150  143.6070 C   0  0  0  0  0  0  0  0  0  0  0  0
  181.8220  179.0110  142.9150 C   0  0  0  0  0  3  0  0  0  0  0  0
  180.5770  179.8090  140.0990 C   0  0  0  0  0  1  0  0  0  0  0  0
  181.1880  178.6180  140.5850 O   0  0  0  0  0  0  0  0  0  0  0  0
  1  8  1  0  0  0  0
  1  6  1  0  0  0  0
  2 12  2  0  0  0  0
  3 14  2  0  0  0  0
  3 10  1  0  0  0  0
  4 15  2  0  0  0  0
  4  8  1  0  0  0  0
  5  1  2  0  0  0  0
  7  4  1  0  0  0  0
  9  7  2  0  0  0  0
  9  5  1  0  0  0  0
 11 10  1  6  0  0  0
 11  2  1  0  0  0  0
 11  7  1  0  0  0  0
 12 15  1  0  0  0  0
 13 35  1  6  0  0  0
 13  2  1  0  0  0  0
 14 13  1  0  0  0  0
 16  3  1  0  0  0  0
 17 16  1  0  0  0  0
 18 16  2  0  0  0  0
 19 20  1  6  0  0  0
 19 17  1  0  0  0  0
 21 19  1  0  0  0  0
 22 25  1  0  0  0  0
 22 21  1  0  0  0  0
 23 26  1  0  0  0  0
 23 25  1  0  0  0  0
 24 22  1  0  0  0  0
 24 26  1  0  0  0  0
 25 27  1  6  0  0  0
 27 29  1  0  0  0  0
 28 27  2  0  0  0  0
 29 33  1  0  0  0  0
 30 32  2  0  0  0  0
 32 31  1  0  0  0  0
 33 31  2  0  0  0  0
 34 30  1  0  0  0  0
 34 29  2  0  0  0  0
 36 37  2  0  0  0  0
 36 39  1  0  0  0  0
 37 41  1  0  0  0  0
 39 40  2  0  0  0  0
 40 38  1  0  0  0  0
 40 35  1  0  0  0  0
 41 38  2  0  0  0  0
 42 43  1  0  0  0  0
 43 37  1  0  0  0  0
M  END
>  <MODEL>
4

>  <REMARK>
 VINA RESULT:      -8.8      3.075      6.257
  Name = 
  9 active torsions:
  status: ('A' for Active; 'I' for Inactive)
    1  A    between atoms: C_1  and  C_34
    2  A    between atoms: C_1  and  C_35
    3  A    between atoms: C_2  and  C_13
    4  A    between atoms: C_3  and  N_4
    5  A    between atoms: C_3  and  C_12
    6  A    between atoms: N_6  and  C_12
    7  A    between atoms: C_11  and  C_14
    8  A    between atoms: C_14  and  C_22
    9  A    between atoms: C_19  and  O_37
                            x       y       z     vdW  Elec       q    Type
                         _______ _______ _______ _____ _____    ______ ____

>  <TORSDO>
F 9

$$$$
=
 OpenBabel11052416083D

 43 48  0  0  1  0  0  0  0  0999 V2000
  191.4890  176.3070  146.9670 C   0  0  0  0  0  0  0  0  0  0  0  0
  187.1330  177.8730  144.6750 C   0  0  0  0  0  0  0  0  0  0  0  0
  187.5890  178.3660  141.8280 C   0  0  0  0  0  0  0  0  0  0  0  0
  189.2260  177.0620  146.4540 C   0  0  0  0  0  0  0  0  0  0  0  0
  191.7730  176.2130  145.5320 C   0  0  0  0  0  3  0  0  0  0  0  0
  192.4190  176.0030  147.8580 C   0  0  0  0  0  1  0  0  0  0  0  0
  189.4850  177.0120  145.1270 C   0  0  0  0  0  0  0  0  0  0  0  0
  190.2200  176.7210  147.3840 O   0  0  0  0  0  0  0  0  0  0  0  0
  190.8140  176.5450  144.6650 C   0  0  0  0  0  3  0  0  0  0  0  0
  189.0610  178.5240  142.8580 S   0  0  0  0  0  0  0  0  0  0  0  0
  188.4300  177.3380  144.0930 C   0  0  2  0  0  3  0  0  0  0  0  0
  186.9310  177.8490  146.1370 C   0  0  0  0  0  3  0  0  0  0  0  0
  186.1630  178.3210  143.8510 C   0  0  1  0  0  3  0  0  0  0  0  0
  186.3760  178.3680  142.3890 C   0  0  0  0  0  3  0  0  0  0  0  0
  187.9050  177.4710  146.9590 C   0  0  0  0  0  3  0  0  0  0  0  0
  187.7180  178.2440  140.3670 C   0  0  0  0  0  0  0  0  0  0  0  0
  188.9100  177.6930  139.8000 N   0  0  0  0  0  2  0  0  0  0  0  0
  186.7780  178.6280  139.6180 O   0  0  0  0  0  0  0  0  0  0  0  0
  189.1130  177.5330  138.3670 C   0  0  1  0  0  3  0  0  0  0  0  0
  189.4750  178.7440  137.8110 F   0  0  0  0  0  0  0  0  0  0  0  0
  190.2270  176.5290  138.1270 C   0  0  0  0  0  2  0  0  0  0  0  0
  189.9680  175.7730  136.9100 N   0  0  0  0  0  0  0  0  0  0  0  0
  188.5380  176.3650  135.1470 O   0  0  0  0  0  0  0  0  0  0  0  0
  190.7700  176.3720  135.8670 C   0  0  0  0  0  2  0  0  0  0  0  0
  188.5950  176.0540  136.5160 C   0  0  1  0  0  3  0  0  0  0  0  0
  189.7990  176.8810  134.8350 C   0  0  0  0  0  2  0  0  0  0  0  0
  187.7220  174.8730  136.8210 C   0  0  0  0  0  0  0  0  0  0  0  0
  188.2380  173.7230  136.8790 O   0  0  0  0  0  0  0  0  0  0  0  0
  186.2830  175.0510  137.0960 C   0  0  0  0  0  0  0  0  0  0  0  0
  184.3770  176.5150  137.4760 C   0  0  0  0  0  3  0  0  0  0  0  0
  184.0740  174.1140  137.4950 C   0  0  0  0  0  3  0  0  0  0  0  0
  183.5450  175.4020  137.6130 C   0  0  0  0  0  3  0  0  0  0  0  0
  185.4370  173.9400  137.2360 C   0  0  0  0  0  3  0  0  0  0  0  0
  185.7410  176.3410  137.2180 C   0  0  0  0  0  3  0  0  0  0  0  0
  184.8300  178.7630  144.3840 C   0  0  0  0  0  2  0  0  0  0  0  0
  183.0930  178.2030  141.0570 C   0  0  0  0  0  3  0  0  0  0  0  0
  181.7750  178.5640  141.3650 C   0  0  0  0  0  0  0  0  0  0  0  0
  182.4530  179.0340  143.6520 C   0  0  0  0  0  3  0  0  0  0  0  0
  184.0880  178.2560  142.0390 C   0  0  0  0  0  3  0  0  0  0  0  0
  183.7670  178.6690  143.3380 C   0  0  0  0  0  0  0  0  0  0  0  0
  181.4590  178.9810  142.6700 C   0  0  0  0  0  3  0  0  0  0  0  0
  180.9830  177.7530  139.1650 C   0  0  0  0  0  1  0  0  0  0  0  0
  180.8020  178.5010  140.3630 O   0  0  0  0  0  0  0  0  0  0  0  0
  1  8  1  0  0  0  0
  1  6  1  0  0  0  0
  2 12  2  0  0  0  0
  3 14  2  0  0  0  0
  3 10  1  0  0  0  0
  4 15  2  0  0  0  0
  4  8  1  0  0  0  0
  5  1  2  0  0  0  0
  7  4  1  0  0  0  0
  9  7  2  0  0  0  0
  9  5  1  0  0  0  0
 11 10  1  6  0  0  0
 11  2  1  0  0  0  0
 11  7  1  0  0  0  0
 12 15  1  0  0  0  0
 13 35  1  6  0  0  0
 13  2  1  0  0  0  0
 14 13  1  0  0  0  0
 16  3  1  0  0  0  0
 17 16  1  0  0  0  0
 18 16  2  0  0  0  0
 19 20  1  1  0  0  0
 19 17  1  0  0  0  0
 21 19  1  0  0  0  0
 22 21  1  0  0  0  0
 23 25  1  0  0  0  0
 24 22  1  0  0  0  0
 25 27  1  6  0  0  0
 25 22  1  0  0  0  0
 26 23  1  0  0  0  0
 26 24  1  0  0  0  0
 27 28  2  0  0  0  0
 27 29  1  0  0  0  0
 29 34  2  0  0  0  0
 29 33  1  0  0  0  0
 30 32  2  0  0  0  0
 31 32  1  0  0  0  0
 33 31  2  0  0  0  0
 34 30  1  0  0  0  0
 36 37  2  0  0  0  0
 36 39  1  0  0  0  0
 37 41  1  0  0  0  0
 39 40  2  0  0  0  0
 40 38  1  0  0  0  0
 40 35  1  0  0  0  0
 41 38  2  0  0  0  0
 42 43  1  0  0  0  0
 43 37  1  0  0  0  0
M  END
>  <MODEL>
5

>  <REMARK>
 VINA RESULT:      -8.7      2.874      5.752
  Name = 
  9 active torsions:
  status: ('A' for Active; 'I' for Inactive)
    1  A    between atoms: C_1  and  C_34
    2  A    between atoms: C_1  and  C_35
    3  A    between atoms: C_2  and  C_13
    4  A    between atoms: C_3  and  N_4
    5  A    between atoms: C_3  and  C_12
    6  A    between atoms: N_6  and  C_12
    7  A    between atoms: C_11  and  C_14
    8  A    between atoms: C_14  and  C_22
    9  A    between atoms: C_19  and  O_37
                            x       y       z     vdW  Elec       q    Type
                         _______ _______ _______ _____ _____    ______ ____

>  <TORSDO>
F 9

$$$$
=
 OpenBabel11052416083D

 43 48  0  0  1  0  0  0  0  0999 V2000
  191.0340  176.7880  146.5940 C   0  0  0  0  0  0  0  0  0  0  0  0
  189.9350  177.6080  141.6140 C   0  0  0  0  0  0  0  0  0  0  0  0
  187.1070  178.2760  141.2820 C   0  0  0  0  0  0  0  0  0  0  0  0
  191.0810  176.9740  144.1610 C   0  0  0  0  0  0  0  0  0  0  0  0
  189.7040  177.4050  146.6060 C   0  0  0  0  0  3  0  0  0  0  0  0
  191.6130  176.4150  147.7240 C   0  0  0  0  0  1  0  0  0  0  0  0
  189.8400  177.5150  144.1560 C   0  0  0  0  0  0  0  0  0  0  0  0
  191.6850  176.5990  145.3710 O   0  0  0  0  0  0  0  0  0  0  0  0
  189.1470  177.7520  145.4440 C   0  0  0  0  0  3  0  0  0  0  0  0
  187.4740  177.2980  142.7510 S   0  0  0  0  0  0  0  0  0  0  0  0
  189.1690  177.9640  142.8760 C   0  0  2  0  0  3  0  0  0  0  0  0
  191.3000  177.0580  141.7260 C   0  0  0  0  0  3  0  0  0  0  0  0
  189.3810  177.8390  140.4060 C   0  0  1  0  0  3  0  0  0  0  0  0
  188.0040  178.3660  140.2940 C   0  0  0  0  0  3  0  0  0  0  0  0
  191.8280  176.7660  142.9110 C   0  0  0  0  0  3  0  0  0  0  0  0
  185.8150  178.9710  141.1600 C   0  0  0  0  0  0  0  0  0  0  0  0
  185.0010  178.7630  140.0020 N   0  0  0  0  0  2  0  0  0  0  0  0
  185.4300  179.7490  142.0750 O   0  0  0  0  0  0  0  0  0  0  0  0
  183.7090  179.4060  139.8080 C   0  0  1  0  0  3  0  0  0  0  0  0
  183.8730  180.5640  139.0720 F   0  0  0  0  0  0  0  0  0  0  0  0
  182.7900  178.4660  139.0480 C   0  0  0  0  0  2  0  0  0  0  0  0
  181.4020  178.7240  139.4050 N   0  0  0  0  0  0  0  0  0  0  0  0
  179.5450  178.7430  137.9710 O   0  0  0  0  0  0  0  0  0  0  0  0
  180.7490  177.4390  139.5030 C   0  0  0  0  0  2  0  0  0  0  0  0
  180.7750  179.3610  138.2550 C   0  0  1  0  0  3  0  0  0  0  0  0
  179.6690  177.4380  138.4530 C   0  0  0  0  0  2  0  0  0  0  0  0
  180.5770  180.8230  138.5230 C   0  0  0  0  0  0  0  0  0  0  0  0
  180.3740  181.2110  139.7060 O   0  0  0  0  0  0  0  0  0  0  0  0
  180.6640  181.8080  137.4270 C   0  0  0  0  0  0  0  0  0  0  0  0
  180.4320  182.3590  135.0690 C   0  0  0  0  0  3  0  0  0  0  0  0
  181.1290  184.0620  136.6420 C   0  0  0  0  0  3  0  0  0  0  0  0
  180.8180  183.6750  135.3360 C   0  0  0  0  0  3  0  0  0  0  0  0
  181.0510  183.1320  137.6830 C   0  0  0  0  0  3  0  0  0  0  0  0
  180.3540  181.4290  136.1110 C   0  0  0  0  0  3  0  0  0  0  0  0
  190.1450  177.5940  139.1370 C   0  0  0  0  0  2  0  0  0  0  0  0
  187.9250  178.3360  136.1500 C   0  0  0  0  0  3  0  0  0  0  0  0
  187.4420  177.0600  135.8360 C   0  0  0  0  0  0  0  0  0  0  0  0
  188.7440  176.1310  137.6680 C   0  0  0  0  0  3  0  0  0  0  0  0
  188.8140  178.5130  137.2160 C   0  0  0  0  0  3  0  0  0  0  0  0
  189.2260  177.4090  137.9740 C   0  0  0  0  0  0  0  0  0  0  0  0
  187.8570  175.9560  136.6020 C   0  0  0  0  0  3  0  0  0  0  0  0
  185.1550  177.1340  134.8940 C   0  0  0  0  0  1  0  0  0  0  0  0
  186.5550  176.9140  134.7650 O   0  0  0  0  0  0  0  0  0  0  0  0
  1  5  2  0  0  0  0
  1  6  1  0  0  0  0
  2 12  2  0  0  0  0
  3 10  1  0  0  0  0
  4  8  1  0  0  0  0
  7  4  1  0  0  0  0
  7  9  2  0  0  0  0
  8  1  1  0  0  0  0
  9  5  1  0  0  0  0
 10 11  1  0  0  0  0
 11  2  1  6  0  0  0
 11  7  1  0  0  0  0
 12 15  1  0  0  0  0
 13 35  1  1  0  0  0
 13  2  1  0  0  0  0
 14 13  1  0  0  0  0
 14  3  2  0  0  0  0
 15  4  2  0  0  0  0
 16  3  1  0  0  0  0
 16 18  2  0  0  0  0
 17 16  1  0  0  0  0
 19 20  1  6  0  0  0
 19 17  1  0  0  0  0
 21 22  1  0  0  0  0
 21 19  1  0  0  0  0
 22 24  1  0  0  0  0
 23 25  1  0  0  0  0
 23 26  1  0  0  0  0
 25 27  1  1  0  0  0
 25 22  1  0  0  0  0
 26 24  1  0  0  0  0
 27 28  2  0  0  0  0
 29 33  1  0  0  0  0
 29 27  1  0  0  0  0
 30 32  2  0  0  0  0
 30 34  1  0  0  0  0
 31 33  2  0  0  0  0
 32 31  1  0  0  0  0
 34 29  2  0  0  0  0
 36 39  1  0  0  0  0
 37 36  2  0  0  0  0
 37 41  1  0  0  0  0
 38 40  1  0  0  0  0
 39 40  2  0  0  0  0
 40 35  1  0  0  0  0
 41 38  2  0  0  0  0
 43 42  1  0  0  0  0
 43 37  1  0  0  0  0
M  END
>  <MODEL>
6

>  <REMARK>
 VINA RESULT:      -8.5      2.720      8.569
  Name = 
  9 active torsions:
  status: ('A' for Active; 'I' for Inactive)
    1  A    between atoms: C_1  and  C_34
    2  A    between atoms: C_1  and  C_35
    3  A    between atoms: C_2  and  C_13
    4  A    between atoms: C_3  and  N_4
    5  A    between atoms: C_3  and  C_12
    6  A    between atoms: N_6  and  C_12
    7  A    between atoms: C_11  and  C_14
    8  A    between atoms: C_14  and  C_22
    9  A    between atoms: C_19  and  O_37
                            x       y       z     vdW  Elec       q    Type
                         _______ _______ _______ _____ _____    ______ ____

>  <TORSDO>
F 9

$$$$
=
 OpenBabel11052416083D

 43 48  0  0  1  0  0  0  0  0999 V2000
  181.2540  179.2080  142.5920 C   0  0  0  0  0  0  0  0  0  0  0  0
  185.2010  178.4200  139.3550 C   0  0  0  0  0  0  0  0  0  0  0  0
  187.7260  178.2800  140.8260 C   0  0  0  0  0  0  0  0  0  0  0  0
  182.6930  178.9250  140.6410 C   0  0  2  0  0  3  0  0  0  0  0  0
  182.3790  178.8510  143.4620 C   0  0  0  0  0  3  0  0  0  0  0  0
  180.0740  179.5080  143.1090 C   0  0  0  0  0  1  0  0  0  0  0  0
  183.7480  178.6260  141.4340 C   0  0  0  0  0  0  0  0  0  0  0  0
  181.4450  179.2250  141.2070 O   0  0  0  0  0  0  0  0  0  0  0  0
  183.5580  178.5710  142.9030 C   0  0  0  0  0  3  0  0  0  0  0  0
  186.4320  179.2280  141.6520 S   0  0  0  0  0  0  0  0  0  0  0  0
  185.1010  178.2610  140.8620 C   0  0  0  0  0  0  0  0  0  0  0  0
  183.9830  178.7090  138.5730 C   0  0  0  0  0  3  0  0  0  0  0  0
  186.3910  178.2510  138.7410 C   0  0  1  0  0  3  0  0  0  0  0  0
  187.6160  177.9880  139.5270 C   0  0  0  0  0  3  0  0  0  0  0  0
  182.8200  178.9410  139.1750 C   0  0  0  0  0  3  0  0  0  0  0  0
  188.9110  177.8350  141.5770 C   0  0  0  0  0  0  0  0  0  0  0  0
  189.4230  178.6400  142.6430 N   0  0  0  0  0  2  0  0  0  0  0  0
  189.4740  176.7470  141.2780 O   0  0  0  0  0  0  0  0  0  0  0  0
  190.5840  178.2690  143.4380 C   0  0  1  0  0  3  0  0  0  0  0  0
  191.0130  179.3590  144.1710 F   0  0  0  0  0  0  0  0  0  0  0  0
  190.2030  177.1530  144.3950 C   0  0  0  0  0  2  0  0  0  0  0  0
  190.7580  177.4120  145.7160 N   0  0  0  0  0  0  0  0  0  0  0  0
  190.7580  175.9690  147.5660 O   0  0  0  0  0  0  0  0  0  0  0  0
  192.0420  176.7530  145.7670 C   0  0  0  0  0  2  0  0  0  0  0  0
  189.9390  176.6830  146.6740 C   0  0  1  0  0  3  0  0  0  0  0  0
  191.9400  175.7240  146.8620 C   0  0  0  0  0  2  0  0  0  0  0  0
  189.0560  177.6360  147.4230 C   0  0  0  0  0  0  0  0  0  0  0  0
  189.4960  178.1950  148.4660 O   0  0  0  0  0  0  0  0  0  0  0  0
  187.7030  177.9570  146.9290 C   0  0  0  0  0  0  0  0  0  0  0  0
  186.0080  177.8130  145.1890 C   0  0  0  0  0  3  0  0  0  0  0  0
  185.5300  179.0030  147.2420 C   0  0  0  0  0  3  0  0  0  0  0  0
  185.1290  178.5560  145.9800 C   0  0  0  0  0  3  0  0  0  0  0  0
  186.8110  178.7030  147.7140 C   0  0  0  0  0  3  0  0  0  0  0  0
  187.2900  177.5140  145.6620 C   0  0  0  0  0  3  0  0  0  0  0  0
  186.5110  178.3010  137.2450 C   0  0  0  0  0  2  0  0  0  0  0  0
  188.0930  174.9890  136.2800 C   0  0  0  0  0  3  0  0  0  0  0  0
  189.3670  175.3980  135.8660 C   0  0  0  0  0  0  0  0  0  0  0  0
  188.7650  177.7060  136.3340 C   0  0  0  0  0  3  0  0  0  0  0  0
  187.1570  175.9320  136.7190 C   0  0  0  0  0  3  0  0  0  0  0  0
  187.4910  177.2920  136.7430 C   0  0  0  0  0  0  0  0  0  0  0  0
  189.6990  176.7630  135.8960 C   0  0  0  0  0  3  0  0  0  0  0  0
  190.1090  173.0430  135.6910 C   0  0  0  0  0  1  0  0  0  0  0  0
  190.2810  174.4320  135.4330 O   0  0  0  0  0  0  0  0  0  0  0  0
  1  6  1  0  0  0  0
  1  5  2  0  0  0  0
  2 11  2  0  0  0  0
  3 16  1  0  0  0  0
  3 10  1  0  0  0  0
  4 15  1  6  0  0  0
  4  8  1  0  0  0  0
  4  7  1  0  0  0  0
  7  9  2  0  0  0  0
  8  1  1  0  0  0  0
  9  5  1  0  0  0  0
 11  7  1  0  0  0  0
 11 10  1  0  0  0  0
 12 15  2  0  0  0  0
 12  2  1  0  0  0  0
 13 35  1  6  0  0  0
 13  2  1  0  0  0  0
 13 14  1  0  0  0  0
 14  3  2  0  0  0  0
 16 17  1  0  0  0  0
 17 19  1  0  0  0  0
 18 16  2  0  0  0  0
 19 20  1  1  0  0  0
 19 21  1  0  0  0  0
 21 22  1  0  0  0  0
 22 24  1  0  0  0  0
 22 25  1  0  0  0  0
 24 26  1  0  0  0  0
 25 27  1  1  0  0  0
 25 23  1  0  0  0  0
 26 23  1  0  0  0  0
 27 28  2  0  0  0  0
 29 27  1  0  0  0  0
 29 33  1  0  0  0  0
 30 34  1  0  0  0  0
 30 32  2  0  0  0  0
 31 33  2  0  0  0  0
 32 31  1  0  0  0  0
 34 29  2  0  0  0  0
 36 39  1  0  0  0  0
 37 41  1  0  0  0  0
 37 36  2  0  0  0  0
 38 40  1  0  0  0  0
 39 40  2  0  0  0  0
 40 35  1  0  0  0  0
 41 38  2  0  0  0  0
 43 42  1  0  0  0  0
 43 37  1  0  0  0  0
M  END
>  <MODEL>
7

>  <REMARK>
 VINA RESULT:      -8.5      3.080      6.916
  Name = 
  9 active torsions:
  status: ('A' for Active; 'I' for Inactive)
    1  A    between atoms: C_1  and  C_34
    2  A    between atoms: C_1  and  C_35
    3  A    between atoms: C_2  and  C_13
    4  A    between atoms: C_3  and  N_4
    5  A    between atoms: C_3  and  C_12
    6  A    between atoms: N_6  and  C_12
    7  A    between atoms: C_11  and  C_14
    8  A    between atoms: C_14  and  C_22
    9  A    between atoms: C_19  and  O_37
                            x       y       z     vdW  Elec       q    Type
                         _______ _______ _______ _____ _____    ______ ____

>  <TORSDO>
F 9

$$$$
=
 OpenBabel11052416083D

 43 48  0  0  1  0  0  0  0  0999 V2000
  193.5120  175.1100  135.6820 C   0  0  0  0  0  0  0  0  0  0  0  0
  189.1080  177.4270  137.0640 C   0  0  0  0  0  0  0  0  0  0  0  0
  188.8820  177.5510  139.9780 C   0  0  0  0  0  0  0  0  0  0  0  0
  191.3150  176.1720  135.7410 C   0  0  2  0  0  3  0  0  0  0  0  0
  193.6720  175.3820  137.1130 C   0  0  0  0  0  3  0  0  0  0  0  0
  194.4630  174.4850  135.0060 C   0  0  0  0  0  1  0  0  0  0  0  0
  191.4360  176.4000  137.0700 C   0  0  0  0  0  0  0  0  0  0  0  0
  192.3410  175.5210  135.0380 O   0  0  0  0  0  0  0  0  0  0  0  0
  192.6840  176.0000  137.7630 C   0  0  0  0  0  3  0  0  0  0  0  0
  189.9190  176.2090  139.3670 S   0  0  0  0  0  0  0  0  0  0  0  0
  190.3690  177.1290  137.8560 C   0  0  0  0  0  0  0  0  0  0  0  0
  189.0890  177.1780  135.6090 C   0  0  0  0  0  3  0  0  0  0  0  0
  188.0350  177.9570  137.6880 C   0  0  1  0  0  3  0  0  0  0  0  0
  188.0440  178.1820  139.1490 C   0  0  0  0  0  3  0  0  0  0  0  0
  190.1170  176.5960  135.0000 C   0  0  0  0  0  3  0  0  0  0  0  0
  188.9470  177.9510  141.3930 C   0  0  0  0  0  0  0  0  0  0  0  0
  189.6640  177.1430  142.3300 N   0  0  0  0  0  2  0  0  0  0  0  0
  188.3670  179.0040  141.7770 O   0  0  0  0  0  0  0  0  0  0  0  0
  189.7820  177.4710  143.7430 C   0  0  1  0  0  3  0  0  0  0  0  0
  190.0370  178.8210  143.8860 F   0  0  0  0  0  0  0  0  0  0  0  0
  188.4770  177.1400  144.4460 C   0  0  0  0  0  2  0  0  0  0  0  0
  188.3510  177.9240  145.6670 N   0  0  0  0  0  0  0  0  0  0  0  0
  187.2640  177.3000  147.6510 O   0  0  0  0  0  0  0  0  0  0  0  0
  189.3500  177.4300  146.5860 C   0  0  0  0  0  2  0  0  0  0  0  0
  187.0820  177.5580  146.2810 C   0  0  1  0  0  3  0  0  0  0  0  0
  188.5950  176.8930  147.7730 C   0  0  0  0  0  2  0  0  0  0  0  0
  186.0820  178.6580  146.0840 C   0  0  0  0  0  0  0  0  0  0  0  0
  186.0540  179.6200  146.9000 O   0  0  0  0  0  0  0  0  0  0  0  0
  185.1660  178.6450  144.9270 C   0  0  0  0  0  0  0  0  0  0  0  0
  182.9460  178.9950  143.9950 C   0  0  0  0  0  3  0  0  0  0  0  0
  184.7560  178.2700  142.5590 C   0  0  0  0  0  3  0  0  0  0  0  0
  183.4150  178.6290  142.7310 C   0  0  0  0  0  3  0  0  0  0  0  0
  185.6270  178.2790  143.6530 C   0  0  0  0  0  3  0  0  0  0  0  0
  183.8180  179.0030  145.0890 C   0  0  0  0  0  3  0  0  0  0  0  0
  186.8060  178.3570  136.9210 C   0  0  0  0  0  2  0  0  0  0  0  0
  183.6200  177.5590  138.8220 C   0  0  0  0  0  3  0  0  0  0  0  0
  183.3640  176.2490  138.4010 C   0  0  0  0  0  0  0  0  0  0  0  0
  185.3460  176.3260  136.9960 C   0  0  0  0  0  3  0  0  0  0  0  0
  184.7330  178.2530  138.3350 C   0  0  0  0  0  3  0  0  0  0  0  0
  185.5950  177.6380  137.4190 C   0  0  0  0  0  0  0  0  0  0  0  0
  184.2340  175.6340  137.4830 C   0  0  0  0  0  3  0  0  0  0  0  0
  180.9780  176.2140  139.0580 C   0  0  0  0  0  1  0  0  0  0  0  0
  182.2440  175.5810  138.9050 O   0  0  0  0  0  0  0  0  0  0  0  0
  1  5  2  0  0  0  0
  2 13  1  0  0  0  0
  2 11  2  0  0  0  0
  3 16  1  0  0  0  0
  4 15  1  6  0  0  0
  4  7  1  0  0  0  0
  5  9  1  0  0  0  0
  6  1  1  0  0  0  0
  7  9  2  0  0  0  0
  7 11  1  0  0  0  0
  8  1  1  0  0  0  0
  8  4  1  0  0  0  0
 10  3  1  0  0  0  0
 11 10  1  0  0  0  0
 12  2  1  0  0  0  0
 13 35  1  6  0  0  0
 13 14  1  0  0  0  0
 14  3  2  0  0  0  0
 15 12  2  0  0  0  0
 16 18  2  0  0  0  0
 16 17  1  0  0  0  0
 17 19  1  0  0  0  0
 19 20  1  6  0  0  0
 19 21  1  0  0  0  0
 21 22  1  0  0  0  0
 22 25  1  0  0  0  0
 22 24  1  0  0  0  0
 23 26  1  0  0  0  0
 24 26  1  0  0  0  0
 25 27  1  1  0  0  0
 25 23  1  0  0  0  0
 27 28  2  0  0  0  0
 29 34  1  0  0  0  0
 29 27  1  0  0  0  0
 30 34  2  0  0  0  0
 31 32  2  0  0  0  0
 31 33  1  0  0  0  0
 32 30  1  0  0  0  0
 33 29  2  0  0  0  0
 35 40  1  0  0  0  0
 37 36  1  0  0  0  0
 37 43  1  0  0  0  0
 38 40  2  0  0  0  0
 38 41  1  0  0  0  0
 39 36  2  0  0  0  0
 40 39  1  0  0  0  0
 41 37  2  0  0  0  0
 43 42  1  0  0  0  0
M  END
>  <MODEL>
8

>  <REMARK>
 VINA RESULT:      -8.5      3.394      8.249
  Name = 
  9 active torsions:
  status: ('A' for Active; 'I' for Inactive)
    1  A    between atoms: C_1  and  C_34
    2  A    between atoms: C_1  and  C_35
    3  A    between atoms: C_2  and  C_13
    4  A    between atoms: C_3  and  N_4
    5  A    between atoms: C_3  and  C_12
    6  A    between atoms: N_6  and  C_12
    7  A    between atoms: C_11  and  C_14
    8  A    between atoms: C_14  and  C_22
    9  A    between atoms: C_19  and  O_37
                            x       y       z     vdW  Elec       q    Type
                         _______ _______ _______ _____ _____    ______ ____

>  <TORSDO>
F 9

$$$$
=
 OpenBabel11052416083D

 43 48  0  0  1  0  0  0  0  0999 V2000
  189.6920  177.4020  138.4520 C   0  0  0  0  0  0  0  0  0  0  0  0
  184.8650  178.6840  139.7710 C   0  0  0  0  0  0  0  0  0  0  0  0
  184.6100  178.8740  142.6790 C   0  0  0  0  0  0  0  0  0  0  0  0
  187.3080  177.9240  138.4840 C   0  0  2  0  0  3  0  0  0  0  0  0
  189.7800  177.7630  139.8700 C   0  0  0  0  0  3  0  0  0  0  0  0
  190.7640  176.9880  137.7950 C   0  0  0  0  0  1  0  0  0  0  0  0
  187.3690  178.2290  139.8010 C   0  0  0  0  0  0  0  0  0  0  0  0
  188.4580  177.5020  137.8000 O   0  0  0  0  0  0  0  0  0  0  0  0
  188.6740  178.1600  140.5010 C   0  0  0  0  0  3  0  0  0  0  0  0
  185.9330  177.7860  142.1150 S   0  0  0  0  0  0  0  0  0  0  0  0
  186.1600  178.7220  140.5650 C   0  0  0  0  0  0  0  0  0  0  0  0
  184.9090  178.3790  138.3270 C   0  0  0  0  0  3  0  0  0  0  0  0
  183.6970  178.9750  140.3800 C   0  0  1  0  0  3  0  0  0  0  0  0
  183.6500  179.2570  141.8310 C   0  0  0  0  0  3  0  0  0  0  0  0
  186.0460  178.0270  137.7340 C   0  0  0  0  0  3  0  0  0  0  0  0
  184.5760  179.3360  144.0760 C   0  0  0  0  0  0  0  0  0  0  0  0
  184.9930  178.4590  145.1260 N   0  0  0  0  0  2  0  0  0  0  0  0
  184.1790  180.5030  144.3430 O   0  0  0  0  0  0  0  0  0  0  0  0
  184.9960  178.8410  146.5310 C   0  0  1  0  0  3  0  0  0  0  0  0
  184.5530  177.7820  147.3010 F   0  0  0  0  0  0  0  0  0  0  0  0
  186.4110  179.1960  146.9520 C   0  0  0  0  0  2  0  0  0  0  0  0
  187.1990  177.9850  147.1340 N   0  0  0  0  0  0  0  0  0  0  0  0
  189.5350  177.8180  147.2900 O   0  0  0  0  0  0  0  0  0  0  0  0
  187.5490  177.9190  148.5350 C   0  0  0  0  0  2  0  0  0  0  0  0
  188.4690  178.1950  146.4540 C   0  0  1  0  0  3  0  0  0  0  0  0
  189.0530  177.9790  148.5920 C   0  0  0  0  0  2  0  0  0  0  0  0
  188.5030  177.4080  145.1780 C   0  0  0  0  0  0  0  0  0  0  0  0
  187.4830  176.7530  144.8290 O   0  0  0  0  0  0  0  0  0  0  0  0
  189.6980  177.4300  144.3110 C   0  0  0  0  0  0  0  0  0  0  0  0
  191.2420  176.2780  142.8240 C   0  0  0  0  0  3  0  0  0  0  0  0
  191.5620  178.6280  143.3090 C   0  0  0  0  0  3  0  0  0  0  0  0
  191.9660  177.4610  142.6540 C   0  0  0  0  0  3  0  0  0  0  0  0
  190.4330  178.6120  144.1330 C   0  0  0  0  0  3  0  0  0  0  0  0
  190.1120  176.2620  143.6490 C   0  0  0  0  0  3  0  0  0  0  0  0
  182.4110  179.0470  139.6070 C   0  0  0  0  0  2  0  0  0  0  0  0
  179.5480  176.9650  140.9750 C   0  0  0  0  0  3  0  0  0  0  0  0
  179.9080  175.6810  140.5480 C   0  0  0  0  0  0  0  0  0  0  0  0
  181.8920  176.6020  139.4890 C   0  0  0  0  0  3  0  0  0  0  0  0
  180.3540  178.0650  140.6610 C   0  0  0  0  0  3  0  0  0  0  0  0
  181.5250  177.8840  139.9150 C   0  0  0  0  0  0  0  0  0  0  0  0
  181.0860  175.5040  139.8020 C   0  0  0  0  0  3  0  0  0  0  0  0
  179.3370  173.7520  141.9910 C   0  0  0  0  0  1  0  0  0  0  0  0
  179.0820  174.6010  140.8770 O   0  0  0  0  0  0  0  0  0  0  0  0
  1  5  2  0  0  0  0
  2 13  1  0  0  0  0
  2 11  2  0  0  0  0
  3 16  1  0  0  0  0
  4 15  1  6  0  0  0
  4  7  1  0  0  0  0
  5  9  1  0  0  0  0
  6  1  1  0  0  0  0
  7  9  2  0  0  0  0
  7 11  1  0  0  0  0
  8  1  1  0  0  0  0
  8  4  1  0  0  0  0
 10  3  1  0  0  0  0
 11 10  1  0  0  0  0
 12  2  1  0  0  0  0
 13 35  1  6  0  0  0
 13 14  1  0  0  0  0
 14  3  2  0  0  0  0
 15 12  2  0  0  0  0
 16 18  2  0  0  0  0
 16 17  1  0  0  0  0
 17 19  1  0  0  0  0
 19 21  1  0  0  0  0
 19 20  1  1  0  0  0
 21 22  1  0  0  0  0
 22 24  1  0  0  0  0
 23 26  1  0  0  0  0
 24 26  1  0  0  0  0
 25 27  1  6  0  0  0
 25 22  1  0  0  0  0
 25 23  1  0  0  0  0
 28 27  2  0  0  0  0
 29 27  1  0  0  0  0
 30 34  1  0  0  0  0
 31 33  2  0  0  0  0
 32 30  2  0  0  0  0
 32 31  1  0  0  0  0
 33 29  1  0  0  0  0
 34 29  2  0  0  0  0
 35 40  1  0  0  0  0
 37 43  1  0  0  0  0
 37 36  2  0  0  0  0
 38 41  2  0  0  0  0
 38 40  1  0  0  0  0
 39 36  1  0  0  0  0
 40 39  2  0  0  0  0
 41 37  1  0  0  0  0
 43 42  1  0  0  0  0
M  END
>  <MODEL>
9

>  <REMARK>
 VINA RESULT:      -8.3      3.633      6.865
  Name = 
  9 active torsions:
  status: ('A' for Active; 'I' for Inactive)
    1  A    between atoms: C_1  and  C_34
    2  A    between atoms: C_1  and  C_35
    3  A    between atoms: C_2  and  C_13
    4  A    between atoms: C_3  and  N_4
    5  A    between atoms: C_3  and  C_12
    6  A    between atoms: N_6  and  C_12
    7  A    between atoms: C_11  and  C_14
    8  A    between atoms: C_14  and  C_22
    9  A    between atoms: C_19  and  O_37
                            x       y       z     vdW  Elec       q    Type
                         _______ _______ _______ _____ _____    ______ ____

>  <TORSDO>
F 9

$$$$
