=
 OpenBabel11052412533D

 25 28  0  0  1  0  0  0  0  0999 V2000
  188.7430  176.1300  143.0850 C   0  0  1  0  0  3  0  0  0  0  0  0
  188.2860  176.5770  144.4850 C   0  0  2  0  0  3  0  0  0  0  0  0
  191.1690  176.2190  144.0090 C   0  0  0  0  0  2  0  0  0  0  0  0
  188.7390  177.1450  141.9870 C   0  0  0  0  0  0  0  0  0  0  0  0
  186.4270  177.4700  145.8920 C   0  0  1  0  0  3  0  0  0  0  0  0
  189.0890  178.6080  139.6520 C   0  0  0  0  0  3  0  0  0  0  0  0
  190.5580  176.4880  145.3750 C   0  0  0  0  0  2  0  0  0  0  0  0
  189.8320  176.9260  141.1930 C   0  0  0  0  0  0  0  0  0  0  0  0
  190.0420  177.6430  140.0160 C   0  0  0  0  0  3  0  0  0  0  0  0
  188.8840  177.8910  146.5100 N   0  0  0  0  0  0  0  0  0  0  0  0
  189.8470  178.5600  147.3750 C   0  0  0  0  0  1  0  0  0  0  0  0
  186.9480  177.2930  144.4720 C   0  0  0  0  0  2  0  0  0  0  0  0
  187.9490  178.8220  140.4530 C   0  0  0  0  0  3  0  0  0  0  0  0
  190.1970  175.5640  143.0130 C   0  0  2  0  0  3  0  0  0  0  0  0
  190.6460  175.9350  141.7100 O   0  0  0  0  0  0  0  0  0  0  0  0
  187.4840  177.9870  146.8380 C   0  0  0  0  0  0  0  0  0  0  0  0
  187.7580  178.0740  141.6260 C   0  0  0  0  0  3  0  0  0  0  0  0
  187.1320  178.4450  147.9600 O   0  0  0  0  0  0  0  0  0  0  0  0
  189.3500  177.3970  145.2070 C   0  0  2  0  0  3  0  0  0  0  0  0
  185.1550  178.3230  145.9080 C   0  0  0  0  0  2  0  0  0  0  0  0
  184.8650  178.9800  144.5630 C   0  0  0  0  0  2  0  0  0  0  0  0
  183.0720  179.0430  144.2640 S   0  0  0  0  0  0  0  0  0  0  0  0
  183.2680  178.5930  142.5470 C   0  0  0  0  0  0  0  0  0  0  0  0
  182.2320  178.8140  141.6500 O   0  0  0  0  0  0  0  0  0  0  0  0
  184.3430  178.0700  142.1530 O   0  0  0  0  0  1  0  0  0  0  0  0
  1  4  1  6  0  0  0
  1  2  1  0  0  0  0
  2 12  1  6  0  0  0
  2 19  1  0  0  0  0
  3  7  1  0  0  0  0
  5 20  1  6  0  0  0
  5 16  1  0  0  0  0
  6  9  2  0  0  0  0
  6 13  1  0  0  0  0
  8 15  1  0  0  0  0
  8  4  2  0  0  0  0
  9  8  1  0  0  0  0
 10 16  1  0  0  0  0
 10 11  1  0  0  0  0
 12  5  1  0  0  0  0
 13 17  2  0  0  0  0
 14  1  1  0  0  0  0
 14  3  1  1  0  0  0
 15 14  1  0  0  0  0
 16 18  2  0  0  0  0
 17  4  1  0  0  0  0
 19  7  1  1  0  0  0
 19 10  1  0  0  0  0
 21 20  1  0  0  0  0
 22 21  1  0  0  0  0
 23 22  1  0  0  0  0
 24 23  2  0  0  0  0
 25 23  1  0  0  0  0
M  END
>  <MODEL>
1

>  <REMARK>
 VINA RESULT:      -7.6      0.000      0.000
  Name = 
  4 active torsions:
  status: ('A' for Active; 'I' for Inactive)
    1  A    between atoms: C_2  and  S_21
    2  A    between atoms: C_6  and  C_15
    3  A    between atoms: C_15  and  C_25
    4  A    between atoms: S_21  and  C_25
                            x       y       z     vdW  Elec       q    Type
                         _______ _______ _______ _____ _____    ______ ____

>  <TORSDO>
F 4

$$$$
=
 OpenBabel11052412533D

 25 28  0  0  1  0  0  0  0  0999 V2000
  188.8280  176.7140  145.5740 C   0  0  1  0  0  3  0  0  0  0  0  0
  187.3940  177.2510  145.7410 C   0  0  2  0  0  3  0  0  0  0  0  0
  189.3150  177.7040  147.9260 C   0  0  0  0  0  2  0  0  0  0  0  0
  189.7560  177.4600  144.6710 C   0  0  0  0  0  0  0  0  0  0  0  0
  185.2180  177.7790  144.6380 C   0  0  1  0  0  3  0  0  0  0  0  0
  191.9230  178.5050  143.2810 C   0  0  0  0  0  3  0  0  0  0  0  0
  187.8310  178.0210  148.0170 C   0  0  0  0  0  2  0  0  0  0  0  0
  191.0070  177.4410  145.2270 C   0  0  0  0  0  0  0  0  0  0  0  0
  192.1170  177.9590  144.5610 C   0  0  0  0  0  3  0  0  0  0  0  0
  185.9810  179.0330  146.7460 N   0  0  0  0  0  0  0  0  0  0  0  0
  185.7480  180.1100  147.6990 C   0  0  0  0  0  1  0  0  0  0  0  0
  186.7010  177.5110  144.4170 C   0  0  0  0  0  2  0  0  0  0  0  0
  190.6420  178.5060  142.6930 C   0  0  0  0  0  3  0  0  0  0  0  0
  189.6540  176.6130  146.8960 C   0  0  2  0  0  3  0  0  0  0  0  0
  190.9980  176.8580  146.4800 O   0  0  0  0  0  0  0  0  0  0  0  0
  184.9670  178.7570  145.7600 C   0  0  0  0  0  0  0  0  0  0  0  0
  189.5450  177.9640  143.3840 C   0  0  0  0  0  3  0  0  0  0  0  0
  183.8250  179.2840  145.8690 O   0  0  0  0  0  0  0  0  0  0  0  0
  187.3370  178.4720  146.6510 C   0  0  2  0  0  3  0  0  0  0  0  0
  184.5340  178.1930  143.3320 C   0  0  0  0  0  2  0  0  0  0  0  0
  185.2320  179.3590  142.6410 C   0  0  0  0  0  2  0  0  0  0  0  0
  186.1250  178.7770  141.1680 S   0  0  0  0  0  0  0  0  0  0  0  0
  184.6820  178.9590  140.1310 C   0  0  0  0  0  0  0  0  0  0  0  0
  184.4840  180.1340  139.4190 O   0  0  0  0  0  0  0  0  0  0  0  0
  183.8430  178.0250  140.0520 O   0  0  0  0  0  1  0  0  0  0  0  0
  1  4  1  6  0  0  0
  1  2  1  0  0  0  0
  1 14  1  0  0  0  0
  2 12  1  6  0  0  0
  2 19  1  0  0  0  0
  3  7  1  0  0  0  0
  4  8  1  0  0  0  0
  5 20  1  6  0  0  0
  5 16  1  0  0  0  0
  6  9  1  0  0  0  0
  8 15  1  0  0  0  0
  9  8  2  0  0  0  0
 10 11  1  0  0  0  0
 12  5  1  0  0  0  0
 13  6  2  0  0  0  0
 13 17  1  0  0  0  0
 14  3  1  1  0  0  0
 15 14  1  0  0  0  0
 16 18  2  0  0  0  0
 16 10  1  0  0  0  0
 17  4  2  0  0  0  0
 19 10  1  0  0  0  0
 19  7  1  1  0  0  0
 21 20  1  0  0  0  0
 22 21  1  0  0  0  0
 23 22  1  0  0  0  0
 24 23  2  0  0  0  0
 25 23  1  0  0  0  0
M  END
>  <MODEL>
2

>  <REMARK>
 VINA RESULT:      -7.0      2.433      3.445
  Name = 
  4 active torsions:
  status: ('A' for Active; 'I' for Inactive)
    1  A    between atoms: C_2  and  S_21
    2  A    between atoms: C_6  and  C_15
    3  A    between atoms: C_15  and  C_25
    4  A    between atoms: S_21  and  C_25
                            x       y       z     vdW  Elec       q    Type
                         _______ _______ _______ _____ _____    ______ ____

>  <TORSDO>
F 4

$$$$
=
 OpenBabel11052412533D

 25 28  0  0  1  0  0  0  0  0999 V2000
  186.5000  177.0350  144.2190 C   0  0  1  0  0  3  0  0  0  0  0  0
  187.6430  176.8680  143.2000 C   0  0  2  0  0  3  0  0  0  0  0  0
  185.4880  178.7730  142.5760 C   0  0  0  0  0  2  0  0  0  0  0  0
  186.7740  177.8280  145.4570 C   0  0  0  0  0  0  0  0  0  0  0  0
  189.9320  175.9780  142.7530 C   0  0  1  0  0  3  0  0  0  0  0  0
  186.6570  179.3040  147.8080 C   0  0  0  0  0  3  0  0  0  0  0  0
  186.5830  178.3760  141.5990 C   0  0  0  0  0  2  0  0  0  0  0  0
  185.6540  178.5540  145.7610 C   0  0  0  0  0  0  0  0  0  0  0  0
  185.5610  179.3090  146.9290 C   0  0  0  0  0  3  0  0  0  0  0  0
  189.0100  177.9950  141.4560 N   0  0  0  0  0  0  0  0  0  0  0  0
  189.2490  179.0650  140.4970 C   0  0  0  0  0  1  0  0  0  0  0  0
  188.9330  176.3780  143.8310 C   0  0  0  0  0  2  0  0  0  0  0  0
  187.8040  178.5390  147.5120 C   0  0  0  0  0  3  0  0  0  0  0  0
  185.2110  177.7190  143.6610 C   0  0  2  0  0  3  0  0  0  0  0  0
  184.6850  178.4260  144.7840 O   0  0  0  0  0  0  0  0  0  0  0  0
  190.0410  177.0060  141.6530 C   0  0  0  0  0  0  0  0  0  0  0  0
  187.8630  177.7780  146.3330 C   0  0  0  0  0  3  0  0  0  0  0  0
  191.0170  176.9500  140.8550 O   0  0  0  0  0  0  0  0  0  0  0  0
  187.8690  178.1270  142.3720 C   0  0  2  0  0  3  0  0  0  0  0  0
  191.2910  175.6270  143.3670 C   0  0  0  0  0  2  0  0  0  0  0  0
  191.4830  176.2200  144.7590 C   0  0  0  0  0  2  0  0  0  0  0  0
  192.2300  174.9910  145.8710 S   0  0  0  0  0  0  0  0  0  0  0  0
  192.0010  176.0380  147.3000 C   0  0  0  0  0  0  0  0  0  0  0  0
  190.8350  176.7790  147.4360 O   0  0  0  0  0  0  0  0  0  0  0  0
  192.8990  176.1100  148.1780 O   0  0  0  0  0  1  0  0  0  0  0  0
  1  4  1  1  0  0  0
  2 12  1  1  0  0  0
  2  1  1  0  0  0  0
  4  8  2  0  0  0  0
  4 17  1  0  0  0  0
  5 20  1  1  0  0  0
  5 12  1  0  0  0  0
  7  3  1  0  0  0  0
  8  9  1  0  0  0  0
  9  6  2  0  0  0  0
 10 16  1  0  0  0  0
 10 19  1  0  0  0  0
 11 10  1  0  0  0  0
 13  6  1  0  0  0  0
 14  3  1  6  0  0  0
 14  1  1  0  0  0  0
 14 15  1  0  0  0  0
 15  8  1  0  0  0  0
 16  5  1  0  0  0  0
 17 13  2  0  0  0  0
 18 16  2  0  0  0  0
 19  7  1  6  0  0  0
 19  2  1  0  0  0  0
 20 21  1  0  0  0  0
 21 22  1  0  0  0  0
 22 23  1  0  0  0  0
 23 24  2  0  0  0  0
 23 25  1  0  0  0  0
M  END
>  <MODEL>
3

>  <REMARK>
 VINA RESULT:      -6.9      2.975      6.899
  Name = 
  4 active torsions:
  status: ('A' for Active; 'I' for Inactive)
    1  A    between atoms: C_2  and  S_21
    2  A    between atoms: C_6  and  C_15
    3  A    between atoms: C_15  and  C_25
    4  A    between atoms: S_21  and  C_25
                            x       y       z     vdW  Elec       q    Type
                         _______ _______ _______ _____ _____    ______ ____

>  <TORSDO>
F 4

$$$$
=
 OpenBabel11052412533D

 25 28  0  0  1  0  0  0  0  0999 V2000
  189.4810  178.0350  139.8900 C   0  0  1  0  0  3  0  0  0  0  0  0
  188.4540  177.8150  138.7650 C   0  0  2  0  0  3  0  0  0  0  0  0
  190.9470  176.2500  138.7010 C   0  0  0  0  0  2  0  0  0  0  0  0
  189.1970  177.4330  141.2290 C   0  0  0  0  0  0  0  0  0  0  0  0
  186.1190  178.1860  137.9640 C   0  0  1  0  0  3  0  0  0  0  0  0
  189.2750  176.4330  143.8200 C   0  0  0  0  0  3  0  0  0  0  0  0
  189.9230  176.2680  137.5770 C   0  0  0  0  0  2  0  0  0  0  0  0
  190.3760  176.9840  141.7600 C   0  0  0  0  0  0  0  0  0  0  0  0
  190.4530  176.4720  143.0540 C   0  0  0  0  0  3  0  0  0  0  0  0
  187.4990  176.1740  137.1580 N   0  0  0  0  0  0  0  0  0  0  0  0
  187.5500  174.9290  136.4040 C   0  0  0  0  0  1  0  0  0  0  0  0
  187.0370  178.1660  139.1790 C   0  0  0  0  0  2  0  0  0  0  0  0
  188.0630  176.9150  143.2870 C   0  0  0  0  0  3  0  0  0  0  0  0
  190.9200  177.5080  139.5850 C   0  0  2  0  0  3  0  0  0  0  0  0
  191.4190  177.1140  140.8630 O   0  0  0  0  0  0  0  0  0  0  0  0
  186.3070  176.9800  137.0750 C   0  0  0  0  0  0  0  0  0  0  0  0
  188.0200  177.4370  141.9840 C   0  0  0  0  0  3  0  0  0  0  0  0
  185.4340  176.7200  136.2010 O   0  0  0  0  0  0  0  0  0  0  0  0
  188.5330  176.4110  138.1770 C   0  0  2  0  0  3  0  0  0  0  0  0
  184.6590  178.3870  138.3810 C   0  0  0  0  0  2  0  0  0  0  0  0
  184.5180  179.1580  139.6900 C   0  0  0  0  0  2  0  0  0  0  0  0
  183.5830  178.1780  140.9020 S   0  0  0  0  0  0  0  0  0  0  0  0
  184.5870  178.7630  142.2580 C   0  0  0  0  0  0  0  0  0  0  0  0
  184.4530  178.1910  143.5160 O   0  0  0  0  0  1  0  0  0  0  0  0
  185.4110  179.6960  142.0750 O   0  0  0  0  0  0  0  0  0  0  0  0
  1  4  1  1  0  0  0
  2 12  1  1  0  0  0
  2  1  1  0  0  0  0
  4  8  2  0  0  0  0
  4 17  1  0  0  0  0
  5 20  1  1  0  0  0
  5 12  1  0  0  0  0
  7  3  1  0  0  0  0
  8  9  1  0  0  0  0
  9  6  2  0  0  0  0
 10 19  1  0  0  0  0
 11 10  1  0  0  0  0
 13  6  1  0  0  0  0
 14  3  1  6  0  0  0
 14  1  1  0  0  0  0
 14 15  1  0  0  0  0
 15  8  1  0  0  0  0
 16 10  1  0  0  0  0
 16  5  1  0  0  0  0
 17 13  2  0  0  0  0
 18 16  2  0  0  0  0
 19  7  1  6  0  0  0
 19  2  1  0  0  0  0
 20 21  1  0  0  0  0
 21 22  1  0  0  0  0
 22 23  1  0  0  0  0
 23 24  1  0  0  0  0
 25 23  2  0  0  0  0
M  END
>  <MODEL>
4

>  <REMARK>
 VINA RESULT:      -6.8      3.241      6.091
  Name = 
  4 active torsions:
  status: ('A' for Active; 'I' for Inactive)
    1  A    between atoms: C_2  and  S_21
    2  A    between atoms: C_6  and  C_15
    3  A    between atoms: C_15  and  C_25
    4  A    between atoms: S_21  and  C_25
                            x       y       z     vdW  Elec       q    Type
                         _______ _______ _______ _____ _____    ______ ____

>  <TORSDO>
F 4

$$$$
=
 OpenBabel11052412533D

 25 28  0  0  1  0  0  0  0  0999 V2000
  190.1130  178.7890  143.6910 C   0  0  1  0  0  3  0  0  0  0  0  0
  189.5820  178.6080  142.2570 C   0  0  2  0  0  3  0  0  0  0  0  0
  192.1790  177.4030  142.9440 C   0  0  0  0  0  2  0  0  0  0  0  0
  189.4990  177.9640  144.7760 C   0  0  0  0  0  0  0  0  0  0  0  0
  187.6310  178.7900  140.7110 C   0  0  1  0  0  3  0  0  0  0  0  0
  188.8660  176.6100  147.1180 C   0  0  0  0  0  3  0  0  0  0  0  0
  191.6100  177.4550  141.5350 C   0  0  0  0  0  2  0  0  0  0  0  0
  190.4870  177.5970  145.6500 C   0  0  0  0  0  0  0  0  0  0  0  0
  190.2070  176.9130  146.8320 C   0  0  0  0  0  3  0  0  0  0  0  0
  189.5270  177.1140  140.2690 N   0  0  0  0  0  0  0  0  0  0  0  0
  190.0440  176.0110  139.4710 C   0  0  0  0  0  1  0  0  0  0  0  0
  188.0710  178.7080  142.1660 C   0  0  0  0  0  2  0  0  0  0  0  0
  187.8420  177.0060  146.2340 C   0  0  0  0  0  3  0  0  0  0  0  0
  191.6380  178.5030  143.8730 C   0  0  2  0  0  3  0  0  0  0  0  0
  191.7340  177.9910  145.2020 O   0  0  0  0  0  0  0  0  0  0  0  0
  188.3130  177.7630  139.8400 C   0  0  0  0  0  0  0  0  0  0  0  0
  188.1540  177.7050  145.0570 C   0  0  0  0  0  3  0  0  0  0  0  0
  187.8480  177.5260  138.6920 O   0  0  0  0  0  0  0  0  0  0  0  0
  190.0960  177.3280  141.6080 C   0  0  2  0  0  3  0  0  0  0  0  0
  186.1040  178.7380  140.5950 C   0  0  0  0  0  2  0  0  0  0  0  0
  185.3970  179.2990  141.8240 C   0  0  0  0  0  2  0  0  0  0  0  0
  183.8350  178.4140  142.1140 S   0  0  0  0  0  0  0  0  0  0  0  0
  183.7850  178.9140  143.8270 C   0  0  0  0  0  0  0  0  0  0  0  0
  184.8670  179.5800  144.3870 O   0  0  0  0  0  0  0  0  0  0  0  0
  182.7720  178.6580  144.5280 O   0  0  0  0  0  1  0  0  0  0  0  0
  1 14  1  0  0  0  0
  1  4  1  1  0  0  0
  2 12  1  1  0  0  0
  2  1  1  0  0  0  0
  4 17  2  0  0  0  0
  4  8  1  0  0  0  0
  5 20  1  1  0  0  0
  5 12  1  0  0  0  0
  7  3  1  0  0  0  0
  8  9  2  0  0  0  0
  9  6  1  0  0  0  0
 10 19  1  0  0  0  0
 11 10  1  0  0  0  0
 13  6  2  0  0  0  0
 14  3  1  6  0  0  0
 14 15  1  0  0  0  0
 15  8  1  0  0  0  0
 16 10  1  0  0  0  0
 16  5  1  0  0  0  0
 17 13  1  0  0  0  0
 18 16  2  0  0  0  0
 19  7  1  6  0  0  0
 19  2  1  0  0  0  0
 20 21  1  0  0  0  0
 21 22  1  0  0  0  0
 22 23  1  0  0  0  0
 23 24  2  0  0  0  0
 23 25  1  0  0  0  0
M  END
>  <MODEL>
5

>  <REMARK>
 VINA RESULT:      -6.8      2.421      4.985
  Name = 
  4 active torsions:
  status: ('A' for Active; 'I' for Inactive)
    1  A    between atoms: C_2  and  S_21
    2  A    between atoms: C_6  and  C_15
    3  A    between atoms: C_15  and  C_25
    4  A    between atoms: S_21  and  C_25
                            x       y       z     vdW  Elec       q    Type
                         _______ _______ _______ _____ _____    ______ ____

>  <TORSDO>
F 4

$$$$
=
 OpenBabel11052412533D

 25 28  0  0  1  0  0  0  0  0999 V2000
  185.0480  179.5570  143.4040 C   0  0  1  0  0  3  0  0  0  0  0  0
  186.3540  178.9380  142.8710 C   0  0  2  0  0  3  0  0  0  0  0  0
  185.5060  178.2580  145.6060 C   0  0  0  0  0  2  0  0  0  0  0  0
  183.7530  178.9920  142.9160 C   0  0  0  0  0  0  0  0  0  0  0  0
  187.7900  178.4780  140.8810 C   0  0  1  0  0  3  0  0  0  0  0  0
  181.1060  178.2590  142.4970 C   0  0  0  0  0  3  0  0  0  0  0  0
  186.8470  177.8650  145.0080 C   0  0  0  0  0  2  0  0  0  0  0  0
  182.8650  178.9870  143.9580 C   0  0  0  0  0  0  0  0  0  0  0  0
  181.5310  178.6210  143.7860 C   0  0  0  0  0  3  0  0  0  0  0  0
  187.8670  176.9670  142.9560 N   0  0  0  0  0  0  0  0  0  0  0  0
  188.3700  175.7530  143.5870 C   0  0  0  0  0  1  0  0  0  0  0  0
  186.3890  178.8420  141.3560 C   0  0  0  0  0  2  0  0  0  0  0  0
  182.0090  178.2860  141.4160 C   0  0  0  0  0  3  0  0  0  0  0  0
  184.8760  179.5010  144.9550 C   0  0  2  0  0  3  0  0  0  0  0  0
  183.4650  179.3800  145.1390 O   0  0  0  0  0  0  0  0  0  0  0  0
  188.3900  177.3370  141.6650 C   0  0  0  0  0  0  0  0  0  0  0  0
  183.3450  178.6710  141.6170 C   0  0  0  0  0  3  0  0  0  0  0  0
  189.4090  176.7490  141.2080 O   0  0  0  0  0  0  0  0  0  0  0  0
  186.6650  177.5950  143.5220 C   0  0  2  0  0  3  0  0  0  0  0  0
  187.8090  178.2280  139.3700 C   0  0  0  0  0  2  0  0  0  0  0  0
  189.1140  178.6630  138.7130 C   0  0  0  0  0  2  0  0  0  0  0  0
  189.4090  177.7060  137.1960 S   0  0  0  0  0  0  0  0  0  0  0  0
  190.4670  176.5450  138.0460 C   0  0  0  0  0  0  0  0  0  0  0  0
  190.2210  175.1830  137.9470 O   0  0  0  0  0  0  0  0  0  0  0  0
  191.4300  176.9630  138.7390 O   0  0  0  0  0  1  0  0  0  0  0  0
  1  4  1  6  0  0  0
  1 14  1  0  0  0  0
  2 12  1  6  0  0  0
  2  1  1  0  0  0  0
  2 19  1  0  0  0  0
  4  8  1  0  0  0  0
  5 20  1  6  0  0  0
  5 12  1  0  0  0  0
  5 16  1  0  0  0  0
  6  9  1  0  0  0  0
  7  3  1  0  0  0  0
  8 15  1  0  0  0  0
  9  8  2  0  0  0  0
 10 19  1  0  0  0  0
 10 11  1  0  0  0  0
 13 17  1  0  0  0  0
 13  6  2  0  0  0  0
 14 15  1  0  0  0  0
 14  3  1  6  0  0  0
 16 10  1  0  0  0  0
 17  4  2  0  0  0  0
 18 16  2  0  0  0  0
 19  7  1  1  0  0  0
 21 20  1  0  0  0  0
 22 23  1  0  0  0  0
 22 21  1  0  0  0  0
 23 25  1  0  0  0  0
 24 23  2  0  0  0  0
M  END
>  <MODEL>
6

>  <REMARK>
 VINA RESULT:      -6.7      2.935      6.680
  Name = 
  4 active torsions:
  status: ('A' for Active; 'I' for Inactive)
    1  A    between atoms: C_2  and  S_21
    2  A    between atoms: C_6  and  C_15
    3  A    between atoms: C_15  and  C_25
    4  A    between atoms: S_21  and  C_25
                            x       y       z     vdW  Elec       q    Type
                         _______ _______ _______ _____ _____    ______ ____

>  <TORSDO>
F 4

$$$$
=
 OpenBabel11052412533D

 25 28  0  0  1  0  0  0  0  0999 V2000
  185.5780  179.2930  141.7610 C   0  0  1  0  0  3  0  0  0  0  0  0
  187.0120  178.7350  141.7230 C   0  0  2  0  0  3  0  0  0  0  0  0
  185.3740  178.2070  144.1110 C   0  0  0  0  0  2  0  0  0  0  0  0
  184.5320  178.5970  140.9510 C   0  0  0  0  0  0  0  0  0  0  0  0
  189.0250  178.2330  140.3340 C   0  0  1  0  0  3  0  0  0  0  0  0
  182.1910  177.6360  139.8030 C   0  0  0  0  0  3  0  0  0  0  0  0
  186.8530  177.8710  144.0010 C   0  0  0  0  0  2  0  0  0  0  0  0
  183.3610  178.6050  141.6600 C   0  0  0  0  0  0  0  0  0  0  0  0
  182.1680  178.1270  141.1180 C   0  0  0  0  0  3  0  0  0  0  0  0
  188.5120  176.8960  142.4670 N   0  0  0  0  0  0  0  0  0  0  0  0
  188.8460  175.7760  143.3370 C   0  0  0  0  0  1  0  0  0  0  0  0
  187.5300  178.5260  140.3120 C   0  0  0  0  0  2  0  0  0  0  0  0
  183.3880  177.6470  139.0590 C   0  0  0  0  0  3  0  0  0  0  0  0
  184.9250  179.3450  143.1790 C   0  0  2  0  0  3  0  0  0  0  0  0
  183.5360  179.1330  142.9260 O   0  0  0  0  0  0  0  0  0  0  0  0
  189.3990  177.2040  141.3730 C   0  0  0  0  0  0  0  0  0  0  0  0
  184.5720  178.1470  139.6280 C   0  0  0  0  0  3  0  0  0  0  0  0
  190.5370  176.6610  141.3150 O   0  0  0  0  0  0  0  0  0  0  0  0
  187.1640  177.4740  142.5660 C   0  0  2  0  0  3  0  0  0  0  0  0
  189.5330  177.8690  138.9350 C   0  0  0  0  0  2  0  0  0  0  0  0
  188.6450  176.8510  138.2280 C   0  0  0  0  0  2  0  0  0  0  0  0
  188.6300  177.1610  136.4370 S   0  0  0  0  0  0  0  0  0  0  0  0
  187.1880  178.2080  136.5560 C   0  0  0  0  0  0  0  0  0  0  0  0
  185.9230  177.6690  136.3610 O   0  0  0  0  0  0  0  0  0  0  0  0
  187.3180  179.4330  136.8100 O   0  0  0  0  0  1  0  0  0  0  0  0
  1  4  1  6  0  0  0
  1 14  1  0  0  0  0
  2 12  1  6  0  0  0
  2  1  1  0  0  0  0
  2 19  1  0  0  0  0
  4  8  1  0  0  0  0
  5 20  1  6  0  0  0
  5 16  1  0  0  0  0
  6  9  1  0  0  0  0
  7  3  1  0  0  0  0
  8 15  1  0  0  0  0
  9  8  2  0  0  0  0
 10 19  1  0  0  0  0
 10 11  1  0  0  0  0
 12  5  1  0  0  0  0
 13 17  1  0  0  0  0
 13  6  2  0  0  0  0
 14  3  1  1  0  0  0
 15 14  1  0  0  0  0
 16 10  1  0  0  0  0
 17  4  2  0  0  0  0
 18 16  2  0  0  0  0
 19  7  1  1  0  0  0
 21 20  1  0  0  0  0
 22 23  1  0  0  0  0
 22 21  1  0  0  0  0
 23 25  1  0  0  0  0
 24 23  2  0  0  0  0
M  END
>  <MODEL>
7

>  <REMARK>
 VINA RESULT:      -6.7      3.268      6.236
  Name = 
  4 active torsions:
  status: ('A' for Active; 'I' for Inactive)
    1  A    between atoms: C_2  and  S_21
    2  A    between atoms: C_6  and  C_15
    3  A    between atoms: C_15  and  C_25
    4  A    between atoms: S_21  and  C_25
                            x       y       z     vdW  Elec       q    Type
                         _______ _______ _______ _____ _____    ______ ____

>  <TORSDO>
F 4

$$$$
=
 OpenBabel11052412533D

 25 28  0  0  1  0  0  0  0  0999 V2000
  189.7670  176.4910  140.4420 C   0  0  1  0  0  3  0  0  0  0  0  0
  189.6590  176.7970  141.9470 C   0  0  2  0  0  3  0  0  0  0  0  0
  192.1570  177.5020  140.5580 C   0  0  0  0  0  2  0  0  0  0  0  0
  189.0430  177.3880  139.4900 C   0  0  0  0  0  0  0  0  0  0  0  0
  188.1670  177.0010  143.9380 C   0  0  1  0  0  3  0  0  0  0  0  0
  188.0670  178.7810  137.2930 C   0  0  0  0  0  3  0  0  0  0  0  0
  191.9680  177.5840  142.0640 C   0  0  0  0  0  2  0  0  0  0  0  0
  189.8210  177.5530  138.3760 C   0  0  0  0  0  0  0  0  0  0  0  0
  189.3670  178.2480  137.2560 C   0  0  0  0  0  3  0  0  0  0  0  0
  190.3660  178.3200  143.7810 N   0  0  0  0  0  0  0  0  0  0  0  0
  191.2470  179.3310  144.3500 C   0  0  0  0  0  1  0  0  0  0  0  0
  188.2270  176.9700  142.4160 C   0  0  0  0  0  2  0  0  0  0  0  0
  187.2520  178.5940  138.4270 C   0  0  0  0  0  3  0  0  0  0  0  0
  191.2200  176.4960  139.8680 C   0  0  2  0  0  3  0  0  0  0  0  0
  191.0570  176.9520  138.5250 O   0  0  0  0  0  0  0  0  0  0  0  0
  189.2120  177.9080  144.5410 C   0  0  0  0  0  0  0  0  0  0  0  0
  187.7340  177.8770  139.5350 C   0  0  0  0  0  3  0  0  0  0  0  0
  189.1020  178.2510  145.7500 O   0  0  0  0  0  0  0  0  0  0  0  0
  190.5290  177.9780  142.3610 C   0  0  2  0  0  3  0  0  0  0  0  0
  186.7520  177.3290  144.4250 C   0  0  0  0  0  2  0  0  0  0  0  0
  185.8590  177.8850  143.3210 C   0  0  0  0  0  2  0  0  0  0  0  0
  185.3390  179.5800  143.7230 S   0  0  0  0  0  0  0  0  0  0  0  0
  184.0120  179.0040  144.7700 C   0  0  0  0  0  0  0  0  0  0  0  0
  184.1820  178.9670  146.1470 O   0  0  0  0  0  1  0  0  0  0  0  0
  182.9270  178.6240  144.2590 O   0  0  0  0  0  0  0  0  0  0  0  0
  1  4  1  6  0  0  0
  1  2  1  0  0  0  0
  2 19  1  0  0  0  0
  2 12  1  6  0  0  0
  3  7  1  0  0  0  0
  4 17  1  0  0  0  0
  5 20  1  6  0  0  0
  5 16  1  0  0  0  0
  6 13  1  0  0  0  0
  8 15  1  0  0  0  0
  8  4  2  0  0  0  0
  9  6  2  0  0  0  0
  9  8  1  0  0  0  0
 10 11  1  0  0  0  0
 10 16  1  0  0  0  0
 12  5  1  0  0  0  0
 13 17  2  0  0  0  0
 14  1  1  0  0  0  0
 14  3  1  1  0  0  0
 15 14  1  0  0  0  0
 16 18  2  0  0  0  0
 19  7  1  1  0  0  0
 19 10  1  0  0  0  0
 21 22  1  0  0  0  0
 21 20  1  0  0  0  0
 22 23  1  0  0  0  0
 23 24  1  0  0  0  0
 25 23  2  0  0  0  0
M  END
>  <MODEL>
8

>  <REMARK>
 VINA RESULT:      -6.6      2.086      2.969
  Name = 
  4 active torsions:
  status: ('A' for Active; 'I' for Inactive)
    1  A    between atoms: C_2  and  S_21
    2  A    between atoms: C_6  and  C_15
    3  A    between atoms: C_15  and  C_25
    4  A    between atoms: S_21  and  C_25
                            x       y       z     vdW  Elec       q    Type
                         _______ _______ _______ _____ _____    ______ ____

>  <TORSDO>
F 4

$$$$
=
 OpenBabel11052412533D

 25 28  0  0  1  0  0  0  0  0999 V2000
  184.2460  179.4870  142.4040 C   0  0  1  0  0  3  0  0  0  0  0  0
  185.6770  179.0820  142.8040 C   0  0  2  0  0  3  0  0  0  0  0  0
  183.5630  178.9270  144.8470 C   0  0  0  0  0  2  0  0  0  0  0  0
  183.4490  178.5280  141.5800 C   0  0  0  0  0  0  0  0  0  0  0  0
  187.9770  178.4950  142.0300 C   0  0  1  0  0  3  0  0  0  0  0  0
  181.4860  177.1070  140.2220 C   0  0  0  0  0  3  0  0  0  0  0  0
  185.0430  178.7270  145.1350 C   0  0  0  0  0  2  0  0  0  0  0  0
  182.1480  178.5720  142.0030 C   0  0  0  0  0  0  0  0  0  0  0  0
  181.1370  177.8700  141.3490 C   0  0  0  0  0  3  0  0  0  0  0  0
  187.0560  177.6130  144.2610 N   0  0  0  0  0  0  0  0  0  0  0  0
  187.2360  176.7500  145.4210 C   0  0  0  0  0  1  0  0  0  0  0  0
  186.5140  178.6230  141.6250 C   0  0  0  0  0  2  0  0  0  0  0  0
  182.8190  177.0760  139.7670 C   0  0  0  0  0  3  0  0  0  0  0  0
  183.2840  179.7820  143.5990 C   0  0  2  0  0  3  0  0  0  0  0  0
  182.0030  179.3800  143.1150 O   0  0  0  0  0  0  0  0  0  0  0  0
  188.1540  177.7620  143.3380 C   0  0  0  0  0  0  0  0  0  0  0  0
  183.8140  177.8050  140.4390 C   0  0  0  0  0  3  0  0  0  0  0  0
  189.3000  177.3370  143.6530 O   0  0  0  0  0  0  0  0  0  0  0  0
  185.6940  178.0590  143.9340 C   0  0  2  0  0  3  0  0  0  0  0  0
  188.8100  177.8870  140.8980 C   0  0  0  0  0  2  0  0  0  0  0  0
  188.1560  178.0480  139.5290 C   0  0  0  0  0  2  0  0  0  0  0  0
  189.0600  177.0840  138.2800 S   0  0  0  0  0  0  0  0  0  0  0  0
  189.0580  178.4440  137.1230 C   0  0  0  0  0  0  0  0  0  0  0  0
  189.0540  179.7520  137.5910 O   0  0  0  0  0  1  0  0  0  0  0  0
  189.0540  178.2180  135.8860 O   0  0  0  0  0  0  0  0  0  0  0  0
  1  4  1  1  0  0  0
  1  2  1  0  0  0  0
  1 14  1  0  0  0  0
  2 12  1  6  0  0  0
  2 19  1  0  0  0  0
  3  7  1  0  0  0  0
  4  8  1  0  0  0  0
  5 20  1  6  0  0  0
  5 16  1  0  0  0  0
  6  9  1  0  0  0  0
  8 15  1  0  0  0  0
  9  8  2  0  0  0  0
 10 11  1  0  0  0  0
 12  5  1  0  0  0  0
 13  6  2  0  0  0  0
 13 17  1  0  0  0  0
 14  3  1  1  0  0  0
 15 14  1  0  0  0  0
 16 18  2  0  0  0  0
 16 10  1  0  0  0  0
 17  4  2  0  0  0  0
 19 10  1  0  0  0  0
 19  7  1  1  0  0  0
 21 20  1  0  0  0  0
 22 21  1  0  0  0  0
 23 24  1  0  0  0  0
 23 22  1  0  0  0  0
 25 23  2  0  0  0  0
M  END
>  <MODEL>
9

>  <REMARK>
 VINA RESULT:      -6.3      3.051      6.411
  Name = 
  4 active torsions:
  status: ('A' for Active; 'I' for Inactive)
    1  A    between atoms: C_2  and  S_21
    2  A    between atoms: C_6  and  C_15
    3  A    between atoms: C_15  and  C_25
    4  A    between atoms: S_21  and  C_25
                            x       y       z     vdW  Elec       q    Type
                         _______ _______ _______ _____ _____    ______ ____

>  <TORSDO>
F 4

$$$$
