=
 OpenBabel11052415533D

 34 41  0  0  1  0  0  0  0  0999 V2000
  181.6590  174.7510  136.0000 C   0  0  2  0  0  0  0  0  0  0  0  0
  185.2740  175.0700  137.5830 C   0  0  0  0  0  2  0  0  0  0  0  0
  182.7420  178.3140  137.3160 N   0  0  0  0  0  2  0  0  0  0  0  0
  183.8450  173.1290  137.0390 C   0  0  0  0  0  3  0  0  0  0  0  0
  180.1180  177.3400  138.2160 C   0  0  1  0  0  3  0  0  0  0  0  0
  183.4680  178.5970  140.6190 C   0  0  1  0  0  3  0  0  0  0  0  0
  180.3490  175.5710  136.2430 C   0  0  1  0  0  0  0  0  0  0  0  0
  180.8810  175.2310  134.8370 C   0  0  0  0  0  2  0  0  0  0  0  0
  180.7340  172.5000  135.4810 O   0  0  0  0  0  0  0  0  0  0  0  0
  181.3170  171.2020  135.5280 C   0  0  0  0  0  2  0  0  0  0  0  0
  183.1210  179.4980  139.4250 C   0  0  0  0  0  2  0  0  0  0  0  0
  182.0720  178.9030  138.4740 C   0  0  2  0  0  3  0  0  0  0  0  0
  179.3940  176.2890  138.7890 O   0  0  0  0  0  1  0  0  0  0  0  0
  179.6790  176.8740  135.8320 C   0  0  0  0  0  2  0  0  0  0  0  0
  182.7200  172.5720  136.6020 C   0  0  0  0  0  0  0  0  0  0  0  0
  181.4490  173.2780  136.4200 C   0  0  1  0  0  3  0  0  0  0  0  0
  182.5980  171.3050  136.1270 O   0  0  0  0  0  0  0  0  0  0  0  0
  185.4570  176.5860  137.4790 C   0  0  0  0  0  2  0  0  0  0  0  0
  185.3410  177.1430  136.0480 C   0  0  2  0  0  3  0  0  0  0  0  0
  182.0280  176.6980  139.7740 C   0  0  0  0  0  2  0  0  0  0  0  0
  185.2410  176.0660  134.9640 C   0  0  0  0  0  2  0  0  0  0  0  0
  181.1930  177.8500  139.1800 C   0  0  2  0  0  3  0  0  0  0  0  0
  183.4320  177.1240  140.2190 C   0  0  0  0  0  2  0  0  0  0  0  0
  180.7380  176.9510  136.8660 C   0  0  1  0  0  0  0  0  0  0  0  0
  181.7530  177.9530  136.3020 C   0  0  0  0  0  2  0  0  0  0  0  0
  183.8380  174.6010  137.3290 C   0  0  2  0  0  3  0  0  0  0  0  0
  183.8480  175.4320  134.8750 C   0  0  0  0  0  2  0  0  0  0  0  0
  183.0760  175.3640  136.2080 C   0  0  1  0  0  3  0  0  0  0  0  0
  186.4800  178.0620  135.7660 C   0  0  0  0  0  0  0  0  0  0  0  0
  187.0500  178.8110  136.7880 O   0  0  0  0  0  1  0  0  0  0  0  0
  186.9260  178.1620  134.5940 O   0  0  0  0  0  0  0  0  0  0  0  0
  184.8410  178.9580  141.1540 C   0  0  0  0  0  3  0  0  0  0  0  0
  184.7260  179.3690  142.6090 C   0  0  0  0  0  2  0  0  0  0  0  0
  185.2290  177.9870  142.2520 C   0  0  0  0  0  2  0  0  0  0  0  0
  1  8  1  6  0  0  0
  1 28  1  0  0  0  0
  1  7  1  0  0  0  0
  1 16  1  0  0  0  0
  3 12  1  0  0  0  0
  5 13  1  1  0  0  0
  5 22  1  0  0  0  0
  6 32  1  6  0  0  0
  7  8  1  6  0  0  0
  7 24  1  0  0  0  0
  9 10  1  0  0  0  0
 10 17  1  0  0  0  0
 11  6  1  0  0  0  0
 12 22  1  0  0  0  0
 12 11  1  1  0  0  0
 14  7  1  0  0  0  0
 15  4  2  0  0  0  0
 16  9  1  6  0  0  0
 16 15  1  0  0  0  0
 17 15  1  0  0  0  0
 18  2  1  0  0  0  0
 19 29  1  6  0  0  0
 19 18  1  0  0  0  0
 20 23  1  0  0  0  0
 21 19  1  0  0  0  0
 22 20  1  6  0  0  0
 23  6  1  0  0  0  0
 24 14  1  6  0  0  0
 24  5  1  0  0  0  0
 25 24  1  0  0  0  0
 25  3  1  0  0  0  0
 26  4  1  6  0  0  0
 26  2  1  0  0  0  0
 27 21  1  0  0  0  0
 28 27  1  6  0  0  0
 28 26  1  0  0  0  0
 29 30  1  0  0  0  0
 31 29  2  0  0  0  0
 32 34  1  0  0  0  0
 32 33  1  0  0  0  0
 34 33  1  0  0  0  0
M  END
>  <MODEL>
1

>  <REMARK>
 VINA RESULT:      -5.0      0.000      0.000
  Name = 
  2 active torsions:
  status: ('A' for Active; 'I' for Inactive)
    1  A    between atoms: C_3  and  C_25
    2  A    between atoms: C_7  and  C_11
                            x       y       z     vdW  Elec       q    Type
                         _______ _______ _______ _____ _____    ______ ____

>  <TORSDO>
F 2

$$$$
=
 OpenBabel11052415533D

 34 41  0  0  1  0  0  0  0  0999 V2000
  184.8350  178.1110  138.5790 C   0  0  2  0  0  0  0  0  0  0  0  0
  181.7230  175.6630  138.5560 C   0  0  0  0  0  2  0  0  0  0  0  0
  184.3320  175.8650  135.3690 N   0  0  0  0  0  2  0  0  0  0  0  0
  182.8510  176.9280  140.3540 C   0  0  0  0  0  3  0  0  0  0  0  0
  187.0230  175.8540  136.5540 C   0  0  1  0  0  3  0  0  0  0  0  0
  184.4250  172.5000  135.7960 C   0  0  1  0  0  3  0  0  0  0  0  0
  186.2160  178.0320  137.8500 C   0  0  1  0  0  0  0  0  0  0  0  0
  185.3470  179.3040  137.8700 C   0  0  0  0  0  2  0  0  0  0  0  0
  185.4590  179.2930  140.6770 O   0  0  0  0  0  0  0  0  0  0  0  0
  184.8180  179.3740  141.9460 C   0  0  0  0  0  2  0  0  0  0  0  0
  184.5400  173.5300  134.6630 C   0  0  0  0  0  2  0  0  0  0  0  0
  185.2940  174.8090  135.0550 C   0  0  2  0  0  3  0  0  0  0  0  0
  187.7900  175.7050  137.7140 O   0  0  0  0  0  1  0  0  0  0  0  0
  186.8580  178.3160  136.4990 C   0  0  0  0  0  2  0  0  0  0  0  0
  183.8020  177.7310  140.8200 C   0  0  0  0  0  0  0  0  0  0  0  0
  185.0380  178.0680  140.1100 C   0  0  1  0  0  3  0  0  0  0  0  0
  183.7240  178.4720  141.9560 O   0  0  0  0  0  0  0  0  0  0  0  0
  181.6220  175.4040  137.0500 C   0  0  0  0  0  2  0  0  0  0  0  0
  181.4360  176.6730  136.1990 C   0  0  2  0  0  3  0  0  0  0  0  0
  185.4950  174.0430  137.4890 C   0  0  0  0  0  2  0  0  0  0  0  0
  181.2050  177.9470  137.0170 C   0  0  0  0  0  2  0  0  0  0  0  0
  186.2420  174.5730  136.2480 C   0  0  2  0  0  3  0  0  0  0  0  0
  184.2670  173.1910  137.1480 C   0  0  0  0  0  2  0  0  0  0  0  0
  186.0790  177.0610  136.6320 C   0  0  1  0  0  0  0  0  0  0  0  0
  185.0290  177.1410  135.5160 C   0  0  0  0  0  2  0  0  0  0  0  0
  183.0240  176.3510  138.9800 C   0  0  2  0  0  3  0  0  0  0  0  0
  182.4930  178.5020  137.6380 C   0  0  0  0  0  2  0  0  0  0  0  0
  183.5510  177.4420  138.0040 C   0  0  1  0  0  3  0  0  0  0  0  0
  180.3270  176.4730  135.2240 C   0  0  0  0  0  0  0  0  0  0  0  0
  179.8030  175.2040  135.0040 O   0  0  0  0  0  1  0  0  0  0  0  0
  179.8640  177.4590  134.5940 O   0  0  0  0  0  0  0  0  0  0  0  0
  183.2430  171.5830  135.5390 C   0  0  0  0  0  3  0  0  0  0  0  0
  183.5750  170.1830  136.0180 C   0  0  0  0  0  2  0  0  0  0  0  0
  182.6940  171.0800  136.8600 C   0  0  0  0  0  2  0  0  0  0  0  0
  1  8  1  6  0  0  0
  1 16  1  0  0  0  0
  3 25  1  0  0  0  0
  4 15  2  0  0  0  0
  5 24  1  0  0  0  0
  5 13  1  1  0  0  0
  6 32  1  6  0  0  0
  6 23  1  0  0  0  0
  7 14  1  1  0  0  0
  7  8  1  0  0  0  0
  7  1  1  0  0  0  0
  9 10  1  0  0  0  0
 10 17  1  0  0  0  0
 11  6  1  0  0  0  0
 12 11  1  1  0  0  0
 12  3  1  0  0  0  0
 12 22  1  0  0  0  0
 14 24  1  0  0  0  0
 15 17  1  0  0  0  0
 16  9  1  1  0  0  0
 16 15  1  0  0  0  0
 18  2  1  0  0  0  0
 19 29  1  6  0  0  0
 19 21  1  0  0  0  0
 19 18  1  0  0  0  0
 21 27  1  0  0  0  0
 22  5  1  0  0  0  0
 22 20  1  1  0  0  0
 23 20  1  0  0  0  0
 24 25  1  6  0  0  0
 24  7  1  0  0  0  0
 26  2  1  6  0  0  0
 26  4  1  0  0  0  0
 28 27  1  1  0  0  0
 28  1  1  0  0  0  0
 28 26  1  0  0  0  0
 30 29  1  0  0  0  0
 31 29  2  0  0  0  0
 32 33  1  0  0  0  0
 32 34  1  0  0  0  0
 33 34  1  0  0  0  0
M  END
>  <MODEL>
2

>  <REMARK>
 VINA RESULT:      -4.7      2.193      6.840
  Name = 
  2 active torsions:
  status: ('A' for Active; 'I' for Inactive)
    1  A    between atoms: C_3  and  C_25
    2  A    between atoms: C_7  and  C_11
                            x       y       z     vdW  Elec       q    Type
                         _______ _______ _______ _____ _____    ______ ____

>  <TORSDO>
F 2

$$$$
=
 OpenBabel11052415533D

 34 41  0  0  1  0  0  0  0  0999 V2000
  185.6140  178.2810  138.7080 C   0  0  2  0  0  0  0  0  0  0  0  0
  181.9980  178.2220  140.3180 C   0  0  0  0  0  2  0  0  0  0  0  0
  182.6280  177.1300  136.3920 N   0  0  0  0  0  2  0  0  0  0  0  0
  184.2660  178.3620  141.2890 C   0  0  0  0  0  3  0  0  0  0  0  0
  184.9900  175.3800  136.4320 C   0  0  1  0  0  3  0  0  0  0  0  0
  180.9010  174.3680  137.3410 C   0  0  1  0  0  3  0  0  0  0  0  0
  186.2340  177.4590  137.5300 C   0  0  1  0  0  0  0  0  0  0  0  0
  186.3790  178.9880  137.6570 C   0  0  0  0  0  2  0  0  0  0  0  0
  187.6050  178.6280  140.1580 O   0  0  0  0  0  0  0  0  0  0  0  0
  187.7270  178.9510  141.5400 C   0  0  0  0  0  2  0  0  0  0  0  0
  181.1170  175.2280  136.0870 C   0  0  0  0  0  2  0  0  0  0  0  0
  182.5540  175.7470  135.9250 C   0  0  2  0  0  3  0  0  0  0  0  0
  185.9170  174.6820  137.2150 O   0  0  0  0  0  1  0  0  0  0  0  0
  186.2920  177.4340  136.0090 C   0  0  0  0  0  2  0  0  0  0  0  0
  185.5920  178.3760  141.2030 C   0  0  0  0  0  0  0  0  0  0  0  0
  186.3610  177.9700  140.0240 C   0  0  1  0  0  3  0  0  0  0  0  0
  186.4380  178.8960  142.1300 O   0  0  0  0  0  0  0  0  0  0  0  0
  181.1560  178.2290  139.0390 C   0  0  0  0  0  2  0  0  0  0  0  0
  181.4180  179.4320  138.1140 C   0  0  2  0  0  3  0  0  0  0  0  0
  183.2480  174.7740  138.1890 C   0  0  0  0  0  2  0  0  0  0  0  0
  182.3390  180.4970  138.7190 C   0  0  0  0  0  2  0  0  0  0  0  0
  183.5690  174.8670  136.6830 C   0  0  2  0  0  3  0  0  0  0  0  0
  181.7510  174.8740  138.5040 C   0  0  0  0  0  2  0  0  0  0  0  0
  185.0690  176.8970  136.6520 C   0  0  1  0  0  0  0  0  0  0  0  0
  183.9230  177.7060  136.0310 C   0  0  0  0  0  2  0  0  0  0  0  0
  183.4840  177.9390  140.0800 C   0  0  2  0  0  3  0  0  0  0  0  0
  183.8190  180.0970  138.6870 C   0  0  0  0  0  2  0  0  0  0  0  0
  184.0880  178.5830  138.8000 C   0  0  1  0  0  3  0  0  0  0  0  0
  180.1250  180.0410  137.6940 C   0  0  0  0  0  0  0  0  0  0  0  0
  180.0950  181.0250  136.7130 O   0  0  0  0  0  0  0  0  0  0  0  0
  179.0520  179.6630  138.2340 O   0  0  0  0  0  1  0  0  0  0  0  0
  179.4330  174.3800  137.7250 C   0  0  0  0  0  3  0  0  0  0  0  0
  178.9310  172.9550  137.8530 C   0  0  0  0  0  2  0  0  0  0  0  0
  179.2610  173.7540  139.0960 C   0  0  0  0  0  2  0  0  0  0  0  0
  1  8  1  6  0  0  0
  1 28  1  0  0  0  0
  1 16  1  0  0  0  0
  5 24  1  0  0  0  0
  5 22  1  0  0  0  0
  5 13  1  1  0  0  0
  6 32  1  1  0  0  0
  6 23  1  0  0  0  0
  7 14  1  1  0  0  0
  7  8  1  0  0  0  0
  7  1  1  0  0  0  0
  9 10  1  0  0  0  0
 10 17  1  0  0  0  0
 11  6  1  0  0  0  0
 12 11  1  1  0  0  0
 12  3  1  0  0  0  0
 12 22  1  0  0  0  0
 15  4  2  0  0  0  0
 15 17  1  0  0  0  0
 16  9  1  6  0  0  0
 16 15  1  0  0  0  0
 18  2  1  0  0  0  0
 19 29  1  1  0  0  0
 19 21  1  0  0  0  0
 19 18  1  0  0  0  0
 20 23  1  0  0  0  0
 22 20  1  1  0  0  0
 24 14  1  6  0  0  0
 24  7  1  0  0  0  0
 25  3  1  0  0  0  0
 25 24  1  0  0  0  0
 26  2  1  1  0  0  0
 26  4  1  0  0  0  0
 27 21  1  0  0  0  0
 28 27  1  1  0  0  0
 28 26  1  0  0  0  0
 29 31  1  0  0  0  0
 30 29  2  0  0  0  0
 32 33  1  0  0  0  0
 32 34  1  0  0  0  0
 33 34  1  0  0  0  0
M  END
>  <MODEL>
3

>  <REMARK>
 VINA RESULT:      -4.4      2.299      6.674
  Name = 
  2 active torsions:
  status: ('A' for Active; 'I' for Inactive)
    1  A    between atoms: C_3  and  C_25
    2  A    between atoms: C_7  and  C_11
                            x       y       z     vdW  Elec       q    Type
                         _______ _______ _______ _____ _____    ______ ____

>  <TORSDO>
F 2

$$$$
=
 OpenBabel11052415533D

 34 41  0  0  1  0  0  0  0  0999 V2000
  184.9530  174.8870  135.8950 C   0  0  2  0  0  0  0  0  0  0  0  0
  188.3250  173.5510  137.4820 C   0  0  0  0  0  2  0  0  0  0  0  0
  188.0210  177.3720  135.9630 N   0  0  0  0  0  2  0  0  0  0  0  0
  185.9950  172.7330  137.5580 C   0  0  0  0  0  3  0  0  0  0  0  0
  185.4740  178.4250  136.9860 C   0  0  1  0  0  3  0  0  0  0  0  0
  189.2770  178.2100  139.0020 C   0  0  1  0  0  3  0  0  0  0  0  0
  184.3770  176.3340  135.7610 C   0  0  1  0  0  0  0  0  0  0  0  0
  184.4070  175.3300  134.5940 C   0  0  0  0  0  2  0  0  0  0  0  0
  182.8660  173.5530  136.1310 O   0  0  0  0  0  0  0  0  0  0  0  0
  182.6270  172.2520  136.6580 C   0  0  0  0  0  2  0  0  0  0  0  0
  189.3130  178.7150  137.5520 C   0  0  0  0  0  2  0  0  0  0  0  0
  187.9790  178.5670  136.8050 C   0  0  2  0  0  3  0  0  0  0  0  0
  184.3850  178.2280  137.8420 O   0  0  0  0  0  1  0  0  0  0  0  0
  184.4910  177.5750  134.8880 C   0  0  0  0  0  2  0  0  0  0  0  0
  184.6990  172.8200  137.2740 C   0  0  0  0  0  0  0  0  0  0  0  0
  184.0270  174.0260  136.7840 C   0  0  1  0  0  3  0  0  0  0  0  0
  183.8220  171.7830  137.2590 O   0  0  0  0  0  0  0  0  0  0  0  0
  189.3030  174.5600  136.8730 C   0  0  0  0  0  2  0  0  0  0  0  0
  189.2980  174.5970  135.3330 C   0  0  2  0  0  3  0  0  0  0  0  0
  186.9150  177.3350  138.7810 C   0  0  0  0  0  2  0  0  0  0  0  0
  188.4520  173.4990  134.6840 C   0  0  0  0  0  2  0  0  0  0  0  0
  186.7830  178.4980  137.7770 C   0  0  2  0  0  3  0  0  0  0  0  0
  188.3670  176.9910  139.1330 C   0  0  0  0  0  2  0  0  0  0  0  0
  185.5570  177.3510  135.8930 C   0  0  1  0  0  0  0  0  0  0  0  0
  186.8570  177.3490  135.0790 C   0  0  0  0  0  2  0  0  0  0  0  0
  186.8530  173.9410  137.3210 C   0  0  2  0  0  3  0  0  0  0  0  0
  186.9480  173.7910  134.7370 C   0  0  0  0  0  2  0  0  0  0  0  0
  186.4830  174.6030  135.9620 C   0  0  1  0  0  3  0  0  0  0  0  0
  190.6960  174.5490  134.8200 C   0  0  0  0  0  0  0  0  0  0  0  0
  191.3220  173.3280  134.5940 O   0  0  0  0  0  1  0  0  0  0  0  0
  191.3160  175.6210  134.5940 O   0  0  0  0  0  0  0  0  0  0  0  0
  190.6810  177.8640  139.4610 C   0  0  0  0  0  3  0  0  0  0  0  0
  190.6640  177.5320  140.9400 C   0  0  0  0  0  2  0  0  0  0  0  0
  190.7250  176.4180  139.9170 C   0  0  0  0  0  2  0  0  0  0  0  0
  1  8  1  6  0  0  0
  1 28  1  0  0  0  0
  1 16  1  0  0  0  0
  3 12  1  0  0  0  0
  5 22  1  0  0  0  0
  5 13  1  1  0  0  0
  6 23  1  0  0  0  0
  6 32  1  6  0  0  0
  7  8  1  6  0  0  0
  7 24  1  0  0  0  0
  7  1  1  0  0  0  0
  9 10  1  0  0  0  0
 10 17  1  0  0  0  0
 11  6  1  0  0  0  0
 12 11  1  1  0  0  0
 12 22  1  0  0  0  0
 14  7  1  0  0  0  0
 15  4  2  0  0  0  0
 16  9  1  6  0  0  0
 16 15  1  0  0  0  0
 17 15  1  0  0  0  0
 18  2  1  0  0  0  0
 19 29  1  6  0  0  0
 19 18  1  0  0  0  0
 20 23  1  0  0  0  0
 21 27  1  0  0  0  0
 21 19  1  0  0  0  0
 22 20  1  6  0  0  0
 24 14  1  6  0  0  0
 24  5  1  0  0  0  0
 25 24  1  0  0  0  0
 25  3  1  0  0  0  0
 26  2  1  6  0  0  0
 26  4  1  0  0  0  0
 28 27  1  6  0  0  0
 28 26  1  0  0  0  0
 30 29  1  0  0  0  0
 31 29  2  0  0  0  0
 32 34  1  0  0  0  0
 32 33  1  0  0  0  0
 34 33  1  0  0  0  0
M  END
>  <MODEL>
4

>  <REMARK>
 VINA RESULT:      -3.7      3.406      4.765
  Name = 
  2 active torsions:
  status: ('A' for Active; 'I' for Inactive)
    1  A    between atoms: C_3  and  C_25
    2  A    between atoms: C_7  and  C_11
                            x       y       z     vdW  Elec       q    Type
                         _______ _______ _______ _____ _____    ______ ____

>  <TORSDO>
F 2

$$$$
=
 OpenBabel11052415533D

 34 41  0  0  1  0  0  0  0  0999 V2000
  180.7010  178.9480  139.0440 C   0  0  2  0  0  0  0  0  0  0  0  0
  184.5030  180.0490  139.1090 C   0  0  0  0  0  2  0  0  0  0  0  0
  183.4090  176.0740  139.0960 N   0  0  0  0  0  2  0  0  0  0  0  0
  182.4130  181.2640  138.6000 C   0  0  0  0  0  3  0  0  0  0  0  0
  181.3080  175.8430  137.0510 C   0  0  1  0  0  3  0  0  0  0  0  0
  185.5810  175.9360  136.4920 C   0  0  1  0  0  3  0  0  0  0  0  0
  180.0090  177.6540  138.5040 C   0  0  1  0  0  0  0  0  0  0  0  0
  179.7040  178.2550  139.8890 C   0  0  0  0  0  2  0  0  0  0  0  0
  178.9310  180.6490  138.6390 O   0  0  0  0  0  0  0  0  0  0  0  0
  178.9870  182.0680  138.5300 C   0  0  0  0  0  2  0  0  0  0  0  0
  185.0710  175.0370  137.6280 C   0  0  0  0  0  2  0  0  0  0  0  0
  183.5750  175.2020  137.9340 C   0  0  2  0  0  3  0  0  0  0  0  0
  180.6040  176.4740  136.0200 O   0  0  0  0  0  1  0  0  0  0  0  0
  179.7200  176.2140  138.9040 C   0  0  0  0  0  2  0  0  0  0  0  0
  181.0960  181.3350  138.4260 C   0  0  0  0  0  0  0  0  0  0  0  0
  180.2090  180.1820  138.2540 C   0  0  1  0  0  3  0  0  0  0  0  0
  180.3480  182.4650  138.5170 O   0  0  0  0  0  0  0  0  0  0  0  0
  185.1300  178.7470  139.6150 C   0  0  0  0  0  2  0  0  0  0  0  0
  184.5860  178.2680  140.9740 C   0  0  2  0  0  3  0  0  0  0  0  0
  183.3610  177.1250  136.2570 C   0  0  0  0  0  2  0  0  0  0  0  0
  183.6490  179.2670  141.6600 C   0  0  0  0  0  2  0  0  0  0  0  0
  182.8020  175.7650  136.7240 C   0  0  2  0  0  3  0  0  0  0  0  0
  184.8660  177.2860  136.5020 C   0  0  0  0  0  2  0  0  0  0  0  0
  181.0840  176.5220  138.4100 C   0  0  1  0  0  0  0  0  0  0  0  0
  182.0140  176.0520  139.5350 C   0  0  0  0  0  2  0  0  0  0  0  0
  183.0430  179.9040  138.6710 C   0  0  2  0  0  3  0  0  0  0  0  0
  182.2400  179.2810  141.0540 C   0  0  0  0  0  2  0  0  0  0  0  0
  182.1750  178.9570  139.5480 C   0  0  1  0  0  3  0  0  0  0  0  0
  185.7160  177.9110  141.8760 C   0  0  0  0  0  0  0  0  0  0  0  0
  187.0290  177.9960  141.4280 O   0  0  0  0  0  0  0  0  0  0  0  0
  185.4800  177.5260  143.0510 O   0  0  0  0  0  1  0  0  0  0  0  0
  187.0780  176.1400  136.6300 C   0  0  0  0  0  3  0  0  0  0  0  0
  187.7180  176.1370  135.2550 C   0  0  0  0  0  2  0  0  0  0  0  0
  187.4760  177.4470  135.9730 C   0  0  0  0  0  2  0  0  0  0  0  0
  1 28  1  0  0  0  0
  1  8  1  1  0  0  0
  2 18  1  0  0  0  0
  3 25  1  0  0  0  0
  5 13  1  6  0  0  0
  5 24  1  0  0  0  0
  6 23  1  0  0  0  0
  6 32  1  1  0  0  0
  6 11  1  0  0  0  0
  7 14  1  6  0  0  0
  7  1  1  0  0  0  0
  7  8  1  0  0  0  0
 10  9  1  0  0  0  0
 12 11  1  6  0  0  0
 12  3  1  0  0  0  0
 15 17  1  0  0  0  0
 15  4  2  0  0  0  0
 16 15  1  1  0  0  0
 16  9  1  0  0  0  0
 16  1  1  0  0  0  0
 17 10  1  0  0  0  0
 18 19  1  0  0  0  0
 19 21  1  0  0  0  0
 19 29  1  1  0  0  0
 20 23  1  0  0  0  0
 22 20  1  1  0  0  0
 22  5  1  0  0  0  0
 22 12  1  0  0  0  0
 24  7  1  0  0  0  0
 24 14  1  1  0  0  0
 24 25  1  0  0  0  0
 26  4  1  1  0  0  0
 26  2  1  0  0  0  0
 26 28  1  0  0  0  0
 27 21  1  0  0  0  0
 28 27  1  1  0  0  0
 29 31  1  0  0  0  0
 30 29  2  0  0  0  0
 33 34  1  0  0  0  0
 33 32  1  0  0  0  0
 34 32  1  0  0  0  0
M  END
>  <MODEL>
5

>  <REMARK>
 VINA RESULT:      -3.7      2.545      6.205
  Name = 
  2 active torsions:
  status: ('A' for Active; 'I' for Inactive)
    1  A    between atoms: C_3  and  C_25
    2  A    between atoms: C_7  and  C_11
                            x       y       z     vdW  Elec       q    Type
                         _______ _______ _______ _____ _____    ______ ____

>  <TORSDO>
F 2

$$$$
=
 OpenBabel11052415533D

 34 41  0  0  1  0  0  0  0  0999 V2000
  191.7710  176.3290  137.3830 C   0  0  2  0  0  0  0  0  0  0  0  0
  187.9510  176.8250  138.2940 C   0  0  0  0  0  2  0  0  0  0  0  0
  189.1110  174.9410  134.8150 N   0  0  0  0  0  2  0  0  0  0  0  0
  190.0280  177.0050  139.6180 C   0  0  0  0  0  3  0  0  0  0  0  0
  191.2490  173.0830  135.6020 C   0  0  1  0  0  3  0  0  0  0  0  0
  186.9860  172.5390  135.9230 C   0  0  1  0  0  3  0  0  0  0  0  0
  192.4930  175.2520  136.5080 C   0  0  1  0  0  0  0  0  0  0  0  0
  192.7650  176.7630  136.3770 C   0  0  0  0  0  2  0  0  0  0  0  0
  193.5190  176.8250  139.0830 O   0  0  0  0  0  0  0  0  0  0  0  0
  193.4410  177.4060  140.3810 C   0  0  0  0  0  2  0  0  0  0  0  0
  187.4910  173.1180  134.5940 C   0  0  0  0  0  2  0  0  0  0  0  0
  188.9790  173.5000  134.6020 C   0  0  2  0  0  3  0  0  0  0  0  0
  191.9600  172.4940  136.6540 O   0  0  0  0  0  1  0  0  0  0  0  0
  192.8000  174.9230  135.0540 C   0  0  0  0  0  2  0  0  0  0  0  0
  191.3460  176.9160  139.7720 C   0  0  0  0  0  0  0  0  0  0  0  0
  192.2560  176.2360  138.8470 C   0  0  1  0  0  3  0  0  0  0  0  0
  192.0740  177.5530  140.7270 O   0  0  0  0  0  0  0  0  0  0  0  0
  187.3370  176.6340  136.9040 C   0  0  0  0  0  2  0  0  0  0  0  0
  187.8660  177.6110  135.8380 C   0  0  2  0  0  3  0  0  0  0  0  0
  189.1890  172.9500  137.0940 C   0  0  0  0  0  2  0  0  0  0  0  0
  188.7740  178.7120  136.3940 C   0  0  0  0  0  2  0  0  0  0  0  0
  189.7630  172.7230  135.6810 C   0  0  2  0  0  3  0  0  0  0  0  0
  187.6780  173.2080  137.1080 C   0  0  0  0  0  2  0  0  0  0  0  0
  191.4400  174.6050  135.5510 C   0  0  1  0  0  0  0  0  0  0  0  0
  190.4980  175.3480  134.5950 C   0  0  0  0  0  2  0  0  0  0  0  0
  189.4200  176.4040  138.3850 C   0  0  2  0  0  3  0  0  0  0  0  0
  190.1920  178.2180  136.7050 C   0  0  0  0  0  2  0  0  0  0  0  0
  190.2890  176.7420  137.1390 C   0  0  1  0  0  3  0  0  0  0  0  0
  186.7270  178.2080  135.0860 C   0  0  0  0  0  0  0  0  0  0  0  0
  185.6780  177.4080  134.6450 O   0  0  0  0  0  0  0  0  0  0  0  0
  186.7150  179.4430  134.8440 O   0  0  0  0  0  1  0  0  0  0  0  0
  185.4830  172.7220  136.0260 C   0  0  0  0  0  3  0  0  0  0  0  0
  184.8500  171.4410  136.5310 C   0  0  0  0  0  2  0  0  0  0  0  0
  185.0550  172.6050  137.4760 C   0  0  0  0  0  2  0  0  0  0  0  0
  1  8  1  6  0  0  0
  1 16  1  0  0  0  0
  4 15  2  0  0  0  0
  5 22  1  0  0  0  0
  5 13  1  1  0  0  0
  6 32  1  1  0  0  0
  6 23  1  0  0  0  0
  7 14  1  1  0  0  0
  7  1  1  0  0  0  0
  8  7  1  0  0  0  0
  9 10  1  0  0  0  0
 10 17  1  0  0  0  0
 11  6  1  0  0  0  0
 12 11  1  1  0  0  0
 12  3  1  0  0  0  0
 12 22  1  0  0  0  0
 14 24  1  0  0  0  0
 15 17  1  0  0  0  0
 16  9  1  6  0  0  0
 16 15  1  0  0  0  0
 18  2  1  0  0  0  0
 19 29  1  1  0  0  0
 19 21  1  0  0  0  0
 19 18  1  0  0  0  0
 20 23  1  0  0  0  0
 21 27  1  0  0  0  0
 22 20  1  1  0  0  0
 24 25  1  6  0  0  0
 24  5  1  0  0  0  0
 24  7  1  0  0  0  0
 25  3  1  0  0  0  0
 26  2  1  6  0  0  0
 26  4  1  0  0  0  0
 28 27  1  1  0  0  0
 28  1  1  0  0  0  0
 28 26  1  0  0  0  0
 30 29  2  0  0  0  0
 31 29  1  0  0  0  0
 32 33  1  0  0  0  0
 32 34  1  0  0  0  0
 33 34  1  0  0  0  0
M  END
>  <MODEL>
6

>  <REMARK>
 VINA RESULT:      -3.2      5.024      9.241
  Name = 
  2 active torsions:
  status: ('A' for Active; 'I' for Inactive)
    1  A    between atoms: C_3  and  C_25
    2  A    between atoms: C_7  and  C_11
                            x       y       z     vdW  Elec       q    Type
                         _______ _______ _______ _____ _____    ______ ____

>  <TORSDO>
F 2

$$$$
=
 OpenBabel11052415533D

 34 41  0  0  1  0  0  0  0  0999 V2000
  185.8050  177.8510  137.9820 C   0  0  2  0  0  0  0  0  0  0  0  0
  184.0640  175.9340  134.9880 C   0  0  0  0  0  2  0  0  0  0  0  0
  182.0530  176.7300  138.4980 N   0  0  0  0  0  2  0  0  0  0  0  0
  186.1300  177.2800  135.1440 C   0  0  0  0  0  3  0  0  0  0  0  0
  182.6710  179.5320  139.1400 C   0  0  1  0  0  3  0  0  0  0  0  0
  179.7410  178.0120  136.3700 C   0  0  1  0  0  3  0  0  0  0  0  0
  185.2100  178.7400  139.1240 C   0  0  1  0  0  0  0  0  0  0  0  0
  186.2410  177.6230  139.3770 C   0  0  0  0  0  2  0  0  0  0  0  0
  188.0230  178.9230  137.6380 O   0  0  0  0  0  0  0  0  0  0  0  0
  188.9290  178.8960  136.5380 C   0  0  0  0  0  2  0  0  0  0  0  0
  179.8000  177.3130  137.7360 C   0  0  0  0  0  2  0  0  0  0  0  0
  180.9950  177.7350  138.6040 C   0  0  2  0  0  3  0  0  0  0  0  0
  183.2620  180.7270  138.7160 O   0  0  0  0  0  1  0  0  0  0  0  0
  184.5320  178.6220  140.4820 C   0  0  0  0  0  2  0  0  0  0  0  0
  186.9980  178.0460  135.7980 C   0  0  0  0  0  0  0  0  0  0  0  0
  186.7420  178.6930  137.0870 C   0  0  1  0  0  3  0  0  0  0  0  0
  188.2970  178.2410  135.4510 O   0  0  0  0  0  0  0  0  0  0  0  0
  182.9070  175.2820  135.7490 C   0  0  0  0  0  2  0  0  0  0  0  0
  183.3450  174.3740  136.9140 C   0  0  2  0  0  3  0  0  0  0  0  0
  181.9550  179.1790  136.7210 C   0  0  0  0  0  2  0  0  0  0  0  0
  184.8560  174.1420  136.9910 C   0  0  0  0  0  2  0  0  0  0  0  0
  181.5310  179.1240  138.2030 C   0  0  2  0  0  3  0  0  0  0  0  0
  181.1440  178.2460  135.8160 C   0  0  0  0  0  2  0  0  0  0  0  0
  183.6940  178.3960  139.2800 C   0  0  1  0  0  0  0  0  0  0  0  0
  183.0920  177.0000  139.4900 C   0  0  0  0  0  2  0  0  0  0  0  0
  184.8000  177.0140  135.7850 C   0  0  2  0  0  3  0  0  0  0  0  0
  185.6160  175.3360  137.5820 C   0  0  0  0  0  2  0  0  0  0  0  0
  184.9860  176.7140  137.3000 C   0  0  1  0  0  3  0  0  0  0  0  0
  182.6220  173.0740  136.8440 C   0  0  0  0  0  0  0  0  0  0  0  0
  183.2670  171.8890  137.1820 O   0  0  0  0  0  1  0  0  0  0  0  0
  181.4190  173.0460  136.4720 O   0  0  0  0  0  0  0  0  0  0  0  0
  178.9310  177.1730  135.3980 C   0  0  0  0  0  3  0  0  0  0  0  0
  179.8620  176.2880  134.5940 C   0  0  0  0  0  2  0  0  0  0  0  0
  179.0770  175.7060  135.7490 C   0  0  0  0  0  2  0  0  0  0  0  0
  1  7  1  0  0  0  0
  1  8  1  1  0  0  0
  2 18  1  0  0  0  0
  3 12  1  0  0  0  0
  3 25  1  0  0  0  0
  4 26  1  0  0  0  0
  4 15  2  0  0  0  0
  5 13  1  6  0  0  0
  5 24  1  0  0  0  0
  6 32  1  6  0  0  0
  6 11  1  0  0  0  0
  7 24  1  0  0  0  0
  7  8  1  1  0  0  0
  7 14  1  0  0  0  0
 10  9  1  0  0  0  0
 12 11  1  6  0  0  0
 16 15  1  6  0  0  0
 16  9  1  0  0  0  0
 16  1  1  0  0  0  0
 17 15  1  0  0  0  0
 17 10  1  0  0  0  0
 18 19  1  0  0  0  0
 19 29  1  6  0  0  0
 19 21  1  0  0  0  0
 21 27  1  0  0  0  0
 22 20  1  6  0  0  0
 22 12  1  0  0  0  0
 22  5  1  0  0  0  0
 23  6  1  0  0  0  0
 23 20  1  0  0  0  0
 24 25  1  6  0  0  0
 24 14  1  0  0  0  0
 26  2  1  6  0  0  0
 26 28  1  0  0  0  0
 28 27  1  6  0  0  0
 28  1  1  0  0  0  0
 29 30  1  0  0  0  0
 31 29  2  0  0  0  0
 32 34  1  0  0  0  0
 33 32  1  0  0  0  0
 33 34  1  0  0  0  0
M  END
>  <MODEL>
7

>  <REMARK>
 VINA RESULT:      -2.9      1.464      6.110
  Name = 
  2 active torsions:
  status: ('A' for Active; 'I' for Inactive)
    1  A    between atoms: C_3  and  C_25
    2  A    between atoms: C_7  and  C_11
                            x       y       z     vdW  Elec       q    Type
                         _______ _______ _______ _____ _____    ______ ____

>  <TORSDO>
F 2

$$$$
=
 OpenBabel11052415533D

 34 41  0  0  1  0  0  0  0  0999 V2000
  180.6180  178.6120  139.4940 C   0  0  2  0  0  0  0  0  0  0  0  0
  180.8270  174.6920  138.9830 C   0  0  0  0  0  2  0  0  0  0  0  0
  182.6490  177.3070  136.3680 N   0  0  0  0  0  2  0  0  0  0  0  0
  180.1660  176.1010  140.9010 C   0  0  0  0  0  3  0  0  0  0  0  0
  184.0030  179.2940  138.0590 C   0  0  1  0  0  3  0  0  0  0  0  0
  185.3510  175.3460  136.9760 C   0  0  1  0  0  3  0  0  0  0  0  0
  181.5830  179.7630  139.0570 C   0  0  1  0  0  0  0  0  0  0  0  0
  180.0580  179.8150  138.8400 C   0  0  0  0  0  2  0  0  0  0  0  0
  179.6910  179.5320  141.6110 O   0  0  0  0  0  0  0  0  0  0  0  0
  179.0620  178.9030  142.7230 C   0  0  0  0  0  2  0  0  0  0  0  0
  184.7630  176.1920  135.8370 C   0  0  0  0  0  2  0  0  0  0  0  0
  184.0980  177.4960  136.3040 C   0  0  2  0  0  3  0  0  0  0  0  0
  184.3790  179.6680  139.3540 O   0  0  0  0  0  1  0  0  0  0  0  0
  181.9310  180.6170  137.8470 C   0  0  0  0  0  2  0  0  0  0  0  0
  179.9860  177.2720  141.5040 C   0  0  0  0  0  0  0  0  0  0  0  0
  180.5290  178.5500  141.0360 C   0  0  1  0  0  3  0  0  0  0  0  0
  179.1650  177.4980  142.5620 O   0  0  0  0  0  0  0  0  0  0  0  0
  181.2150  174.6540  137.5020 C   0  0  0  0  0  2  0  0  0  0  0  0
  180.2180  175.3630  136.5670 C   0  0  2  0  0  3  0  0  0  0  0  0
  184.4480  176.8880  138.7660 C   0  0  0  0  0  2  0  0  0  0  0  0
  178.9310  175.8210  137.2580 C   0  0  0  0  0  2  0  0  0  0  0  0
  184.6410  177.9570  137.6710 C   0  0  2  0  0  3  0  0  0  0  0  0
  184.4910  175.4510  138.2330 C   0  0  0  0  0  2  0  0  0  0  0  0
  182.4790  179.2410  137.8880 C   0  0  1  0  0  0  0  0  0  0  0  0
  181.9920  178.5950  136.5840 C   0  0  0  0  0  2  0  0  0  0  0  0
  180.9460  176.0790  139.6200 C   0  0  2  0  0  3  0  0  0  0  0  0
  179.1180  177.0950  138.0910 C   0  0  0  0  0  2  0  0  0  0  0  0
  180.5180  177.2680  138.7120 C   0  0  1  0  0  3  0  0  0  0  0  0
  179.9010  174.4870  135.4040 C   0  0  0  0  0  0  0  0  0  0  0  0
  180.6010  173.3020  135.2040 O   0  0  0  0  0  1  0  0  0  0  0  0
  178.9970  174.8230  134.5960 O   0  0  0  0  0  0  0  0  0  0  0  0
  185.4590  173.8970  136.5390 C   0  0  0  0  0  3  0  0  0  0  0  0
  186.7430  173.2990  137.0790 C   0  0  0  0  0  2  0  0  0  0  0  0
  185.4240  172.9950  137.7560 C   0  0  0  0  0  2  0  0  0  0  0  0
  1  8  1  6  0  0  0
  1 16  1  0  0  0  0
  3 25  1  0  0  0  0
  4 15  2  0  0  0  0
  5 13  1  1  0  0  0
  6 32  1  6  0  0  0
  6 23  1  0  0  0  0
  7 14  1  1  0  0  0
  7  1  1  0  0  0  0
  8  7  1  0  0  0  0
  9 10  1  0  0  0  0
 11  6  1  0  0  0  0
 12 11  1  1  0  0  0
 12  3  1  0  0  0  0
 12 22  1  0  0  0  0
 14 24  1  0  0  0  0
 15 17  1  0  0  0  0
 16 15  1  6  0  0  0
 16  9  1  0  0  0  0
 17 10  1  0  0  0  0
 18  2  1  0  0  0  0
 19 29  1  6  0  0  0
 19 21  1  0  0  0  0
 19 18  1  0  0  0  0
 21 27  1  0  0  0  0
 22  5  1  0  0  0  0
 22 20  1  1  0  0  0
 23 20  1  0  0  0  0
 24 25  1  6  0  0  0
 24  5  1  0  0  0  0
 24  7  1  0  0  0  0
 26  2  1  6  0  0  0
 26  4  1  0  0  0  0
 28 27  1  1  0  0  0
 28  1  1  0  0  0  0
 28 26  1  0  0  0  0
 30 29  1  0  0  0  0
 31 29  2  0  0  0  0
 32 33  1  0  0  0  0
 32 34  1  0  0  0  0
 33 34  1  0  0  0  0
M  END
>  <MODEL>
8

>  <REMARK>
 VINA RESULT:      -2.8      2.369      6.108
  Name = 
  2 active torsions:
  status: ('A' for Active; 'I' for Inactive)
    1  A    between atoms: C_3  and  C_25
    2  A    between atoms: C_7  and  C_11
                            x       y       z     vdW  Elec       q    Type
                         _______ _______ _______ _____ _____    ______ ____

>  <TORSDO>
F 2

$$$$
=
 OpenBabel11052415533D

 34 41  0  0  1  0  0  0  0  0999 V2000
  187.4640  175.4990  135.7350 C   0  0  2  0  0  0  0  0  0  0  0  0
  190.5230  173.8630  137.6440 C   0  0  0  0  0  2  0  0  0  0  0  0
  189.9140  177.9410  137.6410 N   0  0  0  0  0  2  0  0  0  0  0  0
  188.4360  172.9290  136.7060 C   0  0  0  0  0  3  0  0  0  0  0  0
  187.0440  178.3080  138.1680 C   0  0  1  0  0  3  0  0  0  0  0  0
  190.2030  177.5450  140.9990 C   0  0  1  0  0  3  0  0  0  0  0  0
  186.6850  176.8320  135.9840 C   0  0  1  0  0  0  0  0  0  0  0  0
  187.1860  176.3970  134.5940 C   0  0  0  0  0  2  0  0  0  0  0  0
  185.6630  174.0470  134.8190 O   0  0  0  0  0  0  0  0  0  0  0  0
  185.5420  172.6310  134.7260 C   0  0  0  0  0  2  0  0  0  0  0  0
  190.5040  178.6000  139.9240 C   0  0  0  0  0  2  0  0  0  0  0  0
  189.4460  178.6810  138.8130 C   0  0  2  0  0  3  0  0  0  0  0  0
  185.8320  177.7040  138.5190 O   0  0  0  0  0  1  0  0  0  0  0  0
  186.7840  178.3260  135.7130 C   0  0  0  0  0  2  0  0  0  0  0  0
  187.2580  173.0370  136.1010 C   0  0  0  0  0  0  0  0  0  0  0  0
  186.5190  174.2890  135.9180 C   0  0  1  0  0  3  0  0  0  0  0  0
  186.6160  172.0400  135.4380 O   0  0  0  0  0  0  0  0  0  0  0  0
  191.4200  175.0960  137.7780 C   0  0  0  0  0  2  0  0  0  0  0  0
  191.7900  175.7600  136.4380 C   0  0  2  0  0  3  0  0  0  0  0  0
  188.1700  176.6790  139.7700 C   0  0  0  0  0  2  0  0  0  0  0  0
  191.3460  174.9690  135.2050 C   0  0  0  0  0  2  0  0  0  0  0  0
  188.0810  178.1390  139.2820 C   0  0  2  0  0  3  0  0  0  0  0  0
  189.5270  176.3210  140.3870 C   0  0  0  0  0  2  0  0  0  0  0  0
  187.5900  177.7830  136.8320 C   0  0  1  0  0  0  0  0  0  0  0  0
  189.0290  178.2030  136.5070 C   0  0  0  0  0  2  0  0  0  0  0  0
  189.0910  174.1840  137.2060 C   0  0  2  0  0  3  0  0  0  0  0  0
  189.8490  175.1110  134.9080 C   0  0  0  0  0  2  0  0  0  0  0  0
  188.9550  175.3170  136.1480 C   0  0  1  0  0  3  0  0  0  0  0  0
  193.2570  176.0210  136.3890 C   0  0  0  0  0  0  0  0  0  0  0  0
  194.0530  175.3900  135.4400 O   0  0  0  0  0  0  0  0  0  0  0  0
  193.7780  176.8150  137.2140 O   0  0  0  0  0  1  0  0  0  0  0  0
  191.4890  177.1380  141.6940 C   0  0  0  0  0  3  0  0  0  0  0  0
  191.6120  177.8820  143.0090 C   0  0  0  0  0  2  0  0  0  0  0  0
  191.1610  176.4370  142.9980 C   0  0  0  0  0  2  0  0  0  0  0  0
  1  8  1  6  0  0  0
  1 16  1  0  0  0  0
  1  7  1  0  0  0  0
  1 28  1  0  0  0  0
  2 18  1  0  0  0  0
  3 12  1  0  0  0  0
  5 13  1  1  0  0  0
  5 22  1  0  0  0  0
  6 32  1  6  0  0  0
  7  8  1  6  0  0  0
  7 24  1  0  0  0  0
 10  9  1  0  0  0  0
 10 17  1  0  0  0  0
 11  6  1  0  0  0  0
 12 22  1  0  0  0  0
 12 11  1  1  0  0  0
 14  7  1  0  0  0  0
 15  4  2  0  0  0  0
 16  9  1  6  0  0  0
 16 15  1  0  0  0  0
 17 15  1  0  0  0  0
 19 29  1  6  0  0  0
 19 18  1  0  0  0  0
 20 23  1  0  0  0  0
 21 19  1  0  0  0  0
 22 20  1  6  0  0  0
 23  6  1  0  0  0  0
 24 14  1  6  0  0  0
 24  5  1  0  0  0  0
 25 24  1  0  0  0  0
 25  3  1  0  0  0  0
 26  4  1  6  0  0  0
 26  2  1  0  0  0  0
 27 21  1  0  0  0  0
 28 27  1  6  0  0  0
 28 26  1  0  0  0  0
 29 31  1  0  0  0  0
 30 29  2  0  0  0  0
 32 34  1  0  0  0  0
 32 33  1  0  0  0  0
 34 33  1  0  0  0  0
M  END
>  <MODEL>
9

>  <REMARK>
 VINA RESULT:      -2.8      4.698      6.372
  Name = 
  2 active torsions:
  status: ('A' for Active; 'I' for Inactive)
    1  A    between atoms: C_3  and  C_25
    2  A    between atoms: C_7  and  C_11
                            x       y       z     vdW  Elec       q    Type
                         _______ _______ _______ _____ _____    ______ ____

>  <TORSDO>
F 2

$$$$
