=
 OpenBabel11052413193D

 31 34  0  0  1  0  0  0  0  0999 V2000
  189.6340  177.7520  140.6390 O   0  0  0  0  0  0  0  0  0  0  0  0
  189.1480  178.2430  139.4120 C   0  0  2  0  0  3  0  0  0  0  0  0
  187.3740  178.2170  141.4130 C   0  0  1  0  0  3  0  0  0  0  0  0
  187.1240  178.6940  140.1100 O   0  0  0  0  0  0  0  0  0  0  0  0
  188.8850  178.3540  141.6750 C   0  0  1  0  0  3  0  0  0  0  0  0
  187.7870  177.8920  139.2860 O   0  0  0  0  0  0  0  0  0  0  0  0
  189.2820  177.7680  143.0350 C   0  0  1  0  0  3  0  0  0  0  0  0
  190.2400  175.4500  142.8180 C   0  0  0  0  0  2  0  0  0  0  0  0
  188.9880  176.2610  143.1120 C   0  0  0  0  0  2  0  0  0  0  0  0
  191.3440  175.7610  143.8440 C   0  0  0  0  0  2  0  0  0  0  0  0
  190.6430  177.1840  145.6090 C   0  0  0  0  0  1  0  0  0  0  0  0
  190.7570  178.0940  143.3660 C   0  0  2  0  0  3  0  0  0  0  0  0
  191.3530  177.1510  144.3340 N   0  0  0  0  0  0  0  0  0  0  0  0
  190.9450  179.5380  143.8190 C   0  0  0  0  0  2  0  0  0  0  0  0
  192.2390  179.7290  144.3050 O   0  0  0  0  0  1  0  0  0  0  0  0
  186.5720  179.0320  142.4220 C   0  0  0  0  0  2  0  0  0  0  0  0
  185.8190  178.1460  143.4140 C   0  0  1  0  0  3  0  0  0  0  0  0
  185.7900  178.7660  144.8050 C   0  0  1  0  0  3  0  0  0  0  0  0
  184.7440  178.0740  145.6540 C   0  0  0  0  0  2  0  0  0  0  0  0
  186.2090  177.7270  145.8250 C   0  0  2  0  0  3  0  0  0  0  0  0
  186.7550  178.4350  147.0490 C   0  0  0  0  0  2  0  0  0  0  0  0
  187.8810  177.6230  147.6600 C   0  0  2  0  0  3  0  0  0  0  0  0
  187.9590  177.8800  149.1140 C   0  0  0  0  0  2  0  0  0  0  0  0
  188.8340  178.5020  148.2050 O   0  0  0  0  0  0  0  0  0  0  0  0
  184.5160  177.9100  142.9640 O   0  0  0  0  0  0  0  0  0  0  0  0
  184.1890  179.0310  142.2010 C   0  0  0  0  0  1  0  0  0  0  0  0
  189.9430  177.6240  138.2780 C   0  0  0  0  0  2  0  0  0  0  0  0
  190.6800  176.3850  138.7540 C   0  0  1  0  0  3  0  0  0  0  0  0
  190.0870  175.2550  138.2190 F   0  0  0  0  0  0  0  0  0  0  0  0
  192.4150  176.4660  138.2230 S   0  0  0  0  0  0  0  0  0  0  0  0
  192.9340  177.2570  139.7710 C   0  0  0  0  0  1  0  0  0  0  0  0
  2 27  1  6  0  0  0
  2  1  1  0  0  0  0
  3  5  1  0  0  0  0
  3 16  1  1  0  0  0
  4  3  1  0  0  0  0
  5  1  1  6  0  0  0
  5  7  1  0  0  0  0
  6  2  1  0  0  0  0
  6  4  1  0  0  0  0
  7  9  1  6  0  0  0
  7 12  1  0  0  0  0
  8  9  1  0  0  0  0
  8 10  1  0  0  0  0
 10 13  1  0  0  0  0
 12 14  1  1  0  0  0
 12 13  1  0  0  0  0
 13 11  1  0  0  0  0
 14 15  1  0  0  0  0
 17 16  1  6  0  0  0
 18 17  1  6  0  0  0
 18 19  1  0  0  0  0
 18 20  1  0  0  0  0
 19 20  1  0  0  0  0
 20 21  1  1  0  0  0
 22 21  1  6  0  0  0
 22 24  1  0  0  0  0
 22 23  1  0  0  0  0
 24 23  1  0  0  0  0
 25 17  1  0  0  0  0
 26 25  1  0  0  0  0
 27 28  1  0  0  0  0
 28 29  1  6  0  0  0
 30 28  1  0  0  0  0
 30 31  1  0  0  0  0
M  END
>  <MODEL>
1

>  <REMARK>
 VINA RESULT:      -6.9      0.000      0.000
  Name = 
  11 active torsions:
  status: ('A' for Active; 'I' for Inactive)
    1  A    between atoms: C_1  and  C_24
    2  A    between atoms: C_2  and  S_13
    3  A    between atoms: C_2  and  C_25
    4  A    between atoms: O_3  and  C_9
    5  A    between atoms: C_5  and  C_21
    6  A    between atoms: C_6  and  C_9
    7  A    between atoms: C_9  and  C_23
    8  A    between atoms: C_12  and  C_25
    9  A    between atoms: C_15  and  C_23
   10  A    between atoms: C_17  and  C_30
   11  A    between atoms: C_19  and  C_24
                            x       y       z     vdW  Elec       q    Type
                         _______ _______ _______ _____ _____    ______ ____

>  <TORSDO>
F 11

$$$$
=
 OpenBabel11052413193D

 31 34  0  0  1  0  0  0  0  0999 V2000
  187.1170  178.1390  140.5080 O   0  0  0  0  0  0  0  0  0  0  0  0
  186.4630  178.8050  141.5610 C   0  0  2  0  0  3  0  0  0  0  0  0
  188.2690  176.9820  142.3140 C   0  0  1  0  0  3  0  0  0  0  0  0
  187.5170  177.7920  143.1880 O   0  0  0  0  0  0  0  0  0  0  0  0
  188.3880  177.7320  140.9740 C   0  0  1  0  0  3  0  0  0  0  0  0
  186.3130  177.9130  142.6430 O   0  0  0  0  0  0  0  0  0  0  0  0
  189.1050  176.8910  139.9120 C   0  0  1  0  0  3  0  0  0  0  0  0
  188.5150  177.6190  137.5760 C   0  0  0  0  0  2  0  0  0  0  0  0
  188.2080  176.6320  138.6910 C   0  0  0  0  0  2  0  0  0  0  0  0
  189.9760  177.4840  137.1150 C   0  0  0  0  0  2  0  0  0  0  0  0
  191.1400  175.6760  138.1210 C   0  0  0  0  0  1  0  0  0  0  0  0
  190.4560  177.5330  139.5200 C   0  0  2  0  0  3  0  0  0  0  0  0
  190.9250  177.1190  138.1820 N   0  0  0  0  0  0  0  0  0  0  0  0
  191.5340  177.3070  140.5750 C   0  0  0  0  0  2  0  0  0  0  0  0
  192.7500  177.8400  140.1460 O   0  0  0  0  0  1  0  0  0  0  0  0
  189.6460  176.7170  142.9120 C   0  0  0  0  0  2  0  0  0  0  0  0
  189.8830  177.5140  144.1940 C   0  0  1  0  0  3  0  0  0  0  0  0
  189.0940  176.9390  145.3620 C   0  0  1  0  0  3  0  0  0  0  0  0
  189.7250  177.3710  146.6700 C   0  0  0  0  0  2  0  0  0  0  0  0
  188.4830  178.0740  146.1600 C   0  0  2  0  0  3  0  0  0  0  0  0
  187.2680  177.5520  146.9020 C   0  0  0  0  0  2  0  0  0  0  0  0
  186.2600  178.6670  147.0980 C   0  0  2  0  0  3  0  0  0  0  0  0
  184.9610  178.2850  146.5040 C   0  0  0  0  0  2  0  0  0  0  0  0
  185.8550  179.1430  145.8370 O   0  0  0  0  0  0  0  0  0  0  0  0
  191.2470  177.5460  144.5020 O   0  0  0  0  0  0  0  0  0  0  0  0
  191.6960  178.7770  144.0250 C   0  0  0  0  0  1  0  0  0  0  0  0
  185.0980  179.2670  141.0860 C   0  0  0  0  0  2  0  0  0  0  0  0
  183.9970  178.5850  141.8780 C   0  0  1  0  0  3  0  0  0  0  0  0
  183.7390  179.3010  143.0330 F   0  0  0  0  0  0  0  0  0  0  0  0
  182.4870  178.4990  140.8710 S   0  0  0  0  0  0  0  0  0  0  0  0
  183.3030  177.5050  139.5910 C   0  0  0  0  0  1  0  0  0  0  0  0
  1  2  1  0  0  0  0
  2 27  1  6  0  0  0
  2  6  1  0  0  0  0
  3 16  1  1  0  0  0
  3  4  1  0  0  0  0
  5  1  1  6  0  0  0
  5  3  1  0  0  0  0
  6  4  1  0  0  0  0
  7  9  1  6  0  0  0
  7  5  1  0  0  0  0
  8  9  1  0  0  0  0
 10  8  1  0  0  0  0
 10 13  1  0  0  0  0
 11 13  1  0  0  0  0
 12  7  1  0  0  0  0
 12 14  1  1  0  0  0
 13 12  1  0  0  0  0
 15 14  1  0  0  0  0
 17 16  1  6  0  0  0
 17 25  1  0  0  0  0
 18 17  1  6  0  0  0
 18 20  1  0  0  0  0
 18 19  1  0  0  0  0
 20 19  1  0  0  0  0
 20 21  1  1  0  0  0
 22 21  1  6  0  0  0
 23 22  1  0  0  0  0
 24 23  1  0  0  0  0
 24 22  1  0  0  0  0
 26 25  1  0  0  0  0
 27 28  1  0  0  0  0
 28 29  1  1  0  0  0
 30 28  1  0  0  0  0
 31 30  1  0  0  0  0
M  END
>  <MODEL>
2

>  <REMARK>
 VINA RESULT:      -6.0      3.174      5.417
  Name = 
  11 active torsions:
  status: ('A' for Active; 'I' for Inactive)
    1  A    between atoms: C_1  and  C_24
    2  A    between atoms: C_2  and  S_13
    3  A    between atoms: C_2  and  C_25
    4  A    between atoms: O_3  and  C_9
    5  A    between atoms: C_5  and  C_21
    6  A    between atoms: C_6  and  C_9
    7  A    between atoms: C_9  and  C_23
    8  A    between atoms: C_12  and  C_25
    9  A    between atoms: C_15  and  C_23
   10  A    between atoms: C_17  and  C_30
   11  A    between atoms: C_19  and  C_24
                            x       y       z     vdW  Elec       q    Type
                         _______ _______ _______ _____ _____    ______ ____

>  <TORSDO>
F 11

$$$$
=
 OpenBabel11052413193D

 31 34  0  0  1  0  0  0  0  0999 V2000
  184.6310  178.5590  138.5690 O   0  0  0  0  0  0  0  0  0  0  0  0
  184.0630  179.5270  139.4180 C   0  0  2  0  0  3  0  0  0  0  0  0
  186.3570  178.4580  140.2820 C   0  0  1  0  0  3  0  0  0  0  0  0
  185.6270  179.4640  140.9460 O   0  0  0  0  0  0  0  0  0  0  0  0
  186.0280  178.5610  138.7810 C   0  0  1  0  0  3  0  0  0  0  0  0
  184.3440  179.1810  140.7570 O   0  0  0  0  0  0  0  0  0  0  0  0
  186.6960  177.4420  137.9740 C   0  0  1  0  0  3  0  0  0  0  0  0
  185.3640  176.8340  135.9260 C   0  0  0  0  0  2  0  0  0  0  0  0
  185.6590  176.4780  137.3740 C   0  0  0  0  0  2  0  0  0  0  0  0
  186.6390  176.7360  135.0700 C   0  0  0  0  0  2  0  0  0  0  0  0
  188.5150  175.8650  136.2340 C   0  0  0  0  0  1  0  0  0  0  0  0
  187.6420  178.0260  136.9000 C   0  0  2  0  0  3  0  0  0  0  0  0
  187.8810  177.0970  135.7760 N   0  0  0  0  0  0  0  0  0  0  0  0
  188.9570  178.5220  137.4920 C   0  0  0  0  0  2  0  0  0  0  0  0
  189.0010  179.9160  137.4730 O   0  0  0  0  0  1  0  0  0  0  0  0
  187.8490  178.6560  140.5270 C   0  0  0  0  0  2  0  0  0  0  0  0
  188.3510  177.8530  141.7260 C   0  0  1  0  0  3  0  0  0  0  0  0
  187.1960  177.3170  142.5610 C   0  0  1  0  0  3  0  0  0  0  0  0
  187.7310  176.4470  143.6800 C   0  0  0  0  0  2  0  0  0  0  0  0
  187.2980  177.8700  143.9690 C   0  0  2  0  0  3  0  0  0  0  0  0
  185.9200  177.8580  144.6010 C   0  0  0  0  0  2  0  0  0  0  0  0
  185.7800  179.0230  145.5610 C   0  0  2  0  0  3  0  0  0  0  0  0
  185.5680  178.5220  146.9360 C   0  0  0  0  0  2  0  0  0  0  0  0
  184.5000  178.9820  146.1440 O   0  0  0  0  0  0  0  0  0  0  0  0
  189.1660  176.7990  141.2990 O   0  0  0  0  0  0  0  0  0  0  0  0
  190.4670  177.2970  141.3720 C   0  0  0  0  0  1  0  0  0  0  0  0
  182.5620  179.5600  139.2030 C   0  0  0  0  0  2  0  0  0  0  0  0
  181.8580  178.6570  140.2010 C   0  0  1  0  0  3  0  0  0  0  0  0
  180.9370  179.3910  140.9260 F   0  0  0  0  0  0  0  0  0  0  0  0
  181.0030  177.3210  139.3160 S   0  0  0  0  0  0  0  0  0  0  0  0
  182.3800  176.1660  139.5690 C   0  0  0  0  0  1  0  0  0  0  0  0
  1  2  1  0  0  0  0
  2 27  1  1  0  0  0
  2  6  1  0  0  0  0
  3 16  1  6  0  0  0
  3  4  1  0  0  0  0
  5  1  1  1  0  0  0
  5  3  1  0  0  0  0
  6  4  1  0  0  0  0
  7  9  1  6  0  0  0
  7  5  1  0  0  0  0
  8  9  1  0  0  0  0
 10 13  1  0  0  0  0
 10  8  1  0  0  0  0
 12 14  1  1  0  0  0
 12  7  1  0  0  0  0
 13 11  1  0  0  0  0
 13 12  1  0  0  0  0
 15 14  1  0  0  0  0
 17 16  1  6  0  0  0
 18 17  1  6  0  0  0
 18 19  1  0  0  0  0
 18 20  1  0  0  0  0
 19 20  1  0  0  0  0
 20 21  1  1  0  0  0
 22 21  1  6  0  0  0
 22 24  1  0  0  0  0
 22 23  1  0  0  0  0
 24 23  1  0  0  0  0
 25 26  1  0  0  0  0
 25 17  1  0  0  0  0
 27 28  1  0  0  0  0
 28 29  1  6  0  0  0
 30 31  1  0  0  0  0
 30 28  1  0  0  0  0
M  END
>  <MODEL>
3

>  <REMARK>
 VINA RESULT:      -6.0      4.160      6.575
  Name = 
  11 active torsions:
  status: ('A' for Active; 'I' for Inactive)
    1  A    between atoms: C_1  and  C_24
    2  A    between atoms: C_2  and  S_13
    3  A    between atoms: C_2  and  C_25
    4  A    between atoms: O_3  and  C_9
    5  A    between atoms: C_5  and  C_21
    6  A    between atoms: C_6  and  C_9
    7  A    between atoms: C_9  and  C_23
    8  A    between atoms: C_12  and  C_25
    9  A    between atoms: C_15  and  C_23
   10  A    between atoms: C_17  and  C_30
   11  A    between atoms: C_19  and  C_24
                            x       y       z     vdW  Elec       q    Type
                         _______ _______ _______ _____ _____    ______ ____

>  <TORSDO>
F 11

$$$$
=
 OpenBabel11052413193D

 31 34  0  0  1  0  0  0  0  0999 V2000
  189.3880  178.0130  141.0020 O   0  0  0  0  0  0  0  0  0  0  0  0
  188.7250  178.5680  139.8920 C   0  0  2  0  0  3  0  0  0  0  0  0
  187.1610  177.9960  141.9830 C   0  0  1  0  0  3  0  0  0  0  0  0
  186.7260  178.5850  140.7800 O   0  0  0  0  0  0  0  0  0  0  0  0
  188.6500  178.3470  142.1600 C   0  0  1  0  0  3  0  0  0  0  0  0
  187.4300  178.0150  139.8090 O   0  0  0  0  0  0  0  0  0  0  0  0
  189.2530  177.6680  143.3950 C   0  0  1  0  0  3  0  0  0  0  0  0
  190.2990  175.4490  142.8340 C   0  0  0  0  0  2  0  0  0  0  0  0
  189.0540  176.1440  143.3590 C   0  0  0  0  0  2  0  0  0  0  0  0
  191.5080  175.7380  143.7400 C   0  0  0  0  0  2  0  0  0  0  0  0
  190.9670  176.9460  145.7100 C   0  0  0  0  0  1  0  0  0  0  0  0
  190.7370  178.0600  143.5710 C   0  0  2  0  0  3  0  0  0  0  0  0
  191.5050  177.0750  144.3600 N   0  0  0  0  0  0  0  0  0  0  0  0
  190.9030  179.4670  144.1370 C   0  0  0  0  0  2  0  0  0  0  0  0
  192.2560  179.7660  144.3030 O   0  0  0  0  0  1  0  0  0  0  0  0
  186.3350  178.5320  143.1470 C   0  0  0  0  0  2  0  0  0  0  0  0
  185.0240  179.1660  142.6830 C   0  0  1  0  0  3  0  0  0  0  0  0
  184.0240  178.1100  142.2290 C   0  0  1  0  0  3  0  0  0  0  0  0
  182.6410  178.7210  142.1300 C   0  0  0  0  0  2  0  0  0  0  0  0
  183.4630  178.5010  140.8770 C   0  0  2  0  0  3  0  0  0  0  0  0
  182.9770  177.2520  140.1680 C   0  0  0  0  0  2  0  0  0  0  0  0
  181.4890  177.3550  139.8940 C   0  0  2  0  0  3  0  0  0  0  0  0
  180.9310  176.0150  139.6190 C   0  0  0  0  0  2  0  0  0  0  0  0
  181.2360  176.9150  138.5820 O   0  0  0  0  0  0  0  0  0  0  0  0
  184.4710  179.9450  143.7040 O   0  0  0  0  0  0  0  0  0  0  0  0
  184.8740  179.3270  144.8880 C   0  0  0  0  0  1  0  0  0  0  0  0
  189.5030  178.2390  138.6310 C   0  0  0  0  0  2  0  0  0  0  0  0
  188.5720  177.7280  137.5460 C   0  0  1  0  0  3  0  0  0  0  0  0
  188.5380  178.6290  136.4980 F   0  0  0  0  0  0  0  0  0  0  0  0
  189.1660  176.1210  136.9420 S   0  0  0  0  0  0  0  0  0  0  0  0
  187.5090  175.3870  137.0320 C   0  0  0  0  0  1  0  0  0  0  0  0
  2 27  1  6  0  0  0
  2  1  1  0  0  0  0
  3  5  1  0  0  0  0
  3 16  1  1  0  0  0
  4  3  1  0  0  0  0
  5  1  1  6  0  0  0
  5  7  1  0  0  0  0
  6  2  1  0  0  0  0
  6  4  1  0  0  0  0
  7  9  1  6  0  0  0
  7 12  1  0  0  0  0
  8  9  1  0  0  0  0
  8 10  1  0  0  0  0
 10 13  1  0  0  0  0
 12 14  1  1  0  0  0
 12 13  1  0  0  0  0
 13 11  1  0  0  0  0
 14 15  1  0  0  0  0
 17 16  1  1  0  0  0
 17 25  1  0  0  0  0
 18 17  1  1  0  0  0
 19 18  1  0  0  0  0
 20 21  1  6  0  0  0
 20 19  1  0  0  0  0
 20 18  1  0  0  0  0
 22 21  1  6  0  0  0
 23 22  1  0  0  0  0
 24 23  1  0  0  0  0
 24 22  1  0  0  0  0
 25 26  1  0  0  0  0
 28 29  1  6  0  0  0
 28 27  1  0  0  0  0
 30 31  1  0  0  0  0
 30 28  1  0  0  0  0
M  END
>  <MODEL>
4

>  <REMARK>
 VINA RESULT:      -5.9      2.144      4.460
  Name = 
  11 active torsions:
  status: ('A' for Active; 'I' for Inactive)
    1  A    between atoms: C_1  and  C_24
    2  A    between atoms: C_2  and  S_13
    3  A    between atoms: C_2  and  C_25
    4  A    between atoms: O_3  and  C_9
    5  A    between atoms: C_5  and  C_21
    6  A    between atoms: C_6  and  C_9
    7  A    between atoms: C_9  and  C_23
    8  A    between atoms: C_12  and  C_25
    9  A    between atoms: C_15  and  C_23
   10  A    between atoms: C_17  and  C_30
   11  A    between atoms: C_19  and  C_24
                            x       y       z     vdW  Elec       q    Type
                         _______ _______ _______ _____ _____    ______ ____

>  <TORSDO>
F 11

$$$$
=
 OpenBabel11052413193D

 31 34  0  0  1  0  0  0  0  0999 V2000
  189.2220  177.8960  143.6670 O   0  0  0  0  0  0  0  0  0  0  0  0
  190.6000  178.0680  143.4420 C   0  0  2  0  0  3  0  0  0  0  0  0
  189.2150  177.1200  141.3600 C   0  0  1  0  0  3  0  0  0  0  0  0
  190.5950  177.4020  141.3580 O   0  0  0  0  0  0  0  0  0  0  0  0
  188.5600  178.0200  142.4250 C   0  0  1  0  0  3  0  0  0  0  0  0
  191.0480  177.0630  142.5590 O   0  0  0  0  0  0  0  0  0  0  0  0
  187.0640  177.7200  142.5810 C   0  0  1  0  0  3  0  0  0  0  0  0
  186.1920  178.4280  144.8340 C   0  0  0  0  0  2  0  0  0  0  0  0
  186.7220  177.2660  144.0090 C   0  0  0  0  0  2  0  0  0  0  0  0
  184.9080  178.9990  144.2090 C   0  0  0  0  0  2  0  0  0  0  0  0
  184.1030  177.7530  142.3570 C   0  0  0  0  0  1  0  0  0  0  0  0
  186.2100  178.9280  142.1320 C   0  0  2  0  0  3  0  0  0  0  0  0
  184.8630  178.9390  142.7370 N   0  0  0  0  0  0  0  0  0  0  0  0
  186.1310  179.0500  140.6130 C   0  0  0  0  0  2  0  0  0  0  0  0
  185.0090  179.7920  140.2450 O   0  0  0  0  0  1  0  0  0  0  0  0
  188.6290  177.3970  139.9800 C   0  0  0  0  0  2  0  0  0  0  0  0
  189.7120  177.6790  138.9380 C   0  0  1  0  0  3  0  0  0  0  0  0
  190.1510  176.4030  138.2320 C   0  0  1  0  0  3  0  0  0  0  0  0
  190.6390  176.7310  136.8360 C   0  0  0  0  0  2  0  0  0  0  0  0
  191.6380  176.4760  137.9460 C   0  0  2  0  0  3  0  0  0  0  0  0
  192.1820  175.0670  137.8210 C   0  0  0  0  0  2  0  0  0  0  0  0
  193.6970  175.0870  137.8880 C   0  0  2  0  0  3  0  0  0  0  0  0
  194.2650  174.4410  136.6860 C   0  0  0  0  0  2  0  0  0  0  0  0
  194.1700  173.7620  137.9150 O   0  0  0  0  0  0  0  0  0  0  0  0
  189.2570  178.6150  138.0040 O   0  0  0  0  0  0  0  0  0  0  0  0
  187.9400  178.2420  137.7320 C   0  0  0  0  0  1  0  0  0  0  0  0
  191.3390  177.9560  144.7620 C   0  0  0  0  0  2  0  0  0  0  0  0
  191.0780  176.6070  145.4080 C   0  0  1  0  0  3  0  0  0  0  0  0
  192.1220  175.7440  145.1280 F   0  0  0  0  0  0  0  0  0  0  0  0
  190.9300  176.8120  147.2070 S   0  0  0  0  0  0  0  0  0  0  0  0
  189.1400  177.0890  147.1080 C   0  0  0  0  0  1  0  0  0  0  0  0
  2  1  1  0  0  0  0
  2 27  1  1  0  0  0
  3 16  1  6  0  0  0
  3  5  1  0  0  0  0
  4  3  1  0  0  0  0
  4  6  1  0  0  0  0
  5  7  1  0  0  0  0
  5  1  1  1  0  0  0
  6  2  1  0  0  0  0
  7  9  1  1  0  0  0
  9  8  1  0  0  0  0
 10  8  1  0  0  0  0
 11 13  1  0  0  0  0
 12 14  1  6  0  0  0
 12  7  1  0  0  0  0
 12 13  1  0  0  0  0
 13 10  1  0  0  0  0
 15 14  1  0  0  0  0
 17 16  1  1  0  0  0
 18 17  1  1  0  0  0
 19 20  1  0  0  0  0
 19 18  1  0  0  0  0
 20 21  1  6  0  0  0
 20 18  1  0  0  0  0
 22 21  1  6  0  0  0
 22 24  1  0  0  0  0
 23 22  1  0  0  0  0
 23 24  1  0  0  0  0
 25 17  1  0  0  0  0
 26 25  1  0  0  0  0
 27 28  1  0  0  0  0
 28 29  1  1  0  0  0
 28 30  1  0  0  0  0
 31 30  1  0  0  0  0
M  END
>  <MODEL>
5

>  <REMARK>
 VINA RESULT:      -5.8      3.190      7.434
  Name = 
  11 active torsions:
  status: ('A' for Active; 'I' for Inactive)
    1  A    between atoms: C_1  and  C_24
    2  A    between atoms: C_2  and  S_13
    3  A    between atoms: C_2  and  C_25
    4  A    between atoms: O_3  and  C_9
    5  A    between atoms: C_5  and  C_21
    6  A    between atoms: C_6  and  C_9
    7  A    between atoms: C_9  and  C_23
    8  A    between atoms: C_12  and  C_25
    9  A    between atoms: C_15  and  C_23
   10  A    between atoms: C_17  and  C_30
   11  A    between atoms: C_19  and  C_24
                            x       y       z     vdW  Elec       q    Type
                         _______ _______ _______ _____ _____    ______ ____

>  <TORSDO>
F 11

$$$$
=
 OpenBabel11052413193D

 31 34  0  0  1  0  0  0  0  0999 V2000
  188.6350  177.2330  141.4020 O   0  0  0  0  0  0  0  0  0  0  0  0
  188.2110  176.7910  142.6690 C   0  0  2  0  0  3  0  0  0  0  0  0
  186.6790  178.6740  141.5480 C   0  0  1  0  0  3  0  0  0  0  0  0
  186.4340  178.0610  142.7920 O   0  0  0  0  0  0  0  0  0  0  0  0
  187.4970  177.6850  140.6960 C   0  0  1  0  0  3  0  0  0  0  0  0
  187.6210  177.8720  143.3560 O   0  0  0  0  0  0  0  0  0  0  0  0
  187.9060  178.2950  139.3510 C   0  0  1  0  0  3  0  0  0  0  0  0
  190.1110  177.3920  138.5390 C   0  0  0  0  0  2  0  0  0  0  0  0
  189.4230  178.5320  139.2730 C   0  0  0  0  0  2  0  0  0  0  0  0
  189.5840  177.2750  137.0980 C   0  0  0  0  0  2  0  0  0  0  0  0
  188.0920  179.0120  136.4750 C   0  0  0  0  0  1  0  0  0  0  0  0
  187.3870  177.4360  138.1750 C   0  0  2  0  0  3  0  0  0  0  0  0
  188.1630  177.6290  136.9330 N   0  0  0  0  0  0  0  0  0  0  0  0
  185.8950  177.6340  137.9260 C   0  0  0  0  0  2  0  0  0  0  0  0
  185.4020  176.6180  137.1070 O   0  0  0  0  0  1  0  0  0  0  0  0
  185.3550  179.0090  140.8690 C   0  0  0  0  0  2  0  0  0  0  0  0
  184.1530  178.4840  141.6530 C   0  0  1  0  0  3  0  0  0  0  0  0
  183.8640  179.3480  142.8740 C   0  0  1  0  0  3  0  0  0  0  0  0
  182.5070  178.9900  143.4450 C   0  0  0  0  0  2  0  0  0  0  0  0
  183.7670  178.4630  144.1010 C   0  0  2  0  0  3  0  0  0  0  0  0
  184.0820  179.2940  145.3290 C   0  0  0  0  0  2  0  0  0  0  0  0
  185.4640  178.9500  145.8500 C   0  0  2  0  0  3  0  0  0  0  0  0
  185.3570  178.2730  147.1590 C   0  0  0  0  0  2  0  0  0  0  0  0
  185.6810  179.6390  147.0570 O   0  0  0  0  0  0  0  0  0  0  0  0
  183.0250  178.4200  140.8290 O   0  0  0  0  0  0  0  0  0  0  0  0
  183.0640  177.1460  140.2630 C   0  0  0  0  0  1  0  0  0  0  0  0
  189.4110  176.2840  143.4470 C   0  0  0  0  0  2  0  0  0  0  0  0
  189.7410  177.2240  144.5930 C   0  0  1  0  0  3  0  0  0  0  0  0
  189.1690  176.7540  145.7610 F   0  0  0  0  0  0  0  0  0  0  0  0
  191.5430  177.3230  144.8000 S   0  0  0  0  0  0  0  0  0  0  0  0
  191.7950  175.6770  144.0800 C   0  0  0  0  0  1  0  0  0  0  0  0
  1  2  1  0  0  0  0
  2  6  1  0  0  0  0
  2 27  1  1  0  0  0
  3 16  1  6  0  0  0
  3  4  1  0  0  0  0
  4  6  1  0  0  0  0
  5  1  1  1  0  0  0
  5  3  1  0  0  0  0
  7  9  1  1  0  0  0
  7  5  1  0  0  0  0
  8  9  1  0  0  0  0
 10  8  1  0  0  0  0
 11 13  1  0  0  0  0
 12 14  1  6  0  0  0
 12  7  1  0  0  0  0
 13 10  1  0  0  0  0
 13 12  1  0  0  0  0
 15 14  1  0  0  0  0
 17 16  1  6  0  0  0
 18 17  1  6  0  0  0
 18 19  1  0  0  0  0
 18 20  1  0  0  0  0
 19 20  1  0  0  0  0
 20 21  1  1  0  0  0
 22 21  1  1  0  0  0
 22 24  1  0  0  0  0
 22 23  1  0  0  0  0
 24 23  1  0  0  0  0
 25 17  1  0  0  0  0
 26 25  1  0  0  0  0
 27 28  1  0  0  0  0
 28 30  1  0  0  0  0
 28 29  1  1  0  0  0
 31 30  1  0  0  0  0
M  END
>  <MODEL>
6

>  <REMARK>
 VINA RESULT:      -5.7      3.049      5.119
  Name = 
  11 active torsions:
  status: ('A' for Active; 'I' for Inactive)
    1  A    between atoms: C_1  and  C_24
    2  A    between atoms: C_2  and  S_13
    3  A    between atoms: C_2  and  C_25
    4  A    between atoms: O_3  and  C_9
    5  A    between atoms: C_5  and  C_21
    6  A    between atoms: C_6  and  C_9
    7  A    between atoms: C_9  and  C_23
    8  A    between atoms: C_12  and  C_25
    9  A    between atoms: C_15  and  C_23
   10  A    between atoms: C_17  and  C_30
   11  A    between atoms: C_19  and  C_24
                            x       y       z     vdW  Elec       q    Type
                         _______ _______ _______ _____ _____    ______ ____

>  <TORSDO>
F 11

$$$$
=
 OpenBabel11052413193D

 31 34  0  0  1  0  0  0  0  0999 V2000
  188.6360  178.2030  143.0290 O   0  0  0  0  0  0  0  0  0  0  0  0
  189.9990  178.4770  142.8100 C   0  0  2  0  0  3  0  0  0  0  0  0
  188.6790  177.4990  140.6990 C   0  0  1  0  0  3  0  0  0  0  0  0
  190.0370  177.8760  140.7070 O   0  0  0  0  0  0  0  0  0  0  0  0
  187.9650  178.3190  141.7900 C   0  0  1  0  0  3  0  0  0  0  0  0
  190.5140  177.5320  141.8970 O   0  0  0  0  0  0  0  0  0  0  0  0
  186.4940  177.9120  141.9360 C   0  0  1  0  0  3  0  0  0  0  0  0
  185.5220  178.6630  144.1330 C   0  0  0  0  0  2  0  0  0  0  0  0
  186.1580  177.5060  143.3790 C   0  0  0  0  0  2  0  0  0  0  0  0
  184.2110  179.1000  143.4560 C   0  0  0  0  0  2  0  0  0  0  0  0
  183.5440  177.7020  141.6580 C   0  0  0  0  0  1  0  0  0  0  0  0
  185.5600  179.0250  141.4080 C   0  0  2  0  0  3  0  0  0  0  0  0
  184.2030  178.9620  141.9890 N   0  0  0  0  0  0  0  0  0  0  0  0
  185.5040  179.0630  139.8840 C   0  0  0  0  0  2  0  0  0  0  0  0
  184.6050  180.0400  139.4570 O   0  0  0  0  0  1  0  0  0  0  0  0
  188.0750  177.7780  139.3270 C   0  0  0  0  0  2  0  0  0  0  0  0
  188.7720  176.9930  138.2170 C   0  0  1  0  0  3  0  0  0  0  0  0
  187.7730  176.4570  137.2010 C   0  0  1  0  0  3  0  0  0  0  0  0
  188.4900  175.5990  136.1780 C   0  0  0  0  0  2  0  0  0  0  0  0
  187.7150  174.9460  137.3050 C   0  0  2  0  0  3  0  0  0  0  0  0
  186.3730  174.4700  136.7830 C   0  0  0  0  0  2  0  0  0  0  0  0
  186.1190  173.0430  137.2280 C   0  0  2  0  0  3  0  0  0  0  0  0
  184.8590  172.5460  136.6380 C   0  0  0  0  0  2  0  0  0  0  0  0
  184.9230  173.0020  137.9670 O   0  0  0  0  0  0  0  0  0  0  0  0
  189.7260  177.7940  137.5800 O   0  0  0  0  0  0  0  0  0  0  0  0
  189.0660  178.9920  137.3070 C   0  0  0  0  0  1  0  0  0  0  0  0
  190.7450  178.3750  144.1260 C   0  0  0  0  0  2  0  0  0  0  0  0
  190.4420  177.0550  144.8130 C   0  0  1  0  0  3  0  0  0  0  0  0
  191.6180  176.3610  145.0300 F   0  0  0  0  0  0  0  0  0  0  0  0
  189.6240  177.3690  146.4030 S   0  0  0  0  0  0  0  0  0  0  0  0
  191.0200  176.6950  147.3450 C   0  0  0  0  0  1  0  0  0  0  0  0
  2  1  1  0  0  0  0
  2 27  1  1  0  0  0
  3 16  1  6  0  0  0
  3  4  1  0  0  0  0
  3  5  1  0  0  0  0
  4  6  1  0  0  0  0
  5  7  1  0  0  0  0
  5  1  1  1  0  0  0
  6  2  1  0  0  0  0
  7  9  1  1  0  0  0
  9  8  1  0  0  0  0
 10  8  1  0  0  0  0
 11 13  1  0  0  0  0
 12 14  1  6  0  0  0
 12  7  1  0  0  0  0
 12 13  1  0  0  0  0
 13 10  1  0  0  0  0
 15 14  1  0  0  0  0
 17 16  1  1  0  0  0
 18 20  1  0  0  0  0
 18 17  1  1  0  0  0
 19 18  1  0  0  0  0
 19 20  1  0  0  0  0
 20 21  1  6  0  0  0
 22 21  1  6  0  0  0
 22 24  1  0  0  0  0
 23 22  1  0  0  0  0
 23 24  1  0  0  0  0
 25 17  1  0  0  0  0
 26 25  1  0  0  0  0
 27 28  1  0  0  0  0
 28 29  1  1  0  0  0
 28 30  1  0  0  0  0
 30 31  1  0  0  0  0
M  END
>  <MODEL>
7

>  <REMARK>
 VINA RESULT:      -5.7      3.666      7.446
  Name = 
  11 active torsions:
  status: ('A' for Active; 'I' for Inactive)
    1  A    between atoms: C_1  and  C_24
    2  A    between atoms: C_2  and  S_13
    3  A    between atoms: C_2  and  C_25
    4  A    between atoms: O_3  and  C_9
    5  A    between atoms: C_5  and  C_21
    6  A    between atoms: C_6  and  C_9
    7  A    between atoms: C_9  and  C_23
    8  A    between atoms: C_12  and  C_25
    9  A    between atoms: C_15  and  C_23
   10  A    between atoms: C_17  and  C_30
   11  A    between atoms: C_19  and  C_24
                            x       y       z     vdW  Elec       q    Type
                         _______ _______ _______ _____ _____    ______ ____

>  <TORSDO>
F 11

$$$$
=
 OpenBabel11052413193D

 31 34  0  0  1  0  0  0  0  0999 V2000
  185.2110  178.1750  138.6300 O   0  0  0  0  0  0  0  0  0  0  0  0
  184.6020  179.0920  139.5080 C   0  0  2  0  0  3  0  0  0  0  0  0
  187.0340  178.2540  140.2420 C   0  0  1  0  0  3  0  0  0  0  0  0
  186.2500  179.1920  140.9430 O   0  0  0  0  0  0  0  0  0  0  0  0
  186.6110  178.3120  138.7620 C   0  0  1  0  0  3  0  0  0  0  0  0
  184.9910  178.7870  140.8290 O   0  0  0  0  0  0  0  0  0  0  0  0
  187.3360  177.2540  137.9210 C   0  0  1  0  0  3  0  0  0  0  0  0
  185.8610  176.3190  136.1090 C   0  0  0  0  0  2  0  0  0  0  0  0
  186.3950  176.1080  137.5170 C   0  0  0  0  0  2  0  0  0  0  0  0
  187.0120  176.3560  135.0890 C   0  0  0  0  0  2  0  0  0  0  0  0
  189.1380  175.8570  136.0190 C   0  0  0  0  0  1  0  0  0  0  0  0
  188.0290  177.9010  136.7000 C   0  0  2  0  0  3  0  0  0  0  0  0
  188.2640  176.9460  135.5980 N   0  0  0  0  0  0  0  0  0  0  0  0
  189.3160  178.6280  137.0800 C   0  0  0  0  0  2  0  0  0  0  0  0
  189.0540  179.9740  137.3370 O   0  0  0  0  0  1  0  0  0  0  0  0
  188.5110  178.5970  140.3990 C   0  0  0  0  0  2  0  0  0  0  0  0
  189.2580  177.5650  141.2430 C   0  0  1  0  0  3  0  0  0  0  0  0
  188.3850  177.0290  142.3700 C   0  0  1  0  0  3  0  0  0  0  0  0
  189.1740  176.0400  143.2040 C   0  0  0  0  0  2  0  0  0  0  0  0
  188.9700  177.4570  143.7020 C   0  0  2  0  0  3  0  0  0  0  0  0
  187.8650  177.4730  144.7390 C   0  0  0  0  0  2  0  0  0  0  0  0
  188.3880  178.0350  146.0470 C   0  0  2  0  0  3  0  0  0  0  0  0
  188.4950  176.9590  147.0540 C   0  0  0  0  0  2  0  0  0  0  0  0
  187.4120  177.8560  147.0440 O   0  0  0  0  0  0  0  0  0  0  0  0
  189.7070  176.5120  140.4390 O   0  0  0  0  0  0  0  0  0  0  0  0
  190.8580  176.9980  139.8180 C   0  0  0  0  0  1  0  0  0  0  0  0
  183.0950  178.9780  139.3790 C   0  0  0  0  0  2  0  0  0  0  0  0
  182.5260  178.1140  140.4910 C   0  0  1  0  0  3  0  0  0  0  0  0
  181.9140  178.9150  141.4380 F   0  0  0  0  0  0  0  0  0  0  0  0
  181.3080  176.9570  139.8000 S   0  0  0  0  0  0  0  0  0  0  0  0
  182.6000  175.8580  139.1570 C   0  0  0  0  0  1  0  0  0  0  0  0
  1  2  1  0  0  0  0
  2 27  1  1  0  0  0
  2  6  1  0  0  0  0
  3 16  1  6  0  0  0
  3  4  1  0  0  0  0
  5  1  1  1  0  0  0
  5  3  1  0  0  0  0
  6  4  1  0  0  0  0
  7  9  1  6  0  0  0
  7  5  1  0  0  0  0
  8  9  1  0  0  0  0
 10 13  1  0  0  0  0
 10  8  1  0  0  0  0
 12 14  1  1  0  0  0
 12  7  1  0  0  0  0
 13 11  1  0  0  0  0
 13 12  1  0  0  0  0
 14 15  1  0  0  0  0
 17 16  1  6  0  0  0
 18 17  1  6  0  0  0
 18 19  1  0  0  0  0
 18 20  1  0  0  0  0
 19 20  1  0  0  0  0
 20 21  1  1  0  0  0
 22 21  1  6  0  0  0
 22 24  1  0  0  0  0
 22 23  1  0  0  0  0
 24 23  1  0  0  0  0
 25 17  1  0  0  0  0
 26 25  1  0  0  0  0
 27 28  1  0  0  0  0
 28 29  1  1  0  0  0
 30 28  1  0  0  0  0
 31 30  1  0  0  0  0
M  END
>  <MODEL>
8

>  <REMARK>
 VINA RESULT:      -5.7      3.942      6.434
  Name = 
  11 active torsions:
  status: ('A' for Active; 'I' for Inactive)
    1  A    between atoms: C_1  and  C_24
    2  A    between atoms: C_2  and  S_13
    3  A    between atoms: C_2  and  C_25
    4  A    between atoms: O_3  and  C_9
    5  A    between atoms: C_5  and  C_21
    6  A    between atoms: C_6  and  C_9
    7  A    between atoms: C_9  and  C_23
    8  A    between atoms: C_12  and  C_25
    9  A    between atoms: C_15  and  C_23
   10  A    between atoms: C_17  and  C_30
   11  A    between atoms: C_19  and  C_24
                            x       y       z     vdW  Elec       q    Type
                         _______ _______ _______ _____ _____    ______ ____

>  <TORSDO>
F 11

$$$$
=
 OpenBabel11052413193D

 31 34  0  0  1  0  0  0  0  0999 V2000
  184.2210  178.2710  142.2110 O   0  0  0  0  0  0  0  0  0  0  0  0
  184.0190  177.9290  140.8610 C   0  0  2  0  0  3  0  0  0  0  0  0
  186.3710  179.0790  141.4060 C   0  0  1  0  0  3  0  0  0  0  0  0
  185.9630  178.6240  140.1360 O   0  0  0  0  0  0  0  0  0  0  0  0
  185.6120  178.2530  142.4600 C   0  0  1  0  0  3  0  0  0  0  0  0
  184.6640  178.8830  140.0460 O   0  0  0  0  0  0  0  0  0  0  0  0
  185.9090  178.7370  143.8850 C   0  0  1  0  0  3  0  0  0  0  0  0
  183.8260  178.8550  145.2930 C   0  0  0  0  0  2  0  0  0  0  0  0
  184.7900  179.6440  144.4210 C   0  0  0  0  0  2  0  0  0  0  0  0
  184.5560  178.2530  146.5050 C   0  0  0  0  0  2  0  0  0  0  0  0
  186.8190  178.9400  146.7040 C   0  0  0  0  0  1  0  0  0  0  0  0
  186.1960  177.5430  144.8240 C   0  0  2  0  0  3  0  0  0  0  0  0
  185.9530  177.8580  146.2470 N   0  0  0  0  0  0  0  0  0  0  0  0
  187.5930  176.9660  144.6200 C   0  0  0  0  0  2  0  0  0  0  0  0
  187.5700  175.9800  143.6330 O   0  0  0  0  0  1  0  0  0  0  0  0
  187.8780  178.9000  141.5570 C   0  0  0  0  0  2  0  0  0  0  0  0
  188.4220  177.7890  140.6590 C   0  0  1  0  0  3  0  0  0  0  0  0
  189.0540  178.3550  139.3940 C   0  0  1  0  0  3  0  0  0  0  0  0
  189.8100  177.2620  138.6650 C   0  0  0  0  0  2  0  0  0  0  0  0
  188.4360  177.6850  138.1830 C   0  0  2  0  0  3  0  0  0  0  0  0
  188.5830  178.6040  136.9870 C   0  0  0  0  0  2  0  0  0  0  0  0
  188.6810  177.7880  135.7130 C   0  0  2  0  0  3  0  0  0  0  0  0
  187.4140  177.8770  134.9560 C   0  0  0  0  0  2  0  0  0  0  0  0
  187.7210  176.7600  135.7550 O   0  0  0  0  0  0  0  0  0  0  0  0
  189.3520  177.0110  141.3560 O   0  0  0  0  0  0  0  0  0  0  0  0
  190.0180  177.9070  142.1920 C   0  0  0  0  0  1  0  0  0  0  0  0
  182.5310  177.9260  140.5650 C   0  0  0  0  0  2  0  0  0  0  0  0
  182.0760  179.2950  140.0930 C   0  0  1  0  0  3  0  0  0  0  0  0
  182.0750  179.3360  138.7110 F   0  0  0  0  0  0  0  0  0  0  0  0
  180.4000  179.6260  140.7090 S   0  0  0  0  0  0  0  0  0  0  0  0
  180.8980  179.3670  142.4340 C   0  0  0  0  0  1  0  0  0  0  0  0
  2 27  1  6  0  0  0
  2  1  1  0  0  0  0
  3 16  1  1  0  0  0
  3  5  1  0  0  0  0
  4  3  1  0  0  0  0
  5  1  1  6  0  0  0
  5  7  1  0  0  0  0
  6  4  1  0  0  0  0
  6  2  1  0  0  0  0
  7  9  1  1  0  0  0
  7 12  1  0  0  0  0
  8 10  1  0  0  0  0
  9  8  1  0  0  0  0
 12 14  1  1  0  0  0
 12 13  1  0  0  0  0
 13 10  1  0  0  0  0
 13 11  1  0  0  0  0
 15 14  1  0  0  0  0
 17 25  1  0  0  0  0
 17 16  1  1  0  0  0
 18 17  1  1  0  0  0
 19 18  1  0  0  0  0
 20 21  1  6  0  0  0
 20 19  1  0  0  0  0
 20 18  1  0  0  0  0
 22 24  1  0  0  0  0
 22 21  1  1  0  0  0
 23 22  1  0  0  0  0
 23 24  1  0  0  0  0
 25 26  1  0  0  0  0
 28 29  1  6  0  0  0
 28 27  1  0  0  0  0
 28 30  1  0  0  0  0
 30 31  1  0  0  0  0
M  END
>  <MODEL>
9

>  <REMARK>
 VINA RESULT:      -5.6      3.638      7.592
  Name = 
  11 active torsions:
  status: ('A' for Active; 'I' for Inactive)
    1  A    between atoms: C_1  and  C_24
    2  A    between atoms: C_2  and  S_13
    3  A    between atoms: C_2  and  C_25
    4  A    between atoms: O_3  and  C_9
    5  A    between atoms: C_5  and  C_21
    6  A    between atoms: C_6  and  C_9
    7  A    between atoms: C_9  and  C_23
    8  A    between atoms: C_12  and  C_25
    9  A    between atoms: C_15  and  C_23
   10  A    between atoms: C_17  and  C_30
   11  A    between atoms: C_19  and  C_24
                            x       y       z     vdW  Elec       q    Type
                         _______ _______ _______ _____ _____    ______ ____

>  <TORSDO>
F 11

$$$$
