=
 OpenBabel11052415433D

 34 38  0  0  1  0  0  0  0  0999 V2000
  187.7230  177.7020  144.4300 C   0  0  2  0  0  3  0  0  0  0  0  0
  183.8700  178.2530  145.0730 C   0  0  0  0  0  2  0  0  0  0  0  0
  182.5770  179.0190  142.1680 C   0  0  0  0  0  0  0  0  0  0  0  0
  185.8020  178.1400  146.5400 O   0  0  0  0  0  0  0  0  0  0  0  0
  189.4890  177.8330  146.2170 C   0  0  0  0  0  3  0  0  0  0  0  0
  188.9100  178.1870  148.5420 C   0  0  0  0  0  3  0  0  0  0  0  0
  182.6540  178.7080  140.7790 N   0  0  0  0  0  1  0  0  0  0  0  0
  189.8760  177.9880  147.5520 C   0  0  0  0  0  3  0  0  0  0  0  0
  187.1610  178.0740  146.8710 C   0  0  0  0  0  0  0  0  0  0  0  0
  188.1350  177.8780  145.8690 C   0  0  0  0  0  0  0  0  0  0  0  0
  187.5550  178.2320  148.2020 C   0  0  0  0  0  3  0  0  0  0  0  0
  183.6980  179.5780  144.3440 C   0  0  0  0  0  2  0  0  0  0  0  0
  181.4550  179.0040  142.7400 O   0  0  0  0  0  0  0  0  0  0  0  0
  183.7640  179.3480  142.9050 N   0  0  0  0  0  0  0  0  0  0  0  0
  185.0670  179.3020  142.2560 C   0  0  0  0  0  2  0  0  0  0  0  0
  185.3300  177.8140  145.2340 C   0  0  2  0  0  3  0  0  0  0  0  0
  185.8640  178.0960  142.7310 C   0  0  0  0  0  2  0  0  0  0  0  0
  186.3300  178.3090  144.1680 C   0  0  2  0  0  3  0  0  0  0  0  0
  187.8730  176.2460  143.9580 C   0  0  0  0  0  2  0  0  0  0  0  0
  189.0480  176.0520  143.0040 C   0  0  0  0  0  2  0  0  0  0  0  0
  189.4360  177.2820  142.4640 O   0  0  0  0  0  0  0  0  0  0  0  0
  188.3550  178.2490  138.9970 C   0  0  0  0  0  2  0  0  0  0  0  0
  190.5750  176.7470  140.4040 C   0  0  0  0  0  2  0  0  0  0  0  0
  190.2560  176.4240  136.1610 C   0  0  1  0  0  3  0  0  0  0  0  0
  189.2560  177.3880  136.8160 C   0  0  0  0  0  2  0  0  0  0  0  0
  189.1920  177.1580  138.3200 C   0  0  1  0  0  3  0  0  0  0  0  0
  191.4110  176.0620  138.1390 C   0  0  0  0  0  2  0  0  0  0  0  0
  190.6030  177.0980  138.9100 C   0  0  2  0  0  3  0  0  0  0  0  0
  191.5310  176.4330  136.7800 O   0  0  0  0  0  0  0  0  0  0  0  0
  189.2540  177.1390  141.0850 C   0  0  2  0  0  3  0  0  0  0  0  0
  188.6810  178.4230  140.4890 C   0  0  0  0  0  2  0  0  0  0  0  0
  189.7170  175.0430  135.9210 C   0  0  0  0  0  0  0  0  0  0  0  0
  188.5150  174.7920  136.1930 O   0  0  0  0  0  0  0  0  0  0  0  0
  190.5400  174.0200  135.3710 N   0  0  0  0  0  1  0  0  0  0  0  0
  1 19  1  1  0  0  0
  1 10  1  0  0  0  0
  3 13  2  0  0  0  0
  3 14  1  0  0  0  0
  4  9  1  0  0  0  0
  5  8  1  0  0  0  0
  7  3  1  0  0  0  0
  8  6  2  0  0  0  0
  9 11  2  0  0  0  0
 10  5  2  0  0  0  0
 10  9  1  0  0  0  0
 11  6  1  0  0  0  0
 12  2  1  0  0  0  0
 14 12  1  0  0  0  0
 15 17  1  0  0  0  0
 15 14  1  0  0  0  0
 16  2  1  6  0  0  0
 16  4  1  0  0  0  0
 18 17  1  6  0  0  0
 18  1  1  0  0  0  0
 18 16  1  0  0  0  0
 20 19  1  0  0  0  0
 21 20  1  0  0  0  0
 22 31  1  0  0  0  0
 23 30  1  0  0  0  0
 24 32  1  1  0  0  0
 24 29  1  0  0  0  0
 24 25  1  0  0  0  0
 26 25  1  6  0  0  0
 26 28  1  0  0  0  0
 26 22  1  0  0  0  0
 28 27  1  6  0  0  0
 28 23  1  0  0  0  0
 29 27  1  0  0  0  0
 30 21  1  1  0  0  0
 31 30  1  0  0  0  0
 32 33  2  0  0  0  0
 34 32  1  0  0  0  0
M  END
>  <MODEL>
1

>  <REMARK>
 VINA RESULT:      -9.2      0.000      0.000
  Name = 
  5 active torsions:
  status: ('A' for Active; 'I' for Inactive)
    1  A    between atoms: C_1  and  C_9
    2  A    between atoms: C_7  and  C_11
    3  A    between atoms: C_8  and  C_9
    4  A    between atoms: C_8  and  O_18
    5  A    between atoms: O_18  and  C_30
                            x       y       z     vdW  Elec       q    Type
                         _______ _______ _______ _____ _____    ______ ____

>  <TORSDO>
F 5

$$$$
=
 OpenBabel11052415433D

 34 38  0  0  1  0  0  0  0  0999 V2000
  185.2830  178.1930  142.5570 C   0  0  2  0  0  3  0  0  0  0  0  0
  185.5460  179.2040  146.3620 C   0  0  0  0  0  2  0  0  0  0  0  0
  188.3340  177.8810  147.4490 C   0  0  0  0  0  0  0  0  0  0  0  0
  183.7220  179.2170  144.7600 O   0  0  0  0  0  0  0  0  0  0  0  0
  183.1350  178.1670  141.2460 C   0  0  0  0  0  3  0  0  0  0  0  0
  181.0470  178.9080  142.2240 C   0  0  0  0  0  3  0  0  0  0  0  0
  189.6810  177.6120  147.0690 N   0  0  0  0  0  1  0  0  0  0  0  0
  181.7620  178.4010  141.1350 C   0  0  0  0  0  3  0  0  0  0  0  0
  183.0790  178.9560  143.5440 C   0  0  0  0  0  0  0  0  0  0  0  0
  183.8000  178.4390  142.4470 C   0  0  0  0  0  0  0  0  0  0  0  0
  181.7040  179.1830  143.4270 C   0  0  0  0  0  3  0  0  0  0  0  0
  185.8750  177.8360  146.9450 C   0  0  0  0  0  2  0  0  0  0  0  0
  188.1080  178.4710  148.5390 O   0  0  0  0  0  0  0  0  0  0  0  0
  187.2470  177.4830  146.6000 N   0  0  0  0  0  0  0  0  0  0  0  0
  187.5130  176.8580  145.3110 C   0  0  0  0  0  2  0  0  0  0  0  0
  185.1420  179.1710  144.8840 C   0  0  2  0  0  3  0  0  0  0  0  0
  187.2190  177.8250  144.1740 C   0  0  0  0  0  2  0  0  0  0  0  0
  185.7130  178.0210  144.0270 C   0  0  2  0  0  3  0  0  0  0  0  0
  186.1030  179.2370  141.7810 C   0  0  0  0  0  2  0  0  0  0  0  0
  187.0490  178.6060  140.7640 C   0  0  0  0  0  2  0  0  0  0  0  0
  186.4620  178.6100  139.4950 O   0  0  0  0  0  0  0  0  0  0  0  0
  188.1160  177.4620  136.3220 C   0  0  0  0  0  2  0  0  0  0  0  0
  188.7740  177.9660  139.2340 C   0  0  0  0  0  2  0  0  0  0  0  0
  191.6240  175.9020  136.8200 C   0  0  1  0  0  3  0  0  0  0  0  0
  190.3790  176.4000  136.0720 C   0  0  0  0  0  2  0  0  0  0  0  0
  189.2760  176.7770  137.0530 C   0  0  1  0  0  3  0  0  0  0  0  0
  191.0370  176.9730  138.7910 C   0  0  0  0  0  2  0  0  0  0  0  0
  189.8340  177.6690  138.1640 C   0  0  2  0  0  3  0  0  0  0  0  0
  192.0610  176.7910  137.8350 O   0  0  0  0  0  0  0  0  0  0  0  0
  187.3380  177.8710  138.6940 C   0  0  2  0  0  3  0  0  0  0  0  0
  187.2570  178.3410  137.2430 C   0  0  0  0  0  2  0  0  0  0  0  0
  191.5450  174.4720  137.2720 C   0  0  0  0  0  0  0  0  0  0  0  0
  192.5890  173.8880  137.6610 O   0  0  0  0  0  0  0  0  0  0  0  0
  190.3030  173.7750  137.2870 N   0  0  0  0  0  1  0  0  0  0  0  0
  1 19  1  1  0  0  0
  1 18  1  0  0  0  0
  2 12  1  0  0  0  0
  3 13  2  0  0  0  0
  4 16  1  0  0  0  0
  5 10  1  0  0  0  0
  6 11  2  0  0  0  0
  7  3  1  0  0  0  0
  8  5  2  0  0  0  0
  8  6  1  0  0  0  0
  9  4  1  0  0  0  0
 10  1  1  0  0  0  0
 10  9  2  0  0  0  0
 11  9  1  0  0  0  0
 14 12  1  0  0  0  0
 14  3  1  0  0  0  0
 15 14  1  0  0  0  0
 16  2  1  1  0  0  0
 17 15  1  0  0  0  0
 18 17  1  6  0  0  0
 18 16  1  0  0  0  0
 20 19  1  0  0  0  0
 21 20  1  0  0  0  0
 22 26  1  0  0  0  0
 22 31  1  0  0  0  0
 24 32  1  1  0  0  0
 24 29  1  0  0  0  0
 25 24  1  0  0  0  0
 26 25  1  6  0  0  0
 26 28  1  0  0  0  0
 28 27  1  1  0  0  0
 28 23  1  0  0  0  0
 29 27  1  0  0  0  0
 30 23  1  0  0  0  0
 30 21  1  1  0  0  0
 31 30  1  0  0  0  0
 32 34  1  0  0  0  0
 32 33  2  0  0  0  0
M  END
>  <MODEL>
2

>  <REMARK>
 VINA RESULT:      -9.1      2.387      4.989
  Name = 
  5 active torsions:
  status: ('A' for Active; 'I' for Inactive)
    1  A    between atoms: C_1  and  C_9
    2  A    between atoms: C_7  and  C_11
    3  A    between atoms: C_8  and  C_9
    4  A    between atoms: C_8  and  O_18
    5  A    between atoms: O_18  and  C_30
                            x       y       z     vdW  Elec       q    Type
                         _______ _______ _______ _____ _____    ______ ____

>  <TORSDO>
F 5

$$$$
=
 OpenBabel11052415433D

 34 38  0  0  1  0  0  0  0  0999 V2000
  183.1780  178.9050  141.9020 C   0  0  2  0  0  3  0  0  0  0  0  0
  183.1450  176.4930  138.7790 C   0  0  0  0  0  2  0  0  0  0  0  0
  185.9440  177.0570  137.1830 C   0  0  0  0  0  0  0  0  0  0  0  0
  181.4230  177.2500  140.3150 O   0  0  0  0  0  0  0  0  0  0  0  0
  181.1190  179.6130  143.1640 C   0  0  0  0  0  3  0  0  0  0  0  0
  178.9320  178.7330  142.6110 C   0  0  0  0  0  3  0  0  0  0  0  0
  187.3270  177.3360  137.3890 N   0  0  0  0  0  1  0  0  0  0  0  0
  179.7420  179.5570  143.3970 C   0  0  0  0  0  3  0  0  0  0  0  0
  180.8730  178.0110  141.3530 C   0  0  0  0  0  0  0  0  0  0  0  0
  181.6910  178.8460  142.1430 C   0  0  0  0  0  0  0  0  0  0  0  0
  179.4950  177.9630  141.5890 C   0  0  0  0  0  3  0  0  0  0  0  0
  183.5280  177.5000  137.7030 C   0  0  0  0  0  2  0  0  0  0  0  0
  185.6150  176.1160  136.4140 O   0  0  0  0  0  0  0  0  0  0  0  0
  184.9390  177.8410  137.8430 N   0  0  0  0  0  0  0  0  0  0  0  0
  185.3230  178.8880  138.7810 C   0  0  0  0  0  2  0  0  0  0  0  0
  182.8330  177.1250  140.1410 C   0  0  2  0  0  3  0  0  0  0  0  0
  185.0340  178.4600  140.2130 C   0  0  0  0  0  2  0  0  0  0  0  0
  183.5290  178.4630  140.4670 C   0  0  2  0  0  3  0  0  0  0  0  0
  183.9720  178.1740  142.9970 C   0  0  0  0  0  2  0  0  0  0  0  0
  184.7060  179.1300  143.9320 C   0  0  0  0  0  2  0  0  0  0  0  0
  184.9800  178.4970  145.1480 O   0  0  0  0  0  0  0  0  0  0  0  0
  188.3620  177.6810  146.5690 C   0  0  0  0  0  2  0  0  0  0  0  0
  186.7800  177.3630  144.0080 C   0  0  0  0  0  2  0  0  0  0  0  0
  190.9650  176.5300  143.9450 C   0  0  1  0  0  3  0  0  0  0  0  0
  190.3930  176.8840  145.3260 C   0  0  0  0  0  2  0  0  0  0  0  0
  189.0150  177.5170  145.1920 C   0  0  1  0  0  3  0  0  0  0  0  0
  188.8750  176.4820  142.9410 C   0  0  0  0  0  2  0  0  0  0  0  0
  188.1340  176.6850  144.2580 C   0  0  2  0  0  3  0  0  0  0  0  0
  190.0740  175.7650  143.1490 O   0  0  0  0  0  0  0  0  0  0  0  0
  186.3650  178.3070  145.1470 C   0  0  2  0  0  3  0  0  0  0  0  0
  186.8300  177.7790  146.5030 C   0  0  0  0  0  2  0  0  0  0  0  0
  191.5750  177.6900  143.2120 C   0  0  0  0  0  0  0  0  0  0  0  0
  191.9090  177.5530  142.0070 O   0  0  0  0  0  0  0  0  0  0  0  0
  191.7620  178.9470  143.8530 N   0  0  0  0  0  1  0  0  0  0  0  0
  1 10  1  0  0  0  0
  1 19  1  1  0  0  0
  3  7  1  0  0  0  0
  3 14  1  0  0  0  0
  4  9  1  0  0  0  0
  5  8  1  0  0  0  0
  6  8  2  0  0  0  0
  9 11  2  0  0  0  0
  9 10  1  0  0  0  0
 10  5  2  0  0  0  0
 11  6  1  0  0  0  0
 12 14  1  0  0  0  0
 12  2  1  0  0  0  0
 13  3  2  0  0  0  0
 14 15  1  0  0  0  0
 15 17  1  0  0  0  0
 16  2  1  6  0  0  0
 16  4  1  0  0  0  0
 16 18  1  0  0  0  0
 18 17  1  1  0  0  0
 18  1  1  0  0  0  0
 19 20  1  0  0  0  0
 20 21  1  0  0  0  0
 23 28  1  0  0  0  0
 23 30  1  0  0  0  0
 24 32  1  6  0  0  0
 24 25  1  0  0  0  0
 26 25  1  1  0  0  0
 26 22  1  0  0  0  0
 27 29  1  0  0  0  0
 28 27  1  6  0  0  0
 28 26  1  0  0  0  0
 29 24  1  0  0  0  0
 30 21  1  1  0  0  0
 30 31  1  0  0  0  0
 31 22  1  0  0  0  0
 32 34  1  0  0  0  0
 33 32  2  0  0  0  0
M  END
>  <MODEL>
3

>  <REMARK>
 VINA RESULT:      -8.6      2.947      7.136
  Name = 
  5 active torsions:
  status: ('A' for Active; 'I' for Inactive)
    1  A    between atoms: C_1  and  C_9
    2  A    between atoms: C_7  and  C_11
    3  A    between atoms: C_8  and  C_9
    4  A    between atoms: C_8  and  O_18
    5  A    between atoms: O_18  and  C_30
                            x       y       z     vdW  Elec       q    Type
                         _______ _______ _______ _____ _____    ______ ____

>  <TORSDO>
F 5

$$$$
=
 OpenBabel11052415433D

 34 38  0  0  1  0  0  0  0  0999 V2000
  184.7630  178.2770  142.6270 C   0  0  2  0  0  3  0  0  0  0  0  0
  185.8690  179.1020  146.3230 C   0  0  0  0  0  2  0  0  0  0  0  0
  188.8400  177.7800  146.6850 C   0  0  0  0  0  0  0  0  0  0  0  0
  183.7310  179.1600  145.1740 O   0  0  0  0  0  0  0  0  0  0  0  0
  182.3760  178.2750  141.8320 C   0  0  0  0  0  3  0  0  0  0  0  0
  180.5560  178.9260  143.2920 C   0  0  0  0  0  3  0  0  0  0  0  0
  190.0690  177.5570  145.9990 N   0  0  0  0  0  1  0  0  0  0  0  0
  181.0110  178.4880  142.0450 C   0  0  0  0  0  3  0  0  0  0  0  0
  182.8320  178.9480  144.1220 C   0  0  0  0  0  0  0  0  0  0  0  0
  183.2920  178.5000  142.8650 C   0  0  0  0  0  0  0  0  0  0  0  0
  181.4650  179.1540  144.3290 C   0  0  0  0  0  3  0  0  0  0  0  0
  186.3310  177.7130  146.7450 C   0  0  0  0  0  2  0  0  0  0  0  0
  188.8610  178.3100  147.8270 O   0  0  0  0  0  0  0  0  0  0  0  0
  187.5930  177.4040  146.0830 N   0  0  0  0  0  0  0  0  0  0  0  0
  187.5660  176.8490  144.7350 C   0  0  0  0  0  2  0  0  0  0  0  0
  185.1430  179.1340  144.9740 C   0  0  2  0  0  3  0  0  0  0  0  0
  187.0160  177.8660  143.7460 C   0  0  0  0  0  2  0  0  0  0  0  0
  185.5150  178.0400  143.9520 C   0  0  2  0  0  3  0  0  0  0  0  0
  185.3800  179.3730  141.7420 C   0  0  0  0  0  2  0  0  0  0  0  0
  185.4880  178.9590  140.2780 C   0  0  0  0  0  2  0  0  0  0  0  0
  184.8700  179.9120  139.4620 O   0  0  0  0  0  0  0  0  0  0  0  0
  181.2380  179.9590  138.5000 C   0  0  0  0  0  2  0  0  0  0  0  0
  183.6980  178.2190  138.2040 C   0  0  0  0  0  2  0  0  0  0  0  0
  179.8980  176.5900  137.1440 C   0  0  1  0  0  3  0  0  0  0  0  0
  179.8780  178.0670  137.5620 C   0  0  0  0  0  2  0  0  0  0  0  0
  181.1740  178.4460  138.2660 C   0  0  1  0  0  3  0  0  0  0  0  0
  182.2140  176.4690  137.1840 C   0  0  0  0  0  2  0  0  0  0  0  0
  182.3800  177.9590  137.4600 C   0  0  2  0  0  3  0  0  0  0  0  0
  181.0570  176.2320  136.4090 O   0  0  0  0  0  0  0  0  0  0  0  0
  183.6020  179.3870  139.1970 C   0  0  2  0  0  3  0  0  0  0  0  0
  182.6720  180.4830  138.6790 C   0  0  0  0  0  2  0  0  0  0  0  0
  179.5720  175.6280  138.2500 C   0  0  0  0  0  0  0  0  0  0  0  0
  179.2790  176.0730  139.3890 O   0  0  0  0  0  0  0  0  0  0  0  0
  179.5670  174.2220  138.0230 N   0  0  0  0  0  1  0  0  0  0  0  0
  1 19  1  1  0  0  0
  1 10  1  0  0  0  0
  1 18  1  0  0  0  0
  2 12  1  0  0  0  0
  3 13  2  0  0  0  0
  5  8  2  0  0  0  0
  5 10  1  0  0  0  0
  6 11  2  0  0  0  0
  7  3  1  0  0  0  0
  8  6  1  0  0  0  0
  9 11  1  0  0  0  0
  9  4  1  0  0  0  0
 10  9  2  0  0  0  0
 14  3  1  0  0  0  0
 14 12  1  0  0  0  0
 15 14  1  0  0  0  0
 16  4  1  0  0  0  0
 16  2  1  1  0  0  0
 17 15  1  0  0  0  0
 18 17  1  6  0  0  0
 18 16  1  0  0  0  0
 20 19  1  0  0  0  0
 21 20  1  0  0  0  0
 22 31  1  0  0  0  0
 23 30  1  0  0  0  0
 24 25  1  0  0  0  0
 24 32  1  1  0  0  0
 26 25  1  6  0  0  0
 26 22  1  0  0  0  0
 28 27  1  1  0  0  0
 28 23  1  0  0  0  0
 28 26  1  0  0  0  0
 29 24  1  0  0  0  0
 29 27  1  0  0  0  0
 30 21  1  6  0  0  0
 31 30  1  0  0  0  0
 32 33  2  0  0  0  0
 34 32  1  0  0  0  0
M  END
>  <MODEL>
4

>  <REMARK>
 VINA RESULT:      -8.4      4.430      7.378
  Name = 
  5 active torsions:
  status: ('A' for Active; 'I' for Inactive)
    1  A    between atoms: C_1  and  C_9
    2  A    between atoms: C_7  and  C_11
    3  A    between atoms: C_8  and  C_9
    4  A    between atoms: C_8  and  O_18
    5  A    between atoms: O_18  and  C_30
                            x       y       z     vdW  Elec       q    Type
                         _______ _______ _______ _____ _____    ______ ____

>  <TORSDO>
F 5

$$$$
=
 OpenBabel11052415433D

 34 38  0  0  1  0  0  0  0  0999 V2000
  188.5380  178.1420  141.7970 C   0  0  2  0  0  3  0  0  0  0  0  0
  191.0950  175.6750  143.5120 C   0  0  0  0  0  2  0  0  0  0  0  0
  191.3050  176.6290  146.6340 C   0  0  0  0  0  0  0  0  0  0  0  0
  190.5800  176.1920  141.1960 O   0  0  0  0  0  0  0  0  0  0  0  0
  188.4130  178.5520  139.3180 C   0  0  0  0  0  3  0  0  0  0  0  0
  189.8060  177.3250  137.7620 C   0  0  0  0  0  3  0  0  0  0  0  0
  190.5250  177.1270  147.7180 N   0  0  0  0  0  1  0  0  0  0  0  0
  188.8210  178.2860  138.0080 C   0  0  0  0  0  3  0  0  0  0  0  0
  189.9790  176.8840  140.1380 C   0  0  0  0  0  0  0  0  0  0  0  0
  188.9890  177.8580  140.3880 C   0  0  0  0  0  0  0  0  0  0  0  0
  190.3850  176.6260  138.8250 C   0  0  0  0  0  3  0  0  0  0  0  0
  191.9740  176.7010  144.2150 C   0  0  0  0  0  2  0  0  0  0  0  0
  192.0460  175.6280  146.8180 O   0  0  0  0  0  0  0  0  0  0  0  0
  191.2460  177.2630  145.3470 N   0  0  0  0  0  0  0  0  0  0  0  0
  190.3400  178.3810  145.1190 C   0  0  0  0  0  2  0  0  0  0  0  0
  190.0870  176.2860  142.5310 C   0  0  2  0  0  3  0  0  0  0  0  0
  189.1590  177.9500  144.2620 C   0  0  0  0  0  2  0  0  0  0  0  0
  189.6110  177.7240  142.8220 C   0  0  2  0  0  3  0  0  0  0  0  0
  187.1380  177.5740  142.0850 C   0  0  0  0  0  2  0  0  0  0  0  0
  186.0840  178.6620  142.2590 C   0  0  0  0  0  2  0  0  0  0  0  0
  185.4850  178.5550  143.5180 O   0  0  0  0  0  0  0  0  0  0  0  0
  181.7820  179.0030  143.9690 C   0  0  0  0  0  2  0  0  0  0  0  0
  183.8260  178.6270  141.7670 C   0  0  0  0  0  2  0  0  0  0  0  0
  179.6850  178.2780  140.7960 C   0  0  1  0  0  3  0  0  0  0  0  0
  179.9800  178.6800  142.2490 C   0  0  0  0  0  2  0  0  0  0  0  0
  181.4390  178.4160  142.5940 C   0  0  1  0  0  3  0  0  0  0  0  0
  181.9090  178.4330  140.1570 C   0  0  0  0  0  2  0  0  0  0  0  0
  182.3550  178.9830  141.5070 C   0  0  2  0  0  3  0  0  0  0  0  0
  180.5900  178.8460  139.8630 O   0  0  0  0  0  0  0  0  0  0  0  0
  184.1250  178.3720  143.2530 C   0  0  2  0  0  3  0  0  0  0  0  0
  183.2830  179.2750  144.1520 C   0  0  0  0  0  2  0  0  0  0  0  0
  179.4620  176.8070  140.5930 C   0  0  0  0  0  0  0  0  0  0  0  0
  179.3050  176.0620  141.5940 O   0  0  0  0  0  0  0  0  0  0  0  0
  179.4030  176.2470  139.2850 N   0  0  0  0  0  1  0  0  0  0  0  0
  1 19  1  1  0  0  0
  1 18  1  0  0  0  0
  2 12  1  0  0  0  0
  3 13  2  0  0  0  0
  3  7  1  0  0  0  0
  4 16  1  0  0  0  0
  5 10  1  0  0  0  0
  6  8  1  0  0  0  0
  6 11  2  0  0  0  0
  8  5  2  0  0  0  0
  9 10  2  0  0  0  0
  9  4  1  0  0  0  0
 10  1  1  0  0  0  0
 11  9  1  0  0  0  0
 12 14  1  0  0  0  0
 14  3  1  0  0  0  0
 15 14  1  0  0  0  0
 16 18  1  0  0  0  0
 16  2  1  1  0  0  0
 17 15  1  0  0  0  0
 18 17  1  1  0  0  0
 19 20  1  0  0  0  0
 20 21  1  0  0  0  0
 22 31  1  0  0  0  0
 23 30  1  0  0  0  0
 24 32  1  1  0  0  0
 24 25  1  0  0  0  0
 26 25  1  6  0  0  0
 26 22  1  0  0  0  0
 28 27  1  6  0  0  0
 28 23  1  0  0  0  0
 28 26  1  0  0  0  0
 29 27  1  0  0  0  0
 29 24  1  0  0  0  0
 30 21  1  6  0  0  0
 30 31  1  0  0  0  0
 32 33  2  0  0  0  0
 34 32  1  0  0  0  0
M  END
>  <MODEL>
5

>  <REMARK>
 VINA RESULT:      -8.4      3.148      8.460
  Name = 
  5 active torsions:
  status: ('A' for Active; 'I' for Inactive)
    1  A    between atoms: C_1  and  C_9
    2  A    between atoms: C_7  and  C_11
    3  A    between atoms: C_8  and  C_9
    4  A    between atoms: C_8  and  O_18
    5  A    between atoms: O_18  and  C_30
                            x       y       z     vdW  Elec       q    Type
                         _______ _______ _______ _____ _____    ______ ____

>  <TORSDO>
F 5

$$$$
=
 OpenBabel11052415433D

 34 38  0  0  1  0  0  0  0  0999 V2000
  185.0650  178.3250  142.8090 C   0  0  2  0  0  3  0  0  0  0  0  0
  185.9420  179.0070  146.5950 C   0  0  0  0  0  2  0  0  0  0  0  0
  188.8900  177.6770  147.0850 C   0  0  0  0  0  0  0  0  0  0  0  0
  183.8770  179.1060  145.3220 O   0  0  0  0  0  0  0  0  0  0  0  0
  182.7310  178.3510  141.8710 C   0  0  0  0  0  3  0  0  0  0  0  0
  180.8240  178.9410  143.2420 C   0  0  0  0  0  3  0  0  0  0  0  0
  190.1600  177.4820  146.4660 N   0  0  0  0  0  1  0  0  0  0  0  0
  181.3550  178.5530  142.0090 C   0  0  0  0  0  3  0  0  0  0  0  0
  183.0450  178.9330  144.2090 C   0  0  0  0  0  0  0  0  0  0  0  0
  183.5810  178.5360  142.9660 C   0  0  0  0  0  0  0  0  0  0  0  0
  181.6670  179.1290  144.3410 C   0  0  0  0  0  3  0  0  0  0  0  0
  186.3830  177.6030  146.9890 C   0  0  0  0  0  2  0  0  0  0  0  0
  188.8400  178.1610  148.2460 O   0  0  0  0  0  0  0  0  0  0  0  0
  187.6840  177.3220  146.3940 N   0  0  0  0  0  0  0  0  0  0  0  0
  187.7410  176.8210  145.0260 C   0  0  0  0  0  2  0  0  0  0  0  0
  185.2990  179.0910  145.2060 C   0  0  2  0  0  3  0  0  0  0  0  0
  187.2480  177.8750  144.0460 C   0  0  0  0  0  2  0  0  0  0  0  0
  185.7360  178.0370  144.1670 C   0  0  2  0  0  3  0  0  0  0  0  0
  185.7300  179.4570  142.0070 C   0  0  0  0  0  2  0  0  0  0  0  0
  186.2080  179.0030  140.6310 C   0  0  0  0  0  2  0  0  0  0  0  0
  185.2920  179.3960  139.6510 O   0  0  0  0  0  0  0  0  0  0  0  0
  183.2370  177.0300  137.5760 C   0  0  0  0  0  2  0  0  0  0  0  0
  186.1140  177.8980  137.9460 C   0  0  0  0  0  2  0  0  0  0  0  0
  185.3090  174.4340  135.5870 C   0  0  1  0  0  3  0  0  0  0  0  0
  184.0650  175.1760  136.0970 C   0  0  0  0  0  2  0  0  0  0  0  0
  184.4350  176.1470  137.2100 C   0  0  1  0  0  3  0  0  0  0  0  0
  186.7660  176.0630  136.3620 C   0  0  0  0  0  2  0  0  0  0  0  0
  185.6410  176.9940  136.7980 C   0  0  2  0  0  3  0  0  0  0  0  0
  186.3740  175.3020  135.2370 O   0  0  0  0  0  0  0  0  0  0  0  0
  184.9960  178.2240  138.9490 C   0  0  2  0  0  3  0  0  0  0  0  0
  183.6430  178.3500  138.2510 C   0  0  0  0  0  2  0  0  0  0  0  0
  185.7360  173.2780  136.4450 C   0  0  0  0  0  0  0  0  0  0  0  0
  186.7570  172.6170  136.1270 O   0  0  0  0  0  0  0  0  0  0  0  0
  185.0160  172.9340  137.6240 N   0  0  0  0  0  1  0  0  0  0  0  0
  1 19  1  1  0  0  0
  1 10  1  0  0  0  0
  1 18  1  0  0  0  0
  2 12  1  0  0  0  0
  3 13  2  0  0  0  0
  5  8  2  0  0  0  0
  5 10  1  0  0  0  0
  6 11  2  0  0  0  0
  7  3  1  0  0  0  0
  8  6  1  0  0  0  0
  9 11  1  0  0  0  0
  9  4  1  0  0  0  0
 10  9  2  0  0  0  0
 14 12  1  0  0  0  0
 14  3  1  0  0  0  0
 15 14  1  0  0  0  0
 16  4  1  0  0  0  0
 16  2  1  1  0  0  0
 17 15  1  0  0  0  0
 18 17  1  6  0  0  0
 18 16  1  0  0  0  0
 20 19  1  0  0  0  0
 21 20  1  0  0  0  0
 22 31  1  0  0  0  0
 23 30  1  0  0  0  0
 24 25  1  0  0  0  0
 24 32  1  1  0  0  0
 26 25  1  6  0  0  0
 26 22  1  0  0  0  0
 28 27  1  1  0  0  0
 28 26  1  0  0  0  0
 28 23  1  0  0  0  0
 29 24  1  0  0  0  0
 29 27  1  0  0  0  0
 30 21  1  6  0  0  0
 31 30  1  0  0  0  0
 32 34  1  0  0  0  0
 33 32  2  0  0  0  0
M  END
>  <MODEL>
6

>  <REMARK>
 VINA RESULT:      -8.3      3.361      5.751
  Name = 
  5 active torsions:
  status: ('A' for Active; 'I' for Inactive)
    1  A    between atoms: C_1  and  C_9
    2  A    between atoms: C_7  and  C_11
    3  A    between atoms: C_8  and  C_9
    4  A    between atoms: C_8  and  O_18
    5  A    between atoms: O_18  and  C_30
                            x       y       z     vdW  Elec       q    Type
                         _______ _______ _______ _____ _____    ______ ____

>  <TORSDO>
F 5

$$$$
=
 OpenBabel11052415433D

 34 38  0  0  1  0  0  0  0  0999 V2000
  187.5550  177.5130  144.6580 C   0  0  2  0  0  3  0  0  0  0  0  0
  191.1950  178.3100  143.3610 C   0  0  0  0  0  2  0  0  0  0  0  0
  191.3240  177.1700  140.2980 C   0  0  0  0  0  0  0  0  0  0  0  0
  190.1890  178.2630  145.5710 O   0  0  0  0  0  0  0  0  0  0  0  0
  186.9160  177.3810  147.0880 C   0  0  0  0  0  3  0  0  0  0  0  0
  188.5100  177.8780  148.8430 C   0  0  0  0  0  3  0  0  0  0  0  0
  190.5530  177.0420  139.1060 N   0  0  0  0  0  1  0  0  0  0  0  0
  187.2230  177.5010  148.4470 C   0  0  0  0  0  3  0  0  0  0  0  0
  189.1910  178.0210  146.5230 C   0  0  0  0  0  0  0  0  0  0  0  0
  187.8950  177.6360  146.1210 C   0  0  0  0  0  0  0  0  0  0  0  0
  189.4930  178.1350  147.8830 C   0  0  0  0  0  3  0  0  0  0  0  0
  191.5440  176.9430  142.7880 C   0  0  0  0  0  2  0  0  0  0  0  0
  192.4780  177.6700  140.2330 O   0  0  0  0  0  0  0  0  0  0  0  0
  190.7920  176.7310  141.5570 N   0  0  0  0  0  0  0  0  0  0  0  0
  189.4330  176.2110  141.6390 C   0  0  0  0  0  2  0  0  0  0  0  0
  189.8970  178.3320  144.1760 C   0  0  2  0  0  3  0  0  0  0  0  0
  188.5120  177.2160  142.3150 C   0  0  0  0  0  2  0  0  0  0  0  0
  188.8200  177.2890  143.8070 C   0  0  2  0  0  3  0  0  0  0  0  0
  186.6650  178.6690  144.1700 C   0  0  0  0  0  2  0  0  0  0  0  0
  185.2120  178.2510  143.9700 C   0  0  0  0  0  2  0  0  0  0  0  0
  184.5470  179.1890  143.1740 O   0  0  0  0  0  0  0  0  0  0  0  0
  182.3240  177.8750  140.4450 C   0  0  0  0  0  2  0  0  0  0  0  0
  185.1410  178.9060  140.8520 C   0  0  0  0  0  2  0  0  0  0  0  0
  184.1710  177.0090  137.1540 C   0  0  1  0  0  3  0  0  0  0  0  0
  182.9940  177.1770  138.1270 C   0  0  0  0  0  2  0  0  0  0  0  0
  183.4950  177.5070  139.5260 C   0  0  1  0  0  3  0  0  0  0  0  0
  185.6180  178.2480  138.4760 C   0  0  0  0  0  2  0  0  0  0  0  0
  184.5290  178.6340  139.4710 C   0  0  2  0  0  3  0  0  0  0  0  0
  185.0780  178.0990  137.1790 O   0  0  0  0  0  0  0  0  0  0  0  0
  184.2150  178.4950  142.0070 C   0  0  2  0  0  3  0  0  0  0  0  0
  182.7470  178.7260  141.6520 C   0  0  0  0  0  2  0  0  0  0  0  0
  184.8450  175.6690  137.2230 C   0  0  0  0  0  0  0  0  0  0  0  0
  186.0220  175.5460  136.7960 O   0  0  0  0  0  0  0  0  0  0  0  0
  184.1800  174.5410  137.7840 N   0  0  0  0  0  1  0  0  0  0  0  0
  1 19  1  6  0  0  0
  1 10  1  0  0  0  0
  3 14  1  0  0  0  0
  4  9  1  0  0  0  0
  5  8  1  0  0  0  0
  7  3  1  0  0  0  0
  8  6  2  0  0  0  0
  9 11  2  0  0  0  0
 10  9  1  0  0  0  0
 10  5  2  0  0  0  0
 11  6  1  0  0  0  0
 12  2  1  0  0  0  0
 13  3  2  0  0  0  0
 14 15  1  0  0  0  0
 14 12  1  0  0  0  0
 15 17  1  0  0  0  0
 16  2  1  6  0  0  0
 16  4  1  0  0  0  0
 18 17  1  6  0  0  0
 18 16  1  0  0  0  0
 18  1  1  0  0  0  0
 20 19  1  0  0  0  0
 21 20  1  0  0  0  0
 22 31  1  0  0  0  0
 23 30  1  0  0  0  0
 24 29  1  0  0  0  0
 24 32  1  1  0  0  0
 24 25  1  0  0  0  0
 26 25  1  6  0  0  0
 26 22  1  0  0  0  0
 28 27  1  6  0  0  0
 28 26  1  0  0  0  0
 28 23  1  0  0  0  0
 29 27  1  0  0  0  0
 30 21  1  1  0  0  0
 31 30  1  0  0  0  0
 32 34  1  0  0  0  0
 33 32  2  0  0  0  0
M  END
>  <MODEL>
7

>  <REMARK>
 VINA RESULT:      -8.3      2.938      5.654
  Name = 
  5 active torsions:
  status: ('A' for Active; 'I' for Inactive)
    1  A    between atoms: C_1  and  C_9
    2  A    between atoms: C_7  and  C_11
    3  A    between atoms: C_8  and  C_9
    4  A    between atoms: C_8  and  O_18
    5  A    between atoms: O_18  and  C_30
                            x       y       z     vdW  Elec       q    Type
                         _______ _______ _______ _____ _____    ______ ____

>  <TORSDO>
F 5

$$$$
=
 OpenBabel11052415433D

 34 38  0  0  1  0  0  0  0  0999 V2000
  188.3560  177.6500  143.9520 C   0  0  2  0  0  3  0  0  0  0  0  0
  184.8240  177.6110  145.7080 C   0  0  0  0  0  2  0  0  0  0  0  0
  182.7430  178.9420  143.5630 C   0  0  0  0  0  0  0  0  0  0  0  0
  187.0930  177.3380  146.5280 O   0  0  0  0  0  0  0  0  0  0  0  0
  190.5480  177.5140  145.1800 C   0  0  0  0  0  3  0  0  0  0  0  0
  190.6350  177.2080  147.5810 C   0  0  0  0  0  3  0  0  0  0  0  0
  182.4360  179.0000  142.1720 N   0  0  0  0  0  1  0  0  0  0  0  0
  191.2890  177.3670  146.3560 C   0  0  0  0  0  3  0  0  0  0  0  0
  188.4910  177.3340  146.4610 C   0  0  0  0  0  0  0  0  0  0  0  0
  189.1500  177.5010  145.2240 C   0  0  0  0  0  0  0  0  0  0  0  0
  189.2390  177.1940  147.6330 C   0  0  0  0  0  3  0  0  0  0  0  0
  184.4110  179.0520  145.4360 C   0  0  0  0  0  2  0  0  0  0  0  0
  181.8280  178.6650  144.3830 O   0  0  0  0  0  0  0  0  0  0  0  0
  184.0780  179.1980  144.0240 N   0  0  0  0  0  0  0  0  0  0  0  0
  185.1470  179.4560  143.0680 C   0  0  0  0  0  2  0  0  0  0  0  0
  186.2830  177.3030  145.3540 C   0  0  2  0  0  3  0  0  0  0  0  0
  186.0840  178.2600  142.9730 C   0  0  0  0  0  2  0  0  0  0  0  0
  186.9280  178.1520  144.2390 C   0  0  2  0  0  3  0  0  0  0  0  0
  188.4140  176.3840  143.0810 C   0  0  0  0  0  2  0  0  0  0  0  0
  189.4180  176.4980  141.9380 C   0  0  0  0  0  2  0  0  0  0  0  0
  188.8310  177.1440  140.8450 O   0  0  0  0  0  0  0  0  0  0  0  0
  189.6500  176.7020  137.2050 C   0  0  0  0  0  2  0  0  0  0  0  0
  191.0350  176.9270  139.8870 C   0  0  0  0  0  2  0  0  0  0  0  0
  193.3190  175.6870  136.5020 C   0  0  1  0  0  3  0  0  0  0  0  0
  191.8620  176.0660  136.1990 C   0  0  0  0  0  2  0  0  0  0  0  0
  191.0440  176.1280  137.4820 C   0  0  1  0  0  3  0  0  0  0  0  0
  193.1850  176.3850  138.7100 C   0  0  0  0  0  2  0  0  0  0  0  0
  191.7790  176.9480  138.5440 C   0  0  2  0  0  3  0  0  0  0  0  0
  193.9120  176.4970  137.5040 O   0  0  0  0  0  0  0  0  0  0  0  0
  189.5290  176.6680  139.7320 C   0  0  2  0  0  3  0  0  0  0  0  0
  188.9850  177.3030  138.4530 C   0  0  0  0  0  2  0  0  0  0  0  0
  193.5460  174.2170  136.7110 C   0  0  0  0  0  0  0  0  0  0  0  0
  194.6250  173.8260  137.2260 O   0  0  0  0  0  0  0  0  0  0  0  0
  192.5510  173.2630  136.3550 N   0  0  0  0  0  1  0  0  0  0  0  0
  1 19  1  1  0  0  0
  1 18  1  0  0  0  0
  1 10  1  0  0  0  0
  3 14  1  0  0  0  0
  3 13  2  0  0  0  0
  5 10  2  0  0  0  0
  5  8  1  0  0  0  0
  6 11  1  0  0  0  0
  7  3  1  0  0  0  0
  8  6  2  0  0  0  0
  9  4  1  0  0  0  0
  9 11  2  0  0  0  0
 10  9  1  0  0  0  0
 12  2  1  0  0  0  0
 14 12  1  0  0  0  0
 15 14  1  0  0  0  0
 16  2  1  1  0  0  0
 16  4  1  0  0  0  0
 17 15  1  0  0  0  0
 18 17  1  6  0  0  0
 18 16  1  0  0  0  0
 20 19  1  0  0  0  0
 21 20  1  0  0  0  0
 22 26  1  0  0  0  0
 22 31  1  0  0  0  0
 24 32  1  1  0  0  0
 24 29  1  0  0  0  0
 25 24  1  0  0  0  0
 26 25  1  6  0  0  0
 26 28  1  0  0  0  0
 28 27  1  1  0  0  0
 28 23  1  0  0  0  0
 29 27  1  0  0  0  0
 30 23  1  0  0  0  0
 30 21  1  1  0  0  0
 31 30  1  0  0  0  0
 32 33  2  0  0  0  0
 34 32  1  0  0  0  0
M  END
>  <MODEL>
8

>  <REMARK>
 VINA RESULT:      -8.3      1.605      2.128
  Name = 
  5 active torsions:
  status: ('A' for Active; 'I' for Inactive)
    1  A    between atoms: C_1  and  C_9
    2  A    between atoms: C_7  and  C_11
    3  A    between atoms: C_8  and  C_9
    4  A    between atoms: C_8  and  O_18
    5  A    between atoms: O_18  and  C_30
                            x       y       z     vdW  Elec       q    Type
                         _______ _______ _______ _____ _____    ______ ____

>  <TORSDO>
F 5

$$$$
=
 OpenBabel11052415433D

 34 38  0  0  1  0  0  0  0  0999 V2000
  188.5510  178.3070  141.6390 C   0  0  2  0  0  3  0  0  0  0  0  0
  190.7620  175.6970  143.6050 C   0  0  0  0  0  2  0  0  0  0  0  0
  190.8550  176.7540  146.7000 C   0  0  0  0  0  0  0  0  0  0  0  0
  190.4450  176.1640  141.2430 O   0  0  0  0  0  0  0  0  0  0  0  0
  188.6230  178.6270  139.1440 C   0  0  0  0  0  3  0  0  0  0  0  0
  189.9980  177.2230  137.7280 C   0  0  0  0  0  3  0  0  0  0  0  0
  190.0550  177.3600  147.7120 N   0  0  0  0  0  1  0  0  0  0  0  0
  189.0890  178.2740  137.8740 C   0  0  0  0  0  3  0  0  0  0  0  0
  189.9780  176.8630  140.1240 C   0  0  0  0  0  0  0  0  0  0  0  0
  189.0640  177.9280  140.2730 C   0  0  0  0  0  0  0  0  0  0  0  0
  190.4430  176.5200  138.8510 C   0  0  0  0  0  3  0  0  0  0  0  0
  191.6820  176.6700  144.3310 C   0  0  0  0  0  2  0  0  0  0  0  0
  191.4910  175.7000  146.9680 O   0  0  0  0  0  0  0  0  0  0  0  0
  190.9360  177.3380  145.3910 N   0  0  0  0  0  0  0  0  0  0  0  0
  190.1500  178.5200  145.0650 C   0  0  0  0  0  2  0  0  0  0  0  0
  189.8780  176.3540  142.5390 C   0  0  2  0  0  3  0  0  0  0  0  0
  188.9930  178.1600  144.1450 C   0  0  0  0  0  2  0  0  0  0  0  0
  189.5140  177.8390  142.7470 C   0  0  2  0  0  3  0  0  0  0  0  0
  187.0910  177.8740  141.8500 C   0  0  0  0  0  2  0  0  0  0  0  0
  186.1570  179.0530  142.1070 C   0  0  0  0  0  2  0  0  0  0  0  0
  185.6810  179.5620  140.8950 O   0  0  0  0  0  0  0  0  0  0  0  0
  182.7420  177.2930  140.3230 C   0  0  0  0  0  2  0  0  0  0  0  0
  185.0070  178.5920  138.7910 C   0  0  0  0  0  2  0  0  0  0  0  0
  182.7160  175.5480  136.8670 C   0  0  1  0  0  3  0  0  0  0  0  0
  182.2310  175.9370  138.2710 C   0  0  0  0  0  2  0  0  0  0  0  0
  183.2990  176.7320  139.0100 C   0  0  1  0  0  3  0  0  0  0  0  0
  184.2990  177.2420  136.7960 C   0  0  0  0  0  2  0  0  0  0  0  0
  183.8440  177.8500  138.1180 C   0  0  2  0  0  3  0  0  0  0  0  0
  183.2100  176.6470  136.1200 O   0  0  0  0  0  0  0  0  0  0  0  0
  184.9600  178.5100  140.3250 C   0  0  2  0  0  3  0  0  0  0  0  0
  183.5210  178.5130  140.8380 C   0  0  0  0  0  2  0  0  0  0  0  0
  183.6220  174.3500  136.8350 C   0  0  0  0  0  0  0  0  0  0  0  0
  184.1680  173.9590  137.9000 O   0  0  0  0  0  0  0  0  0  0  0  0
  183.8540  173.6370  135.6250 N   0  0  0  0  0  1  0  0  0  0  0  0
  1 19  1  1  0  0  0
  1 18  1  0  0  0  0
  2 12  1  0  0  0  0
  3 13  2  0  0  0  0
  3  7  1  0  0  0  0
  4 16  1  0  0  0  0
  5 10  1  0  0  0  0
  6  8  1  0  0  0  0
  6 11  2  0  0  0  0
  8  5  2  0  0  0  0
  9 10  2  0  0  0  0
  9  4  1  0  0  0  0
 10  1  1  0  0  0  0
 11  9  1  0  0  0  0
 12 14  1  0  0  0  0
 14  3  1  0  0  0  0
 15 14  1  0  0  0  0
 16 18  1  0  0  0  0
 16  2  1  1  0  0  0
 17 15  1  0  0  0  0
 18 17  1  1  0  0  0
 19 20  1  0  0  0  0
 21 20  1  0  0  0  0
 22 31  1  0  0  0  0
 23 30  1  0  0  0  0
 24 32  1  1  0  0  0
 24 25  1  0  0  0  0
 26 25  1  6  0  0  0
 26 22  1  0  0  0  0
 28 27  1  6  0  0  0
 28 23  1  0  0  0  0
 28 26  1  0  0  0  0
 29 27  1  0  0  0  0
 29 24  1  0  0  0  0
 30 31  1  0  0  0  0
 30 21  1  1  0  0  0
 32 33  2  0  0  0  0
 34 32  1  0  0  0  0
M  END
>  <MODEL>
9

>  <REMARK>
 VINA RESULT:      -8.2      3.830      7.092
  Name = 
  5 active torsions:
  status: ('A' for Active; 'I' for Inactive)
    1  A    between atoms: C_1  and  C_9
    2  A    between atoms: C_7  and  C_11
    3  A    between atoms: C_8  and  C_9
    4  A    between atoms: C_8  and  O_18
    5  A    between atoms: O_18  and  C_30
                            x       y       z     vdW  Elec       q    Type
                         _______ _______ _______ _____ _____    ______ ____

>  <TORSDO>
F 5

$$$$
