=
 OpenBabel11052412183D

 30 36  0  0  1  0  0  0  0  0999 V2000
  188.7520  177.7400  139.3160 C   0  0  0  0  0  0  0  0  0  0  0  0
  188.4560  178.8330  137.0420 C   0  0  0  0  0  0  0  0  0  0  0  0
  184.8270  177.5100  137.5610 N   0  0  0  0  0  0  0  0  0  0  0  0
  187.7060  178.1360  140.1660 C   0  0  0  0  0  0  0  0  0  0  0  0
  189.9950  177.3870  139.8520 C   0  0  0  0  0  3  0  0  0  0  0  0
  189.6230  177.7310  143.8020 S   0  0  0  0  0  0  0  0  0  0  0  0
  185.6620  179.4220  142.0630 C   0  0  1  0  0  3  0  0  0  0  0  0
  189.1390  177.7600  142.0780 C   0  0  0  0  0  0  0  0  0  0  0  0
  191.3890  177.1020  141.8720 N   0  0  0  0  0  2  0  0  0  0  0  0
  184.7090  178.9410  141.0520 N   0  0  2  0  0  0  0  0  0  0  0  0
  184.3480  177.8570  138.8710 C   0  0  0  0  0  0  0  0  0  0  0  0
  190.1720  177.4290  141.2330 C   0  0  0  0  0  0  0  0  0  0  0  0
  187.8720  178.1140  141.5700 C   0  0  0  0  0  0  0  0  0  0  0  0
  187.9400  178.7770  135.7160 N   0  0  0  0  0  0  0  0  0  0  0  0
  183.7060  178.2940  141.8640 C   0  0  0  0  0  2  0  0  0  0  0  0
  184.9290  179.8090  143.2010 O   0  0  0  0  0  0  0  0  0  0  0  0
  191.5730  175.8010  143.9120 C   0  0  0  0  0  1  0  0  0  0  0  0
  188.9480  179.9060  137.4800 O   0  0  0  0  0  0  0  0  0  0  0  0
  185.9940  177.0370  137.2420 C   0  0  0  0  0  0  0  0  0  0  0  0
  187.2890  177.7410  135.2820 C   0  0  0  0  0  3  0  0  0  0  0  0
  191.3110  177.1740  143.3250 C   0  0  2  0  0  3  0  0  0  0  0  0
  188.5210  177.5650  137.8410 C   0  0  2  0  0  3  0  0  0  0  0  0
  186.5010  178.5070  139.5870 O   0  0  0  0  0  0  0  0  0  0  0  0
  183.1100  178.0410  139.0200 O   0  0  0  0  0  0  0  0  0  0  0  0
  185.2670  178.0070  140.0600 C   0  0  1  0  0  3  0  0  0  0  0  0
  183.7390  179.0570  143.1650 C   0  0  0  0  0  2  0  0  0  0  0  0
  186.6200  177.8020  143.5590 O   0  0  0  0  0  0  0  0  0  0  0  0
  186.9490  176.5450  136.1470 C   0  0  1  0  0  3  0  0  0  0  0  0
  187.4250  176.5200  137.5110 C   0  0  2  0  0  3  0  0  0  0  0  0
  186.7300  178.4150  142.4630 C   0  0  0  0  0  0  0  0  0  0  0  0
  1  5  2  0  0  0  0
  1  4  1  0  0  0  0
  2 18  2  0  0  0  0
  3 11  1  0  0  0  0
  4 13  2  0  0  0  0
  5 12  1  0  0  0  0
  7 30  1  1  0  0  0
  7 16  1  0  0  0  0
  8  6  1  0  0  0  0
  9 21  1  0  0  0  0
 10 15  1  1  0  0  0
 10  7  1  0  0  0  0
 11 24  2  0  0  0  0
 12  9  1  0  0  0  0
 12  8  2  0  0  0  0
 13  8  1  0  0  0  0
 13 30  1  0  0  0  0
 14  2  1  0  0  0  0
 15 26  1  0  0  0  0
 19  3  2  0  0  0  0
 20 14  2  0  0  0  0
 21  6  1  0  0  0  0
 21 17  1  1  0  0  0
 22  2  1  1  0  0  0
 22  1  1  0  0  0  0
 23 25  1  0  0  0  0
 23  4  1  0  0  0  0
 25 11  1  6  0  0  0
 25 10  1  0  0  0  0
 26 16  1  0  0  0  0
 28 20  1  6  0  0  0
 28 19  1  0  0  0  0
 28 29  1  0  0  0  0
 29 19  1  1  0  0  0
 29 22  1  0  0  0  0
 30 27  2  0  0  0  0
M  END
>  <MODEL>
1

>  <REMARK>
 VINA RESULT:      -8.7      0.000      0.000
  Name = 
  0 active torsions:
  status: ('A' for Active; 'I' for Inactive)
                            x       y       z     vdW  Elec       q    Type
                         _______ _______ _______ _____ _____    ______ ____

>  <TORSDO>
F 0

$$$$
=
 OpenBabel11052412183D

 30 36  0  0  1  0  0  0  0  0999 V2000
  184.1220  178.9730  139.3340 C   0  0  0  0  0  0  0  0  0  0  0  0
  182.1690  180.4120  138.5830 C   0  0  0  0  0  0  0  0  0  0  0  0
  180.4470  178.5390  141.5350 N   0  0  0  0  0  0  0  0  0  0  0  0
  184.2610  179.0630  140.7290 C   0  0  0  0  0  0  0  0  0  0  0  0
  185.2380  178.7000  138.5350 C   0  0  0  0  0  3  0  0  0  0  0  0
  188.3010  178.2630  141.0410 S   0  0  0  0  0  0  0  0  0  0  0  0
  184.7650  179.6920  143.6920 C   0  0  1  0  0  3  0  0  0  0  0  0
  186.6130  178.5400  140.5120 C   0  0  0  0  0  0  0  0  0  0  0  0
  187.6640  178.2410  138.4280 N   0  0  0  0  0  2  0  0  0  0  0  0
  183.3590  179.2800  143.8200 N   0  0  2  0  0  0  0  0  0  0  0  0
  181.2810  178.5740  142.7060 C   0  0  0  0  0  0  0  0  0  0  0  0
  186.4760  178.5120  139.1450 C   0  0  0  0  0  0  0  0  0  0  0  0
  185.5070  178.8070  141.3460 C   0  0  0  0  0  0  0  0  0  0  0  0
  180.7830  180.5300  138.2760 N   0  0  0  0  0  0  0  0  0  0  0  0
  183.4120  178.3660  144.9360 C   0  0  0  0  0  2  0  0  0  0  0  0
  185.3160  179.7630  144.9850 O   0  0  0  0  0  0  0  0  0  0  0  0
  189.3450  176.6270  139.1000 C   0  0  0  0  0  1  0  0  0  0  0  0
  182.8880  181.4440  138.6480 O   0  0  0  0  0  0  0  0  0  0  0  0
  180.8070  178.2940  140.3110 C   0  0  0  0  0  0  0  0  0  0  0  0
  179.9810  179.5130  138.3500 C   0  0  0  0  0  3  0  0  0  0  0  0
  188.8200  178.0350  139.2900 C   0  0  2  0  0  3  0  0  0  0  0  0
  182.7660  179.0410  138.6890 C   0  0  2  0  0  3  0  0  0  0  0  0
  183.1330  179.3660  141.4770 O   0  0  0  0  0  0  0  0  0  0  0  0
  180.7180  178.5580  143.8330 O   0  0  0  0  0  0  0  0  0  0  0  0
  182.7880  178.6260  142.6310 C   0  0  1  0  0  3  0  0  0  0  0  0
  184.5580  178.8760  145.7740 C   0  0  0  0  0  2  0  0  0  0  0  0
  186.4130  177.9710  143.3710 O   0  0  0  0  0  0  0  0  0  0  0  0
  180.4090  178.1450  138.8380 C   0  0  1  0  0  3  0  0  0  0  0  0
  181.7970  177.9350  139.1800 C   0  0  2  0  0  3  0  0  0  0  0  0
  185.6200  178.7830  142.8220 C   0  0  0  0  0  0  0  0  0  0  0  0
  1  4  1  0  0  0  0
  2 18  2  0  0  0  0
  3 11  1  0  0  0  0
  4 13  2  0  0  0  0
  4 23  1  0  0  0  0
  5 12  1  0  0  0  0
  5  1  2  0  0  0  0
  7 30  1  6  0  0  0
  7 10  1  0  0  0  0
  7 16  1  0  0  0  0
  8  6  1  0  0  0  0
  8 13  1  0  0  0  0
  9 12  1  0  0  0  0
  9 21  1  0  0  0  0
 10 15  1  1  0  0  0
 11 24  2  0  0  0  0
 12  8  2  0  0  0  0
 13 30  1  0  0  0  0
 14 20  2  0  0  0  0
 14  2  1  0  0  0  0
 15 26  1  0  0  0  0
 16 26  1  0  0  0  0
 19  3  2  0  0  0  0
 21 17  1  1  0  0  0
 21  6  1  0  0  0  0
 22  2  1  1  0  0  0
 22 29  1  0  0  0  0
 22  1  1  0  0  0  0
 25 23  1  6  0  0  0
 25 11  1  0  0  0  0
 25 10  1  0  0  0  0
 28 20  1  6  0  0  0
 28 29  1  0  0  0  0
 28 19  1  0  0  0  0
 29 19  1  1  0  0  0
 30 27  2  0  0  0  0
M  END
>  <MODEL>
2

>  <REMARK>
 VINA RESULT:      -7.3      2.931      4.878
  Name = 
  0 active torsions:
  status: ('A' for Active; 'I' for Inactive)
                            x       y       z     vdW  Elec       q    Type
                         _______ _______ _______ _____ _____    ______ ____

>  <TORSDO>
F 0

$$$$
=
 OpenBabel11052412183D

 30 36  0  0  1  0  0  0  0  0999 V2000
  189.8700  177.1990  142.2060 C   0  0  0  0  0  0  0  0  0  0  0  0
  190.8040  175.4980  143.8440 C   0  0  0  0  0  0  0  0  0  0  0  0
  189.0950  177.9130  146.3800 N   0  0  0  0  0  0  0  0  0  0  0  0
  188.5250  177.4590  142.5150 C   0  0  0  0  0  0  0  0  0  0  0  0
  190.3260  177.3440  140.8910 C   0  0  0  0  0  3  0  0  0  0  0  0
  187.1880  178.5700  138.7690 S   0  0  0  0  0  0  0  0  0  0  0  0
  185.4930  177.5980  142.9820 C   0  0  1  0  0  3  0  0  0  0  0  0
  188.1270  178.0650  140.2080 C   0  0  0  0  0  0  0  0  0  0  0  0
  189.7890  177.9180  138.5480 N   0  0  0  0  0  2  0  0  0  0  0  0
  185.9130  177.9370  144.3500 N   0  0  2  0  0  0  0  0  0  0  0  0
  187.7550  178.2170  145.9590 C   0  0  0  0  0  0  0  0  0  0  0  0
  189.4310  177.7530  139.9050 C   0  0  0  0  0  0  0  0  0  0  0  0
  187.6380  177.9360  141.5240 C   0  0  0  0  0  0  0  0  0  0  0  0
  191.4850  175.2200  145.0630 N   0  0  0  0  0  0  0  0  0  0  0  0
  185.1010  179.0950  144.6380 C   0  0  0  0  0  2  0  0  0  0  0  0
  184.1180  177.8780  142.8680 O   0  0  0  0  0  0  0  0  0  0  0  0
  189.0550  179.7530  137.1400 C   0  0  0  0  0  1  0  0  0  0  0  0
  190.2640  174.5610  143.1970 O   0  0  0  0  0  0  0  0  0  0  0  0
  190.1680  177.8780  145.6490 C   0  0  0  0  0  0  0  0  0  0  0  0
  191.9190  176.1710  145.8330 C   0  0  0  0  0  3  0  0  0  0  0  0
  188.6920  178.4010  137.7200 C   0  0  2  0  0  3  0  0  0  0  0  0
  190.8650  176.8900  143.2890 C   0  0  2  0  0  3  0  0  0  0  0  0
  188.1110  177.2730  143.8260 O   0  0  0  0  0  0  0  0  0  0  0  0
  186.8980  178.4680  146.8490 O   0  0  0  0  0  0  0  0  0  0  0  0
  187.3440  178.2460  144.5070 C   0  0  1  0  0  3  0  0  0  0  0  0
  183.8500  178.8780  143.8230 C   0  0  0  0  0  2  0  0  0  0  0  0
  185.7070  179.2930  141.2910 O   0  0  0  0  0  0  0  0  0  0  0  0
  191.6810  177.6410  145.5590 C   0  0  1  0  0  3  0  0  0  0  0  0
  190.9900  178.0160  144.3470 C   0  0  2  0  0  3  0  0  0  0  0  0
  186.2540  178.3230  141.8820 C   0  0  0  0  0  0  0  0  0  0  0  0
  1  4  1  0  0  0  0
  2 14  1  0  0  0  0
  4 23  1  0  0  0  0
  5  1  2  0  0  0  0
  6  8  1  0  0  0  0
  7 30  1  6  0  0  0
  7 10  1  0  0  0  0
  8 13  1  0  0  0  0
  9 12  1  0  0  0  0
 10 25  1  0  0  0  0
 10 15  1  6  0  0  0
 11  3  1  0  0  0  0
 11 24  2  0  0  0  0
 12  8  2  0  0  0  0
 12  5  1  0  0  0  0
 13 30  1  0  0  0  0
 13  4  2  0  0  0  0
 14 20  2  0  0  0  0
 16  7  1  0  0  0  0
 16 26  1  0  0  0  0
 18  2  2  0  0  0  0
 19  3  2  0  0  0  0
 21 17  1  1  0  0  0
 21  9  1  0  0  0  0
 21  6  1  0  0  0  0
 22  1  1  1  0  0  0
 22  2  1  0  0  0  0
 22 29  1  0  0  0  0
 25 23  1  6  0  0  0
 25 11  1  0  0  0  0
 26 15  1  0  0  0  0
 27 30  2  0  0  0  0
 28 19  1  0  0  0  0
 28 20  1  6  0  0  0
 29 28  1  0  0  0  0
 29 19  1  1  0  0  0
M  END
>  <MODEL>
3

>  <REMARK>
 VINA RESULT:      -7.3      2.632      6.251
  Name = 
  0 active torsions:
  status: ('A' for Active; 'I' for Inactive)
                            x       y       z     vdW  Elec       q    Type
                         _______ _______ _______ _____ _____    ______ ____

>  <TORSDO>
F 0

$$$$
=
 OpenBabel11052412183D

 30 36  0  0  1  0  0  0  0  0999 V2000
  187.7270  177.9020  139.7040 C   0  0  0  0  0  0  0  0  0  0  0  0
  188.9970  178.5850  137.6140 C   0  0  0  0  0  0  0  0  0  0  0  0
  185.9640  176.8080  135.9320 N   0  0  0  0  0  0  0  0  0  0  0  0
  186.3740  178.2530  139.5670 C   0  0  0  0  0  0  0  0  0  0  0  0
  188.3060  177.8290  140.9760 C   0  0  0  0  0  3  0  0  0  0  0  0
  185.3980  178.6950  143.5550 S   0  0  0  0  0  0  0  0  0  0  0  0
  183.5640  179.4740  139.3610 C   0  0  1  0  0  3  0  0  0  0  0  0
  186.1810  178.3910  141.9740 C   0  0  0  0  0  0  0  0  0  0  0  0
  188.0100  178.0670  143.4180 N   0  0  0  0  0  2  0  0  0  0  0  0
  183.5320  178.7060  138.1060 N   0  0  2  0  0  0  0  0  0  0  0  0
  184.7300  177.2680  136.5080 C   0  0  0  0  0  0  0  0  0  0  0  0
  187.5200  178.1030  142.0930 C   0  0  0  0  0  0  0  0  0  0  0  0
  185.5660  178.4650  140.7070 C   0  0  0  0  0  0  0  0  0  0  0  0
  189.4940  178.2530  136.3210 N   0  0  0  0  0  0  0  0  0  0  0  0
  182.2550  178.0400  138.1920 C   0  0  0  0  0  2  0  0  0  0  0  0
  182.2530  179.9080  139.6380 O   0  0  0  0  0  0  0  0  0  0  0  0
  186.8150  177.1280  145.3090 C   0  0  0  0  0  1  0  0  0  0  0  0
  189.0550  179.7750  138.0240 O   0  0  0  0  0  0  0  0  0  0  0  0
  187.0560  176.4790  136.5530 C   0  0  0  0  0  0  0  0  0  0  0  0
  189.3140  177.0760  135.8040 C   0  0  0  0  0  3  0  0  0  0  0  0
  186.9860  178.3400  144.4170 C   0  0  2  0  0  3  0  0  0  0  0  0
  188.5380  177.4750  138.5130 C   0  0  2  0  0  3  0  0  0  0  0  0
  185.8520  178.3420  138.2850 O   0  0  0  0  0  0  0  0  0  0  0  0
  183.7030  177.2780  135.7770 O   0  0  0  0  0  0  0  0  0  0  0  0
  184.6240  177.7330  137.9400 C   0  0  1  0  0  3  0  0  0  0  0  0
  181.4010  178.9840  139.0030 C   0  0  0  0  0  2  0  0  0  0  0  0
  183.3150  178.2630  141.4220 O   0  0  0  0  0  0  0  0  0  0  0  0
  188.5060  175.9840  136.4740 C   0  0  1  0  0  3  0  0  0  0  0  0
  187.9560  176.2360  137.7860 C   0  0  2  0  0  3  0  0  0  0  0  0
  184.1140  178.7150  140.5590 C   0  0  0  0  0  0  0  0  0  0  0  0
  1  5  1  0  0  0  0
  2 18  2  0  0  0  0
  3 11  1  0  0  0  0
  3 19  2  0  0  0  0
  4  1  2  0  0  0  0
  4 13  1  0  0  0  0
  5 12  2  0  0  0  0
  6 21  1  0  0  0  0
  7 16  1  1  0  0  0
  7 30  1  0  0  0  0
  8 12  1  0  0  0  0
  8  6  1  0  0  0  0
  9 21  1  0  0  0  0
 10 15  1  1  0  0  0
 10  7  1  0  0  0  0
 12  9  1  0  0  0  0
 13  8  2  0  0  0  0
 14  2  1  0  0  0  0
 15 26  1  0  0  0  0
 20 14  2  0  0  0  0
 21 17  1  1  0  0  0
 22  2  1  6  0  0  0
 22  1  1  0  0  0  0
 23  4  1  0  0  0  0
 24 11  2  0  0  0  0
 25 11  1  6  0  0  0
 25 10  1  0  0  0  0
 25 23  1  0  0  0  0
 26 16  1  0  0  0  0
 28 20  1  6  0  0  0
 28 19  1  0  0  0  0
 28 29  1  0  0  0  0
 29 19  1  6  0  0  0
 29 22  1  0  0  0  0
 30 13  1  0  0  0  0
 30 27  2  0  0  0  0
M  END
>  <MODEL>
4

>  <REMARK>
 VINA RESULT:      -7.0      2.236      2.958
  Name = 
  0 active torsions:
  status: ('A' for Active; 'I' for Inactive)
                            x       y       z     vdW  Elec       q    Type
                         _______ _______ _______ _____ _____    ______ ____

>  <TORSDO>
F 0

$$$$
=
 OpenBabel11052412183D

 30 36  0  0  1  0  0  0  0  0999 V2000
  185.4250  178.3640  138.4560 C   0  0  0  0  0  0  0  0  0  0  0  0
  183.5850  180.0610  138.8840 C   0  0  0  0  0  0  0  0  0  0  0  0
  183.5020  178.1970  142.3050 N   0  0  0  0  0  0  0  0  0  0  0  0
  186.3060  178.3410  139.5510 C   0  0  0  0  0  0  0  0  0  0  0  0
  185.8850  178.0210  137.1800 C   0  0  0  0  0  3  0  0  0  0  0  0
  189.7270  177.0730  137.6170 S   0  0  0  0  0  0  0  0  0  0  0  0
  188.4080  178.7070  141.7590 C   0  0  1  0  0  3  0  0  0  0  0  0
  188.0750  177.5730  138.0910 C   0  0  0  0  0  0  0  0  0  0  0  0
  187.7830  177.3010  135.7710 N   0  0  0  0  0  2  0  0  0  0  0  0
  187.2540  178.4470  142.6330 N   0  0  2  0  0  0  0  0  0  0  0  0
  184.8310  178.0580  142.8330 C   0  0  0  0  0  0  0  0  0  0  0  0
  187.2190  177.6540  137.0180 C   0  0  0  0  0  0  0  0  0  0  0  0
  187.6400  177.9050  139.3910 C   0  0  0  0  0  0  0  0  0  0  0  0
  182.2820  180.3550  139.3800 N   0  0  0  0  0  0  0  0  0  0  0  0
  187.7800  177.4600  143.5450 C   0  0  0  0  0  2  0  0  0  0  0  0
  189.5740  178.6270  142.5440 O   0  0  0  0  0  0  0  0  0  0  0  0
  189.3320  175.4650  135.4270 C   0  0  0  0  0  1  0  0  0  0  0  0
  184.3540  180.9990  138.5420 O   0  0  0  0  0  0  0  0  0  0  0  0
  183.1080  177.9970  141.0840 C   0  0  0  0  0  0  0  0  0  0  0  0
  181.5220  179.4310  139.8830 C   0  0  0  0  0  3  0  0  0  0  0  0
  189.1820  176.9080  135.8660 C   0  0  2  0  0  3  0  0  0  0  0  0
  183.9580  178.6270  138.6530 C   0  0  2  0  0  3  0  0  0  0  0  0
  185.8120  178.7180  140.7910 O   0  0  0  0  0  0  0  0  0  0  0  0
  184.9710  178.0290  144.0860 O   0  0  0  0  0  0  0  0  0  0  0  0
  186.0510  177.9450  141.9500 C   0  0  1  0  0  3  0  0  0  0  0  0
  189.2530  177.7790  143.6220 C   0  0  0  0  0  2  0  0  0  0  0  0
  189.3770  176.8370  140.6000 O   0  0  0  0  0  0  0  0  0  0  0  0
  181.9610  177.9940  140.0650 C   0  0  1  0  0  3  0  0  0  0  0  0
  183.2730  177.6070  139.5970 C   0  0  2  0  0  3  0  0  0  0  0  0
  188.5290  177.7680  140.5680 C   0  0  0  0  0  0  0  0  0  0  0  0
  1  4  1  0  0  0  0
  2 14  1  0  0  0  0
  3 11  1  0  0  0  0
  4 23  1  0  0  0  0
  5  1  2  0  0  0  0
  6  8  1  0  0  0  0
  7 30  1  6  0  0  0
  7 16  1  0  0  0  0
  7 10  1  0  0  0  0
  8 13  1  0  0  0  0
  9 21  1  0  0  0  0
  9 12  1  0  0  0  0
 10 15  1  1  0  0  0
 11 24  2  0  0  0  0
 12  5  1  0  0  0  0
 12  8  2  0  0  0  0
 13  4  2  0  0  0  0
 13 30  1  0  0  0  0
 14 20  2  0  0  0  0
 15 26  1  0  0  0  0
 16 26  1  0  0  0  0
 18  2  2  0  0  0  0
 19  3  2  0  0  0  0
 21 17  1  1  0  0  0
 21  6  1  0  0  0  0
 22  1  1  1  0  0  0
 22  2  1  0  0  0  0
 22 29  1  0  0  0  0
 25 23  1  6  0  0  0
 25 10  1  0  0  0  0
 25 11  1  0  0  0  0
 28 20  1  6  0  0  0
 28 19  1  0  0  0  0
 29 28  1  0  0  0  0
 29 19  1  1  0  0  0
 30 27  2  0  0  0  0
M  END
>  <MODEL>
5

>  <REMARK>
 VINA RESULT:      -6.9      2.300      5.087
  Name = 
  0 active torsions:
  status: ('A' for Active; 'I' for Inactive)
                            x       y       z     vdW  Elec       q    Type
                         _______ _______ _______ _____ _____    ______ ____

>  <TORSDO>
F 0

$$$$
=
 OpenBabel11052412183D

 30 36  0  0  1  0  0  0  0  0999 V2000
  188.3140  177.9240  139.4990 C   0  0  0  0  0  0  0  0  0  0  0  0
  188.9880  178.7470  137.1930 C   0  0  0  0  0  0  0  0  0  0  0  0
  185.7930  176.7410  136.2150 N   0  0  0  0  0  0  0  0  0  0  0  0
  186.9430  178.1590  139.6990 C   0  0  0  0  0  0  0  0  0  0  0  0
  189.1840  177.8820  140.5940 C   0  0  0  0  0  3  0  0  0  0  0  0
  186.9190  178.4520  143.8180 S   0  0  0  0  0  0  0  0  0  0  0  0
  184.0770  179.1350  140.2090 C   0  0  1  0  0  3  0  0  0  0  0  0
  187.3220  178.2420  142.0870 C   0  0  0  0  0  0  0  0  0  0  0  0
  189.4640  178.0550  143.0430 N   0  0  0  0  0  2  0  0  0  0  0  0
  183.8080  178.3870  138.9720 N   0  0  2  0  0  0  0  0  0  0  0  0
  184.7000  177.0830  137.0840 C   0  0  0  0  0  0  0  0  0  0  0  0
  188.6700  178.0690  141.8750 C   0  0  0  0  0  0  0  0  0  0  0  0
  186.4180  178.2820  141.0050 C   0  0  0  0  0  0  0  0  0  0  0  0
  189.1850  178.4800  135.8080 N   0  0  0  0  0  0  0  0  0  0  0  0
  182.6460  177.6110  139.3340 C   0  0  0  0  0  2  0  0  0  0  0  0
  182.8410  179.4490  140.8050 O   0  0  0  0  0  0  0  0  0  0  0  0
  188.8360  176.9870  145.1290 C   0  0  0  0  0  1  0  0  0  0  0  0
  189.0460  179.9310  137.6190 O   0  0  0  0  0  0  0  0  0  0  0  0
  187.0250  176.4980  136.5480 C   0  0  0  0  0  0  0  0  0  0  0  0
  188.9820  177.3000  135.3070 C   0  0  0  0  0  3  0  0  0  0  0  0
  188.6900  178.2240  144.2650 C   0  0  2  0  0  3  0  0  0  0  0  0
  188.8470  177.5880  138.1350 C   0  0  2  0  0  3  0  0  0  0  0  0
  186.1240  178.2220  138.5820 O   0  0  0  0  0  0  0  0  0  0  0  0
  183.5300  177.0150  136.6190 O   0  0  0  0  0  0  0  0  0  0  0  0
  184.9030  177.5140  138.5170 C   0  0  1  0  0  3  0  0  0  0  0  0
  181.9380  178.4650  140.3580 C   0  0  0  0  0  2  0  0  0  0  0  0
  184.4270  177.8750  142.2260 O   0  0  0  0  0  0  0  0  0  0  0  0
  188.4480  176.1320  136.1090 C   0  0  1  0  0  3  0  0  0  0  0  0
  188.2100  176.3150  137.5230 C   0  0  2  0  0  3  0  0  0  0  0  0
  184.9570  178.4080  141.2150 C   0  0  0  0  0  0  0  0  0  0  0  0
  1  4  2  0  0  0  0
  1  5  1  0  0  0  0
  2 18  2  0  0  0  0
  3 19  2  0  0  0  0
  3 11  1  0  0  0  0
  4 13  1  0  0  0  0
  5 12  2  0  0  0  0
  6 21  1  0  0  0  0
  7 16  1  1  0  0  0
  7 30  1  0  0  0  0
  8  6  1  0  0  0  0
  9 21  1  0  0  0  0
 10 15  1  1  0  0  0
 10  7  1  0  0  0  0
 12  8  1  0  0  0  0
 12  9  1  0  0  0  0
 13 30  1  0  0  0  0
 13  8  2  0  0  0  0
 14  2  1  0  0  0  0
 15 26  1  0  0  0  0
 20 14  2  0  0  0  0
 21 17  1  1  0  0  0
 22  2  1  6  0  0  0
 22  1  1  0  0  0  0
 23  4  1  0  0  0  0
 24 11  2  0  0  0  0
 25 11  1  6  0  0  0
 25 23  1  0  0  0  0
 25 10  1  0  0  0  0
 26 16  1  0  0  0  0
 28 20  1  6  0  0  0
 28 19  1  0  0  0  0
 28 29  1  0  0  0  0
 29 19  1  6  0  0  0
 29 22  1  0  0  0  0
 30 27  2  0  0  0  0
M  END
>  <MODEL>
6

>  <REMARK>
 VINA RESULT:      -6.6      1.686      2.045
  Name = 
  0 active torsions:
  status: ('A' for Active; 'I' for Inactive)
                            x       y       z     vdW  Elec       q    Type
                         _______ _______ _______ _____ _____    ______ ____

>  <TORSDO>
F 0

$$$$
=
 OpenBabel11052412183D

 30 36  0  0  1  0  0  0  0  0999 V2000
  184.7320  178.5350  142.7730 C   0  0  0  0  0  0  0  0  0  0  0  0
  185.2720  179.7730  144.9240 C   0  0  0  0  0  0  0  0  0  0  0  0
  188.4050  177.4630  144.7470 N   0  0  0  0  0  0  0  0  0  0  0  0
  185.8640  178.5260  141.9400 C   0  0  0  0  0  0  0  0  0  0  0  0
  183.4510  178.4700  142.2140 C   0  0  0  0  0  3  0  0  0  0  0  0
  183.9840  178.2190  138.2760 S   0  0  0  0  0  0  0  0  0  0  0  0
  188.2210  178.9690  140.0230 C   0  0  1  0  0  3  0  0  0  0  0  0
  184.4220  178.3230  140.0090 C   0  0  0  0  0  0  0  0  0  0  0  0
  182.0740  178.3310  140.1670 N   0  0  0  0  0  2  0  0  0  0  0  0
  188.9840  178.3740  141.1310 N   0  0  2  0  0  0  0  0  0  0  0  0
  188.9870  177.5060  143.4340 C   0  0  0  0  0  0  0  0  0  0  0  0
  183.3210  178.3900  140.8290 C   0  0  0  0  0  0  0  0  0  0  0  0
  185.7260  178.3790  140.5410 C   0  0  0  0  0  0  0  0  0  0  0  0
  185.7250  179.7400  146.2730 N   0  0  0  0  0  0  0  0  0  0  0  0
  189.7860  177.3860  140.4500 C   0  0  0  0  0  2  0  0  0  0  0  0
  189.0550  179.0030  138.8890 O   0  0  0  0  0  0  0  0  0  0  0  0
  181.5810  176.8910  138.2770 C   0  0  0  0  0  1  0  0  0  0  0  0
  185.1030  180.8780  144.3440 O   0  0  0  0  0  0  0  0  0  0  0  0
  187.1470  177.3660  145.0550 C   0  0  0  0  0  0  0  0  0  0  0  0
  186.0560  178.6270  146.8530 C   0  0  0  0  0  3  0  0  0  0  0  0
  182.1980  178.2020  138.7210 C   0  0  2  0  0  3  0  0  0  0  0  0
  184.8750  178.4830  144.2680 C   0  0  2  0  0  3  0  0  0  0  0  0
  187.1120  178.6230  142.5370 O   0  0  0  0  0  0  0  0  0  0  0  0
  190.2310  177.3280  143.3320 O   0  0  0  0  0  0  0  0  0  0  0  0
  188.1700  177.7530  142.1890 C   0  0  1  0  0  3  0  0  0  0  0  0
  189.9910  177.9660  139.0710 C   0  0  0  0  0  2  0  0  0  0  0  0
  186.8840  177.5020  138.6680 O   0  0  0  0  0  0  0  0  0  0  0  0
  186.0710  177.2880  146.1450 C   0  0  1  0  0  3  0  0  0  0  0  0
  185.6340  177.2280  144.7690 C   0  0  2  0  0  3  0  0  0  0  0  0
  186.9250  178.2490  139.6810 C   0  0  0  0  0  0  0  0  0  0  0  0
  2 14  1  0  0  0  0
  3 19  2  0  0  0  0
  4 23  1  0  0  0  0
  4  1  2  0  0  0  0
  5  1  1  0  0  0  0
  6 21  1  0  0  0  0
  6  8  1  0  0  0  0
  7 16  1  6  0  0  0
  7 10  1  0  0  0  0
  8 13  2  0  0  0  0
  8 12  1  0  0  0  0
  9 12  1  0  0  0  0
 10 15  1  6  0  0  0
 10 25  1  0  0  0  0
 11  3  1  0  0  0  0
 12  5  2  0  0  0  0
 13  4  1  0  0  0  0
 14 20  2  0  0  0  0
 16 26  1  0  0  0  0
 18  2  2  0  0  0  0
 19 28  1  0  0  0  0
 21 17  1  1  0  0  0
 21  9  1  0  0  0  0
 22  1  1  6  0  0  0
 22 29  1  0  0  0  0
 22  2  1  0  0  0  0
 24 11  2  0  0  0  0
 25 23  1  1  0  0  0
 25 11  1  0  0  0  0
 26 15  1  0  0  0  0
 27 30  2  0  0  0  0
 28 20  1  6  0  0  0
 29 19  1  6  0  0  0
 29 28  1  0  0  0  0
 30  7  1  0  0  0  0
 30 13  1  0  0  0  0
M  END
>  <MODEL>
7

>  <REMARK>
 VINA RESULT:      -6.4      2.809      7.339
  Name = 
  0 active torsions:
  status: ('A' for Active; 'I' for Inactive)
                            x       y       z     vdW  Elec       q    Type
                         _______ _______ _______ _____ _____    ______ ____

>  <TORSDO>
F 0

$$$$
=
 OpenBabel11052412183D

 30 36  0  0  1  0  0  0  0  0999 V2000
  187.9940  177.9430  142.4970 C   0  0  0  0  0  0  0  0  0  0  0  0
  190.1320  178.4350  143.7770 C   0  0  0  0  0  0  0  0  0  0  0  0
  191.5990  176.1190  141.0070 N   0  0  0  0  0  0  0  0  0  0  0  0
  188.2180  178.1270  141.1220 C   0  0  0  0  0  0  0  0  0  0  0  0
  186.7120  178.1230  143.0270 C   0  0  0  0  0  3  0  0  0  0  0  0
  184.3700  179.0560  139.9450 S   0  0  0  0  0  0  0  0  0  0  0  0
  188.6800  179.0030  138.2150 C   0  0  1  0  0  3  0  0  0  0  0  0
  185.8660  178.6030  140.8180 C   0  0  0  0  0  0  0  0  0  0  0  0
  184.3440  178.6910  142.6100 N   0  0  0  0  0  2  0  0  0  0  0  0
  189.8030  178.0570  138.3110 N   0  0  2  0  0  0  0  0  0  0  0  0
  191.1310  176.5290  139.7110 C   0  0  0  0  0  0  0  0  0  0  0  0
  185.6700  178.4770  142.1730 C   0  0  0  0  0  0  0  0  0  0  0  0
  187.1450  178.4220  140.2510 C   0  0  0  0  0  0  0  0  0  0  0  0
  191.3460  177.9670  144.3570 N   0  0  0  0  0  0  0  0  0  0  0  0
  189.6490  177.2810  137.1040 C   0  0  0  0  0  2  0  0  0  0  0  0
  188.5060  179.3340  136.8580 O   0  0  0  0  0  0  0  0  0  0  0  0
  182.3620  177.9260  141.4370 C   0  0  0  0  0  1  0  0  0  0  0  0
  189.9080  179.6720  143.7000 O   0  0  0  0  0  0  0  0  0  0  0  0
  190.9070  176.0030  142.1000 C   0  0  0  0  0  0  0  0  0  0  0  0
  191.6810  176.7140  144.3160 C   0  0  0  0  0  3  0  0  0  0  0  0
  183.4250  179.0030  141.5230 C   0  0  2  0  0  3  0  0  0  0  0  0
  189.0860  177.4310  143.3940 C   0  0  2  0  0  3  0  0  0  0  0  0
  189.5120  177.9680  140.6460 O   0  0  0  0  0  0  0  0  0  0  0  0
  191.8800  176.3220  138.7190 O   0  0  0  0  0  0  0  0  0  0  0  0
  189.7900  177.1890  139.5000 C   0  0  1  0  0  3  0  0  0  0  0  0
  189.0130  178.2410  136.1280 C   0  0  0  0  0  2  0  0  0  0  0  0
  186.4650  178.0950  138.0030 O   0  0  0  0  0  0  0  0  0  0  0  0
  190.8730  175.6560  143.5930 C   0  0  1  0  0  3  0  0  0  0  0  0
  189.6290  176.0430  142.9680 C   0  0  2  0  0  3  0  0  0  0  0  0
  187.3660  178.4940  138.7890 C   0  0  0  0  0  0  0  0  0  0  0  0
  1  5  1  0  0  0  0
  2 14  1  0  0  0  0
  3 19  2  0  0  0  0
  4  1  2  0  0  0  0
  6  8  1  0  0  0  0
  6 21  1  0  0  0  0
  7 16  1  6  0  0  0
  7 10  1  0  0  0  0
  7 30  1  0  0  0  0
  8 12  1  0  0  0  0
 10 15  1  6  0  0  0
 10 25  1  0  0  0  0
 11  3  1  0  0  0  0
 12  9  1  0  0  0  0
 12  5  2  0  0  0  0
 13  8  2  0  0  0  0
 13  4  1  0  0  0  0
 18  2  2  0  0  0  0
 19 28  1  0  0  0  0
 20 14  2  0  0  0  0
 21 17  1  6  0  0  0
 21  9  1  0  0  0  0
 22  1  1  6  0  0  0
 22  2  1  0  0  0  0
 23  4  1  0  0  0  0
 24 11  2  0  0  0  0
 25 11  1  1  0  0  0
 25 23  1  0  0  0  0
 26 16  1  0  0  0  0
 26 15  1  0  0  0  0
 27 30  2  0  0  0  0
 28 20  1  1  0  0  0
 29 19  1  6  0  0  0
 29 22  1  0  0  0  0
 29 28  1  0  0  0  0
 30 13  1  0  0  0  0
M  END
>  <MODEL>
8

>  <REMARK>
 VINA RESULT:      -6.4      2.505      6.605
  Name = 
  0 active torsions:
  status: ('A' for Active; 'I' for Inactive)
                            x       y       z     vdW  Elec       q    Type
                         _______ _______ _______ _____ _____    ______ ____

>  <TORSDO>
F 0

$$$$
=
 OpenBabel11052412183D

 30 36  0  0  1  0  0  0  0  0999 V2000
  182.9440  176.5490  137.4450 C   0  0  0  0  0  0  0  0  0  0  0  0
  181.3670  178.5140  137.7630 C   0  0  0  0  0  0  0  0  0  0  0  0
  183.6300  179.0350  140.8930 N   0  0  0  0  0  0  0  0  0  0  0  0
  184.2710  176.9820  137.5990 C   0  0  0  0  0  0  0  0  0  0  0  0
  182.6580  175.4470  136.6320 C   0  0  0  0  0  3  0  0  0  0  0  0
  186.1640  174.1620  135.2510 S   0  0  0  0  0  0  0  0  0  0  0  0
  187.1230  178.1160  137.4900 C   0  0  1  0  0  3  0  0  0  0  0  0
  185.0120  175.1690  136.1800 C   0  0  0  0  0  0  0  0  0  0  0  0
  183.5200  173.6750  135.1410 N   0  0  0  0  0  2  0  0  0  0  0  0
  186.7530  178.6520  138.8090 N   0  0  2  0  0  0  0  0  0  0  0  0
  185.0180  178.9560  140.5270 C   0  0  0  0  0  0  0  0  0  0  0  0
  183.7050  174.7890  135.9900 C   0  0  0  0  0  0  0  0  0  0  0  0
  185.3350  176.2720  136.9980 C   0  0  0  0  0  0  0  0  0  0  0  0
  180.5500  179.3000  138.6250 N   0  0  0  0  0  0  0  0  0  0  0  0
  187.8950  178.2900  139.6140 C   0  0  0  0  0  2  0  0  0  0  0  0
  188.5140  178.2660  137.3340 O   0  0  0  0  0  0  0  0  0  0  0  0
  184.9400  171.7070  135.1170 C   0  0  0  0  0  1  0  0  0  0  0  0
  181.5910  178.9000  136.5850 O   0  0  0  0  0  0  0  0  0  0  0  0
  182.6640  178.2520  140.5150 C   0  0  0  0  0  0  0  0  0  0  0  0
  180.4210  179.0170  139.8850 C   0  0  0  0  0  3  0  0  0  0  0  0
  184.7710  173.1320  134.6280 C   0  0  2  0  0  3  0  0  0  0  0  0
  181.8320  177.1710  138.2420 C   0  0  2  0  0  3  0  0  0  0  0  0
  184.5030  178.0980  138.3900 O   0  0  0  0  0  0  0  0  0  0  0  0
  185.8460  179.6290  141.2000 O   0  0  0  0  0  0  0  0  0  0  0  0
  185.5120  178.1070  139.3810 C   0  0  1  0  0  3  0  0  0  0  0  0
  189.0460  178.2850  138.6380 C   0  0  0  0  0  2  0  0  0  0  0  0
  187.6270  175.7700  137.3370 O   0  0  0  0  0  0  0  0  0  0  0  0
  181.1740  177.8960  140.5710 C   0  0  1  0  0  3  0  0  0  0  0  0
  182.0330  177.0510  139.7740 C   0  0  2  0  0  3  0  0  0  0  0  0
  186.7390  176.6610  137.2630 C   0  0  0  0  0  0  0  0  0  0  0  0
  1  4  1  0  0  0  0
  2 22  1  0  0  0  0
  2 14  1  0  0  0  0
  4 23  1  0  0  0  0
  5  1  2  0  0  0  0
  6  8  1  0  0  0  0
  7 30  1  1  0  0  0
  7 10  1  0  0  0  0
  8 13  1  0  0  0  0
  9 12  1  0  0  0  0
 10 25  1  0  0  0  0
 10 15  1  1  0  0  0
 11  3  1  0  0  0  0
 11 24  2  0  0  0  0
 12  8  2  0  0  0  0
 12  5  1  0  0  0  0
 13 30  1  0  0  0  0
 13  4  2  0  0  0  0
 14 20  2  0  0  0  0
 16  7  1  0  0  0  0
 16 26  1  0  0  0  0
 18  2  2  0  0  0  0
 19 28  1  0  0  0  0
 19  3  2  0  0  0  0
 21 17  1  1  0  0  0
 21  9  1  0  0  0  0
 21  6  1  0  0  0  0
 22  1  1  6  0  0  0
 22 29  1  0  0  0  0
 25 23  1  6  0  0  0
 25 11  1  0  0  0  0
 26 15  1  0  0  0  0
 28 20  1  6  0  0  0
 29 19  1  6  0  0  0
 29 28  1  0  0  0  0
 30 27  2  0  0  0  0
M  END
>  <MODEL>
9

>  <REMARK>
 VINA RESULT:      -6.3      3.302      6.950
  Name = 
  0 active torsions:
  status: ('A' for Active; 'I' for Inactive)
                            x       y       z     vdW  Elec       q    Type
                         _______ _______ _______ _____ _____    ______ ____

>  <TORSDO>
F 0

$$$$
