=
 OpenBabel11052412433D

 25 27  0  0  1  0  0  0  0  0999 V2000
  189.2410  177.6110  141.7660 C   0  0  0  0  0  0  0  0  0  0  0  0
  187.9120  178.0010  142.0480 C   0  0  0  0  0  0  0  0  0  0  0  0
  188.9190  178.3270  139.4740 C   0  0  0  0  0  3  0  0  0  0  0  0
  187.6430  178.6940  139.7610 N   0  0  0  0  0  0  0  0  0  0  0  0
  185.7940  178.9280  141.2650 C   0  0  0  0  0  0  0  0  0  0  0  0
  185.0080  179.4700  140.2560 O   0  0  0  0  0  1  0  0  0  0  0  0
  187.3500  177.8380  143.3220 C   0  0  0  0  0  3  0  0  0  0  0  0
  189.7340  177.7830  140.4670 C   0  0  0  0  0  3  0  0  0  0  0  0
  185.2540  178.7610  142.5430 C   0  0  0  0  0  3  0  0  0  0  0  0
  186.0270  178.2140  143.5700 C   0  0  0  0  0  0  0  0  0  0  0  0
  187.1200  178.5470  141.0080 C   0  0  0  0  0  0  0  0  0  0  0  0
  190.1400  177.0510  142.8040 C   0  0  0  0  0  0  0  0  0  0  0  0
  191.7760  175.8890  144.7350 C   0  0  0  0  0  3  0  0  0  0  0  0
  190.7950  177.8630  143.7550 C   0  0  0  0  0  0  0  0  0  0  0  0
  191.6160  177.2740  144.7190 C   0  0  0  0  0  3  0  0  0  0  0  0
  191.1380  175.1180  143.8160 N   0  0  0  0  0  0  0  0  0  0  0  0
  190.6740  179.3500  143.7430 C   0  0  0  0  0  1  0  0  0  0  0  0
  190.3340  175.6630  142.8660 C   0  0  0  0  0  3  0  0  0  0  0  0
  185.4460  178.0280  144.9350 C   0  0  0  0  0  2  0  0  0  0  0  0
  186.2090  178.7770  146.0350 C   0  0  1  0  0  3  0  0  0  0  0  0
  185.3290  179.3480  146.9570 O   0  0  0  0  0  1  0  0  0  0  0  0
  188.5390  178.2750  146.3060 F   0  0  0  0  0  0  0  0  0  0  0  0
  187.1920  178.1180  148.1110 F   0  0  0  0  0  0  0  0  0  0  0  0
  187.0490  176.5970  146.4610 F   0  0  0  0  0  0  0  0  0  0  0  0
  187.2710  177.9330  146.7420 C   0  0  0  0  0  0  0  0  0  0  0  0
  1  2  1  0  0  0  0
  1 12  1  0  0  0  0
  2  7  1  0  0  0  0
  3  4  2  0  0  0  0
  3  8  1  0  0  0  0
  4 11  1  0  0  0  0
  5  9  2  0  0  0  0
  6  5  1  0  0  0  0
  7 10  2  0  0  0  0
  8  1  2  0  0  0  0
  9 10  1  0  0  0  0
 10 19  1  0  0  0  0
 11  5  1  0  0  0  0
 11  2  2  0  0  0  0
 12 18  2  0  0  0  0
 12 14  1  0  0  0  0
 14 15  2  0  0  0  0
 15 13  1  0  0  0  0
 16 13  2  0  0  0  0
 17 14  1  0  0  0  0
 18 16  1  0  0  0  0
 19 20  1  0  0  0  0
 20 25  1  0  0  0  0
 20 21  1  1  0  0  0
 22 25  1  0  0  0  0
 24 25  1  0  0  0  0
 25 23  1  0  0  0  0
M  END
>  <MODEL>
1

>  <REMARK>
 VINA RESULT:      -8.8      0.000      0.000
  Name = 
  4 active torsions:
  status: ('A' for Active; 'I' for Inactive)
    1  A    between atoms: C_1  and  C_5
    2  A    between atoms: C_6  and  C_15
    3  A    between atoms: C_6  and  C_23
    4  A    between atoms: C_15  and  C_21
                            x       y       z     vdW  Elec       q    Type
                         _______ _______ _______ _____ _____    ______ ____

>  <TORSDO>
F 4

$$$$
=
 OpenBabel11052412433D

 25 27  0  0  1  0  0  0  0  0999 V2000
  188.8120  177.3750  145.0280 C   0  0  0  0  0  0  0  0  0  0  0  0
  187.4760  177.8290  144.9580 C   0  0  0  0  0  0  0  0  0  0  0  0
  188.5700  177.1690  147.4300 C   0  0  0  0  0  3  0  0  0  0  0  0
  187.2880  177.6100  147.3450 N   0  0  0  0  0  0  0  0  0  0  0  0
  185.3990  178.4030  146.1050 C   0  0  0  0  0  0  0  0  0  0  0  0
  184.6480  178.5130  147.2690 O   0  0  0  0  0  1  0  0  0  0  0  0
  186.8840  178.1950  143.7410 C   0  0  0  0  0  3  0  0  0  0  0  0
  189.3480  177.0460  146.2790 C   0  0  0  0  0  3  0  0  0  0  0  0
  184.8270  178.7590  144.8810 C   0  0  0  0  0  3  0  0  0  0  0  0
  185.5670  178.6590  143.7000 C   0  0  0  0  0  0  0  0  0  0  0  0
  186.7230  177.9420  146.1530 C   0  0  0  0  0  0  0  0  0  0  0  0
  189.6580  177.2120  143.8220 C   0  0  0  0  0  0  0  0  0  0  0  0
  191.2210  176.7850  141.5560 C   0  0  0  0  0  3  0  0  0  0  0  0
  190.6370  178.1590  143.4510 C   0  0  0  0  0  0  0  0  0  0  0  0
  191.4160  177.9400  142.3130 C   0  0  0  0  0  3  0  0  0  0  0  0
  190.2770  175.8800  141.9240 N   0  0  0  0  0  0  0  0  0  0  0  0
  190.8470  179.4220  144.2180 C   0  0  0  0  0  1  0  0  0  0  0  0
  189.5040  176.0660  143.0270 C   0  0  0  0  0  3  0  0  0  0  0  0
  184.9560  179.0480  142.3910 C   0  0  0  0  0  2  0  0  0  0  0  0
  183.6970  178.2470  142.0400 C   0  0  1  0  0  3  0  0  0  0  0  0
  182.5540  178.8480  142.5720 O   0  0  0  0  0  1  0  0  0  0  0  0
  183.1530  176.6630  140.3210 F   0  0  0  0  0  0  0  0  0  0  0  0
  182.5680  178.8220  140.0120 F   0  0  0  0  0  0  0  0  0  0  0  0
  184.7300  178.2110  139.9020 F   0  0  0  0  0  0  0  0  0  0  0  0
  183.5270  177.9770  140.5430 C   0  0  0  0  0  0  0  0  0  0  0  0
  1  8  1  0  0  0  0
  2  1  2  0  0  0  0
  2 11  1  0  0  0  0
  4  3  1  0  0  0  0
  5 11  1  0  0  0  0
  5  6  1  0  0  0  0
  7  2  1  0  0  0  0
  8  3  2  0  0  0  0
  9  5  2  0  0  0  0
 10  7  2  0  0  0  0
 10  9  1  0  0  0  0
 11  4  2  0  0  0  0
 12  1  1  0  0  0  0
 13 16  2  0  0  0  0
 13 15  1  0  0  0  0
 14 12  1  0  0  0  0
 14 17  1  0  0  0  0
 15 14  2  0  0  0  0
 16 18  1  0  0  0  0
 18 12  2  0  0  0  0
 19 10  1  0  0  0  0
 20 19  1  0  0  0  0
 20 21  1  6  0  0  0
 22 25  1  0  0  0  0
 23 25  1  0  0  0  0
 24 25  1  0  0  0  0
 25 20  1  0  0  0  0
M  END
>  <MODEL>
2

>  <REMARK>
 VINA RESULT:      -8.2      3.270      5.005
  Name = 
  4 active torsions:
  status: ('A' for Active; 'I' for Inactive)
    1  A    between atoms: C_1  and  C_5
    2  A    between atoms: C_6  and  C_15
    3  A    between atoms: C_6  and  C_23
    4  A    between atoms: C_15  and  C_21
                            x       y       z     vdW  Elec       q    Type
                         _______ _______ _______ _____ _____    ______ ____

>  <TORSDO>
F 4

$$$$
=
 OpenBabel11052412433D

 25 27  0  0  1  0  0  0  0  0999 V2000
  187.5550  177.8300  146.0760 C   0  0  0  0  0  0  0  0  0  0  0  0
  188.8710  177.4090  145.7830 C   0  0  0  0  0  0  0  0  0  0  0  0
  188.1680  177.9830  148.4140 C   0  0  0  0  0  3  0  0  0  0  0  0
  189.4290  177.5740  148.1160 N   0  0  0  0  0  0  0  0  0  0  0  0
  191.1140  176.8560  146.5740 C   0  0  0  0  0  0  0  0  0  0  0  0
  192.0410  176.7350  147.6020 O   0  0  0  0  0  1  0  0  0  0  0  0
  189.2700  177.0870  144.4790 C   0  0  0  0  0  3  0  0  0  0  0  0
  187.2160  178.1160  147.4040 C   0  0  0  0  0  3  0  0  0  0  0  0
  191.4920  176.5440  145.2660 C   0  0  0  0  0  3  0  0  0  0  0  0
  190.5740  176.6550  144.2190 C   0  0  0  0  0  0  0  0  0  0  0  0
  189.8050  177.2850  146.8420 C   0  0  0  0  0  0  0  0  0  0  0  0
  186.5260  178.0030  145.0220 C   0  0  0  0  0  0  0  0  0  0  0  0
  184.6820  178.3420  142.9610 C   0  0  0  0  0  3  0  0  0  0  0  0
  185.1930  178.3630  145.3190 C   0  0  0  0  0  0  0  0  0  0  0  0
  184.2740  178.5290  144.2820 C   0  0  0  0  0  3  0  0  0  0  0  0
  185.9680  177.9980  142.6880 N   0  0  0  0  0  0  0  0  0  0  0  0
  184.7140  178.5350  146.7220 C   0  0  0  0  0  1  0  0  0  0  0  0
  186.8850  177.8290  143.6770 C   0  0  0  0  0  3  0  0  0  0  0  0
  190.9780  176.3120  142.8200 C   0  0  0  0  0  2  0  0  0  0  0  0
  190.9490  177.5090  141.8630 C   0  0  1  0  0  3  0  0  0  0  0  0
  192.0770  177.5210  141.0390 O   0  0  0  0  0  1  0  0  0  0  0  0
  189.9600  177.7090  139.6860 F   0  0  0  0  0  0  0  0  0  0  0  0
  188.8650  176.5080  141.2540 F   0  0  0  0  0  0  0  0  0  0  0  0
  188.9720  178.7480  141.4180 F   0  0  0  0  0  0  0  0  0  0  0  0
  189.6660  177.6150  141.0350 C   0  0  0  0  0  0  0  0  0  0  0  0
  1  8  1  0  0  0  0
  2  1  2  0  0  0  0
  2 11  1  0  0  0  0
  4  3  1  0  0  0  0
  5 11  1  0  0  0  0
  5  6  1  0  0  0  0
  7  2  1  0  0  0  0
  8  3  2  0  0  0  0
  9  5  2  0  0  0  0
 10  7  2  0  0  0  0
 10  9  1  0  0  0  0
 11  4  2  0  0  0  0
 12 14  1  0  0  0  0
 12  1  1  0  0  0  0
 13 15  1  0  0  0  0
 14 17  1  0  0  0  0
 15 14  2  0  0  0  0
 16 13  2  0  0  0  0
 16 18  1  0  0  0  0
 18 12  2  0  0  0  0
 19 10  1  0  0  0  0
 20 21  1  6  0  0  0
 20 19  1  0  0  0  0
 22 25  1  0  0  0  0
 25 23  1  0  0  0  0
 25 24  1  0  0  0  0
 25 20  1  0  0  0  0
M  END
>  <MODEL>
3

>  <REMARK>
 VINA RESULT:      -8.2      3.383      6.758
  Name = 
  4 active torsions:
  status: ('A' for Active; 'I' for Inactive)
    1  A    between atoms: C_1  and  C_5
    2  A    between atoms: C_6  and  C_15
    3  A    between atoms: C_6  and  C_23
    4  A    between atoms: C_15  and  C_21
                            x       y       z     vdW  Elec       q    Type
                         _______ _______ _______ _____ _____    ______ ____

>  <TORSDO>
F 4

$$$$
=
 OpenBabel11052412433D

 25 27  0  0  1  0  0  0  0  0999 V2000
  190.4000  176.9020  145.1660 C   0  0  0  0  0  0  0  0  0  0  0  0
  189.2130  177.3460  145.7900 C   0  0  0  0  0  0  0  0  0  0  0  0
  191.2510  176.2550  147.3410 C   0  0  0  0  0  3  0  0  0  0  0  0
  190.1040  176.6910  147.9250 N   0  0  0  0  0  0  0  0  0  0  0  0
  187.9230  177.6770  147.8360 C   0  0  0  0  0  0  0  0  0  0  0  0
  187.7860  177.5630  149.2140 O   0  0  0  0  0  1  0  0  0  0  0  0
  188.1670  177.9230  145.0570 C   0  0  0  0  0  3  0  0  0  0  0  0
  191.4160  176.3540  145.9600 C   0  0  0  0  0  3  0  0  0  0  0  0
  186.8900  178.2450  147.0870 C   0  0  0  0  0  3  0  0  0  0  0  0
  187.0100  178.3720  145.7000 C   0  0  0  0  0  0  0  0  0  0  0  0
  189.0900  177.2290  147.1960 C   0  0  0  0  0  0  0  0  0  0  0  0
  190.5990  176.9710  143.6980 C   0  0  0  0  0  0  0  0  0  0  0  0
  190.9530  176.9820  140.9350 C   0  0  0  0  0  3  0  0  0  0  0  0
  191.2590  178.0530  143.0750 C   0  0  0  0  0  0  0  0  0  0  0  0
  191.4310  178.0530  141.6900 C   0  0  0  0  0  3  0  0  0  0  0  0
  190.3210  175.9460  141.5470 N   0  0  0  0  0  0  0  0  0  0  0  0
  191.7510  179.2310  143.8480 C   0  0  0  0  0  1  0  0  0  0  0  0
  190.1390  175.9190  142.8940 C   0  0  0  0  0  3  0  0  0  0  0  0
  185.9070  178.9880  144.9000 C   0  0  0  0  0  2  0  0  0  0  0  0
  184.5230  178.4070  145.2160 C   0  0  1  0  0  3  0  0  0  0  0  0
  184.1130  178.7550  146.5050 O   0  0  0  0  0  1  0  0  0  0  0  0
  182.2060  178.3100  144.5970 F   0  0  0  0  0  0  0  0  0  0  0  0
  183.3980  180.1330  144.0030 F   0  0  0  0  0  0  0  0  0  0  0  0
  183.7620  178.1640  142.9790 F   0  0  0  0  0  0  0  0  0  0  0  0
  183.4480  178.7620  144.1860 C   0  0  0  0  0  0  0  0  0  0  0  0
  1  2  2  0  0  0  0
  1  8  1  0  0  0  0
  2 11  1  0  0  0  0
  3  4  1  0  0  0  0
  5  6  1  0  0  0  0
  7 10  2  0  0  0  0
  7  2  1  0  0  0  0
  8  3  2  0  0  0  0
  9  5  2  0  0  0  0
 10  9  1  0  0  0  0
 11  5  1  0  0  0  0
 11  4  2  0  0  0  0
 12  1  1  0  0  0  0
 13 16  2  0  0  0  0
 13 15  1  0  0  0  0
 14 12  1  0  0  0  0
 14 17  1  0  0  0  0
 15 14  2  0  0  0  0
 16 18  1  0  0  0  0
 18 12  2  0  0  0  0
 19 20  1  0  0  0  0
 19 10  1  0  0  0  0
 20 21  1  1  0  0  0
 23 25  1  0  0  0  0
 24 25  1  0  0  0  0
 25 22  1  0  0  0  0
 25 20  1  0  0  0  0
M  END
>  <MODEL>
4

>  <REMARK>
 VINA RESULT:      -8.2      3.073      4.893
  Name = 
  4 active torsions:
  status: ('A' for Active; 'I' for Inactive)
    1  A    between atoms: C_1  and  C_5
    2  A    between atoms: C_6  and  C_15
    3  A    between atoms: C_6  and  C_23
    4  A    between atoms: C_15  and  C_21
                            x       y       z     vdW  Elec       q    Type
                         _______ _______ _______ _____ _____    ______ ____

>  <TORSDO>
F 4

$$$$
=
 OpenBabel11052412433D

 25 27  0  0  1  0  0  0  0  0999 V2000
  188.2170  177.5860  144.8090 C   0  0  0  0  0  0  0  0  0  0  0  0
  186.9820  177.9840  144.2510 C   0  0  0  0  0  0  0  0  0  0  0  0
  187.2740  177.9080  147.0170 C   0  0  0  0  0  3  0  0  0  0  0  0
  186.0940  178.2910  146.4640 N   0  0  0  0  0  0  0  0  0  0  0  0
  184.6870  178.7500  144.5810 C   0  0  0  0  0  0  0  0  0  0  0  0
  183.6340  179.0960  145.4190 O   0  0  0  0  0  1  0  0  0  0  0  0
  186.7890  178.0590  142.8640 C   0  0  0  0  0  3  0  0  0  0  0  0
  188.3490  177.5520  146.2030 C   0  0  0  0  0  3  0  0  0  0  0  0
  184.5150  178.8140  143.1960 C   0  0  0  0  0  3  0  0  0  0  0  0
  185.5630  178.4730  142.3370 C   0  0  0  0  0  0  0  0  0  0  0  0
  185.9180  178.3390  145.1170 C   0  0  0  0  0  0  0  0  0  0  0  0
  189.3710  177.1800  143.9720 C   0  0  0  0  0  0  0  0  0  0  0  0
  191.5040  176.3000  142.4100 C   0  0  0  0  0  3  0  0  0  0  0  0
  190.4920  178.0140  143.7730 C   0  0  0  0  0  0  0  0  0  0  0  0
  191.5570  177.5690  142.9880 C   0  0  0  0  0  3  0  0  0  0  0  0
  190.4200  175.5050  142.6110 N   0  0  0  0  0  0  0  0  0  0  0  0
  190.5650  179.3910  144.3460 C   0  0  0  0  0  1  0  0  0  0  0  0
  189.3690  175.9130  143.3700 C   0  0  0  0  0  3  0  0  0  0  0  0
  185.3800  178.5510  140.8550 C   0  0  0  0  0  2  0  0  0  0  0  0
  184.0660  179.2210  140.4340 C   0  0  1  0  0  3  0  0  0  0  0  0
  184.2720  180.1120  139.3780 O   0  0  0  0  0  1  0  0  0  0  0  0
  181.7920  178.5530  140.8120 F   0  0  0  0  0  0  0  0  0  0  0  0
  182.6670  178.2590  138.7510 F   0  0  0  0  0  0  0  0  0  0  0  0
  183.3400  176.9600  140.4590 F   0  0  0  0  0  0  0  0  0  0  0  0
  182.9410  178.2370  140.1070 C   0  0  0  0  0  0  0  0  0  0  0  0
  1  8  1  0  0  0  0
  2  1  2  0  0  0  0
  2 11  1  0  0  0  0
  4  3  1  0  0  0  0
  5 11  1  0  0  0  0
  5  6  1  0  0  0  0
  7  2  1  0  0  0  0
  8  3  2  0  0  0  0
  9  5  2  0  0  0  0
 10  7  2  0  0  0  0
 10  9  1  0  0  0  0
 11  4  2  0  0  0  0
 12  1  1  0  0  0  0
 13 16  2  0  0  0  0
 13 15  1  0  0  0  0
 14 12  1  0  0  0  0
 14 17  1  0  0  0  0
 15 14  2  0  0  0  0
 16 18  1  0  0  0  0
 18 12  2  0  0  0  0
 19 10  1  0  0  0  0
 20 21  1  6  0  0  0
 20 19  1  0  0  0  0
 23 25  1  0  0  0  0
 25 20  1  0  0  0  0
 25 24  1  0  0  0  0
 25 22  1  0  0  0  0
M  END
>  <MODEL>
5

>  <REMARK>
 VINA RESULT:      -8.1      3.326      5.077
  Name = 
  4 active torsions:
  status: ('A' for Active; 'I' for Inactive)
    1  A    between atoms: C_1  and  C_5
    2  A    between atoms: C_6  and  C_15
    3  A    between atoms: C_6  and  C_23
    4  A    between atoms: C_15  and  C_21
                            x       y       z     vdW  Elec       q    Type
                         _______ _______ _______ _____ _____    ______ ____

>  <TORSDO>
F 4

$$$$
=
 OpenBabel11052412433D

 25 27  0  0  1  0  0  0  0  0999 V2000
  187.2390  177.6210  143.1920 C   0  0  0  0  0  0  0  0  0  0  0  0
  187.3190  177.7730  144.5940 C   0  0  0  0  0  0  0  0  0  0  0  0
  184.9040  178.2570  143.2980 C   0  0  0  0  0  3  0  0  0  0  0  0
  184.9970  178.3950  144.6460 N   0  0  0  0  0  0  0  0  0  0  0  0
  186.2160  178.3100  146.7050 C   0  0  0  0  0  0  0  0  0  0  0  0
  185.0900  178.7000  147.4190 O   0  0  0  0  0  1  0  0  0  0  0  0
  188.5050  177.5210  145.2970 C   0  0  0  0  0  3  0  0  0  0  0  0
  186.0180  177.8690  142.5530 C   0  0  0  0  0  3  0  0  0  0  0  0
  187.4100  178.0580  147.3860 C   0  0  0  0  0  3  0  0  0  0  0  0
  188.5520  177.6610  146.6870 C   0  0  0  0  0  0  0  0  0  0  0  0
  186.1610  178.1660  145.3100 C   0  0  0  0  0  0  0  0  0  0  0  0
  188.4100  177.2320  142.3690 C   0  0  0  0  0  0  0  0  0  0  0  0
  190.6660  176.4670  140.9250 C   0  0  0  0  0  3  0  0  0  0  0  0
  188.6120  177.7260  141.0610 C   0  0  0  0  0  0  0  0  0  0  0  0
  189.7440  177.3370  140.3420 C   0  0  0  0  0  3  0  0  0  0  0  0
  190.4610  176.0010  142.1840 N   0  0  0  0  0  0  0  0  0  0  0  0
  187.6280  178.6280  140.3950 C   0  0  0  0  0  1  0  0  0  0  0  0
  189.3680  176.3620  142.9080 C   0  0  0  0  0  3  0  0  0  0  0  0
  189.8270  177.3830  147.4180 C   0  0  0  0  0  2  0  0  0  0  0  0
  190.8850  176.6770  146.5600 C   0  0  1  0  0  3  0  0  0  0  0  0
  191.6640  177.6030  145.8610 O   0  0  0  0  0  1  0  0  0  0  0  0
  192.6150  175.0170  146.4820 F   0  0  0  0  0  0  0  0  0  0  0  0
  192.5140  176.3760  148.2830 F   0  0  0  0  0  0  0  0  0  0  0  0
  190.9590  174.7790  147.9860 F   0  0  0  0  0  0  0  0  0  0  0  0
  191.7660  175.6970  147.3380 C   0  0  0  0  0  0  0  0  0  0  0  0
  1  2  1  0  0  0  0
  2  7  2  0  0  0  0
  2 11  1  0  0  0  0
  3  4  2  0  0  0  0
  4 11  1  0  0  0  0
  5  9  1  0  0  0  0
  5  6  1  0  0  0  0
  7 10  1  0  0  0  0
  8  1  2  0  0  0  0
  8  3  1  0  0  0  0
 10  9  2  0  0  0  0
 10 19  1  0  0  0  0
 11  5  2  0  0  0  0
 12 18  1  0  0  0  0
 12  1  1  0  0  0  0
 13 16  1  0  0  0  0
 14 12  2  0  0  0  0
 15 13  2  0  0  0  0
 15 14  1  0  0  0  0
 16 18  2  0  0  0  0
 17 14  1  0  0  0  0
 20 21  1  1  0  0  0
 20 25  1  0  0  0  0
 20 19  1  0  0  0  0
 22 25  1  0  0  0  0
 25 24  1  0  0  0  0
 25 23  1  0  0  0  0
M  END
>  <MODEL>
6

>  <REMARK>
 VINA RESULT:      -7.8      2.738      4.591
  Name = 
  4 active torsions:
  status: ('A' for Active; 'I' for Inactive)
    1  A    between atoms: C_1  and  C_5
    2  A    between atoms: C_6  and  C_15
    3  A    between atoms: C_6  and  C_23
    4  A    between atoms: C_15  and  C_21
                            x       y       z     vdW  Elec       q    Type
                         _______ _______ _______ _____ _____    ______ ____

>  <TORSDO>
F 4

$$$$
=
 OpenBabel11052412433D

 25 27  0  0  1  0  0  0  0  0999 V2000
  187.9220  177.8260  142.8090 C   0  0  0  0  0  0  0  0  0  0  0  0
  187.0260  178.0730  143.8730 C   0  0  0  0  0  0  0  0  0  0  0  0
  186.3310  178.8390  141.2890 C   0  0  0  0  0  3  0  0  0  0  0  0
  185.4790  179.0670  142.3230 N   0  0  0  0  0  0  0  0  0  0  0  0
  184.8790  178.9470  144.6380 C   0  0  0  0  0  0  0  0  0  0  0  0
  183.6640  179.5700  144.3830 O   0  0  0  0  0  1  0  0  0  0  0  0
  187.3190  177.6880  145.1880 C   0  0  0  0  0  3  0  0  0  0  0  0
  187.5590  178.2180  141.5140 C   0  0  0  0  0  3  0  0  0  0  0  0
  185.1920  178.5590  145.9430 C   0  0  0  0  0  3  0  0  0  0  0  0
  186.4070  177.9280  146.2200 C   0  0  0  0  0  0  0  0  0  0  0  0
  185.7880  178.7050  143.5970 C   0  0  0  0  0  0  0  0  0  0  0  0
  189.2440  177.1890  143.0180 C   0  0  0  0  0  0  0  0  0  0  0  0
  191.6720  175.8840  143.4210 C   0  0  0  0  0  3  0  0  0  0  0  0
  190.3840  177.9230  143.4130 C   0  0  0  0  0  0  0  0  0  0  0  0
  191.5980  177.2640  143.6110 C   0  0  0  0  0  3  0  0  0  0  0  0
  190.5680  175.1870  143.0440 N   0  0  0  0  0  0  0  0  0  0  0  0
  190.3480  179.4050  143.5890 C   0  0  0  0  0  1  0  0  0  0  0  0
  189.3730  175.8030  142.8420 C   0  0  0  0  0  3  0  0  0  0  0  0
  186.7370  177.5050  147.6160 C   0  0  0  0  0  2  0  0  0  0  0  0
  187.9640  178.2170  148.1990 C   0  0  1  0  0  3  0  0  0  0  0  0
  187.9090  178.2530  149.5940 O   0  0  0  0  0  1  0  0  0  0  0  0
  189.2110  176.2810  147.5230 F   0  0  0  0  0  0  0  0  0  0  0  0
  189.6810  178.2570  146.5350 F   0  0  0  0  0  0  0  0  0  0  0  0
  190.2680  177.8970  148.6760 F   0  0  0  0  0  0  0  0  0  0  0  0
  189.3020  177.6480  147.7190 C   0  0  0  0  0  0  0  0  0  0  0  0
  1 12  1  0  0  0  0
  1  2  1  0  0  0  0
  2  7  1  0  0  0  0
  3  8  1  0  0  0  0
  3  4  2  0  0  0  0
  4 11  1  0  0  0  0
  5  9  2  0  0  0  0
  6  5  1  0  0  0  0
  7 10  2  0  0  0  0
  8  1  2  0  0  0  0
  9 10  1  0  0  0  0
 10 19  1  0  0  0  0
 11  2  2  0  0  0  0
 11  5  1  0  0  0  0
 12 14  1  0  0  0  0
 13 15  1  0  0  0  0
 14 17  1  0  0  0  0
 14 15  2  0  0  0  0
 16 13  2  0  0  0  0
 18 12  2  0  0  0  0
 18 16  1  0  0  0  0
 19 20  1  0  0  0  0
 20 21  1  1  0  0  0
 22 25  1  0  0  0  0
 23 25  1  0  0  0  0
 25 20  1  0  0  0  0
 25 24  1  0  0  0  0
M  END
>  <MODEL>
7

>  <REMARK>
 VINA RESULT:      -7.8      1.802      2.619
  Name = 
  4 active torsions:
  status: ('A' for Active; 'I' for Inactive)
    1  A    between atoms: C_1  and  C_5
    2  A    between atoms: C_6  and  C_15
    3  A    between atoms: C_6  and  C_23
    4  A    between atoms: C_15  and  C_21
                            x       y       z     vdW  Elec       q    Type
                         _______ _______ _______ _____ _____    ______ ____

>  <TORSDO>
F 4

$$$$
=
 OpenBabel11052412433D

 25 27  0  0  1  0  0  0  0  0999 V2000
  184.0580  178.6200  142.5630 C   0  0  0  0  0  0  0  0  0  0  0  0
  184.9940  178.3810  143.5930 C   0  0  0  0  0  0  0  0  0  0  0  0
  182.4350  179.2620  144.2430 C   0  0  0  0  0  3  0  0  0  0  0  0
  183.3460  179.0250  145.2220 N   0  0  0  0  0  0  0  0  0  0  0  0
  185.5150  178.3490  145.9780 C   0  0  0  0  0  0  0  0  0  0  0  0
  185.1490  178.5570  147.3020 O   0  0  0  0  0  1  0  0  0  0  0  0
  186.2880  177.9160  143.3210 C   0  0  0  0  0  3  0  0  0  0  0  0
  182.7750  179.0640  142.9050 C   0  0  0  0  0  3  0  0  0  0  0  0
  186.8020  177.8890  145.6850 C   0  0  0  0  0  3  0  0  0  0  0  0
  187.1890  177.6690  144.3610 C   0  0  0  0  0  0  0  0  0  0  0  0
  184.6040  178.5930  144.9390 C   0  0  0  0  0  0  0  0  0  0  0  0
  184.3940  178.4410  141.1290 C   0  0  0  0  0  0  0  0  0  0  0  0
  185.1090  178.1930  138.4490 C   0  0  0  0  0  3  0  0  0  0  0  0
  183.5160  177.8130  140.2190 C   0  0  0  0  0  0  0  0  0  0  0  0
  183.8810  177.6900  138.8780 C   0  0  0  0  0  3  0  0  0  0  0  0
  185.9450  178.7970  139.3330 N   0  0  0  0  0  0  0  0  0  0  0  0
  182.2110  177.2330  140.6520 C   0  0  0  0  0  1  0  0  0  0  0  0
  185.6160  178.9310  140.6460 C   0  0  0  0  0  3  0  0  0  0  0  0
  188.5640  177.1690  144.0490 C   0  0  0  0  0  2  0  0  0  0  0  0
  189.6730  177.9160  144.7990 C   0  0  1  0  0  3  0  0  0  0  0  0
  190.2530  177.1050  145.7770 O   0  0  0  0  0  1  0  0  0  0  0  0
  190.8560  179.8860  144.1070 F   0  0  0  0  0  0  0  0  0  0  0  0
  191.9640  177.9190  144.1180 F   0  0  0  0  0  0  0  0  0  0  0  0
  190.3840  178.3140  142.5680 F   0  0  0  0  0  0  0  0  0  0  0  0
  190.7420  178.5240  143.8880 C   0  0  0  0  0  0  0  0  0  0  0  0
  1  8  2  0  0  0  0
  1  2  1  0  0  0  0
  2 11  1  0  0  0  0
  3  4  2  0  0  0  0
  5  6  1  0  0  0  0
  7  2  2  0  0  0  0
  7 10  1  0  0  0  0
  8  3  1  0  0  0  0
  9  5  1  0  0  0  0
 10  9  2  0  0  0  0
 11  4  1  0  0  0  0
 11  5  2  0  0  0  0
 12  1  1  0  0  0  0
 13 15  2  0  0  0  0
 13 16  1  0  0  0  0
 14 17  1  0  0  0  0
 14 12  2  0  0  0  0
 15 14  1  0  0  0  0
 16 18  2  0  0  0  0
 18 12  1  0  0  0  0
 19 10  1  0  0  0  0
 19 20  1  0  0  0  0
 20 21  1  1  0  0  0
 24 25  1  0  0  0  0
 25 22  1  0  0  0  0
 25 23  1  0  0  0  0
 25 20  1  0  0  0  0
M  END
>  <MODEL>
8

>  <REMARK>
 VINA RESULT:      -7.7      3.209      6.162
  Name = 
  4 active torsions:
  status: ('A' for Active; 'I' for Inactive)
    1  A    between atoms: C_1  and  C_5
    2  A    between atoms: C_6  and  C_15
    3  A    between atoms: C_6  and  C_23
    4  A    between atoms: C_15  and  C_21
                            x       y       z     vdW  Elec       q    Type
                         _______ _______ _______ _____ _____    ______ ____

>  <TORSDO>
F 4

$$$$
=
 OpenBabel11052412433D

 25 27  0  0  1  0  0  0  0  0999 V2000
  189.6000  177.9750  142.9320 C   0  0  0  0  0  0  0  0  0  0  0  0
  188.9960  177.7660  144.1920 C   0  0  0  0  0  0  0  0  0  0  0  0
  191.7610  178.0300  144.0240 C   0  0  0  0  0  3  0  0  0  0  0  0
  191.1640  177.8320  145.2280 N   0  0  0  0  0  0  0  0  0  0  0  0
  189.2340  177.5060  146.6080 C   0  0  0  0  0  0  0  0  0  0  0  0
  190.0260  177.4330  147.7460 O   0  0  0  0  0  1  0  0  0  0  0  0
  187.6060  177.6490  144.3330 C   0  0  0  0  0  3  0  0  0  0  0  0
  190.9920  178.1050  142.8630 C   0  0  0  0  0  3  0  0  0  0  0  0
  187.8470  177.3870  146.7260 C   0  0  0  0  0  3  0  0  0  0  0  0
  187.0320  177.4610  145.5940 C   0  0  0  0  0  0  0  0  0  0  0  0
  189.8160  177.7000  145.3450 C   0  0  0  0  0  0  0  0  0  0  0  0
  188.8130  178.0370  141.6760 C   0  0  0  0  0  0  0  0  0  0  0  0
  187.2380  178.1830  139.3840 C   0  0  0  0  0  3  0  0  0  0  0  0
  189.2390  177.4080  140.4860 C   0  0  0  0  0  0  0  0  0  0  0  0
  188.4460  177.4870  139.3400 C   0  0  0  0  0  3  0  0  0  0  0  0
  186.8380  178.7810  140.5360 N   0  0  0  0  0  0  0  0  0  0  0  0
  190.5430  176.6870  140.3950 C   0  0  0  0  0  1  0  0  0  0  0  0
  187.5890  178.7220  141.6670 C   0  0  0  0  0  3  0  0  0  0  0  0
  185.5470  177.3430  145.7230 C   0  0  0  0  0  2  0  0  0  0  0  0
  184.8210  178.6930  145.7140 C   0  0  1  0  0  3  0  0  0  0  0  0
  185.6320  179.7030  146.2380 O   0  0  0  0  0  1  0  0  0  0  0  0
  182.9030  179.3310  144.4210 F   0  0  0  0  0  0  0  0  0  0  0  0
  184.9030  180.2310  143.8860 F   0  0  0  0  0  0  0  0  0  0  0  0
  184.4870  178.0650  143.4490 F   0  0  0  0  0  0  0  0  0  0  0  0
  184.2640  179.0940  144.3460 C   0  0  0  0  0  0  0  0  0  0  0  0
  1  2  1  0  0  0  0
  2  7  2  0  0  0  0
  2 11  1  0  0  0  0
  3  4  2  0  0  0  0
  4 11  1  0  0  0  0
  5  9  1  0  0  0  0
  5  6  1  0  0  0  0
  7 10  1  0  0  0  0
  8  1  2  0  0  0  0
  8  3  1  0  0  0  0
 10 19  1  0  0  0  0
 10  9  2  0  0  0  0
 11  5  2  0  0  0  0
 12  1  1  0  0  0  0
 13 16  1  0  0  0  0
 14 12  2  0  0  0  0
 15 13  2  0  0  0  0
 15 14  1  0  0  0  0
 16 18  2  0  0  0  0
 17 14  1  0  0  0  0
 18 12  1  0  0  0  0
 20 19  1  0  0  0  0
 20 21  1  6  0  0  0
 23 25  1  0  0  0  0
 24 25  1  0  0  0  0
 25 22  1  0  0  0  0
 25 20  1  0  0  0  0
M  END
>  <MODEL>
9

>  <REMARK>
 VINA RESULT:      -7.6      2.462      4.759
  Name = 
  4 active torsions:
  status: ('A' for Active; 'I' for Inactive)
    1  A    between atoms: C_1  and  C_5
    2  A    between atoms: C_6  and  C_15
    3  A    between atoms: C_6  and  C_23
    4  A    between atoms: C_15  and  C_21
                            x       y       z     vdW  Elec       q    Type
                         _______ _______ _______ _____ _____    ______ ____

>  <TORSDO>
F 4

$$$$
