=
 OpenBabel11052416193D

 43 47  0  0  1  0  0  0  0  0999 V2000
  190.6570  177.5780  142.3470 C   0  0  0  0  0  0  0  0  0  0  0  0
  188.4770  177.1800  137.8010 C   0  0  0  0  0  0  0  0  0  0  0  0
  186.0890  178.7180  137.9410 N   0  0  0  0  0  0  0  0  0  0  0  0
  190.2070  177.1070  140.0140 C   0  0  0  0  0  0  0  0  0  0  0  0
  189.3830  178.1400  142.4830 C   0  0  0  0  0  3  0  0  0  0  0  0
  191.4940  177.5320  143.4110 F   0  0  0  0  0  0  0  0  0  0  0  0
  188.9160  177.6730  140.1470 C   0  0  0  0  0  0  0  0  0  0  0  0
  191.0690  177.0660  141.1130 C   0  0  0  0  0  3  0  0  0  0  0  0
  188.5160  178.1890  141.3880 C   0  0  0  0  0  3  0  0  0  0  0  0
  186.7740  178.3410  139.1130 N   0  0  0  0  0  2  0  0  0  0  0  0
  188.0670  177.7280  139.0310 C   0  0  0  0  0  0  0  0  0  0  0  0
  189.7660  176.6390  137.6800 C   0  0  0  0  0  3  0  0  0  0  0  0
  187.5610  177.2700  136.6010 C   0  0  2  0  0  3  0  0  0  0  0  0
  186.1170  177.5730  137.0300 C   0  0  0  0  0  2  0  0  0  0  0  0
  190.6250  176.5990  138.7810 C   0  0  0  0  0  3  0  0  0  0  0  0
  184.6930  178.9890  138.2990 C   0  0  2  0  0  3  0  0  0  0  0  0
  184.6160  180.0830  139.1680 O   0  0  0  0  0  1  0  0  0  0  0  0
  184.0320  177.7770  138.9580 C   0  0  0  0  0  2  0  0  0  0  0  0
  182.5400  177.9900  139.1660 C   0  0  1  0  0  3  0  0  0  0  0  0
  181.8330  177.1450  138.3100 O   0  0  0  0  0  1  0  0  0  0  0  0
  182.1850  177.6720  140.6150 C   0  0  0  0  0  2  0  0  0  0  0  0
  182.1770  178.9090  141.5150 C   0  0  2  0  0  3  0  0  0  0  0  0
  184.2800  178.7840  142.9340 C   0  0  0  0  0  0  0  0  0  0  0  0
  182.8660  178.6340  142.7690 N   0  0  0  0  0  2  0  0  0  0  0  0
  184.9910  179.1750  141.9660 O   0  0  0  0  0  0  0  0  0  0  0  0
  184.8980  178.4640  144.2330 C   0  0  0  0  0  0  0  0  0  0  0  0
  184.9030  178.4290  146.7090 C   0  0  0  0  0  2  0  0  0  0  0  0
  186.9170  177.7320  145.4110 C   0  0  0  0  0  3  0  0  0  0  0  0
  186.4340  178.4610  146.6340 C   0  0  0  0  0  2  0  0  0  0  0  0
  186.2080  177.7750  144.2780 C   0  0  0  0  0  3  0  0  0  0  0  0
  184.3010  178.8150  145.3820 C   0  0  0  0  0  3  0  0  0  0  0  0
  180.7600  179.4030  141.7850 C   0  0  0  0  0  2  0  0  0  0  0  0
  178.9760  179.2400  143.8800 S   0  0  0  0  0  1  0  0  0  0  0  0
  180.5770  179.8160  143.2390 C   0  0  0  0  0  2  0  0  0  0  0  0
  187.5770  175.9820  135.7850 C   0  0  0  0  0  2  0  0  0  0  0  0
  184.7560  173.5380  135.5260 C   0  0  0  0  0  2  0  0  0  0  0  0
  184.8550  173.1440  137.0080 C   0  0  2  0  0  3  0  0  0  0  0  0
  187.2760  173.9390  136.8910 C   0  0  0  0  0  2  0  0  0  0  0  0
  185.8390  174.5510  135.1200 C   0  0  0  0  0  2  0  0  0  0  0  0
  186.5680  175.0620  136.2810 N   0  0  0  0  0  0  0  0  0  0  0  0
  186.2950  172.9350  137.5100 C   0  0  0  0  0  2  0  0  0  0  0  0
  183.9730  172.1070  137.3770 O   0  0  0  0  0  0  0  0  0  0  0  0
  182.7870  172.2420  136.6360 C   0  0  0  0  0  1  0  0  0  0  0  0
  1  5  1  0  0  0  0
  1  6  1  0  0  0  0
  2 11  1  0  0  0  0
  3 16  1  0  0  0  0
  3 10  1  0  0  0  0
  4  7  1  0  0  0  0
  4  8  1  0  0  0  0
  7  9  1  0  0  0  0
  8  1  2  0  0  0  0
  9  5  2  0  0  0  0
 11 10  1  0  0  0  0
 11  7  2  0  0  0  0
 12  2  2  0  0  0  0
 12 15  1  0  0  0  0
 13 35  1  1  0  0  0
 13 14  1  0  0  0  0
 13  2  1  0  0  0  0
 14  3  1  0  0  0  0
 15  4  2  0  0  0  0
 16 18  1  0  0  0  0
 16 17  1  1  0  0  0
 18 19  1  0  0  0  0
 19 20  1  6  0  0  0
 19 21  1  0  0  0  0
 22 21  1  6  0  0  0
 22 32  1  0  0  0  0
 22 24  1  0  0  0  0
 23 26  1  0  0  0  0
 24 23  1  0  0  0  0
 25 23  2  0  0  0  0
 26 30  1  0  0  0  0
 26 31  2  0  0  0  0
 28 29  1  0  0  0  0
 29 27  1  0  0  0  0
 30 28  2  0  0  0  0
 31 27  1  0  0  0  0
 32 34  1  0  0  0  0
 34 33  1  0  0  0  0
 35 40  1  0  0  0  0
 36 37  1  0  0  0  0
 37 42  1  6  0  0  0
 37 41  1  0  0  0  0
 38 41  1  0  0  0  0
 39 36  1  0  0  0  0
 39 40  1  0  0  0  0
 40 38  1  0  0  0  0
 43 42  1  0  0  0  0
M  END
>  <MODEL>
1

>  <REMARK>
 VINA RESULT:      -8.6      0.000      0.000
  Name = 
  12 active torsions:
  status: ('A' for Active; 'I' for Inactive)
    1  A    between atoms: C_1  and  C_34
    2  A    between atoms: C_1  and  N_35
    3  A    between atoms: C_2  and  C_6
    4  A    between atoms: C_2  and  N_13
    5  A    between atoms: C_3  and  C_4
    6  A    between atoms: C_3  and  C_12
    7  A    between atoms: C_4  and  C_15
    8  A    between atoms: C_4  and  N_22
    9  A    between atoms: C_6  and  C_12
   10  A    between atoms: C_11  and  C_14
   11  A    between atoms: C_15  and  C_42
   12  A    between atoms: C_19  and  O_25
                            x       y       z     vdW  Elec       q    Type
                         _______ _______ _______ _____ _____    ______ ____

>  <TORSDO>
F 12

$$$$
=
 OpenBabel11052416193D

 43 47  0  0  1  0  0  0  0  0999 V2000
  190.8230  177.6980  142.4350 C   0  0  0  0  0  0  0  0  0  0  0  0
  188.4910  177.2160  137.9740 C   0  0  0  0  0  0  0  0  0  0  0  0
  186.0970  178.7390  138.1740 N   0  0  0  0  0  0  0  0  0  0  0  0
  190.2960  177.1890  140.1270 C   0  0  0  0  0  0  0  0  0  0  0  0
  189.5500  178.2530  142.6080 C   0  0  0  0  0  3  0  0  0  0  0  0
  191.6960  177.6740  143.4700 F   0  0  0  0  0  0  0  0  0  0  0  0
  189.0070  177.7470  140.2960 C   0  0  0  0  0  0  0  0  0  0  0  0
  191.1960  177.1710  141.1960 C   0  0  0  0  0  3  0  0  0  0  0  0
  188.6460  178.2790  141.5430 C   0  0  0  0  0  3  0  0  0  0  0  0
  186.8250  178.3840  139.3270 N   0  0  0  0  0  2  0  0  0  0  0  0
  188.1190  177.7800  139.2090 C   0  0  0  0  0  0  0  0  0  0  0  0
  189.7790  176.6830  137.8170 C   0  0  0  0  0  3  0  0  0  0  0  0
  187.5330  177.2810  136.8060 C   0  0  2  0  0  3  0  0  0  0  0  0
  186.1030  177.5810  137.2790 C   0  0  0  0  0  2  0  0  0  0  0  0
  190.6750  176.6650  138.8880 C   0  0  0  0  0  3  0  0  0  0  0  0
  184.7120  179.0050  138.5750 C   0  0  2  0  0  3  0  0  0  0  0  0
  184.5850  180.3170  139.0440 O   0  0  0  0  0  1  0  0  0  0  0  0
  184.2410  178.0360  139.6620 C   0  0  0  0  0  2  0  0  0  0  0  0
  183.5530  178.7620  140.8070 C   0  0  1  0  0  3  0  0  0  0  0  0
  182.2040  178.9360  140.4950 O   0  0  0  0  0  1  0  0  0  0  0  0
  183.6860  177.9320  142.0800 C   0  0  0  0  0  2  0  0  0  0  0  0
  183.8660  178.7870  143.3370 C   0  0  2  0  0  3  0  0  0  0  0  0
  185.2760  178.6400  145.4430 C   0  0  0  0  0  0  0  0  0  0  0  0
  185.0800  178.4070  144.0450 N   0  0  0  0  0  2  0  0  0  0  0  0
  184.3700  179.1970  146.1240 O   0  0  0  0  0  0  0  0  0  0  0  0
  186.5450  178.2400  146.0760 C   0  0  0  0  0  0  0  0  0  0  0  0
  188.8020  177.2220  146.0110 C   0  0  0  0  0  2  0  0  0  0  0  0
  187.7850  177.9520  148.1700 C   0  0  0  0  0  3  0  0  0  0  0  0
  188.6190  176.8960  147.4980 C   0  0  0  0  0  2  0  0  0  0  0  0
  186.7880  178.5450  147.5050 C   0  0  0  0  0  3  0  0  0  0  0  0
  187.4790  177.5720  145.3800 C   0  0  0  0  0  3  0  0  0  0  0  0
  182.6580  178.6910  144.2640 C   0  0  0  0  0  2  0  0  0  0  0  0
  180.0210  178.3240  143.5490 S   0  0  0  0  0  1  0  0  0  0  0  0
  181.4550  179.4330  143.6970 C   0  0  0  0  0  2  0  0  0  0  0  0
  187.5320  175.9810  136.0090 C   0  0  0  0  0  2  0  0  0  0  0  0
  184.5200  173.8430  135.4090 C   0  0  0  0  0  2  0  0  0  0  0  0
  184.4160  173.4340  136.8870 C   0  0  2  0  0  3  0  0  0  0  0  0
  186.9040  173.9760  137.0440 C   0  0  0  0  0  2  0  0  0  0  0  0
  185.7390  174.7400  135.1380 C   0  0  0  0  0  2  0  0  0  0  0  0
  186.3860  175.1690  136.3780 N   0  0  0  0  0  0  0  0  0  0  0  0
  185.7640  173.0760  137.5390 C   0  0  0  0  0  2  0  0  0  0  0  0
  183.3980  172.4930  137.1430 O   0  0  0  0  0  0  0  0  0  0  0  0
  182.1750  173.0210  136.6940 C   0  0  0  0  0  1  0  0  0  0  0  0
  1  5  1  0  0  0  0
  1  6  1  0  0  0  0
  2 11  1  0  0  0  0
  3 16  1  0  0  0  0
  3 10  1  0  0  0  0
  4  7  1  0  0  0  0
  4  8  1  0  0  0  0
  7  9  1  0  0  0  0
  8  1  2  0  0  0  0
  9  5  2  0  0  0  0
 11 10  1  0  0  0  0
 11  7  2  0  0  0  0
 12  2  2  0  0  0  0
 12 15  1  0  0  0  0
 13 35  1  1  0  0  0
 13 14  1  0  0  0  0
 13  2  1  0  0  0  0
 14  3  1  0  0  0  0
 15  4  2  0  0  0  0
 16 17  1  1  0  0  0
 16 18  1  0  0  0  0
 18 19  1  0  0  0  0
 19 20  1  6  0  0  0
 19 21  1  0  0  0  0
 22 21  1  6  0  0  0
 22 24  1  0  0  0  0
 22 32  1  0  0  0  0
 23 26  1  0  0  0  0
 23 25  2  0  0  0  0
 24 23  1  0  0  0  0
 26 30  1  0  0  0  0
 27 29  1  0  0  0  0
 29 28  1  0  0  0  0
 30 28  2  0  0  0  0
 31 27  1  0  0  0  0
 31 26  2  0  0  0  0
 33 34  1  0  0  0  0
 34 32  1  0  0  0  0
 35 40  1  0  0  0  0
 36 37  1  0  0  0  0
 37 42  1  6  0  0  0
 37 41  1  0  0  0  0
 38 41  1  0  0  0  0
 39 36  1  0  0  0  0
 39 40  1  0  0  0  0
 40 38  1  0  0  0  0
 43 42  1  0  0  0  0
M  END
>  <MODEL>
2

>  <REMARK>
 VINA RESULT:      -8.6      1.250      1.770
  Name = 
  12 active torsions:
  status: ('A' for Active; 'I' for Inactive)
    1  A    between atoms: C_1  and  C_34
    2  A    between atoms: C_1  and  N_35
    3  A    between atoms: C_2  and  C_6
    4  A    between atoms: C_2  and  N_13
    5  A    between atoms: C_3  and  C_4
    6  A    between atoms: C_3  and  C_12
    7  A    between atoms: C_4  and  C_15
    8  A    between atoms: C_4  and  N_22
    9  A    between atoms: C_6  and  C_12
   10  A    between atoms: C_11  and  C_14
   11  A    between atoms: C_15  and  C_42
   12  A    between atoms: C_19  and  O_25
                            x       y       z     vdW  Elec       q    Type
                         _______ _______ _______ _____ _____    ______ ____

>  <TORSDO>
F 12

$$$$
=
 OpenBabel11052416193D

 43 47  0  0  1  0  0  0  0  0999 V2000
  185.0720  178.6700  145.7700 C   0  0  0  0  0  0  0  0  0  0  0  0
  182.2820  178.7760  141.5530 C   0  0  0  0  0  0  0  0  0  0  0  0
  184.0440  178.0760  139.4330 N   0  0  0  0  0  0  0  0  0  0  0  0
  183.2330  178.7760  144.1970 C   0  0  0  0  0  0  0  0  0  0  0  0
  185.9770  178.5510  144.7110 C   0  0  0  0  0  3  0  0  0  0  0  0
  185.5230  178.6790  147.0470 F   0  0  0  0  0  0  0  0  0  0  0  0
  184.1450  178.6570  143.1210 C   0  0  0  0  0  0  0  0  0  0  0  0
  183.7020  178.7790  145.5130 C   0  0  0  0  0  3  0  0  0  0  0  0
  185.5160  178.5420  143.3910 C   0  0  0  0  0  3  0  0  0  0  0  0
  184.5480  178.4600  140.6910 N   0  0  0  0  0  2  0  0  0  0  0  0
  183.6610  178.6320  141.8030 C   0  0  0  0  0  0  0  0  0  0  0  0
  181.3900  178.8750  142.6310 C   0  0  0  0  0  3  0  0  0  0  0  0
  181.7740  178.7230  140.1300 C   0  0  2  0  0  3  0  0  0  0  0  0
  182.9140  178.9530  139.1260 C   0  0  0  0  0  2  0  0  0  0  0  0
  181.8630  178.8790  143.9450 C   0  0  0  0  0  3  0  0  0  0  0  0
  185.0930  178.3080  138.4340 C   0  0  2  0  0  3  0  0  0  0  0  0
  185.0280  177.3390  137.4260 O   0  0  0  0  0  1  0  0  0  0  0  0
  186.4880  178.2850  139.0630 C   0  0  0  0  0  2  0  0  0  0  0  0
  187.5800  178.1610  138.0120 C   0  0  1  0  0  3  0  0  0  0  0  0
  187.4800  179.2290  137.1200 O   0  0  0  0  0  1  0  0  0  0  0  0
  188.9420  178.1860  138.6970 C   0  0  0  0  0  2  0  0  0  0  0  0
  189.2830  176.8700  139.4000 C   0  0  2  0  0  3  0  0  0  0  0  0
  189.2010  177.1680  141.9210 C   0  0  0  0  0  0  0  0  0  0  0  0
  189.9210  177.1270  140.6850 N   0  0  0  0  0  2  0  0  0  0  0  0
  187.9530  176.9740  141.9320 O   0  0  0  0  0  0  0  0  0  0  0  0
  189.9230  177.4550  143.1730 C   0  0  0  0  0  0  0  0  0  0  0  0
  191.8640  178.3390  144.4310 C   0  0  0  0  0  2  0  0  0  0  0  0
  190.0360  177.1030  145.5950 C   0  0  0  0  0  3  0  0  0  0  0  0
  191.5210  177.3270  145.5300 C   0  0  0  0  0  2  0  0  0  0  0  0
  189.3030  177.1240  144.4770 C   0  0  0  0  0  3  0  0  0  0  0  0
  191.1550  177.9870  143.1490 C   0  0  0  0  0  3  0  0  0  0  0  0
  190.1700  175.9810  138.5350 C   0  0  0  0  0  2  0  0  0  0  0  0
  192.7000  176.3410  137.5020 S   0  0  0  0  0  1  0  0  0  0  0  0
  190.9380  176.7900  137.5000 C   0  0  0  0  0  2  0  0  0  0  0  0
  180.6800  179.7580  139.8870 C   0  0  0  0  0  2  0  0  0  0  0  0
  179.7210  180.3550  136.3200 C   0  0  0  0  0  2  0  0  0  0  0  0
  180.7530  181.4810  136.1470 C   0  0  2  0  0  3  0  0  0  0  0  0
  180.6290  181.7640  138.6790 C   0  0  0  0  0  2  0  0  0  0  0  0
  179.7010  179.8000  137.7530 C   0  0  0  0  0  2  0  0  0  0  0  0
  180.8100  180.3190  138.5540 N   0  0  0  0  0  0  0  0  0  0  0  0
  180.8150  182.4660  137.3270 C   0  0  0  0  0  2  0  0  0  0  0  0
  180.6940  182.1130  134.8870 O   0  0  0  0  0  0  0  0  0  0  0  0
  180.6890  183.5040  135.0840 C   0  0  0  0  0  1  0  0  0  0  0  0
  1  6  1  0  0  0  0
  2 11  2  0  0  0  0
  2 12  1  0  0  0  0
  3 10  1  0  0  0  0
  4  8  2  0  0  0  0
  5  1  2  0  0  0  0
  7  9  2  0  0  0  0
  7  4  1  0  0  0  0
  8  1  1  0  0  0  0
  9  5  1  0  0  0  0
 10 11  1  0  0  0  0
 11  7  1  0  0  0  0
 12 15  2  0  0  0  0
 13 35  1  1  0  0  0
 13  2  1  0  0  0  0
 14  3  1  0  0  0  0
 14 13  1  0  0  0  0
 15  4  1  0  0  0  0
 16 17  1  6  0  0  0
 16 18  1  0  0  0  0
 16  3  1  0  0  0  0
 19 20  1  6  0  0  0
 19 21  1  0  0  0  0
 19 18  1  0  0  0  0
 21 22  1  0  0  0  0
 22 32  1  6  0  0  0
 22 24  1  0  0  0  0
 23 25  2  0  0  0  0
 23 26  1  0  0  0  0
 24 23  1  0  0  0  0
 26 30  1  0  0  0  0
 27 29  1  0  0  0  0
 29 28  1  0  0  0  0
 30 28  2  0  0  0  0
 31 26  2  0  0  0  0
 31 27  1  0  0  0  0
 34 33  1  0  0  0  0
 34 32  1  0  0  0  0
 36 39  1  0  0  0  0
 37 42  1  6  0  0  0
 37 36  1  0  0  0  0
 37 41  1  0  0  0  0
 39 40  1  0  0  0  0
 40 38  1  0  0  0  0
 40 35  1  0  0  0  0
 41 38  1  0  0  0  0
 42 43  1  0  0  0  0
M  END
>  <MODEL>
3

>  <REMARK>
 VINA RESULT:      -8.4      3.818      7.621
  Name = 
  12 active torsions:
  status: ('A' for Active; 'I' for Inactive)
    1  A    between atoms: C_1  and  C_34
    2  A    between atoms: C_1  and  N_35
    3  A    between atoms: C_2  and  C_6
    4  A    between atoms: C_2  and  N_13
    5  A    between atoms: C_3  and  C_4
    6  A    between atoms: C_3  and  C_12
    7  A    between atoms: C_4  and  C_15
    8  A    between atoms: C_4  and  N_22
    9  A    between atoms: C_6  and  C_12
   10  A    between atoms: C_11  and  C_14
   11  A    between atoms: C_15  and  C_42
   12  A    between atoms: C_19  and  O_25
                            x       y       z     vdW  Elec       q    Type
                         _______ _______ _______ _____ _____    ______ ____

>  <TORSDO>
F 12

$$$$
=
 OpenBabel11052416193D

 43 47  0  0  1  0  0  0  0  0999 V2000
  188.5700  177.9320  148.0740 C   0  0  0  0  0  0  0  0  0  0  0  0
  186.2510  178.0810  143.5820 C   0  0  0  0  0  0  0  0  0  0  0  0
  188.1880  177.2440  141.6750 N   0  0  0  0  0  0  0  0  0  0  0  0
  186.9160  178.0930  146.3130 C   0  0  0  0  0  0  0  0  0  0  0  0
  189.5750  177.7420  147.1200 C   0  0  0  0  0  3  0  0  0  0  0  0
  188.8830  177.9470  149.3920 F   0  0  0  0  0  0  0  0  0  0  0  0
  187.9290  177.9040  145.3420 C   0  0  0  0  0  0  0  0  0  0  0  0
  187.2430  178.1030  147.6710 C   0  0  0  0  0  3  0  0  0  0  0  0
  189.2560  177.7270  145.7590 C   0  0  0  0  0  3  0  0  0  0  0  0
  188.5750  177.6310  142.9730 N   0  0  0  0  0  2  0  0  0  0  0  0
  187.5860  177.8740  143.9810 C   0  0  0  0  0  0  0  0  0  0  0  0
  185.2560  178.2490  144.5570 C   0  0  0  0  0  3  0  0  0  0  0  0
  185.8950  178.0210  142.1140 C   0  0  2  0  0  3  0  0  0  0  0  0
  187.1440  178.1700  141.2340 C   0  0  0  0  0  2  0  0  0  0  0  0
  185.5870  178.2590  145.9140 C   0  0  0  0  0  3  0  0  0  0  0  0
  189.3480  177.4000  140.7900 C   0  0  2  0  0  3  0  0  0  0  0  0
  190.5190  177.5370  141.5420 O   0  0  0  0  0  1  0  0  0  0  0  0
  189.1970  178.6130  139.8690 C   0  0  0  0  0  2  0  0  0  0  0  0
  189.0440  178.2010  138.4130 C   0  0  1  0  0  3  0  0  0  0  0  0
  189.0190  179.3440  137.6140 O   0  0  0  0  0  1  0  0  0  0  0  0
  190.2220  177.3170  138.0140 C   0  0  0  0  0  2  0  0  0  0  0  0
  189.8480  176.2500  136.9830 C   0  0  2  0  0  3  0  0  0  0  0  0
  187.4460  175.5730  136.5110 C   0  0  0  0  0  0  0  0  0  0  0  0
  188.6020  175.5940  137.3560 N   0  0  0  0  0  2  0  0  0  0  0  0
  187.4780  176.1380  135.3830 O   0  0  0  0  0  0  0  0  0  0  0  0
  186.2190  174.9020  136.9760 C   0  0  0  0  0  0  0  0  0  0  0  0
  184.9780  172.9200  137.7910 C   0  0  0  0  0  2  0  0  0  0  0  0
  183.7880  175.0450  137.2460 C   0  0  0  0  0  3  0  0  0  0  0  0
  183.7200  173.5440  137.1760 C   0  0  0  0  0  2  0  0  0  0  0  0
  184.9610  175.6720  137.1100 C   0  0  0  0  0  3  0  0  0  0  0  0
  186.2170  173.5890  137.2540 C   0  0  0  0  0  3  0  0  0  0  0  0
  190.9590  175.2200  136.8080 C   0  0  0  0  0  2  0  0  0  0  0  0
  193.6050  174.8920  137.5070 S   0  0  0  0  0  1  0  0  0  0  0  0
  192.3240  175.8820  136.6800 C   0  0  0  0  0  2  0  0  0  0  0  0
  184.8880  179.1030  141.7370 C   0  0  0  0  0  2  0  0  0  0  0  0
  181.4410  178.1760  140.6150 C   0  0  0  0  0  2  0  0  0  0  0  0
  181.9040  177.8620  139.1840 C   0  0  2  0  0  3  0  0  0  0  0  0
  183.8700  179.4180  139.6520 C   0  0  0  0  0  2  0  0  0  0  0  0
  182.5880  178.6950  141.4970 C   0  0  0  0  0  2  0  0  0  0  0  0
  183.8860  178.5620  140.8350 N   0  0  0  0  0  0  0  0  0  0  0  0
  182.8860  178.8920  138.5980 C   0  0  0  0  0  2  0  0  0  0  0  0
  180.8490  177.5270  138.3090 O   0  0  0  0  0  0  0  0  0  0  0  0
  179.6340  177.6510  139.0040 C   0  0  0  0  0  1  0  0  0  0  0  0
  1  6  1  0  0  0  0
  2 11  2  0  0  0  0
  2 12  1  0  0  0  0
  3 10  1  0  0  0  0
  4  8  2  0  0  0  0
  5  1  2  0  0  0  0
  7  9  2  0  0  0  0
  7  4  1  0  0  0  0
  8  1  1  0  0  0  0
  9  5  1  0  0  0  0
 10 11  1  0  0  0  0
 11  7  1  0  0  0  0
 12 15  2  0  0  0  0
 13 35  1  6  0  0  0
 13  2  1  0  0  0  0
 14  3  1  0  0  0  0
 14 13  1  0  0  0  0
 15  4  1  0  0  0  0
 16 17  1  1  0  0  0
 16  3  1  0  0  0  0
 18 16  1  0  0  0  0
 19 20  1  6  0  0  0
 19 18  1  0  0  0  0
 21 19  1  0  0  0  0
 22 32  1  1  0  0  0
 22 24  1  0  0  0  0
 22 21  1  0  0  0  0
 23 26  1  0  0  0  0
 23 24  1  0  0  0  0
 25 23  2  0  0  0  0
 26 30  1  0  0  0  0
 26 31  2  0  0  0  0
 29 28  1  0  0  0  0
 29 27  1  0  0  0  0
 30 28  2  0  0  0  0
 31 27  1  0  0  0  0
 34 32  1  0  0  0  0
 34 33  1  0  0  0  0
 36 39  1  0  0  0  0
 37 42  1  6  0  0  0
 37 36  1  0  0  0  0
 38 40  1  0  0  0  0
 40 39  1  0  0  0  0
 40 35  1  0  0  0  0
 41 37  1  0  0  0  0
 41 38  1  0  0  0  0
 42 43  1  0  0  0  0
M  END
>  <MODEL>
4

>  <REMARK>
 VINA RESULT:      -8.3      3.504      7.939
  Name = 
  12 active torsions:
  status: ('A' for Active; 'I' for Inactive)
    1  A    between atoms: C_1  and  C_34
    2  A    between atoms: C_1  and  N_35
    3  A    between atoms: C_2  and  C_6
    4  A    between atoms: C_2  and  N_13
    5  A    between atoms: C_3  and  C_4
    6  A    between atoms: C_3  and  C_12
    7  A    between atoms: C_4  and  C_15
    8  A    between atoms: C_4  and  N_22
    9  A    between atoms: C_6  and  C_12
   10  A    between atoms: C_11  and  C_14
   11  A    between atoms: C_15  and  C_42
   12  A    between atoms: C_19  and  O_25
                            x       y       z     vdW  Elec       q    Type
                         _______ _______ _______ _____ _____    ______ ____

>  <TORSDO>
F 12

$$$$
=
 OpenBabel11052416193D

 43 47  0  0  1  0  0  0  0  0999 V2000
  190.8560  176.9490  147.2650 C   0  0  0  0  0  0  0  0  0  0  0  0
  187.3830  177.7090  143.6690 C   0  0  0  0  0  0  0  0  0  0  0  0
  188.6640  177.1000  141.2030 N   0  0  0  0  0  0  0  0  0  0  0  0
  188.7850  177.3600  146.0780 C   0  0  0  0  0  0  0  0  0  0  0  0
  191.5420  176.8710  146.0490 C   0  0  0  0  0  3  0  0  0  0  0  0
  191.5260  176.7900  148.4310 F   0  0  0  0  0  0  0  0  0  0  0  0
  189.4750  177.2830  144.8450 C   0  0  0  0  0  0  0  0  0  0  0  0
  189.4790  177.1890  147.2790 C   0  0  0  0  0  3  0  0  0  0  0  0
  190.8550  177.0360  144.8430 C   0  0  0  0  0  3  0  0  0  0  0  0
  189.4180  177.3110  142.3750 N   0  0  0  0  0  2  0  0  0  0  0  0
  188.7640  177.4340  143.6440 C   0  0  0  0  0  0  0  0  0  0  0  0
  186.7100  177.7640  144.8980 C   0  0  0  0  0  3  0  0  0  0  0  0
  186.6270  177.8450  142.3660 C   0  0  2  0  0  3  0  0  0  0  0  0
  187.5860  178.0900  141.1920 C   0  0  0  0  0  2  0  0  0  0  0  0
  187.4070  177.5940  146.0960 C   0  0  0  0  0  3  0  0  0  0  0  0
  189.5360  177.3530  140.0510 C   0  0  2  0  0  3  0  0  0  0  0  0
  190.8460  177.6010  140.4760 O   0  0  0  0  0  1  0  0  0  0  0  0
  189.0450  178.5410  139.2210 C   0  0  0  0  0  2  0  0  0  0  0  0
  188.4400  178.0950  137.8990 C   0  0  1  0  0  3  0  0  0  0  0  0
  187.4930  179.0340  137.4880 O   0  0  0  0  0  1  0  0  0  0  0  0
  189.5450  177.9850  136.8530 C   0  0  0  0  0  2  0  0  0  0  0  0
  189.5700  176.6260  136.1490 C   0  0  2  0  0  3  0  0  0  0  0  0
  191.2670  175.0250  137.1500 C   0  0  0  0  0  0  0  0  0  0  0  0
  190.9030  176.0420  136.2120 N   0  0  0  0  0  2  0  0  0  0  0  0
  190.4140  174.5900  137.9740 O   0  0  0  0  0  0  0  0  0  0  0  0
  192.6450  174.5030  137.1580 C   0  0  0  0  0  0  0  0  0  0  0  0
  194.3900  172.9080  136.4190 C   0  0  0  0  0  2  0  0  0  0  0  0
  194.8520  174.5730  138.2200 C   0  0  0  0  0  3  0  0  0  0  0  0
  195.0860  173.1600  137.7610 C   0  0  0  0  0  2  0  0  0  0  0  0
  193.6870  175.1770  137.9660 C   0  0  0  0  0  3  0  0  0  0  0  0
  192.9660  173.4010  136.4610 C   0  0  0  0  0  3  0  0  0  0  0  0
  189.1040  176.7320  134.7000 C   0  0  0  0  0  2  0  0  0  0  0  0
  186.9150  175.2300  135.4420 S   0  0  0  0  0  1  0  0  0  0  0  0
  187.5860  176.6910  134.5940 C   0  0  0  0  0  2  0  0  0  0  0  0
  185.6100  178.9800  142.4240 C   0  0  0  0  0  2  0  0  0  0  0  0
  181.8840  178.6930  142.2260 C   0  0  0  0  0  2  0  0  0  0  0  0
  181.9270  178.0540  140.8290 C   0  0  2  0  0  3  0  0  0  0  0  0
  184.2020  179.1770  140.5620 C   0  0  0  0  0  2  0  0  0  0  0  0
  183.2850  179.0720  142.7350 C   0  0  0  0  0  2  0  0  0  0  0  0
  184.3400  178.5430  141.8710 N   0  0  0  0  0  0  0  0  0  0  0  0
  182.9150  178.7260  139.8590 C   0  0  0  0  0  2  0  0  0  0  0  0
  180.6510  177.8310  140.2700 O   0  0  0  0  0  0  0  0  0  0  0  0
  179.8520  177.1770  141.2240 C   0  0  0  0  0  1  0  0  0  0  0  0
  1  8  1  0  0  0  0
  1  6  1  0  0  0  0
  2 12  1  0  0  0  0
  3 10  1  0  0  0  0
  4 15  1  0  0  0  0
  4  8  2  0  0  0  0
  5  1  2  0  0  0  0
  7  4  1  0  0  0  0
  9  7  2  0  0  0  0
  9  5  1  0  0  0  0
 10 11  1  0  0  0  0
 11  2  2  0  0  0  0
 11  7  1  0  0  0  0
 12 15  2  0  0  0  0
 13 35  1  1  0  0  0
 13  2  1  0  0  0  0
 14  3  1  0  0  0  0
 14 13  1  0  0  0  0
 16 17  1  1  0  0  0
 16  3  1  0  0  0  0
 18 16  1  0  0  0  0
 19 20  1  6  0  0  0
 19 18  1  0  0  0  0
 21 19  1  0  0  0  0
 22 32  1  6  0  0  0
 22 24  1  0  0  0  0
 22 21  1  0  0  0  0
 23 26  1  0  0  0  0
 23 25  2  0  0  0  0
 24 23  1  0  0  0  0
 26 30  1  0  0  0  0
 27 31  1  0  0  0  0
 27 29  1  0  0  0  0
 29 28  1  0  0  0  0
 30 28  2  0  0  0  0
 31 26  2  0  0  0  0
 34 32  1  0  0  0  0
 34 33  1  0  0  0  0
 36 39  1  0  0  0  0
 37 42  1  6  0  0  0
 37 36  1  0  0  0  0
 38 40  1  0  0  0  0
 40 35  1  0  0  0  0
 40 39  1  0  0  0  0
 41 38  1  0  0  0  0
 41 37  1  0  0  0  0
 42 43  1  0  0  0  0
M  END
>  <MODEL>
5

>  <REMARK>
 VINA RESULT:      -8.1      3.645      8.292
  Name = 
  12 active torsions:
  status: ('A' for Active; 'I' for Inactive)
    1  A    between atoms: C_1  and  C_34
    2  A    between atoms: C_1  and  N_35
    3  A    between atoms: C_2  and  C_6
    4  A    between atoms: C_2  and  N_13
    5  A    between atoms: C_3  and  C_4
    6  A    between atoms: C_3  and  C_12
    7  A    between atoms: C_4  and  C_15
    8  A    between atoms: C_4  and  N_22
    9  A    between atoms: C_6  and  C_12
   10  A    between atoms: C_11  and  C_14
   11  A    between atoms: C_15  and  C_42
   12  A    between atoms: C_19  and  O_25
                            x       y       z     vdW  Elec       q    Type
                         _______ _______ _______ _____ _____    ______ ____

>  <TORSDO>
F 12

$$$$
=
 OpenBabel11052416193D

 43 47  0  0  1  0  0  0  0  0999 V2000
  181.9720  179.3220  140.8300 C   0  0  0  0  0  0  0  0  0  0  0  0
  186.7640  178.0030  141.7630 C   0  0  0  0  0  0  0  0  0  0  0  0
  188.2350  178.7030  139.4310 N   0  0  0  0  0  0  0  0  0  0  0  0
  184.0230  178.6070  141.9000 C   0  0  0  0  0  0  0  0  0  0  0  0
  182.6480  179.4540  139.6130 C   0  0  0  0  0  3  0  0  0  0  0  0
  180.6490  179.6030  140.9030 F   0  0  0  0  0  0  0  0  0  0  0  0
  184.7110  178.7370  140.6700 C   0  0  0  0  0  0  0  0  0  0  0  0
  182.6590  178.9030  141.9720 C   0  0  0  0  0  3  0  0  0  0  0  0
  184.0120  179.1640  139.5320 C   0  0  0  0  0  3  0  0  0  0  0  0
  186.8280  178.6280  139.4000 N   0  0  0  0  0  2  0  0  0  0  0  0
  186.0870  178.4580  140.6140 C   0  0  0  0  0  0  0  0  0  0  0  0
  186.0710  177.8970  142.9780 C   0  0  0  0  0  3  0  0  0  0  0  0
  188.2500  177.7310  141.6920 C   0  0  2  0  0  3  0  0  0  0  0  0
  188.7160  177.5800  140.2360 C   0  0  0  0  0  2  0  0  0  0  0  0
  184.7080  178.1930  143.0460 C   0  0  0  0  0  3  0  0  0  0  0  0
  188.7280  178.5330  138.0600 C   0  0  2  0  0  3  0  0  0  0  0  0
  189.1080  179.7670  137.5220 O   0  0  0  0  0  1  0  0  0  0  0  0
  187.6730  177.8940  137.1540 C   0  0  0  0  0  2  0  0  0  0  0  0
  188.1960  176.6340  136.4800 C   0  0  1  0  0  3  0  0  0  0  0  0
  189.5820  176.5790  136.6250 O   0  0  0  0  0  1  0  0  0  0  0  0
  187.5590  175.4130  137.1360 C   0  0  0  0  0  2  0  0  0  0  0  0
  186.3540  174.8770  136.3600 C   0  0  2  0  0  3  0  0  0  0  0  0
  184.1790  176.0810  136.8790 C   0  0  0  0  0  0  0  0  0  0  0  0
  185.1320  175.0440  137.1350 N   0  0  0  0  0  2  0  0  0  0  0  0
  184.3770  176.9040  135.9410 O   0  0  0  0  0  0  0  0  0  0  0  0
  182.9780  176.1890  137.7250 C   0  0  0  0  0  0  0  0  0  0  0  0
  181.7570  175.8500  139.8530 C   0  0  0  0  0  2  0  0  0  0  0  0
  180.5820  176.6950  137.8210 C   0  0  0  0  0  3  0  0  0  0  0  0
  180.4700  175.7990  139.0240 C   0  0  0  0  0  2  0  0  0  0  0  0
  181.7560  176.8370  137.1950 C   0  0  0  0  0  3  0  0  0  0  0  0
  182.9650  175.6810  138.9670 C   0  0  0  0  0  3  0  0  0  0  0  0
  186.5380  173.4140  135.9690 C   0  0  0  0  0  2  0  0  0  0  0  0
  184.8430  171.3150  135.4040 S   0  0  0  0  0  1  0  0  0  0  0  0
  185.4780  172.5250  136.6040 C   0  0  0  0  0  2  0  0  0  0  0  0
  188.6260  176.4740  142.4690 C   0  0  0  0  0  2  0  0  0  0  0  0
  189.7040  177.0610  146.0040 C   0  0  0  0  0  2  0  0  0  0  0  0
  191.1920  177.1190  145.6250 C   0  0  2  0  0  3  0  0  0  0  0  0
  190.5580  175.7430  143.5730 C   0  0  0  0  0  2  0  0  0  0  0  0
  188.8070  176.7540  144.7920 C   0  0  0  0  0  2  0  0  0  0  0  0
  189.5540  176.8040  143.5360 N   0  0  0  0  0  0  0  0  0  0  0  0
  191.6330  176.0310  144.6300 C   0  0  0  0  0  2  0  0  0  0  0  0
  192.0530  177.2500  146.7350 O   0  0  0  0  0  0  0  0  0  0  0  0
  192.1210  176.0130  147.3980 C   0  0  0  0  0  1  0  0  0  0  0  0
  1  6  1  0  0  0  0
  1  8  1  0  0  0  0
  2 12  1  0  0  0  0
  3 14  1  0  0  0  0
  4  8  2  0  0  0  0
  4 15  1  0  0  0  0
  5  1  2  0  0  0  0
  7  4  1  0  0  0  0
  9  5  1  0  0  0  0
  9  7  2  0  0  0  0
 10  3  1  0  0  0  0
 10 11  1  0  0  0  0
 11  7  1  0  0  0  0
 11  2  2  0  0  0  0
 12 15  2  0  0  0  0
 13  2  1  0  0  0  0
 13 35  1  1  0  0  0
 14 13  1  0  0  0  0
 16 17  1  6  0  0  0
 16  3  1  0  0  0  0
 18 16  1  0  0  0  0
 19 20  1  1  0  0  0
 19 21  1  0  0  0  0
 19 18  1  0  0  0  0
 22 32  1  1  0  0  0
 22 24  1  0  0  0  0
 22 21  1  0  0  0  0
 23 24  1  0  0  0  0
 23 26  1  0  0  0  0
 25 23  2  0  0  0  0
 26 31  2  0  0  0  0
 28 29  1  0  0  0  0
 29 27  1  0  0  0  0
 30 26  1  0  0  0  0
 30 28  2  0  0  0  0
 31 27  1  0  0  0  0
 32 34  1  0  0  0  0
 33 34  1  0  0  0  0
 35 40  1  0  0  0  0
 37 36  1  0  0  0  0
 37 42  1  1  0  0  0
 38 41  1  0  0  0  0
 39 36  1  0  0  0  0
 40 38  1  0  0  0  0
 40 39  1  0  0  0  0
 41 37  1  0  0  0  0
 42 43  1  0  0  0  0
M  END
>  <MODEL>
6

>  <REMARK>
 VINA RESULT:      -8.1      3.844      8.177
  Name = 
  12 active torsions:
  status: ('A' for Active; 'I' for Inactive)
    1  A    between atoms: C_1  and  C_34
    2  A    between atoms: C_1  and  N_35
    3  A    between atoms: C_2  and  C_6
    4  A    between atoms: C_2  and  N_13
    5  A    between atoms: C_3  and  C_4
    6  A    between atoms: C_3  and  C_12
    7  A    between atoms: C_4  and  C_15
    8  A    between atoms: C_4  and  N_22
    9  A    between atoms: C_6  and  C_12
   10  A    between atoms: C_11  and  C_14
   11  A    between atoms: C_15  and  C_42
   12  A    between atoms: C_19  and  O_25
                            x       y       z     vdW  Elec       q    Type
                         _______ _______ _______ _____ _____    ______ ____

>  <TORSDO>
F 12

$$$$
=
 OpenBabel11052416193D

 43 47  0  0  1  0  0  0  0  0999 V2000
  183.3320  178.8050  143.5080 C   0  0  0  0  0  0  0  0  0  0  0  0
  188.1210  177.7880  142.2420 C   0  0  0  0  0  0  0  0  0  0  0  0
  188.4100  178.6280  139.5400 N   0  0  0  0  0  0  0  0  0  0  0  0
  185.6770  178.2060  143.5650 C   0  0  0  0  0  0  0  0  0  0  0  0
  183.4120  179.0040  142.1260 C   0  0  0  0  0  3  0  0  0  0  0  0
  182.1550  178.9960  144.1520 F   0  0  0  0  0  0  0  0  0  0  0  0
  185.7640  178.4050  142.1660 C   0  0  0  0  0  0  0  0  0  0  0  0
  184.4640  178.4100  144.2260 C   0  0  0  0  0  3  0  0  0  0  0  0
  184.6230  178.8070  141.4570 C   0  0  0  0  0  3  0  0  0  0  0  0
  187.1330  178.4610  140.1100 N   0  0  0  0  0  2  0  0  0  0  0  0
  186.9940  178.2180  141.5150 C   0  0  0  0  0  0  0  0  0  0  0  0
  188.0240  177.6130  143.6310 C   0  0  0  0  0  3  0  0  0  0  0  0
  189.4440  177.6160  141.5310 C   0  0  2  0  0  3  0  0  0  0  0  0
  189.2480  177.5240  140.0100 C   0  0  0  0  0  2  0  0  0  0  0  0
  186.8080  177.8170  144.2880 C   0  0  0  0  0  3  0  0  0  0  0  0
  188.2760  178.5170  138.0830 C   0  0  2  0  0  3  0  0  0  0  0  0
  188.6810  179.7050  137.4650 O   0  0  0  0  0  1  0  0  0  0  0  0
  186.8360  178.2030  137.6710 C   0  0  0  0  0  2  0  0  0  0  0  0
  186.7560  176.9530  136.8090 C   0  0  1  0  0  3  0  0  0  0  0  0
  187.2740  175.8710  137.5220 O   0  0  0  0  0  1  0  0  0  0  0  0
  185.2980  176.6830  136.4490 C   0  0  0  0  0  2  0  0  0  0  0  0
  184.5450  175.9140  137.5370 C   0  0  2  0  0  3  0  0  0  0  0  0
  184.3930  173.3830  137.3890 C   0  0  0  0  0  0  0  0  0  0  0  0
  183.9690  174.6910  136.9930 N   0  0  0  0  0  2  0  0  0  0  0  0
  185.3050  173.2490  138.2510 O   0  0  0  0  0  0  0  0  0  0  0  0
  183.7680  172.1990  136.7710 C   0  0  0  0  0  0  0  0  0  0  0  0
  183.8760  170.0680  135.5150 C   0  0  0  0  0  2  0  0  0  0  0  0
  181.6820  171.1080  136.0930 C   0  0  0  0  0  3  0  0  0  0  0  0
  182.4500  170.3610  135.0360 C   0  0  0  0  0  2  0  0  0  0  0  0
  182.3050  171.9980  136.8730 C   0  0  0  0  0  3  0  0  0  0  0  0
  184.5070  171.3100  136.0890 C   0  0  0  0  0  3  0  0  0  0  0  0
  183.4620  176.7680  138.1870 C   0  0  0  0  0  2  0  0  0  0  0  0
  180.9530  176.3680  139.2560 S   0  0  0  0  0  1  0  0  0  0  0  0
  182.7350  176.0100  139.2890 C   0  0  0  0  0  2  0  0  0  0  0  0
  190.1820  176.3720  142.0140 C   0  0  0  0  0  2  0  0  0  0  0  0
  191.8230  175.4240  145.2400 C   0  0  0  0  0  2  0  0  0  0  0  0
  191.4590  176.7580  145.9100 C   0  0  2  0  0  3  0  0  0  0  0  0
  191.3230  177.7200  143.5520 C   0  0  0  0  0  2  0  0  0  0  0  0
  191.3750  175.3700  143.7700 C   0  0  0  0  0  2  0  0  0  0  0  0
  190.5220  176.5050  143.4190 N   0  0  0  0  0  0  0  0  0  0  0  0
  191.6800  177.9930  145.0190 C   0  0  0  0  0  2  0  0  0  0  0  0
  191.9850  176.8990  147.2110 O   0  0  0  0  0  0  0  0  0  0  0  0
  192.4300  175.6420  147.6540 C   0  0  0  0  0  1  0  0  0  0  0  0
  1  6  1  0  0  0  0
  1  8  1  0  0  0  0
  2 12  1  0  0  0  0
  3 14  1  0  0  0  0
  3 10  1  0  0  0  0
  4  8  2  0  0  0  0
  4 15  1  0  0  0  0
  5  1  2  0  0  0  0
  7  4  1  0  0  0  0
  9  5  1  0  0  0  0
  9  7  2  0  0  0  0
 10 11  1  0  0  0  0
 11  7  1  0  0  0  0
 11  2  2  0  0  0  0
 12 15  2  0  0  0  0
 13 35  1  1  0  0  0
 13  2  1  0  0  0  0
 14 13  1  0  0  0  0
 16 17  1  6  0  0  0
 16  3  1  0  0  0  0
 18 16  1  0  0  0  0
 19 20  1  1  0  0  0
 19 18  1  0  0  0  0
 21 19  1  0  0  0  0
 22 21  1  6  0  0  0
 22 32  1  0  0  0  0
 23 25  2  0  0  0  0
 24 23  1  0  0  0  0
 24 22  1  0  0  0  0
 26 30  1  0  0  0  0
 26 23  1  0  0  0  0
 27 31  1  0  0  0  0
 28 30  2  0  0  0  0
 29 27  1  0  0  0  0
 29 28  1  0  0  0  0
 31 26  2  0  0  0  0
 32 34  1  0  0  0  0
 33 34  1  0  0  0  0
 35 40  1  0  0  0  0
 36 37  1  0  0  0  0
 37 42  1  1  0  0  0
 38 41  1  0  0  0  0
 39 36  1  0  0  0  0
 40 38  1  0  0  0  0
 40 39  1  0  0  0  0
 41 37  1  0  0  0  0
 42 43  1  0  0  0  0
M  END
>  <MODEL>
7

>  <REMARK>
 VINA RESULT:      -8.1      3.200      8.207
  Name = 
  12 active torsions:
  status: ('A' for Active; 'I' for Inactive)
    1  A    between atoms: C_1  and  C_34
    2  A    between atoms: C_1  and  N_35
    3  A    between atoms: C_2  and  C_6
    4  A    between atoms: C_2  and  N_13
    5  A    between atoms: C_3  and  C_4
    6  A    between atoms: C_3  and  C_12
    7  A    between atoms: C_4  and  C_15
    8  A    between atoms: C_4  and  N_22
    9  A    between atoms: C_6  and  C_12
   10  A    between atoms: C_11  and  C_14
   11  A    between atoms: C_15  and  C_42
   12  A    between atoms: C_19  and  O_25
                            x       y       z     vdW  Elec       q    Type
                         _______ _______ _______ _____ _____    ______ ____

>  <TORSDO>
F 12

$$$$
=
 OpenBabel11052416193D

 43 47  0  0  1  0  0  0  0  0999 V2000
  190.9260  176.8540  147.0950 C   0  0  0  0  0  0  0  0  0  0  0  0
  187.6420  177.7380  143.3520 C   0  0  0  0  0  0  0  0  0  0  0  0
  189.0730  177.2900  140.9350 N   0  0  0  0  0  0  0  0  0  0  0  0
  188.9160  177.2870  145.8160 C   0  0  0  0  0  0  0  0  0  0  0  0
  191.6810  176.8570  145.9170 C   0  0  0  0  0  3  0  0  0  0  0  0
  191.5340  176.6460  148.2870 F   0  0  0  0  0  0  0  0  0  0  0  0
  189.6750  177.2920  144.6210 C   0  0  0  0  0  0  0  0  0  0  0  0
  189.5450  177.0650  147.0430 C   0  0  0  0  0  3  0  0  0  0  0  0
  191.0590  177.0730  144.6850 C   0  0  0  0  0  3  0  0  0  0  0  0
  189.7550  177.4520  142.1570 N   0  0  0  0  0  2  0  0  0  0  0  0
  189.0280  177.4930  143.3910 C   0  0  0  0  0  0  0  0  0  0  0  0
  186.9010  177.7120  144.5430 C   0  0  0  0  0  3  0  0  0  0  0  0
  186.9570  177.9290  142.0180 C   0  0  2  0  0  3  0  0  0  0  0  0
  187.9740  178.2570  140.9140 C   0  0  0  0  0  2  0  0  0  0  0  0
  187.5340  177.4920  145.7680 C   0  0  0  0  0  3  0  0  0  0  0  0
  190.0010  177.6230  139.8490 C   0  0  2  0  0  3  0  0  0  0  0  0
  189.4130  178.5390  138.9700 O   0  0  0  0  0  1  0  0  0  0  0  0
  190.4260  176.3780  139.0670 C   0  0  0  0  0  2  0  0  0  0  0  0
  190.0360  176.4720  137.6000 C   0  0  1  0  0  3  0  0  0  0  0  0
  191.1870  176.6460  136.8300 O   0  0  0  0  0  1  0  0  0  0  0  0
  189.3270  175.1870  137.1850 C   0  0  0  0  0  2  0  0  0  0  0  0
  188.0180  175.4410  136.4330 C   0  0  2  0  0  3  0  0  0  0  0  0
  185.9940  173.9370  136.7290 C   0  0  0  0  0  0  0  0  0  0  0  0
  187.3050  174.1900  136.2130 N   0  0  0  0  0  2  0  0  0  0  0  0
  185.4010  174.8200  137.4090 O   0  0  0  0  0  0  0  0  0  0  0  0
  185.3520  172.6340  136.4750 C   0  0  0  0  0  0  0  0  0  0  0  0
  185.2270  170.4360  135.3420 C   0  0  0  0  0  2  0  0  0  0  0  0
  183.3730  171.2300  136.8120 C   0  0  0  0  0  3  0  0  0  0  0  0
  183.7090  170.5010  135.5390 C   0  0  0  0  0  2  0  0  0  0  0  0
  184.1290  172.2550  137.2180 C   0  0  0  0  0  3  0  0  0  0  0  0
  185.8470  171.7930  135.5530 C   0  0  0  0  0  3  0  0  0  0  0  0
  188.2580  176.1560  135.1080 C   0  0  0  0  0  2  0  0  0  0  0  0
  186.8250  178.0710  136.4780 S   0  0  0  0  0  1  0  0  0  0  0  0
  187.2670  177.2920  134.8960 C   0  0  0  0  0  2  0  0  0  0  0  0
  185.9120  179.0380  142.0770 C   0  0  0  0  0  2  0  0  0  0  0  0
  182.1960  178.6040  142.0040 C   0  0  0  0  0  2  0  0  0  0  0  0
  182.2160  177.9880  140.5960 C   0  0  2  0  0  3  0  0  0  0  0  0
  184.4330  179.2060  140.2690 C   0  0  0  0  0  2  0  0  0  0  0  0
  183.5980  179.0320  142.4700 C   0  0  0  0  0  2  0  0  0  0  0  0
  184.6420  178.5580  141.5620 N   0  0  0  0  0  0  0  0  0  0  0  0
  183.1420  178.7130  139.6030 C   0  0  0  0  0  2  0  0  0  0  0  0
  180.9310  177.7210  140.0780 O   0  0  0  0  0  0  0  0  0  0  0  0
  180.2840  178.9450  139.8330 C   0  0  0  0  0  1  0  0  0  0  0  0
  1  6  1  0  0  0  0
  2 11  2  0  0  0  0
  2 12  1  0  0  0  0
  3 10  1  0  0  0  0
  4  8  2  0  0  0  0
  5  1  2  0  0  0  0
  7  9  2  0  0  0  0
  7  4  1  0  0  0  0
  8  1  1  0  0  0  0
  9  5  1  0  0  0  0
 10 11  1  0  0  0  0
 11  7  1  0  0  0  0
 12 15  2  0  0  0  0
 13 35  1  1  0  0  0
 13  2  1  0  0  0  0
 14  3  1  0  0  0  0
 14 13  1  0  0  0  0
 15  4  1  0  0  0  0
 16 17  1  6  0  0  0
 16  3  1  0  0  0  0
 18 16  1  0  0  0  0
 19 20  1  6  0  0  0
 19 18  1  0  0  0  0
 21 19  1  0  0  0  0
 22 32  1  6  0  0  0
 22 21  1  0  0  0  0
 23 25  2  0  0  0  0
 24 22  1  0  0  0  0
 24 23  1  0  0  0  0
 26 23  1  0  0  0  0
 26 30  1  0  0  0  0
 27 29  1  0  0  0  0
 27 31  1  0  0  0  0
 28 30  2  0  0  0  0
 29 28  1  0  0  0  0
 31 26  2  0  0  0  0
 34 32  1  0  0  0  0
 34 33  1  0  0  0  0
 36 39  1  0  0  0  0
 37 42  1  6  0  0  0
 37 36  1  0  0  0  0
 38 40  1  0  0  0  0
 40 35  1  0  0  0  0
 40 39  1  0  0  0  0
 41 38  1  0  0  0  0
 41 37  1  0  0  0  0
 43 42  1  0  0  0  0
M  END
>  <MODEL>
8

>  <REMARK>
 VINA RESULT:      -8.1      3.015      7.929
  Name = 
  12 active torsions:
  status: ('A' for Active; 'I' for Inactive)
    1  A    between atoms: C_1  and  C_34
    2  A    between atoms: C_1  and  N_35
    3  A    between atoms: C_2  and  C_6
    4  A    between atoms: C_2  and  N_13
    5  A    between atoms: C_3  and  C_4
    6  A    between atoms: C_3  and  C_12
    7  A    between atoms: C_4  and  C_15
    8  A    between atoms: C_4  and  N_22
    9  A    between atoms: C_6  and  C_12
   10  A    between atoms: C_11  and  C_14
   11  A    between atoms: C_15  and  C_42
   12  A    between atoms: C_19  and  O_25
                            x       y       z     vdW  Elec       q    Type
                         _______ _______ _______ _____ _____    ______ ____

>  <TORSDO>
F 12

$$$$
=
 OpenBabel11052416193D

 43 47  0  0  1  0  0  0  0  0999 V2000
  193.8160  175.6600  136.1390 C   0  0  0  0  0  0  0  0  0  0  0  0
  190.1970  177.1910  139.3230 C   0  0  0  0  0  0  0  0  0  0  0  0
  187.7360  176.8200  137.9450 N   0  0  0  0  0  0  0  0  0  0  0  0
  192.5990  176.3990  138.0980 C   0  0  0  0  0  0  0  0  0  0  0  0
  192.6360  175.6920  135.3890 C   0  0  0  0  0  3  0  0  0  0  0  0
  194.9790  175.2870  135.5540 F   0  0  0  0  0  0  0  0  0  0  0  0
  191.4030  176.4360  137.3430 C   0  0  0  0  0  0  0  0  0  0  0  0
  193.7960  176.0090  137.4930 C   0  0  0  0  0  3  0  0  0  0  0  0
  191.4330  176.0770  135.9880 C   0  0  0  0  0  3  0  0  0  0  0  0
  188.9610  176.8050  137.2490 N   0  0  0  0  0  2  0  0  0  0  0  0
  190.2010  176.8080  137.9680 C   0  0  0  0  0  0  0  0  0  0  0  0
  191.3880  177.1320  140.0620 C   0  0  0  0  0  3  0  0  0  0  0  0
  188.8910  177.5650  139.9870 C   0  0  2  0  0  3  0  0  0  0  0  0
  187.8120  177.8880  138.9430 C   0  0  0  0  0  2  0  0  0  0  0  0
  192.5820  176.7420  139.4530 C   0  0  0  0  0  3  0  0  0  0  0  0
  186.6750  177.1560  136.9890 C   0  0  2  0  0  3  0  0  0  0  0  0
  187.1700  177.9970  135.9870 O   0  0  0  0  0  1  0  0  0  0  0  0
  185.4900  177.8370  137.6760 C   0  0  0  0  0  2  0  0  0  0  0  0
  184.1710  177.1660  137.3240 C   0  0  1  0  0  3  0  0  0  0  0  0
  184.3810  175.7950  137.1700 O   0  0  0  0  0  1  0  0  0  0  0  0
  183.1680  177.4110  138.4470 C   0  0  0  0  0  2  0  0  0  0  0  0
  183.3540  178.7670  139.1320 C   0  0  2  0  0  3  0  0  0  0  0  0
  184.4580  178.9360  141.4120 C   0  0  0  0  0  0  0  0  0  0  0  0
  183.3390  178.6150  140.5800 N   0  0  0  0  0  2  0  0  0  0  0  0
  185.5220  179.3780  140.8960 O   0  0  0  0  0  0  0  0  0  0  0  0
  184.3630  178.7330  142.8690 C   0  0  0  0  0  0  0  0  0  0  0  0
  183.1100  178.7320  145.0050 C   0  0  0  0  0  2  0  0  0  0  0  0
  185.5740  178.3380  144.9620 C   0  0  0  0  0  3  0  0  0  0  0  0
  184.4470  179.0000  145.7060 C   0  0  0  0  0  2  0  0  0  0  0  0
  185.5420  178.2560  143.6270 C   0  0  0  0  0  3  0  0  0  0  0  0
  183.2250  179.0030  143.5270 C   0  0  0  0  0  3  0  0  0  0  0  0
  182.2950  179.7720  138.6920 C   0  0  0  0  0  2  0  0  0  0  0  0
  180.0720  181.2400  139.4030 S   0  0  0  0  0  1  0  0  0  0  0  0
  181.0740  179.7360  139.6020 C   0  0  0  0  0  2  0  0  0  0  0  0
  189.0590  178.7620  140.9170 C   0  0  0  0  0  2  0  0  0  0  0  0
  188.5980  176.3300  143.7230 C   0  0  0  0  0  2  0  0  0  0  0  0
  189.0100  177.3590  144.7880 C   0  0  2  0  0  3  0  0  0  0  0  0
  190.2610  178.5570  142.9160 C   0  0  0  0  0  2  0  0  0  0  0  0
  188.7000  176.8980  142.2980 C   0  0  0  0  0  2  0  0  0  0  0  0
  188.9530  178.3380  142.3020 N   0  0  0  0  0  0  0  0  0  0  0  0
  190.2400  178.2020  144.4090 C   0  0  0  0  0  2  0  0  0  0  0  0
  189.0720  176.8270  146.0930 O   0  0  0  0  0  0  0  0  0  0  0  0
  188.5860  177.7900  146.9940 C   0  0  0  0  0  1  0  0  0  0  0  0
  1  8  1  0  0  0  0
  2 13  1  0  0  0  0
  2 12  1  0  0  0  0
  3 14  1  0  0  0  0
  4 15  1  0  0  0  0
  5  9  1  0  0  0  0
  5  1  2  0  0  0  0
  6  1  1  0  0  0  0
  7 11  1  0  0  0  0
  7  4  1  0  0  0  0
  8  4  2  0  0  0  0
  9  7  2  0  0  0  0
 10  3  1  0  0  0  0
 10 11  1  0  0  0  0
 11  2  2  0  0  0  0
 13 35  1  1  0  0  0
 14 13  1  0  0  0  0
 15 12  2  0  0  0  0
 16 17  1  6  0  0  0
 16 18  1  0  0  0  0
 16  3  1  0  0  0  0
 19 20  1  1  0  0  0
 19 18  1  0  0  0  0
 19 21  1  0  0  0  0
 22 21  1  6  0  0  0
 22 24  1  0  0  0  0
 23 26  1  0  0  0  0
 24 23  1  0  0  0  0
 25 23  2  0  0  0  0
 26 31  2  0  0  0  0
 26 30  1  0  0  0  0
 27 29  1  0  0  0  0
 28 29  1  0  0  0  0
 30 28  2  0  0  0  0
 31 27  1  0  0  0  0
 32 22  1  0  0  0  0
 32 34  1  0  0  0  0
 33 34  1  0  0  0  0
 35 40  1  0  0  0  0
 36 37  1  0  0  0  0
 37 42  1  1  0  0  0
 38 41  1  0  0  0  0
 39 40  1  0  0  0  0
 39 36  1  0  0  0  0
 40 38  1  0  0  0  0
 41 37  1  0  0  0  0
 42 43  1  0  0  0  0
M  END
>  <MODEL>
9

>  <REMARK>
 VINA RESULT:      -8.0      2.730      5.468
  Name = 
  12 active torsions:
  status: ('A' for Active; 'I' for Inactive)
    1  A    between atoms: C_1  and  C_34
    2  A    between atoms: C_1  and  N_35
    3  A    between atoms: C_2  and  C_6
    4  A    between atoms: C_2  and  N_13
    5  A    between atoms: C_3  and  C_4
    6  A    between atoms: C_3  and  C_12
    7  A    between atoms: C_4  and  C_15
    8  A    between atoms: C_4  and  N_22
    9  A    between atoms: C_6  and  C_12
   10  A    between atoms: C_11  and  C_14
   11  A    between atoms: C_15  and  C_42
   12  A    between atoms: C_19  and  O_25
                            x       y       z     vdW  Elec       q    Type
                         _______ _______ _______ _____ _____    ______ ____

>  <TORSDO>
F 12

$$$$
