=
 OpenBabel11052413303D

 28 32  0  0  1  0  0  0  0  0999 V2000
  190.0730  177.0600  143.1520 N   0  0  0  0  0  0  0  0  0  0  0  0
  185.3270  179.0960  142.8340 C   0  0  0  0  0  2  0  0  0  0  0  0
  188.8110  178.2700  147.7840 C   0  0  0  0  0  1  0  0  0  0  0  0
  184.4880  178.7380  145.1670 C   0  0  0  0  0  0  0  0  0  0  0  0
  186.8320  178.2660  144.7030 C   0  0  0  0  0  0  0  0  0  0  0  0
  182.8680  178.7670  143.2930 C   0  0  0  0  0  0  0  0  0  0  0  0
  185.5610  178.6780  144.2610 C   0  0  0  0  0  0  0  0  0  0  0  0
  185.9420  177.9930  146.9480 C   0  0  0  0  0  3  0  0  0  0  0  0
  183.1340  179.1960  144.7110 C   0  0  0  0  0  2  0  0  0  0  0  0
  189.4910  177.4400  145.5350 C   0  0  1  0  0  3  0  0  0  0  0  0
  187.9850  178.2190  143.7430 C   0  0  0  0  0  2  0  0  0  0  0  0
  184.6830  178.3960  146.5050 C   0  0  0  0  0  3  0  0  0  0  0  0
  191.6590  176.3820  144.8950 C   0  0  0  0  0  2  0  0  0  0  0  0
  188.3670  177.4490  146.5820 C   0  0  2  0  0  3  0  0  0  0  0  0
  190.5670  176.4400  145.9500 C   0  0  0  0  0  2  0  0  0  0  0  0
  181.7170  178.5960  142.9280 O   0  0  0  0  0  0  0  0  0  0  0  0
  183.9910  178.5650  142.3080 C   0  0  0  0  0  2  0  0  0  0  0  0
  187.0310  177.9420  146.0650 C   0  0  0  0  0  0  0  0  0  0  0  0
  191.0270  176.0270  143.5570 C   0  0  0  0  0  2  0  0  0  0  0  0
  188.9680  177.1140  144.1250 C   0  0  1  0  0  3  0  0  0  0  0  0
  189.5370  176.6060  141.8750 C   0  0  0  0  0  2  0  0  0  0  0  0
  190.5670  176.7530  140.8090 C   0  0  0  0  0  0  0  0  0  0  0  0
  192.5210  176.9900  138.8210 C   0  0  0  0  0  0  0  0  0  0  0  0
  190.3260  176.2470  139.5260 C   0  0  0  0  0  3  0  0  0  0  0  0
  191.7890  177.3710  141.0970 C   0  0  0  0  0  3  0  0  0  0  0  0
  192.7640  177.4910  140.1040 C   0  0  0  0  0  3  0  0  0  0  0  0
  193.4670  177.1080  137.8580 F   0  0  0  0  0  0  0  0  0  0  0  0
  191.3030  176.3680  138.5330 C   0  0  0  0  0  3  0  0  0  0  0  0
  1 19  1  0  0  0  0
  1 20  1  0  0  0  0
  2  7  1  0  0  0  0
  4 12  1  0  0  0  0
  5 18  2  0  0  0  0
  6  9  1  0  0  0  0
  7  5  1  0  0  0  0
  7  4  2  0  0  0  0
  9  4  1  0  0  0  0
 10 15  1  1  0  0  0
 10 14  1  0  0  0  0
 11  5  1  0  0  0  0
 12  8  2  0  0  0  0
 13 15  1  0  0  0  0
 14  3  1  1  0  0  0
 16  6  2  0  0  0  0
 17  2  1  0  0  0  0
 17  6  1  0  0  0  0
 18 14  1  0  0  0  0
 18  8  1  0  0  0  0
 19 13  1  0  0  0  0
 20 11  1  6  0  0  0
 20 10  1  0  0  0  0
 21  1  1  0  0  0  0
 22 25  1  0  0  0  0
 22 21  1  0  0  0  0
 23 26  1  0  0  0  0
 24 22  2  0  0  0  0
 26 25  2  0  0  0  0
 27 23  1  0  0  0  0
 28 23  2  0  0  0  0
 28 24  1  0  0  0  0
M  END
>  <MODEL>
1

>  <REMARK>
 VINA RESULT:     -10.7      0.000      0.000
  Name = 
  2 active torsions:
  status: ('A' for Active; 'I' for Inactive)
    1  A    between atoms: N_1  and  C_2
    2  A    between atoms: C_2  and  C_3
                            x       y       z     vdW  Elec       q    Type
                         _______ _______ _______ _____ _____    ______ ____

>  <TORSDO>
F 2

$$$$
=
 OpenBabel11052413303D

 28 32  0  0  1  0  0  0  0  0999 V2000
  184.9060  178.3380  143.9100 N   0  0  0  0  0  0  0  0  0  0  0  0
  189.2510  176.8380  141.5350 C   0  0  0  0  0  2  0  0  0  0  0  0
  187.9920  176.9210  147.5130 C   0  0  0  0  0  1  0  0  0  0  0  0
  190.9280  177.1050  143.3770 C   0  0  0  0  0  0  0  0  0  0  0  0
  188.5680  177.3630  143.9240 C   0  0  0  0  0  0  0  0  0  0  0  0
  191.6620  177.3860  141.0280 C   0  0  0  0  0  0  0  0  0  0  0  0
  189.5810  177.1210  142.9760 C   0  0  0  0  0  0  0  0  0  0  0  0
  190.2620  177.5580  145.6560 C   0  0  0  0  0  3  0  0  0  0  0  0
  192.0130  176.8260  142.3800 C   0  0  0  0  0  2  0  0  0  0  0  0
  186.4160  177.8420  145.8160 C   0  0  1  0  0  3  0  0  0  0  0  0
  187.1280  177.3620  143.5040 C   0  0  0  0  0  2  0  0  0  0  0  0
  191.2620  177.3230  144.7140 C   0  0  0  0  0  3  0  0  0  0  0  0
  184.1090  178.7130  146.1980 C   0  0  0  0  0  2  0  0  0  0  0  0
  187.8640  177.8720  146.3310 C   0  0  2  0  0  3  0  0  0  0  0  0
  185.5330  178.6910  146.7270 C   0  0  0  0  0  2  0  0  0  0  0  0
  192.5560  177.7030  140.2620 O   0  0  0  0  0  0  0  0  0  0  0  0
  190.2270  177.5440  140.5900 C   0  0  0  0  0  2  0  0  0  0  0  0
  188.9100  177.5610  145.2810 C   0  0  0  0  0  0  0  0  0  0  0  0
  184.1280  179.2330  144.7680 C   0  0  0  0  0  2  0  0  0  0  0  0
  186.3100  178.3260  144.3600 C   0  0  1  0  0  3  0  0  0  0  0  0
  184.8560  178.9400  142.5830 C   0  0  0  0  0  2  0  0  0  0  0  0
  183.6410  178.4740  141.8580 C   0  0  0  0  0  0  0  0  0  0  0  0
  181.3610  177.6370  140.4690 C   0  0  0  0  0  0  0  0  0  0  0  0
  183.7690  177.6490  140.7340 C   0  0  0  0  0  3  0  0  0  0  0  0
  182.3730  178.8850  142.2820 C   0  0  0  0  0  3  0  0  0  0  0  0
  181.2330  178.4650  141.5890 C   0  0  0  0  0  3  0  0  0  0  0  0
  180.2560  177.2300  139.7990 F   0  0  0  0  0  0  0  0  0  0  0  0
  182.6280  177.2300  140.0420 C   0  0  0  0  0  3  0  0  0  0  0  0
  1 20  1  0  0  0  0
  1 19  1  0  0  0  0
  2  7  1  0  0  0  0
  4 12  1  0  0  0  0
  5 18  2  0  0  0  0
  6  9  1  0  0  0  0
  7  4  2  0  0  0  0
  7  5  1  0  0  0  0
  9  4  1  0  0  0  0
 10 14  1  0  0  0  0
 10 15  1  1  0  0  0
 11  5  1  0  0  0  0
 12  8  2  0  0  0  0
 13 15  1  0  0  0  0
 14  3  1  1  0  0  0
 16  6  2  0  0  0  0
 17  6  1  0  0  0  0
 17  2  1  0  0  0  0
 18  8  1  0  0  0  0
 18 14  1  0  0  0  0
 19 13  1  0  0  0  0
 20 11  1  6  0  0  0
 20 10  1  0  0  0  0
 21  1  1  0  0  0  0
 22 25  1  0  0  0  0
 22 21  1  0  0  0  0
 23 26  1  0  0  0  0
 24 22  2  0  0  0  0
 26 25  2  0  0  0  0
 27 23  1  0  0  0  0
 28 23  2  0  0  0  0
 28 24  1  0  0  0  0
M  END
>  <MODEL>
2

>  <REMARK>
 VINA RESULT:     -10.6      3.672      7.207
  Name = 
  2 active torsions:
  status: ('A' for Active; 'I' for Inactive)
    1  A    between atoms: N_1  and  C_2
    2  A    between atoms: C_2  and  C_3
                            x       y       z     vdW  Elec       q    Type
                         _______ _______ _______ _____ _____    ______ ____

>  <TORSDO>
F 2

$$$$
=
 OpenBabel11052413303D

 28 32  0  0  1  0  0  0  0  0999 V2000
  190.1620  176.5620  143.4820 N   0  0  0  0  0  0  0  0  0  0  0  0
  185.4600  178.6920  143.1340 C   0  0  0  0  0  2  0  0  0  0  0  0
  189.2620  178.5750  147.9150 C   0  0  0  0  0  1  0  0  0  0  0  0
  184.7780  178.7610  145.5430 C   0  0  0  0  0  0  0  0  0  0  0  0
  187.0710  178.1310  145.0140 C   0  0  0  0  0  0  0  0  0  0  0  0
  183.0310  178.5370  143.8010 C   0  0  0  0  0  0  0  0  0  0  0  0
  185.7830  178.5100  144.5920 C   0  0  0  0  0  0  0  0  0  0  0  0
  186.3350  178.2700  147.3260 C   0  0  0  0  0  3  0  0  0  0  0  0
  183.4080  179.1870  145.1050 C   0  0  0  0  0  2  0  0  0  0  0  0
  189.7600  177.3570  145.7980 C   0  0  1  0  0  3  0  0  0  0  0  0
  188.1510  177.8810  144.0030 C   0  0  0  0  0  2  0  0  0  0  0  0
  185.0580  178.6400  146.9050 C   0  0  0  0  0  3  0  0  0  0  0  0
  191.8480  176.1260  145.2080 C   0  0  0  0  0  2  0  0  0  0  0  0
  188.7120  177.5820  146.9000 C   0  0  2  0  0  3  0  0  0  0  0  0
  190.8360  176.4000  146.3060 C   0  0  0  0  0  2  0  0  0  0  0  0
  181.8530  178.3500  143.5460 O   0  0  0  0  0  0  0  0  0  0  0  0
  184.0760  178.1300  142.7940 C   0  0  0  0  0  2  0  0  0  0  0  0
  187.3570  178.0320  146.3950 C   0  0  0  0  0  0  0  0  0  0  0  0
  191.1150  175.5760  143.9930 C   0  0  0  0  0  2  0  0  0  0  0  0
  189.1290  176.8190  144.5020 C   0  0  1  0  0  3  0  0  0  0  0  0
  189.5250  175.9210  142.3380 C   0  0  0  0  0  2  0  0  0  0  0  0
  189.4890  176.8610  141.1830 C   0  0  0  0  0  0  0  0  0  0  0  0
  189.4040  178.5920  138.9860 C   0  0  0  0  0  0  0  0  0  0  0  0
  188.3590  177.6580  140.9620 C   0  0  0  0  0  3  0  0  0  0  0  0
  190.5720  176.9260  140.2990 C   0  0  0  0  0  3  0  0  0  0  0  0
  190.5300  177.7920  139.2030 C   0  0  0  0  0  3  0  0  0  0  0  0
  189.3640  179.4320  137.9240 F   0  0  0  0  0  0  0  0  0  0  0  0
  188.3190  178.5240  139.8650 C   0  0  0  0  0  3  0  0  0  0  0  0
  1 19  1  0  0  0  0
  1 20  1  0  0  0  0
  2  7  1  0  0  0  0
  4 12  1  0  0  0  0
  5 18  2  0  0  0  0
  6  9  1  0  0  0  0
  7  5  1  0  0  0  0
  7  4  2  0  0  0  0
  9  4  1  0  0  0  0
 10 15  1  1  0  0  0
 10 14  1  0  0  0  0
 11  5  1  0  0  0  0
 12  8  2  0  0  0  0
 13 15  1  0  0  0  0
 14  3  1  1  0  0  0
 16  6  2  0  0  0  0
 17  2  1  0  0  0  0
 17  6  1  0  0  0  0
 18 14  1  0  0  0  0
 18  8  1  0  0  0  0
 19 13  1  0  0  0  0
 20 11  1  6  0  0  0
 20 10  1  0  0  0  0
 21  1  1  0  0  0  0
 22 21  1  0  0  0  0
 23 26  2  0  0  0  0
 23 28  1  0  0  0  0
 24 22  1  0  0  0  0
 25 22  2  0  0  0  0
 26 25  1  0  0  0  0
 27 23  1  0  0  0  0
 28 24  2  0  0  0  0
M  END
>  <MODEL>
3

>  <REMARK>
 VINA RESULT:     -10.5      1.349      1.621
  Name = 
  2 active torsions:
  status: ('A' for Active; 'I' for Inactive)
    1  A    between atoms: N_1  and  C_2
    2  A    between atoms: C_2  and  C_3
                            x       y       z     vdW  Elec       q    Type
                         _______ _______ _______ _____ _____    ______ ____

>  <TORSDO>
F 2

$$$$
=
 OpenBabel11052413303D

 28 32  0  0  1  0  0  0  0  0999 V2000
  188.8590  177.2070  143.9640 N   0  0  0  0  0  0  0  0  0  0  0  0
  184.6650  178.5860  141.2640 C   0  0  0  0  0  2  0  0  0  0  0  0
  185.8750  179.4970  147.1830 C   0  0  0  0  0  1  0  0  0  0  0  0
  182.9600  178.7930  143.0880 C   0  0  0  0  0  0  0  0  0  0  0  0
  185.2880  178.4540  143.7230 C   0  0  0  0  0  0  0  0  0  0  0  0
  182.2210  178.1460  140.8140 C   0  0  0  0  0  0  0  0  0  0  0  0
  184.3050  178.5980  142.7260 C   0  0  0  0  0  0  0  0  0  0  0  0
  183.5730  178.7130  145.4250 C   0  0  0  0  0  3  0  0  0  0  0  0
  181.9080  178.9690  142.0340 C   0  0  0  0  0  2  0  0  0  0  0  0
  187.3820  178.1610  145.7160 C   0  0  1  0  0  3  0  0  0  0  0  0
  186.7260  178.2650  143.3400 C   0  0  0  0  0  2  0  0  0  0  0  0
  182.6010  178.8500  144.4350 C   0  0  0  0  0  3  0  0  0  0  0  0
  189.6070  177.1950  146.2990 C   0  0  0  0  0  2  0  0  0  0  0  0
  185.9330  178.3390  146.1970 C   0  0  2  0  0  3  0  0  0  0  0  0
  188.1870  177.4260  146.7840 C   0  0  0  0  0  2  0  0  0  0  0  0
  181.3090  177.7650  140.1000 O   0  0  0  0  0  0  0  0  0  0  0  0
  183.6410  177.7980  140.4430 C   0  0  0  0  0  2  0  0  0  0  0  0
  184.9220  178.5350  145.0860 C   0  0  0  0  0  0  0  0  0  0  0  0
  189.5550  176.4260  144.9860 C   0  0  0  0  0  2  0  0  0  0  0  0
  187.4580  177.4110  144.3740 C   0  0  1  0  0  3  0  0  0  0  0  0
  188.8680  176.3700  142.7700 C   0  0  0  0  0  2  0  0  0  0  0  0
  190.0140  176.7450  141.8950 C   0  0  0  0  0  0  0  0  0  0  0  0
  192.1820  177.4050  140.2530 C   0  0  0  0  0  0  0  0  0  0  0  0
  189.8790  176.6930  140.5030 C   0  0  0  0  0  3  0  0  0  0  0  0
  191.2360  177.1200  142.4650 C   0  0  0  0  0  3  0  0  0  0  0  0
  192.3180  177.4510  141.6450 C   0  0  0  0  0  3  0  0  0  0  0  0
  193.2310  177.7260  139.4590 F   0  0  0  0  0  0  0  0  0  0  0  0
  190.9630  177.0250  139.6830 C   0  0  0  0  0  3  0  0  0  0  0  0
  1 20  1  0  0  0  0
  1 19  1  0  0  0  0
  2  7  1  0  0  0  0
  4 12  1  0  0  0  0
  5 18  2  0  0  0  0
  6  9  1  0  0  0  0
  7  4  2  0  0  0  0
  7  5  1  0  0  0  0
  9  4  1  0  0  0  0
 10 14  1  0  0  0  0
 10 15  1  1  0  0  0
 11  5  1  0  0  0  0
 12  8  2  0  0  0  0
 13 15  1  0  0  0  0
 14  3  1  1  0  0  0
 16  6  2  0  0  0  0
 17  6  1  0  0  0  0
 17  2  1  0  0  0  0
 18  8  1  0  0  0  0
 18 14  1  0  0  0  0
 19 13  1  0  0  0  0
 20 11  1  6  0  0  0
 20 10  1  0  0  0  0
 21  1  1  0  0  0  0
 22 25  1  0  0  0  0
 22 21  1  0  0  0  0
 23 26  1  0  0  0  0
 24 22  2  0  0  0  0
 26 25  2  0  0  0  0
 27 23  1  0  0  0  0
 28 23  2  0  0  0  0
 28 24  1  0  0  0  0
M  END
>  <MODEL>
4

>  <REMARK>
 VINA RESULT:     -10.4      1.266      2.174
  Name = 
  2 active torsions:
  status: ('A' for Active; 'I' for Inactive)
    1  A    between atoms: N_1  and  C_2
    2  A    between atoms: C_2  and  C_3
                            x       y       z     vdW  Elec       q    Type
                         _______ _______ _______ _____ _____    ______ ____

>  <TORSDO>
F 2

$$$$
=
 OpenBabel11052413303D

 28 32  0  0  1  0  0  0  0  0999 V2000
  184.5140  178.4390  142.7530 N   0  0  0  0  0  0  0  0  0  0  0  0
  189.2230  176.8510  141.3140 C   0  0  0  0  0  2  0  0  0  0  0  0
  186.9070  177.3430  146.9460 C   0  0  0  0  0  1  0  0  0  0  0  0
  190.5400  177.2800  143.4020 C   0  0  0  0  0  0  0  0  0  0  0  0
  188.1190  177.5350  143.4950 C   0  0  0  0  0  0  0  0  0  0  0  0
  191.6830  177.4040  141.2070 C   0  0  0  0  0  0  0  0  0  0  0  0
  189.2860  177.2430  142.7660 C   0  0  0  0  0  0  0  0  0  0  0  0
  189.4710  177.8850  145.4840 C   0  0  0  0  0  3  0  0  0  0  0  0
  191.7880  176.9500  142.6380 C   0  0  0  0  0  2  0  0  0  0  0  0
  185.6580  178.1100  144.9300 C   0  0  1  0  0  3  0  0  0  0  0  0
  186.7770  177.4770  142.8250 C   0  0  0  0  0  2  0  0  0  0  0  0
  190.6270  177.6000  144.7560 C   0  0  0  0  0  3  0  0  0  0  0  0
  183.3160  178.9650  144.8270 C   0  0  0  0  0  2  0  0  0  0  0  0
  186.9890  178.2030  145.6930 C   0  0  2  0  0  3  0  0  0  0  0  0
  184.6220  179.0060  145.6030 C   0  0  0  0  0  2  0  0  0  0  0  0
  192.7000  177.6820  140.5930 O   0  0  0  0  0  0  0  0  0  0  0  0
  190.3500  177.5040  140.5090 C   0  0  0  0  0  2  0  0  0  0  0  0
  188.2100  177.8360  144.8740 C   0  0  0  0  0  0  0  0  0  0  0  0
  183.5900  179.3790  143.3880 C   0  0  0  0  0  2  0  0  0  0  0  0
  185.8140  178.4860  143.4460 C   0  0  1  0  0  3  0  0  0  0  0  0
  184.7010  178.9430  141.3970 C   0  0  0  0  0  2  0  0  0  0  0  0
  183.5840  178.4850  140.5250 C   0  0  0  0  0  0  0  0  0  0  0  0
  181.4550  177.6330  138.9220 C   0  0  0  0  0  0  0  0  0  0  0  0
  182.9760  179.3780  139.6360 C   0  0  0  0  0  3  0  0  0  0  0  0
  183.1210  177.1670  140.6170 C   0  0  0  0  0  3  0  0  0  0  0  0
  182.0580  176.7420  139.8150 C   0  0  0  0  0  3  0  0  0  0  0  0
  180.4260  177.2200  138.1440 F   0  0  0  0  0  0  0  0  0  0  0  0
  181.9130  178.9510  138.8330 C   0  0  0  0  0  3  0  0  0  0  0  0
  1 19  1  0  0  0  0
  1 20  1  0  0  0  0
  2  7  1  0  0  0  0
  4 12  1  0  0  0  0
  5 18  2  0  0  0  0
  6  9  1  0  0  0  0
  7  4  2  0  0  0  0
  7  5  1  0  0  0  0
  9  4  1  0  0  0  0
 10 15  1  1  0  0  0
 10 14  1  0  0  0  0
 11  5  1  0  0  0  0
 12  8  2  0  0  0  0
 13 15  1  0  0  0  0
 14  3  1  1  0  0  0
 16  6  2  0  0  0  0
 17  6  1  0  0  0  0
 17  2  1  0  0  0  0
 18  8  1  0  0  0  0
 18 14  1  0  0  0  0
 19 13  1  0  0  0  0
 20 11  1  6  0  0  0
 20 10  1  0  0  0  0
 21  1  1  0  0  0  0
 22 25  1  0  0  0  0
 22 21  1  0  0  0  0
 23 26  1  0  0  0  0
 24 22  2  0  0  0  0
 26 25  2  0  0  0  0
 27 23  1  0  0  0  0
 28 23  2  0  0  0  0
 28 24  1  0  0  0  0
M  END
>  <MODEL>
5

>  <REMARK>
 VINA RESULT:     -10.2      3.853      7.228
  Name = 
  2 active torsions:
  status: ('A' for Active; 'I' for Inactive)
    1  A    between atoms: N_1  and  C_2
    2  A    between atoms: C_2  and  C_3
                            x       y       z     vdW  Elec       q    Type
                         _______ _______ _______ _____ _____    ______ ____

>  <TORSDO>
F 2

$$$$
=
 OpenBabel11052413303D

 28 32  0  0  1  0  0  0  0  0999 V2000
  187.6450  177.7770  140.7350 N   0  0  0  0  0  0  0  0  0  0  0  0
  188.7850  176.9210  145.7080 C   0  0  0  0  0  2  0  0  0  0  0  0
  183.4020  178.3800  143.2140 C   0  0  0  0  0  1  0  0  0  0  0  0
  186.9350  178.1640  146.8520 C   0  0  0  0  0  0  0  0  0  0  0  0
  186.8230  177.9040  144.4320 C   0  0  0  0  0  0  0  0  0  0  0  0
  189.1250  177.9440  147.9900 C   0  0  0  0  0  0  0  0  0  0  0  0
  187.4920  177.6890  145.6510 C   0  0  0  0  0  0  0  0  0  0  0  0
  185.0490  179.0550  145.6310 C   0  0  0  0  0  3  0  0  0  0  0  0
  187.6300  177.9200  148.1590 C   0  0  0  0  0  2  0  0  0  0  0  0
  185.5020  178.2940  141.8740 C   0  0  1  0  0  3  0  0  0  0  0  0
  187.4040  177.3820  143.1510 C   0  0  0  0  0  2  0  0  0  0  0  0
  185.7170  178.8440  146.8360 C   0  0  0  0  0  3  0  0  0  0  0  0
  185.7410  178.5640  139.4050 C   0  0  0  0  0  2  0  0  0  0  0  0
  184.8400  178.8730  143.1350 C   0  0  2  0  0  3  0  0  0  0  0  0
  185.0520  179.0910  140.6520 C   0  0  0  0  0  2  0  0  0  0  0  0
  189.8270  178.2610  148.9350 O   0  0  0  0  0  0  0  0  0  0  0  0
  189.7750  177.5640  146.6830 C   0  0  0  0  0  2  0  0  0  0  0  0
  185.5770  178.5740  144.4240 C   0  0  0  0  0  0  0  0  0  0  0  0
  187.2470  178.6300  139.6140 C   0  0  0  0  0  2  0  0  0  0  0  0
  187.0370  178.2860  141.9770 C   0  0  1  0  0  3  0  0  0  0  0  0
  189.0910  177.9310  140.8370 C   0  0  0  0  0  2  0  0  0  0  0  0
  189.7620  177.1760  139.7430 C   0  0  0  0  0  0  0  0  0  0  0  0
  191.0220  175.7970  137.6590 C   0  0  0  0  0  0  0  0  0  0  0  0
  191.1590  177.1120  139.6890 C   0  0  0  0  0  3  0  0  0  0  0  0
  188.9960  176.5560  138.7490 C   0  0  0  0  0  3  0  0  0  0  0  0
  189.6250  175.8650  137.7100 C   0  0  0  0  0  3  0  0  0  0  0  0
  191.6300  175.1260  136.6520 F   0  0  0  0  0  0  0  0  0  0  0  0
  191.7880  176.4200  138.6480 C   0  0  0  0  0  3  0  0  0  0  0  0
  1 21  1  0  0  0  0
  1 20  1  0  0  0  0
  2 17  1  0  0  0  0
  4  9  1  0  0  0  0
  5  7  1  0  0  0  0
  6  9  1  0  0  0  0
  6 16  2  0  0  0  0
  7  2  1  0  0  0  0
  7  4  2  0  0  0  0
  8 12  2  0  0  0  0
 10 15  1  6  0  0  0
 10 20  1  0  0  0  0
 10 14  1  0  0  0  0
 11  5  1  0  0  0  0
 12  4  1  0  0  0  0
 13 19  1  0  0  0  0
 13 15  1  0  0  0  0
 14  3  1  1  0  0  0
 14 18  1  0  0  0  0
 17  6  1  0  0  0  0
 18  5  2  0  0  0  0
 18  8  1  0  0  0  0
 19  1  1  0  0  0  0
 20 11  1  1  0  0  0
 22 21  1  0  0  0  0
 23 26  2  0  0  0  0
 23 28  1  0  0  0  0
 24 22  1  0  0  0  0
 25 22  2  0  0  0  0
 26 25  1  0  0  0  0
 27 23  1  0  0  0  0
 28 24  2  0  0  0  0
M  END
>  <MODEL>
6

>  <REMARK>
 VINA RESULT:     -10.0      2.542      4.844
  Name = 
  2 active torsions:
  status: ('A' for Active; 'I' for Inactive)
    1  A    between atoms: N_1  and  C_2
    2  A    between atoms: C_2  and  C_3
                            x       y       z     vdW  Elec       q    Type
                         _______ _______ _______ _____ _____    ______ ____

>  <TORSDO>
F 2

$$$$
=
 OpenBabel11052413303D

 28 32  0  0  1  0  0  0  0  0999 V2000
  186.9290  177.9840  140.9110 N   0  0  0  0  0  0  0  0  0  0  0  0
  189.7830  176.3330  144.8980 C   0  0  0  0  0  2  0  0  0  0  0  0
  183.9830  178.2530  144.8820 C   0  0  0  0  0  1  0  0  0  0  0  0
  188.5950  177.4080  146.8240 C   0  0  0  0  0  0  0  0  0  0  0  0
  187.5640  177.5370  144.6210 C   0  0  0  0  0  0  0  0  0  0  0  0
  191.0280  176.9770  146.9960 C   0  0  0  0  0  0  0  0  0  0  0  0
  188.6240  177.1210  145.4480 C   0  0  0  0  0  0  0  0  0  0  0  0
  186.4610  178.5100  146.5550 C   0  0  0  0  0  3  0  0  0  0  0  0
  189.7080  176.9500  147.7190 C   0  0  0  0  0  2  0  0  0  0  0  0
  185.4130  178.3480  142.8430 C   0  0  1  0  0  3  0  0  0  0  0  0
  187.5830  177.2150  143.1550 C   0  0  0  0  0  2  0  0  0  0  0  0
  187.5140  178.1010  147.3710 C   0  0  0  0  0  3  0  0  0  0  0  0
  184.7290  179.0010  140.5340 C   0  0  0  0  0  2  0  0  0  0  0  0
  185.3190  178.7290  144.3290 C   0  0  2  0  0  3  0  0  0  0  0  0
  184.6000  179.3350  142.0100 C   0  0  0  0  0  2  0  0  0  0  0  0
  192.0550  177.1290  147.6360 O   0  0  0  0  0  0  0  0  0  0  0  0
  191.1110  176.7980  145.5020 C   0  0  0  0  0  2  0  0  0  0  0  0
  186.4610  178.2190  145.1830 C   0  0  0  0  0  0  0  0  0  0  0  0
  186.2040  179.0100  140.1590 C   0  0  0  0  0  2  0  0  0  0  0  0
  186.8700  178.2990  142.3500 C   0  0  1  0  0  3  0  0  0  0  0  0
  188.3150  178.0970  140.4740 C   0  0  0  0  0  2  0  0  0  0  0  0
  188.3980  177.9320  138.9960 C   0  0  0  0  0  0  0  0  0  0  0  0
  188.5970  177.6040  136.2250 C   0  0  0  0  0  0  0  0  0  0  0  0
  187.9350  176.7560  138.3950 C   0  0  0  0  0  3  0  0  0  0  0  0
  188.9670  178.9400  138.2110 C   0  0  0  0  0  3  0  0  0  0  0  0
  189.0650  178.7770  136.8260 C   0  0  0  0  0  3  0  0  0  0  0  0
  188.6920  177.4480  134.8820 F   0  0  0  0  0  0  0  0  0  0  0  0
  188.0330  176.5940  137.0090 C   0  0  0  0  0  3  0  0  0  0  0  0
  1 20  1  0  0  0  0
  2  7  1  0  0  0  0
  2 17  1  0  0  0  0
  4 12  1  0  0  0  0
  4  9  1  0  0  0  0
  5 18  2  0  0  0  0
  5  7  1  0  0  0  0
  6 16  2  0  0  0  0
  6  9  1  0  0  0  0
  7  4  2  0  0  0  0
  8 12  2  0  0  0  0
 10 15  1  6  0  0  0
 10 14  1  0  0  0  0
 11  5  1  0  0  0  0
 13 15  1  0  0  0  0
 14  3  1  1  0  0  0
 14 18  1  0  0  0  0
 17  6  1  0  0  0  0
 18  8  1  0  0  0  0
 19 13  1  0  0  0  0
 19  1  1  0  0  0  0
 20 10  1  0  0  0  0
 20 11  1  1  0  0  0
 21  1  1  0  0  0  0
 22 21  1  0  0  0  0
 23 26  2  0  0  0  0
 23 28  1  0  0  0  0
 24 22  1  0  0  0  0
 25 22  2  0  0  0  0
 26 25  1  0  0  0  0
 27 23  1  0  0  0  0
 28 24  2  0  0  0  0
M  END
>  <MODEL>
7

>  <REMARK>
 VINA RESULT:      -9.8      3.180      5.426
  Name = 
  2 active torsions:
  status: ('A' for Active; 'I' for Inactive)
    1  A    between atoms: N_1  and  C_2
    2  A    between atoms: C_2  and  C_3
                            x       y       z     vdW  Elec       q    Type
                         _______ _______ _______ _____ _____    ______ ____

>  <TORSDO>
F 2

$$$$
=
 OpenBabel11052413303D

 28 32  0  0  1  0  0  0  0  0999 V2000
  189.2740  177.4160  140.0630 N   0  0  0  0  0  0  0  0  0  0  0  0
  190.7500  176.0500  144.8300 C   0  0  0  0  0  2  0  0  0  0  0  0
  185.2100  177.7250  142.8740 C   0  0  0  0  0  1  0  0  0  0  0  0
  188.9820  177.1530  146.2210 C   0  0  0  0  0  0  0  0  0  0  0  0
  188.7050  177.1480  143.8010 C   0  0  0  0  0  0  0  0  0  0  0  0
  191.2440  176.8310  147.1790 C   0  0  0  0  0  0  0  0  0  0  0  0
  189.4560  176.8110  144.9420 C   0  0  0  0  0  0  0  0  0  0  0  0
  187.0170  178.1540  145.2310 C   0  0  0  0  0  3  0  0  0  0  0  0
  189.7630  176.7790  147.4450 C   0  0  0  0  0  2  0  0  0  0  0  0
  187.2130  177.7950  141.3930 C   0  0  1  0  0  3  0  0  0  0  0  0
  189.1980  176.7670  142.4360 C   0  0  0  0  0  2  0  0  0  0  0  0
  187.7660  177.8220  146.3590 C   0  0  0  0  0  3  0  0  0  0  0  0
  187.2840  178.3240  138.9550 C   0  0  0  0  0  2  0  0  0  0  0  0
  186.6390  178.2330  142.7490 C   0  0  2  0  0  3  0  0  0  0  0  0
  186.6820  178.7130  140.2940 C   0  0  0  0  0  2  0  0  0  0  0  0
  192.0090  177.0520  148.1020 O   0  0  0  0  0  0  0  0  0  0  0  0
  191.8030  176.5940  145.7990 C   0  0  0  0  0  2  0  0  0  0  0  0
  187.4620  177.8060  143.9470 C   0  0  0  0  0  0  0  0  0  0  0  0
  188.8010  178.3790  139.0680 C   0  0  0  0  0  2  0  0  0  0  0  0
  188.7520  177.7870  141.3900 C   0  0  1  0  0  3  0  0  0  0  0  0
  190.7240  177.5680  140.0840 C   0  0  0  0  0  2  0  0  0  0  0  0
  191.3440  176.6750  139.0650 C   0  0  0  0  0  0  0  0  0  0  0  0
  192.5220  174.9680  137.1870 C   0  0  0  0  0  0  0  0  0  0  0  0
  190.5780  175.6810  138.4440 C   0  0  0  0  0  3  0  0  0  0  0  0
  192.7010  176.8080  138.7510 C   0  0  0  0  0  3  0  0  0  0  0  0
  193.2890  175.9570  137.8110 C   0  0  0  0  0  3  0  0  0  0  0  0
  193.0920  174.1440  136.2750 F   0  0  0  0  0  0  0  0  0  0  0  0
  191.1670  174.8300  137.5040 C   0  0  0  0  0  3  0  0  0  0  0  0
  1 21  1  0  0  0  0
  1 20  1  0  0  0  0
  2  7  1  0  0  0  0
  2 17  1  0  0  0  0
  4 12  1  0  0  0  0
  4  9  1  0  0  0  0
  5 18  2  0  0  0  0
  5  7  1  0  0  0  0
  6  9  1  0  0  0  0
  6 16  2  0  0  0  0
  7  4  2  0  0  0  0
  8 12  2  0  0  0  0
 10 15  1  6  0  0  0
 10 14  1  0  0  0  0
 11  5  1  0  0  0  0
 13 19  1  0  0  0  0
 13 15  1  0  0  0  0
 14  3  1  1  0  0  0
 14 18  1  0  0  0  0
 17  6  1  0  0  0  0
 18  8  1  0  0  0  0
 19  1  1  0  0  0  0
 20 10  1  0  0  0  0
 20 11  1  1  0  0  0
 22 21  1  0  0  0  0
 23 28  2  0  0  0  0
 23 26  1  0  0  0  0
 24 22  2  0  0  0  0
 25 22  1  0  0  0  0
 26 25  2  0  0  0  0
 27 23  1  0  0  0  0
 28 24  1  0  0  0  0
M  END
>  <MODEL>
8

>  <REMARK>
 VINA RESULT:      -9.6      2.825      5.203
  Name = 
  2 active torsions:
  status: ('A' for Active; 'I' for Inactive)
    1  A    between atoms: N_1  and  C_2
    2  A    between atoms: C_2  and  C_3
                            x       y       z     vdW  Elec       q    Type
                         _______ _______ _______ _____ _____    ______ ____

>  <TORSDO>
F 2

$$$$
=
 OpenBabel11052413303D

 28 32  0  0  1  0  0  0  0  0999 V2000
  186.5180  178.2600  143.4560 N   0  0  0  0  0  0  0  0  0  0  0  0
  189.9250  177.8700  139.5820 C   0  0  0  0  0  2  0  0  0  0  0  0
  184.1490  179.8530  139.4110 C   0  0  0  0  0  1  0  0  0  0  0  0
  188.3960  177.7440  137.6010 C   0  0  0  0  0  0  0  0  0  0  0  0
  187.4220  178.2530  139.7760 C   0  0  0  0  0  0  0  0  0  0  0  0
  190.5990  176.6160  137.4990 C   0  0  0  0  0  0  0  0  0  0  0  0
  188.5460  177.9480  138.9850 C   0  0  0  0  0  0  0  0  0  0  0  0
  186.0220  178.1570  137.7920 C   0  0  0  0  0  3  0  0  0  0  0  0
  189.5900  177.4400  136.7460 C   0  0  0  0  0  2  0  0  0  0  0  0
  185.1590  178.8990  141.4800 C   0  0  1  0  0  3  0  0  0  0  0  0
  187.5810  178.4900  141.2490 C   0  0  0  0  0  2  0  0  0  0  0  0
  187.1360  177.8500  137.0120 C   0  0  0  0  0  3  0  0  0  0  0  0
  184.1400  178.7800  143.7540 C   0  0  0  0  0  2  0  0  0  0  0  0
  184.9040  178.6610  139.9830 C   0  0  2  0  0  3  0  0  0  0  0  0
  183.8860  178.6010  142.2680 C   0  0  0  0  0  2  0  0  0  0  0  0
  191.3460  175.8760  136.8800 O   0  0  0  0  0  0  0  0  0  0  0  0
  190.7210  176.6990  138.9990 C   0  0  0  0  0  2  0  0  0  0  0  0
  186.1510  178.3820  139.1700 C   0  0  0  0  0  0  0  0  0  0  0  0
  185.2950  177.8780  144.1640 C   0  0  0  0  0  2  0  0  0  0  0  0
  186.3300  178.0530  142.0090 C   0  0  1  0  0  3  0  0  0  0  0  0
  187.5380  177.3290  143.9230 C   0  0  0  0  0  2  0  0  0  0  0  0
  187.8470  177.5890  145.3570 C   0  0  0  0  0  0  0  0  0  0  0  0
  188.4140  178.0350  148.0600 C   0  0  0  0  0  0  0  0  0  0  0  0
  189.1380  177.3650  145.8480 C   0  0  0  0  0  3  0  0  0  0  0  0
  186.8380  178.0290  146.2210 C   0  0  0  0  0  3  0  0  0  0  0  0
  187.1210  178.2530  147.5710 C   0  0  0  0  0  3  0  0  0  0  0  0
  188.6880  178.2530  149.3690 F   0  0  0  0  0  0  0  0  0  0  0  0
  189.4210  177.5900  147.1990 C   0  0  0  0  0  3  0  0  0  0  0  0
  1 21  1  0  0  0  0
  1 19  1  0  0  0  0
  4  7  1  0  0  0  0
  5 11  1  0  0  0  0
  6 17  1  0  0  0  0
  7  2  1  0  0  0  0
  7  5  2  0  0  0  0
  8 18  2  0  0  0  0
  9  6  1  0  0  0  0
  9  4  1  0  0  0  0
 10 20  1  0  0  0  0
 10 15  1  1  0  0  0
 12  4  2  0  0  0  0
 12  8  1  0  0  0  0
 13 19  1  0  0  0  0
 14  3  1  6  0  0  0
 14 10  1  0  0  0  0
 15 13  1  0  0  0  0
 16  6  2  0  0  0  0
 17  2  1  0  0  0  0
 18  5  1  0  0  0  0
 18 14  1  0  0  0  0
 20 11  1  6  0  0  0
 20  1  1  0  0  0  0
 21 22  1  0  0  0  0
 22 24  2  0  0  0  0
 22 25  1  0  0  0  0
 23 27  1  0  0  0  0
 24 28  1  0  0  0  0
 25 26  2  0  0  0  0
 26 23  1  0  0  0  0
 28 23  2  0  0  0  0
M  END
>  <MODEL>
9

>  <REMARK>
 VINA RESULT:      -9.3      3.972      7.893
  Name = 
  2 active torsions:
  status: ('A' for Active; 'I' for Inactive)
    1  A    between atoms: N_1  and  C_2
    2  A    between atoms: C_2  and  C_3
                            x       y       z     vdW  Elec       q    Type
                         _______ _______ _______ _____ _____    ______ ____

>  <TORSDO>
F 2

$$$$
