=
 OpenBabel11052414303D

 32 34  0  0  1  0  0  0  0  0999 V2000
  186.3030  178.9340  141.5620 C   0  0  1  0  0  3  0  0  0  0  0  0
  184.1120  178.6090  140.5380 O   0  0  0  0  0  0  0  0  0  0  0  0
  187.7840  179.1730  141.2580 C   0  0  0  0  0  2  0  0  0  0  0  0
  185.4750  178.8690  140.2610 C   0  0  2  0  0  3  0  0  0  0  0  0
  183.3300  178.7880  139.3690 C   0  0  1  0  0  0  0  0  0  0  0  0
  182.0350  180.5240  138.2590 C   0  0  2  0  0  3  0  0  0  0  0  0
  181.0470  179.5810  138.9230 C   0  0  2  0  0  3  0  0  0  0  0  0
  186.0540  177.8530  139.2650 C   0  0  1  0  0  3  0  0  0  0  0  0
  181.8640  178.5860  139.7300 C   0  0  0  0  0  2  0  0  0  0  0  0
  185.2570  177.9090  137.9680 C   0  0  0  0  0  2  0  0  0  0  0  0
  187.5170  178.1720  138.9750 C   0  0  0  0  0  2  0  0  0  0  0  0
  183.3890  180.2290  138.8650 C   0  0  0  0  0  2  0  0  0  0  0  0
  183.7560  177.7980  138.2510 C   0  0  1  0  0  3  0  0  0  0  0  0
  188.3270  178.1430  140.2660 C   0  0  0  0  0  2  0  0  0  0  0  0
  181.6520  181.9630  138.5370 C   0  0  0  0  0  1  0  0  0  0  0  0
  183.3710  176.3670  138.5320 C   0  0  0  0  0  3  0  0  0  0  0  0
  183.7970  175.4490  137.8480 O   0  0  0  0  0  0  0  0  0  0  0  0
  184.7860  177.7020  142.9980 O   0  0  0  0  0  1  0  0  0  0  0  0
  186.1060  177.7590  142.5400 C   0  0  2  0  0  3  0  0  0  0  0  0
  187.0840  177.8200  143.7200 C   0  0  2  0  0  3  0  0  0  0  0  0
  188.0950  175.7580  143.0750 O   0  0  0  0  0  0  0  0  0  0  0  0
  188.2670  176.9320  143.4930 C   0  0  0  0  0  0  0  0  0  0  0  0
  189.5540  177.3950  143.7420 O   0  0  0  0  0  1  0  0  0  0  0  0
  186.3950  177.4310  145.0220 C   0  0  0  0  0  2  0  0  0  0  0  0
  187.5070  177.5710  147.1390 O   0  0  0  0  0  1  0  0  0  0  0  0
  186.8610  178.3270  146.1580 C   0  0  2  0  0  3  0  0  0  0  0  0
  185.6950  179.0430  146.7510 C   0  0  0  0  0  0  0  0  0  0  0  0
  184.3790  178.7380  146.3030 N   0  0  0  0  0  1  0  0  0  0  0  0
  185.8630  179.8890  147.6700 O   0  0  0  0  0  0  0  0  0  0  0  0
  180.2360  178.8360  137.8710 C   0  0  0  0  0  2  0  0  0  0  0  0
  181.0910  177.8400  135.7500 C   0  0  0  0  0  1  0  0  0  0  0  0
  180.7450  179.1300  136.4690 C   0  0  0  0  0  2  0  0  0  0  0  0
  1 19  1  6  0  0  0
  3  1  1  0  0  0  0
  4  2  1  1  0  0  0
  4  1  1  0  0  0  0
  5 12  1  6  0  0  0
  5  9  1  0  0  0  0
  5  2  1  0  0  0  0
  6 15  1  1  0  0  0
  6 12  1  0  0  0  0
  6  7  1  0  0  0  0
  7 30  1  6  0  0  0
  7  9  1  0  0  0  0
  8 10  1  6  0  0  0
  8  4  1  0  0  0  0
 10 13  1  0  0  0  0
 11  8  1  0  0  0  0
 11 14  1  0  0  0  0
 13 16  1  1  0  0  0
 13  5  1  0  0  0  0
 14  3  1  0  0  0  0
 17 16  2  0  0  0  0
 19 18  1  1  0  0  0
 19 20  1  0  0  0  0
 20 24  1  1  0  0  0
 21 22  2  0  0  0  0
 22 20  1  0  0  0  0
 22 23  1  0  0  0  0
 24 26  1  0  0  0  0
 26 27  1  0  0  0  0
 26 25  1  1  0  0  0
 27 29  2  0  0  0  0
 28 27  1  0  0  0  0
 31 32  1  0  0  0  0
 32 30  1  0  0  0  0
M  END
>  <MODEL>
1

>  <REMARK>
 VINA RESULT:      -6.0      0.000      0.000
  Name = 
  9 active torsions:
  status: ('A' for Active; 'I' for Inactive)
    1  A    between atoms: C_1  and  C_27
    2  A    between atoms: C_7  and  C_15
    3  A    between atoms: C_11  and  C_12
    4  A    between atoms: C_11  and  C_31
    5  A    between atoms: C_13  and  C_29
    6  A    between atoms: C_15  and  C_20
    7  A    between atoms: C_16  and  C_20
    8  A    between atoms: C_16  and  C_22
    9  A    between atoms: C_16  and  C_27
                            x       y       z     vdW  Elec       q    Type
                         _______ _______ _______ _____ _____    ______ ____

>  <TORSDO>
F 9

$$$$
=
 OpenBabel11052414303D

 32 34  0  0  1  0  0  0  0  0999 V2000
  190.4230  175.5850  138.0170 C   0  0  1  0  0  3  0  0  0  0  0  0
  192.8440  175.3330  137.8570 O   0  0  0  0  0  0  0  0  0  0  0  0
  189.1150  175.4640  137.2290 C   0  0  0  0  0  2  0  0  0  0  0  0
  191.6310  175.1830  137.1450 C   0  0  2  0  0  3  0  0  0  0  0  0
  193.9130  174.7410  137.1380 C   0  0  1  0  0  0  0  0  0  0  0  0
  195.0900  172.6150  136.9920 C   0  0  2  0  0  3  0  0  0  0  0  0
  195.9800  173.5700  137.7690 C   0  0  2  0  0  3  0  0  0  0  0  0
  191.6580  175.9520  135.8140 C   0  0  1  0  0  3  0  0  0  0  0  0
  195.1800  174.8440  137.9780 C   0  0  0  0  0  2  0  0  0  0  0  0
  192.8110  175.4400  134.9600 C   0  0  0  0  0  2  0  0  0  0  0  0
  190.3450  175.7560  135.0640 C   0  0  0  0  0  2  0  0  0  0  0  0
  193.7120  173.2360  136.9630 C   0  0  0  0  0  2  0  0  0  0  0  0
  194.1160  175.4310  135.7620 C   0  0  1  0  0  3  0  0  0  0  0  0
  189.1760  176.2420  135.9150 C   0  0  0  0  0  2  0  0  0  0  0  0
  195.0310  171.2710  137.6890 C   0  0  0  0  0  1  0  0  0  0  0  0
  194.6880  176.8230  135.8630 C   0  0  0  0  0  3  0  0  0  0  0  0
  195.7810  177.0960  135.3880 O   0  0  0  0  0  0  0  0  0  0  0  0
  191.6920  177.0150  139.5070 O   0  0  0  0  0  1  0  0  0  0  0  0
  190.5330  176.9490  138.7270 C   0  0  2  0  0  3  0  0  0  0  0  0
  189.2940  177.2610  139.5740 C   0  0  2  0  0  3  0  0  0  0  0  0
  189.0780  179.2390  138.2580 O   0  0  0  0  0  0  0  0  0  0  0  0
  188.5050  178.3900  138.9890 C   0  0  0  0  0  0  0  0  0  0  0  0
  187.1440  178.5090  139.2490 O   0  0  0  0  0  1  0  0  0  0  0  0
  189.6820  177.5960  141.0080 C   0  0  0  0  0  2  0  0  0  0  0  0
  187.8520  177.9500  142.5140 O   0  0  0  0  0  1  0  0  0  0  0  0
  188.6980  176.9710  141.9850 C   0  0  2  0  0  3  0  0  0  0  0  0
  189.4380  176.2880  143.0840 C   0  0  0  0  0  0  0  0  0  0  0  0
  189.2560  176.7170  144.4280 N   0  0  0  0  0  1  0  0  0  0  0  0
  190.1960  175.3130  142.8360 O   0  0  0  0  0  0  0  0  0  0  0  0
  197.2390  173.8860  136.9740 C   0  0  0  0  0  2  0  0  0  0  0  0
  197.8110  174.3700  134.5940 C   0  0  0  0  0  1  0  0  0  0  0  0
  197.1240  173.4010  135.5370 C   0  0  0  0  0  2  0  0  0  0  0  0
  1 19  1  6  0  0  0
  3  1  1  0  0  0  0
  4  2  1  1  0  0  0
  4  1  1  0  0  0  0
  5 12  1  6  0  0  0
  5  2  1  0  0  0  0
  5  9  1  0  0  0  0
  6 15  1  1  0  0  0
  6  7  1  0  0  0  0
  7 30  1  6  0  0  0
  7  9  1  0  0  0  0
  8 10  1  6  0  0  0
  8  4  1  0  0  0  0
 10 13  1  0  0  0  0
 11  8  1  0  0  0  0
 11 14  1  0  0  0  0
 12  6  1  0  0  0  0
 13 16  1  1  0  0  0
 13  5  1  0  0  0  0
 14  3  1  0  0  0  0
 17 16  2  0  0  0  0
 19 18  1  1  0  0  0
 19 20  1  0  0  0  0
 20 24  1  1  0  0  0
 21 22  2  0  0  0  0
 22 23  1  0  0  0  0
 22 20  1  0  0  0  0
 24 26  1  0  0  0  0
 26 25  1  1  0  0  0
 26 27  1  0  0  0  0
 27 28  1  0  0  0  0
 29 27  2  0  0  0  0
 31 32  1  0  0  0  0
 32 30  1  0  0  0  0
M  END
>  <MODEL>
2

>  <REMARK>
 VINA RESULT:      -5.8      6.637     10.301
  Name = 
  9 active torsions:
  status: ('A' for Active; 'I' for Inactive)
    1  A    between atoms: C_1  and  C_27
    2  A    between atoms: C_7  and  C_15
    3  A    between atoms: C_11  and  C_12
    4  A    between atoms: C_11  and  C_31
    5  A    between atoms: C_13  and  C_29
    6  A    between atoms: C_15  and  C_20
    7  A    between atoms: C_16  and  C_20
    8  A    between atoms: C_16  and  C_22
    9  A    between atoms: C_16  and  C_27
                            x       y       z     vdW  Elec       q    Type
                         _______ _______ _______ _____ _____    ______ ____

>  <TORSDO>
F 9

$$$$
=
 OpenBabel11052414303D

 32 34  0  0  1  0  0  0  0  0999 V2000
  184.9770  177.8460  142.4550 C   0  0  1  0  0  3  0  0  0  0  0  0
  184.1020  177.8660  140.1780 O   0  0  0  0  0  0  0  0  0  0  0  0
  184.5920  178.0150  143.9280 C   0  0  0  0  0  2  0  0  0  0  0  0
  183.7410  177.9820  141.5420 C   0  0  2  0  0  3  0  0  0  0  0  0
  182.9410  177.7540  139.3710 C   0  0  1  0  0  0  0  0  0  0  0  0
  181.5210  176.0290  138.4050 C   0  0  2  0  0  3  0  0  0  0  0  0
  182.3950  176.5710  137.2870 C   0  0  2  0  0  3  0  0  0  0  0  0
  182.9690  179.2820  141.8140 C   0  0  1  0  0  3  0  0  0  0  0  0
  183.3740  177.5420  137.9250 C   0  0  0  0  0  2  0  0  0  0  0  0
  181.7110  179.3100  140.9560 C   0  0  0  0  0  2  0  0  0  0  0  0
  182.5810  179.3680  143.2860 C   0  0  0  0  0  2  0  0  0  0  0  0
  182.1410  176.4950  139.7030 C   0  0  0  0  0  2  0  0  0  0  0  0
  182.0480  179.0190  139.4910 C   0  0  1  0  0  3  0  0  0  0  0  0
  183.8280  179.3190  144.1620 C   0  0  0  0  0  2  0  0  0  0  0  0
  181.4970  174.5150  138.3630 C   0  0  0  0  0  1  0  0  0  0  0  0
  182.6370  180.2390  138.8270 C   0  0  0  0  0  3  0  0  0  0  0  0
  181.9250  181.1410  138.4110 O   0  0  0  0  0  0  0  0  0  0  0  0
  185.8490  179.6460  141.0850 O   0  0  0  0  0  1  0  0  0  0  0  0
  186.1880  178.7250  142.0810 C   0  0  2  0  0  3  0  0  0  0  0  0
  187.3990  177.8870  141.6530 C   0  0  2  0  0  3  0  0  0  0  0  0
  188.8740  178.0410  143.5210 O   0  0  0  0  0  1  0  0  0  0  0  0
  188.1090  177.3120  142.8380 C   0  0  0  0  0  0  0  0  0  0  0  0
  187.9310  175.9790  143.1880 O   0  0  0  0  0  0  0  0  0  0  0  0
  188.3720  178.7170  140.8260 C   0  0  0  0  0  2  0  0  0  0  0  0
  190.2000  177.8680  139.5300 O   0  0  0  0  0  1  0  0  0  0  0  0
  188.8060  177.9490  139.5870 C   0  0  2  0  0  3  0  0  0  0  0  0
  188.2830  178.6220  138.3630 C   0  0  0  0  0  0  0  0  0  0  0  0
  186.9280  178.4250  137.9760 N   0  0  0  0  0  1  0  0  0  0  0  0
  189.0210  179.3890  137.6900 O   0  0  0  0  0  0  0  0  0  0  0  0
  181.5460  177.3090  136.2610 C   0  0  0  0  0  2  0  0  0  0  0  0
  179.6970  178.9510  136.5860 C   0  0  0  0  0  1  0  0  0  0  0  0
  180.1230  177.5060  136.7570 C   0  0  0  0  0  2  0  0  0  0  0  0
  1 19  1  6  0  0  0
  1  3  1  0  0  0  0
  3 14  1  0  0  0  0
  4  2  1  6  0  0  0
  4  8  1  0  0  0  0
  4  1  1  0  0  0  0
  5  9  1  6  0  0  0
  5 13  1  0  0  0  0
  5 12  1  0  0  0  0
  5  2  1  0  0  0  0
  6 15  1  1  0  0  0
  6 12  1  0  0  0  0
  7 30  1  6  0  0  0
  7  9  1  0  0  0  0
  7  6  1  0  0  0  0
  8 10  1  6  0  0  0
  8 11  1  0  0  0  0
 11 14  1  0  0  0  0
 13 16  1  1  0  0  0
 13 10  1  0  0  0  0
 17 16  2  0  0  0  0
 19 18  1  6  0  0  0
 20 24  1  1  0  0  0
 20 19  1  0  0  0  0
 20 22  1  0  0  0  0
 22 23  2  0  0  0  0
 22 21  1  0  0  0  0
 26 25  1  6  0  0  0
 26 24  1  0  0  0  0
 27 26  1  0  0  0  0
 28 27  1  0  0  0  0
 29 27  2  0  0  0  0
 30 32  1  0  0  0  0
 31 32  1  0  0  0  0
M  END
>  <MODEL>
3

>  <REMARK>
 VINA RESULT:      -5.7      2.621      4.875
  Name = 
  9 active torsions:
  status: ('A' for Active; 'I' for Inactive)
    1  A    between atoms: C_1  and  C_27
    2  A    between atoms: C_7  and  C_15
    3  A    between atoms: C_11  and  C_12
    4  A    between atoms: C_11  and  C_31
    5  A    between atoms: C_13  and  C_29
    6  A    between atoms: C_15  and  C_20
    7  A    between atoms: C_16  and  C_20
    8  A    between atoms: C_16  and  C_22
    9  A    between atoms: C_16  and  C_27
                            x       y       z     vdW  Elec       q    Type
                         _______ _______ _______ _____ _____    ______ ____

>  <TORSDO>
F 9

$$$$
=
 OpenBabel11052414303D

 32 34  0  0  1  0  0  0  0  0999 V2000
  185.2520  177.9320  142.1650 C   0  0  1  0  0  3  0  0  0  0  0  0
  183.9980  178.0140  140.0740 O   0  0  0  0  0  0  0  0  0  0  0  0
  185.1090  177.8790  143.6890 C   0  0  0  0  0  2  0  0  0  0  0  0
  183.8690  177.9250  141.4800 C   0  0  2  0  0  3  0  0  0  0  0  0
  182.7490  177.7670  139.4490 C   0  0  1  0  0  0  0  0  0  0  0  0
  181.4900  175.9120  138.5010 C   0  0  2  0  0  3  0  0  0  0  0  0
  182.0500  176.7160  137.3410 C   0  0  2  0  0  3  0  0  0  0  0  0
  182.9500  179.0240  142.0350 C   0  0  1  0  0  3  0  0  0  0  0  0
  182.9490  177.7850  137.9390 C   0  0  0  0  0  2  0  0  0  0  0  0
  181.5740  178.9010  141.3940 C   0  0  0  0  0  2  0  0  0  0  0  0
  182.8180  178.8890  143.5480 C   0  0  0  0  0  2  0  0  0  0  0  0
  182.2420  176.3550  139.7360 C   0  0  0  0  0  2  0  0  0  0  0  0
  181.6920  178.8250  139.8690 C   0  0  1  0  0  3  0  0  0  0  0  0
  184.1910  178.9870  144.2060 C   0  0  0  0  0  2  0  0  0  0  0  0
  181.7140  174.4320  138.2680 C   0  0  0  0  0  1  0  0  0  0  0  0
  181.9410  180.1930  139.2860 C   0  0  0  0  0  3  0  0  0  0  0  0
  181.0250  180.9780  139.0950 O   0  0  0  0  0  0  0  0  0  0  0  0
  185.7070  179.7400  140.6150 O   0  0  0  0  0  1  0  0  0  0  0  0
  186.2120  179.0540  141.7240 C   0  0  2  0  0  3  0  0  0  0  0  0
  187.6230  178.5270  141.4350 C   0  0  2  0  0  3  0  0  0  0  0  0
  187.1160  177.5100  139.3380 O   0  0  0  0  0  1  0  0  0  0  0  0
  187.8390  178.3230  139.9690 C   0  0  0  0  0  0  0  0  0  0  0  0
  188.8350  179.0260  139.2990 O   0  0  0  0  0  0  0  0  0  0  0  0
  187.8800  177.2210  142.1770 C   0  0  0  0  0  2  0  0  0  0  0  0
  189.6720  178.6140  142.9430 O   0  0  0  0  0  1  0  0  0  0  0  0
  189.1620  177.3140  142.9890 C   0  0  2  0  0  3  0  0  0  0  0  0
  190.1700  176.3510  142.4600 C   0  0  0  0  0  0  0  0  0  0  0  0
  190.5090  176.3750  141.0780 N   0  0  0  0  0  1  0  0  0  0  0  0
  190.7490  175.5420  143.2310 O   0  0  0  0  0  0  0  0  0  0  0  0
  180.9220  177.3800  136.5630 C   0  0  0  0  0  2  0  0  0  0  0  0
  180.2820  179.6940  135.8840 C   0  0  0  0  0  1  0  0  0  0  0  0
  181.3920  178.6610  135.8910 C   0  0  0  0  0  2  0  0  0  0  0  0
  1 19  1  1  0  0  0
  1  3  1  0  0  0  0
  3 14  1  0  0  0  0
  4  2  1  6  0  0  0
  4  8  1  0  0  0  0
  4  1  1  0  0  0  0
  5  9  1  6  0  0  0
  5 12  1  0  0  0  0
  5 13  1  0  0  0  0
  5  2  1  0  0  0  0
  6 15  1  6  0  0  0
  6 12  1  0  0  0  0
  7 30  1  1  0  0  0
  7  9  1  0  0  0  0
  7  6  1  0  0  0  0
  8 10  1  6  0  0  0
  8 11  1  0  0  0  0
 11 14  1  0  0  0  0
 13 16  1  1  0  0  0
 13 10  1  0  0  0  0
 17 16  2  0  0  0  0
 19 18  1  6  0  0  0
 20 19  1  0  0  0  0
 20 24  1  1  0  0  0
 21 22  1  0  0  0  0
 22 20  1  0  0  0  0
 23 22  2  0  0  0  0
 24 26  1  0  0  0  0
 26 25  1  6  0  0  0
 27 26  1  0  0  0  0
 27 29  2  0  0  0  0
 28 27  1  0  0  0  0
 31 32  1  0  0  0  0
 32 30  1  0  0  0  0
M  END
>  <MODEL>
4

>  <REMARK>
 VINA RESULT:      -5.3      2.642      4.457
  Name = 
  9 active torsions:
  status: ('A' for Active; 'I' for Inactive)
    1  A    between atoms: C_1  and  C_27
    2  A    between atoms: C_7  and  C_15
    3  A    between atoms: C_11  and  C_12
    4  A    between atoms: C_11  and  C_31
    5  A    between atoms: C_13  and  C_29
    6  A    between atoms: C_15  and  C_20
    7  A    between atoms: C_16  and  C_20
    8  A    between atoms: C_16  and  C_22
    9  A    between atoms: C_16  and  C_27
                            x       y       z     vdW  Elec       q    Type
                         _______ _______ _______ _____ _____    ______ ____

>  <TORSDO>
F 9

$$$$
=
 OpenBabel11052414303D

 32 34  0  0  1  0  0  0  0  0999 V2000
  182.3210  177.1050  138.3720 C   0  0  1  0  0  3  0  0  0  0  0  0
  181.6340  179.4450  138.4320 O   0  0  0  0  0  0  0  0  0  0  0  0
  181.7990  175.6660  138.3060 C   0  0  0  0  0  2  0  0  0  0  0  0
  181.1570  178.1170  138.3310 C   0  0  2  0  0  3  0  0  0  0  0  0
  180.5910  180.3640  138.1550 C   0  0  1  0  0  0  0  0  0  0  0  0
  179.6650  181.5980  136.2710 C   0  0  2  0  0  3  0  0  0  0  0  0
  180.4770  182.5800  137.0970 C   0  0  2  0  0  3  0  0  0  0  0  0
  180.0960  177.8130  139.4000 C   0  0  1  0  0  3  0  0  0  0  0  0
  181.1650  181.7750  138.1860 C   0  0  0  0  0  2  0  0  0  0  0  0
  178.9310  178.7810  139.2430 C   0  0  0  0  0  2  0  0  0  0  0  0
  179.5910  176.3820  139.2530 C   0  0  0  0  0  2  0  0  0  0  0  0
  180.0680  180.2130  136.7270 C   0  0  0  0  0  2  0  0  0  0  0  0
  179.4320  180.2270  139.1800 C   0  0  1  0  0  3  0  0  0  0  0  0
  180.7500  175.3990  139.3850 C   0  0  0  0  0  2  0  0  0  0  0  0
  179.9820  181.7650  134.7990 C   0  0  0  0  0  1  0  0  0  0  0  0
  179.7820  180.7300  140.5580 C   0  0  0  0  0  3  0  0  0  0  0  0
  179.1400  181.6220  141.0900 O   0  0  0  0  0  0  0  0  0  0  0  0
  182.7790  178.0570  140.5540 O   0  0  0  0  0  1  0  0  0  0  0  0
  183.3300  177.2900  139.5230 C   0  0  2  0  0  3  0  0  0  0  0  0
  184.6500  177.9030  139.0400 C   0  0  2  0  0  3  0  0  0  0  0  0
  184.4500  180.2800  139.0600 O   0  0  0  0  0  0  0  0  0  0  0  0
  184.8780  179.2520  139.6460 C   0  0  0  0  0  0  0  0  0  0  0  0
  185.5590  179.3770  140.8510 O   0  0  0  0  0  1  0  0  0  0  0  0
  184.6780  178.0130  137.5210 C   0  0  0  0  0  2  0  0  0  0  0  0
  185.6950  175.8530  137.3160 O   0  0  0  0  0  1  0  0  0  0  0  0
  185.8260  177.1950  136.9500 C   0  0  2  0  0  3  0  0  0  0  0  0
  187.1270  177.7340  137.4420 C   0  0  0  0  0  0  0  0  0  0  0  0
  187.5180  179.0570  137.0930 N   0  0  0  0  0  1  0  0  0  0  0  0
  187.8650  177.0400  138.1900 O   0  0  0  0  0  0  0  0  0  0  0  0
  179.5640  183.6180  137.7350 C   0  0  0  0  0  2  0  0  0  0  0  0
  181.0600  185.0330  136.3260 C   0  0  0  0  0  1  0  0  0  0  0  0
  179.7620  184.9900  137.1080 C   0  0  0  0  0  2  0  0  0  0  0  0
  1 19  1  1  0  0  0
  3  1  1  0  0  0  0
  3 14  1  0  0  0  0
  4  1  1  0  0  0  0
  4  2  1  1  0  0  0
  4  8  1  0  0  0  0
  5 12  1  6  0  0  0
  5  9  1  0  0  0  0
  5  2  1  0  0  0  0
  5 13  1  0  0  0  0
  6 15  1  6  0  0  0
  6 12  1  0  0  0  0
  6  7  1  0  0  0  0
  7 30  1  1  0  0  0
  7  9  1  0  0  0  0
  8 10  1  6  0  0  0
 11 14  1  0  0  0  0
 11  8  1  0  0  0  0
 13 10  1  0  0  0  0
 13 16  1  1  0  0  0
 16 17  2  0  0  0  0
 19 18  1  1  0  0  0
 20 24  1  6  0  0  0
 20 19  1  0  0  0  0
 20 22  1  0  0  0  0
 21 22  2  0  0  0  0
 22 23  1  0  0  0  0
 26 25  1  1  0  0  0
 26 27  1  0  0  0  0
 26 24  1  0  0  0  0
 27 29  2  0  0  0  0
 28 27  1  0  0  0  0
 31 32  1  0  0  0  0
 32 30  1  0  0  0  0
M  END
>  <MODEL>
5

>  <REMARK>
 VINA RESULT:      -5.3      4.006      6.507
  Name = 
  9 active torsions:
  status: ('A' for Active; 'I' for Inactive)
    1  A    between atoms: C_1  and  C_27
    2  A    between atoms: C_7  and  C_15
    3  A    between atoms: C_11  and  C_12
    4  A    between atoms: C_11  and  C_31
    5  A    between atoms: C_13  and  C_29
    6  A    between atoms: C_15  and  C_20
    7  A    between atoms: C_16  and  C_20
    8  A    between atoms: C_16  and  C_22
    9  A    between atoms: C_16  and  C_27
                            x       y       z     vdW  Elec       q    Type
                         _______ _______ _______ _____ _____    ______ ____

>  <TORSDO>
F 9

$$$$
=
 OpenBabel11052414303D

 32 34  0  0  1  0  0  0  0  0999 V2000
  190.1580  177.4660  138.8330 C   0  0  1  0  0  3  0  0  0  0  0  0
  190.3030  176.9670  141.2160 O   0  0  0  0  0  0  0  0  0  0  0  0
  189.4380  178.3310  137.7940 C   0  0  0  0  0  2  0  0  0  0  0  0
  189.6680  177.7930  140.2590 C   0  0  2  0  0  3  0  0  0  0  0  0
  190.0290  177.4340  142.5270 C   0  0  1  0  0  0  0  0  0  0  0  0
  190.9970  178.9060  144.2060 C   0  0  2  0  0  3  0  0  0  0  0  0
  191.2810  177.4790  144.6410 C   0  0  2  0  0  3  0  0  0  0  0  0
  188.1380  177.7160  140.3710 C   0  0  1  0  0  3  0  0  0  0  0  0
  190.8000  176.5740  143.5210 C   0  0  0  0  0  2  0  0  0  0  0  0
  187.7130  178.1460  141.7680 C   0  0  0  0  0  2  0  0  0  0  0  0
  187.4860  178.6300  139.3390 C   0  0  0  0  0  2  0  0  0  0  0  0
  190.5810  178.8400  142.7540 C   0  0  0  0  0  2  0  0  0  0  0  0
  188.5070  177.3850  142.8340 C   0  0  1  0  0  3  0  0  0  0  0  0
  187.9190  178.2280  137.9320 C   0  0  0  0  0  2  0  0  0  0  0  0
  192.2450  179.7530  144.3430 C   0  0  0  0  0  1  0  0  0  0  0  0
  187.9690  175.9870  143.0020 C   0  0  0  0  0  3  0  0  0  0  0  0
  187.0770  175.7410  143.8000 O   0  0  0  0  0  0  0  0  0  0  0  0
  191.1530  175.2700  139.0950 O   0  0  0  0  0  1  0  0  0  0  0  0
  190.1360  175.9740  138.4430 C   0  0  2  0  0  3  0  0  0  0  0  0
  190.2270  175.7730  136.9250 C   0  0  2  0  0  3  0  0  0  0  0  0
  188.3270  175.5170  135.5050 O   0  0  0  0  0  0  0  0  0  0  0  0
  189.0470  175.0130  136.4060 C   0  0  0  0  0  0  0  0  0  0  0  0
  188.7410  173.7550  136.9120 O   0  0  0  0  0  1  0  0  0  0  0  0
  191.5110  175.0460  136.5470 C   0  0  0  0  0  2  0  0  0  0  0  0
  192.9300  175.5010  134.6700 O   0  0  0  0  0  1  0  0  0  0  0  0
  192.4940  176.0080  135.8970 C   0  0  2  0  0  3  0  0  0  0  0  0
  193.6590  176.2300  136.8010 C   0  0  0  0  0  0  0  0  0  0  0  0
  194.9090  175.6200  136.5000 N   0  0  0  0  0  1  0  0  0  0  0  0
  193.5550  176.9810  137.8070 O   0  0  0  0  0  0  0  0  0  0  0  0
  190.5180  177.1530  145.9180 C   0  0  0  0  0  2  0  0  0  0  0  0
  188.1420  177.4980  146.5990 C   0  0  0  0  0  1  0  0  0  0  0  0
  189.4340  178.1830  146.1950 C   0  0  0  0  0  2  0  0  0  0  0  0
  1 19  1  6  0  0  0
  1  4  1  0  0  0  0
  2  5  1  0  0  0  0
  3 14  1  0  0  0  0
  3  1  1  0  0  0  0
  4  8  1  0  0  0  0
  4  2  1  1  0  0  0
  5 12  1  1  0  0  0
  5 13  1  0  0  0  0
  5  9  1  0  0  0  0
  6 15  1  6  0  0  0
  6  7  1  0  0  0  0
  7 30  1  1  0  0  0
  8 11  1  6  0  0  0
  8 10  1  0  0  0  0
  9  7  1  0  0  0  0
 10 13  1  0  0  0  0
 12  6  1  0  0  0  0
 13 16  1  6  0  0  0
 14 11  1  0  0  0  0
 16 17  2  0  0  0  0
 19 18  1  1  0  0  0
 20 24  1  1  0  0  0
 20 19  1  0  0  0  0
 21 22  2  0  0  0  0
 22 23  1  0  0  0  0
 22 20  1  0  0  0  0
 26 25  1  6  0  0  0
 26 24  1  0  0  0  0
 26 27  1  0  0  0  0
 27 29  2  0  0  0  0
 28 27  1  0  0  0  0
 30 32  1  0  0  0  0
 32 31  1  0  0  0  0
M  END
>  <MODEL>
6

>  <REMARK>
 VINA RESULT:      -5.3      4.906      9.233
  Name = 
  9 active torsions:
  status: ('A' for Active; 'I' for Inactive)
    1  A    between atoms: C_1  and  C_27
    2  A    between atoms: C_7  and  C_15
    3  A    between atoms: C_11  and  C_12
    4  A    between atoms: C_11  and  C_31
    5  A    between atoms: C_13  and  C_29
    6  A    between atoms: C_15  and  C_20
    7  A    between atoms: C_16  and  C_20
    8  A    between atoms: C_16  and  C_22
    9  A    between atoms: C_16  and  C_27
                            x       y       z     vdW  Elec       q    Type
                         _______ _______ _______ _____ _____    ______ ____

>  <TORSDO>
F 9

$$$$
=
 OpenBabel11052414303D

 32 34  0  0  1  0  0  0  0  0999 V2000
  188.8520  177.0890  138.7580 C   0  0  1  0  0  3  0  0  0  0  0  0
  188.5090  174.9990  137.5470 O   0  0  0  0  0  0  0  0  0  0  0  0
  188.5280  178.5860  138.7530 C   0  0  0  0  0  2  0  0  0  0  0  0
  188.1780  176.3750  137.5670 C   0  0  2  0  0  3  0  0  0  0  0  0
  187.7030  174.3130  136.6020 C   0  0  1  0  0  0  0  0  0  0  0  0
  185.6070  173.0800  136.5100 C   0  0  2  0  0  3  0  0  0  0  0  0
  186.7320  172.0600  136.4740 C   0  0  2  0  0  3  0  0  0  0  0  0
  188.5080  177.0560  136.2300 C   0  0  1  0  0  3  0  0  0  0  0  0
  188.0270  172.8270  136.6750 C   0  0  0  0  0  2  0  0  0  0  0  0
  187.7370  176.3680  135.1110 C   0  0  0  0  0  2  0  0  0  0  0  0
  188.1240  178.5300  136.2790 C   0  0  0  0  0  2  0  0  0  0  0  0
  186.2210  174.3840  136.9670 C   0  0  0  0  0  2  0  0  0  0  0  0
  187.9410  174.8510  135.1650 C   0  0  1  0  0  3  0  0  0  0  0  0
  188.8710  179.2310  137.4100 C   0  0  0  0  0  2  0  0  0  0  0  0
  184.5380  172.6450  137.4920 C   0  0  0  0  0  1  0  0  0  0  0  0
  189.2850  174.4740  134.5940 C   0  0  0  0  0  3  0  0  0  0  0  0
  190.3040  175.0570  134.9310 O   0  0  0  0  0  0  0  0  0  0  0  0
  190.6530  175.4700  138.8610 O   0  0  0  0  0  1  0  0  0  0  0  0
  190.3630  176.8360  138.9230 C   0  0  2  0  0  3  0  0  0  0  0  0
  190.9130  177.4470  140.2170 C   0  0  2  0  0  3  0  0  0  0  0  0
  192.9510  177.1640  141.4240 O   0  0  0  0  0  1  0  0  0  0  0  0
  192.4000  177.2980  140.3010 C   0  0  0  0  0  0  0  0  0  0  0  0
  193.1750  177.3080  139.1470 O   0  0  0  0  0  0  0  0  0  0  0  0
  190.2650  176.8100  141.4400 C   0  0  0  0  0  2  0  0  0  0  0  0
  190.3290  178.0150  143.5100 O   0  0  0  0  0  1  0  0  0  0  0  0
  189.6200  177.8740  142.3140 C   0  0  2  0  0  3  0  0  0  0  0  0
  188.2040  177.5050  142.6010 C   0  0  0  0  0  0  0  0  0  0  0  0
  187.9230  176.3810  143.4280 N   0  0  0  0  0  1  0  0  0  0  0  0
  187.2570  178.2010  142.1480 O   0  0  0  0  0  0  0  0  0  0  0  0
  186.7650  171.3550  135.1250 C   0  0  0  0  0  2  0  0  0  0  0  0
  188.8640  170.0430  134.8080 C   0  0  0  0  0  1  0  0  0  0  0  0
  187.4090  169.9810  135.2320 C   0  0  0  0  0  2  0  0  0  0  0  0
  1 19  1  6  0  0  0
  3  1  1  0  0  0  0
  4  2  1  6  0  0  0
  4  1  1  0  0  0  0
  5  9  1  1  0  0  0
  5 12  1  0  0  0  0
  5  2  1  0  0  0  0
  6 12  1  0  0  0  0
  6 15  1  1  0  0  0
  7 30  1  6  0  0  0
  7  6  1  0  0  0  0
  7  9  1  0  0  0  0
  8 10  1  6  0  0  0
  8 11  1  0  0  0  0
  8  4  1  0  0  0  0
 10 13  1  0  0  0  0
 11 14  1  0  0  0  0
 13 16  1  1  0  0  0
 13  5  1  0  0  0  0
 14  3  1  0  0  0  0
 16 17  2  0  0  0  0
 19 18  1  1  0  0  0
 19 20  1  0  0  0  0
 20 22  1  0  0  0  0
 20 24  1  1  0  0  0
 22 21  1  0  0  0  0
 23 22  2  0  0  0  0
 24 26  1  0  0  0  0
 26 27  1  0  0  0  0
 26 25  1  1  0  0  0
 27 28  1  0  0  0  0
 29 27  2  0  0  0  0
 30 32  1  0  0  0  0
 31 32  1  0  0  0  0
M  END
>  <MODEL>
7

>  <REMARK>
 VINA RESULT:      -5.0      4.614      6.700
  Name = 
  9 active torsions:
  status: ('A' for Active; 'I' for Inactive)
    1  A    between atoms: C_1  and  C_27
    2  A    between atoms: C_7  and  C_15
    3  A    between atoms: C_11  and  C_12
    4  A    between atoms: C_11  and  C_31
    5  A    between atoms: C_13  and  C_29
    6  A    between atoms: C_15  and  C_20
    7  A    between atoms: C_16  and  C_20
    8  A    between atoms: C_16  and  C_22
    9  A    between atoms: C_16  and  C_27
                            x       y       z     vdW  Elec       q    Type
                         _______ _______ _______ _____ _____    ______ ____

>  <TORSDO>
F 9

$$$$
=
 OpenBabel11052414303D

 32 34  0  0  1  0  0  0  0  0999 V2000
  181.9140  176.8060  138.1060 C   0  0  1  0  0  3  0  0  0  0  0  0
  183.7910  175.3090  137.6730 O   0  0  0  0  0  0  0  0  0  0  0  0
  180.8010  177.6160  137.4350 C   0  0  0  0  0  2  0  0  0  0  0  0
  182.7380  176.0270  137.0590 C   0  0  2  0  0  3  0  0  0  0  0  0
  184.3850  174.4170  136.7440 C   0  0  1  0  0  0  0  0  0  0  0  0
  184.1880  172.1040  136.0150 C   0  0  2  0  0  3  0  0  0  0  0  0
  185.4170  172.1920  136.9030 C   0  0  2  0  0  3  0  0  0  0  0  0
  183.2550  176.9440  135.9400 C   0  0  1  0  0  3  0  0  0  0  0  0
  185.4510  173.6030  137.4660 C   0  0  0  0  0  2  0  0  0  0  0  0
  183.9710  176.1030  134.8910 C   0  0  0  0  0  2  0  0  0  0  0  0
  182.0950  177.6880  135.2890 C   0  0  0  0  0  2  0  0  0  0  0  0
  183.3910  173.3670  136.2530 C   0  0  0  0  0  2  0  0  0  0  0  0
  185.0080  175.1860  135.5470 C   0  0  1  0  0  3  0  0  0  0  0  0
  181.3520  178.5190  136.3300 C   0  0  0  0  0  2  0  0  0  0  0  0
  183.3570  170.8950  136.3930 C   0  0  0  0  0  1  0  0  0  0  0  0
  186.2510  175.9600  135.9070 C   0  0  0  0  0  3  0  0  0  0  0  0
  186.9010  176.5490  135.0560 O   0  0  0  0  0  0  0  0  0  0  0  0
  183.0550  176.9390  140.2410 O   0  0  0  0  0  1  0  0  0  0  0  0
  182.7270  177.6660  139.0930 C   0  0  2  0  0  3  0  0  0  0  0  0
  181.9970  178.9630  139.4660 C   0  0  2  0  0  3  0  0  0  0  0  0
  182.2030  181.2190  138.7190 O   0  0  0  0  0  0  0  0  0  0  0  0
  182.7950  180.1670  139.0760 C   0  0  0  0  0  0  0  0  0  0  0  0
  184.1850  180.1320  139.1050 O   0  0  0  0  0  1  0  0  0  0  0  0
  181.6950  179.0100  140.9580 C   0  0  0  0  0  2  0  0  0  0  0  0
  180.0570  180.4700  141.9200 O   0  0  0  0  0  1  0  0  0  0  0  0
  180.2180  179.2880  141.1920 C   0  0  2  0  0  3  0  0  0  0  0  0
  179.5970  178.1480  141.9260 C   0  0  0  0  0  0  0  0  0  0  0  0
  179.3710  176.9160  141.2500 N   0  0  0  0  0  1  0  0  0  0  0  0
  179.3020  178.2560  143.1460 O   0  0  0  0  0  0  0  0  0  0  0  0
  186.6790  171.9420  136.0880 C   0  0  0  0  0  2  0  0  0  0  0  0
  188.8250  173.2080  135.9670 C   0  0  0  0  0  1  0  0  0  0  0  0
  187.9240  172.3660  136.8500 C   0  0  0  0  0  2  0  0  0  0  0  0
  1 19  1  6  0  0  0
  3  1  1  0  0  0  0
  4  2  1  1  0  0  0
  4  1  1  0  0  0  0
  5 12  1  6  0  0  0
  5  9  1  0  0  0  0
  5  2  1  0  0  0  0
  6 12  1  0  0  0  0
  6 15  1  1  0  0  0
  6  7  1  0  0  0  0
  7 30  1  6  0  0  0
  7  9  1  0  0  0  0
  8 10  1  6  0  0  0
  8  4  1  0  0  0  0
 10 13  1  0  0  0  0
 11  8  1  0  0  0  0
 11 14  1  0  0  0  0
 13 16  1  1  0  0  0
 13  5  1  0  0  0  0
 14  3  1  0  0  0  0
 17 16  2  0  0  0  0
 19 20  1  0  0  0  0
 19 18  1  1  0  0  0
 20 24  1  1  0  0  0
 21 22  2  0  0  0  0
 22 23  1  0  0  0  0
 22 20  1  0  0  0  0
 24 26  1  0  0  0  0
 26 25  1  1  0  0  0
 26 27  1  0  0  0  0
 27 29  2  0  0  0  0
 28 27  1  0  0  0  0
 30 32  1  0  0  0  0
 31 32  1  0  0  0  0
M  END
>  <MODEL>
8

>  <REMARK>
 VINA RESULT:      -5.0      4.648      7.257
  Name = 
  9 active torsions:
  status: ('A' for Active; 'I' for Inactive)
    1  A    between atoms: C_1  and  C_27
    2  A    between atoms: C_7  and  C_15
    3  A    between atoms: C_11  and  C_12
    4  A    between atoms: C_11  and  C_31
    5  A    between atoms: C_13  and  C_29
    6  A    between atoms: C_15  and  C_20
    7  A    between atoms: C_16  and  C_20
    8  A    between atoms: C_16  and  C_22
    9  A    between atoms: C_16  and  C_27
                            x       y       z     vdW  Elec       q    Type
                         _______ _______ _______ _____ _____    ______ ____

>  <TORSDO>
F 9

$$$$
=
 OpenBabel11052414303D

 32 34  0  0  1  0  0  0  0  0999 V2000
  183.3030  177.9600  140.1590 C   0  0  1  0  0  3  0  0  0  0  0  0
  184.7390  176.8280  138.5430 O   0  0  0  0  0  0  0  0  0  0  0  0
  181.8960  178.5230  140.3770 C   0  0  0  0  0  2  0  0  0  0  0  0
  183.4280  177.3140  138.7630 C   0  0  2  0  0  3  0  0  0  0  0  0
  184.7780  176.0330  137.3700 C   0  0  1  0  0  0  0  0  0  0  0  0
  184.5700  173.7000  136.7090 C   0  0  2  0  0  3  0  0  0  0  0  0
  186.0470  174.0480  136.6700 C   0  0  2  0  0  3  0  0  0  0  0  0
  182.9860  178.2730  137.6470 C   0  0  1  0  0  3  0  0  0  0  0  0
  186.1810  175.4590  137.2190 C   0  0  0  0  0  2  0  0  0  0  0  0
  183.0360  177.5460  136.3090 C   0  0  0  0  0  2  0  0  0  0  0  0
  181.5650  178.7640  137.9040 C   0  0  0  0  0  2  0  0  0  0  0  0
  183.8870  174.7980  137.4930 C   0  0  0  0  0  2  0  0  0  0  0  0
  184.3940  176.8640  136.1150 C   0  0  1  0  0  3  0  0  0  0  0  0
  181.4900  179.4740  139.2510 C   0  0  0  0  0  2  0  0  0  0  0  0
  184.3650  172.3700  137.4050 C   0  0  0  0  0  1  0  0  0  0  0  0
  185.4420  177.8690  135.7120 C   0  0  0  0  0  3  0  0  0  0  0  0
  186.0530  177.7620  134.6590 O   0  0  0  0  0  0  0  0  0  0  0  0
  184.9310  179.5740  139.3700 O   0  0  0  0  0  1  0  0  0  0  0  0
  184.3900  178.9910  140.5200 C   0  0  2  0  0  3  0  0  0  0  0  0
  185.4980  178.3830  141.3880 C   0  0  2  0  0  3  0  0  0  0  0  0
  185.8170  177.8390  143.6890 O   0  0  0  0  0  1  0  0  0  0  0  0
  185.1900  178.5310  142.8460 C   0  0  0  0  0  0  0  0  0  0  0  0
  184.2150  179.4260  143.2730 O   0  0  0  0  0  0  0  0  0  0  0  0
  186.8460  179.0230  141.0820 C   0  0  0  0  0  2  0  0  0  0  0  0
  188.8340  177.9990  141.9410 O   0  0  0  0  0  1  0  0  0  0  0  0
  187.9100  177.9540  140.8940 C   0  0  2  0  0  3  0  0  0  0  0  0
  188.6070  178.1570  139.5910 C   0  0  0  0  0  0  0  0  0  0  0  0
  189.9810  177.8060  139.4650 N   0  0  0  0  0  1  0  0  0  0  0  0
  187.9820  178.6020  138.5920 O   0  0  0  0  0  0  0  0  0  0  0  0
  186.5630  174.0120  135.2380 C   0  0  0  0  0  2  0  0  0  0  0  0
  187.9770  172.2600  136.3140 C   0  0  0  0  0  1  0  0  0  0  0  0
  187.8440  173.1990  135.1300 C   0  0  0  0  0  2  0  0  0  0  0  0
  1  3  1  0  0  0  0
  1 19  1  6  0  0  0
  4  2  1  6  0  0  0
  4  1  1  0  0  0  0
  5  9  1  6  0  0  0
  5 12  1  0  0  0  0
  5  2  1  0  0  0  0
  6 15  1  1  0  0  0
  6 12  1  0  0  0  0
  7 30  1  6  0  0  0
  7  6  1  0  0  0  0
  7  9  1  0  0  0  0
  8 10  1  6  0  0  0
  8 11  1  0  0  0  0
  8  4  1  0  0  0  0
 11 14  1  0  0  0  0
 13 16  1  1  0  0  0
 13 10  1  0  0  0  0
 13  5  1  0  0  0  0
 14  3  1  0  0  0  0
 17 16  2  0  0  0  0
 19 18  1  6  0  0  0
 19 20  1  0  0  0  0
 20 24  1  1  0  0  0
 20 22  1  0  0  0  0
 22 23  2  0  0  0  0
 22 21  1  0  0  0  0
 26 24  1  0  0  0  0
 26 25  1  1  0  0  0
 27 26  1  0  0  0  0
 28 27  1  0  0  0  0
 29 27  2  0  0  0  0
 32 30  1  0  0  0  0
 32 31  1  0  0  0  0
M  END
>  <MODEL>
9

>  <REMARK>
 VINA RESULT:      -4.8      3.179      5.963
  Name = 
  9 active torsions:
  status: ('A' for Active; 'I' for Inactive)
    1  A    between atoms: C_1  and  C_27
    2  A    between atoms: C_7  and  C_15
    3  A    between atoms: C_11  and  C_12
    4  A    between atoms: C_11  and  C_31
    5  A    between atoms: C_13  and  C_29
    6  A    between atoms: C_15  and  C_20
    7  A    between atoms: C_16  and  C_20
    8  A    between atoms: C_16  and  C_22
    9  A    between atoms: C_16  and  C_27
                            x       y       z     vdW  Elec       q    Type
                         _______ _______ _______ _____ _____    ______ ____

>  <TORSDO>
F 9

$$$$
