=
 OpenBabel11052414423D

 32 36  0  0  1  0  0  0  0  0999 V2000
  185.1910  178.5300  143.4330 C   0  0  0  0  0  3  0  0  0  0  0  0
  185.1940  178.6360  144.8310 C   0  0  0  0  0  0  0  0  0  0  0  0
  183.9950  178.6280  142.7180 C   0  0  0  0  0  0  0  0  0  0  0  0
  182.7840  178.8290  143.4060 C   0  0  0  0  0  0  0  0  0  0  0  0
  182.7900  178.9370  144.8010 C   0  0  0  0  0  3  0  0  0  0  0  0
  183.9900  178.8390  145.5110 C   0  0  0  0  0  3  0  0  0  0  0  0
  184.0240  178.5290  141.2960 N   0  0  0  0  0  0  0  0  0  0  0  0
  183.9360  179.1080  139.9220 C   0  0  1  0  0  3  0  0  0  0  0  0
  181.1000  175.4410  139.1000 C   0  0  0  0  0  2  0  0  0  0  0  0
  184.0700  177.7310  140.0320 C   0  0  2  0  0  3  0  0  0  0  0  0
  180.5820  177.9310  139.1790 C   0  0  0  0  0  2  0  0  0  0  0  0
  182.0050  178.1460  138.9690 N   0  0  1  0  0  0  0  0  0  0  0  0
  182.4770  179.3810  139.5550 C   0  0  0  0  0  2  0  0  0  0  0  0
  182.6920  177.1720  139.7800 C   0  0  1  0  0  3  0  0  0  0  0  0
  180.2120  176.5770  138.5500 C   0  0  0  0  0  2  0  0  0  0  0  0
  182.5910  175.8160  139.1120 C   0  0  0  0  0  2  0  0  0  0  0  0
  186.4710  178.5720  145.6140 C   0  0  1  0  0  3  0  0  0  0  0  0
  186.1840  178.5030  147.1020 C   0  0  0  0  0  1  0  0  0  0  0  0
  187.3390  177.3900  145.1980 C   0  0  0  0  0  2  0  0  0  0  0  0
  189.4550  177.2100  143.6650 C   0  0  2  0  0  0  0  0  0  0  0  0
  191.7740  176.5570  146.1890 O   0  0  0  0  0  0  0  0  0  0  0  0
  188.7000  176.0200  143.0890 C   0  0  0  0  0  1  0  0  0  0  0  0
  189.6340  177.5140  146.0510 N   0  0  0  0  0  2  0  0  0  0  0  0
  190.7200  176.7600  144.1330 O   0  0  0  0  0  0  0  0  0  0  0  0
  188.7740  177.8390  144.9240 C   0  0  2  0  0  3  0  0  0  0  0  0
  190.7860  176.9160  145.4980 C   0  0  0  0  0  0  0  0  0  0  0  0
  189.6400  178.2540  142.5700 C   0  0  0  0  0  2  0  0  0  0  0  0
  188.5160  178.3130  141.7450 O   0  0  0  0  0  1  0  0  0  0  0  0
  181.4910  178.9690  142.6770 C   0  0  0  0  0  2  0  0  0  0  0  0
  180.1120  178.5250  143.7710 S   0  0  0  0  0  0  0  0  0  0  0  0
  179.1970  180.0270  143.3290 C   0  0  0  0  0  2  0  0  0  0  0  0
  179.5950  180.4680  141.9380 C   0  0  0  0  0  1  0  0  0  0  0  0
  1  2  1  0  0  0  0
  2  6  2  0  0  0  0
  2 17  1  0  0  0  0
  3  4  1  0  0  0  0
  3  1  2  0  0  0  0
  4  5  2  0  0  0  0
  5  6  1  0  0  0  0
  7  3  1  0  0  0  0
  8 13  1  1  0  0  0
  8 10  1  0  0  0  0
  8  7  1  0  0  0  0
  9 16  1  0  0  0  0
 10  7  1  1  0  0  0
 12 11  1  1  0  0  0
 12 13  1  0  0  0  0
 12 14  1  0  0  0  0
 14 16  1  6  0  0  0
 14 10  1  0  0  0  0
 15  9  1  0  0  0  0
 15 11  1  0  0  0  0
 17 18  1  1  0  0  0
 19 17  1  0  0  0  0
 20 22  1  6  0  0  0
 20 24  1  0  0  0  0
 20 25  1  0  0  0  0
 24 26  1  0  0  0  0
 25 19  1  1  0  0  0
 25 23  1  0  0  0  0
 26 23  1  0  0  0  0
 26 21  2  0  0  0  0
 27 20  1  0  0  0  0
 28 27  1  0  0  0  0
 29  4  1  0  0  0  0
 29 30  1  0  0  0  0
 31 30  1  0  0  0  0
 32 31  1  0  0  0  0
M  END
>  <MODEL>
1

>  <REMARK>
 VINA RESULT:      -8.4      0.000      0.000
  Name = 
  8 active torsions:
  status: ('A' for Active; 'I' for Inactive)
    1  A    between atoms: N_2  and  C_5
    2  A    between atoms: C_3  and  C_22
    3  A    between atoms: C_4  and  C_24
    4  A    between atoms: C_13  and  S_29
    5  A    between atoms: C_14  and  C_18
    6  A    between atoms: C_16  and  C_20
    7  A    between atoms: C_16  and  C_24
    8  A    between atoms: C_18  and  S_29
                            x       y       z     vdW  Elec       q    Type
                         _______ _______ _______ _____ _____    ______ ____

>  <TORSDO>
F 8

$$$$
=
 OpenBabel11052414423D

 32 36  0  0  1  0  0  0  0  0999 V2000
  183.7580  178.8020  144.1440 C   0  0  0  0  0  3  0  0  0  0  0  0
  185.1420  178.5830  144.1720 C   0  0  0  0  0  0  0  0  0  0  0  0
  183.0600  178.7650  142.9350 C   0  0  0  0  0  0  0  0  0  0  0  0
  183.7520  178.5130  141.7360 C   0  0  0  0  0  0  0  0  0  0  0  0
  185.1330  178.2930  141.7660 C   0  0  0  0  0  3  0  0  0  0  0  0
  185.8260  178.3290  142.9790 C   0  0  0  0  0  3  0  0  0  0  0  0
  181.6500  178.9800  142.9380 N   0  0  0  0  0  0  0  0  0  0  0  0
  180.2360  178.5130  143.0560 C   0  0  1  0  0  3  0  0  0  0  0  0
  179.5890  181.0950  139.1730 C   0  0  0  0  0  2  0  0  0  0  0  0
  180.4490  179.8440  142.7270 C   0  0  2  0  0  3  0  0  0  0  0  0
  179.4730  178.5750  139.5060 C   0  0  0  0  0  2  0  0  0  0  0  0
  179.2930  178.8580  140.9220 N   0  0  1  0  0  0  0  0  0  0  0  0
  179.8030  177.8050  141.7710 C   0  0  0  0  0  2  0  0  0  0  0  0
  180.1940  179.9360  141.2430 C   0  0  1  0  0  3  0  0  0  0  0  0
  178.9310  179.7760  138.7130 C   0  0  0  0  0  2  0  0  0  0  0  0
  179.6210  181.2320  140.7030 C   0  0  0  0  0  2  0  0  0  0  0  0
  185.9040  178.5790  145.4630 C   0  0  1  0  0  3  0  0  0  0  0  0
  184.9540  178.5900  146.6460 C   0  0  0  0  0  1  0  0  0  0  0  0
  186.8470  177.3870  145.5680 C   0  0  0  0  0  2  0  0  0  0  0  0
  189.2430  177.3550  144.5090 C   0  0  2  0  0  0  0  0  0  0  0  0
  190.9830  176.4070  147.3800 O   0  0  0  0  0  0  0  0  0  0  0  0
  188.6430  176.2420  143.6590 C   0  0  0  0  0  1  0  0  0  0  0  0
  188.9080  177.3930  146.8970 N   0  0  0  0  0  2  0  0  0  0  0  0
  190.3850  176.8440  145.1820 O   0  0  0  0  0  0  0  0  0  0  0  0
  188.3020  177.8490  145.6550 C   0  0  2  0  0  3  0  0  0  0  0  0
  190.1590  176.8480  146.5390 C   0  0  0  0  0  0  0  0  0  0  0  0
  189.6410  178.5100  143.5980 C   0  0  0  0  0  2  0  0  0  0  0  0
  189.6380  178.1130  142.2600 O   0  0  0  0  0  1  0  0  0  0  0  0
  183.0370  178.4370  140.4290 C   0  0  0  0  0  2  0  0  0  0  0  0
  183.9660  179.3470  139.1610 S   0  0  0  0  0  0  0  0  0  0  0  0
  184.0580  177.8860  138.0920 C   0  0  0  0  0  2  0  0  0  0  0  0
  185.4800  177.7080  137.6050 C   0  0  0  0  0  1  0  0  0  0  0  0
  1  2  1  0  0  0  0
  2 17  1  0  0  0  0
  3  7  1  0  0  0  0
  3  1  2  0  0  0  0
  4  5  2  0  0  0  0
  4  3  1  0  0  0  0
  5  6  1  0  0  0  0
  6  2  2  0  0  0  0
  7  8  1  0  0  0  0
  8 13  1  6  0  0  0
  9 16  1  0  0  0  0
 10  7  1  6  0  0  0
 10  8  1  0  0  0  0
 12 11  1  6  0  0  0
 12 14  1  0  0  0  0
 12 13  1  0  0  0  0
 14 16  1  1  0  0  0
 14 10  1  0  0  0  0
 15  9  1  0  0  0  0
 15 11  1  0  0  0  0
 17 19  1  0  0  0  0
 17 18  1  1  0  0  0
 20 22  1  6  0  0  0
 20 24  1  0  0  0  0
 20 25  1  0  0  0  0
 24 26  1  0  0  0  0
 25 19  1  6  0  0  0
 25 23  1  0  0  0  0
 26 23  1  0  0  0  0
 26 21  2  0  0  0  0
 27 20  1  0  0  0  0
 28 27  1  0  0  0  0
 29  4  1  0  0  0  0
 30 29  1  0  0  0  0
 31 30  1  0  0  0  0
 32 31  1  0  0  0  0
M  END
>  <MODEL>
2

>  <REMARK>
 VINA RESULT:      -8.1      1.914      3.515
  Name = 
  8 active torsions:
  status: ('A' for Active; 'I' for Inactive)
    1  A    between atoms: N_2  and  C_5
    2  A    between atoms: C_3  and  C_22
    3  A    between atoms: C_4  and  C_24
    4  A    between atoms: C_13  and  S_29
    5  A    between atoms: C_14  and  C_18
    6  A    between atoms: C_16  and  C_20
    7  A    between atoms: C_16  and  C_24
    8  A    between atoms: C_18  and  S_29
                            x       y       z     vdW  Elec       q    Type
                         _______ _______ _______ _____ _____    ______ ____

>  <TORSDO>
F 8

$$$$
=
 OpenBabel11052414423D

 32 36  0  0  1  0  0  0  0  0999 V2000
  187.8780  177.8920  142.2790 C   0  0  0  0  0  3  0  0  0  0  0  0
  186.9940  178.0950  143.3480 C   0  0  0  0  0  0  0  0  0  0  0  0
  187.4480  178.0670  140.9620 C   0  0  0  0  0  0  0  0  0  0  0  0
  186.1170  178.4430  140.7060 C   0  0  0  0  0  0  0  0  0  0  0  0
  185.2360  178.6470  141.7740 C   0  0  0  0  0  3  0  0  0  0  0  0
  185.6720  178.4720  143.0900 C   0  0  0  0  0  3  0  0  0  0  0  0
  188.3730  177.8660  139.8950 N   0  0  0  0  0  0  0  0  0  0  0  0
  189.3650  178.3500  138.8890 C   0  0  1  0  0  3  0  0  0  0  0  0
  186.9200  175.6380  135.9180 C   0  0  0  0  0  2  0  0  0  0  0  0
  189.0210  177.0060  138.8580 C   0  0  2  0  0  3  0  0  0  0  0  0
  187.1650  178.1690  136.0050 C   0  0  0  0  0  2  0  0  0  0  0  0
  188.3670  177.9380  136.7920 N   0  0  1  0  0  0  0  0  0  0  0  0
  188.6460  179.0160  137.7150 C   0  0  0  0  0  2  0  0  0  0  0  0
  188.0620  176.8630  137.7030 C   0  0  1  0  0  3  0  0  0  0  0  0
  186.9540  176.9460  135.0980 C   0  0  0  0  0  2  0  0  0  0  0  0
  188.0660  175.5550  136.9380 C   0  0  0  0  0  2  0  0  0  0  0  0
  187.4450  177.9500  144.7700 C   0  0  1  0  0  3  0  0  0  0  0  0
  186.2810  177.5670  145.6650 C   0  0  0  0  0  1  0  0  0  0  0  0
  188.5670  176.9280  144.9140 C   0  0  0  0  0  2  0  0  0  0  0  0
  191.1500  177.3000  144.6910 C   0  0  2  0  0  0  0  0  0  0  0  0
  192.0080  176.4140  147.9550 O   0  0  0  0  0  0  0  0  0  0  0  0
  191.0300  176.1740  143.6730 C   0  0  0  0  0  1  0  0  0  0  0  0
  190.0700  177.1330  146.8410 N   0  0  0  0  0  2  0  0  0  0  0  0
  192.0820  176.9090  145.6900 O   0  0  0  0  0  0  0  0  0  0  0  0
  189.8290  177.5810  145.4770 C   0  0  2  0  0  3  0  0  0  0  0  0
  191.4380  176.7920  146.8990 C   0  0  0  0  0  0  0  0  0  0  0  0
  191.6360  178.5570  143.9800 C   0  0  0  0  0  2  0  0  0  0  0  0
  190.6690  179.5620  144.0280 O   0  0  0  0  0  1  0  0  0  0  0  0
  185.6280  178.6680  139.3150 C   0  0  0  0  0  2  0  0  0  0  0  0
  183.9800  179.4280  139.3530 S   0  0  0  0  0  0  0  0  0  0  0  0
  183.3690  178.3160  138.0580 C   0  0  0  0  0  2  0  0  0  0  0  0
  184.2350  177.0760  138.0090 C   0  0  0  0  0  1  0  0  0  0  0  0
  1  2  1  0  0  0  0
  2 17  1  0  0  0  0
  3  1  2  0  0  0  0
  4  3  1  0  0  0  0
  4  5  2  0  0  0  0
  5  6  1  0  0  0  0
  6  2  2  0  0  0  0
  7  3  1  0  0  0  0
  8 13  1  6  0  0  0
  8  7  1  0  0  0  0
  9 16  1  0  0  0  0
 10  8  1  0  0  0  0
 10  7  1  1  0  0  0
 12 11  1  6  0  0  0
 12 14  1  0  0  0  0
 12 13  1  0  0  0  0
 14 16  1  6  0  0  0
 14 10  1  0  0  0  0
 15  9  1  0  0  0  0
 15 11  1  0  0  0  0
 17 19  1  0  0  0  0
 17 18  1  1  0  0  0
 20 22  1  6  0  0  0
 20 25  1  0  0  0  0
 20 24  1  0  0  0  0
 23 26  1  0  0  0  0
 24 26  1  0  0  0  0
 25 19  1  6  0  0  0
 25 23  1  0  0  0  0
 26 21  2  0  0  0  0
 27 28  1  0  0  0  0
 27 20  1  0  0  0  0
 29 30  1  0  0  0  0
 29  4  1  0  0  0  0
 31 30  1  0  0  0  0
 32 31  1  0  0  0  0
M  END
>  <MODEL>
3

>  <REMARK>
 VINA RESULT:      -8.0      3.328      4.569
  Name = 
  8 active torsions:
  status: ('A' for Active; 'I' for Inactive)
    1  A    between atoms: N_2  and  C_5
    2  A    between atoms: C_3  and  C_22
    3  A    between atoms: C_4  and  C_24
    4  A    between atoms: C_13  and  S_29
    5  A    between atoms: C_14  and  C_18
    6  A    between atoms: C_16  and  C_20
    7  A    between atoms: C_16  and  C_24
    8  A    between atoms: C_18  and  S_29
                            x       y       z     vdW  Elec       q    Type
                         _______ _______ _______ _____ _____    ______ ____

>  <TORSDO>
F 8

$$$$
=
 OpenBabel11052414423D

 32 36  0  0  1  0  0  0  0  0999 V2000
  187.1570  177.8350  141.8660 C   0  0  0  0  0  3  0  0  0  0  0  0
  186.4440  177.8150  143.0740 C   0  0  0  0  0  0  0  0  0  0  0  0
  188.4240  177.2550  141.7830 C   0  0  0  0  0  0  0  0  0  0  0  0
  188.9940  176.6530  142.9200 C   0  0  0  0  0  0  0  0  0  0  0  0
  188.2810  176.6320  144.1230 C   0  0  0  0  0  3  0  0  0  0  0  0
  187.0120  177.2120  144.2010 C   0  0  0  0  0  3  0  0  0  0  0  0
  189.1210  177.2800  140.5380 N   0  0  0  0  0  0  0  0  0  0  0  0
  189.9290  177.9600  139.4830 C   0  0  1  0  0  3  0  0  0  0  0  0
  186.8320  175.9800  136.5420 C   0  0  0  0  0  2  0  0  0  0  0  0
  189.5160  176.6580  139.2380 C   0  0  2  0  0  3  0  0  0  0  0  0
  187.2210  178.4300  137.1100 C   0  0  0  0  0  2  0  0  0  0  0  0
  188.5350  178.0220  137.5810 N   0  0  1  0  0  0  0  0  0  0  0  0
  189.0390  178.8710  138.6370 C   0  0  0  0  0  2  0  0  0  0  0  0
  188.3510  176.7780  138.2870 C   0  0  1  0  0  3  0  0  0  0  0  0
  186.7800  177.4330  136.0250 C   0  0  0  0  0  2  0  0  0  0  0  0
  188.1440  175.6660  137.2790 C   0  0  0  0  0  2  0  0  0  0  0  0
  185.0670  178.3970  143.1750 C   0  0  1  0  0  3  0  0  0  0  0  0
  184.9960  179.4140  144.2990 C   0  0  0  0  0  1  0  0  0  0  0  0
  184.6190  179.0390  141.8680 C   0  0  0  0  0  2  0  0  0  0  0  0
  183.1290  178.5160  139.7770 C   0  0  2  0  0  0  0  0  0  0  0  0
  180.0670  179.4300  141.1780 O   0  0  0  0  0  0  0  0  0  0  0  0
  183.9630  179.6230  139.1460 C   0  0  0  0  0  1  0  0  0  0  0  0
  182.1810  178.7950  141.9780 N   0  0  0  0  0  2  0  0  0  0  0  0
  181.7570  178.8780  139.6890 O   0  0  0  0  0  0  0  0  0  0  0  0
  183.3860  178.3290  141.3080 C   0  0  2  0  0  3  0  0  0  0  0  0
  181.2480  179.0600  140.9530 C   0  0  0  0  0  0  0  0  0  0  0  0
  183.3810  177.2170  139.0220 C   0  0  0  0  0  2  0  0  0  0  0  0
  182.7680  176.1400  139.6640 O   0  0  0  0  0  1  0  0  0  0  0  0
  190.3330  175.9970  142.8630 C   0  0  0  0  0  2  0  0  0  0  0  0
  191.3670  176.5810  144.2360 S   0  0  0  0  0  0  0  0  0  0  0  0
  191.7840  178.1090  143.3540 C   0  0  0  0  0  2  0  0  0  0  0  0
  191.1030  179.2810  144.0260 C   0  0  0  0  0  1  0  0  0  0  0  0
  1  2  1  0  0  0  0
  2 17  1  0  0  0  0
  2  6  2  0  0  0  0
  3  1  2  0  0  0  0
  3  4  1  0  0  0  0
  4  5  2  0  0  0  0
  5  6  1  0  0  0  0
  7  3  1  0  0  0  0
  8 13  1  6  0  0  0
  8  7  1  0  0  0  0
  9 16  1  0  0  0  0
 10  8  1  0  0  0  0
 10  7  1  1  0  0  0
 12 11  1  1  0  0  0
 12 14  1  0  0  0  0
 12 13  1  0  0  0  0
 14 16  1  6  0  0  0
 14 10  1  0  0  0  0
 15  9  1  0  0  0  0
 15 11  1  0  0  0  0
 17 18  1  1  0  0  0
 19 17  1  0  0  0  0
 20 22  1  6  0  0  0
 20 25  1  0  0  0  0
 24 20  1  0  0  0  0
 24 26  1  0  0  0  0
 25 19  1  1  0  0  0
 25 23  1  0  0  0  0
 26 21  2  0  0  0  0
 26 23  1  0  0  0  0
 27 28  1  0  0  0  0
 27 20  1  0  0  0  0
 29  4  1  0  0  0  0
 29 30  1  0  0  0  0
 31 32  1  0  0  0  0
 31 30  1  0  0  0  0
M  END
>  <MODEL>
4

>  <REMARK>
 VINA RESULT:      -8.0      4.173      7.474
  Name = 
  8 active torsions:
  status: ('A' for Active; 'I' for Inactive)
    1  A    between atoms: N_2  and  C_5
    2  A    between atoms: C_3  and  C_22
    3  A    between atoms: C_4  and  C_24
    4  A    between atoms: C_13  and  S_29
    5  A    between atoms: C_14  and  C_18
    6  A    between atoms: C_16  and  C_20
    7  A    between atoms: C_16  and  C_24
    8  A    between atoms: C_18  and  S_29
                            x       y       z     vdW  Elec       q    Type
                         _______ _______ _______ _____ _____    ______ ____

>  <TORSDO>
F 8

$$$$
=
 OpenBabel11052414423D

 32 36  0  0  1  0  0  0  0  0999 V2000
  184.6780  178.4290  142.7900 C   0  0  0  0  0  3  0  0  0  0  0  0
  184.4640  178.6000  144.1650 C   0  0  0  0  0  0  0  0  0  0  0  0
  183.6160  178.5410  141.8900 C   0  0  0  0  0  0  0  0  0  0  0  0
  182.3220  178.8220  142.3660 C   0  0  0  0  0  0  0  0  0  0  0  0
  182.1110  178.9940  143.7380 C   0  0  0  0  0  3  0  0  0  0  0  0
  183.1780  178.8830  144.6350 C   0  0  0  0  0  3  0  0  0  0  0  0
  183.8650  178.3740  140.4950 N   0  0  0  0  0  0  0  0  0  0  0  0
  184.1470  178.8970  139.1250 C   0  0  1  0  0  3  0  0  0  0  0  0
  180.7410  175.9150  137.8320 C   0  0  0  0  0  2  0  0  0  0  0  0
  183.9460  177.5300  139.2640 C   0  0  2  0  0  3  0  0  0  0  0  0
  180.7930  178.4590  137.8050 C   0  0  0  0  0  2  0  0  0  0  0  0
  182.2420  178.3440  137.8490 N   0  0  1  0  0  0  0  0  0  0  0  0
  182.8720  179.4690  138.5030 C   0  0  0  0  0  2  0  0  0  0  0  0
  182.5410  177.2800  138.7740 C   0  0  1  0  0  3  0  0  0  0  0  0
  180.2400  177.1940  137.1270 C   0  0  0  0  0  2  0  0  0  0  0  0
  182.2530  175.9510  138.1050 C   0  0  0  0  0  2  0  0  0  0  0  0
  185.5960  178.5220  145.1440 C   0  0  1  0  0  3  0  0  0  0  0  0
  185.0720  178.3240  146.5550 C   0  0  0  0  0  1  0  0  0  0  0  0
  186.5790  177.4100  144.7970 C   0  0  0  0  0  2  0  0  0  0  0  0
  189.0090  177.2550  143.8320 C   0  0  2  0  0  0  0  0  0  0  0  0
  190.6720  176.9010  146.8790 O   0  0  0  0  0  0  0  0  0  0  0  0
  188.4650  175.9890  143.1850 C   0  0  0  0  0  1  0  0  0  0  0  0
  188.5920  177.7210  146.1610 N   0  0  0  0  0  2  0  0  0  0  0  0
  190.1390  176.9100  144.6210 O   0  0  0  0  0  0  0  0  0  0  0  0
  188.0180  177.9230  144.8390 C   0  0  2  0  0  3  0  0  0  0  0  0
  189.8670  177.1570  145.9460 C   0  0  0  0  0  0  0  0  0  0  0  0
  189.4110  178.2350  142.7360 C   0  0  0  0  0  2  0  0  0  0  0  0
  189.5170  177.5870  141.5040 O   0  0  0  0  0  1  0  0  0  0  0  0
  181.1680  178.9780  141.4330 C   0  0  0  0  0  2  0  0  0  0  0  0
  179.6140  178.6470  142.3100 S   0  0  0  0  0  0  0  0  0  0  0  0
  178.9800  177.6460  140.9380 C   0  0  0  0  0  2  0  0  0  0  0  0
  179.4120  176.2080  141.1230 C   0  0  0  0  0  1  0  0  0  0  0  0
  1  2  1  0  0  0  0
  2  6  2  0  0  0  0
  2 17  1  0  0  0  0
  3  4  1  0  0  0  0
  3  1  2  0  0  0  0
  4  5  2  0  0  0  0
  5  6  1  0  0  0  0
  7  3  1  0  0  0  0
  8 13  1  6  0  0  0
  8 10  1  0  0  0  0
  8  7  1  0  0  0  0
  9 16  1  0  0  0  0
 10  7  1  1  0  0  0
 12 11  1  1  0  0  0
 12 13  1  0  0  0  0
 12 14  1  0  0  0  0
 14 16  1  6  0  0  0
 14 10  1  0  0  0  0
 15 11  1  0  0  0  0
 15  9  1  0  0  0  0
 17 18  1  1  0  0  0
 19 17  1  0  0  0  0
 20 22  1  6  0  0  0
 20 24  1  0  0  0  0
 20 25  1  0  0  0  0
 24 26  1  0  0  0  0
 25 19  1  1  0  0  0
 25 23  1  0  0  0  0
 26 23  1  0  0  0  0
 26 21  2  0  0  0  0
 27 20  1  0  0  0  0
 28 27  1  0  0  0  0
 29 30  1  0  0  0  0
 29  4  1  0  0  0  0
 31 32  1  0  0  0  0
 31 30  1  0  0  0  0
M  END
>  <MODEL>
5

>  <REMARK>
 VINA RESULT:      -7.7      1.167      1.426
  Name = 
  8 active torsions:
  status: ('A' for Active; 'I' for Inactive)
    1  A    between atoms: N_2  and  C_5
    2  A    between atoms: C_3  and  C_22
    3  A    between atoms: C_4  and  C_24
    4  A    between atoms: C_13  and  S_29
    5  A    between atoms: C_14  and  C_18
    6  A    between atoms: C_16  and  C_20
    7  A    between atoms: C_16  and  C_24
    8  A    between atoms: C_18  and  S_29
                            x       y       z     vdW  Elec       q    Type
                         _______ _______ _______ _____ _____    ______ ____

>  <TORSDO>
F 8

$$$$
=
 OpenBabel11052414423D

 32 36  0  0  1  0  0  0  0  0999 V2000
  188.5590  177.2030  139.4140 C   0  0  0  0  0  3  0  0  0  0  0  0
  189.2670  177.6310  140.5460 C   0  0  0  0  0  0  0  0  0  0  0  0
  189.2370  176.6640  138.3180 C   0  0  0  0  0  0  0  0  0  0  0  0
  190.6390  176.5540  138.3480 C   0  0  0  0  0  0  0  0  0  0  0  0
  191.3430  176.9800  139.4800 C   0  0  0  0  0  3  0  0  0  0  0  0
  190.6600  177.5180  140.5740 C   0  0  0  0  0  3  0  0  0  0  0  0
  188.4900  176.2250  137.1850 N   0  0  0  0  0  0  0  0  0  0  0  0
  187.6240  176.4650  135.9920 C   0  0  1  0  0  3  0  0  0  0  0  0
  185.0750  172.9240  137.7570 C   0  0  0  0  0  2  0  0  0  0  0  0
  187.8960  175.1480  136.3350 C   0  0  2  0  0  3  0  0  0  0  0  0
  184.5050  175.3910  137.5100 C   0  0  0  0  0  2  0  0  0  0  0  0
  185.5620  175.4460  136.5110 N   0  0  1  0  0  0  0  0  0  0  0  0
  186.1860  176.7470  136.4290 C   0  0  0  0  0  2  0  0  0  0  0  0
  186.6490  174.6470  137.0200 C   0  0  1  0  0  3  0  0  0  0  0  0
  183.9500  173.9570  137.5300 C   0  0  0  0  0  2  0  0  0  0  0  0
  186.2970  173.1810  136.8620 C   0  0  0  0  0  2  0  0  0  0  0  0
  188.5560  178.1770  141.7480 C   0  0  1  0  0  3  0  0  0  0  0  0
  187.1290  178.5580  141.3990 C   0  0  0  0  0  1  0  0  0  0  0  0
  188.5590  177.1920  142.9110 C   0  0  0  0  0  2  0  0  0  0  0  0
  190.6560  177.3170  144.4760 C   0  0  2  0  0  0  0  0  0  0  0  0
  188.9820  176.8300  147.4980 O   0  0  0  0  0  0  0  0  0  0  0  0
  191.0690  176.0720  143.7010 C   0  0  0  0  0  1  0  0  0  0  0  0
  188.4130  177.5420  145.3340 N   0  0  0  0  0  2  0  0  0  0  0  0
  190.6160  176.9940  145.8600 O   0  0  0  0  0  0  0  0  0  0  0  0
  189.2110  177.8120  144.1470 C   0  0  2  0  0  3  0  0  0  0  0  0
  189.3230  177.1020  146.3180 C   0  0  0  0  0  0  0  0  0  0  0  0
  191.6790  178.4180  144.2210 C   0  0  0  0  0  2  0  0  0  0  0  0
  191.0460  179.6340  143.9570 O   0  0  0  0  0  1  0  0  0  0  0  0
  191.3960  175.9570  137.2100 C   0  0  0  0  0  2  0  0  0  0  0  0
  193.1740  176.2590  137.4220 S   0  0  0  0  0  0  0  0  0  0  0  0
  193.5190  174.4860  137.5820 C   0  0  0  0  0  2  0  0  0  0  0  0
  194.8880  174.2930  138.1960 C   0  0  0  0  0  1  0  0  0  0  0  0
  1  2  1  0  0  0  0
  2  6  2  0  0  0  0
  2 17  1  0  0  0  0
  3  4  1  0  0  0  0
  3  1  2  0  0  0  0
  4  5  2  0  0  0  0
  5  6  1  0  0  0  0
  7  3  1  0  0  0  0
  8 10  1  0  0  0  0
  8 13  1  1  0  0  0
  8  7  1  0  0  0  0
 10 14  1  0  0  0  0
 10  7  1  1  0  0  0
 11 15  1  0  0  0  0
 12 13  1  1  0  0  0
 12 14  1  0  0  0  0
 12 11  1  0  0  0  0
 14 16  1  6  0  0  0
 15  9  1  0  0  0  0
 16  9  1  0  0  0  0
 17 18  1  6  0  0  0
 17 19  1  0  0  0  0
 20 22  1  6  0  0  0
 20 24  1  0  0  0  0
 23 26  1  0  0  0  0
 24 26  1  0  0  0  0
 25 19  1  6  0  0  0
 25 20  1  0  0  0  0
 25 23  1  0  0  0  0
 26 21  2  0  0  0  0
 27 20  1  0  0  0  0
 28 27  1  0  0  0  0
 29 30  1  0  0  0  0
 29  4  1  0  0  0  0
 30 31  1  0  0  0  0
 31 32  1  0  0  0  0
M  END
>  <MODEL>
6

>  <REMARK>
 VINA RESULT:      -7.5      4.788      7.275
  Name = 
  8 active torsions:
  status: ('A' for Active; 'I' for Inactive)
    1  A    between atoms: N_2  and  C_5
    2  A    between atoms: C_3  and  C_22
    3  A    between atoms: C_4  and  C_24
    4  A    between atoms: C_13  and  S_29
    5  A    between atoms: C_14  and  C_18
    6  A    between atoms: C_16  and  C_20
    7  A    between atoms: C_16  and  C_24
    8  A    between atoms: C_18  and  S_29
                            x       y       z     vdW  Elec       q    Type
                         _______ _______ _______ _____ _____    ______ ____

>  <TORSDO>
F 8

$$$$
=
 OpenBabel11052414423D

 32 36  0  0  1  0  0  0  0  0999 V2000
  184.9840  178.2290  142.3040 C   0  0  0  0  0  3  0  0  0  0  0  0
  183.7230  178.5140  142.8460 C   0  0  0  0  0  0  0  0  0  0  0  0
  186.1030  178.1240  143.1330 C   0  0  0  0  0  0  0  0  0  0  0  0
  185.9660  178.3120  144.5200 C   0  0  0  0  0  0  0  0  0  0  0  0
  184.7070  178.5950  145.0600 C   0  0  0  0  0  3  0  0  0  0  0  0
  183.5900  178.6980  144.2260 C   0  0  0  0  0  3  0  0  0  0  0  0
  187.3710  177.8200  142.5540 N   0  0  0  0  0  0  0  0  0  0  0  0
  188.3560  176.8880  141.9290 C   0  0  1  0  0  3  0  0  0  0  0  0
  191.3630  178.8050  145.0020 C   0  0  0  0  0  2  0  0  0  0  0  0
  188.7780  178.1820  142.1990 C   0  0  2  0  0  3  0  0  0  0  0  0
  190.4400  176.4380  144.8690 C   0  0  0  0  0  2  0  0  0  0  0  0
  190.1270  176.7310  143.4780 N   0  0  1  0  0  0  0  0  0  0  0  0
  188.9850  175.9890  142.9940 C   0  0  0  0  0  2  0  0  0  0  0  0
  189.6180  178.0790  143.4480 C   0  0  1  0  0  3  0  0  0  0  0  0
  191.6390  177.3110  145.2760 C   0  0  0  0  0  2  0  0  0  0  0  0
  190.7740  179.0460  143.6030 C   0  0  0  0  0  2  0  0  0  0  0  0
  182.5020  178.5930  141.9800 C   0  0  1  0  0  3  0  0  0  0  0  0
  181.3920  179.3490  142.6860 C   0  0  0  0  0  1  0  0  0  0  0  0
  182.7970  179.2450  140.6340 C   0  0  0  0  0  2  0  0  0  0  0  0
  183.1460  177.8360  138.4530 C   0  0  2  0  0  0  0  0  0  0  0  0
  180.9140  179.5940  136.4290 O   0  0  0  0  0  0  0  0  0  0  0  0
  184.5650  178.3800  138.5600 C   0  0  0  0  0  1  0  0  0  0  0  0
  181.2480  179.2960  138.7340 N   0  0  0  0  0  2  0  0  0  0  0  0
  182.6130  178.2110  137.1900 O   0  0  0  0  0  0  0  0  0  0  0  0
  182.1570  178.4520  139.4940 C   0  0  2  0  0  3  0  0  0  0  0  0
  181.5510  179.0650  137.3760 C   0  0  0  0  0  0  0  0  0  0  0  0
  183.1900  176.3180  138.5770 C   0  0  0  0  0  2  0  0  0  0  0  0
  182.4640  175.8880  139.6900 O   0  0  0  0  0  1  0  0  0  0  0  0
  187.1320  178.1790  145.4410 C   0  0  0  0  0  2  0  0  0  0  0  0
  186.5780  178.3000  147.1650 S   0  0  0  0  0  0  0  0  0  0  0  0
  187.9770  177.3070  147.7500 C   0  0  0  0  0  2  0  0  0  0  0  0
  189.0470  178.2220  148.3040 C   0  0  0  0  0  1  0  0  0  0  0  0
  1  2  2  0  0  0  0
  1  3  1  0  0  0  0
  2  6  1  0  0  0  0
  3  4  2  0  0  0  0
  4  5  1  0  0  0  0
  4 29  1  0  0  0  0
  6  5  2  0  0  0  0
  7  3  1  0  0  0  0
  8 10  1  0  0  0  0
  8  7  1  0  0  0  0
  8 13  1  1  0  0  0
  9 15  1  0  0  0  0
 10  7  1  1  0  0  0
 10 14  1  0  0  0  0
 11 15  1  0  0  0  0
 12 13  1  1  0  0  0
 12 11  1  0  0  0  0
 14 12  1  0  0  0  0
 14 16  1  6  0  0  0
 16  9  1  0  0  0  0
 17 18  1  1  0  0  0
 17  2  1  0  0  0  0
 19 17  1  0  0  0  0
 20 22  1  1  0  0  0
 20 27  1  0  0  0  0
 20 25  1  0  0  0  0
 21 26  2  0  0  0  0
 23 25  1  0  0  0  0
 24 26  1  0  0  0  0
 24 20  1  0  0  0  0
 25 19  1  1  0  0  0
 26 23  1  0  0  0  0
 27 28  1  0  0  0  0
 29 30  1  0  0  0  0
 30 31  1  0  0  0  0
 31 32  1  0  0  0  0
M  END
>  <MODEL>
7

>  <REMARK>
 VINA RESULT:      -7.4      3.499      8.357
  Name = 
  8 active torsions:
  status: ('A' for Active; 'I' for Inactive)
    1  A    between atoms: N_2  and  C_5
    2  A    between atoms: C_3  and  C_22
    3  A    between atoms: C_4  and  C_24
    4  A    between atoms: C_13  and  S_29
    5  A    between atoms: C_14  and  C_18
    6  A    between atoms: C_16  and  C_20
    7  A    between atoms: C_16  and  C_24
    8  A    between atoms: C_18  and  S_29
                            x       y       z     vdW  Elec       q    Type
                         _______ _______ _______ _____ _____    ______ ____

>  <TORSDO>
F 8

$$$$
=
 OpenBabel11052414423D

 32 36  0  0  1  0  0  0  0  0999 V2000
  185.2600  178.4350  142.5840 C   0  0  0  0  0  3  0  0  0  0  0  0
  185.6810  178.2340  143.9060 C   0  0  0  0  0  0  0  0  0  0  0  0
  183.9500  178.8340  142.3110 C   0  0  0  0  0  0  0  0  0  0  0  0
  183.0440  179.0300  143.3690 C   0  0  0  0  0  0  0  0  0  0  0  0
  183.4660  178.8300  144.6880 C   0  0  0  0  0  3  0  0  0  0  0  0
  184.7790  178.4320  144.9560 C   0  0  0  0  0  3  0  0  0  0  0  0
  183.5540  179.0440  140.9570 N   0  0  0  0  0  0  0  0  0  0  0  0
  182.5480  179.0430  139.8530 C   0  0  1  0  0  3  0  0  0  0  0  0
  185.9330  176.8280  137.4460 C   0  0  0  0  0  2  0  0  0  0  0  0
  183.8630  179.3430  139.5250 C   0  0  2  0  0  3  0  0  0  0  0  0
  183.6730  175.9840  138.2540 C   0  0  0  0  0  2  0  0  0  0  0  0
  183.2820  177.3820  138.3490 N   0  0  1  0  0  0  0  0  0  0  0  0
  182.2880  177.6150  139.3730 C   0  0  0  0  0  2  0  0  0  0  0  0
  184.4140  178.0880  138.8930 C   0  0  1  0  0  3  0  0  0  0  0  0
  184.7550  175.8700  137.1670 C   0  0  0  0  0  2  0  0  0  0  0  0
  185.4630  178.2450  137.8100 C   0  0  0  0  0  2  0  0  0  0  0  0
  187.0930  177.8430  144.2230 C   0  0  1  0  0  3  0  0  0  0  0  0
  187.1560  177.0790  145.5330 C   0  0  0  0  0  1  0  0  0  0  0  0
  187.7210  177.0120  143.1100 C   0  0  0  0  0  2  0  0  0  0  0  0
  190.1900  176.8680  142.2450 C   0  0  2  0  0  0  0  0  0  0  0  0
  191.4590  179.5470  144.0860 O   0  0  0  0  0  0  0  0  0  0  0  0
  190.1470  175.5100  142.9320 C   0  0  0  0  0  1  0  0  0  0  0  0
  189.3440  178.8340  143.3580 N   0  0  0  0  0  2  0  0  0  0  0  0
  191.2560  177.6240  142.8040 O   0  0  0  0  0  0  0  0  0  0  0  0
  188.9170  177.7400  142.4970 C   0  0  2  0  0  3  0  0  0  0  0  0
  190.7470  178.7230  143.4570 C   0  0  0  0  0  0  0  0  0  0  0  0
  190.4170  176.6590  140.7530 C   0  0  0  0  0  2  0  0  0  0  0  0
  189.3160  177.0950  140.0150 O   0  0  0  0  0  1  0  0  0  0  0  0
  181.6450  179.4840  143.1200 C   0  0  0  0  0  2  0  0  0  0  0  0
  180.4720  178.3130  143.8600 S   0  0  0  0  0  0  0  0  0  0  0  0
  179.0660  179.1040  143.0340 C   0  0  0  0  0  2  0  0  0  0  0  0
  179.5130  180.4120  142.4190 C   0  0  0  0  0  1  0  0  0  0  0  0
  1  2  1  0  0  0  0
  2 17  1  0  0  0  0
  2  6  2  0  0  0  0
  3  1  2  0  0  0  0
  3  4  1  0  0  0  0
  4  5  2  0  0  0  0
  5  6  1  0  0  0  0
  7  3  1  0  0  0  0
  8 13  1  6  0  0  0
  8  7  1  0  0  0  0
  9 16  1  0  0  0  0
 10  8  1  0  0  0  0
 10  7  1  1  0  0  0
 12 11  1  1  0  0  0
 12 14  1  0  0  0  0
 12 13  1  0  0  0  0
 14 16  1  6  0  0  0
 14 10  1  0  0  0  0
 15  9  1  0  0  0  0
 15 11  1  0  0  0  0
 17 18  1  1  0  0  0
 19 17  1  0  0  0  0
 20 25  1  0  0  0  0
 20 24  1  0  0  0  0
 20 22  1  1  0  0  0
 23 26  1  0  0  0  0
 24 26  1  0  0  0  0
 25 19  1  1  0  0  0
 25 23  1  0  0  0  0
 26 21  2  0  0  0  0
 27 20  1  0  0  0  0
 28 27  1  0  0  0  0
 29  4  1  0  0  0  0
 29 30  1  0  0  0  0
 31 30  1  0  0  0  0
 32 31  1  0  0  0  0
M  END
>  <MODEL>
8

>  <REMARK>
 VINA RESULT:      -7.4      1.594      2.311
  Name = 
  8 active torsions:
  status: ('A' for Active; 'I' for Inactive)
    1  A    between atoms: N_2  and  C_5
    2  A    between atoms: C_3  and  C_22
    3  A    between atoms: C_4  and  C_24
    4  A    between atoms: C_13  and  S_29
    5  A    between atoms: C_14  and  C_18
    6  A    between atoms: C_16  and  C_20
    7  A    between atoms: C_16  and  C_24
    8  A    between atoms: C_18  and  S_29
                            x       y       z     vdW  Elec       q    Type
                         _______ _______ _______ _____ _____    ______ ____

>  <TORSDO>
F 8

$$$$
=
 OpenBabel11052414423D

 32 36  0  0  1  0  0  0  0  0999 V2000
  185.7810  178.6520  141.4270 C   0  0  0  0  0  3  0  0  0  0  0  0
  184.4310  178.6930  141.8060 C   0  0  0  0  0  0  0  0  0  0  0  0
  186.7670  178.3260  142.3600 C   0  0  0  0  0  0  0  0  0  0  0  0
  186.4060  178.0430  143.6900 C   0  0  0  0  0  0  0  0  0  0  0  0
  185.0590  178.0820  144.0660 C   0  0  0  0  0  3  0  0  0  0  0  0
  184.0750  178.4080  143.1280 C   0  0  0  0  0  3  0  0  0  0  0  0
  188.1310  178.2800  141.9440 N   0  0  0  0  0  0  0  0  0  0  0  0
  189.2420  177.7610  141.0920 C   0  0  1  0  0  3  0  0  0  0  0  0
  191.5450  177.4120  145.1820 C   0  0  0  0  0  2  0  0  0  0  0  0
  189.5700  178.6540  142.1020 C   0  0  2  0  0  3  0  0  0  0  0  0
  190.7260  175.5950  143.6000 C   0  0  0  0  0  2  0  0  0  0  0  0
  190.6820  176.6280  142.5760 N   0  0  1  0  0  0  0  0  0  0  0  0
  189.6750  176.3750  141.5700 C   0  0  0  0  0  2  0  0  0  0  0  0
  190.1540  177.8110  143.2090 C   0  0  1  0  0  3  0  0  0  0  0  0
  191.8000  175.9940  144.6260 C   0  0  0  0  0  2  0  0  0  0  0  0
  191.2330  178.4290  144.0740 C   0  0  0  0  0  2  0  0  0  0  0  0
  183.3530  179.0030  140.8120 C   0  0  1  0  0  3  0  0  0  0  0  0
  183.9540  179.4190  139.4820 C   0  0  0  0  0  1  0  0  0  0  0  0
  182.4080  177.8250  140.6070 C   0  0  0  0  0  2  0  0  0  0  0  0
  179.8410  178.1090  140.1630 C   0  0  2  0  0  0  0  0  0  0  0  0
  179.4710  181.2250  141.6860 O   0  0  0  0  0  0  0  0  0  0  0  0
  180.2880  178.0950  138.7060 C   0  0  0  0  0  1  0  0  0  0  0  0
  181.0070  179.4520  141.7910 N   0  0  0  0  0  2  0  0  0  0  0  0
  179.1380  179.3190  140.4080 O   0  0  0  0  0  0  0  0  0  0  0  0
  181.0250  178.1300  141.1830 C   0  0  2  0  0  3  0  0  0  0  0  0
  179.8360  180.0800  141.3170 C   0  0  0  0  0  0  0  0  0  0  0  0
  178.9330  176.9110  140.4110 C   0  0  0  0  0  2  0  0  0  0  0  0
  179.4690  176.0730  141.3900 O   0  0  0  0  0  1  0  0  0  0  0  0
  187.4280  177.6620  144.7080 C   0  0  0  0  0  2  0  0  0  0  0  0
  186.7880  177.9800  146.3770 S   0  0  0  0  0  0  0  0  0  0  0  0
  188.3230  177.3970  147.1440 C   0  0  0  0  0  2  0  0  0  0  0  0
  188.5310  178.1110  148.4630 C   0  0  0  0  0  1  0  0  0  0  0  0
  1  2  2  0  0  0  0
  1  3  1  0  0  0  0
  2  6  1  0  0  0  0
  3  4  2  0  0  0  0
  4  5  1  0  0  0  0
  4 29  1  0  0  0  0
  6  5  2  0  0  0  0
  7  3  1  0  0  0  0
  8 13  1  1  0  0  0
  8  7  1  0  0  0  0
  8 10  1  0  0  0  0
 10  7  1  1  0  0  0
 10 14  1  0  0  0  0
 11 15  1  0  0  0  0
 12 13  1  6  0  0  0
 12 14  1  0  0  0  0
 12 11  1  0  0  0  0
 14 16  1  6  0  0  0
 15  9  1  0  0  0  0
 16  9  1  0  0  0  0
 17 18  1  6  0  0  0
 17  2  1  0  0  0  0
 19 17  1  0  0  0  0
 20 22  1  6  0  0  0
 20 24  1  0  0  0  0
 20 27  1  0  0  0  0
 20 25  1  0  0  0  0
 24 26  1  0  0  0  0
 25 19  1  6  0  0  0
 25 23  1  0  0  0  0
 26 21  2  0  0  0  0
 26 23  1  0  0  0  0
 27 28  1  0  0  0  0
 29 30  1  0  0  0  0
 30 31  1  0  0  0  0
 31 32  1  0  0  0  0
M  END
>  <MODEL>
9

>  <REMARK>
 VINA RESULT:      -7.4      4.118      8.755
  Name = 
  8 active torsions:
  status: ('A' for Active; 'I' for Inactive)
    1  A    between atoms: N_2  and  C_5
    2  A    between atoms: C_3  and  C_22
    3  A    between atoms: C_4  and  C_24
    4  A    between atoms: C_13  and  S_29
    5  A    between atoms: C_14  and  C_18
    6  A    between atoms: C_16  and  C_20
    7  A    between atoms: C_16  and  C_24
    8  A    between atoms: C_18  and  S_29
                            x       y       z     vdW  Elec       q    Type
                         _______ _______ _______ _____ _____    ______ ____

>  <TORSDO>
F 8

$$$$
