=
 OpenBabel11052413523D

 27 31  0  0  1  0  0  0  0  0999 V2000
  188.2300  178.2630  141.0060 N   0  0  0  0  0  0  0  0  0  0  0  0
  187.0170  178.5240  141.5270 C   0  0  0  0  0  0  0  0  0  0  0  0
  188.2250  177.6970  143.1860 C   0  0  0  0  0  0  0  0  0  0  0  0
  183.4810  179.2190  143.5890 C   0  0  0  0  0  3  0  0  0  0  0  0
  183.3760  178.9210  144.9490 C   0  0  0  0  0  3  0  0  0  0  0  0
  185.9180  179.0720  140.8690 C   0  0  0  0  0  3  0  0  0  0  0  0
  185.6660  178.1290  144.9650 C   0  0  0  0  0  3  0  0  0  0  0  0
  190.9320  176.7430  143.2030 C   0  0  0  0  0  0  0  0  0  0  0  0
  188.0920  176.9240  145.4400 O   0  0  0  0  0  0  0  0  0  0  0  0
  191.9590  176.0830  143.1830 O   0  0  0  0  0  0  0  0  0  0  0  0
  185.7850  178.4160  143.6020 C   0  0  0  0  0  0  0  0  0  0  0  0
  184.4660  178.3790  145.6360 C   0  0  0  0  0  3  0  0  0  0  0  0
  184.6770  178.9740  142.9070 C   0  0  0  0  0  0  0  0  0  0  0  0
  188.9710  177.7600  142.0190 C   0  0  0  0  0  0  0  0  0  0  0  0
  186.9590  178.1930  142.8650 C   0  0  0  0  0  0  0  0  0  0  0  0
  190.2930  177.0390  144.5380 C   0  0  0  0  0  2  0  0  0  0  0  0
  184.7730  179.2810  141.5780 N   0  0  0  0  0  0  0  0  0  0  0  0
  190.5180  176.3850  140.8980 F   0  0  0  0  0  0  0  0  0  0  0  0
  190.4060  177.3250  141.9070 C   0  0  2  0  0  3  0  0  0  0  0  0
  188.8060  177.1980  144.4420 C   0  0  0  0  0  0  0  0  0  0  0  0
  188.6760  178.5410  139.6440 C   0  0  0  0  0  2  0  0  0  0  0  0
  186.9490  175.7700  136.8630 C   0  0  0  0  0  3  0  0  0  0  0  0
  188.0650  177.5680  138.6930 C   0  0  0  0  0  0  0  0  0  0  0  0
  186.8380  177.8570  138.0870 C   0  0  0  0  0  3  0  0  0  0  0  0
  186.2780  176.9580  137.1740 C   0  0  0  0  0  3  0  0  0  0  0  0
  188.1800  175.4840  137.4630 C   0  0  0  0  0  3  0  0  0  0  0  0
  188.7380  176.3840  138.3750 C   0  0  0  0  0  3  0  0  0  0  0  0
  1  2  1  0  0  0  0
  1 14  1  0  0  0  0
  2 15  1  0  0  0  0
  3 20  1  0  0  0  0
  4  5  2  0  0  0  0
  5 12  1  0  0  0  0
  6  2  2  0  0  0  0
  6 17  1  0  0  0  0
  7 12  2  0  0  0  0
  8 16  1  0  0  0  0
 10  8  2  0  0  0  0
 11  7  1  0  0  0  0
 13  4  1  0  0  0  0
 13 11  1  0  0  0  0
 14  3  2  0  0  0  0
 15  3  1  0  0  0  0
 15 11  2  0  0  0  0
 17 13  2  0  0  0  0
 19 18  1  6  0  0  0
 19 14  1  0  0  0  0
 19  8  1  0  0  0  0
 20 16  1  0  0  0  0
 20  9  2  0  0  0  0
 21  1  1  0  0  0  0
 22 25  2  0  0  0  0
 22 26  1  0  0  0  0
 23 21  1  0  0  0  0
 24 23  2  0  0  0  0
 25 24  1  0  0  0  0
 26 27  2  0  0  0  0
 27 23  1  0  0  0  0
M  END
>  <MODEL>
1

>  <REMARK>
 VINA RESULT:      -9.3      0.000      0.000
  Name = 
  2 active torsions:
  status: ('A' for Active; 'I' for Inactive)
    1  A    between atoms: N_1  and  C_15
    2  A    between atoms: C_9  and  C_15
                            x       y       z     vdW  Elec       q    Type
                         _______ _______ _______ _____ _____    ______ ____

>  <TORSDO>
F 2

$$$$
=
 OpenBabel11052413523D

 27 31  0  0  1  0  0  0  0  0999 V2000
  184.5300  178.8300  141.1520 N   0  0  0  0  0  0  0  0  0  0  0  0
  184.5270  178.7370  142.4950 C   0  0  0  0  0  0  0  0  0  0  0  0
  186.6000  178.2960  141.8600 C   0  0  0  0  0  0  0  0  0  0  0  0
  185.0280  178.4070  146.6040 C   0  0  0  0  0  3  0  0  0  0  0  0
  186.2760  178.0980  147.1490 C   0  0  0  0  0  3  0  0  0  0  0  0
  183.4490  178.9460  143.3520 C   0  0  0  0  0  3  0  0  0  0  0  0
  187.2350  177.9910  144.9260 C   0  0  0  0  0  3  0  0  0  0  0  0
  187.7340  178.1510  139.2270 C   0  0  0  0  0  0  0  0  0  0  0  0
  188.7160  177.5280  142.6560 O   0  0  0  0  0  0  0  0  0  0  0  0
  188.1760  177.8110  138.1410 O   0  0  0  0  0  0  0  0  0  0  0  0
  185.9910  178.2930  144.3650 C   0  0  0  0  0  0  0  0  0  0  0  0
  187.3770  177.8920  146.3130 C   0  0  0  0  0  3  0  0  0  0  0  0
  184.8740  178.5090  145.2180 C   0  0  0  0  0  0  0  0  0  0  0  0
  185.7960  178.5630  140.7620 C   0  0  0  0  0  0  0  0  0  0  0  0
  185.7760  178.4090  142.9820 C   0  0  0  0  0  0  0  0  0  0  0  0
  188.6920  178.2600  140.3900 C   0  0  0  0  0  2  0  0  0  0  0  0
  183.6510  178.8240  144.6940 N   0  0  0  0  0  0  0  0  0  0  0  0
  185.4990  177.6790  138.6010 F   0  0  0  0  0  0  0  0  0  0  0  0
  186.2780  178.5540  139.3380 C   0  0  2  0  0  3  0  0  0  0  0  0
  188.0310  177.9880  141.7070 C   0  0  0  0  0  0  0  0  0  0  0  0
  183.4100  179.2160  140.3000 C   0  0  0  0  0  2  0  0  0  0  0  0
  180.5520  176.0340  139.9900 C   0  0  0  0  0  3  0  0  0  0  0  0
  182.4200  178.1040  140.2120 C   0  0  0  0  0  0  0  0  0  0  0  0
  181.0850  178.3240  140.5670 C   0  0  0  0  0  3  0  0  0  0  0  0
  180.1520  177.2890  140.4580 C   0  0  0  0  0  3  0  0  0  0  0  0
  181.8850  175.8140  139.6280 C   0  0  0  0  0  3  0  0  0  0  0  0
  182.8180  176.8500  139.7360 C   0  0  0  0  0  3  0  0  0  0  0  0
  1  2  1  0  0  0  0
  2 15  2  0  0  0  0
  2  6  1  0  0  0  0
  3 15  1  0  0  0  0
  4  5  1  0  0  0  0
  6 17  2  0  0  0  0
  7 12  1  0  0  0  0
  8 19  1  0  0  0  0
  8 16  1  0  0  0  0
 10  8  2  0  0  0  0
 11  7  2  0  0  0  0
 11 13  1  0  0  0  0
 12  5  2  0  0  0  0
 13  4  2  0  0  0  0
 14  1  1  0  0  0  0
 14  3  2  0  0  0  0
 15 11  1  0  0  0  0
 16 20  1  0  0  0  0
 17 13  1  0  0  0  0
 19 18  1  6  0  0  0
 19 14  1  0  0  0  0
 20  3  1  0  0  0  0
 20  9  2  0  0  0  0
 21  1  1  0  0  0  0
 22 25  1  0  0  0  0
 23 21  1  0  0  0  0
 23 24  1  0  0  0  0
 25 24  2  0  0  0  0
 26 27  1  0  0  0  0
 26 22  2  0  0  0  0
 27 23  2  0  0  0  0
M  END
>  <MODEL>
2

>  <REMARK>
 VINA RESULT:      -9.0      3.042      4.542
  Name = 
  2 active torsions:
  status: ('A' for Active; 'I' for Inactive)
    1  A    between atoms: N_1  and  C_15
    2  A    between atoms: C_9  and  C_15
                            x       y       z     vdW  Elec       q    Type
                         _______ _______ _______ _____ _____    ______ ____

>  <TORSDO>
F 2

$$$$
=
 OpenBabel11052413523D

 27 31  0  0  1  0  0  0  0  0999 V2000
  185.4490  178.7910  140.8790 N   0  0  0  0  0  0  0  0  0  0  0  0
  185.4360  178.6660  142.2190 C   0  0  0  0  0  0  0  0  0  0  0  0
  187.4370  177.9860  141.5640 C   0  0  0  0  0  0  0  0  0  0  0  0
  185.8970  178.1730  146.3160 C   0  0  0  0  0  3  0  0  0  0  0  0
  187.0970  177.6970  146.8480 C   0  0  0  0  0  3  0  0  0  0  0  0
  184.3930  178.9870  143.0850 C   0  0  0  0  0  3  0  0  0  0  0  0
  188.0330  177.5270  144.6190 C   0  0  0  0  0  3  0  0  0  0  0  0
  188.5410  177.7670  138.9240 C   0  0  0  0  0  0  0  0  0  0  0  0
  189.4410  176.9400  142.3310 O   0  0  0  0  0  0  0  0  0  0  0  0
  188.9350  177.4020  137.8270 O   0  0  0  0  0  0  0  0  0  0  0  0
  186.8350  177.9960  144.0700 C   0  0  0  0  0  0  0  0  0  0  0  0
  188.1630  177.3760  146.0020 C   0  0  0  0  0  3  0  0  0  0  0  0
  185.7550  178.3280  144.9330 C   0  0  0  0  0  0  0  0  0  0  0  0
  186.6720  178.3780  140.4760 C   0  0  0  0  0  0  0  0  0  0  0  0
  186.6350  178.1730  142.6920 C   0  0  0  0  0  0  0  0  0  0  0  0
  189.5060  177.7260  140.0840 C   0  0  0  0  0  2  0  0  0  0  0  0
  184.5800  178.8070  144.4230 N   0  0  0  0  0  0  0  0  0  0  0  0
  186.2640  177.5930  138.2950 F   0  0  0  0  0  0  0  0  0  0  0  0
  187.1470  178.3450  139.0500 C   0  0  2  0  0  3  0  0  0  0  0  0
  188.8180  177.5060  141.3970 C   0  0  0  0  0  0  0  0  0  0  0  0
  184.3850  179.3360  140.0410 C   0  0  0  0  0  2  0  0  0  0  0  0
  181.0500  176.6400  140.0230 C   0  0  0  0  0  3  0  0  0  0  0  0
  183.2200  178.4050  140.0150 C   0  0  0  0  0  0  0  0  0  0  0  0
  183.3850  177.0890  139.5690 C   0  0  0  0  0  3  0  0  0  0  0  0
  182.3000  176.2080  139.5700 C   0  0  0  0  0  3  0  0  0  0  0  0
  180.8850  177.9530  140.4770 C   0  0  0  0  0  3  0  0  0  0  0  0
  181.9710  178.8340  140.4750 C   0  0  0  0  0  3  0  0  0  0  0  0
  1  2  1  0  0  0  0
  2 15  2  0  0  0  0
  2  6  1  0  0  0  0
  3 15  1  0  0  0  0
  4  5  1  0  0  0  0
  6 17  2  0  0  0  0
  7 12  1  0  0  0  0
  8 19  1  0  0  0  0
  8 16  1  0  0  0  0
 10  8  2  0  0  0  0
 11  7  2  0  0  0  0
 11 13  1  0  0  0  0
 12  5  2  0  0  0  0
 13  4  2  0  0  0  0
 14  1  1  0  0  0  0
 14  3  2  0  0  0  0
 15 11  1  0  0  0  0
 16 20  1  0  0  0  0
 17 13  1  0  0  0  0
 19 18  1  6  0  0  0
 19 14  1  0  0  0  0
 20  3  1  0  0  0  0
 20  9  2  0  0  0  0
 21  1  1  0  0  0  0
 22 26  1  0  0  0  0
 23 21  1  0  0  0  0
 23 27  1  0  0  0  0
 24 25  1  0  0  0  0
 24 23  2  0  0  0  0
 25 22  2  0  0  0  0
 27 26  2  0  0  0  0
M  END
>  <MODEL>
3

>  <REMARK>
 VINA RESULT:      -8.9      2.748      4.321
  Name = 
  2 active torsions:
  status: ('A' for Active; 'I' for Inactive)
    1  A    between atoms: N_1  and  C_15
    2  A    between atoms: C_9  and  C_15
                            x       y       z     vdW  Elec       q    Type
                         _______ _______ _______ _____ _____    ______ ____

>  <TORSDO>
F 2

$$$$
=
 OpenBabel11052413523D

 27 31  0  0  1  0  0  0  0  0999 V2000
  185.8880  178.8730  141.6560 N   0  0  0  0  0  0  0  0  0  0  0  0
  187.1450  178.4950  141.3600 C   0  0  0  0  0  0  0  0  0  0  0  0
  186.8790  178.0890  143.5190 C   0  0  0  0  0  0  0  0  0  0  0  0
  191.0430  177.1330  140.9220 C   0  0  0  0  0  3  0  0  0  0  0  0
  191.7430  176.6090  142.0110 C   0  0  0  0  0  3  0  0  0  0  0  0
  187.7690  178.5440  140.1150 C   0  0  0  0  0  3  0  0  0  0  0  0
  189.8290  176.9960  143.4460 C   0  0  0  0  0  3  0  0  0  0  0  0
  184.6190  178.5630  145.2230 C   0  0  0  0  0  0  0  0  0  0  0  0
  188.0510  177.4430  145.4960 O   0  0  0  0  0  0  0  0  0  0  0  0
  183.8020  178.9990  146.0180 O   0  0  0  0  0  0  0  0  0  0  0  0
  189.1170  177.5290  142.3670 C   0  0  0  0  0  0  0  0  0  0  0  0
  191.1380  176.5390  143.2690 C   0  0  0  0  0  3  0  0  0  0  0  0
  189.7330  177.5930  141.0870 C   0  0  0  0  0  0  0  0  0  0  0  0
  185.7220  178.6240  142.9740 C   0  0  0  0  0  0  0  0  0  0  0  0
  187.8000  178.0060  142.4710 C   0  0  0  0  0  0  0  0  0  0  0  0
  185.6890  177.6270  145.7340 C   0  0  0  0  0  2  0  0  0  0  0  0
  189.0510  178.0930  140.0130 N   0  0  0  0  0  0  0  0  0  0  0  0
  184.1080  180.2160  143.6060 F   0  0  0  0  0  0  0  0  0  0  0  0
  184.4630  178.8860  143.7520 C   0  0  2  0  0  3  0  0  0  0  0  0
  186.9570  177.7140  144.9390 C   0  0  0  0  0  0  0  0  0  0  0  0
  184.8840  179.3780  140.7230 C   0  0  0  0  0  2  0  0  0  0  0  0
  183.0600  176.1680  138.5410 C   0  0  0  0  0  3  0  0  0  0  0  0
  184.2640  178.2480  139.9710 C   0  0  0  0  0  0  0  0  0  0  0  0
  183.2730  177.4660  140.5730 C   0  0  0  0  0  3  0  0  0  0  0  0
  182.6730  176.4250  139.8600 C   0  0  0  0  0  3  0  0  0  0  0  0
  184.0450  176.9540  137.9340 C   0  0  0  0  0  3  0  0  0  0  0  0
  184.6450  177.9960  138.6490 C   0  0  0  0  0  3  0  0  0  0  0  0
  1 14  1  0  0  0  0
  2  1  1  0  0  0  0
  2 15  1  0  0  0  0
  3 20  1  0  0  0  0
  4 13  1  0  0  0  0
  4  5  2  0  0  0  0
  5 12  1  0  0  0  0
  6  2  2  0  0  0  0
  8 16  1  0  0  0  0
  8 10  2  0  0  0  0
 11 15  2  0  0  0  0
 11  7  1  0  0  0  0
 12  7  2  0  0  0  0
 13 11  1  0  0  0  0
 14  3  2  0  0  0  0
 14 19  1  0  0  0  0
 15  3  1  0  0  0  0
 17  6  1  0  0  0  0
 17 13  2  0  0  0  0
 19 18  1  1  0  0  0
 19  8  1  0  0  0  0
 20  9  2  0  0  0  0
 20 16  1  0  0  0  0
 21  1  1  0  0  0  0
 22 25  1  0  0  0  0
 23 24  1  0  0  0  0
 23 21  1  0  0  0  0
 25 24  2  0  0  0  0
 26 22  2  0  0  0  0
 26 27  1  0  0  0  0
 27 23  2  0  0  0  0
M  END
>  <MODEL>
4

>  <REMARK>
 VINA RESULT:      -8.6      2.430      5.129
  Name = 
  2 active torsions:
  status: ('A' for Active; 'I' for Inactive)
    1  A    between atoms: N_1  and  C_15
    2  A    between atoms: C_9  and  C_15
                            x       y       z     vdW  Elec       q    Type
                         _______ _______ _______ _____ _____    ______ ____

>  <TORSDO>
F 2

$$$$
=
 OpenBabel11052413523D

 27 31  0  0  1  0  0  0  0  0999 V2000
  183.8760  179.1830  142.4620 N   0  0  0  0  0  0  0  0  0  0  0  0
  184.3800  178.8350  141.2630 C   0  0  0  0  0  0  0  0  0  0  0  0
  182.2550  178.2200  141.2320 C   0  0  0  0  0  0  0  0  0  0  0  0
  185.4520  177.6500  137.4310 C   0  0  0  0  0  3  0  0  0  0  0  0
  184.5170  177.0600  136.5780 C   0  0  0  0  0  3  0  0  0  0  0  0
  185.6810  179.0350  140.8060 C   0  0  0  0  0  3  0  0  0  0  0  0
  182.8170  177.2400  138.2950 C   0  0  0  0  0  3  0  0  0  0  0  0
  180.2440  178.4160  143.2700 C   0  0  0  0  0  0  0  0  0  0  0  0
  180.6400  177.0060  139.9600 O   0  0  0  0  0  0  0  0  0  0  0  0
  179.4590  178.2290  144.1860 O   0  0  0  0  0  0  0  0  0  0  0  0
  183.7420  177.8270  139.1630 C   0  0  0  0  0  0  0  0  0  0  0  0
  183.2030  176.8560  137.0080 C   0  0  0  0  0  3  0  0  0  0  0  0
  185.0760  178.0390  138.7210 C   0  0  0  0  0  0  0  0  0  0  0  0
  182.5770  178.8090  142.4440 C   0  0  0  0  0  0  0  0  0  0  0  0
  183.4240  178.2370  140.4680 C   0  0  0  0  0  0  0  0  0  0  0  0
  179.7770  178.1550  141.8580 C   0  0  0  0  0  2  0  0  0  0  0  0
  185.9960  178.6280  139.5440 N   0  0  0  0  0  0  0  0  0  0  0  0
  182.1180  178.4120  144.7190 F   0  0  0  0  0  0  0  0  0  0  0  0
  181.6060  179.0030  143.5760 C   0  0  2  0  0  3  0  0  0  0  0  0
  180.8930  177.7370  140.9500 C   0  0  0  0  0  0  0  0  0  0  0  0
  184.5740  179.8890  143.5320 C   0  0  0  0  0  2  0  0  0  0  0  0
  186.7230  177.1430  146.0290 C   0  0  0  0  0  3  0  0  0  0  0  0
  185.3060  178.9200  144.3990 C   0  0  0  0  0  0  0  0  0  0  0  0
  186.2020  178.0090  143.8290 C   0  0  0  0  0  3  0  0  0  0  0  0
  186.9080  177.1190  144.6430 C   0  0  0  0  0  3  0  0  0  0  0  0
  185.8340  178.0580  146.6010 C   0  0  0  0  0  3  0  0  0  0  0  0
  185.1280  178.9480  145.7860 C   0  0  0  0  0  3  0  0  0  0  0  0
  1 21  1  0  0  0  0
  2  1  1  0  0  0  0
  3 14  2  0  0  0  0
  4 13  1  0  0  0  0
  5 12  1  0  0  0  0
  5  4  2  0  0  0  0
  6  2  1  0  0  0  0
  7 11  1  0  0  0  0
  8 19  1  0  0  0  0
  8 10  2  0  0  0  0
  9 20  2  0  0  0  0
 11 15  1  0  0  0  0
 12  7  2  0  0  0  0
 13 11  2  0  0  0  0
 13 17  1  0  0  0  0
 14  1  1  0  0  0  0
 14 19  1  0  0  0  0
 15  3  1  0  0  0  0
 15  2  2  0  0  0  0
 16  8  1  0  0  0  0
 17  6  2  0  0  0  0
 19 18  1  1  0  0  0
 20  3  1  0  0  0  0
 20 16  1  0  0  0  0
 21 23  1  0  0  0  0
 22 26  1  0  0  0  0
 23 27  1  0  0  0  0
 24 23  2  0  0  0  0
 24 25  1  0  0  0  0
 25 22  2  0  0  0  0
 27 26  2  0  0  0  0
M  END
>  <MODEL>
5

>  <REMARK>
 VINA RESULT:      -8.5      4.087      7.653
  Name = 
  2 active torsions:
  status: ('A' for Active; 'I' for Inactive)
    1  A    between atoms: N_1  and  C_15
    2  A    between atoms: C_9  and  C_15
                            x       y       z     vdW  Elec       q    Type
                         _______ _______ _______ _____ _____    ______ ____

>  <TORSDO>
F 2

$$$$
=
 OpenBabel11052413523D

 27 31  0  0  1  0  0  0  0  0999 V2000
  188.1200  178.2300  139.7300 N   0  0  0  0  0  0  0  0  0  0  0  0
  187.4110  178.2550  140.8740 C   0  0  0  0  0  0  0  0  0  0  0  0
  189.4470  177.5910  141.4330 C   0  0  0  0  0  0  0  0  0  0  0  0
  185.6710  178.2430  144.6440 C   0  0  0  0  0  3  0  0  0  0  0  0
  186.4110  177.8820  145.7720 C   0  0  0  0  0  3  0  0  0  0  0  0
  186.0780  178.6260  141.0320 C   0  0  0  0  0  3  0  0  0  0  0  0
  188.3620  177.5030  144.3860 C   0  0  0  0  0  3  0  0  0  0  0  0
  191.7540  177.1260  139.7910 C   0  0  0  0  0  0  0  0  0  0  0  0
  190.7390  176.7240  143.2430 O   0  0  0  0  0  0  0  0  0  0  0  0
  192.6510  176.6570  139.1080 O   0  0  0  0  0  0  0  0  0  0  0  0
  187.6330  177.8560  143.2460 C   0  0  0  0  0  0  0  0  0  0  0  0
  187.7530  177.5130  145.6430 C   0  0  0  0  0  3  0  0  0  0  0  0
  186.2700  178.2370  143.3800 C   0  0  0  0  0  0  0  0  0  0  0  0
  189.3640  177.8270  140.0690 C   0  0  0  0  0  0  0  0  0  0  0  0
  188.1800  177.8690  141.9530 C   0  0  0  0  0  0  0  0  0  0  0  0
  191.9760  177.2560  141.2790 C   0  0  0  0  0  2  0  0  0  0  0  0
  185.5400  178.6050  142.2840 N   0  0  0  0  0  0  0  0  0  0  0  0
  190.1290  176.7860  138.1020 F   0  0  0  0  0  0  0  0  0  0  0  0
  190.5090  177.6550  139.1100 C   0  0  2  0  0  3  0  0  0  0  0  0
  190.7030  177.1550  142.0630 C   0  0  0  0  0  0  0  0  0  0  0  0
  187.6550  178.6320  138.4060 C   0  0  0  0  0  2  0  0  0  0  0  0
  185.0170  175.6880  136.7420 C   0  0  0  0  0  3  0  0  0  0  0  0
  186.7350  177.6000  137.8460 C   0  0  0  0  0  0  0  0  0  0  0  0
  185.3690  177.8750  137.7210 C   0  0  0  0  0  3  0  0  0  0  0  0
  184.5090  176.9190  137.1720 C   0  0  0  0  0  3  0  0  0  0  0  0
  186.3840  175.4160  136.8590 C   0  0  0  0  0  3  0  0  0  0  0  0
  187.2430  176.3730  137.4080 C   0  0  0  0  0  3  0  0  0  0  0  0
  1 14  1  0  0  0  0
  1  2  1  0  0  0  0
  2  6  2  0  0  0  0
  2 15  1  0  0  0  0
  3 15  1  0  0  0  0
  3 20  1  0  0  0  0
  4  5  2  0  0  0  0
  6 17  1  0  0  0  0
  7 12  2  0  0  0  0
  8 16  1  0  0  0  0
 10  8  2  0  0  0  0
 11 13  1  0  0  0  0
 11  7  1  0  0  0  0
 12  5  1  0  0  0  0
 13  4  1  0  0  0  0
 14  3  2  0  0  0  0
 15 11  2  0  0  0  0
 16 20  1  0  0  0  0
 17 13  2  0  0  0  0
 19 18  1  6  0  0  0
 19  8  1  0  0  0  0
 19 14  1  0  0  0  0
 20  9  2  0  0  0  0
 21  1  1  0  0  0  0
 22 26  2  0  0  0  0
 22 25  1  0  0  0  0
 23 21  1  0  0  0  0
 24 23  1  0  0  0  0
 25 24  2  0  0  0  0
 26 27  1  0  0  0  0
 27 23  2  0  0  0  0
M  END
>  <MODEL>
6

>  <REMARK>
 VINA RESULT:      -8.4      1.539      2.443
  Name = 
  2 active torsions:
  status: ('A' for Active; 'I' for Inactive)
    1  A    between atoms: N_1  and  C_15
    2  A    between atoms: C_9  and  C_15
                            x       y       z     vdW  Elec       q    Type
                         _______ _______ _______ _____ _____    ______ ____

>  <TORSDO>
F 2

$$$$
=
 OpenBabel11052413523D

 27 31  0  0  1  0  0  0  0  0999 V2000
  183.9540  178.8330  140.6420 N   0  0  0  0  0  0  0  0  0  0  0  0
  185.0970  178.6030  141.3140 C   0  0  0  0  0  0  0  0  0  0  0  0
  183.5030  178.7100  142.8450 C   0  0  0  0  0  0  0  0  0  0  0  0
  188.3310  177.8310  143.8010 C   0  0  0  0  0  3  0  0  0  0  0  0
  188.1580  177.7160  145.1830 C   0  0  0  0  0  3  0  0  0  0  0  0
  186.3720  178.4420  140.7760 C   0  0  0  0  0  3  0  0  0  0  0  0
  185.7840  178.1310  144.9340 C   0  0  0  0  0  3  0  0  0  0  0  0
  180.6940  179.2180  142.5540 C   0  0  0  0  0  0  0  0  0  0  0  0
  183.1240  178.7770  145.2010 O   0  0  0  0  0  0  0  0  0  0  0  0
  179.5730  179.6990  142.5000 O   0  0  0  0  0  0  0  0  0  0  0  0
  185.9410  178.2540  143.5500 C   0  0  0  0  0  0  0  0  0  0  0  0
  186.8890  177.8640  145.7470 C   0  0  0  0  0  3  0  0  0  0  0  0
  187.2330  178.0970  142.9770 C   0  0  0  0  0  0  0  0  0  0  0  0
  182.9780  178.8960  141.5750 C   0  0  0  0  0  0  0  0  0  0  0  0
  184.8770  178.5200  142.6730 C   0  0  0  0  0  0  0  0  0  0  0  0
  181.1600  178.6270  143.8630 C   0  0  0  0  0  2  0  0  0  0  0  0
  187.4090  178.1950  141.6250 N   0  0  0  0  0  0  0  0  0  0  0  0
  181.3870  180.3100  140.5700 F   0  0  0  0  0  0  0  0  0  0  0  0
  181.5210  179.1350  141.2880 C   0  0  2  0  0  3  0  0  0  0  0  0
  182.6450  178.7180  144.0400 C   0  0  0  0  0  0  0  0  0  0  0  0
  183.7930  178.9180  139.1940 C   0  0  0  0  0  2  0  0  0  0  0  0
  183.9590  175.0250  137.4020 C   0  0  0  0  0  3  0  0  0  0  0  0
  183.8640  177.5580  138.5850 C   0  0  0  0  0  0  0  0  0  0  0  0
  182.9610  176.5650  138.9820 C   0  0  0  0  0  3  0  0  0  0  0  0
  183.0100  175.2990  138.3930 C   0  0  0  0  0  3  0  0  0  0  0  0
  184.8570  176.0190  136.9990 C   0  0  0  0  0  3  0  0  0  0  0  0
  184.8070  177.2860  137.5890 C   0  0  0  0  0  3  0  0  0  0  0  0
  1  2  1  0  0  0  0
  1 14  1  0  0  0  0
  2 15  1  0  0  0  0
  3 20  1  0  0  0  0
  4  5  2  0  0  0  0
  5 12  1  0  0  0  0
  6  2  2  0  0  0  0
  6 17  1  0  0  0  0
  7 12  2  0  0  0  0
  8 16  1  0  0  0  0
 10  8  2  0  0  0  0
 11  7  1  0  0  0  0
 13 11  1  0  0  0  0
 13  4  1  0  0  0  0
 14  3  2  0  0  0  0
 15  3  1  0  0  0  0
 15 11  2  0  0  0  0
 16 20  1  0  0  0  0
 17 13  2  0  0  0  0
 19 18  1  1  0  0  0
 19 14  1  0  0  0  0
 19  8  1  0  0  0  0
 20  9  2  0  0  0  0
 21  1  1  0  0  0  0
 22 25  1  0  0  0  0
 23 24  1  0  0  0  0
 23 21  1  0  0  0  0
 25 24  2  0  0  0  0
 26 22  2  0  0  0  0
 26 27  1  0  0  0  0
 27 23  2  0  0  0  0
M  END
>  <MODEL>
7

>  <REMARK>
 VINA RESULT:      -8.3      3.412      5.732
  Name = 
  2 active torsions:
  status: ('A' for Active; 'I' for Inactive)
    1  A    between atoms: N_1  and  C_15
    2  A    between atoms: C_9  and  C_15
                            x       y       z     vdW  Elec       q    Type
                         _______ _______ _______ _____ _____    ______ ____

>  <TORSDO>
F 2

$$$$
=
 OpenBabel11052413523D

 27 31  0  0  1  0  0  0  0  0999 V2000
  188.3280  177.5080  141.5220 N   0  0  0  0  0  0  0  0  0  0  0  0
  187.5230  177.7140  142.5820 C   0  0  0  0  0  0  0  0  0  0  0  0
  186.3880  178.4050  140.8120 C   0  0  0  0  0  0  0  0  0  0  0  0
  184.6750  178.4650  145.5080 C   0  0  0  0  0  3  0  0  0  0  0  0
  183.4300  179.0030  145.1730 C   0  0  0  0  0  3  0  0  0  0  0  0
  187.7950  177.4190  143.9160 C   0  0  0  0  0  3  0  0  0  0  0  0
  184.0710  179.0620  142.8370 C   0  0  0  0  0  3  0  0  0  0  0  0
  187.1500  178.4920  138.0470 C   0  0  0  0  0  0  0  0  0  0  0  0
  184.3990  179.5460  140.1490 O   0  0  0  0  0  0  0  0  0  0  0  0
  187.5340  178.8000  136.9290 O   0  0  0  0  0  0  0  0  0  0  0  0
  185.3230  178.5300  143.1570 C   0  0  0  0  0  0  0  0  0  0  0  0
  183.1280  179.3000  143.8410 C   0  0  0  0  0  3  0  0  0  0  0  0
  185.6260  178.2230  144.5120 C   0  0  0  0  0  0  0  0  0  0  0  0
  187.6350  177.9280  140.4400 C   0  0  0  0  0  0  0  0  0  0  0  0
  186.3170  178.2650  142.2000 C   0  0  0  0  0  0  0  0  0  0  0  0
  185.6810  178.6280  138.3650 C   0  0  0  0  0  2  0  0  0  0  0  0
  186.8370  177.6850  144.8480 N   0  0  0  0  0  0  0  0  0  0  0  0
  189.3390  178.5690  138.9480 F   0  0  0  0  0  0  0  0  0  0  0  0
  188.1380  177.8870  139.0230 C   0  0  2  0  0  3  0  0  0  0  0  0
  185.4300  178.9090  139.8160 C   0  0  0  0  0  0  0  0  0  0  0  0
  189.6480  176.8870  141.5350 C   0  0  0  0  0  2  0  0  0  0  0  0
  191.6810  177.9150  145.1690 C   0  0  0  0  0  3  0  0  0  0  0  0
  190.3730  177.2420  142.7900 C   0  0  0  0  0  0  0  0  0  0  0  0
  190.7030  178.5750  143.0550 C   0  0  0  0  0  3  0  0  0  0  0  0
  191.3580  178.9120  144.2430 C   0  0  0  0  0  3  0  0  0  0  0  0
  191.3450  176.5820  144.9090 C   0  0  0  0  0  3  0  0  0  0  0  0
  190.6900  176.2470  143.7210 C   0  0  0  0  0  3  0  0  0  0  0  0
  1 21  1  0  0  0  0
  1  2  1  0  0  0  0
  2  6  1  0  0  0  0
  3 15  1  0  0  0  0
  5  4  1  0  0  0  0
  6 17  2  0  0  0  0
  7 11  2  0  0  0  0
  7 12  1  0  0  0  0
  8 16  1  0  0  0  0
  8 19  1  0  0  0  0
 10  8  2  0  0  0  0
 11 13  1  0  0  0  0
 12  5  2  0  0  0  0
 13 17  1  0  0  0  0
 13  4  2  0  0  0  0
 14  3  2  0  0  0  0
 14  1  1  0  0  0  0
 15  2  2  0  0  0  0
 15 11  1  0  0  0  0
 16 20  1  0  0  0  0
 19 18  1  1  0  0  0
 19 14  1  0  0  0  0
 20  9  2  0  0  0  0
 20  3  1  0  0  0  0
 21 23  1  0  0  0  0
 23 24  2  0  0  0  0
 23 27  1  0  0  0  0
 24 25  1  0  0  0  0
 25 22  2  0  0  0  0
 26 22  1  0  0  0  0
 27 26  2  0  0  0  0
M  END
>  <MODEL>
8

>  <REMARK>
 VINA RESULT:      -8.3      2.560      5.087
  Name = 
  2 active torsions:
  status: ('A' for Active; 'I' for Inactive)
    1  A    between atoms: N_1  and  C_15
    2  A    between atoms: C_9  and  C_15
                            x       y       z     vdW  Elec       q    Type
                         _______ _______ _______ _____ _____    ______ ____

>  <TORSDO>
F 2

$$$$
=
 OpenBabel11052413523D

 27 31  0  0  1  0  0  0  0  0999 V2000
  186.3690  178.6140  139.8990 N   0  0  0  0  0  0  0  0  0  0  0  0
  187.0870  178.3360  141.0030 C   0  0  0  0  0  0  0  0  0  0  0  0
  184.9920  178.5530  141.6790 C   0  0  0  0  0  0  0  0  0  0  0  0
  188.8530  177.4380  144.6510 C   0  0  0  0  0  3  0  0  0  0  0  0
  188.0870  177.3570  145.8160 C   0  0  0  0  0  3  0  0  0  0  0  0
  188.4580  178.0990  141.0780 C   0  0  0  0  0  3  0  0  0  0  0  0
  186.0890  177.8920  144.5530 C   0  0  0  0  0  3  0  0  0  0  0  0
  182.6270  179.2030  140.1890 C   0  0  0  0  0  0  0  0  0  0  0  0
  183.6210  178.6820  143.6300 O   0  0  0  0  0  0  0  0  0  0  0  0
  181.6720  179.7420  139.6520 O   0  0  0  0  0  0  0  0  0  0  0  0
  186.8430  177.9830  143.3800 C   0  0  0  0  0  0  0  0  0  0  0  0
  186.7080  177.5820  145.7670 C   0  0  0  0  0  3  0  0  0  0  0  0
  188.2450  177.7470  143.4310 C   0  0  0  0  0  0  0  0  0  0  0  0
  185.0880  178.7450  140.3090 C   0  0  0  0  0  0  0  0  0  0  0  0
  186.2880  178.2890  142.1260 C   0  0  0  0  0  0  0  0  0  0  0  0
  182.4380  178.6120  141.5650 C   0  0  0  0  0  2  0  0  0  0  0  0
  189.0020  177.8120  142.2940 N   0  0  0  0  0  0  0  0  0  0  0  0
  184.1790  180.2230  138.7180 F   0  0  0  0  0  0  0  0  0  0  0  0
  183.9200  179.0550  139.4140 C   0  0  2  0  0  3  0  0  0  0  0  0
  183.6980  178.6280  142.3760 C   0  0  0  0  0  0  0  0  0  0  0  0
  186.8640  178.6820  138.5270 C   0  0  0  0  0  2  0  0  0  0  0  0
  186.7130  174.8330  136.6420 C   0  0  0  0  0  3  0  0  0  0  0  0
  186.8060  177.3350  137.8900 C   0  0  0  0  0  0  0  0  0  0  0  0
  185.6160  176.8870  137.3060 C   0  0  0  0  0  3  0  0  0  0  0  0
  185.5680  175.6360  136.6850 C   0  0  0  0  0  3  0  0  0  0  0  0
  187.9060  175.2830  137.2190 C   0  0  0  0  0  3  0  0  0  0  0  0
  187.9520  176.5340  137.8400 C   0  0  0  0  0  3  0  0  0  0  0  0
  1 14  1  0  0  0  0
  1  2  1  0  0  0  0
  2  6  2  0  0  0  0
  2 15  1  0  0  0  0
  3 15  1  0  0  0  0
  3 20  1  0  0  0  0
  4  5  2  0  0  0  0
  6 17  1  0  0  0  0
  7 12  2  0  0  0  0
  8 16  1  0  0  0  0
 10  8  2  0  0  0  0
 11 13  1  0  0  0  0
 11  7  1  0  0  0  0
 12  5  1  0  0  0  0
 13  4  1  0  0  0  0
 14  3  2  0  0  0  0
 15 11  2  0  0  0  0
 16 20  1  0  0  0  0
 17 13  2  0  0  0  0
 19 18  1  1  0  0  0
 19  8  1  0  0  0  0
 19 14  1  0  0  0  0
 20  9  2  0  0  0  0
 21  1  1  0  0  0  0
 22 25  2  0  0  0  0
 22 26  1  0  0  0  0
 23 21  1  0  0  0  0
 24 23  2  0  0  0  0
 25 24  1  0  0  0  0
 26 27  2  0  0  0  0
 27 23  1  0  0  0  0
M  END
>  <MODEL>
9

>  <REMARK>
 VINA RESULT:      -8.3      2.833      4.792
  Name = 
  2 active torsions:
  status: ('A' for Active; 'I' for Inactive)
    1  A    between atoms: N_1  and  C_15
    2  A    between atoms: C_9  and  C_15
                            x       y       z     vdW  Elec       q    Type
                         _______ _______ _______ _____ _____    ______ ____

>  <TORSDO>
F 2

$$$$
