=
 OpenBabel11052415463D

 34 37  0  0  1  0  0  0  0  0999 V2000
  181.7980  179.9020  137.6630 C   0  0  1  0  0  0  0  0  0  0  0  0
  179.3450  178.3790  140.4890 C   0  0  0  0  0  2  0  0  0  0  0  0
  179.3340  179.7480  139.8240 C   0  0  0  0  0  2  0  0  0  0  0  0
  182.6120  180.6820  138.5090 O   0  0  0  0  0  0  0  0  0  0  0  0
  182.5610  178.9840  136.9380 O   0  0  0  0  0  1  0  0  0  0  0  0
  180.2270  177.4020  139.7250 C   0  0  0  0  0  2  0  0  0  0  0  0
  181.6490  177.4320  140.2840 C   0  0  2  0  0  3  0  0  0  0  0  0
  180.6740  180.4640  139.9510 C   0  0  0  0  0  2  0  0  0  0  0  0
  182.5370  178.5840  139.7710 C   0  0  1  0  0  3  0  0  0  0  0  0
  181.7590  179.7540  139.1440 C   0  0  1  0  0  0  0  0  0  0  0  0
  180.7930  182.1160  136.9890 C   0  0  0  0  0  3  0  0  0  0  0  0
  178.9320  182.2140  135.4430 C   0  0  0  0  0  3  0  0  0  0  0  0
  179.8630  182.8630  136.2590 C   0  0  0  0  0  3  0  0  0  0  0  0
  179.8610  180.0720  136.0830 C   0  0  0  0  0  3  0  0  0  0  0  0
  180.7870  180.7150  136.9120 C   0  0  0  0  0  0  0  0  0  0  0  0
  178.9310  180.8200  135.3530 C   0  0  0  0  0  3  0  0  0  0  0  0
  184.0930  177.9530  141.5720 C   0  0  1  0  0  3  0  0  0  0  0  0
  183.4300  179.0820  140.9080 C   0  0  1  0  0  3  0  0  0  0  0  0
  185.2130  178.8980  140.4530 S   0  0  0  0  0  0  0  0  0  0  0  0
  184.3260  178.2310  143.0690 C   0  0  2  0  0  3  0  0  0  0  0  0
  183.4800  179.3450  143.7010 C   0  0  0  0  0  2  0  0  0  0  0  0
  182.3070  178.7720  144.4810 C   0  0  0  0  0  2  0  0  0  0  0  0
  181.0390  178.8440  143.6520 C   0  0  0  0  0  1  0  0  0  0  0  0
  185.8130  178.3980  143.3730 C   0  0  0  0  0  2  0  0  0  0  0  0
  186.2970  177.4000  144.4180 C   0  0  0  0  0  2  0  0  0  0  0  0
  187.7170  176.9540  144.1080 C   0  0  1  0  0  3  0  0  0  0  0  0
  188.1660  177.5760  142.7960 C   0  0  0  0  0  1  0  0  0  0  0  0
  188.6630  177.3070  145.2590 C   0  0  1  0  0  3  0  0  0  0  0  0
  189.8450  178.1180  144.7620 C   0  0  0  0  0  1  0  0  0  0  0  0
  187.9960  178.0070  146.2660 O   0  0  0  0  0  1  0  0  0  0  0  0
  182.3330  176.1030  140.0000 C   0  0  0  0  0  2  0  0  0  0  0  0
  183.0050  176.1160  138.6360 C   0  0  0  0  0  2  0  0  0  0  0  0
  182.5600  174.9170  137.8210 C   0  0  0  0  0  2  0  0  0  0  0  0
  183.5160  174.7090  136.6650 C   0  0  0  0  0  1  0  0  0  0  0  0
  1  5  1  6  0  0  0
  1  4  1  0  0  0  0
  1 10  1  0  0  0  0
  3  8  1  0  0  0  0
  3  2  1  0  0  0  0
  4 10  1  0  0  0  0
  6  7  1  0  0  0  0
  6  2  1  0  0  0  0
  7 31  1  6  0  0  0
  9  7  1  0  0  0  0
  9 18  1  1  0  0  0
 10  9  1  0  0  0  0
 10  8  1  1  0  0  0
 12 13  1  0  0  0  0
 13 11  2  0  0  0  0
 14 15  2  0  0  0  0
 15 11  1  0  0  0  0
 15  1  1  0  0  0  0
 16 12  2  0  0  0  0
 16 14  1  0  0  0  0
 17 20  1  1  0  0  0
 18 19  1  6  0  0  0
 18 17  1  0  0  0  0
 19 17  1  0  0  0  0
 20 24  1  6  0  0  0
 20 21  1  0  0  0  0
 21 22  1  0  0  0  0
 23 22  1  0  0  0  0
 24 25  1  0  0  0  0
 26 27  1  6  0  0  0
 26 25  1  0  0  0  0
 26 28  1  0  0  0  0
 28 29  1  6  0  0  0
 28 30  1  0  0  0  0
 32 31  1  0  0  0  0
 33 32  1  0  0  0  0
 34 33  1  0  0  0  0
M  END
>  <MODEL>
1

>  <REMARK>
 VINA RESULT:      -5.7      0.000      0.000
  Name = 
  12 active torsions:
  status: ('A' for Active; 'I' for Inactive)
    1  A    between atoms: C_1  and  C_20
    2  A    between atoms: C_3  and  C_13
    3  A    between atoms: C_4  and  C_16
    4  A    between atoms: C_6  and  C_28
    5  A    between atoms: C_7  and  C_11
    6  A    between atoms: C_7  and  C_29
    7  A    between atoms: C_13  and  C_27
    8  A    between atoms: C_16  and  C_28
    9  A    between atoms: C_18  and  C_33
   10  A    between atoms: C_25  and  C_27
   11  A    between atoms: C_26  and  C_28
   12  A    between atoms: C_26  and  C_29
                            x       y       z     vdW  Elec       q    Type
                         _______ _______ _______ _____ _____    ______ ____

>  <TORSDO>
F 12

$$$$
=
 OpenBabel11052415463D

 34 37  0  0  1  0  0  0  0  0999 V2000
  182.7480  179.7010  139.0780 C   0  0  1  0  0  0  0  0  0  0  0  0
  184.3360  176.2410  137.7260 C   0  0  0  0  0  2  0  0  0  0  0  0
  182.8870  176.5950  138.0290 C   0  0  0  0  0  2  0  0  0  0  0  0
  182.5990  179.3330  140.4310 O   0  0  0  0  0  0  0  0  0  0  0  0
  183.5410  180.8430  138.9520 O   0  0  0  0  0  1  0  0  0  0  0  0
  185.2040  177.4880  137.6490 C   0  0  0  0  0  2  0  0  0  0  0  0
  185.8060  177.7930  139.0200 C   0  0  2  0  0  3  0  0  0  0  0  0
  182.7050  177.1170  139.4500 C   0  0  0  0  0  2  0  0  0  0  0  0
  184.8760  178.5400  140.0000 C   0  0  1  0  0  3  0  0  0  0  0  0
  183.3840  178.4740  139.6310 C   0  0  1  0  0  0  0  0  0  0  0  0
  180.2260  179.7210  138.9860 C   0  0  0  0  0  3  0  0  0  0  0  0
  179.0610  179.6560  136.8640 C   0  0  0  0  0  3  0  0  0  0  0  0
  179.0320  179.7140  138.2610 C   0  0  0  0  0  3  0  0  0  0  0  0
  181.4810  179.6170  136.9180 C   0  0  0  0  0  3  0  0  0  0  0  0
  181.4570  179.6610  138.3160 C   0  0  0  0  0  0  0  0  0  0  0  0
  180.2860  179.6090  136.1920 C   0  0  0  0  0  3  0  0  0  0  0  0
  186.3560  178.5440  141.9670 C   0  0  1  0  0  3  0  0  0  0  0  0
  185.1030  178.0140  141.4170 C   0  0  1  0  0  3  0  0  0  0  0  0
  184.8570  179.3670  142.6520 S   0  0  0  0  0  0  0  0  0  0  0  0
  187.0200  177.5470  142.9350 C   0  0  2  0  0  3  0  0  0  0  0  0
  186.3520  177.3720  144.3070 C   0  0  0  0  0  2  0  0  0  0  0  0
  187.2520  177.8720  145.4260 C   0  0  0  0  0  2  0  0  0  0  0  0
  186.4190  178.4650  146.5460 C   0  0  0  0  0  1  0  0  0  0  0  0
  188.5190  177.8120  143.0570 C   0  0  0  0  0  2  0  0  0  0  0  0
  189.3480  176.6090  142.6290 C   0  0  0  0  0  2  0  0  0  0  0  0
  190.8060  176.8050  143.0120 C   0  0  1  0  0  3  0  0  0  0  0  0
  191.5670  177.3730  141.8250 C   0  0  0  0  0  1  0  0  0  0  0  0
  190.9300  177.6990  144.2490 C   0  0  1  0  0  3  0  0  0  0  0  0
  191.3750  176.8980  145.4580 C   0  0  0  0  0  1  0  0  0  0  0  0
  191.8160  178.7540  144.0240 O   0  0  0  0  0  1  0  0  0  0  0  0
  187.0930  178.5840  138.8450 C   0  0  0  0  0  2  0  0  0  0  0  0
  188.3080  177.7230  139.1490 C   0  0  0  0  0  2  0  0  0  0  0  0
  189.4160  178.0090  138.1520 C   0  0  0  0  0  2  0  0  0  0  0  0
  188.9520  179.0630  137.1700 C   0  0  0  0  0  1  0  0  0  0  0  0
  1  5  1  6  0  0  0
  1 10  1  0  0  0  0
  1  4  1  0  0  0  0
  2  3  1  0  0  0  0
  3  8  1  0  0  0  0
  6  2  1  0  0  0  0
  6  7  1  0  0  0  0
  7 31  1  6  0  0  0
  7  9  1  0  0  0  0
  9 18  1  1  0  0  0
 10  8  1  6  0  0  0
 10  9  1  0  0  0  0
 10  4  1  0  0  0  0
 12 13  1  0  0  0  0
 13 11  2  0  0  0  0
 14 15  2  0  0  0  0
 15 11  1  0  0  0  0
 15  1  1  0  0  0  0
 16 12  2  0  0  0  0
 16 14  1  0  0  0  0
 17 19  1  0  0  0  0
 17 20  1  1  0  0  0
 18 17  1  0  0  0  0
 18 19  1  1  0  0  0
 20 24  1  1  0  0  0
 20 21  1  0  0  0  0
 21 22  1  0  0  0  0
 22 23  1  0  0  0  0
 25 26  1  0  0  0  0
 25 24  1  0  0  0  0
 26 27  1  6  0  0  0
 26 28  1  0  0  0  0
 28 29  1  1  0  0  0
 30 28  1  0  0  0  0
 31 32  1  0  0  0  0
 33 32  1  0  0  0  0
 34 33  1  0  0  0  0
M  END
>  <MODEL>
2

>  <REMARK>
 VINA RESULT:      -5.7      2.382      3.979
  Name = 
  12 active torsions:
  status: ('A' for Active; 'I' for Inactive)
    1  A    between atoms: C_1  and  C_20
    2  A    between atoms: C_3  and  C_13
    3  A    between atoms: C_4  and  C_16
    4  A    between atoms: C_6  and  C_28
    5  A    between atoms: C_7  and  C_11
    6  A    between atoms: C_7  and  C_29
    7  A    between atoms: C_13  and  C_27
    8  A    between atoms: C_16  and  C_28
    9  A    between atoms: C_18  and  C_33
   10  A    between atoms: C_25  and  C_27
   11  A    between atoms: C_26  and  C_28
   12  A    between atoms: C_26  and  C_29
                            x       y       z     vdW  Elec       q    Type
                         _______ _______ _______ _____ _____    ______ ____

>  <TORSDO>
F 12

$$$$
=
 OpenBabel11052415463D

 34 37  0  0  1  0  0  0  0  0999 V2000
  183.2460  179.7000  139.1230 C   0  0  1  0  0  0  0  0  0  0  0  0
  184.5070  176.2940  137.3540 C   0  0  0  0  0  2  0  0  0  0  0  0
  183.1720  176.6130  138.0130 C   0  0  0  0  0  2  0  0  0  0  0  0
  183.4440  179.3100  140.4630 O   0  0  0  0  0  0  0  0  0  0  0  0
  183.9640  180.8610  138.8270 O   0  0  0  0  0  1  0  0  0  0  0  0
  185.3070  177.5600  137.0890 C   0  0  0  0  0  2  0  0  0  0  0  0
  186.2250  177.8580  138.2740 C   0  0  2  0  0  3  0  0  0  0  0  0
  183.3400  177.1110  139.4440 C   0  0  0  0  0  2  0  0  0  0  0  0
  185.5550  178.5700  139.4670 C   0  0  1  0  0  3  0  0  0  0  0  0
  184.0190  178.4790  139.4780 C   0  0  1  0  0  0  0  0  0  0  0  0
  180.7810  179.6410  139.6600 C   0  0  0  0  0  3  0  0  0  0  0  0
  179.1260  179.6110  137.8930 C   0  0  0  0  0  3  0  0  0  0  0  0
  179.4440  179.6190  139.2550 C   0  0  0  0  0  3  0  0  0  0  0  0
  181.4840  179.6500  137.3430 C   0  0  0  0  0  3  0  0  0  0  0  0
  181.8080  179.6440  138.7040 C   0  0  0  0  0  0  0  0  0  0  0  0
  180.1450  179.6290  136.9370 C   0  0  0  0  0  3  0  0  0  0  0  0
  187.3420  178.7750  141.1480 C   0  0  1  0  0  3  0  0  0  0  0  0
  186.1350  178.0280  140.7740 C   0  0  1  0  0  3  0  0  0  0  0  0
  185.8630  179.2360  142.1470 S   0  0  0  0  0  0  0  0  0  0  0  0
  188.3510  177.8860  141.8980 C   0  0  2  0  0  3  0  0  0  0  0  0
  189.1420  176.8790  141.0520 C   0  0  0  0  0  2  0  0  0  0  0  0
  189.9850  177.5830  140.0000 C   0  0  0  0  0  2  0  0  0  0  0  0
  190.9350  176.6010  139.3420 C   0  0  0  0  0  1  0  0  0  0  0  0
  187.7060  177.2290  143.1170 C   0  0  0  0  0  2  0  0  0  0  0  0
  188.6070  177.2930  144.3430 C   0  0  0  0  0  2  0  0  0  0  0  0
  187.8440  177.8470  145.5350 C   0  0  1  0  0  3  0  0  0  0  0  0
  186.3720  177.4920  145.4000 C   0  0  0  0  0  1  0  0  0  0  0  0
  188.4360  177.3320  146.8500 C   0  0  1  0  0  3  0  0  0  0  0  0
  189.9290  177.0950  146.7190 C   0  0  0  0  0  1  0  0  0  0  0  0
  188.1850  178.2180  147.8990 O   0  0  0  0  0  1  0  0  0  0  0  0
  187.4150  178.6780  137.8000 C   0  0  0  0  0  2  0  0  0  0  0  0
  187.7510  178.3650  136.3500 C   0  0  0  0  0  2  0  0  0  0  0  0
  189.0670  177.6160  136.2660 C   0  0  0  0  0  2  0  0  0  0  0  0
  188.8000  176.1260  136.2450 C   0  0  0  0  0  1  0  0  0  0  0  0
  1  5  1  6  0  0  0
  1 10  1  0  0  0  0
  1  4  1  0  0  0  0
  2  3  1  0  0  0  0
  3  8  1  0  0  0  0
  6  2  1  0  0  0  0
  6  7  1  0  0  0  0
  7 31  1  6  0  0  0
  7  9  1  0  0  0  0
  9 10  1  0  0  0  0
  9 18  1  1  0  0  0
 10  8  1  6  0  0  0
 10  4  1  0  0  0  0
 12 13  2  0  0  0  0
 13 11  1  0  0  0  0
 14 15  1  0  0  0  0
 15  1  1  0  0  0  0
 15 11  2  0  0  0  0
 16 14  2  0  0  0  0
 16 12  1  0  0  0  0
 17 20  1  1  0  0  0
 17 19  1  0  0  0  0
 18 17  1  0  0  0  0
 18 19  1  1  0  0  0
 20 21  1  6  0  0  0
 20 24  1  0  0  0  0
 22 21  1  0  0  0  0
 23 22  1  0  0  0  0
 24 25  1  0  0  0  0
 25 26  1  0  0  0  0
 26 27  1  6  0  0  0
 26 28  1  0  0  0  0
 28 29  1  6  0  0  0
 28 30  1  0  0  0  0
 32 31  1  0  0  0  0
 33 32  1  0  0  0  0
 34 33  1  0  0  0  0
M  END
>  <MODEL>
3

>  <REMARK>
 VINA RESULT:      -5.7      2.684      4.588
  Name = 
  12 active torsions:
  status: ('A' for Active; 'I' for Inactive)
    1  A    between atoms: C_1  and  C_20
    2  A    between atoms: C_3  and  C_13
    3  A    between atoms: C_4  and  C_16
    4  A    between atoms: C_6  and  C_28
    5  A    between atoms: C_7  and  C_11
    6  A    between atoms: C_7  and  C_29
    7  A    between atoms: C_13  and  C_27
    8  A    between atoms: C_16  and  C_28
    9  A    between atoms: C_18  and  C_33
   10  A    between atoms: C_25  and  C_27
   11  A    between atoms: C_26  and  C_28
   12  A    between atoms: C_26  and  C_29
                            x       y       z     vdW  Elec       q    Type
                         _______ _______ _______ _____ _____    ______ ____

>  <TORSDO>
F 12

$$$$
=
 OpenBabel11052415463D

 34 37  0  0  1  0  0  0  0  0999 V2000
  191.0380  177.7720  143.5760 C   0  0  1  0  0  0  0  0  0  0  0  0
  187.3850  176.7990  142.1510 C   0  0  0  0  0  2  0  0  0  0  0  0
  188.1580  176.2210  143.3290 C   0  0  0  0  0  2  0  0  0  0  0  0
  191.7640  176.7090  143.0000 O   0  0  0  0  0  0  0  0  0  0  0  0
  191.5560  179.0070  143.1780 O   0  0  0  0  0  1  0  0  0  0  0  0
  187.9920  178.1140  141.6860 C   0  0  0  0  0  2  0  0  0  0  0  0
  189.0230  177.8570  140.5890 C   0  0  2  0  0  3  0  0  0  0  0  0
  189.5450  175.7320  142.9270 C   0  0  0  0  0  2  0  0  0  0  0  0
  190.4200  177.4250  141.0810 C   0  0  1  0  0  3  0  0  0  0  0  0
  190.4480  176.8980  142.5270 C   0  0  1  0  0  0  0  0  0  0  0  0
  189.6040  178.0900  145.6280 C   0  0  0  0  0  3  0  0  0  0  0  0
  190.2420  177.1160  147.7510 C   0  0  0  0  0  3  0  0  0  0  0  0
  189.3470  177.8680  146.9830 C   0  0  0  0  0  3  0  0  0  0  0  0
  191.6500  176.8060  145.8060 C   0  0  0  0  0  3  0  0  0  0  0  0
  190.7640  177.5690  145.0360 C   0  0  0  0  0  0  0  0  0  0  0  0
  191.3920  176.5840  147.1620 C   0  0  0  0  0  3  0  0  0  0  0  0
  191.0980  176.9400  138.7640 C   0  0  1  0  0  3  0  0  0  0  0  0
  191.0000  176.3860  140.1200 C   0  0  1  0  0  3  0  0  0  0  0  0
  192.7210  176.8520  139.6330 S   0  0  0  0  0  0  0  0  0  0  0  0
  190.9030  175.8540  137.6910 C   0  0  2  0  0  3  0  0  0  0  0  0
  189.4800  175.3020  137.5210 C   0  0  0  0  0  2  0  0  0  0  0  0
  188.9760  175.5010  136.1000 C   0  0  0  0  0  2  0  0  0  0  0  0
  189.7530  176.6090  135.4160 C   0  0  0  0  0  1  0  0  0  0  0  0
  191.9360  174.7390  137.8410 C   0  0  0  0  0  2  0  0  0  0  0  0
  192.5280  174.3250  136.5000 C   0  0  0  0  0  2  0  0  0  0  0  0
  194.0100  174.6560  136.4480 C   0  0  1  0  0  3  0  0  0  0  0  0
  194.1850  176.1300  136.1170 C   0  0  0  0  0  1  0  0  0  0  0  0
  194.6990  174.2820  137.7630 C   0  0  1  0  0  3  0  0  0  0  0  0
  195.0470  172.8050  137.7940 C   0  0  0  0  0  1  0  0  0  0  0  0
  195.8500  175.0460  137.9670 O   0  0  0  0  0  1  0  0  0  0  0  0
  189.1570  179.0970  139.7180 C   0  0  0  0  0  2  0  0  0  0  0  0
  188.6610  178.8290  138.3070 C   0  0  0  0  0  2  0  0  0  0  0  0
  187.3620  178.0450  138.3480 C   0  0  0  0  0  2  0  0  0  0  0  0
  186.6280  178.2160  137.0350 C   0  0  0  0  0  1  0  0  0  0  0  0
  1  5  1  6  0  0  0
  1 15  1  0  0  0  0
  2  3  1  0  0  0  0
  4  1  1  0  0  0  0
  6  2  1  0  0  0  0
  7 31  1  1  0  0  0
  7  9  1  0  0  0  0
  7  6  1  0  0  0  0
  8  3  1  0  0  0  0
  9 18  1  6  0  0  0
  9 10  1  0  0  0  0
 10  8  1  1  0  0  0
 10  4  1  0  0  0  0
 10  1  1  0  0  0  0
 11 13  1  0  0  0  0
 13 12  2  0  0  0  0
 14 16  2  0  0  0  0
 15 11  2  0  0  0  0
 15 14  1  0  0  0  0
 16 12  1  0  0  0  0
 17 20  1  6  0  0  0
 17 19  1  0  0  0  0
 17 18  1  0  0  0  0
 18 19  1  1  0  0  0
 20 21  1  1  0  0  0
 20 24  1  0  0  0  0
 22 21  1  0  0  0  0
 23 22  1  0  0  0  0
 25 24  1  0  0  0  0
 26 27  1  1  0  0  0
 26 25  1  0  0  0  0
 26 28  1  0  0  0  0
 28 29  1  6  0  0  0
 28 30  1  0  0  0  0
 32 33  1  0  0  0  0
 32 31  1  0  0  0  0
 34 33  1  0  0  0  0
M  END
>  <MODEL>
4

>  <REMARK>
 VINA RESULT:      -5.6      6.132     10.660
  Name = 
  12 active torsions:
  status: ('A' for Active; 'I' for Inactive)
    1  A    between atoms: C_1  and  C_20
    2  A    between atoms: C_3  and  C_13
    3  A    between atoms: C_4  and  C_16
    4  A    between atoms: C_6  and  C_28
    5  A    between atoms: C_7  and  C_11
    6  A    between atoms: C_7  and  C_29
    7  A    between atoms: C_13  and  C_27
    8  A    between atoms: C_16  and  C_28
    9  A    between atoms: C_18  and  C_33
   10  A    between atoms: C_25  and  C_27
   11  A    between atoms: C_26  and  C_28
   12  A    between atoms: C_26  and  C_29
                            x       y       z     vdW  Elec       q    Type
                         _______ _______ _______ _____ _____    ______ ____

>  <TORSDO>
F 12

$$$$
=
 OpenBabel11052415463D

 34 37  0  0  1  0  0  0  0  0999 V2000
  188.3820  176.9200  143.7060 C   0  0  1  0  0  0  0  0  0  0  0  0
  191.9760  178.5580  142.8610 C   0  0  0  0  0  2  0  0  0  0  0  0
  190.9590  178.9380  143.9270 C   0  0  0  0  0  2  0  0  0  0  0  0
  187.5730  177.8760  143.0600 O   0  0  0  0  0  0  0  0  0  0  0  0
  188.1450  175.6390  143.2030 O   0  0  0  0  0  1  0  0  0  0  0  0
  191.6760  177.1860  142.2760 C   0  0  0  0  0  2  0  0  0  0  0  0
  190.7800  177.3250  141.0460 C   0  0  2  0  0  3  0  0  0  0  0  0
  189.5790  179.2100  143.3390 C   0  0  0  0  0  2  0  0  0  0  0  0
  189.2740  177.4930  141.3400 C   0  0  1  0  0  3  0  0  0  0  0  0
  188.9550  177.9330  142.7790 C   0  0  1  0  0  0  0  0  0  0  0  0
  189.5440  176.7280  145.9380 C   0  0  0  0  0  3  0  0  0  0  0  0
  188.4620  177.4820  147.9690 C   0  0  0  0  0  3  0  0  0  0  0  0
  189.5670  176.9200  147.3220 C   0  0  0  0  0  3  0  0  0  0  0  0
  187.3120  177.6640  145.8460 C   0  0  0  0  0  3  0  0  0  0  0  0
  188.4100  177.0890  145.1960 C   0  0  0  0  0  0  0  0  0  0  0  0
  187.3350  177.8550  147.2310 C   0  0  0  0  0  3  0  0  0  0  0  0
  187.9870  177.7390  139.2560 C   0  0  1  0  0  3  0  0  0  0  0  0
  188.6660  178.4700  140.3330 C   0  0  1  0  0  3  0  0  0  0  0  0
  186.8230  178.4780  140.4790 S   0  0  0  0  0  0  0  0  0  0  0  0
  188.0570  178.5010  137.9200 C   0  0  2  0  0  3  0  0  0  0  0  0
  186.7570  178.5840  137.1070 C   0  0  0  0  0  2  0  0  0  0  0  0
  185.8050  177.4560  137.4710 C   0  0  0  0  0  2  0  0  0  0  0  0
  185.0040  177.0290  136.2550 C   0  0  0  0  0  1  0  0  0  0  0  0
  189.2320  178.0200  137.0720 C   0  0  0  0  0  2  0  0  0  0  0  0
  188.7810  177.5040  135.7120 C   0  0  0  0  0  2  0  0  0  0  0  0
  189.3240  176.1050  135.4680 C   0  0  1  0  0  3  0  0  0  0  0  0
  190.8230  176.1810  135.2270 C   0  0  0  0  0  1  0  0  0  0  0  0
  188.9810  175.1760  136.6350 C   0  0  1  0  0  3  0  0  0  0  0  0
  187.6470  174.4890  136.4110 C   0  0  0  0  0  1  0  0  0  0  0  0
  189.9800  174.2200  136.8320 O   0  0  0  0  0  1  0  0  0  0  0  0
  190.9840  176.1270  140.1320 C   0  0  0  0  0  2  0  0  0  0  0  0
  191.5220  176.5600  138.7770 C   0  0  0  0  0  2  0  0  0  0  0  0
  193.0380  176.6060  138.8050 C   0  0  0  0  0  2  0  0  0  0  0  0
  193.5920  175.5480  137.8740 C   0  0  0  0  0  1  0  0  0  0  0  0
  1  5  1  6  0  0  0
  1 15  1  0  0  0  0
  2  3  1  0  0  0  0
  4  1  1  0  0  0  0
  6  2  1  0  0  0  0
  7 31  1  6  0  0  0
  7  9  1  0  0  0  0
  7  6  1  0  0  0  0
  8  3  1  0  0  0  0
  9 18  1  6  0  0  0
  9 10  1  0  0  0  0
 10  4  1  0  0  0  0
 10  8  1  1  0  0  0
 10  1  1  0  0  0  0
 11 13  1  0  0  0  0
 13 12  2  0  0  0  0
 14 16  2  0  0  0  0
 15 14  1  0  0  0  0
 15 11  2  0  0  0  0
 16 12  1  0  0  0  0
 17 20  1  6  0  0  0
 17 18  1  0  0  0  0
 17 19  1  0  0  0  0
 18 19  1  1  0  0  0
 20 24  1  6  0  0  0
 21 22  1  0  0  0  0
 21 20  1  0  0  0  0
 23 22  1  0  0  0  0
 25 24  1  0  0  0  0
 26 27  1  1  0  0  0
 26 25  1  0  0  0  0
 26 28  1  0  0  0  0
 28 29  1  6  0  0  0
 28 30  1  0  0  0  0
 32 33  1  0  0  0  0
 32 31  1  0  0  0  0
 34 33  1  0  0  0  0
M  END
>  <MODEL>
5

>  <REMARK>
 VINA RESULT:      -5.5      5.166      9.997
  Name = 
  12 active torsions:
  status: ('A' for Active; 'I' for Inactive)
    1  A    between atoms: C_1  and  C_20
    2  A    between atoms: C_3  and  C_13
    3  A    between atoms: C_4  and  C_16
    4  A    between atoms: C_6  and  C_28
    5  A    between atoms: C_7  and  C_11
    6  A    between atoms: C_7  and  C_29
    7  A    between atoms: C_13  and  C_27
    8  A    between atoms: C_16  and  C_28
    9  A    between atoms: C_18  and  C_33
   10  A    between atoms: C_25  and  C_27
   11  A    between atoms: C_26  and  C_28
   12  A    between atoms: C_26  and  C_29
                            x       y       z     vdW  Elec       q    Type
                         _______ _______ _______ _____ _____    ______ ____

>  <TORSDO>
F 12

$$$$
=
 OpenBabel11052415463D

 34 37  0  0  1  0  0  0  0  0999 V2000
  191.0240  177.7250  143.5260 C   0  0  1  0  0  0  0  0  0  0  0  0
  187.2990  176.9370  142.1750 C   0  0  0  0  0  2  0  0  0  0  0  0
  188.0650  176.3210  143.3370 C   0  0  0  0  0  2  0  0  0  0  0  0
  191.6830  176.6270  142.9370 O   0  0  0  0  0  0  0  0  0  0  0  0
  191.5950  178.9320  143.1170 O   0  0  0  0  0  1  0  0  0  0  0  0
  187.9620  178.2210  141.6970 C   0  0  0  0  0  2  0  0  0  0  0  0
  188.9570  177.9120  140.5790 C   0  0  2  0  0  3  0  0  0  0  0  0
  189.4170  175.7630  142.9080 C   0  0  0  0  0  2  0  0  0  0  0  0
  190.3400  177.4100  141.0450 C   0  0  1  0  0  3  0  0  0  0  0  0
  190.3690  176.8820  142.4890 C   0  0  1  0  0  0  0  0  0  0  0  0
  189.6290  178.0840  145.5990 C   0  0  0  0  0  3  0  0  0  0  0  0
  190.2810  177.1070  147.7170 C   0  0  0  0  0  3  0  0  0  0  0  0
  189.3890  177.8740  146.9590 C   0  0  0  0  0  3  0  0  0  0  0  0
  191.6500  176.7580  145.7510 C   0  0  0  0  0  3  0  0  0  0  0  0
  190.7690  177.5360  144.9920 C   0  0  0  0  0  0  0  0  0  0  0  0
  191.4100  176.5480  147.1130 C   0  0  0  0  0  3  0  0  0  0  0  0
  190.8350  176.8570  138.6970 C   0  0  1  0  0  3  0  0  0  0  0  0
  190.8470  176.3440  140.0730 C   0  0  1  0  0  3  0  0  0  0  0  0
  192.5230  176.7990  139.4370 S   0  0  0  0  0  0  0  0  0  0  0  0
  190.5620  175.7380  137.6760 C   0  0  2  0  0  3  0  0  0  0  0  0
  191.0610  175.9770  136.2430 C   0  0  0  0  0  2  0  0  0  0  0  0
  192.3020  175.1510  135.9460 C   0  0  0  0  0  2  0  0  0  0  0  0
  192.3370  173.9160  136.8250 C   0  0  0  0  0  1  0  0  0  0  0  0
  189.0960  175.3090  137.7070 C   0  0  0  0  0  2  0  0  0  0  0  0
  188.5440  175.0610  136.3100 C   0  0  0  0  0  2  0  0  0  0  0  0
  187.5890  173.8800  136.3180 C   0  0  1  0  0  3  0  0  0  0  0  0
  188.3380  172.6280  136.7480 C   0  0  0  0  0  1  0  0  0  0  0  0
  186.3830  174.1590  137.2190 C   0  0  1  0  0  3  0  0  0  0  0  0
  185.1970  174.6450  136.4060 C   0  0  0  0  0  1  0  0  0  0  0  0
  186.0250  173.0250  137.9510 O   0  0  0  0  0  1  0  0  0  0  0  0
  189.1360  179.1450  139.7060 C   0  0  0  0  0  2  0  0  0  0  0  0
  188.6810  178.8730  138.2810 C   0  0  0  0  0  2  0  0  0  0  0  0
  187.2960  178.2530  138.2810 C   0  0  0  0  0  2  0  0  0  0  0  0
  186.7650  178.2040  136.8650 C   0  0  0  0  0  1  0  0  0  0  0  0
  1  5  1  6  0  0  0
  1 15  1  0  0  0  0
  2  3  1  0  0  0  0
  4  1  1  0  0  0  0
  6  2  1  0  0  0  0
  7 31  1  1  0  0  0
  7  9  1  0  0  0  0
  7  6  1  0  0  0  0
  8  3  1  0  0  0  0
  9 18  1  6  0  0  0
  9 10  1  0  0  0  0
 10  8  1  1  0  0  0
 10  4  1  0  0  0  0
 10  1  1  0  0  0  0
 11 13  1  0  0  0  0
 13 12  2  0  0  0  0
 14 16  2  0  0  0  0
 15 11  2  0  0  0  0
 15 14  1  0  0  0  0
 16 12  1  0  0  0  0
 17 20  1  6  0  0  0
 17 19  1  0  0  0  0
 17 18  1  0  0  0  0
 18 19  1  1  0  0  0
 20 21  1  6  0  0  0
 20 24  1  0  0  0  0
 22 21  1  0  0  0  0
 22 23  1  0  0  0  0
 25 26  1  0  0  0  0
 25 24  1  0  0  0  0
 26 27  1  1  0  0  0
 26 28  1  0  0  0  0
 28 29  1  6  0  0  0
 28 30  1  0  0  0  0
 32 33  1  0  0  0  0
 32 31  1  0  0  0  0
 34 33  1  0  0  0  0
M  END
>  <MODEL>
6

>  <REMARK>
 VINA RESULT:      -5.5      5.745     10.574
  Name = 
  12 active torsions:
  status: ('A' for Active; 'I' for Inactive)
    1  A    between atoms: C_1  and  C_20
    2  A    between atoms: C_3  and  C_13
    3  A    between atoms: C_4  and  C_16
    4  A    between atoms: C_6  and  C_28
    5  A    between atoms: C_7  and  C_11
    6  A    between atoms: C_7  and  C_29
    7  A    between atoms: C_13  and  C_27
    8  A    between atoms: C_16  and  C_28
    9  A    between atoms: C_18  and  C_33
   10  A    between atoms: C_25  and  C_27
   11  A    between atoms: C_26  and  C_28
   12  A    between atoms: C_26  and  C_29
                            x       y       z     vdW  Elec       q    Type
                         _______ _______ _______ _____ _____    ______ ____

>  <TORSDO>
F 12

$$$$
=
 OpenBabel11052415463D

 34 37  0  0  1  0  0  0  0  0999 V2000
  182.7560  175.8820  138.1940 C   0  0  1  0  0  0  0  0  0  0  0  0
  182.1040  179.8620  137.9600 C   0  0  0  0  0  2  0  0  0  0  0  0
  181.6230  178.7410  137.0500 C   0  0  0  0  0  2  0  0  0  0  0  0
  183.7730  175.7920  137.2220 O   0  0  0  0  0  0  0  0  0  0  0  0
  183.1950  175.3920  139.4260 O   0  0  0  0  0  1  0  0  0  0  0  0
  182.6340  179.3140  139.2770 C   0  0  0  0  0  2  0  0  0  0  0  0
  184.1380  179.0640  139.1730 C   0  0  2  0  0  3  0  0  0  0  0  0
  182.7730  177.8890  136.5250 C   0  0  0  0  0  2  0  0  0  0  0  0
  184.5430  177.7370  138.4960 C   0  0  1  0  0  3  0  0  0  0  0  0
  183.4310  177.0920  137.6510 C   0  0  1  0  0  0  0  0  0  0  0  0
  181.3280  174.6560  136.5130 C   0  0  0  0  0  3  0  0  0  0  0  0
  178.9310  174.4870  136.8110 C   0  0  0  0  0  3  0  0  0  0  0  0
  180.0830  174.1990  136.0720 C   0  0  0  0  0  3  0  0  0  0  0  0
  180.2700  175.6860  138.4330 C   0  0  0  0  0  3  0  0  0  0  0  0
  181.4240  175.4120  137.6910 C   0  0  0  0  0  0  0  0  0  0  0  0
  179.0240  175.2290  137.9920 C   0  0  0  0  0  3  0  0  0  0  0  0
  186.9890  177.4880  138.3680 C   0  0  1  0  0  3  0  0  0  0  0  0
  185.7980  177.9600  137.6510 C   0  0  1  0  0  3  0  0  0  0  0  0
  186.4470  176.3450  137.0280 S   0  0  0  0  0  0  0  0  0  0  0  0
  188.2340  178.3220  138.0140 C   0  0  2  0  0  3  0  0  0  0  0  0
  189.0200  177.8890  136.7680 C   0  0  0  0  0  2  0  0  0  0  0  0
  190.2950  177.1540  137.1480 C   0  0  0  0  0  2  0  0  0  0  0  0
  190.0150  175.6750  137.3310 C   0  0  0  0  0  1  0  0  0  0  0  0
  189.1410  178.5020  139.2290 C   0  0  0  0  0  2  0  0  0  0  0  0
  188.3810  178.3310  140.5380 C   0  0  0  0  0  2  0  0  0  0  0  0
  189.1070  177.3560  141.4510 C   0  0  1  0  0  3  0  0  0  0  0  0
  190.6070  177.4870  141.2370 C   0  0  0  0  0  1  0  0  0  0  0  0
  188.7190  177.5860  142.9140 C   0  0  1  0  0  3  0  0  0  0  0  0
  187.9610  176.3960  143.4700 C   0  0  0  0  0  1  0  0  0  0  0  0
  189.8430  177.8440  143.7010 O   0  0  0  0  0  1  0  0  0  0  0  0
  184.7610  179.1320  140.5590 C   0  0  0  0  0  2  0  0  0  0  0  0
  184.0330  178.2160  141.5290 C   0  0  0  0  0  2  0  0  0  0  0  0
  184.6510  178.3180  142.9110 C   0  0  0  0  0  2  0  0  0  0  0  0
  183.6140  178.8230  143.8920 C   0  0  0  0  0  1  0  0  0  0  0  0
  1  5  1  1  0  0  0
  2  6  1  0  0  0  0
  3  2  1  0  0  0  0
  4 10  1  0  0  0  0
  4  1  1  0  0  0  0
  7  6  1  0  0  0  0
  7 31  1  1  0  0  0
  8  3  1  0  0  0  0
  9 18  1  6  0  0  0
  9  7  1  0  0  0  0
 10  8  1  6  0  0  0
 10  1  1  0  0  0  0
 10  9  1  0  0  0  0
 11 15  1  0  0  0  0
 12 16  2  0  0  0  0
 13 11  2  0  0  0  0
 13 12  1  0  0  0  0
 15  1  1  0  0  0  0
 15 14  2  0  0  0  0
 16 14  1  0  0  0  0
 17 20  1  6  0  0  0
 18 19  1  6  0  0  0
 18 17  1  0  0  0  0
 19 17  1  0  0  0  0
 20 21  1  6  0  0  0
 20 24  1  0  0  0  0
 21 22  1  0  0  0  0
 22 23  1  0  0  0  0
 24 25  1  0  0  0  0
 25 26  1  0  0  0  0
 26 27  1  1  0  0  0
 26 28  1  0  0  0  0
 28 29  1  1  0  0  0
 28 30  1  0  0  0  0
 31 32  1  0  0  0  0
 32 33  1  0  0  0  0
 33 34  1  0  0  0  0
M  END
>  <MODEL>
7

>  <REMARK>
 VINA RESULT:      -5.0      3.079      5.685
  Name = 
  12 active torsions:
  status: ('A' for Active; 'I' for Inactive)
    1  A    between atoms: C_1  and  C_20
    2  A    between atoms: C_3  and  C_13
    3  A    between atoms: C_4  and  C_16
    4  A    between atoms: C_6  and  C_28
    5  A    between atoms: C_7  and  C_11
    6  A    between atoms: C_7  and  C_29
    7  A    between atoms: C_13  and  C_27
    8  A    between atoms: C_16  and  C_28
    9  A    between atoms: C_18  and  C_33
   10  A    between atoms: C_25  and  C_27
   11  A    between atoms: C_26  and  C_28
   12  A    between atoms: C_26  and  C_29
                            x       y       z     vdW  Elec       q    Type
                         _______ _______ _______ _____ _____    ______ ____

>  <TORSDO>
F 12

$$$$
=
 OpenBabel11052415463D

 34 37  0  0  1  0  0  0  0  0999 V2000
  184.0850  179.1820  139.5920 C   0  0  1  0  0  0  0  0  0  0  0  0
  180.3550  177.7320  140.1420 C   0  0  0  0  0  2  0  0  0  0  0  0
  181.6820  177.2480  140.7100 C   0  0  0  0  0  2  0  0  0  0  0  0
  184.5230  178.2400  138.6380 O   0  0  0  0  0  0  0  0  0  0  0  0
  184.1830  180.4830  139.0940 O   0  0  0  0  0  1  0  0  0  0  0  0
  180.4850  179.1270  139.5490 C   0  0  0  0  0  2  0  0  0  0  0  0
  180.8250  179.0340  138.0620 C   0  0  2  0  0  3  0  0  0  0  0  0
  182.7080  176.9640  139.6190 C   0  0  0  0  0  2  0  0  0  0  0  0
  182.3140  178.7930  137.7380 C   0  0  1  0  0  3  0  0  0  0  0  0
  183.1400  178.2510  138.9170 C   0  0  1  0  0  0  0  0  0  0  0  0
  183.7970  179.0060  142.0930 C   0  0  0  0  0  3  0  0  0  0  0  0
  185.6470  178.3520  143.5120 C   0  0  0  0  0  3  0  0  0  0  0  0
  184.3080  178.7280  143.3630 C   0  0  0  0  0  3  0  0  0  0  0  0
  185.9620  178.5280  141.1180 C   0  0  0  0  0  3  0  0  0  0  0  0
  184.6270  178.9180  140.9650 C   0  0  0  0  0  0  0  0  0  0  0  0
  186.4740  178.2510  142.3890 C   0  0  0  0  0  3  0  0  0  0  0  0
  181.1310  177.2350  136.2430 C   0  0  1  0  0  3  0  0  0  0  0  0
  182.4270  177.8620  136.5300 C   0  0  1  0  0  3  0  0  0  0  0  0
  181.5580  178.5920  135.0710 S   0  0  0  0  0  0  0  0  0  0  0  0
  181.3000  175.8230  135.6530 C   0  0  2  0  0  3  0  0  0  0  0  0
  180.4260  174.7150  136.2570 C   0  0  0  0  0  2  0  0  0  0  0  0
  179.6970  175.2030  137.4990 C   0  0  0  0  0  2  0  0  0  0  0  0
  180.0570  174.3420  138.6940 C   0  0  0  0  0  1  0  0  0  0  0  0
  182.7740  175.4220  135.5960 C   0  0  0  0  0  2  0  0  0  0  0  0
  183.0760  174.2330  136.4990 C   0  0  0  0  0  2  0  0  0  0  0  0
  184.4550  174.3770  137.1220 C   0  0  1  0  0  3  0  0  0  0  0  0
  184.9370  173.0160  137.5980 C   0  0  0  0  0  1  0  0  0  0  0  0
  185.4360  175.0160  136.1360 C   0  0  1  0  0  3  0  0  0  0  0  0
  186.3990  175.9460  136.8500 C   0  0  0  0  0  1  0  0  0  0  0  0
  186.1490  174.0440  135.4300 O   0  0  0  0  0  1  0  0  0  0  0  0
  180.3530  180.2950  137.3550 C   0  0  0  0  0  2  0  0  0  0  0  0
  181.0580  181.5250  137.9040 C   0  0  0  0  0  2  0  0  0  0  0  0
  180.8060  182.7200  137.0040 C   0  0  0  0  0  2  0  0  0  0  0  0
  180.4050  182.2390  135.6260 C   0  0  0  0  0  1  0  0  0  0  0  0
  1  5  1  6  0  0  0
  1 15  1  0  0  0  0
  2  3  1  0  0  0  0
  4 10  1  0  0  0  0
  4  1  1  0  0  0  0
  6  2  1  0  0  0  0
  7 31  1  6  0  0  0
  7  6  1  0  0  0  0
  8  3  1  0  0  0  0
  9 18  1  6  0  0  0
  9  7  1  0  0  0  0
  9 10  1  0  0  0  0
 10  1  1  0  0  0  0
 10  8  1  1  0  0  0
 11 13  1  0  0  0  0
 13 12  2  0  0  0  0
 14 16  2  0  0  0  0
 15 14  1  0  0  0  0
 15 11  2  0  0  0  0
 16 12  1  0  0  0  0
 17 20  1  6  0  0  0
 17 18  1  0  0  0  0
 18 19  1  6  0  0  0
 19 17  1  0  0  0  0
 20 24  1  1  0  0  0
 20 21  1  0  0  0  0
 21 22  1  0  0  0  0
 22 23  1  0  0  0  0
 24 25  1  0  0  0  0
 25 26  1  0  0  0  0
 26 27  1  6  0  0  0
 28 29  1  1  0  0  0
 28 26  1  0  0  0  0
 30 28  1  0  0  0  0
 31 32  1  0  0  0  0
 33 32  1  0  0  0  0
 34 33  1  0  0  0  0
M  END
>  <MODEL>
8

>  <REMARK>
 VINA RESULT:      -4.8      2.495      7.103
  Name = 
  12 active torsions:
  status: ('A' for Active; 'I' for Inactive)
    1  A    between atoms: C_1  and  C_20
    2  A    between atoms: C_3  and  C_13
    3  A    between atoms: C_4  and  C_16
    4  A    between atoms: C_6  and  C_28
    5  A    between atoms: C_7  and  C_11
    6  A    between atoms: C_7  and  C_29
    7  A    between atoms: C_13  and  C_27
    8  A    between atoms: C_16  and  C_28
    9  A    between atoms: C_18  and  C_33
   10  A    between atoms: C_25  and  C_27
   11  A    between atoms: C_26  and  C_28
   12  A    between atoms: C_26  and  C_29
                            x       y       z     vdW  Elec       q    Type
                         _______ _______ _______ _____ _____    ______ ____

>  <TORSDO>
F 12

$$$$
=
 OpenBabel11052415463D

 34 37  0  0  1  0  0  0  0  0999 V2000
  190.3000  177.9190  143.7730 C   0  0  1  0  0  0  0  0  0  0  0  0
  186.5610  176.4030  143.5800 C   0  0  0  0  0  2  0  0  0  0  0  0
  187.8140  175.8260  144.2230 C   0  0  0  0  0  2  0  0  0  0  0  0
  190.8760  177.1540  142.7380 O   0  0  0  0  0  0  0  0  0  0  0  0
  190.4350  179.2860  143.5210 O   0  0  0  0  0  1  0  0  0  0  0  0
  186.7380  177.8790  143.2550 C   0  0  0  0  0  2  0  0  0  0  0  0
  187.2670  178.0430  141.8310 C   0  0  2  0  0  3  0  0  0  0  0  0
  188.9770  175.7320  143.2420 C   0  0  0  0  0  2  0  0  0  0  0  0
  188.7900  177.8580  141.6660 C   0  0  1  0  0  3  0  0  0  0  0  0
  189.4690  177.1190  142.8330 C   0  0  1  0  0  0  0  0  0  0  0  0
  189.9400  177.8260  146.2690 C   0  0  0  0  0  3  0  0  0  0  0  0
  191.3280  176.4250  147.6720 C   0  0  0  0  0  3  0  0  0  0  0  0
  190.2740  177.3320  147.5330 C   0  0  0  0  0  3  0  0  0  0  0  0
  191.7120  176.5030  145.2830 C   0  0  0  0  0  3  0  0  0  0  0  0
  190.6670  177.4220  145.1390 C   0  0  0  0  0  0  0  0  0  0  0  0
  192.0470  176.0090  146.5480 C   0  0  0  0  0  3  0  0  0  0  0  0
  189.1520  178.1190  139.2450 C   0  0  1  0  0  3  0  0  0  0  0  0
  189.0760  177.1480  140.3420 C   0  0  1  0  0  3  0  0  0  0  0  0
  190.8020  177.5000  139.7840 S   0  0  0  0  0  0  0  0  0  0  0  0
  188.6610  177.5160  137.9160 C   0  0  2  0  0  3  0  0  0  0  0  0
  188.9240  178.3410  136.6470 C   0  0  0  0  0  2  0  0  0  0  0  0
  189.4940  177.4760  135.5350 C   0  0  0  0  0  2  0  0  0  0  0  0
  190.2670  176.3090  136.1180 C   0  0  0  0  0  1  0  0  0  0  0  0
  187.2040  177.0710  138.0180 C   0  0  0  0  0  2  0  0  0  0  0  0
  186.2740  177.9700  137.2130 C   0  0  0  0  0  2  0  0  0  0  0  0
  185.2540  177.1380  136.4550 C   0  0  1  0  0  3  0  0  0  0  0  0
  185.7900  176.8260  135.0660 C   0  0  0  0  0  1  0  0  0  0  0  0
  184.9050  175.8640  137.2290 C   0  0  1  0  0  3  0  0  0  0  0  0
  183.4910  175.9290  137.7760 C   0  0  0  0  0  1  0  0  0  0  0  0
  185.0540  174.7280  136.4310 O   0  0  0  0  0  1  0  0  0  0  0  0
  186.8640  179.4070  141.2940 C   0  0  0  0  0  2  0  0  0  0  0  0
  185.3510  179.5610  141.2760 C   0  0  0  0  0  2  0  0  0  0  0  0
  184.7430  178.6450  140.2300 C   0  0  0  0  0  2  0  0  0  0  0  0
  183.5430  179.3210  139.6030 C   0  0  0  0  0  1  0  0  0  0  0  0
  1  5  1  6  0  0  0
  1 15  1  0  0  0  0
  2  3  1  0  0  0  0
  4 10  1  0  0  0  0
  4  1  1  0  0  0  0
  6  2  1  0  0  0  0
  7 31  1  1  0  0  0
  7  6  1  0  0  0  0
  8  3  1  0  0  0  0
  9 18  1  6  0  0  0
  9  7  1  0  0  0  0
  9 10  1  0  0  0  0
 10  8  1  1  0  0  0
 10  1  1  0  0  0  0
 11 13  1  0  0  0  0
 13 12  2  0  0  0  0
 14 16  2  0  0  0  0
 15 14  1  0  0  0  0
 15 11  2  0  0  0  0
 16 12  1  0  0  0  0
 17 20  1  6  0  0  0
 17 19  1  0  0  0  0
 17 18  1  0  0  0  0
 18 19  1  1  0  0  0
 20 21  1  6  0  0  0
 20 24  1  0  0  0  0
 22 23  1  0  0  0  0
 22 21  1  0  0  0  0
 25 24  1  0  0  0  0
 26 27  1  6  0  0  0
 26 25  1  0  0  0  0
 26 28  1  0  0  0  0
 28 29  1  6  0  0  0
 30 28  1  0  0  0  0
 32 31  1  0  0  0  0
 33 32  1  0  0  0  0
 34 33  1  0  0  0  0
M  END
>  <MODEL>
9

>  <REMARK>
 VINA RESULT:      -4.8      3.745     10.083
  Name = 
  12 active torsions:
  status: ('A' for Active; 'I' for Inactive)
    1  A    between atoms: C_1  and  C_20
    2  A    between atoms: C_3  and  C_13
    3  A    between atoms: C_4  and  C_16
    4  A    between atoms: C_6  and  C_28
    5  A    between atoms: C_7  and  C_11
    6  A    between atoms: C_7  and  C_29
    7  A    between atoms: C_13  and  C_27
    8  A    between atoms: C_16  and  C_28
    9  A    between atoms: C_18  and  C_33
   10  A    between atoms: C_25  and  C_27
   11  A    between atoms: C_26  and  C_28
   12  A    between atoms: C_26  and  C_29
                            x       y       z     vdW  Elec       q    Type
                         _______ _______ _______ _____ _____    ______ ____

>  <TORSDO>
F 12

$$$$
