=
 OpenBabel11052414473D

 32 35  0  0  1  0  0  0  0  0999 V2000
  184.5530  178.7940  144.5380 C   0  0  0  0  0  0  0  0  0  0  0  0
  183.6950  179.1380  145.5280 F   0  0  0  0  0  0  0  0  0  0  0  0
  186.3220  178.0810  142.4950 C   0  0  0  0  0  3  0  0  0  0  0  0
  185.6780  178.0160  144.8280 C   0  0  0  0  0  3  0  0  0  0  0  0
  185.1950  178.8590  142.2030 C   0  0  0  0  0  0  0  0  0  0  0  0
  184.3090  179.2100  143.2250 C   0  0  0  0  0  3  0  0  0  0  0  0
  186.5640  177.6570  143.8050 C   0  0  0  0  0  0  0  0  0  0  0  0
  187.7510  176.7960  144.1020 C   0  0  0  0  0  2  0  0  0  0  0  0
  189.0710  177.5720  144.0810 C   0  0  2  0  0  3  0  0  0  0  0  0
  190.1890  176.7520  143.4510 C   0  0  0  0  0  2  0  0  0  0  0  0
  190.8430  177.6080  141.9870 S   0  0  0  0  0  0  0  0  0  0  0  0
  189.4210  177.1360  140.9630 C   0  0  0  0  0  2  0  0  0  0  0  0
  189.6120  177.6580  139.5540 C   0  0  0  0  0  2  0  0  0  0  0  0
  189.0010  179.4020  138.2710 O   0  0  0  0  0  1  0  0  0  0  0  0
  188.5290  178.5650  139.2240 N   0  0  0  0  0  2  0  0  0  0  0  0
  189.4280  177.9750  145.3710 O   0  0  0  0  0  0  0  0  0  0  0  0
  189.2200  176.8830  146.1430 N   0  0  0  0  0  2  0  0  0  0  0  0
  189.9390  177.1070  147.3860 C   0  0  0  0  0  2  0  0  0  0  0  0
  187.8100  177.7740  148.4920 C   0  0  0  0  0  1  0  0  0  0  0  0
  189.2430  178.1800  148.2030 C   0  0  0  0  0  2  0  0  0  0  0  0
  184.9230  179.2830  140.8020 C   0  0  0  0  0  2  0  0  0  0  0  0
  183.6930  178.2820  138.6420 O   0  0  0  0  0  0  0  0  0  0  0  0
  183.5230  177.0120  140.7320 O   0  0  0  0  0  0  0  0  0  0  0  0
  183.5300  178.3930  140.1320 S   0  0  0  0  0  0  0  0  0  0  0  0
  182.0640  179.2920  140.4930 N   0  0  0  0  0  0  0  0  0  0  0  0
  180.7340  178.7000  140.0960 C   0  0  2  0  0  0  0  0  0  0  0  0
  180.7690  177.3670  139.5990 O   0  0  0  0  0  0  0  0  0  0  0  0
  180.9360  178.3480  138.6470 C   0  0  0  0  0  2  0  0  0  0  0  0
  181.3290  178.4800  141.4320 C   0  0  2  0  0  3  0  0  0  0  0  0
  180.6550  179.3790  142.4460 C   0  0  0  0  0  3  0  0  0  0  0  0
  179.3820  178.7140  142.9250 C   0  0  0  0  0  2  0  0  0  0  0  0
  180.6230  178.6760  143.7880 C   0  0  0  0  0  2  0  0  0  0  0  0
  1  4  1  0  0  0  0
  1  2  1  0  0  0  0
  3  7  1  0  0  0  0
  5  3  2  0  0  0  0
  5  6  1  0  0  0  0
  6  1  2  0  0  0  0
  7  8  1  0  0  0  0
  7  4  2  0  0  0  0
  9 10  1  1  0  0  0
  9  8  1  0  0  0  0
  9 16  1  0  0  0  0
 11 10  1  0  0  0  0
 12 11  1  0  0  0  0
 13 12  1  0  0  0  0
 14 15  1  0  0  0  0
 15 13  1  0  0  0  0
 16 17  1  0  0  0  0
 17 18  1  0  0  0  0
 18 20  1  0  0  0  0
 20 19  1  0  0  0  0
 21  5  1  0  0  0  0
 22 24  2  0  0  0  0
 24 25  1  0  0  0  0
 24 23  2  0  0  0  0
 24 21  1  0  0  0  0
 25 29  1  0  0  0  0
 26 28  1  6  0  0  0
 26 25  1  0  0  0  0
 26 29  1  0  0  0  0
 27 26  1  0  0  0  0
 28 27  1  0  0  0  0
 29 30  1  1  0  0  0
 30 31  1  0  0  0  0
 30 32  1  0  0  0  0
 31 32  1  0  0  0  0
M  END
>  <MODEL>
1

>  <REMARK>
 VINA RESULT:      -6.7      0.000      0.000
  Name = 
  15 active torsions:
  status: ('A' for Active; 'I' for Inactive)
    1  A    between atoms: C_1  and  C_30
    2  A    between atoms: N_2  and  S_27
    3  A    between atoms: C_6  and  S_17
    4  A    between atoms: C_6  and  C_31
    5  A    between atoms: C_7  and  C_26
    6  A    between atoms: C_7  and  C_31
    7  A    between atoms: O_9  and  C_31
    8  A    between atoms: O_9  and  N_32
    9  A    between atoms: C_12  and  C_28
   10  A    between atoms: C_12  and  N_32
   11  A    between atoms: C_16  and  C_20
   12  A    between atoms: C_16  and  S_27
   13  A    between atoms: S_17  and  C_29
   14  A    between atoms: C_18  and  N_25
   15  A    between atoms: C_18  and  C_29
                            x       y       z     vdW  Elec       q    Type
                         _______ _______ _______ _____ _____    ______ ____

>  <TORSDO>
F 15

$$$$
=
 OpenBabel11052414473D

 32 35  0  0  1  0  0  0  0  0999 V2000
  185.5600  178.4740  144.8290 C   0  0  0  0  0  0  0  0  0  0  0  0
  185.0730  178.8190  146.0450 F   0  0  0  0  0  0  0  0  0  0  0  0
  186.5680  177.7670  142.3190 C   0  0  0  0  0  3  0  0  0  0  0  0
  185.0030  179.0260  143.6710 C   0  0  0  0  0  3  0  0  0  0  0  0
  187.1270  177.2140  143.4770 C   0  0  0  0  0  0  0  0  0  0  0  0
  186.6250  177.5730  144.7320 C   0  0  0  0  0  3  0  0  0  0  0  0
  185.5070  178.6730  142.4130 C   0  0  0  0  0  0  0  0  0  0  0  0
  184.9390  179.2860  141.1730 C   0  0  0  0  0  2  0  0  0  0  0  0
  184.6650  178.2590  140.0710 C   0  0  2  0  0  3  0  0  0  0  0  0
  184.9850  178.8220  138.6930 C   0  0  0  0  0  2  0  0  0  0  0  0
  185.2050  177.4670  137.5000 S   0  0  0  0  0  0  0  0  0  0  0  0
  187.0130  177.5100  137.6490 C   0  0  0  0  0  2  0  0  0  0  0  0
  187.5650  178.6580  136.8290 C   0  0  0  0  0  2  0  0  0  0  0  0
  188.5400  178.9160  138.8410 O   0  0  0  0  0  1  0  0  0  0  0  0
  188.6710  179.2710  137.5410 N   0  0  0  0  0  2  0  0  0  0  0  0
  183.3390  177.8180  140.1250 O   0  0  0  0  0  0  0  0  0  0  0  0
  182.6270  178.9120  140.4820 N   0  0  0  0  0  2  0  0  0  0  0  0
  181.2800  178.4540  140.7790 C   0  0  0  0  0  2  0  0  0  0  0  0
  181.3580  179.1390  143.1720 C   0  0  0  0  0  1  0  0  0  0  0  0
  180.6530  179.3370  141.8430 C   0  0  0  0  0  2  0  0  0  0  0  0
  188.2760  176.2730  143.3760 C   0  0  0  0  0  2  0  0  0  0  0  0
  190.9420  176.3680  143.6330 O   0  0  0  0  0  0  0  0  0  0  0  0
  189.6790  178.4020  144.1620 O   0  0  0  0  0  0  0  0  0  0  0  0
  189.6880  176.9000  144.2670 S   0  0  0  0  0  0  0  0  0  0  0  0
  189.5940  176.3410  145.9310 N   0  0  0  0  0  0  0  0  0  0  0  0
  190.7180  176.6870  146.8770 C   0  0  2  0  0  0  0  0  0  0  0  0
  191.6970  177.5910  146.3760 O   0  0  0  0  0  0  0  0  0  0  0  0
  191.9460  176.2610  146.1200 C   0  0  0  0  0  2  0  0  0  0  0  0
  189.5110  177.5320  146.7390 C   0  0  2  0  0  3  0  0  0  0  0  0
  188.5760  177.2810  147.9020 C   0  0  0  0  0  3  0  0  0  0  0  0
  188.8380  178.3130  148.9790 C   0  0  0  0  0  2  0  0  0  0  0  0
  187.6480  178.4690  148.0580 C   0  0  0  0  0  2  0  0  0  0  0  0
  1  2  1  0  0  0  0
  3  7  2  0  0  0  0
  3  5  1  0  0  0  0
  4  1  2  0  0  0  0
  5  6  2  0  0  0  0
  6  1  1  0  0  0  0
  7  4  1  0  0  0  0
  8  7  1  0  0  0  0
  9 10  1  6  0  0  0
  9 16  1  0  0  0  0
  9  8  1  0  0  0  0
 11 12  1  0  0  0  0
 11 10  1  0  0  0  0
 13 15  1  0  0  0  0
 13 12  1  0  0  0  0
 15 14  1  0  0  0  0
 16 17  1  0  0  0  0
 17 18  1  0  0  0  0
 18 20  1  0  0  0  0
 20 19  1  0  0  0  0
 21  5  1  0  0  0  0
 21 24  1  0  0  0  0
 22 24  2  0  0  0  0
 23 24  2  0  0  0  0
 24 25  1  0  0  0  0
 25 29  1  0  0  0  0
 25 26  1  0  0  0  0
 26 28  1  1  0  0  0
 27 26  1  0  0  0  0
 28 27  1  0  0  0  0
 29 26  1  0  0  0  0
 29 30  1  1  0  0  0
 30 32  1  0  0  0  0
 30 31  1  0  0  0  0
 32 31  1  0  0  0  0
M  END
>  <MODEL>
2

>  <REMARK>
 VINA RESULT:      -6.6      1.658      7.654
  Name = 
  15 active torsions:
  status: ('A' for Active; 'I' for Inactive)
    1  A    between atoms: C_1  and  C_30
    2  A    between atoms: N_2  and  S_27
    3  A    between atoms: C_6  and  S_17
    4  A    between atoms: C_6  and  C_31
    5  A    between atoms: C_7  and  C_26
    6  A    between atoms: C_7  and  C_31
    7  A    between atoms: O_9  and  C_31
    8  A    between atoms: O_9  and  N_32
    9  A    between atoms: C_12  and  C_28
   10  A    between atoms: C_12  and  N_32
   11  A    between atoms: C_16  and  C_20
   12  A    between atoms: C_16  and  S_27
   13  A    between atoms: S_17  and  C_29
   14  A    between atoms: C_18  and  N_25
   15  A    between atoms: C_18  and  C_29
                            x       y       z     vdW  Elec       q    Type
                         _______ _______ _______ _____ _____    ______ ____

>  <TORSDO>
F 15

$$$$
=
 OpenBabel11052414473D

 32 35  0  0  1  0  0  0  0  0999 V2000
  185.4900  178.2470  144.6720 C   0  0  0  0  0  0  0  0  0  0  0  0
  184.8470  178.4240  145.8510 F   0  0  0  0  0  0  0  0  0  0  0  0
  186.8190  177.8860  142.2390 C   0  0  0  0  0  3  0  0  0  0  0  0
  185.0660  178.9400  143.5340 C   0  0  0  0  0  3  0  0  0  0  0  0
  187.2450  177.1920  143.3770 C   0  0  0  0  0  0  0  0  0  0  0  0
  186.5830  177.3780  144.5940 C   0  0  0  0  0  3  0  0  0  0  0  0
  185.7310  178.7610  142.3150 C   0  0  0  0  0  0  0  0  0  0  0  0
  185.3040  179.5260  141.1020 C   0  0  0  0  0  2  0  0  0  0  0  0
  184.3460  178.7370  140.2060 C   0  0  2  0  0  3  0  0  0  0  0  0
  183.4620  177.8040  141.0220 C   0  0  0  0  0  2  0  0  0  0  0  0
  181.8260  177.6540  140.2440 S   0  0  0  0  0  0  0  0  0  0  0  0
  181.0590  178.7930  141.4290 C   0  0  0  0  0  2  0  0  0  0  0  0
  180.2520  179.8370  140.6840 C   0  0  0  0  0  2  0  0  0  0  0  0
  180.2770  180.5020  142.8340 O   0  0  0  0  0  1  0  0  0  0  0  0
  179.8020  180.8550  141.6160 N   0  0  0  0  0  2  0  0  0  0  0  0
  185.0540  178.0190  139.2370 O   0  0  0  0  0  0  0  0  0  0  0  0
  185.7220  178.9610  138.5300 N   0  0  0  0  0  2  0  0  0  0  0  0
  186.6950  178.2560  137.7130 C   0  0  0  0  0  2  0  0  0  0  0  0
  188.9450  178.6340  138.7100 C   0  0  0  0  0  1  0  0  0  0  0  0
  187.7830  177.6660  138.5910 C   0  0  0  0  0  2  0  0  0  0  0  0
  188.4220  176.2830  143.3010 C   0  0  0  0  0  2  0  0  0  0  0  0
  191.0680  176.4100  143.7090 O   0  0  0  0  0  0  0  0  0  0  0  0
  189.7490  178.4180  144.1980 O   0  0  0  0  0  0  0  0  0  0  0  0
  189.7730  176.9150  144.2800 S   0  0  0  0  0  0  0  0  0  0  0  0
  189.5940  176.3270  145.9270 N   0  0  0  0  0  0  0  0  0  0  0  0
  190.6640  176.6620  146.9360 C   0  0  2  0  0  0  0  0  0  0  0  0
  191.6650  177.5760  146.5020 O   0  0  0  0  0  0  0  0  0  0  0  0
  191.9320  176.2510  146.2380 C   0  0  0  0  0  2  0  0  0  0  0  0
  189.4640  177.5050  146.7490 C   0  0  2  0  0  3  0  0  0  0  0  0
  188.4690  177.2320  147.8570 C   0  0  0  0  0  3  0  0  0  0  0  0
  188.6330  178.2800  148.9380 C   0  0  0  0  0  2  0  0  0  0  0  0
  187.4960  178.3900  147.9470 C   0  0  0  0  0  2  0  0  0  0  0  0
  1  2  1  0  0  0  0
  3  7  2  0  0  0  0
  3  5  1  0  0  0  0
  4  1  2  0  0  0  0
  5  6  2  0  0  0  0
  6  1  1  0  0  0  0
  7  4  1  0  0  0  0
  8  7  1  0  0  0  0
  9 10  1  1  0  0  0
  9  8  1  0  0  0  0
 11 10  1  0  0  0  0
 11 12  1  0  0  0  0
 13 12  1  0  0  0  0
 13 15  1  0  0  0  0
 15 14  1  0  0  0  0
 16  9  1  0  0  0  0
 17 16  1  0  0  0  0
 18 17  1  0  0  0  0
 18 20  1  0  0  0  0
 20 19  1  0  0  0  0
 21  5  1  0  0  0  0
 21 24  1  0  0  0  0
 22 24  2  0  0  0  0
 23 24  2  0  0  0  0
 24 25  1  0  0  0  0
 25 29  1  0  0  0  0
 25 26  1  0  0  0  0
 26 28  1  1  0  0  0
 27 26  1  0  0  0  0
 28 27  1  0  0  0  0
 29 26  1  0  0  0  0
 29 30  1  1  0  0  0
 30 32  1  0  0  0  0
 30 31  1  0  0  0  0
 32 31  1  0  0  0  0
M  END
>  <MODEL>
3

>  <REMARK>
 VINA RESULT:      -6.5      1.942      8.293
  Name = 
  15 active torsions:
  status: ('A' for Active; 'I' for Inactive)
    1  A    between atoms: C_1  and  C_30
    2  A    between atoms: N_2  and  S_27
    3  A    between atoms: C_6  and  S_17
    4  A    between atoms: C_6  and  C_31
    5  A    between atoms: C_7  and  C_26
    6  A    between atoms: C_7  and  C_31
    7  A    between atoms: O_9  and  C_31
    8  A    between atoms: O_9  and  N_32
    9  A    between atoms: C_12  and  C_28
   10  A    between atoms: C_12  and  N_32
   11  A    between atoms: C_16  and  C_20
   12  A    between atoms: C_16  and  S_27
   13  A    between atoms: S_17  and  C_29
   14  A    between atoms: C_18  and  N_25
   15  A    between atoms: C_18  and  C_29
                            x       y       z     vdW  Elec       q    Type
                         _______ _______ _______ _____ _____    ______ ____

>  <TORSDO>
F 15

$$$$
=
 OpenBabel11052414473D

 32 35  0  0  1  0  0  0  0  0999 V2000
  189.9180  176.1410  142.4490 C   0  0  0  0  0  0  0  0  0  0  0  0
  190.9030  175.2790  142.7970 F   0  0  0  0  0  0  0  0  0  0  0  0
  187.8880  177.9240  141.7310 C   0  0  0  0  0  3  0  0  0  0  0  0
  188.7620  176.2360  143.2300 C   0  0  0  0  0  3  0  0  0  0  0  0
  189.0440  177.8310  140.9490 C   0  0  0  0  0  0  0  0  0  0  0  0
  190.0610  176.9430  141.3110 C   0  0  0  0  0  3  0  0  0  0  0  0
  187.7450  177.1290  142.8730 C   0  0  0  0  0  0  0  0  0  0  0  0
  186.5210  177.2590  143.7230 C   0  0  0  0  0  2  0  0  0  0  0  0
  186.7230  178.1950  144.9180 C   0  0  2  0  0  3  0  0  0  0  0  0
  188.0650  177.9530  145.5950 C   0  0  0  0  0  2  0  0  0  0  0  0
  187.8120  177.4910  147.3360 S   0  0  0  0  0  0  0  0  0  0  0  0
  189.4710  176.7710  147.4790 C   0  0  0  0  0  2  0  0  0  0  0  0
  190.3420  177.2670  146.3440 C   0  0  0  0  0  2  0  0  0  0  0  0
  192.2390  176.5770  147.3390 O   0  0  0  0  0  1  0  0  0  0  0  0
  191.5030  176.4070  146.2150 N   0  0  0  0  0  2  0  0  0  0  0  0
  185.6780  178.0560  145.8370 O   0  0  0  0  0  0  0  0  0  0  0  0
  184.9930  179.2210  145.7580 N   0  0  0  0  0  2  0  0  0  0  0  0
  183.6430  178.8840  145.3410 C   0  0  0  0  0  2  0  0  0  0  0  0
  181.9890  179.0250  143.4840 C   0  0  0  0  0  1  0  0  0  0  0  0
  183.3930  179.3880  143.9310 C   0  0  0  0  0  2  0  0  0  0  0  0
  189.2070  178.7010  139.7510 C   0  0  0  0  0  2  0  0  0  0  0  0
  189.5440  178.0200  137.1810 O   0  0  0  0  0  0  0  0  0  0  0  0
  188.3270  176.4500  138.6180 O   0  0  0  0  0  0  0  0  0  0  0  0
  188.5460  177.9050  138.2970 S   0  0  0  0  0  0  0  0  0  0  0  0
  187.0600  178.7250  137.8380 N   0  0  0  0  0  0  0  0  0  0  0  0
  186.0620  177.9890  136.9770 C   0  0  2  0  0  0  0  0  0  0  0  0
  186.3400  176.6130  136.7410 O   0  0  0  0  0  0  0  0  0  0  0  0
  186.9030  177.4840  135.8360 C   0  0  0  0  0  2  0  0  0  0  0  0
  185.9940  177.9750  138.4550 C   0  0  2  0  0  3  0  0  0  0  0  0
  184.9200  178.9310  138.9260 C   0  0  0  0  0  3  0  0  0  0  0  0
  183.6820  178.1410  139.2970 C   0  0  0  0  0  2  0  0  0  0  0  0
  184.6070  178.6490  140.3810 C   0  0  0  0  0  2  0  0  0  0  0  0
  1  2  1  0  0  0  0
  1  4  1  0  0  0  0
  3  7  1  0  0  0  0
  5  6  1  0  0  0  0
  5  3  2  0  0  0  0
  6  1  2  0  0  0  0
  7  4  2  0  0  0  0
  7  8  1  0  0  0  0
  9  8  1  6  0  0  0
  9 10  1  0  0  0  0
  9 16  1  0  0  0  0
 10 11  1  0  0  0  0
 11 12  1  0  0  0  0
 13 12  1  0  0  0  0
 15 13  1  0  0  0  0
 15 14  1  0  0  0  0
 17 16  1  0  0  0  0
 18 17  1  0  0  0  0
 19 20  1  0  0  0  0
 20 18  1  0  0  0  0
 21  5  1  0  0  0  0
 22 24  2  0  0  0  0
 24 23  2  0  0  0  0
 24 21  1  0  0  0  0
 25 24  1  0  0  0  0
 25 29  1  0  0  0  0
 26 28  1  6  0  0  0
 26 25  1  0  0  0  0
 26 29  1  0  0  0  0
 27 26  1  0  0  0  0
 28 27  1  0  0  0  0
 29 30  1  6  0  0  0
 30 31  1  0  0  0  0
 30 32  1  0  0  0  0
 31 32  1  0  0  0  0
M  END
>  <MODEL>
4

>  <REMARK>
 VINA RESULT:      -6.3      3.158      5.842
  Name = 
  15 active torsions:
  status: ('A' for Active; 'I' for Inactive)
    1  A    between atoms: C_1  and  C_30
    2  A    between atoms: N_2  and  S_27
    3  A    between atoms: C_6  and  S_17
    4  A    between atoms: C_6  and  C_31
    5  A    between atoms: C_7  and  C_26
    6  A    between atoms: C_7  and  C_31
    7  A    between atoms: O_9  and  C_31
    8  A    between atoms: O_9  and  N_32
    9  A    between atoms: C_12  and  C_28
   10  A    between atoms: C_12  and  N_32
   11  A    between atoms: C_16  and  C_20
   12  A    between atoms: C_16  and  S_27
   13  A    between atoms: S_17  and  C_29
   14  A    between atoms: C_18  and  N_25
   15  A    between atoms: C_18  and  C_29
                            x       y       z     vdW  Elec       q    Type
                         _______ _______ _______ _____ _____    ______ ____

>  <TORSDO>
F 15

$$$$
=
 OpenBabel11052414473D

 32 35  0  0  1  0  0  0  0  0999 V2000
  189.2550  177.9330  140.0010 C   0  0  0  0  0  0  0  0  0  0  0  0
  189.9160  178.0710  138.8270 F   0  0  0  0  0  0  0  0  0  0  0  0
  187.8900  177.6460  142.4230 C   0  0  0  0  0  3  0  0  0  0  0  0
  188.0330  178.5840  140.1960 C   0  0  0  0  0  3  0  0  0  0  0  0
  189.1130  176.9940  142.2290 C   0  0  0  0  0  0  0  0  0  0  0  0
  189.7920  177.1340  141.0150 C   0  0  0  0  0  3  0  0  0  0  0  0
  187.3480  178.4400  141.4080 C   0  0  0  0  0  0  0  0  0  0  0  0
  186.0230  179.1050  141.6110 C   0  0  0  0  0  2  0  0  0  0  0  0
  184.8650  178.3330  140.9730 C   0  0  2  0  0  3  0  0  0  0  0  0
  184.1700  179.1600  139.8990 C   0  0  0  0  0  2  0  0  0  0  0  0
  183.8710  178.1420  138.4230 S   0  0  0  0  0  0  0  0  0  0  0  0
  185.6420  177.9990  138.0520 C   0  0  0  0  0  2  0  0  0  0  0  0
  185.8290  177.5700  136.6120 C   0  0  0  0  0  2  0  0  0  0  0  0
  187.3790  179.1830  136.8580 O   0  0  0  0  0  1  0  0  0  0  0  0
  187.0880  178.0900  136.1130 N   0  0  0  0  0  2  0  0  0  0  0  0
  183.9470  177.9250  141.9460 O   0  0  0  0  0  0  0  0  0  0  0  0
  182.9360  178.8210  141.8640 N   0  0  0  0  0  2  0  0  0  0  0  0
  182.4570  179.0350  143.2200 C   0  0  0  0  0  2  0  0  0  0  0  0
  180.1640  179.9820  143.0090 C   0  0  0  0  0  1  0  0  0  0  0  0
  180.9720  178.7310  143.3000 C   0  0  0  0  0  2  0  0  0  0  0  0
  189.6740  176.1240  143.3000 C   0  0  0  0  0  2  0  0  0  0  0  0
  191.1820  176.6080  145.4630 O   0  0  0  0  0  0  0  0  0  0  0  0
  190.0050  178.5080  144.4550 O   0  0  0  0  0  0  0  0  0  0  0  0
  189.9020  177.0480  144.8100 S   0  0  0  0  0  0  0  0  0  0  0  0
  188.5530  176.7080  145.8830 N   0  0  0  0  0  0  0  0  0  0  0  0
  188.4690  177.4440  147.1980 C   0  0  2  0  0  0  0  0  0  0  0  0
  189.4180  178.4880  147.3880 O   0  0  0  0  0  0  0  0  0  0  0  0
  189.8360  177.2390  147.7920 C   0  0  0  0  0  2  0  0  0  0  0  0
  187.8050  177.9380  145.9710 C   0  0  2  0  0  3  0  0  0  0  0  0
  186.3270  177.6200  146.0270 C   0  0  0  0  0  3  0  0  0  0  0  0
  185.6120  178.7200  146.7830 C   0  0  0  0  0  2  0  0  0  0  0  0
  185.5600  178.6870  145.2720 C   0  0  0  0  0  2  0  0  0  0  0  0
  1  4  2  0  0  0  0
  1  6  1  0  0  0  0
  2  1  1  0  0  0  0
  4  7  1  0  0  0  0
  5  3  1  0  0  0  0
  5 21  1  0  0  0  0
  6  5  2  0  0  0  0
  7  8  1  0  0  0  0
  7  3  2  0  0  0  0
  9 10  1  6  0  0  0
  9  8  1  0  0  0  0
  9 16  1  0  0  0  0
 11 10  1  0  0  0  0
 12 11  1  0  0  0  0
 13 12  1  0  0  0  0
 15 13  1  0  0  0  0
 15 14  1  0  0  0  0
 17 16  1  0  0  0  0
 17 18  1  0  0  0  0
 18 20  1  0  0  0  0
 19 20  1  0  0  0  0
 21 24  1  0  0  0  0
 23 24  2  0  0  0  0
 24 22  2  0  0  0  0
 24 25  1  0  0  0  0
 25 29  1  0  0  0  0
 25 26  1  0  0  0  0
 26 27  1  0  0  0  0
 26 28  1  1  0  0  0
 27 28  1  0  0  0  0
 29 30  1  1  0  0  0
 29 26  1  0  0  0  0
 30 31  1  0  0  0  0
 32 30  1  0  0  0  0
 32 31  1  0  0  0  0
M  END
>  <MODEL>
5

>  <REMARK>
 VINA RESULT:      -6.2      2.520      7.416
  Name = 
  15 active torsions:
  status: ('A' for Active; 'I' for Inactive)
    1  A    between atoms: C_1  and  C_30
    2  A    between atoms: N_2  and  S_27
    3  A    between atoms: C_6  and  S_17
    4  A    between atoms: C_6  and  C_31
    5  A    between atoms: C_7  and  C_26
    6  A    between atoms: C_7  and  C_31
    7  A    between atoms: O_9  and  C_31
    8  A    between atoms: O_9  and  N_32
    9  A    between atoms: C_12  and  C_28
   10  A    between atoms: C_12  and  N_32
   11  A    between atoms: C_16  and  C_20
   12  A    between atoms: C_16  and  S_27
   13  A    between atoms: S_17  and  C_29
   14  A    between atoms: C_18  and  N_25
   15  A    between atoms: C_18  and  C_29
                            x       y       z     vdW  Elec       q    Type
                         _______ _______ _______ _____ _____    ______ ____

>  <TORSDO>
F 15

$$$$
=
 OpenBabel11052414473D

 32 35  0  0  1  0  0  0  0  0999 V2000
  185.6600  178.1990  146.2810 C   0  0  0  0  0  0  0  0  0  0  0  0
  185.6700  178.0850  147.6310 F   0  0  0  0  0  0  0  0  0  0  0  0
  185.6370  178.4300  143.4950 C   0  0  0  0  0  3  0  0  0  0  0  0
  186.5910  177.4930  145.5130 C   0  0  0  0  0  3  0  0  0  0  0  0
  184.7040  179.1370  144.2630 C   0  0  0  0  0  0  0  0  0  0  0  0
  184.7130  179.0160  145.6560 C   0  0  0  0  0  3  0  0  0  0  0  0
  186.5800  177.6070  144.1180 C   0  0  0  0  0  0  0  0  0  0  0  0
  187.5500  176.8270  143.2880 C   0  0  0  0  0  2  0  0  0  0  0  0
  188.6530  177.6990  142.6840 C   0  0  2  0  0  3  0  0  0  0  0  0
  188.6620  177.6120  141.1640 C   0  0  0  0  0  2  0  0  0  0  0  0
  190.2790  177.0210  140.5800 S   0  0  0  0  0  0  0  0  0  0  0  0
  189.8820  177.3760  138.8450 C   0  0  0  0  0  2  0  0  0  0  0  0
  188.6260  178.2190  138.7710 C   0  0  0  0  0  2  0  0  0  0  0  0
  187.8960  179.4140  137.0090 O   0  0  0  0  0  1  0  0  0  0  0  0
  188.8760  179.3850  137.9430 N   0  0  0  0  0  2  0  0  0  0  0  0
  189.9030  177.3440  143.2010 O   0  0  0  0  0  0  0  0  0  0  0  0
  190.2570  178.3850  143.9910 N   0  0  0  0  0  2  0  0  0  0  0  0
  191.5570  178.0590  144.5540 C   0  0  0  0  0  2  0  0  0  0  0  0
  191.4670  176.5600  146.5400 C   0  0  0  0  0  1  0  0  0  0  0  0
  191.5720  176.6170  145.0270 C   0  0  0  0  0  2  0  0  0  0  0  0
  183.6810  179.9900  143.5960 C   0  0  0  0  0  2  0  0  0  0  0  0
  181.8430  178.2460  144.4680 O   0  0  0  0  0  0  0  0  0  0  0  0
  181.0900  180.0230  142.9560 O   0  0  0  0  0  0  0  0  0  0  0  0
  182.2030  179.0530  143.2530 S   0  0  0  0  0  0  0  0  0  0  0  0
  182.5270  177.9690  141.9080 N   0  0  0  0  0  0  0  0  0  0  0  0
  181.6070  178.0010  140.7120 C   0  0  2  0  0  0  0  0  0  0  0  0
  180.6320  179.0390  140.7050 O   0  0  0  0  0  0  0  0  0  0  0  0
  180.2410  177.8750  141.3290 C   0  0  0  0  0  2  0  0  0  0  0  0
  182.8360  178.8210  140.7860 C   0  0  2  0  0  3  0  0  0  0  0  0
  183.9290  178.1780  139.9590 C   0  0  0  0  0  3  0  0  0  0  0  0
  184.3340  179.1290  138.8520 C   0  0  0  0  0  2  0  0  0  0  0  0
  185.1960  178.9990  140.0880 C   0  0  0  0  0  2  0  0  0  0  0  0
  1  2  1  0  0  0  0
  3  7  2  0  0  0  0
  3  5  1  0  0  0  0
  4  1  2  0  0  0  0
  5  6  2  0  0  0  0
  6  1  1  0  0  0  0
  7  4  1  0  0  0  0
  8  7  1  0  0  0  0
  9 10  1  6  0  0  0
  9 16  1  0  0  0  0
  9  8  1  0  0  0  0
 11 10  1  0  0  0  0
 12 11  1  0  0  0  0
 13 12  1  0  0  0  0
 14 15  1  0  0  0  0
 15 13  1  0  0  0  0
 16 17  1  0  0  0  0
 17 18  1  0  0  0  0
 18 20  1  0  0  0  0
 20 19  1  0  0  0  0
 21  5  1  0  0  0  0
 23 24  2  0  0  0  0
 24 21  1  0  0  0  0
 24 22  2  0  0  0  0
 25 24  1  0  0  0  0
 26 29  1  0  0  0  0
 26 28  1  6  0  0  0
 26 25  1  0  0  0  0
 27 26  1  0  0  0  0
 27 28  1  0  0  0  0
 29 30  1  6  0  0  0
 29 25  1  0  0  0  0
 30 32  1  0  0  0  0
 31 30  1  0  0  0  0
 31 32  1  0  0  0  0
M  END
>  <MODEL>
6

>  <REMARK>
 VINA RESULT:      -6.1      2.075      3.107
  Name = 
  15 active torsions:
  status: ('A' for Active; 'I' for Inactive)
    1  A    between atoms: C_1  and  C_30
    2  A    between atoms: N_2  and  S_27
    3  A    between atoms: C_6  and  S_17
    4  A    between atoms: C_6  and  C_31
    5  A    between atoms: C_7  and  C_26
    6  A    between atoms: C_7  and  C_31
    7  A    between atoms: O_9  and  C_31
    8  A    between atoms: O_9  and  N_32
    9  A    between atoms: C_12  and  C_28
   10  A    between atoms: C_12  and  N_32
   11  A    between atoms: C_16  and  C_20
   12  A    between atoms: C_16  and  S_27
   13  A    between atoms: S_17  and  C_29
   14  A    between atoms: C_18  and  N_25
   15  A    between atoms: C_18  and  C_29
                            x       y       z     vdW  Elec       q    Type
                         _______ _______ _______ _____ _____    ______ ____

>  <TORSDO>
F 15

$$$$
=
 OpenBabel11052414473D

 32 35  0  0  1  0  0  0  0  0999 V2000
  184.9020  178.6850  144.7350 C   0  0  0  0  0  0  0  0  0  0  0  0
  184.2140  179.0030  145.8570 F   0  0  0  0  0  0  0  0  0  0  0  0
  186.3210  178.0260  142.4180 C   0  0  0  0  0  3  0  0  0  0  0  0
  186.0240  177.8550  144.8150 C   0  0  0  0  0  3  0  0  0  0  0  0
  185.1970  178.8570  142.3360 C   0  0  0  0  0  0  0  0  0  0  0  0
  184.4850  179.1810  143.4950 C   0  0  0  0  0  3  0  0  0  0  0  0
  186.7350  177.5220  143.6550 C   0  0  0  0  0  0  0  0  0  0  0  0
  187.9150  176.6070  143.7290 C   0  0  0  0  0  2  0  0  0  0  0  0
  189.2130  177.2670  143.2590 C   0  0  2  0  0  3  0  0  0  0  0  0
  190.0810  176.2930  142.4720 C   0  0  0  0  0  2  0  0  0  0  0  0
  190.7230  177.0970  140.9740 S   0  0  0  0  0  0  0  0  0  0  0  0
  189.0680  177.2740  140.2510 C   0  0  0  0  0  2  0  0  0  0  0  0
  189.0630  178.4210  139.2620 C   0  0  0  0  0  2  0  0  0  0  0  0
  187.9510  178.9340  137.3740 O   0  0  0  0  0  1  0  0  0  0  0  0
  187.7520  178.5260  138.6500 N   0  0  0  0  0  2  0  0  0  0  0  0
  189.9240  177.7900  144.3440 O   0  0  0  0  0  0  0  0  0  0  0  0
  189.5770  177.0060  145.3920 N   0  0  0  0  0  2  0  0  0  0  0  0
  190.5810  177.2170  146.4210 C   0  0  0  0  0  2  0  0  0  0  0  0
  188.4250  177.1700  147.6660 C   0  0  0  0  0  1  0  0  0  0  0  0
  189.9090  177.4700  147.7590 C   0  0  0  0  0  2  0  0  0  0  0  0
  184.7400  179.3670  141.0140 C   0  0  0  0  0  2  0  0  0  0  0  0
  183.4130  177.0940  140.5100 O   0  0  0  0  0  0  0  0  0  0  0  0
  182.1620  178.9280  141.5490 O   0  0  0  0  0  0  0  0  0  0  0  0
  183.2130  178.5830  140.5280 S   0  0  0  0  0  0  0  0  0  0  0  0
  182.7900  179.1340  138.9130 N   0  0  0  0  0  0  0  0  0  0  0  0
  181.5090  178.6370  138.2900 C   0  0  2  0  0  0  0  0  0  0  0  0
  180.6570  177.8780  139.1410 O   0  0  0  0  0  0  0  0  0  0  0  0
  181.6030  177.1450  138.4600 C   0  0  0  0  0  2  0  0  0  0  0  0
  181.5740  179.8940  139.0670 C   0  0  2  0  0  3  0  0  0  0  0  0
  181.6040  181.0770  138.1230 C   0  0  0  0  0  3  0  0  0  0  0  0
  180.2460  181.2210  137.4680 C   0  0  0  0  0  2  0  0  0  0  0  0
  180.6310  182.1290  138.6150 C   0  0  0  0  0  2  0  0  0  0  0  0
  1  4  1  0  0  0  0
  1  2  1  0  0  0  0
  3  7  1  0  0  0  0
  5  3  2  0  0  0  0
  5  6  1  0  0  0  0
  6  1  2  0  0  0  0
  7  8  1  0  0  0  0
  7  4  2  0  0  0  0
  9 10  1  1  0  0  0
  9  8  1  0  0  0  0
  9 16  1  0  0  0  0
 11 10  1  0  0  0  0
 12 11  1  0  0  0  0
 13 12  1  0  0  0  0
 14 15  1  0  0  0  0
 15 13  1  0  0  0  0
 16 17  1  0  0  0  0
 17 18  1  0  0  0  0
 18 20  1  0  0  0  0
 19 20  1  0  0  0  0
 21  5  1  0  0  0  0
 22 24  2  0  0  0  0
 24 21  1  0  0  0  0
 24 23  2  0  0  0  0
 25 29  1  0  0  0  0
 25 24  1  0  0  0  0
 26 28  1  6  0  0  0
 26 25  1  0  0  0  0
 26 29  1  0  0  0  0
 26 27  1  0  0  0  0
 28 27  1  0  0  0  0
 29 30  1  6  0  0  0
 30 32  1  0  0  0  0
 31 30  1  0  0  0  0
 31 32  1  0  0  0  0
M  END
>  <MODEL>
7

>  <REMARK>
 VINA RESULT:      -6.1      1.612      2.103
  Name = 
  15 active torsions:
  status: ('A' for Active; 'I' for Inactive)
    1  A    between atoms: C_1  and  C_30
    2  A    between atoms: N_2  and  S_27
    3  A    between atoms: C_6  and  S_17
    4  A    between atoms: C_6  and  C_31
    5  A    between atoms: C_7  and  C_26
    6  A    between atoms: C_7  and  C_31
    7  A    between atoms: O_9  and  C_31
    8  A    between atoms: O_9  and  N_32
    9  A    between atoms: C_12  and  C_28
   10  A    between atoms: C_12  and  N_32
   11  A    between atoms: C_16  and  C_20
   12  A    between atoms: C_16  and  S_27
   13  A    between atoms: S_17  and  C_29
   14  A    between atoms: C_18  and  N_25
   15  A    between atoms: C_18  and  C_29
                            x       y       z     vdW  Elec       q    Type
                         _______ _______ _______ _____ _____    ______ ____

>  <TORSDO>
F 15

$$$$
=
 OpenBabel11052414473D

 32 35  0  0  1  0  0  0  0  0999 V2000
  187.7610  178.2640  141.1720 C   0  0  0  0  0  0  0  0  0  0  0  0
  186.5870  178.9260  141.3100 F   0  0  0  0  0  0  0  0  0  0  0  0
  190.1850  176.9010  140.8880 C   0  0  0  0  0  3  0  0  0  0  0  0
  188.4550  178.3170  139.9590 C   0  0  0  0  0  3  0  0  0  0  0  0
  189.4910  176.8470  142.1020 C   0  0  0  0  0  0  0  0  0  0  0  0
  188.2820  177.5330  142.2450 C   0  0  0  0  0  3  0  0  0  0  0  0
  189.6700  177.6370  139.8160 C   0  0  0  0  0  0  0  0  0  0  0  0
  190.4350  177.7190  138.5330 C   0  0  0  0  0  2  0  0  0  0  0  0
  190.0930  176.5870  137.5610 C   0  0  2  0  0  3  0  0  0  0  0  0
  191.2510  175.6090  137.4140 C   0  0  0  0  0  2  0  0  0  0  0  0
  192.7820  176.3540  138.0520 S   0  0  0  0  0  0  0  0  0  0  0  0
  193.8350  175.2200  137.1040 C   0  0  0  0  0  2  0  0  0  0  0  0
  194.5640  174.2890  138.0510 C   0  0  0  0  0  2  0  0  0  0  0  0
  195.8160  175.1250  139.7230 O   0  0  0  0  0  1  0  0  0  0  0  0
  195.8510  174.8630  138.3960 N   0  0  0  0  0  2  0  0  0  0  0  0
  189.7250  177.1010  136.3130 O   0  0  0  0  0  0  0  0  0  0  0  0
  188.4150  177.4150  136.4440 N   0  0  0  0  0  2  0  0  0  0  0  0
  187.7130  176.1730  136.7190 C   0  0  0  0  0  2  0  0  0  0  0  0
  185.9850  177.8280  137.4090 C   0  0  0  0  0  1  0  0  0  0  0  0
  186.2240  176.4360  136.8550 C   0  0  0  0  0  2  0  0  0  0  0  0
  190.0570  176.0880  143.2520 C   0  0  0  0  0  2  0  0  0  0  0  0
  191.3000  176.7730  145.5250 O   0  0  0  0  0  0  0  0  0  0  0  0
  190.1060  178.5370  144.3110 O   0  0  0  0  0  0  0  0  0  0  0  0
  190.0670  177.0900  144.7280 S   0  0  0  0  0  0  0  0  0  0  0  0
  188.6410  176.7010  145.6790 N   0  0  0  0  0  0  0  0  0  0  0  0
  188.4270  177.4170  146.9900 C   0  0  2  0  0  0  0  0  0  0  0  0
  189.3290  178.4820  147.2720 O   0  0  0  0  0  0  0  0  0  0  0  0
  189.7430  177.2380  147.6960 C   0  0  0  0  0  2  0  0  0  0  0  0
  187.8560  177.9110  145.7180 C   0  0  2  0  0  3  0  0  0  0  0  0
  186.3870  177.5540  145.6440 C   0  0  0  0  0  3  0  0  0  0  0  0
  185.5730  178.6870  146.2340 C   0  0  0  0  0  2  0  0  0  0  0  0
  185.6830  178.5390  144.7320 C   0  0  0  0  0  2  0  0  0  0  0  0
  1  2  1  0  0  0  0
  1  6  1  0  0  0  0
  3  5  1  0  0  0  0
  4  1  2  0  0  0  0
  5  6  2  0  0  0  0
  5 21  1  0  0  0  0
  7  4  1  0  0  0  0
  7  3  2  0  0  0  0
  8  7  1  0  0  0  0
  9 10  1  6  0  0  0
  9  8  1  0  0  0  0
 10 11  1  0  0  0  0
 12 13  1  0  0  0  0
 12 11  1  0  0  0  0
 13 15  1  0  0  0  0
 15 14  1  0  0  0  0
 16 17  1  0  0  0  0
 16  9  1  0  0  0  0
 17 18  1  0  0  0  0
 18 20  1  0  0  0  0
 20 19  1  0  0  0  0
 21 24  1  0  0  0  0
 23 24  2  0  0  0  0
 24 22  2  0  0  0  0
 24 25  1  0  0  0  0
 25 29  1  0  0  0  0
 25 26  1  0  0  0  0
 26 27  1  0  0  0  0
 26 28  1  1  0  0  0
 27 28  1  0  0  0  0
 29 30  1  1  0  0  0
 29 26  1  0  0  0  0
 30 31  1  0  0  0  0
 32 30  1  0  0  0  0
 32 31  1  0  0  0  0
M  END
>  <MODEL>
8

>  <REMARK>
 VINA RESULT:      -6.1      4.363      7.949
  Name = 
  15 active torsions:
  status: ('A' for Active; 'I' for Inactive)
    1  A    between atoms: C_1  and  C_30
    2  A    between atoms: N_2  and  S_27
    3  A    between atoms: C_6  and  S_17
    4  A    between atoms: C_6  and  C_31
    5  A    between atoms: C_7  and  C_26
    6  A    between atoms: C_7  and  C_31
    7  A    between atoms: O_9  and  C_31
    8  A    between atoms: O_9  and  N_32
    9  A    between atoms: C_12  and  C_28
   10  A    between atoms: C_12  and  N_32
   11  A    between atoms: C_16  and  C_20
   12  A    between atoms: C_16  and  S_27
   13  A    between atoms: S_17  and  C_29
   14  A    between atoms: C_18  and  N_25
   15  A    between atoms: C_18  and  C_29
                            x       y       z     vdW  Elec       q    Type
                         _______ _______ _______ _____ _____    ______ ____

>  <TORSDO>
F 15

$$$$
=
 OpenBabel11052414473D

 32 35  0  0  1  0  0  0  0  0999 V2000
  184.6370  178.6610  145.4080 C   0  0  0  0  0  0  0  0  0  0  0  0
  184.0300  179.0630  146.5500 F   0  0  0  0  0  0  0  0  0  0  0  0
  185.8870  177.8270  143.0510 C   0  0  0  0  0  3  0  0  0  0  0  0
  185.9410  178.1600  145.4480 C   0  0  0  0  0  3  0  0  0  0  0  0
  184.5810  178.3280  143.0090 C   0  0  0  0  0  0  0  0  0  0  0  0
  183.9550  178.7390  144.1890 C   0  0  0  0  0  3  0  0  0  0  0  0
  186.5690  177.7410  144.2680 C   0  0  0  0  0  0  0  0  0  0  0  0
  187.9520  177.1720  144.3100 C   0  0  0  0  0  2  0  0  0  0  0  0
  189.0380  178.2490  144.3580 C   0  0  2  0  0  3  0  0  0  0  0  0
  189.8770  178.2510  143.0870 C   0  0  0  0  0  2  0  0  0  0  0  0
  189.6330  176.6980  142.1740 S   0  0  0  0  0  0  0  0  0  0  0  0
  188.9630  177.5540  140.7200 C   0  0  0  0  0  2  0  0  0  0  0  0
  189.8670  177.3180  139.5280 C   0  0  0  0  0  2  0  0  0  0  0  0
  192.1090  177.1660  139.6440 O   0  0  0  0  0  1  0  0  0  0  0  0
  190.9790  176.4750  139.9250 N   0  0  0  0  0  2  0  0  0  0  0  0
  189.8530  178.0790  145.4820 O   0  0  0  0  0  0  0  0  0  0  0  0
  189.5810  176.8260  145.9170 N   0  0  0  0  0  2  0  0  0  0  0  0
  189.9470  176.7840  147.3230 C   0  0  0  0  0  2  0  0  0  0  0  0
  188.0070  177.6740  148.6050 C   0  0  0  0  0  1  0  0  0  0  0  0
  189.3800  177.9940  148.0440 C   0  0  0  0  0  2  0  0  0  0  0  0
  183.8460  178.3900  141.7150 C   0  0  0  0  0  2  0  0  0  0  0  0
  184.1070  180.0070  139.5930 O   0  0  0  0  0  0  0  0  0  0  0  0
  186.0490  179.7520  141.0690 O   0  0  0  0  0  0  0  0  0  0  0  0
  184.8950  179.0320  140.4220 S   0  0  0  0  0  0  0  0  0  0  0  0
  185.4170  177.6940  139.4090 N   0  0  0  0  0  0  0  0  0  0  0  0
  184.5450  177.2780  138.2510 C   0  0  2  0  0  0  0  0  0  0  0  0
  183.4330  178.1230  137.9740 O   0  0  0  0  0  0  0  0  0  0  0  0
  183.1900  177.1180  138.8840 C   0  0  0  0  0  2  0  0  0  0  0  0
  185.6410  178.2600  138.1010 C   0  0  2  0  0  3  0  0  0  0  0  0
  186.8430  177.5910  137.4690 C   0  0  0  0  0  3  0  0  0  0  0  0
  186.4870  177.1660  136.0600 C   0  0  0  0  0  2  0  0  0  0  0  0
  187.3050  178.4180  136.2860 C   0  0  0  0  0  2  0  0  0  0  0  0
  1  4  1  0  0  0  0
  1  2  1  0  0  0  0
  3  7  1  0  0  0  0
  5  3  2  0  0  0  0
  5  6  1  0  0  0  0
  6  1  2  0  0  0  0
  7  8  1  0  0  0  0
  7  4  2  0  0  0  0
  8  9  1  0  0  0  0
  9 10  1  6  0  0  0
  9 16  1  0  0  0  0
 11 10  1  0  0  0  0
 12 11  1  0  0  0  0
 13 15  1  0  0  0  0
 13 12  1  0  0  0  0
 14 15  1  0  0  0  0
 16 17  1  0  0  0  0
 17 18  1  0  0  0  0
 18 20  1  0  0  0  0
 20 19  1  0  0  0  0
 21  5  1  0  0  0  0
 22 24  2  0  0  0  0
 24 23  2  0  0  0  0
 24 21  1  0  0  0  0
 25 24  1  0  0  0  0
 26 28  1  6  0  0  0
 26 25  1  0  0  0  0
 27 26  1  0  0  0  0
 27 28  1  0  0  0  0
 29 30  1  6  0  0  0
 29 26  1  0  0  0  0
 29 25  1  0  0  0  0
 31 32  1  0  0  0  0
 31 30  1  0  0  0  0
 32 30  1  0  0  0  0
M  END
>  <MODEL>
9

>  <REMARK>
 VINA RESULT:      -6.1      2.156      3.589
  Name = 
  15 active torsions:
  status: ('A' for Active; 'I' for Inactive)
    1  A    between atoms: C_1  and  C_30
    2  A    between atoms: N_2  and  S_27
    3  A    between atoms: C_6  and  S_17
    4  A    between atoms: C_6  and  C_31
    5  A    between atoms: C_7  and  C_26
    6  A    between atoms: C_7  and  C_31
    7  A    between atoms: O_9  and  C_31
    8  A    between atoms: O_9  and  N_32
    9  A    between atoms: C_12  and  C_28
   10  A    between atoms: C_12  and  N_32
   11  A    between atoms: C_16  and  C_20
   12  A    between atoms: C_16  and  S_27
   13  A    between atoms: S_17  and  C_29
   14  A    between atoms: C_18  and  N_25
   15  A    between atoms: C_18  and  C_29
                            x       y       z     vdW  Elec       q    Type
                         _______ _______ _______ _____ _____    ______ ____

>  <TORSDO>
F 15

$$$$
