=
 OpenBabel11052417013D

 32 37  0  0  1  0  0  0  0  0999 V2000
  186.1990  178.6860  142.3040 C   0  0  2  0  0  3  0  0  0  0  0  0
  185.1100  179.0390  145.9900 C   0  0  0  0  0  3  0  0  0  0  0  0
  183.7220  178.9000  145.7990 C   0  0  0  0  0  3  0  0  0  0  0  0
  185.0610  178.4680  139.9410 C   0  0  0  0  0  0  0  0  0  0  0  0
  183.8150  178.3430  139.3120 C   0  0  0  0  0  0  0  0  0  0  0  0
  181.5590  178.1870  139.1170 C   0  0  0  0  0  0  0  0  0  0  0  0
  185.9900  178.9770  144.8970 C   0  0  0  0  0  3  0  0  0  0  0  0
  185.4580  178.7570  143.6250 C   0  0  0  0  0  0  0  0  0  0  0  0
  183.8330  178.5040  142.0340 C   0  0  0  0  0  0  0  0  0  0  0  0
  181.9910  178.1490  137.8970 N   0  0  0  0  0  0  0  0  0  0  0  0
  183.4590  178.2430  137.8670 C   0  0  0  0  0  3  0  0  0  0  0  0
  183.1950  178.7030  144.5130 C   0  0  0  0  0  3  0  0  0  0  0  0
  184.0900  178.6390  143.4460 C   0  0  0  0  0  0  0  0  0  0  0  0
  182.6300  178.3910  141.4050 N   0  0  0  0  0  0  0  0  0  0  0  0
  186.5550  178.5320  139.0220 Cl  0  0  0  0  0  0  0  0  0  0  0  0
  180.1180  178.1150  139.4780 C   0  0  0  0  0  1  0  0  0  0  0  0
  185.0430  178.5440  141.3440 C   0  0  2  0  0  3  0  0  0  0  0  0
  182.6530  178.3060  140.0460 C   0  0  0  0  0  0  0  0  0  0  0  0
  190.9020  178.7910  143.5170 C   0  0  0  0  0  2  0  0  0  0  0  0
  188.8100  176.7720  143.7340 C   0  0  1  0  0  3  0  0  0  0  0  0
  188.3770  178.0190  141.7620 N   0  0  0  0  0  2  0  0  0  0  0  0
  190.7520  177.7620  142.3980 C   0  0  0  0  0  2  0  0  0  0  0  0
  187.1250  177.5420  142.1980 N   0  0  1  0  0  0  0  0  0  0  0  0
  190.5380  178.2400  144.8270 N   0  0  0  0  0  0  0  0  0  0  0  0
  189.3580  177.1450  142.3750 C   0  0  1  0  0  3  0  0  0  0  0  0
  189.1380  177.8100  144.8210 C   0  0  0  0  0  2  0  0  0  0  0  0
  187.3260  176.8480  143.4810 C   0  0  0  0  0  2  0  0  0  0  0  0
  191.4080  177.1210  145.1870 C   0  0  0  0  0  2  0  0  0  0  0  0
  191.2390  176.7890  146.6590 C   0  0  0  0  0  2  0  0  0  0  0  0
  192.1890  175.7070  147.0550 C   0  0  0  0  0  0  0  0  0  0  0  0
  192.8380  175.7470  148.3950 C   0  0  0  0  0  1  0  0  0  0  0  0
  192.4520  174.8030  146.2790 O   0  0  0  0  0  0  0  0  0  0  0  0
  1  8  1  1  0  0  0
  3  2  1  0  0  0  0
  5  4  2  0  0  0  0
  5 18  1  0  0  0  0
  6 16  1  0  0  0  0
  6 18  2  0  0  0  0
  7  2  2  0  0  0  0
  8  7  1  0  0  0  0
  9 13  1  0  0  0  0
 10  6  1  0  0  0  0
 11 10  2  0  0  0  0
 11  5  1  0  0  0  0
 12  3  2  0  0  0  0
 13  8  2  0  0  0  0
 13 12  1  0  0  0  0
 14  9  2  0  0  0  0
 15  4  1  0  0  0  0
 17  4  1  6  0  0  0
 17  9  1  0  0  0  0
 17  1  1  0  0  0  0
 18 14  1  0  0  0  0
 19 24  1  0  0  0  0
 20 27  1  6  0  0  0
 20 26  1  0  0  0  0
 21 23  1  0  0  0  0
 21 25  1  0  0  0  0
 22 19  1  0  0  0  0
 23  1  1  0  0  0  0
 23 27  1  1  0  0  0
 24 28  1  0  0  0  0
 25 22  1  1  0  0  0
 25 20  1  0  0  0  0
 26 24  1  0  0  0  0
 28 29  1  0  0  0  0
 29 30  1  0  0  0  0
 30 31  1  0  0  0  0
 32 30  2  0  0  0  0
M  END
>  <MODEL>
1

>  <REMARK>
 VINA RESULT:      -9.2      0.000      0.000
  Name = 
  4 active torsions:
  status: ('A' for Active; 'I' for Inactive)
    1  A    between atoms: C_1  and  C_10
    2  A    between atoms: C_3  and  N_14
    3  A    between atoms: C_10  and  C_24
    4  A    between atoms: N_19  and  C_24
                            x       y       z     vdW  Elec       q    Type
                         _______ _______ _______ _____ _____    ______ ____

>  <TORSDO>
F 4

$$$$
=
 OpenBabel11052417013D

 32 37  0  0  1  0  0  0  0  0999 V2000
  187.8990  177.2480  142.3990 C   0  0  2  0  0  3  0  0  0  0  0  0
  184.2610  178.4840  142.0250 C   0  0  0  0  0  3  0  0  0  0  0  0
  184.0430  178.8600  143.3650 C   0  0  0  0  0  3  0  0  0  0  0  0
  189.6460  176.8680  144.3300 C   0  0  0  0  0  0  0  0  0  0  0  0
  189.8410  177.0440  145.7060 C   0  0  0  0  0  0  0  0  0  0  0  0
  189.3580  177.6320  147.8440 C   0  0  0  0  0  0  0  0  0  0  0  0
  185.4980  177.9510  141.6270 C   0  0  0  0  0  3  0  0  0  0  0  0
  186.5060  177.8210  142.5840 C   0  0  0  0  0  0  0  0  0  0  0  0
  187.4560  177.8590  144.6650 C   0  0  0  0  0  0  0  0  0  0  0  0
  190.5520  177.1350  147.9090 N   0  0  0  0  0  0  0  0  0  0  0  0
  191.0030  176.7040  146.5770 C   0  0  0  0  0  2  0  0  0  0  0  0
  185.0560  178.7030  144.3230 C   0  0  0  0  0  3  0  0  0  0  0  0
  186.2760  178.1780  143.9010 C   0  0  0  0  0  0  0  0  0  0  0  0
  187.6600  178.0130  146.0030 N   0  0  0  0  0  0  0  0  0  0  0  0
  190.8760  176.1420  143.3090 Cl  0  0  0  0  0  0  0  0  0  0  0  0
  188.6250  178.1560  149.0280 C   0  0  0  0  0  1  0  0  0  0  0  0
  188.4110  177.3010  143.8170 C   0  0  0  0  0  0  0  0  0  0  0  0
  188.8620  177.6030  146.4930 C   0  0  0  0  0  0  0  0  0  0  0  0
  189.0540  175.9710  137.8570 C   0  0  0  0  0  2  0  0  0  0  0  0
  188.4870  178.5220  139.1500 C   0  0  1  0  0  3  0  0  0  0  0  0
  189.5640  177.1470  140.7570 N   0  0  0  0  0  2  0  0  0  0  0  0
  190.2200  176.7980  138.3990 C   0  0  0  0  0  2  0  0  0  0  0  0
  188.7550  178.0360  141.4920 N   0  0  1  0  0  0  0  0  0  0  0  0
  187.9540  176.8150  137.3780 N   0  0  0  0  0  0  0  0  0  0  0  0
  189.7680  177.7840  139.4700 C   0  0  1  0  0  3  0  0  0  0  0  0
  187.4300  177.6300  138.4780 C   0  0  0  0  0  2  0  0  0  0  0  0
  187.9820  178.8440  140.5330 C   0  0  0  0  0  2  0  0  0  0  0  0
  188.3880  177.6730  136.2780 C   0  0  0  0  0  2  0  0  0  0  0  0
  188.2990  176.9140  134.9650 C   0  0  0  0  0  2  0  0  0  0  0  0
  186.8930  176.4770  134.7170 C   0  0  0  0  0  0  0  0  0  0  0  0
  185.8120  177.4950  134.5940 C   0  0  0  0  0  1  0  0  0  0  0  0
  186.6220  175.2900  134.6350 O   0  0  0  0  0  0  0  0  0  0  0  0
  1  8  1  1  0  0  0
  1 17  1  0  0  0  0
  2  3  1  0  0  0  0
  3 12  2  0  0  0  0
  4  5  1  0  0  0  0
  5 18  2  0  0  0  0
  5 11  1  0  0  0  0
  6 10  2  0  0  0  0
  6 16  1  0  0  0  0
  7  2  2  0  0  0  0
  7  8  1  0  0  0  0
  8 13  2  0  0  0  0
  9 14  2  0  0  0  0
 11 10  1  0  0  0  0
 13 12  1  0  0  0  0
 13  9  1  0  0  0  0
 14 18  1  0  0  0  0
 15  4  1  0  0  0  0
 17  4  2  0  0  0  0
 17  9  1  0  0  0  0
 18  6  1  0  0  0  0
 19 22  1  0  0  0  0
 20 26  1  1  0  0  0
 20 25  1  0  0  0  0
 20 27  1  0  0  0  0
 21 23  1  0  0  0  0
 23 27  1  6  0  0  0
 23  1  1  0  0  0  0
 24 19  1  0  0  0  0
 24 26  1  0  0  0  0
 25 22  1  6  0  0  0
 25 21  1  0  0  0  0
 28 24  1  0  0  0  0
 29 28  1  0  0  0  0
 30 29  1  0  0  0  0
 31 30  1  0  0  0  0
 32 30  2  0  0  0  0
M  END
>  <MODEL>
2

>  <REMARK>
 VINA RESULT:      -9.0      3.817      7.988
  Name = 
  4 active torsions:
  status: ('A' for Active; 'I' for Inactive)
    1  A    between atoms: C_1  and  C_10
    2  A    between atoms: C_3  and  N_14
    3  A    between atoms: C_10  and  C_24
    4  A    between atoms: N_19  and  C_24
                            x       y       z     vdW  Elec       q    Type
                         _______ _______ _______ _____ _____    ______ ____

>  <TORSDO>
F 4

$$$$
=
 OpenBabel11052417013D

 32 37  0  0  1  0  0  0  0  0999 V2000
  188.0650  178.3250  140.8530 C   0  0  2  0  0  3  0  0  0  0  0  0
  184.7610  179.0670  142.7040 C   0  0  0  0  0  3  0  0  0  0  0  0
  183.8920  178.9780  141.5990 C   0  0  0  0  0  3  0  0  0  0  0  0
  188.8770  177.9480  138.3780 C   0  0  0  0  0  0  0  0  0  0  0  0
  188.4160  177.8260  137.0610 C   0  0  0  0  0  0  0  0  0  0  0  0
  186.9320  177.7630  135.3450 C   0  0  0  0  0  0  0  0  0  0  0  0
  186.1410  178.8620  142.5440 C   0  0  0  0  0  3  0  0  0  0  0  0
  186.6250  178.5530  141.2720 C   0  0  0  0  0  0  0  0  0  0  0  0
  186.5510  178.2340  139.0070 C   0  0  0  0  0  0  0  0  0  0  0  0
  188.0840  177.5920  134.7800 N   0  0  0  0  0  0  0  0  0  0  0  0
  189.1580  177.6110  135.7840 C   0  0  0  0  0  3  0  0  0  0  0  0
  184.3930  178.6900  140.3200 C   0  0  0  0  0  3  0  0  0  0  0  0
  185.7650  178.4850  140.1890 C   0  0  0  0  0  0  0  0  0  0  0  0
  186.1220  178.1230  137.7190 N   0  0  0  0  0  0  0  0  0  0  0  0
  190.5860  177.8550  138.7690 Cl  0  0  0  0  0  0  0  0  0  0  0  0
  185.6480  177.7940  134.5940 C   0  0  0  0  0  1  0  0  0  0  0  0
  187.8960  178.1520  139.3630 C   0  0  2  0  0  3  0  0  0  0  0  0
  187.0760  177.9130  136.7700 C   0  0  0  0  0  0  0  0  0  0  0  0
  191.2510  178.4110  144.5180 C   0  0  0  0  0  2  0  0  0  0  0  0
  189.0800  176.6110  143.7770 C   0  0  1  0  0  3  0  0  0  0  0  0
  190.0280  177.4310  141.7620 N   0  0  0  0  0  2  0  0  0  0  0  0
  191.5720  177.1760  143.6770 C   0  0  0  0  0  2  0  0  0  0  0  0
  188.6840  177.1320  141.4620 N   0  0  1  0  0  0  0  0  0  0  0  0
  190.1370  178.1740  145.4440 N   0  0  0  0  0  0  0  0  0  0  0  0
  190.3410  176.6520  142.9440 C   0  0  1  0  0  3  0  0  0  0  0  0
  188.9240  177.8360  144.6940 C   0  0  0  0  0  2  0  0  0  0  0  0
  188.0220  176.7180  142.7100 C   0  0  0  0  0  2  0  0  0  0  0  0
  190.4580  177.1090  146.3920 C   0  0  0  0  0  2  0  0  0  0  0  0
  189.2250  176.7540  147.2060 C   0  0  0  0  0  2  0  0  0  0  0  0
  188.8660  177.8810  148.1150 C   0  0  0  0  0  0  0  0  0  0  0  0
  187.4840  178.4380  148.0930 C   0  0  0  0  0  1  0  0  0  0  0  0
  189.7030  178.3630  148.8610 O   0  0  0  0  0  0  0  0  0  0  0  0
  1  8  1  1  0  0  0
  1 23  1  0  0  0  0
  3  2  2  0  0  0  0
  4 15  1  0  0  0  0
  5  4  2  0  0  0  0
  6 18  2  0  0  0  0
  7  2  1  0  0  0  0
  8  7  2  0  0  0  0
  9 17  1  0  0  0  0
  9 13  1  0  0  0  0
 10  6  1  0  0  0  0
 10 11  2  0  0  0  0
 11  5  1  0  0  0  0
 12  3  1  0  0  0  0
 13 12  2  0  0  0  0
 13  8  1  0  0  0  0
 14  9  2  0  0  0  0
 16  6  1  0  0  0  0
 17  4  1  6  0  0  0
 17  1  1  0  0  0  0
 18  5  1  0  0  0  0
 18 14  1  0  0  0  0
 19 24  1  0  0  0  0
 20 27  1  6  0  0  0
 20 26  1  0  0  0  0
 21 25  1  0  0  0  0
 22 19  1  0  0  0  0
 23 21  1  0  0  0  0
 23 27  1  1  0  0  0
 24 28  1  0  0  0  0
 25 22  1  1  0  0  0
 25 20  1  0  0  0  0
 26 24  1  0  0  0  0
 28 29  1  0  0  0  0
 29 30  1  0  0  0  0
 30 32  2  0  0  0  0
 31 30  1  0  0  0  0
M  END
>  <MODEL>
3

>  <REMARK>
 VINA RESULT:      -8.5      2.984      3.981
  Name = 
  4 active torsions:
  status: ('A' for Active; 'I' for Inactive)
    1  A    between atoms: C_1  and  C_10
    2  A    between atoms: C_3  and  N_14
    3  A    between atoms: C_10  and  C_24
    4  A    between atoms: N_19  and  C_24
                            x       y       z     vdW  Elec       q    Type
                         _______ _______ _______ _____ _____    ______ ____

>  <TORSDO>
F 4

$$$$
=
 OpenBabel11052417013D

 32 37  0  0  1  0  0  0  0  0999 V2000
  186.4230  178.6310  141.8300 C   0  0  2  0  0  3  0  0  0  0  0  0
  184.5160  179.1830  145.1400 C   0  0  0  0  0  3  0  0  0  0  0  0
  183.2090  179.0030  144.6460 C   0  0  0  0  0  3  0  0  0  0  0  0
  185.8580  178.2470  139.2890 C   0  0  0  0  0  0  0  0  0  0  0  0
  184.7910  178.0580  138.4010 C   0  0  0  0  0  0  0  0  0  0  0  0
  182.6400  177.8420  137.7070 C   0  0  0  0  0  0  0  0  0  0  0  0
  185.6240  179.0740  144.2830 C   0  0  0  0  0  3  0  0  0  0  0  0
  185.3980  178.7670  142.9400 C   0  0  0  0  0  0  0  0  0  0  0  0
  184.1830  178.3830  141.0400 C   0  0  0  0  0  0  0  0  0  0  0  0
  183.3410  177.7400  136.6220 N   0  0  0  0  0  0  0  0  0  0  0  0
  184.7750  177.8630  136.9220 C   0  0  0  0  0  3  0  0  0  0  0  0
  182.9930  178.7180  143.2890 C   0  0  0  0  0  3  0  0  0  0  0  0
  184.1090  178.6080  142.4610 C   0  0  0  0  0  0  0  0  0  0  0  0
  183.1570  178.2060  140.1600 N   0  0  0  0  0  0  0  0  0  0  0  0
  187.5230  178.2880  138.7330 Cl  0  0  0  0  0  0  0  0  0  0  0  0
  181.1550  177.7610  137.7330 C   0  0  0  0  0  1  0  0  0  0  0  0
  185.5190  178.4070  140.6430 C   0  0  2  0  0  3  0  0  0  0  0  0
  183.4920  178.0400  138.8510 C   0  0  0  0  0  0  0  0  0  0  0  0
  190.5410  178.8130  144.4010 C   0  0  0  0  0  2  0  0  0  0  0  0
  188.5140  176.7590  143.9850 C   0  0  1  0  0  3  0  0  0  0  0  0
  188.6730  178.0020  141.9700 N   0  0  0  0  0  2  0  0  0  0  0  0
  190.7520  177.7830  143.2920 C   0  0  0  0  0  2  0  0  0  0  0  0
  187.3560  177.5030  142.0110 N   0  0  1  0  0  0  0  0  0  0  0  0
  189.8090  178.2530  145.5430 N   0  0  0  0  0  0  0  0  0  0  0  0
  189.4390  177.1430  142.8530 C   0  0  1  0  0  3  0  0  0  0  0  0
  188.4830  177.8000  145.1170 C   0  0  0  0  0  2  0  0  0  0  0  0
  187.1740  176.8100  143.2980 C   0  0  0  0  0  2  0  0  0  0  0  0
  190.5480  177.1490  146.1510 C   0  0  0  0  0  2  0  0  0  0  0  0
  189.7790  176.6070  147.3430 C   0  0  0  0  0  2  0  0  0  0  0  0
  189.3750  177.7240  148.2470 C   0  0  0  0  0  0  0  0  0  0  0  0
  187.9310  177.9780  148.5100 C   0  0  0  0  0  1  0  0  0  0  0  0
  190.2210  178.4420  148.7550 O   0  0  0  0  0  0  0  0  0  0  0  0
  1 23  1  0  0  0  0
  1  8  1  1  0  0  0
  3  2  1  0  0  0  0
  5 18  1  0  0  0  0
  5  4  2  0  0  0  0
  6 16  1  0  0  0  0
  6 18  2  0  0  0  0
  7  2  2  0  0  0  0
  8  7  1  0  0  0  0
  9 13  1  0  0  0  0
 10 11  2  0  0  0  0
 10  6  1  0  0  0  0
 11  5  1  0  0  0  0
 12  3  2  0  0  0  0
 13  8  2  0  0  0  0
 13 12  1  0  0  0  0
 14  9  2  0  0  0  0
 15  4  1  0  0  0  0
 17  4  1  6  0  0  0
 17  9  1  0  0  0  0
 17  1  1  0  0  0  0
 18 14  1  0  0  0  0
 19 24  1  0  0  0  0
 20 27  1  6  0  0  0
 20 26  1  0  0  0  0
 21 23  1  0  0  0  0
 21 25  1  0  0  0  0
 22 19  1  0  0  0  0
 23 27  1  1  0  0  0
 24 28  1  0  0  0  0
 25 22  1  1  0  0  0
 25 20  1  0  0  0  0
 26 24  1  0  0  0  0
 28 29  1  0  0  0  0
 29 30  1  0  0  0  0
 30 31  1  0  0  0  0
 30 32  2  0  0  0  0
M  END
>  <MODEL>
4

>  <REMARK>
 VINA RESULT:      -8.2      1.532      1.815
  Name = 
  4 active torsions:
  status: ('A' for Active; 'I' for Inactive)
    1  A    between atoms: C_1  and  C_10
    2  A    between atoms: C_3  and  N_14
    3  A    between atoms: C_10  and  C_24
    4  A    between atoms: N_19  and  C_24
                            x       y       z     vdW  Elec       q    Type
                         _______ _______ _______ _____ _____    ______ ____

>  <TORSDO>
F 4

$$$$
=
 OpenBabel11052417013D

 32 37  0  0  1  0  0  0  0  0999 V2000
  185.0180  178.8570  141.7830 C   0  0  2  0  0  3  0  0  0  0  0  0
  187.4580  178.2550  138.8540 C   0  0  0  0  0  3  0  0  0  0  0  0
  188.5500  177.7740  139.6020 C   0  0  0  0  0  3  0  0  0  0  0  0
  185.0550  178.7450  144.4120 C   0  0  0  0  0  0  0  0  0  0  0  0
  185.8630  178.3920  145.5010 C   0  0  0  0  0  0  0  0  0  0  0  0
  187.7020  177.6570  146.6090 C   0  0  0  0  0  0  0  0  0  0  0  0
  186.2640  178.6280  139.4930 C   0  0  0  0  0  3  0  0  0  0  0  0
  186.1810  178.4920  140.8800 C   0  0  0  0  0  0  0  0  0  0  0  0
  186.9170  178.0800  143.0060 C   0  0  0  0  0  0  0  0  0  0  0  0
  186.8580  177.9500  147.5460 N   0  0  0  0  0  0  0  0  0  0  0  0
  185.6010  178.4490  146.9690 C   0  0  0  0  0  2  0  0  0  0  0  0
  188.4630  177.6650  140.9990 C   0  0  0  0  0  3  0  0  0  0  0  0
  187.2650  178.0340  141.6080 C   0  0  0  0  0  0  0  0  0  0  0  0
  187.6920  177.7500  144.0770 N   0  0  0  0  0  0  0  0  0  0  0  0
  183.4320  179.3760  144.6350 Cl  0  0  0  0  0  0  0  0  0  0  0  0
  189.0680  177.1290  146.8740 C   0  0  0  0  0  1  0  0  0  0  0  0
  185.6200  178.5700  143.1380 C   0  0  0  0  0  0  0  0  0  0  0  0
  187.1370  177.9110  145.3100 C   0  0  0  0  0  0  0  0  0  0  0  0
  181.0250  180.4170  139.5000 C   0  0  0  0  0  2  0  0  0  0  0  0
  182.4230  177.8600  139.5950 C   0  0  1  0  0  3  0  0  0  0  0  0
  182.6790  178.8770  141.7240 N   0  0  0  0  0  2  0  0  0  0  0  0
  180.5770  179.3690  140.5190 C   0  0  0  0  0  2  0  0  0  0  0  0
  183.8060  178.0480  141.5550 N   0  0  1  0  0  0  0  0  0  0  0  0
  181.5350  179.8060  138.2680 N   0  0  0  0  0  0  0  0  0  0  0  0
  181.6770  178.3560  140.8140 C   0  0  1  0  0  3  0  0  0  0  0  0
  182.7000  178.9690  138.5660 C   0  0  0  0  0  2  0  0  0  0  0  0
  183.7470  177.4740  140.2000 C   0  0  0  0  0  2  0  0  0  0  0  0
  180.5010  179.0140  137.6050 C   0  0  0  0  0  2  0  0  0  0  0  0
  179.6190  179.9180  136.7610 C   0  0  0  0  0  2  0  0  0  0  0  0
  180.4400  180.6260  135.7350 C   0  0  0  0  0  0  0  0  0  0  0  0
  180.4320  182.1150  135.6800 C   0  0  0  0  0  1  0  0  0  0  0  0
  181.1010  179.9920  134.9290 O   0  0  0  0  0  0  0  0  0  0  0  0
  1  8  1  6  0  0  0
  1 17  1  0  0  0  0
  2  7  2  0  0  0  0
  2  3  1  0  0  0  0
  3 12  2  0  0  0  0
  4 15  1  0  0  0  0
  4  5  1  0  0  0  0
  5 11  1  0  0  0  0
  6 16  1  0  0  0  0
  6 10  2  0  0  0  0
  7  8  1  0  0  0  0
  8 13  2  0  0  0  0
  9 17  1  0  0  0  0
  9 14  2  0  0  0  0
 11 10  1  0  0  0  0
 12 13  1  0  0  0  0
 13  9  1  0  0  0  0
 14 18  1  0  0  0  0
 17  4  2  0  0  0  0
 18  5  2  0  0  0  0
 18  6  1  0  0  0  0
 19 22  1  0  0  0  0
 20 26  1  6  0  0  0
 20 27  1  0  0  0  0
 20 25  1  0  0  0  0
 23 27  1  6  0  0  0
 23 21  1  0  0  0  0
 23  1  1  0  0  0  0
 24 26  1  0  0  0  0
 24 19  1  0  0  0  0
 25 22  1  6  0  0  0
 25 21  1  0  0  0  0
 28 24  1  0  0  0  0
 29 28  1  0  0  0  0
 30 29  1  0  0  0  0
 31 30  1  0  0  0  0
 32 30  2  0  0  0  0
M  END
>  <MODEL>
5

>  <REMARK>
 VINA RESULT:      -7.8      3.847      9.400
  Name = 
  4 active torsions:
  status: ('A' for Active; 'I' for Inactive)
    1  A    between atoms: C_1  and  C_10
    2  A    between atoms: C_3  and  N_14
    3  A    between atoms: C_10  and  C_24
    4  A    between atoms: N_19  and  C_24
                            x       y       z     vdW  Elec       q    Type
                         _______ _______ _______ _____ _____    ______ ____

>  <TORSDO>
F 4

$$$$
=
 OpenBabel11052417013D

 32 37  0  0  1  0  0  0  0  0999 V2000
  186.4340  177.5220  142.9310 C   0  0  2  0  0  3  0  0  0  0  0  0
  183.7070  178.6220  145.4310 C   0  0  0  0  0  3  0  0  0  0  0  0
  184.5010  178.6380  146.5940 C   0  0  0  0  0  3  0  0  0  0  0  0
  188.9520  176.7590  142.9950 C   0  0  0  0  0  0  0  0  0  0  0  0
  190.0430  176.5930  143.8570 C   0  0  0  0  0  0  0  0  0  0  0  0
  191.2120  176.5990  145.8030 C   0  0  0  0  0  0  0  0  0  0  0  0
  184.2650  178.2710  144.1910 C   0  0  0  0  0  3  0  0  0  0  0  0
  185.6240  177.9580  144.1380 C   0  0  0  0  0  0  0  0  0  0  0  0
  187.7200  177.5190  144.9430 C   0  0  0  0  0  0  0  0  0  0  0  0
  192.0560  176.1640  144.9220 N   0  0  0  0  0  0  0  0  0  0  0  0
  191.4290  176.1050  143.5930 C   0  0  0  0  0  3  0  0  0  0  0  0
  185.8610  178.2970  146.5330 C   0  0  0  0  0  3  0  0  0  0  0  0
  186.3920  177.9590  145.2890 C   0  0  0  0  0  0  0  0  0  0  0  0
  188.7900  177.3420  145.7680 N   0  0  0  0  0  0  0  0  0  0  0  0
  189.0600  176.3780  141.2850 Cl  0  0  0  0  0  0  0  0  0  0  0  0
  191.5470  176.7690  147.2420 C   0  0  0  0  0  1  0  0  0  0  0  0
  187.7680  177.2430  143.5780 C   0  0  0  0  0  0  0  0  0  0  0  0
  189.9380  176.8850  145.1960 C   0  0  2  0  0  3  0  0  0  0  0  0
  184.3730  177.2870  138.5390 C   0  0  0  0  0  2  0  0  0  0  0  0
  184.8810  179.4620  140.4120 C   0  0  1  0  0  3  0  0  0  0  0  0
  186.6660  177.9160  140.6360 N   0  0  0  0  0  2  0  0  0  0  0  0
  185.6540  178.1050  138.3880 C   0  0  0  0  0  2  0  0  0  0  0  0
  186.5530  178.5560  141.8860 N   0  0  1  0  0  0  0  0  0  0  0  0
  183.2610  178.0910  139.0580 N   0  0  0  0  0  0  0  0  0  0  0  0
  186.0350  178.8100  139.6850 C   0  0  1  0  0  3  0  0  0  0  0  0
  183.5960  178.6160  140.3840 C   0  0  0  0  0  2  0  0  0  0  0  0
  185.3870  179.4530  141.8310 C   0  0  0  0  0  2  0  0  0  0  0  0
  182.9350  179.1880  138.1480 C   0  0  0  0  0  2  0  0  0  0  0  0
  181.6470  179.8610  138.5900 C   0  0  0  0  0  2  0  0  0  0  0  0
  181.7230  181.3310  138.3430 C   0  0  0  0  0  0  0  0  0  0  0  0
  180.6210  182.0160  137.6120 C   0  0  0  0  0  1  0  0  0  0  0  0
  182.6930  181.9700  138.7190 O   0  0  0  0  0  0  0  0  0  0  0  0
  1 17  1  1  0  0  0
  1  8  1  0  0  0  0
  2  3  1  0  0  0  0
  4 17  2  0  0  0  0
  4  5  1  0  0  0  0
  6 16  1  0  0  0  0
  7  2  2  0  0  0  0
  8  7  1  0  0  0  0
  8 13  2  0  0  0  0
  9 13  1  0  0  0  0
  9 14  2  0  0  0  0
 10  6  2  0  0  0  0
 11  5  2  0  0  0  0
 11 10  1  0  0  0  0
 12  3  2  0  0  0  0
 13 12  1  0  0  0  0
 15  4  1  0  0  0  0
 17  9  1  0  0  0  0
 18  5  1  1  0  0  0
 18 14  1  0  0  0  0
 18  6  1  0  0  0  0
 19 24  1  0  0  0  0
 20 26  1  1  0  0  0
 20 27  1  0  0  0  0
 21 23  1  0  0  0  0
 22 19  1  0  0  0  0
 23 27  1  6  0  0  0
 23  1  1  0  0  0  0
 24 26  1  0  0  0  0
 25 22  1  6  0  0  0
 25 20  1  0  0  0  0
 25 21  1  0  0  0  0
 28 29  1  0  0  0  0
 28 24  1  0  0  0  0
 30 29  1  0  0  0  0
 30 32  2  0  0  0  0
 31 30  1  0  0  0  0
M  END
>  <MODEL>
6

>  <REMARK>
 VINA RESULT:      -7.8      3.055      8.375
  Name = 
  4 active torsions:
  status: ('A' for Active; 'I' for Inactive)
    1  A    between atoms: C_1  and  C_10
    2  A    between atoms: C_3  and  N_14
    3  A    between atoms: C_10  and  C_24
    4  A    between atoms: N_19  and  C_24
                            x       y       z     vdW  Elec       q    Type
                         _______ _______ _______ _____ _____    ______ ____

>  <TORSDO>
F 4

$$$$
=
 OpenBabel11052417013D

 32 37  0  0  1  0  0  0  0  0999 V2000
  187.4720  177.5440  142.0320 C   0  0  2  0  0  3  0  0  0  0  0  0
  187.9270  177.5050  145.8650 C   0  0  0  0  0  3  0  0  0  0  0  0
  189.3340  177.4570  145.8950 C   0  0  0  0  0  3  0  0  0  0  0  0
  188.9780  177.3440  139.8830 C   0  0  0  0  0  0  0  0  0  0  0  0
  190.3100  177.2470  139.4610 C   0  0  0  0  0  0  0  0  0  0  0  0
  192.5700  177.1120  139.6310 C   0  0  0  0  0  0  0  0  0  0  0  0
  187.2410  177.5390  144.6390 C   0  0  0  0  0  3  0  0  0  0  0  0
  187.9870  177.5430  143.4590 C   0  0  0  0  0  0  0  0  0  0  0  0
  189.8540  177.4130  142.1450 C   0  0  0  0  0  0  0  0  0  0  0  0
  192.3390  177.0560  138.3580 N   0  0  0  0  0  0  0  0  0  0  0  0
  190.8940  177.1320  138.0930 C   0  0  0  0  0  3  0  0  0  0  0  0
  190.0730  177.4360  144.7020 C   0  0  0  0  0  3  0  0  0  0  0  0
  189.3680  177.4780  143.5000 C   0  0  0  0  0  0  0  0  0  0  0  0
  191.1440  177.3090  141.7170 N   0  0  0  0  0  0  0  0  0  0  0  0
  187.6470  177.3470  138.7380 Cl  0  0  0  0  0  0  0  0  0  0  0  0
  193.9350  177.0570  140.2180 C   0  0  0  0  0  1  0  0  0  0  0  0
  188.7700  177.4340  141.2690 C   0  0  2  0  0  3  0  0  0  0  0  0
  191.3400  177.2340  140.3720 C   0  0  0  0  0  0  0  0  0  0  0  0
  183.4250  177.6520  139.3470 C   0  0  0  0  0  2  0  0  0  0  0  0
  184.3700  179.1980  141.6320 C   0  0  1  0  0  3  0  0  0  0  0  0
  186.2750  178.6270  140.3380 N   0  0  0  0  0  2  0  0  0  0  0  0
  184.1650  178.9650  139.0940 C   0  0  0  0  0  2  0  0  0  0  0  0
  186.7370  178.7680  141.6620 N   0  0  1  0  0  0  0  0  0  0  0  0
  182.6460  177.6880  140.5900 N   0  0  0  0  0  0  0  0  0  0  0  0
  185.0300  179.3690  140.2830 C   0  0  1  0  0  3  0  0  0  0  0  0
  183.5330  177.9110  141.7340 C   0  0  0  0  0  2  0  0  0  0  0  0
  185.5710  179.0190  142.5240 C   0  0  0  0  0  2  0  0  0  0  0  0
  181.6200  178.7270  140.5370 C   0  0  0  0  0  2  0  0  0  0  0  0
  180.4380  178.3310  141.4060 C   0  0  0  0  0  2  0  0  0  0  0  0
  180.3570  179.2190  142.6030 C   0  0  0  0  0  0  0  0  0  0  0  0
  180.4210  178.6290  143.9690 C   0  0  0  0  0  1  0  0  0  0  0  0
  180.2180  180.4240  142.4670 O   0  0  0  0  0  0  0  0  0  0  0  0
  1  8  1  1  0  0  0
  2  3  1  0  0  0  0
  5  4  2  0  0  0  0
  5 18  1  0  0  0  0
  6 16  1  0  0  0  0
  6 18  2  0  0  0  0
  7  2  2  0  0  0  0
  8 13  2  0  0  0  0
  8  7  1  0  0  0  0
  9 13  1  0  0  0  0
 10  6  1  0  0  0  0
 11 10  2  0  0  0  0
 11  5  1  0  0  0  0
 12  3  2  0  0  0  0
 13 12  1  0  0  0  0
 14  9  2  0  0  0  0
 15  4  1  0  0  0  0
 17  4  1  1  0  0  0
 17  1  1  0  0  0  0
 17  9  1  0  0  0  0
 18 14  1  0  0  0  0
 19 24  1  0  0  0  0
 20 26  1  6  0  0  0
 20 27  1  0  0  0  0
 21 23  1  0  0  0  0
 22 19  1  0  0  0  0
 23  1  1  0  0  0  0
 23 27  1  1  0  0  0
 24 26  1  0  0  0  0
 25 22  1  6  0  0  0
 25 21  1  0  0  0  0
 25 20  1  0  0  0  0
 28 24  1  0  0  0  0
 28 29  1  0  0  0  0
 29 30  1  0  0  0  0
 30 31  1  0  0  0  0
 32 30  2  0  0  0  0
M  END
>  <MODEL>
7

>  <REMARK>
 VINA RESULT:      -7.7      3.312      7.958
  Name = 
  4 active torsions:
  status: ('A' for Active; 'I' for Inactive)
    1  A    between atoms: C_1  and  C_10
    2  A    between atoms: C_3  and  N_14
    3  A    between atoms: C_10  and  C_24
    4  A    between atoms: N_19  and  C_24
                            x       y       z     vdW  Elec       q    Type
                         _______ _______ _______ _____ _____    ______ ____

>  <TORSDO>
F 4

$$$$
=
 OpenBabel11052417013D

 32 37  0  0  1  0  0  0  0  0999 V2000
  190.6520  177.6590  140.9220 C   0  0  2  0  0  3  0  0  0  0  0  0
  186.9340  178.6840  140.7740 C   0  0  0  0  0  3  0  0  0  0  0  0
  186.6720  178.2850  139.4480 C   0  0  0  0  0  3  0  0  0  0  0  0
  192.4870  176.7180  139.2870 C   0  0  0  0  0  0  0  0  0  0  0  0
  192.6810  176.2530  137.9800 C   0  0  0  0  0  0  0  0  0  0  0  0
  192.1610  175.6990  135.8410 C   0  0  0  0  0  0  0  0  0  0  0  0
  188.2110  178.5100  141.3320 C   0  0  0  0  0  3  0  0  0  0  0  0
  189.2040  177.9180  140.5500 C   0  0  0  0  0  0  0  0  0  0  0  0
  190.1640  177.0450  138.6660 C   0  0  0  0  0  0  0  0  0  0  0  0
  193.4270  175.4470  135.9400 N   0  0  0  0  0  0  0  0  0  0  0  0
  193.9110  175.7630  137.2920 C   0  0  0  0  0  3  0  0  0  0  0  0
  187.6850  177.7130  138.6640 C   0  0  0  0  0  3  0  0  0  0  0  0
  188.9420  177.5450  139.2440 C   0  0  0  0  0  0  0  0  0  0  0  0
  190.3740  176.5990  137.3960 N   0  0  0  0  0  0  0  0  0  0  0  0
  193.8070  176.8030  140.4410 Cl  0  0  0  0  0  0  0  0  0  0  0  0
  191.3790  175.4850  134.5940 C   0  0  0  0  0  1  0  0  0  0  0  0
  191.1800  177.1150  139.6170 C   0  0  2  0  0  3  0  0  0  0  0  0
  191.6390  176.2040  137.0840 C   0  0  0  0  0  0  0  0  0  0  0  0
  190.0190  178.6300  145.6390 C   0  0  0  0  0  2  0  0  0  0  0  0
  189.4730  176.3020  143.9700 C   0  0  1  0  0  3  0  0  0  0  0  0
  191.4250  177.3400  143.1080 N   0  0  0  0  0  2  0  0  0  0  0  0
  191.0710  177.5260  145.5480 C   0  0  0  0  0  2  0  0  0  0  0  0
  190.8240  176.6830  142.0160 N   0  0  1  0  0  0  0  0  0  0  0  0
  188.6540  178.1030  145.5270 N   0  0  0  0  0  0  0  0  0  0  0  0
  190.9020  176.6820  144.2890 C   0  0  1  0  0  3  0  0  0  0  0  0
  188.4750  177.4430  144.2310 C   0  0  0  0  0  2  0  0  0  0  0  0
  189.5480  176.1110  142.4780 C   0  0  0  0  0  2  0  0  0  0  0  0
  188.3580  177.1710  146.6130 C   0  0  0  0  0  2  0  0  0  0  0  0
  187.5700  177.8800  147.7020 C   0  0  0  0  0  2  0  0  0  0  0  0
  186.3640  178.5380  147.1190 C   0  0  0  0  0  0  0  0  0  0  0  0
  185.4800  177.7770  146.1930 C   0  0  0  0  0  1  0  0  0  0  0  0
  186.1110  179.7030  147.3810 O   0  0  0  0  0  0  0  0  0  0  0  0
  1  8  1  6  0  0  0
  1 23  1  0  0  0  0
  2  7  1  0  0  0  0
  3  2  2  0  0  0  0
  4 17  1  0  0  0  0
  4 15  1  0  0  0  0
  5  4  2  0  0  0  0
  6 10  1  0  0  0  0
  6 18  2  0  0  0  0
  8  7  2  0  0  0  0
  9 13  1  0  0  0  0
 10 11  2  0  0  0  0
 11  5  1  0  0  0  0
 12 13  2  0  0  0  0
 12  3  1  0  0  0  0
 13  8  1  0  0  0  0
 14  9  2  0  0  0  0
 16  6  1  0  0  0  0
 17  9  1  6  0  0  0
 17  1  1  0  0  0  0
 18 14  1  0  0  0  0
 18  5  1  0  0  0  0
 20 27  1  6  0  0  0
 20 26  1  0  0  0  0
 20 25  1  0  0  0  0
 21 25  1  0  0  0  0
 22 19  1  0  0  0  0
 23 27  1  1  0  0  0
 23 21  1  0  0  0  0
 24 19  1  0  0  0  0
 24 28  1  0  0  0  0
 25 22  1  1  0  0  0
 26 24  1  0  0  0  0
 28 29  1  0  0  0  0
 30 32  2  0  0  0  0
 30 29  1  0  0  0  0
 31 30  1  0  0  0  0
M  END
>  <MODEL>
8

>  <REMARK>
 VINA RESULT:      -7.5      4.112      6.881
  Name = 
  4 active torsions:
  status: ('A' for Active; 'I' for Inactive)
    1  A    between atoms: C_1  and  C_10
    2  A    between atoms: C_3  and  N_14
    3  A    between atoms: C_10  and  C_24
    4  A    between atoms: N_19  and  C_24
                            x       y       z     vdW  Elec       q    Type
                         _______ _______ _______ _____ _____    ______ ____

>  <TORSDO>
F 4

$$$$
=
 OpenBabel11052417013D

 32 37  0  0  1  0  0  0  0  0999 V2000
  188.5550  177.9190  144.1690 C   0  0  2  0  0  3  0  0  0  0  0  0
  189.2370  177.7890  147.9660 C   0  0  0  0  0  3  0  0  0  0  0  0
  187.9030  177.8810  148.4080 C   0  0  0  0  0  3  0  0  0  0  0  0
  186.5000  178.2700  142.5630 C   0  0  0  0  0  0  0  0  0  0  0  0
  185.1080  178.4300  142.5530 C   0  0  0  0  0  0  0  0  0  0  0  0
  183.0050  178.6280  143.3810 C   0  0  0  0  0  0  0  0  0  0  0  0
  189.5350  177.7910  146.5930 C   0  0  0  0  0  3  0  0  0  0  0  0
  188.4790  177.8680  145.6830 C   0  0  0  0  0  0  0  0  0  0  0  0
  186.3170  178.1210  144.9780 C   0  0  0  0  0  0  0  0  0  0  0  0
  182.8580  178.7390  142.0990 N   0  0  0  0  0  0  0  0  0  0  0  0
  184.1580  178.6290  141.4210 C   0  0  0  0  0  3  0  0  0  0  0  0
  186.8510  177.9820  147.4850 C   0  0  0  0  0  3  0  0  0  0  0  0
  187.1730  177.9750  146.1290 C   0  0  0  0  0  0  0  0  0  0  0  0
  184.9650  178.2870  144.9500 N   0  0  0  0  0  0  0  0  0  0  0  0
  187.4390  178.2790  141.0800 Cl  0  0  0  0  0  0  0  0  0  0  0  0
  181.8720  178.6990  144.3440 C   0  0  0  0  0  1  0  0  0  0  0  0
  187.0980  178.1070  143.8240 C   0  0  2  0  0  3  0  0  0  0  0  0
  184.3890  178.4330  143.7250 C   0  0  0  0  0  0  0  0  0  0  0  0
  190.8440  177.7240  139.8890 C   0  0  0  0  0  2  0  0  0  0  0  0
  191.1860  176.3220  142.4220 C   0  0  1  0  0  3  0  0  0  0  0  0
  188.8660  176.7490  142.1660 N   0  0  0  0  0  2  0  0  0  0  0  0
  190.1490  176.3780  140.0860 C   0  0  0  0  0  2  0  0  0  0  0  0
  189.0950  176.6910  143.5550 N   0  0  1  0  0  0  0  0  0  0  0  0
  192.1210  177.7980  140.6100 N   0  0  0  0  0  0  0  0  0  0  0  0
  189.9760  176.0370  141.5620 C   0  0  1  0  0  3  0  0  0  0  0  0
  191.8960  177.6350  142.0480 C   0  0  0  0  0  2  0  0  0  0  0  0
  190.5430  176.5340  143.7690 C   0  0  0  0  0  2  0  0  0  0  0  0
  193.0570  176.7850  140.1270 C   0  0  0  0  0  2  0  0  0  0  0  0
  193.1810  176.8750  138.6160 C   0  0  0  0  0  2  0  0  0  0  0  0
  193.2260  175.5080  138.0200 C   0  0  0  0  0  0  0  0  0  0  0  0
  194.5160  174.7640  137.9680 C   0  0  0  0  0  1  0  0  0  0  0  0
  192.2160  175.0040  137.5560 O   0  0  0  0  0  0  0  0  0  0  0  0
  1  8  1  1  0  0  0
  2  3  1  0  0  0  0
  5  4  2  0  0  0  0
  5 18  1  0  0  0  0
  6 18  2  0  0  0  0
  6 16  1  0  0  0  0
  7  2  2  0  0  0  0
  8 13  2  0  0  0  0
  8  7  1  0  0  0  0
  9 13  1  0  0  0  0
 10  6  1  0  0  0  0
 11 10  2  0  0  0  0
 11  5  1  0  0  0  0
 12  3  2  0  0  0  0
 13 12  1  0  0  0  0
 14  9  2  0  0  0  0
 15  4  1  0  0  0  0
 17  4  1  1  0  0  0
 17  1  1  0  0  0  0
 17  9  1  0  0  0  0
 18 14  1  0  0  0  0
 19 22  1  0  0  0  0
 19 24  1  0  0  0  0
 20 26  1  6  0  0  0
 20 27  1  0  0  0  0
 21 23  1  0  0  0  0
 23 27  1  6  0  0  0
 23  1  1  0  0  0  0
 24 26  1  0  0  0  0
 25 22  1  6  0  0  0
 25 21  1  0  0  0  0
 25 20  1  0  0  0  0
 28 24  1  0  0  0  0
 29 28  1  0  0  0  0
 30 29  1  0  0  0  0
 31 30  1  0  0  0  0
 32 30  2  0  0  0  0
M  END
>  <MODEL>
9

>  <REMARK>
 VINA RESULT:      -7.5      3.008      4.839
  Name = 
  4 active torsions:
  status: ('A' for Active; 'I' for Inactive)
    1  A    between atoms: C_1  and  C_10
    2  A    between atoms: C_3  and  N_14
    3  A    between atoms: C_10  and  C_24
    4  A    between atoms: N_19  and  C_24
                            x       y       z     vdW  Elec       q    Type
                         _______ _______ _______ _____ _____    ______ ____

>  <TORSDO>
F 4

$$$$
