=
 OpenBabel11052412503D

 25 28  0  0  1  0  0  0  0  0999 V2000
  187.6560  177.4830  145.2530 C   0  0  0  0  0  0  0  0  0  0  0  0
  188.8200  177.1200  144.5750 C   0  0  0  0  0  0  0  0  0  0  0  0
  188.8740  177.8080  147.2960 C   0  0  0  0  0  3  0  0  0  0  0  0
  186.2380  177.4980  144.8080 C   0  0  1  0  0  3  0  0  0  0  0  0
  183.8870  179.1620  144.8540 C   0  0  0  0  0  3  0  0  0  0  0  0
  190.0210  177.4710  146.6380 N   0  0  0  0  0  0  0  0  0  0  0  0
  185.5870  177.9890  146.0760 C   0  0  0  0  0  0  0  0  0  0  0  0
  184.2640  178.6150  146.0180 C   0  0  0  0  0  3  0  0  0  0  0  0
  191.3450  176.8140  144.6550 C   0  0  2  0  0  3  0  0  0  0  0  0
  191.9930  178.0060  144.3290 O   0  0  0  0  0  1  0  0  0  0  0  0
  188.7630  176.6760  143.1400 C   0  0  0  0  0  2  0  0  0  0  0  0
  184.8070  179.1750  143.6840 C   0  0  0  0  0  3  0  0  0  0  0  0
  187.6790  177.7950  146.5860 C   0  0  0  0  0  0  0  0  0  0  0  0
  186.3960  178.1480  147.0770 N   0  0  0  0  0  0  0  0  0  0  0  0
  191.1640  175.9670  143.3980 C   0  0  0  0  0  2  0  0  0  0  0  0
  185.9390  178.4520  143.6790 C   0  0  0  0  0  3  0  0  0  0  0  0
  190.1050  176.5310  142.5720 N   0  0  0  0  0  0  0  0  0  0  0  0
  190.0300  177.1180  145.3150 C   0  0  0  0  0  0  0  0  0  0  0  0
  190.3640  176.7510  141.1830 C   0  0  0  0  0  3  0  0  0  0  0  0
  189.5360  177.4190  140.4210 C   0  0  0  0  0  0  0  0  0  0  0  0
  188.7070  178.0880  139.6680 C   0  0  0  0  0  0  0  0  0  0  0  0
  187.6740  178.8030  140.2630 O   0  0  0  0  0  1  0  0  0  0  0  0
  188.8560  178.0930  138.2070 C   0  0  0  0  0  0  0  0  0  0  0  0
  188.7030  179.2710  137.4830 O   0  0  0  0  0  0  0  0  0  0  0  0
  189.1240  177.0240  137.5990 O   0  0  0  0  0  1  0  0  0  0  0  0
  1 13  1  0  0  0  0
  2  1  2  0  0  0  0
  2 18  1  0  0  0  0
  4 16  1  6  0  0  0
  4  1  1  0  0  0  0
  4  7  1  0  0  0  0
  5  8  2  0  0  0  0
  6  3  1  0  0  0  0
  7 14  2  0  0  0  0
  8  7  1  0  0  0  0
  9 10  1  6  0  0  0
  9 18  1  0  0  0  0
 11  2  1  0  0  0  0
 12  5  1  0  0  0  0
 13 14  1  0  0  0  0
 13  3  2  0  0  0  0
 15  9  1  0  0  0  0
 16 12  2  0  0  0  0
 17 11  1  0  0  0  0
 17 15  1  0  0  0  0
 18  6  2  0  0  0  0
 19 17  1  0  0  0  0
 20 19  2  0  0  0  0
 21 22  1  0  0  0  0
 21 20  2  0  0  0  0
 23 21  1  0  0  0  0
 24 23  2  0  0  0  0
 25 23  1  0  0  0  0
M  END
>  <MODEL>
1

>  <REMARK>
 VINA RESULT:     -10.3      0.000      0.000
  Name = 
  2 active torsions:
  status: ('A' for Active; 'I' for Inactive)
    1  A    between atoms: C_2  and  C_21
    2  A    between atoms: C_6  and  N_23
                            x       y       z     vdW  Elec       q    Type
                         _______ _______ _______ _____ _____    ______ ____

>  <TORSDO>
F 2

$$$$
=
 OpenBabel11052412503D

 25 28  0  0  1  0  0  0  0  0999 V2000
  187.9080  177.4330  144.8530 C   0  0  0  0  0  0  0  0  0  0  0  0
  188.8300  177.2350  143.8260 C   0  0  0  0  0  0  0  0  0  0  0  0
  189.6620  177.5570  146.4870 C   0  0  0  0  0  3  0  0  0  0  0  0
  186.4210  177.4210  144.8400 C   0  0  1  0  0  3  0  0  0  0  0  0
  184.1540  178.9180  145.7970 C   0  0  0  0  0  3  0  0  0  0  0  0
  190.5740  177.3810  145.4860 N   0  0  0  0  0  0  0  0  0  0  0  0
  186.1590  177.6990  146.2990 C   0  0  0  0  0  0  0  0  0  0  0  0
  184.8650  178.2450  146.7130 C   0  0  0  0  0  3  0  0  0  0  0  0
  191.2730  177.0740  143.1340 C   0  0  2  0  0  3  0  0  0  0  0  0
  191.7740  178.3360  142.8120 O   0  0  0  0  0  1  0  0  0  0  0  0
  188.3650  176.9820  142.4180 C   0  0  0  0  0  2  0  0  0  0  0  0
  184.6920  179.1420  144.4280 C   0  0  0  0  0  3  0  0  0  0  0  0
  188.3130  177.5670  146.1550 C   0  0  0  0  0  0  0  0  0  0  0  0
  187.2220  177.7730  147.0380 N   0  0  0  0  0  0  0  0  0  0  0  0
  190.7500  176.3920  141.8720 C   0  0  0  0  0  2  0  0  0  0  0  0
  185.7870  178.4960  143.9940 C   0  0  0  0  0  3  0  0  0  0  0  0
  189.4840  176.9950  141.4760 N   0  0  0  0  0  0  0  0  0  0  0  0
  190.2030  177.2080  144.1790 C   0  0  0  0  0  0  0  0  0  0  0  0
  189.3220  177.4130  140.1170 C   0  0  0  0  0  3  0  0  0  0  0  0
  189.8560  176.7540  139.1210 C   0  0  0  0  0  0  0  0  0  0  0  0
  190.3890  176.0910  138.1320 C   0  0  0  0  0  0  0  0  0  0  0  0
  190.9240  174.8300  138.3700 O   0  0  0  0  0  1  0  0  0  0  0  0
  190.4280  176.6610  136.7790 C   0  0  0  0  0  0  0  0  0  0  0  0
  189.5430  177.6680  136.4090 O   0  0  0  0  0  1  0  0  0  0  0  0
  191.2690  176.2380  135.9430 O   0  0  0  0  0  0  0  0  0  0  0  0
  1 13  1  0  0  0  0
  2 18  1  0  0  0  0
  2  1  2  0  0  0  0
  4 16  1  6  0  0  0
  4  1  1  0  0  0  0
  4  7  1  0  0  0  0
  5  8  2  0  0  0  0
  6  3  1  0  0  0  0
  7  8  1  0  0  0  0
  7 14  2  0  0  0  0
  9 10  1  6  0  0  0
  9 18  1  0  0  0  0
 11  2  1  0  0  0  0
 12  5  1  0  0  0  0
 13  3  2  0  0  0  0
 13 14  1  0  0  0  0
 15  9  1  0  0  0  0
 16 12  2  0  0  0  0
 17 15  1  0  0  0  0
 17 11  1  0  0  0  0
 18  6  2  0  0  0  0
 19 17  1  0  0  0  0
 20 19  2  0  0  0  0
 21 22  1  0  0  0  0
 21 20  2  0  0  0  0
 23 21  1  0  0  0  0
 24 23  1  0  0  0  0
 25 23  2  0  0  0  0
M  END
>  <MODEL>
2

>  <REMARK>
 VINA RESULT:      -9.3      1.413      1.820
  Name = 
  2 active torsions:
  status: ('A' for Active; 'I' for Inactive)
    1  A    between atoms: C_2  and  C_21
    2  A    between atoms: C_6  and  N_23
                            x       y       z     vdW  Elec       q    Type
                         _______ _______ _______ _____ _____    ______ ____

>  <TORSDO>
F 2

$$$$
=
 OpenBabel11052412503D

 25 28  0  0  1  0  0  0  0  0999 V2000
  187.6690  177.6260  144.7140 C   0  0  0  0  0  0  0  0  0  0  0  0
  186.5650  177.9180  143.9120 C   0  0  0  0  0  0  0  0  0  0  0  0
  189.1430  177.7090  142.8210 C   0  0  0  0  0  3  0  0  0  0  0  0
  187.7570  177.2830  146.1570 C   0  0  1  0  0  3  0  0  0  0  0  0
  189.2580  177.9250  148.5310 C   0  0  0  0  0  3  0  0  0  0  0  0
  188.0720  178.0120  142.0300 N   0  0  0  0  0  0  0  0  0  0  0  0
  189.2500  177.1020  146.2770 C   0  0  0  0  0  0  0  0  0  0  0  0
  189.8930  177.2130  147.5880 C   0  0  0  0  0  3  0  0  0  0  0  0
  185.6870  178.4990  141.5960 C   0  0  2  0  0  3  0  0  0  0  0  0
  185.7030  179.8810  141.4000 O   0  0  0  0  0  1  0  0  0  0  0  0
  185.1810  177.9450  144.4970 C   0  0  0  0  0  2  0  0  0  0  0  0
  187.9750  178.6160  148.2310 C   0  0  0  0  0  3  0  0  0  0  0  0
  188.9230  177.5010  144.1770 C   0  0  0  0  0  0  0  0  0  0  0  0
  189.9030  177.2160  145.1620 N   0  0  0  0  0  0  0  0  0  0  0  0
  184.3230  178.0720  142.1340 C   0  0  0  0  0  2  0  0  0  0  0  0
  187.2990  178.3710  147.0950 C   0  0  0  0  0  3  0  0  0  0  0  0
  184.2040  178.4570  143.5340 N   0  0  0  0  0  0  0  0  0  0  0  0
  186.8000  178.1090  142.5270 C   0  0  0  0  0  0  0  0  0  0  0  0
  183.0360  179.1690  143.9510 C   0  0  0  0  0  3  0  0  0  0  0  0
  181.9410  179.1830  143.2360 C   0  0  0  0  0  0  0  0  0  0  0  0
  180.8510  179.1900  142.5190 C   0  0  0  0  0  0  0  0  0  0  0  0
  180.7330  178.3060  141.4530 O   0  0  0  0  0  1  0  0  0  0  0  0
  179.7550  180.1180  142.8260 C   0  0  0  0  0  0  0  0  0  0  0  0
  178.9410  179.9110  143.9340 O   0  0  0  0  0  1  0  0  0  0  0  0
  179.5460  181.1120  142.0820 O   0  0  0  0  0  0  0  0  0  0  0  0
  1  4  1  0  0  0  0
  2 11  1  0  0  0  0
  2  1  2  0  0  0  0
  3 13  2  0  0  0  0
  4  7  1  0  0  0  0
  4 16  1  1  0  0  0
  6 18  2  0  0  0  0
  6  3  1  0  0  0  0
  7  8  1  0  0  0  0
  8  5  2  0  0  0  0
  9 10  1  1  0  0  0
  9 15  1  0  0  0  0
  9 18  1  0  0  0  0
 12  5  1  0  0  0  0
 13  1  1  0  0  0  0
 13 14  1  0  0  0  0
 14  7  2  0  0  0  0
 15 17  1  0  0  0  0
 16 12  2  0  0  0  0
 17 19  1  0  0  0  0
 17 11  1  0  0  0  0
 18  2  1  0  0  0  0
 20 19  2  0  0  0  0
 21 23  1  0  0  0  0
 21 20  2  0  0  0  0
 22 21  1  0  0  0  0
 23 24  1  0  0  0  0
 25 23  2  0  0  0  0
M  END
>  <MODEL>
3

>  <REMARK>
 VINA RESULT:      -9.3      3.553      6.554
  Name = 
  2 active torsions:
  status: ('A' for Active; 'I' for Inactive)
    1  A    between atoms: C_2  and  C_21
    2  A    between atoms: C_6  and  N_23
                            x       y       z     vdW  Elec       q    Type
                         _______ _______ _______ _____ _____    ______ ____

>  <TORSDO>
F 2

$$$$
=
 OpenBabel11052412503D

 25 28  0  0  1  0  0  0  0  0999 V2000
  184.5480  178.8830  143.4960 C   0  0  0  0  0  0  0  0  0  0  0  0
  184.4700  178.8760  142.1040 C   0  0  0  0  0  0  0  0  0  0  0  0
  182.1550  178.8560  143.6920 C   0  0  0  0  0  3  0  0  0  0  0  0
  185.7210  178.9980  144.4030 C   0  0  1  0  0  3  0  0  0  0  0  0
  186.8580  177.8060  146.7660 C   0  0  0  0  0  3  0  0  0  0  0  0
  182.0680  178.8320  142.3300 N   0  0  0  0  0  0  0  0  0  0  0  0
  185.0110  178.9370  145.7320 C   0  0  0  0  0  0  0  0  0  0  0  0
  185.7520  178.5440  146.9340 C   0  0  0  0  0  3  0  0  0  0  0  0
  182.9910  178.7700  140.0360 C   0  0  2  0  0  3  0  0  0  0  0  0
  182.7630  177.4440  139.6660 O   0  0  0  0  0  1  0  0  0  0  0  0
  185.7150  178.9700  141.2670 C   0  0  0  0  0  2  0  0  0  0  0  0
  187.2820  177.3630  145.4100 C   0  0  0  0  0  3  0  0  0  0  0  0
  183.4180  178.8970  144.2710 C   0  0  0  0  0  0  0  0  0  0  0  0
  183.7180  178.8890  145.6580 N   0  0  0  0  0  0  0  0  0  0  0  0
  184.2040  179.3120  139.2840 C   0  0  0  0  0  2  0  0  0  0  0  0
  186.7120  177.8660  144.3020 C   0  0  0  0  0  3  0  0  0  0  0  0
  185.4240  178.7520  139.8490 N   0  0  0  0  0  0  0  0  0  0  0  0
  183.1760  178.8530  141.5250 C   0  0  0  0  0  0  0  0  0  0  0  0
  186.3830  178.1680  138.9630 C   0  0  0  0  0  3  0  0  0  0  0  0
  187.5710  177.8020  139.3720 C   0  0  0  0  0  0  0  0  0  0  0  0
  188.7530  177.4380  139.7860 C   0  0  0  0  0  0  0  0  0  0  0  0
  189.0100  177.3930  141.1510 O   0  0  0  0  0  1  0  0  0  0  0  0
  189.8070  177.0770  138.8290 C   0  0  0  0  0  0  0  0  0  0  0  0
  190.5910  175.9470  139.0310 O   0  0  0  0  0  1  0  0  0  0  0  0
  190.0070  177.7950  137.8140 O   0  0  0  0  0  0  0  0  0  0  0  0
  1 13  1  0  0  0  0
  1  4  1  0  0  0  0
  2  1  2  0  0  0  0
  3 13  2  0  0  0  0
  4 16  1  1  0  0  0
  4  7  1  0  0  0  0
  5  8  2  0  0  0  0
  6  3  1  0  0  0  0
  7  8  1  0  0  0  0
  9 10  1  1  0  0  0
  9 18  1  0  0  0  0
 11  2  1  0  0  0  0
 12  5  1  0  0  0  0
 13 14  1  0  0  0  0
 14  7  2  0  0  0  0
 15 17  1  0  0  0  0
 15  9  1  0  0  0  0
 16 12  2  0  0  0  0
 17 11  1  0  0  0  0
 18  2  1  0  0  0  0
 18  6  2  0  0  0  0
 19 20  2  0  0  0  0
 19 17  1  0  0  0  0
 20 21  2  0  0  0  0
 21 22  1  0  0  0  0
 23 24  1  0  0  0  0
 23 21  1  0  0  0  0
 25 23  2  0  0  0  0
M  END
>  <MODEL>
4

>  <REMARK>
 VINA RESULT:      -8.9      2.798      5.308
  Name = 
  2 active torsions:
  status: ('A' for Active; 'I' for Inactive)
    1  A    between atoms: C_2  and  C_21
    2  A    between atoms: C_6  and  N_23
                            x       y       z     vdW  Elec       q    Type
                         _______ _______ _______ _____ _____    ______ ____

>  <TORSDO>
F 2

$$$$
=
 OpenBabel11052412503D

 25 28  0  0  1  0  0  0  0  0999 V2000
  187.6190  178.3310  140.7730 C   0  0  0  0  0  0  0  0  0  0  0  0
  188.9540  177.9250  140.8060 C   0  0  0  0  0  0  0  0  0  0  0  0
  187.5190  178.0190  138.3950 C   0  0  0  0  0  3  0  0  0  0  0  0
  186.7380  178.8600  141.8470 C   0  0  1  0  0  3  0  0  0  0  0  0
  184.0900  178.5480  142.9360 C   0  0  0  0  0  3  0  0  0  0  0  0
  188.8200  177.6040  138.4180 N   0  0  0  0  0  0  0  0  0  0  0  0
  185.4770  179.0710  141.0490 C   0  0  0  0  0  0  0  0  0  0  0  0
  184.1840  179.1380  141.7360 C   0  0  0  0  0  3  0  0  0  0  0  0
  190.9610  177.0380  139.5190 C   0  0  2  0  0  3  0  0  0  0  0  0
  190.9450  175.6430  139.4890 O   0  0  0  0  0  1  0  0  0  0  0  0
  189.7320  177.9590  142.0920 C   0  0  0  0  0  2  0  0  0  0  0  0
  185.2440  177.8100  143.5160 C   0  0  0  0  0  3  0  0  0  0  0  0
  186.9270  178.3990  139.5930 C   0  0  0  0  0  0  0  0  0  0  0  0
  185.5860  178.8200  139.7810 N   0  0  0  0  0  0  0  0  0  0  0  0
  191.7880  177.5160  140.7100 C   0  0  0  0  0  2  0  0  0  0  0  0
  186.4710  177.8980  142.9770 C   0  0  0  0  0  3  0  0  0  0  0  0
  191.0380  177.3150  141.9420 N   0  0  0  0  0  0  0  0  0  0  0  0
  189.5530  177.5580  139.5750 C   0  0  0  0  0  0  0  0  0  0  0  0
  191.6810  176.6510  143.0340 C   0  0  0  0  0  3  0  0  0  0  0  0
  191.2770  176.7980  144.2690 C   0  0  0  0  0  0  0  0  0  0  0  0
  190.8670  176.9470  145.4990 C   0  0  0  0  0  0  0  0  0  0  0  0
  189.6470  177.5690  145.7380 O   0  0  0  0  0  1  0  0  0  0  0  0
  191.6790  176.4670  146.6250 C   0  0  0  0  0  0  0  0  0  0  0  0
  192.4210  175.2960  146.5160 O   0  0  0  0  0  0  0  0  0  0  0  0
  191.7050  177.1190  147.7020 O   0  0  0  0  0  1  0  0  0  0  0  0
  1  2  1  0  0  0  0
  1  4  1  0  0  0  0
  2 11  1  0  0  0  0
  3  6  2  0  0  0  0
  3 13  1  0  0  0  0
  4 16  1  1  0  0  0
  5 12  1  0  0  0  0
  6 18  1  0  0  0  0
  7  8  1  0  0  0  0
  7  4  1  0  0  0  0
  8  5  2  0  0  0  0
  9 10  1  1  0  0  0
  9 18  1  0  0  0  0
  9 15  1  0  0  0  0
 13 14  1  0  0  0  0
 13  1  2  0  0  0  0
 14  7  2  0  0  0  0
 15 17  1  0  0  0  0
 16 12  2  0  0  0  0
 17 11  1  0  0  0  0
 17 19  1  0  0  0  0
 18  2  2  0  0  0  0
 19 20  2  0  0  0  0
 20 21  2  0  0  0  0
 21 22  1  0  0  0  0
 21 23  1  0  0  0  0
 23 25  1  0  0  0  0
 24 23  2  0  0  0  0
M  END
>  <MODEL>
5

>  <REMARK>
 VINA RESULT:      -8.7      2.835      5.862
  Name = 
  2 active torsions:
  status: ('A' for Active; 'I' for Inactive)
    1  A    between atoms: C_2  and  C_21
    2  A    between atoms: C_6  and  N_23
                            x       y       z     vdW  Elec       q    Type
                         _______ _______ _______ _____ _____    ______ ____

>  <TORSDO>
F 2

$$$$
=
 OpenBabel11052412503D

 25 28  0  0  1  0  0  0  0  0999 V2000
  188.9850  177.1910  145.2650 C   0  0  0  0  0  0  0  0  0  0  0  0
  189.4230  177.0720  143.9460 C   0  0  0  0  0  0  0  0  0  0  0  0
  191.2400  177.1180  146.0860 C   0  0  0  0  0  3  0  0  0  0  0  0
  187.6120  177.2130  145.8340 C   0  0  1  0  0  3  0  0  0  0  0  0
  185.9850  178.6610  147.7190 C   0  0  0  0  0  3  0  0  0  0  0  0
  191.6800  177.0180  144.7980 N   0  0  0  0  0  0  0  0  0  0  0  0
  187.9530  177.3550  147.2960 C   0  0  0  0  0  0  0  0  0  0  0  0
  186.9550  177.8870  148.2270 C   0  0  0  0  0  3  0  0  0  0  0  0
  191.3930  176.9240  142.3430 C   0  0  2  0  0  3  0  0  0  0  0  0
  191.8020  178.1990  141.9520 O   0  0  0  0  0  1  0  0  0  0  0  0
  188.4350  176.9660  142.8180 C   0  0  0  0  0  2  0  0  0  0  0  0
  185.9610  179.0040  146.2710 C   0  0  0  0  0  3  0  0  0  0  0  0
  189.8710  177.1890  146.3110 C   0  0  0  0  0  0  0  0  0  0  0  0
  189.2220  177.3330  147.5640 N   0  0  0  0  0  0  0  0  0  0  0  0
  190.3830  176.3780  141.3370 C   0  0  0  0  0  2  0  0  0  0  0  0
  186.7630  178.3780  145.3930 C   0  0  0  0  0  3  0  0  0  0  0  0
  189.1000  177.0440  141.5170 N   0  0  0  0  0  0  0  0  0  0  0  0
  190.8220  176.9810  143.7310 C   0  0  0  0  0  0  0  0  0  0  0  0
  188.4480  177.5950  140.3690 C   0  0  0  0  0  3  0  0  0  0  0  0
  189.0500  177.6930  139.2110 C   0  0  0  0  0  0  0  0  0  0  0  0
  189.6550  177.7860  138.0590 C   0  0  0  0  0  0  0  0  0  0  0  0
  190.8650  177.1280  137.8720 O   0  0  0  0  0  1  0  0  0  0  0  0
  189.0710  178.5730  136.9640 C   0  0  0  0  0  0  0  0  0  0  0  0
  188.9540  178.0340  135.6880 O   0  0  0  0  0  0  0  0  0  0  0  0
  188.6730  179.7480  137.1790 O   0  0  0  0  0  1  0  0  0  0  0  0
  1  4  1  0  0  0  0
  1 13  1  0  0  0  0
  2  1  2  0  0  0  0
  3 13  2  0  0  0  0
  4 16  1  6  0  0  0
  4  7  1  0  0  0  0
  5  8  2  0  0  0  0
  6  3  1  0  0  0  0
  7 14  2  0  0  0  0
  7  8  1  0  0  0  0
  9 10  1  6  0  0  0
  9 18  1  0  0  0  0
 11  2  1  0  0  0  0
 12  5  1  0  0  0  0
 13 14  1  0  0  0  0
 15 17  1  0  0  0  0
 15  9  1  0  0  0  0
 16 12  2  0  0  0  0
 17 11  1  0  0  0  0
 18  2  1  0  0  0  0
 18  6  2  0  0  0  0
 19 17  1  0  0  0  0
 20 19  2  0  0  0  0
 21 20  2  0  0  0  0
 22 21  1  0  0  0  0
 23 25  1  0  0  0  0
 23 21  1  0  0  0  0
 24 23  2  0  0  0  0
M  END
>  <MODEL>
6

>  <REMARK>
 VINA RESULT:      -8.4      1.618      2.398
  Name = 
  2 active torsions:
  status: ('A' for Active; 'I' for Inactive)
    1  A    between atoms: C_2  and  C_21
    2  A    between atoms: C_6  and  N_23
                            x       y       z     vdW  Elec       q    Type
                         _______ _______ _______ _____ _____    ______ ____

>  <TORSDO>
F 2

$$$$
=
 OpenBabel11052412503D

 25 28  0  0  1  0  0  0  0  0999 V2000
  188.7200  177.5780  145.7080 C   0  0  0  0  0  0  0  0  0  0  0  0
  187.4190  178.0740  145.6330 C   0  0  0  0  0  0  0  0  0  0  0  0
  188.5630  177.3530  148.0930 C   0  0  0  0  0  3  0  0  0  0  0  0
  189.7600  177.4180  144.6580 C   0  0  1  0  0  3  0  0  0  0  0  0
  191.6800  175.5100  143.6710 C   0  0  0  0  0  3  0  0  0  0  0  0
  187.2830  177.8220  148.0290 N   0  0  0  0  0  0  0  0  0  0  0  0
  190.8710  176.8390  145.4980 C   0  0  0  0  0  0  0  0  0  0  0  0
  191.9450  176.0760  144.8570 C   0  0  0  0  0  3  0  0  0  0  0  0
  185.2660  178.6500  146.8610 C   0  0  2  0  0  3  0  0  0  0  0  0
  184.4220  177.5390  146.9140 O   0  0  0  0  0  1  0  0  0  0  0  0
  186.8490  178.5330  144.3200 C   0  0  0  0  0  2  0  0  0  0  0  0
  190.3270  175.6150  143.0610 C   0  0  0  0  0  3  0  0  0  0  0  0
  189.2860  177.2490  146.9110 C   0  0  0  0  0  0  0  0  0  0  0  0
  190.6070  176.7520  146.7650 N   0  0  0  0  0  0  0  0  0  0  0  0
  184.9290  179.4920  145.6330 C   0  0  0  0  0  2  0  0  0  0  0  0
  189.4020  176.4550  143.5540 C   0  0  0  0  0  3  0  0  0  0  0  0
  185.4200  178.8310  144.4320 N   0  0  0  0  0  0  0  0  0  0  0  0
  186.6970  178.1950  146.8480 C   0  0  0  0  0  0  0  0  0  0  0  0
  184.5250  178.6620  143.3290 C   0  0  0  0  0  3  0  0  0  0  0  0
  184.9210  178.7960  142.0890 C   0  0  0  0  0  0  0  0  0  0  0  0
  185.3220  178.9290  140.8550 C   0  0  0  0  0  0  0  0  0  0  0  0
  186.6840  179.0030  140.5880 O   0  0  0  0  0  1  0  0  0  0  0  0
  184.3540  179.0020  139.7530 C   0  0  0  0  0  0  0  0  0  0  0  0
  183.6210  177.8810  139.3790 O   0  0  0  0  0  1  0  0  0  0  0  0
  184.1820  180.0870  139.1380 O   0  0  0  0  0  0  0  0  0  0  0  0
  1 13  1  0  0  0  0
  2  1  2  0  0  0  0
  2 18  1  0  0  0  0
  4 16  1  6  0  0  0
  4  7  1  0  0  0  0
  4  1  1  0  0  0  0
  5  8  2  0  0  0  0
  6  3  1  0  0  0  0
  7 14  2  0  0  0  0
  8  7  1  0  0  0  0
  9 10  1  6  0  0  0
 11 17  1  0  0  0  0
 11  2  1  0  0  0  0
 12 16  2  0  0  0  0
 12  5  1  0  0  0  0
 13  3  2  0  0  0  0
 14 13  1  0  0  0  0
 15  9  1  0  0  0  0
 17 15  1  0  0  0  0
 18  9  1  0  0  0  0
 18  6  2  0  0  0  0
 19 17  1  0  0  0  0
 20 19  2  0  0  0  0
 21 20  2  0  0  0  0
 22 21  1  0  0  0  0
 23 21  1  0  0  0  0
 24 23  1  0  0  0  0
 25 23  2  0  0  0  0
M  END
>  <MODEL>
7

>  <REMARK>
 VINA RESULT:      -8.4      2.533      5.200
  Name = 
  2 active torsions:
  status: ('A' for Active; 'I' for Inactive)
    1  A    between atoms: C_2  and  C_21
    2  A    between atoms: C_6  and  N_23
                            x       y       z     vdW  Elec       q    Type
                         _______ _______ _______ _____ _____    ______ ____

>  <TORSDO>
F 2

$$$$
=
 OpenBabel11052412503D

 25 28  0  0  1  0  0  0  0  0999 V2000
  189.0000  177.1880  144.9830 C   0  0  0  0  0  0  0  0  0  0  0  0
  189.3910  177.1080  143.6470 C   0  0  0  0  0  0  0  0  0  0  0  0
  191.2800  177.0410  145.7220 C   0  0  0  0  0  3  0  0  0  0  0  0
  187.6480  177.2170  145.6010 C   0  0  1  0  0  3  0  0  0  0  0  0
  186.1180  178.6280  147.5910 C   0  0  0  0  0  3  0  0  0  0  0  0
  191.6740  176.9790  144.4160 N   0  0  0  0  0  0  0  0  0  0  0  0
  188.0420  177.2990  147.0540 C   0  0  0  0  0  0  0  0  0  0  0  0
  187.0880  177.8170  148.0370 C   0  0  0  0  0  3  0  0  0  0  0  0
  191.3010  176.9790  141.9710 C   0  0  2  0  0  3  0  0  0  0  0  0
  191.7230  178.2600  141.6120 O   0  0  0  0  0  1  0  0  0  0  0  0
  188.3620  177.0630  142.5510 C   0  0  0  0  0  2  0  0  0  0  0  0
  186.0520  179.0230  146.1590 C   0  0  0  0  0  3  0  0  0  0  0  0
  189.9210  177.1310  145.9960 C   0  0  0  0  0  0  0  0  0  0  0  0
  189.3190  177.2420  147.2760 N   0  0  0  0  0  0  0  0  0  0  0  0
  190.2450  176.4900  140.9820 C   0  0  0  0  0  2  0  0  0  0  0  0
  186.8100  178.4140  145.2310 C   0  0  0  0  0  3  0  0  0  0  0  0
  188.9840  177.1750  141.2300 N   0  0  0  0  0  0  0  0  0  0  0  0
  190.7790  176.9970  143.3790 C   0  0  0  0  0  0  0  0  0  0  0  0
  188.3050  177.7790  140.1260 C   0  0  0  0  0  3  0  0  0  0  0  0
  187.0770  178.2210  140.2250 C   0  0  0  0  0  0  0  0  0  0  0  0
  185.8540  178.6620  140.3320 C   0  0  0  0  0  0  0  0  0  0  0  0
  185.2770  178.7660  141.5920 O   0  0  0  0  0  1  0  0  0  0  0  0
  185.0870  179.0460  139.1390 C   0  0  0  0  0  0  0  0  0  0  0  0
  185.0620  178.2250  138.0180 O   0  0  0  0  0  0  0  0  0  0  0  0
  184.4440  180.1280  139.1290 O   0  0  0  0  0  1  0  0  0  0  0  0
  1  4  1  0  0  0  0
  1 13  1  0  0  0  0
  2  1  2  0  0  0  0
  3 13  2  0  0  0  0
  4 16  1  6  0  0  0
  4  7  1  0  0  0  0
  5  8  2  0  0  0  0
  6  3  1  0  0  0  0
  7 14  2  0  0  0  0
  7  8  1  0  0  0  0
  9 10  1  6  0  0  0
  9 18  1  0  0  0  0
 11  2  1  0  0  0  0
 12  5  1  0  0  0  0
 13 14  1  0  0  0  0
 15 17  1  0  0  0  0
 15  9  1  0  0  0  0
 16 12  2  0  0  0  0
 17 11  1  0  0  0  0
 18  2  1  0  0  0  0
 18  6  2  0  0  0  0
 19 20  2  0  0  0  0
 19 17  1  0  0  0  0
 20 21  2  0  0  0  0
 21 22  1  0  0  0  0
 23 21  1  0  0  0  0
 24 23  2  0  0  0  0
 25 23  1  0  0  0  0
M  END
>  <MODEL>
8

>  <REMARK>
 VINA RESULT:      -8.3      1.961      2.869
  Name = 
  2 active torsions:
  status: ('A' for Active; 'I' for Inactive)
    1  A    between atoms: C_2  and  C_21
    2  A    between atoms: C_6  and  N_23
                            x       y       z     vdW  Elec       q    Type
                         _______ _______ _______ _____ _____    ______ ____

>  <TORSDO>
F 2

$$$$
=
 OpenBabel11052412503D

 25 28  0  0  1  0  0  0  0  0999 V2000
  184.0230  178.4110  142.9020 C   0  0  0  0  0  0  0  0  0  0  0  0
  184.9470  178.2630  143.9360 C   0  0  0  0  0  0  0  0  0  0  0  0
  182.3370  179.1680  144.4340 C   0  0  0  0  0  3  0  0  0  0  0  0
  184.1190  178.0710  141.4580 C   0  0  1  0  0  3  0  0  0  0  0  0
  183.5630  179.1660  138.8520 C   0  0  0  0  0  3  0  0  0  0  0  0
  183.2390  179.0430  145.4510 N   0  0  0  0  0  0  0  0  0  0  0  0
  182.7470  178.5080  141.0110 C   0  0  0  0  0  0  0  0  0  0  0  0
  182.5060  178.8150  139.5990 C   0  0  0  0  0  3  0  0  0  0  0  0
  185.4600  178.5350  146.4130 C   0  0  2  0  0  3  0  0  0  0  0  0
  185.9650  179.8110  146.6700 O   0  0  0  0  0  1  0  0  0  0  0  0
  186.3140  177.6990  143.6660 C   0  0  0  0  0  2  0  0  0  0  0  0
  184.9180  179.2870  139.4560 C   0  0  0  0  0  3  0  0  0  0  0  0
  182.7420  178.8300  143.1490 C   0  0  0  0  0  0  0  0  0  0  0  0
  181.9710  178.9260  141.9620 N   0  0  0  0  0  0  0  0  0  0  0  0
  186.6140  177.5680  146.1610 C   0  0  0  0  0  2  0  0  0  0  0  0
  185.1710  178.8370  140.6970 C   0  0  0  0  0  3  0  0  0  0  0  0
  187.1800  177.8100  144.8410 N   0  0  0  0  0  0  0  0  0  0  0  0
  184.5160  178.5930  145.2460 C   0  0  0  0  0  0  0  0  0  0  0  0
  188.5970  177.9670  144.7220 C   0  0  0  0  0  3  0  0  0  0  0  0
  189.2190  177.7950  143.5850 C   0  0  0  0  0  0  0  0  0  0  0  0
  189.8340  177.6250  142.4470 C   0  0  0  0  0  0  0  0  0  0  0  0
  189.0870  177.5230  141.2800 O   0  0  0  0  0  1  0  0  0  0  0  0
  191.3000  177.5410  142.3890 C   0  0  0  0  0  0  0  0  0  0  0  0
  191.9610  177.5360  141.1650 O   0  0  0  0  0  0  0  0  0  0  0  0
  191.9670  177.4730  143.4540 O   0  0  0  0  0  1  0  0  0  0  0  0
  1 13  2  0  0  0  0
  1  2  1  0  0  0  0
  2 18  2  0  0  0  0
  3  6  2  0  0  0  0
  4 16  1  6  0  0  0
  4  1  1  0  0  0  0
  5 12  1  0  0  0  0
  5  8  2  0  0  0  0
  7  4  1  0  0  0  0
  7 14  2  0  0  0  0
  8  7  1  0  0  0  0
  9 10  1  6  0  0  0
 11  2  1  0  0  0  0
 11 17  1  0  0  0  0
 12 16  2  0  0  0  0
 13  3  1  0  0  0  0
 14 13  1  0  0  0  0
 15  9  1  0  0  0  0
 17 15  1  0  0  0  0
 18  6  1  0  0  0  0
 18  9  1  0  0  0  0
 19 17  1  0  0  0  0
 20 19  2  0  0  0  0
 21 20  2  0  0  0  0
 22 21  1  0  0  0  0
 23 21  1  0  0  0  0
 23 25  1  0  0  0  0
 24 23  2  0  0  0  0
M  END
>  <MODEL>
9

>  <REMARK>
 VINA RESULT:      -8.3      3.082      5.243
  Name = 
  2 active torsions:
  status: ('A' for Active; 'I' for Inactive)
    1  A    between atoms: C_2  and  C_21
    2  A    between atoms: C_6  and  N_23
                            x       y       z     vdW  Elec       q    Type
                         _______ _______ _______ _____ _____    ______ ____

>  <TORSDO>
F 2

$$$$
