=
 OpenBabel11052414273D

 32 39  0  0  1  0  0  0  0  0999 V2000
  186.6620  178.3110  139.7940 C   0  0  0  0  0  0  0  0  0  0  0  0
  187.2330  178.5050  142.2100 C   0  0  1  0  0  3  0  0  0  0  0  0
  185.7560  178.4500  138.7340 C   0  0  0  0  0  3  0  0  0  0  0  0
  186.2320  178.5740  141.1010 C   0  0  0  0  0  0  0  0  0  0  0  0
  186.6020  177.9800  143.4860 C   0  0  1  0  0  3  0  0  0  0  0  0
  191.3500  176.2780  143.9880 C   0  0  0  0  0  2  0  0  0  0  0  0
  188.4070  177.6180  141.8130 C   0  0  1  0  0  3  0  0  0  0  0  0
  189.7830  177.5270  145.4990 C   0  0  0  0  0  2  0  0  0  0  0  0
  188.8580  177.6650  144.3230 C   0  0  0  0  0  0  0  0  0  0  0  0
  184.8990  178.9260  141.3670 C   0  0  0  0  0  0  0  0  0  0  0  0
  187.6000  177.8800  144.5390 N   0  0  0  0  0  0  0  0  0  0  0  0
  184.3780  179.0010  142.7820 C   0  0  0  0  0  2  0  0  0  0  0  0
  184.0050  179.0570  140.2990 C   0  0  0  0  0  3  0  0  0  0  0  0
  188.9290  178.1100  140.5980 O   0  0  0  0  0  0  0  0  0  0  0  0
  188.0120  177.7990  139.6340 N   0  0  0  0  0  0  0  0  0  0  0  0
  189.4580  177.6720  142.9190 C   0  0  1  0  0  3  0  0  0  0  0  0
  185.4630  178.9320  143.8780 C   0  0  1  0  0  3  0  0  0  0  0  0
  184.4360  178.8360  138.9870 C   0  0  0  0  0  3  0  0  0  0  0  0
  191.2350  177.3750  145.0470 C   0  0  0  0  0  2  0  0  0  0  0  0
  190.4870  176.5470  142.7420 C   0  0  0  0  0  2  0  0  0  0  0  0
  188.6040  178.1540  136.1720 C   0  0  2  0  0  0  0  0  0  0  0  0
  190.6490  175.6720  136.7090 C   0  0  0  0  0  2  0  0  0  0  0  0
  187.1020  178.2670  136.0120 C   0  0  0  0  0  1  0  0  0  0  0  0
  190.4160  176.7810  137.7290 C   0  0  0  0  0  0  0  0  0  0  0  0
  188.4440  176.8310  138.6090 C   0  0  2  0  0  3  0  0  0  0  0  0
  189.3970  178.0660  135.0280 O   0  0  0  0  0  1  0  0  0  0  0  0
  189.7920  176.1210  138.9540 C   0  0  0  0  0  2  0  0  0  0  0  0
  189.1360  177.4450  137.3920 C   0  0  2  0  0  0  0  0  0  0  0  0
  189.2220  178.9680  137.2970 C   0  0  0  0  0  2  0  0  0  0  0  0
  191.7580  176.6310  137.0270 C   0  0  0  0  0  2  0  0  0  0  0  0
  184.8250  178.5000  145.1900 C   0  0  0  0  0  2  0  0  0  0  0  0
  183.6240  179.1830  145.3840 O   0  0  0  0  0  1  0  0  0  0  0  0
  1  4  1  0  0  0  0
  2  4  1  6  0  0  0
  2  5  1  0  0  0  0
  3 18  1  0  0  0  0
  3  1  2  0  0  0  0
  4 10  2  0  0  0  0
  5 17  1  0  0  0  0
  5 11  1  1  0  0  0
  6 19  1  0  0  0  0
  7 14  1  6  0  0  0
  7  2  1  0  0  0  0
  7 16  1  0  0  0  0
  9 11  2  0  0  0  0
  9  8  1  0  0  0  0
 10 12  1  0  0  0  0
 12 17  1  0  0  0  0
 13 10  1  0  0  0  0
 15  1  1  0  0  0  0
 15 14  1  0  0  0  0
 16 20  1  1  0  0  0
 16  9  1  0  0  0  0
 17 31  1  1  0  0  0
 18 13  2  0  0  0  0
 19  8  1  0  0  0  0
 20  6  1  0  0  0  0
 21 23  1  6  0  0  0
 21 29  1  0  0  0  0
 21 28  1  0  0  0  0
 22 30  1  0  0  0  0
 22 24  1  0  0  0  0
 24 27  1  0  0  0  0
 25 27  1  1  0  0  0
 25 15  1  0  0  0  0
 26 21  1  0  0  0  0
 28 29  1  1  0  0  0
 28 24  1  0  0  0  0
 28 25  1  0  0  0  0
 30 24  1  0  0  0  0
 31 32  1  0  0  0  0
M  END
>  <MODEL>
1

>  <REMARK>
 VINA RESULT:      -9.7      0.000      0.000
  Name = 
  2 active torsions:
  status: ('A' for Active; 'I' for Inactive)
    1  A    between atoms: C_13  and  C_29
    2  A    between atoms: C_16  and  N_27
                            x       y       z     vdW  Elec       q    Type
                         _______ _______ _______ _____ _____    ______ ____

>  <TORSDO>
F 2

$$$$
=
 OpenBabel11052414273D

 32 39  0  0  1  0  0  0  0  0999 V2000
  189.7230  177.2160  143.0830 C   0  0  0  0  0  0  0  0  0  0  0  0
  187.8060  177.3280  144.6690 C   0  0  1  0  0  3  0  0  0  0  0  0
  191.0770  176.9770  142.8130 C   0  0  0  0  0  3  0  0  0  0  0  0
  189.2690  177.1550  144.4080 C   0  0  0  0  0  0  0  0  0  0  0  0
  187.5650  178.0530  145.9800 C   0  0  1  0  0  3  0  0  0  0  0  0
  183.5510  179.5750  143.2850 C   0  0  0  0  0  2  0  0  0  0  0  0
  187.1480  178.0930  143.5270 C   0  0  1  0  0  3  0  0  0  0  0  0
  183.8370  178.6230  145.5900 C   0  0  0  0  0  2  0  0  0  0  0  0
  185.2760  178.3700  145.2380 C   0  0  0  0  0  0  0  0  0  0  0  0
  190.1570  176.9090  145.4670 C   0  0  0  0  0  0  0  0  0  0  0  0
  186.1400  178.2480  146.1950 N   0  0  0  0  0  0  0  0  0  0  0  0
  189.7170  177.0540  146.9040 C   0  0  0  0  0  2  0  0  0  0  0  0
  191.5060  176.6770  145.1820 C   0  0  0  0  0  3  0  0  0  0  0  0
  187.4400  177.4150  142.3260 O   0  0  0  0  0  0  0  0  0  0  0  0
  188.7640  177.6350  142.0750 N   0  0  0  0  0  0  0  0  0  0  0  0
  185.6420  178.1410  143.7740 C   0  0  1  0  0  3  0  0  0  0  0  0
  188.1960  177.2200  147.1050 C   0  0  1  0  0  3  0  0  0  0  0  0
  191.9610  176.6930  143.8590 C   0  0  0  0  0  3  0  0  0  0  0  0
  182.9580  178.6400  144.3400 C   0  0  0  0  0  2  0  0  0  0  0  0
  184.9770  179.1790  142.8610 C   0  0  0  0  0  2  0  0  0  0  0  0
  190.9370  177.0270  139.3600 C   0  0  2  0  0  0  0  0  0  0  0  0
  188.8130  178.9430  137.7950 C   0  0  0  0  0  2  0  0  0  0  0  0
  192.0780  177.2830  140.3230 C   0  0  0  0  0  1  0  0  0  0  0  0
  188.3890  177.9610  138.8830 C   0  0  0  0  0  0  0  0  0  0  0  0
  189.0790  178.4300  140.8740 C   0  0  2  0  0  3  0  0  0  0  0  0
  191.2240  176.8780  138.0030 O   0  0  0  0  0  1  0  0  0  0  0  0
  187.8210  178.7970  140.0240 C   0  0  0  0  0  2  0  0  0  0  0  0
  189.5900  177.6230  139.6810 C   0  0  2  0  0  0  0  0  0  0  0  0
  189.8230  176.1250  139.8640 C   0  0  0  0  0  2  0  0  0  0  0  0
  187.9770  177.7510  137.4320 C   0  0  0  0  0  2  0  0  0  0  0  0
  187.9360  177.8590  148.4610 C   0  0  0  0  0  2  0  0  0  0  0  0
  189.0870  178.5040  148.9140 O   0  0  0  0  0  1  0  0  0  0  0  0
  1  4  1  0  0  0  0
  2  4  1  6  0  0  0
  2  5  1  0  0  0  0
  3  1  2  0  0  0  0
  3 18  1  0  0  0  0
  4 10  2  0  0  0  0
  5 11  1  1  0  0  0
  5 17  1  0  0  0  0
  6 19  1  0  0  0  0
  7 14  1  6  0  0  0
  7 16  1  0  0  0  0
  7  2  1  0  0  0  0
  9  8  1  0  0  0  0
  9 11  2  0  0  0  0
 10 12  1  0  0  0  0
 12 17  1  0  0  0  0
 13 10  1  0  0  0  0
 15 14  1  0  0  0  0
 15  1  1  0  0  0  0
 16 20  1  6  0  0  0
 16  9  1  0  0  0  0
 17 31  1  1  0  0  0
 18 13  2  0  0  0  0
 19  8  1  0  0  0  0
 20  6  1  0  0  0  0
 21 28  1  0  0  0  0
 21 29  1  0  0  0  0
 21 23  1  1  0  0  0
 22 24  1  0  0  0  0
 24 28  1  0  0  0  0
 24 27  1  0  0  0  0
 25 27  1  6  0  0  0
 25 15  1  0  0  0  0
 26 21  1  0  0  0  0
 28 29  1  1  0  0  0
 28 25  1  0  0  0  0
 30 22  1  0  0  0  0
 30 24  1  0  0  0  0
 31 32  1  0  0  0  0
M  END
>  <MODEL>
2

>  <REMARK>
 VINA RESULT:      -9.6      2.027      5.245
  Name = 
  2 active torsions:
  status: ('A' for Active; 'I' for Inactive)
    1  A    between atoms: C_13  and  C_29
    2  A    between atoms: C_16  and  N_27
                            x       y       z     vdW  Elec       q    Type
                         _______ _______ _______ _____ _____    ______ ____

>  <TORSDO>
F 2

$$$$
=
 OpenBabel11052414273D

 32 39  0  0  1  0  0  0  0  0999 V2000
  186.9020  178.0490  145.1350 C   0  0  0  0  0  0  0  0  0  0  0  0
  189.2910  177.7940  144.4760 C   0  0  1  0  0  3  0  0  0  0  0  0
  185.9030  178.1200  146.1150 C   0  0  0  0  0  3  0  0  0  0  0  0
  188.2230  177.7820  145.5230 C   0  0  0  0  0  0  0  0  0  0  0  0
  190.3600  176.7590  144.7710 C   0  0  1  0  0  3  0  0  0  0  0  0
  190.4740  176.8470  139.7040 C   0  0  0  0  0  2  0  0  0  0  0  0
  188.6900  177.5380  143.0990 C   0  0  1  0  0  3  0  0  0  0  0  0
  192.2370  176.9890  141.4850 C   0  0  0  0  0  2  0  0  0  0  0  0
  191.1250  177.0840  142.4910 C   0  0  0  0  0  0  0  0  0  0  0  0
  188.5460  177.5370  146.8670 C   0  0  0  0  0  0  0  0  0  0  0  0
  191.3650  176.7570  143.7210 N   0  0  0  0  0  0  0  0  0  0  0  0
  189.9160  177.0410  147.2630 C   0  0  0  0  0  2  0  0  0  0  0  0
  187.5370  177.6080  147.8330 C   0  0  0  0  0  3  0  0  0  0  0  0
  187.6690  178.4880  142.8890 O   0  0  0  0  0  0  0  0  0  0  0  0
  186.6370  178.1290  143.7090 N   0  0  0  0  0  0  0  0  0  0  0  0
  189.7900  177.6790  142.0500 C   0  0  1  0  0  3  0  0  0  0  0  0
  190.9740  177.0880  146.1390 C   0  0  1  0  0  3  0  0  0  0  0  0
  186.2240  177.9150  147.4600 C   0  0  0  0  0  3  0  0  0  0  0  0
  191.7920  177.5050  140.1170 C   0  0  0  0  0  2  0  0  0  0  0  0
  189.3330  177.0990  140.7060 C   0  0  0  0  0  2  0  0  0  0  0  0
  183.3290  179.3480  143.8880 C   0  0  2  0  0  0  0  0  0  0  0  0
  183.1720  178.1080  140.8770 C   0  0  0  0  0  2  0  0  0  0  0  0
  183.2720  178.7500  145.2790 C   0  0  0  0  0  1  0  0  0  0  0  0
  184.4330  178.7610  141.4330 C   0  0  0  0  0  0  0  0  0  0  0  0
  185.3940  177.6940  143.0450 C   0  0  2  0  0  3  0  0  0  0  0  0
  182.1580  179.8620  143.3300 O   0  0  0  0  0  1  0  0  0  0  0  0
  185.4980  177.6710  141.4870 C   0  0  0  0  0  2  0  0  0  0  0  0
  184.3220  178.7740  142.9090 C   0  0  2  0  0  0  0  0  0  0  0  0
  184.5810  180.1380  143.5480 C   0  0  0  0  0  2  0  0  0  0  0  0
  183.6510  179.4060  140.2980 C   0  0  0  0  0  2  0  0  0  0  0  0
  192.1020  176.1220  146.4710 C   0  0  0  0  0  2  0  0  0  0  0  0
  192.4560  176.2460  147.8140 O   0  0  0  0  0  1  0  0  0  0  0  0
  1  4  2  0  0  0  0
  1  3  1  0  0  0  0
  2  5  1  0  0  0  0
  2  4  1  1  0  0  0
  3 18  2  0  0  0  0
  4 10  1  0  0  0  0
  5 11  1  6  0  0  0
  5 17  1  0  0  0  0
  6 19  1  0  0  0  0
  6 20  1  0  0  0  0
  7 14  1  6  0  0  0
  7  2  1  0  0  0  0
  8  9  1  0  0  0  0
  9 11  2  0  0  0  0
 10 12  1  0  0  0  0
 10 13  2  0  0  0  0
 14 15  1  0  0  0  0
 15  1  1  0  0  0  0
 16 20  1  6  0  0  0
 16  9  1  0  0  0  0
 16  7  1  0  0  0  0
 17 31  1  1  0  0  0
 17 12  1  0  0  0  0
 18 13  1  0  0  0  0
 19  8  1  0  0  0  0
 21 23  1  1  0  0  0
 22 24  1  0  0  0  0
 24 27  1  0  0  0  0
 24 28  1  0  0  0  0
 25 27  1  6  0  0  0
 25 15  1  0  0  0  0
 26 21  1  0  0  0  0
 28 25  1  0  0  0  0
 28 29  1  1  0  0  0
 28 21  1  0  0  0  0
 29 21  1  0  0  0  0
 30 22  1  0  0  0  0
 30 24  1  0  0  0  0
 31 32  1  0  0  0  0
M  END
>  <MODEL>
3

>  <REMARK>
 VINA RESULT:      -9.4      2.669      6.624
  Name = 
  2 active torsions:
  status: ('A' for Active; 'I' for Inactive)
    1  A    between atoms: C_13  and  C_29
    2  A    between atoms: C_16  and  N_27
                            x       y       z     vdW  Elec       q    Type
                         _______ _______ _______ _____ _____    ______ ____

>  <TORSDO>
F 2

$$$$
=
 OpenBabel11052414273D

 32 39  0  0  1  0  0  0  0  0999 V2000
  188.4280  177.8460  141.3870 C   0  0  0  0  0  0  0  0  0  0  0  0
  186.1180  178.6180  140.8690 C   0  0  1  0  0  3  0  0  0  0  0  0
  189.7070  177.4450  140.9770 C   0  0  0  0  0  3  0  0  0  0  0  0
  187.4500  178.1090  140.4190 C   0  0  0  0  0  0  0  0  0  0  0  0
  185.0010  178.0840  139.9910 C   0  0  1  0  0  3  0  0  0  0  0  0
  182.6020  178.5400  144.4330 C   0  0  0  0  0  2  0  0  0  0  0  0
  185.8630  178.2310  142.3210 C   0  0  1  0  0  3  0  0  0  0  0  0
  182.0720  179.2640  142.0890 C   0  0  0  0  0  2  0  0  0  0  0  0
  183.4620  178.8370  141.7100 C   0  0  0  0  0  0  0  0  0  0  0  0
  187.7180  177.9280  139.0520 C   0  0  0  0  0  0  0  0  0  0  0  0
  183.7120  178.5560  140.4710 N   0  0  0  0  0  0  0  0  0  0  0  0
  186.6150  178.0010  138.0240 C   0  0  0  0  0  2  0  0  0  0  0  0
  188.9980  177.5230  138.6590 C   0  0  0  0  0  3  0  0  0  0  0  0
  186.9470  178.7010  143.0910 O   0  0  0  0  0  0  0  0  0  0  0  0
  188.0120  177.9050  142.7780 N   0  0  0  0  0  0  0  0  0  0  0  0
  184.5540  178.8720  142.7760 C   0  0  1  0  0  3  0  0  0  0  0  0
  185.2700  178.5430  138.5510 C   0  0  1  0  0  3  0  0  0  0  0  0
  189.9930  177.2990  139.6160 C   0  0  0  0  0  3  0  0  0  0  0  0
  181.9950  179.6450  143.5680 C   0  0  0  0  0  2  0  0  0  0  0  0
  184.0740  178.2450  144.0920 C   0  0  0  0  0  2  0  0  0  0  0  0
  191.1570  177.7890  144.3770 C   0  0  2  0  0  0  0  0  0  0  0  0
  189.3700  176.6480  146.8530 C   0  0  0  0  0  2  0  0  0  0  0  0
  191.6930  177.1830  143.0960 C   0  0  0  0  0  1  0  0  0  0  0  0
  188.8560  177.7140  145.8910 C   0  0  0  0  0  0  0  0  0  0  0  0
  188.5300  177.0500  143.8620 C   0  0  2  0  0  3  0  0  0  0  0  0
  191.9890  177.8390  145.4960 O   0  0  0  0  0  1  0  0  0  0  0  0
  187.6650  177.1030  145.1620 C   0  0  0  0  0  2  0  0  0  0  0  0
  189.6840  177.6520  144.6640 C   0  0  2  0  0  0  0  0  0  0  0  0
  190.2510  178.9990  144.2190 C   0  0  0  0  0  2  0  0  0  0  0  0
  189.1350  178.0430  147.3510 C   0  0  0  0  0  2  0  0  0  0  0  0
  184.1500  178.0950  137.6240 C   0  0  0  0  0  2  0  0  0  0  0  0
  184.1370  176.7030  137.5290 O   0  0  0  0  0  1  0  0  0  0  0  0
  1 15  1  0  0  0  0
  2  4  1  6  0  0  0
  2  7  1  0  0  0  0
  3  1  1  0  0  0  0
  4  1  2  0  0  0  0
  5 11  1  1  0  0  0
  5  2  1  0  0  0  0
  7 16  1  0  0  0  0
  7 14  1  1  0  0  0
  8 19  1  0  0  0  0
  9  8  1  0  0  0  0
  9 16  1  0  0  0  0
 10  4  1  0  0  0  0
 11  9  2  0  0  0  0
 12 17  1  0  0  0  0
 12 10  1  0  0  0  0
 13 10  2  0  0  0  0
 13 18  1  0  0  0  0
 15 14  1  0  0  0  0
 16 20  1  1  0  0  0
 17 31  1  6  0  0  0
 17  5  1  0  0  0  0
 18  3  2  0  0  0  0
 19  6  1  0  0  0  0
 20  6  1  0  0  0  0
 21 23  1  6  0  0  0
 21 28  1  0  0  0  0
 21 26  1  0  0  0  0
 22 30  1  0  0  0  0
 24 22  1  0  0  0  0
 24 30  1  0  0  0  0
 25 15  1  6  0  0  0
 25 28  1  0  0  0  0
 25 27  1  0  0  0  0
 27 24  1  0  0  0  0
 28 29  1  6  0  0  0
 28 24  1  0  0  0  0
 29 21  1  0  0  0  0
 32 31  1  0  0  0  0
M  END
>  <MODEL>
4

>  <REMARK>
 VINA RESULT:      -9.0      2.217      6.739
  Name = 
  2 active torsions:
  status: ('A' for Active; 'I' for Inactive)
    1  A    between atoms: C_13  and  C_29
    2  A    between atoms: C_16  and  N_27
                            x       y       z     vdW  Elec       q    Type
                         _______ _______ _______ _____ _____    ______ ____

>  <TORSDO>
F 2

$$$$
=
 OpenBabel11052414273D

 32 39  0  0  1  0  0  0  0  0999 V2000
  189.4610  177.6100  141.1490 C   0  0  0  0  0  0  0  0  0  0  0  0
  187.6780  178.4360  139.6190 C   0  0  1  0  0  3  0  0  0  0  0  0
  190.7640  177.1470  141.3740 C   0  0  0  0  0  3  0  0  0  0  0  0
  189.0410  177.8610  139.8360 C   0  0  0  0  0  0  0  0  0  0  0  0
  187.0530  177.9020  138.3440 C   0  0  1  0  0  3  0  0  0  0  0  0
  182.9310  178.6420  141.2000 C   0  0  0  0  0  2  0  0  0  0  0  0
  186.7740  178.1260  140.8060 C   0  0  1  0  0  3  0  0  0  0  0  0
  183.5570  179.2760  138.8530 C   0  0  0  0  0  2  0  0  0  0  0  0
  184.9440  178.7850  139.1570 C   0  0  0  0  0  0  0  0  0  0  0  0
  189.8890  177.6100  138.7450 C   0  0  0  0  0  0  0  0  0  0  0  0
  185.7130  178.4390  138.1740 N   0  0  0  0  0  0  0  0  0  0  0  0
  189.3760  177.6730  137.3260 C   0  0  0  0  0  2  0  0  0  0  0  0
  191.1860  177.1440  138.9850 C   0  0  0  0  0  3  0  0  0  0  0  0
  187.4160  178.5930  141.9720 O   0  0  0  0  0  0  0  0  0  0  0  0
  188.4640  177.7470  142.1970 N   0  0  0  0  0  0  0  0  0  0  0  0
  185.4360  178.8310  140.6010 C   0  0  1  0  0  3  0  0  0  0  0  0
  187.9670  178.2850  137.1710 C   0  0  1  0  0  3  0  0  0  0  0  0
  191.6270  176.9290  140.2960 C   0  0  0  0  0  3  0  0  0  0  0  0
  182.8390  179.7260  140.1250 C   0  0  0  0  0  2  0  0  0  0  0  0
  184.3810  178.2820  141.5710 C   0  0  0  0  0  2  0  0  0  0  0  0
  190.6470  177.4420  144.9550 C   0  0  2  0  0  0  0  0  0  0  0  0
  187.8850  176.6580  146.4990 C   0  0  0  0  0  2  0  0  0  0  0  0
  191.5840  176.6980  144.0260 C   0  0  0  0  0  1  0  0  0  0  0  0
  187.9370  177.6970  145.3850 C   0  0  0  0  0  0  0  0  0  0  0  0
  188.3910  176.9250  143.4200 C   0  0  2  0  0  3  0  0  0  0  0  0
  190.9500  177.4920  146.3160 O   0  0  0  0  0  1  0  0  0  0  0  0
  187.0840  177.1530  144.2440 C   0  0  0  0  0  2  0  0  0  0  0  0
  189.1790  177.4690  144.6110 C   0  0  2  0  0  0  0  0  0  0  0  0
  190.0320  178.7200  144.4070 C   0  0  0  0  0  2  0  0  0  0  0  0
  187.6330  178.1010  146.8200 C   0  0  0  0  0  2  0  0  0  0  0  0
  187.3670  177.8330  135.8490 C   0  0  0  0  0  2  0  0  0  0  0  0
  187.3950  176.4410  135.7620 O   0  0  0  0  0  1  0  0  0  0  0  0
  1  3  1  0  0  0  0
  1 15  1  0  0  0  0
  2  4  1  1  0  0  0
  2  7  1  0  0  0  0
  4  1  2  0  0  0  0
  5 11  1  6  0  0  0
  5  2  1  0  0  0  0
  6 20  1  0  0  0  0
  7 14  1  1  0  0  0
  8  9  1  0  0  0  0
  8 19  1  0  0  0  0
  9 16  1  0  0  0  0
 10 13  2  0  0  0  0
 10  4  1  0  0  0  0
 11  9  2  0  0  0  0
 12 10  1  0  0  0  0
 13 18  1  0  0  0  0
 14 15  1  0  0  0  0
 16  7  1  0  0  0  0
 16 20  1  1  0  0  0
 17 31  1  6  0  0  0
 17 12  1  0  0  0  0
 17  5  1  0  0  0  0
 18  3  2  0  0  0  0
 19  6  1  0  0  0  0
 21 23  1  6  0  0  0
 21 26  1  0  0  0  0
 22 30  1  0  0  0  0
 24 22  1  0  0  0  0
 24 30  1  0  0  0  0
 25 15  1  6  0  0  0
 25 27  1  0  0  0  0
 25 28  1  0  0  0  0
 27 24  1  0  0  0  0
 28 29  1  6  0  0  0
 28 21  1  0  0  0  0
 28 24  1  0  0  0  0
 29 21  1  0  0  0  0
 32 31  1  0  0  0  0
M  END
>  <MODEL>
5

>  <REMARK>
 VINA RESULT:      -8.9      1.876      7.366
  Name = 
  2 active torsions:
  status: ('A' for Active; 'I' for Inactive)
    1  A    between atoms: C_13  and  C_29
    2  A    between atoms: C_16  and  N_27
                            x       y       z     vdW  Elec       q    Type
                         _______ _______ _______ _____ _____    ______ ____

>  <TORSDO>
F 2

$$$$
=
 OpenBabel11052414273D

 32 39  0  0  1  0  0  0  0  0999 V2000
  187.2010  178.1390  140.4690 C   0  0  0  0  0  0  0  0  0  0  0  0
  189.2180  177.2580  141.6340 C   0  0  1  0  0  3  0  0  0  0  0  0
  186.5300  178.5180  139.2990 C   0  0  0  0  0  3  0  0  0  0  0  0
  188.5430  177.7410  140.3900 C   0  0  0  0  0  0  0  0  0  0  0  0
  190.6820  177.6580  141.6530 C   0  0  1  0  0  3  0  0  0  0  0  0
  189.6120  177.6800  146.6070 C   0  0  0  0  0  2  0  0  0  0  0  0
  188.5170  177.8090  142.8690 C   0  0  1  0  0  3  0  0  0  0  0  0
  191.4520  176.6700  145.2310 C   0  0  0  0  0  2  0  0  0  0  0  0
  190.6790  177.0800  144.0100 C   0  0  0  0  0  0  0  0  0  0  0  0
  189.2330  177.7630  139.1670 C   0  0  0  0  0  0  0  0  0  0  0  0
  191.3100  177.2170  142.8880 N   0  0  0  0  0  0  0  0  0  0  0  0
  190.7250  177.5430  139.1090 C   0  0  0  0  0  2  0  0  0  0  0  0
  188.5500  178.1470  138.0080 C   0  0  0  0  0  3  0  0  0  0  0  0
  187.1530  177.4590  142.7840 O   0  0  0  0  0  0  0  0  0  0  0  0
  186.6200  178.2370  141.7960 N   0  0  0  0  0  0  0  0  0  0  0  0
  189.1600  177.1980  144.1110 C   0  0  1  0  0  3  0  0  0  0  0  0
  191.3590  177.0370  140.4230 C   0  0  1  0  0  3  0  0  0  0  0  0
  187.2000  178.5070  138.0710 C   0  0  0  0  0  3  0  0  0  0  0  0
  190.5250  176.4660  146.4300 C   0  0  0  0  0  2  0  0  0  0  0  0
  188.7390  177.9650  145.3710 C   0  0  0  0  0  2  0  0  0  0  0  0
  183.2670  178.7360  140.8070 C   0  0  2  0  0  0  0  0  0  0  0  0
  183.0200  179.9700  143.8140 C   0  0  0  0  0  2  0  0  0  0  0  0
  183.8190  179.2560  139.4960 C   0  0  0  0  0  1  0  0  0  0  0  0
  183.9190  178.7830  143.4840 C   0  0  0  0  0  0  0  0  0  0  0  0
  185.6100  179.2260  142.2160 C   0  0  2  0  0  3  0  0  0  0  0  0
  181.9000  178.8540  141.0540 O   0  0  0  0  0  1  0  0  0  0  0  0
  185.3500  179.2330  143.7570 C   0  0  0  0  0  2  0  0  0  0  0  0
  184.1580  178.7900  142.0220 C   0  0  2  0  0  0  0  0  0  0  0  0
  183.8880  177.4530  141.3340 C   0  0  0  0  0  2  0  0  0  0  0  0
  182.6880  178.6140  144.3630 C   0  0  0  0  0  2  0  0  0  0  0  0
  192.8490  177.3460  140.4130 C   0  0  0  0  0  2  0  0  0  0  0  0
  193.3970  177.0140  139.1740 O   0  0  0  0  0  1  0  0  0  0  0  0
  1 15  1  0  0  0  0
  2  4  1  6  0  0  0
  2  5  1  0  0  0  0
  2  7  1  0  0  0  0
  3  1  2  0  0  0  0
  4  1  1  0  0  0  0
  5 11  1  1  0  0  0
  7 14  1  6  0  0  0
  7 16  1  0  0  0  0
  8 19  1  0  0  0  0
  9 16  1  0  0  0  0
  9  8  1  0  0  0  0
 10  4  2  0  0  0  0
 11  9  2  0  0  0  0
 12 10  1  0  0  0  0
 12 17  1  0  0  0  0
 13 18  2  0  0  0  0
 13 10  1  0  0  0  0
 15 14  1  0  0  0  0
 16 20  1  1  0  0  0
 17 31  1  6  0  0  0
 17  5  1  0  0  0  0
 18  3  1  0  0  0  0
 19  6  1  0  0  0  0
 20  6  1  0  0  0  0
 21 23  1  6  0  0  0
 21 26  1  0  0  0  0
 21 29  1  0  0  0  0
 21 28  1  0  0  0  0
 22 30  1  0  0  0  0
 24 27  1  0  0  0  0
 24 22  1  0  0  0  0
 24 30  1  0  0  0  0
 25 15  1  1  0  0  0
 25 27  1  0  0  0  0
 28 29  1  6  0  0  0
 28 25  1  0  0  0  0
 28 24  1  0  0  0  0
 32 31  1  0  0  0  0
M  END
>  <MODEL>
6

>  <REMARK>
 VINA RESULT:      -8.8      2.053      6.087
  Name = 
  2 active torsions:
  status: ('A' for Active; 'I' for Inactive)
    1  A    between atoms: C_13  and  C_29
    2  A    between atoms: C_16  and  N_27
                            x       y       z     vdW  Elec       q    Type
                         _______ _______ _______ _____ _____    ______ ____

>  <TORSDO>
F 2

$$$$
=
 OpenBabel11052414273D

 32 39  0  0  1  0  0  0  0  0999 V2000
  183.3790  178.9390  142.1650 C   0  0  0  0  0  0  0  0  0  0  0  0
  185.8540  178.8230  141.9170 C   0  0  1  0  0  3  0  0  0  0  0  0
  182.2280  178.9870  142.9630 C   0  0  0  0  0  3  0  0  0  0  0  0
  184.6300  178.7850  142.7770 C   0  0  0  0  0  0  0  0  0  0  0  0
  186.9210  177.8810  142.4420 C   0  0  1  0  0  3  0  0  0  0  0  0
  187.8680  177.7350  137.4650 C   0  0  0  0  0  2  0  0  0  0  0  0
  185.5060  178.4590  140.4790 C   0  0  1  0  0  3  0  0  0  0  0  0
  189.2990  178.0860  139.4960 C   0  0  0  0  0  2  0  0  0  0  0  0
  188.0320  178.1500  140.3010 C   0  0  0  0  0  0  0  0  0  0  0  0
  184.7410  178.6280  144.1670 C   0  0  0  0  0  0  0  0  0  0  0  0
  188.0850  177.9000  141.5710 N   0  0  0  0  0  0  0  0  0  0  0  0
  186.0550  178.2490  144.8080 C   0  0  0  0  0  2  0  0  0  0  0  0
  183.5840  178.6730  144.9510 C   0  0  0  0  0  3  0  0  0  0  0  0
  184.4780  179.3240  140.0510 O   0  0  0  0  0  0  0  0  0  0  0  0
  183.3490  178.9320  140.7130 N   0  0  0  0  0  0  0  0  0  0  0  0
  186.7540  178.6280  139.6160 C   0  0  1  0  0  3  0  0  0  0  0  0
  187.2790  178.3170  143.8700 C   0  0  1  0  0  3  0  0  0  0  0  0
  182.3340  178.8690  144.3530 C   0  0  0  0  0  3  0  0  0  0  0  0
  189.0550  178.5030  138.0460 C   0  0  0  0  0  2  0  0  0  0  0  0
  186.5630  177.9530  138.2510 C   0  0  0  0  0  2  0  0  0  0  0  0
  180.8130  180.4960  138.8190 C   0  0  2  0  0  0  0  0  0  0  0  0
  181.0260  177.7500  137.0740 C   0  0  0  0  0  2  0  0  0  0  0  0
  180.1660  180.8590  140.1400 C   0  0  0  0  0  1  0  0  0  0  0  0
  182.2390  178.4080  137.7230 C   0  0  0  0  0  0  0  0  0  0  0  0
  182.2620  178.3800  139.8820 C   0  0  2  0  0  3  0  0  0  0  0  0
  180.1140  180.7460  137.6380 O   0  0  0  0  0  1  0  0  0  0  0  0
  182.7670  177.4200  138.7580 C   0  0  0  0  0  2  0  0  0  0  0  0
  181.7470  179.3130  138.7880 C   0  0  2  0  0  0  0  0  0  0  0  0
  182.3110  180.7310  138.7190 C   0  0  0  0  0  2  0  0  0  0  0  0
  182.0900  178.3610  136.2090 C   0  0  0  0  0  2  0  0  0  0  0  0
  188.3940  177.4510  144.4360 C   0  0  0  0  0  2  0  0  0  0  0  0
  189.3630  178.2530  145.0380 O   0  0  0  0  0  1  0  0  0  0  0  0
  1  4  2  0  0  0  0
  1  3  1  0  0  0  0
  2  5  1  0  0  0  0
  2  4  1  1  0  0  0
  3 18  2  0  0  0  0
  4 10  1  0  0  0  0
  5 11  1  6  0  0  0
  5 17  1  0  0  0  0
  6 19  1  0  0  0  0
  6 20  1  0  0  0  0
  7 14  1  6  0  0  0
  7  2  1  0  0  0  0
  8  9  1  0  0  0  0
  9 11  2  0  0  0  0
 10 12  1  0  0  0  0
 10 13  2  0  0  0  0
 14 15  1  0  0  0  0
 15  1  1  0  0  0  0
 16 20  1  6  0  0  0
 16  9  1  0  0  0  0
 16  7  1  0  0  0  0
 17 31  1  1  0  0  0
 17 12  1  0  0  0  0
 18 13  1  0  0  0  0
 19  8  1  0  0  0  0
 21 23  1  1  0  0  0
 22 24  1  0  0  0  0
 24 27  1  0  0  0  0
 24 28  1  0  0  0  0
 25 27  1  6  0  0  0
 25 15  1  0  0  0  0
 26 21  1  0  0  0  0
 28 29  1  6  0  0  0
 28 21  1  0  0  0  0
 28 25  1  0  0  0  0
 29 21  1  0  0  0  0
 30 22  1  0  0  0  0
 30 24  1  0  0  0  0
 31 32  1  0  0  0  0
M  END
>  <MODEL>
7

>  <REMARK>
 VINA RESULT:      -8.8      2.886      6.077
  Name = 
  2 active torsions:
  status: ('A' for Active; 'I' for Inactive)
    1  A    between atoms: C_13  and  C_29
    2  A    between atoms: C_16  and  N_27
                            x       y       z     vdW  Elec       q    Type
                         _______ _______ _______ _____ _____    ______ ____

>  <TORSDO>
F 2

$$$$
=
 OpenBabel11052414273D

 32 39  0  0  1  0  0  0  0  0999 V2000
  186.4350  178.1720  144.1340 C   0  0  0  0  0  0  0  0  0  0  0  0
  186.7600  177.7700  141.6980 C   0  0  1  0  0  3  0  0  0  0  0  0
  185.6280  178.5450  145.2170 C   0  0  0  0  0  3  0  0  0  0  0  0
  185.9160  178.2530  142.8350 C   0  0  0  0  0  0  0  0  0  0  0  0
  186.5350  178.6080  140.4530 C   0  0  1  0  0  3  0  0  0  0  0  0
  191.3860  177.2670  139.8480 C   0  0  0  0  0  2  0  0  0  0  0  0
  188.2350  177.7990  142.0800 C   0  0  1  0  0  3  0  0  0  0  0  0
  189.3670  177.2090  138.3570 C   0  0  0  0  0  2  0  0  0  0  0  0
  188.5470  177.5890  139.5570 C   0  0  0  0  0  0  0  0  0  0  0  0
  184.6230  178.7470  142.6010 C   0  0  0  0  0  0  0  0  0  0  0  0
  187.3940  178.1500  139.3730 N   0  0  0  0  0  0  0  0  0  0  0  0
  184.1390  179.0370  141.2010 C   0  0  0  0  0  2  0  0  0  0  0  0
  183.8310  179.1190  143.6920 C   0  0  0  0  0  3  0  0  0  0  0  0
  188.3900  177.0540  143.2670 O   0  0  0  0  0  0  0  0  0  0  0  0
  187.8340  177.8030  144.2640 N   0  0  0  0  0  0  0  0  0  0  0  0
  189.0480  177.1870  140.9420 C   0  0  1  0  0  3  0  0  0  0  0  0
  185.0500  178.5050  140.0750 C   0  0  1  0  0  3  0  0  0  0  0  0
  184.3250  179.0030  144.9960 C   0  0  0  0  0  3  0  0  0  0  0  0
  190.6440  176.4770  138.7690 C   0  0  0  0  0  2  0  0  0  0  0  0
  190.5400  177.5020  141.1120 C   0  0  0  0  0  2  0  0  0  0  0  0
  187.7410  177.6160  147.7890 C   0  0  2  0  0  0  0  0  0  0  0  0
  190.9780  177.8000  147.4490 C   0  0  0  0  0  2  0  0  0  0  0  0
  186.6150  178.6280  147.7290 C   0  0  0  0  0  1  0  0  0  0  0  0
  190.0880  177.0600  146.4570 C   0  0  0  0  0  0  0  0  0  0  0  0
  188.7580  178.3050  145.2980 C   0  0  2  0  0  3  0  0  0  0  0  0
  188.2700  177.2720  149.0330 O   0  0  0  0  0  1  0  0  0  0  0  0
  190.2230  177.7890  145.1250 C   0  0  0  0  0  2  0  0  0  0  0  0
  188.7040  177.5580  146.6310 C   0  0  2  0  0  0  0  0  0  0  0  0
  187.6570  176.4600  146.8050 C   0  0  0  0  0  2  0  0  0  0  0  0
  191.0710  176.3070  147.3430 C   0  0  0  0  0  2  0  0  0  0  0  0
  184.7650  179.2730  138.7930 C   0  0  0  0  0  2  0  0  0  0  0  0
  184.1810  180.5030  139.0930 O   0  0  0  0  0  1  0  0  0  0  0  0
  1 15  1  0  0  0  0
  1  3  1  0  0  0  0
  2  7  1  0  0  0  0
  2  4  1  1  0  0  0
  4  1  2  0  0  0  0
  5 11  1  6  0  0  0
  5  2  1  0  0  0  0
  6 20  1  0  0  0  0
  7 14  1  1  0  0  0
  8 19  1  0  0  0  0
  8  9  1  0  0  0  0
  9 16  1  0  0  0  0
 10  4  1  0  0  0  0
 10 13  2  0  0  0  0
 11  9  2  0  0  0  0
 12 10  1  0  0  0  0
 13 18  1  0  0  0  0
 14 15  1  0  0  0  0
 16 20  1  1  0  0  0
 16  7  1  0  0  0  0
 17 31  1  6  0  0  0
 17  5  1  0  0  0  0
 17 12  1  0  0  0  0
 18  3  2  0  0  0  0
 19  6  1  0  0  0  0
 21 23  1  6  0  0  0
 21 26  1  0  0  0  0
 24 28  1  0  0  0  0
 24 30  1  0  0  0  0
 24 22  1  0  0  0  0
 25 15  1  6  0  0  0
 25 28  1  0  0  0  0
 27 25  1  0  0  0  0
 27 24  1  0  0  0  0
 28 29  1  6  0  0  0
 28 21  1  0  0  0  0
 29 21  1  0  0  0  0
 30 22  1  0  0  0  0
 31 32  1  0  0  0  0
M  END
>  <MODEL>
8

>  <REMARK>
 VINA RESULT:      -8.7      2.153      6.778
  Name = 
  2 active torsions:
  status: ('A' for Active; 'I' for Inactive)
    1  A    between atoms: C_13  and  C_29
    2  A    between atoms: C_16  and  N_27
                            x       y       z     vdW  Elec       q    Type
                         _______ _______ _______ _____ _____    ______ ____

>  <TORSDO>
F 2

$$$$
=
 OpenBabel11052414273D

 32 39  0  0  1  0  0  0  0  0999 V2000
  187.9180  177.9610  143.4060 C   0  0  0  0  0  0  0  0  0  0  0  0
  189.1840  178.1950  141.2740 C   0  0  1  0  0  3  0  0  0  0  0  0
  187.8780  177.7290  144.7880 C   0  0  0  0  0  3  0  0  0  0  0  0
  189.1430  177.8600  142.7310 C   0  0  0  0  0  0  0  0  0  0  0  0
  190.1780  177.3160  140.5380 C   0  0  1  0  0  3  0  0  0  0  0  0
  186.7410  178.1420  136.9040 C   0  0  0  0  0  2  0  0  0  0  0  0
  187.8010  178.0430  140.6530 C   0  0  1  0  0  3  0  0  0  0  0  0
  189.2440  178.3140  137.0010 C   0  0  0  0  0  2  0  0  0  0  0  0
  189.1390  178.0820  138.4820 C   0  0  0  0  0  0  0  0  0  0  0  0
  190.3130  177.4820  143.4080 C   0  0  0  0  0  0  0  0  0  0  0  0
  190.1720  177.6280  139.1170 N   0  0  0  0  0  0  0  0  0  0  0  0
  191.5830  177.1640  142.6560 C   0  0  0  0  0  2  0  0  0  0  0  0
  190.2560  177.2490  144.7860 C   0  0  0  0  0  3  0  0  0  0  0  0
  186.9020  178.8340  141.3990 O   0  0  0  0  0  0  0  0  0  0  0  0
  186.7370  178.1990  142.5960 N   0  0  0  0  0  0  0  0  0  0  0  0
  187.8620  178.5090  139.2010 C   0  0  1  0  0  3  0  0  0  0  0  0
  191.5630  177.5420  141.1590 C   0  0  1  0  0  3  0  0  0  0  0  0
  189.0470  177.3890  145.4760 C   0  0  0  0  0  3  0  0  0  0  0  0
  187.9640  178.9400  136.4480 C   0  0  0  0  0  2  0  0  0  0  0  0
  186.6100  178.0600  138.4350 C   0  0  0  0  0  2  0  0  0  0  0  0
  184.3760  178.9710  145.1060 C   0  0  2  0  0  0  0  0  0  0  0  0
  182.2720  177.9740  142.8240 C   0  0  0  0  0  2  0  0  0  0  0  0
  185.2970  178.2580  146.0750 C   0  0  0  0  0  1  0  0  0  0  0  0
  183.5510  178.7330  142.4880 C   0  0  0  0  0  0  0  0  0  0  0  0
  185.3890  177.6670  142.8730 C   0  0  2  0  0  3  0  0  0  0  0  0
  183.1180  179.3780  145.5510 O   0  0  0  0  0  1  0  0  0  0  0  0
  184.4130  177.7860  141.6600 C   0  0  0  0  0  2  0  0  0  0  0  0
  184.4680  178.6110  143.6450 C   0  0  2  0  0  0  0  0  0  0  0  0
  185.0380  179.9390  144.1390 C   0  0  0  0  0  2  0  0  0  0  0  0
  182.1840  179.3650  142.2710 C   0  0  0  0  0  2  0  0  0  0  0  0
  192.6230  176.7360  140.4240 C   0  0  0  0  0  2  0  0  0  0  0  0
  193.5680  177.5920  139.8590 O   0  0  0  0  0  1  0  0  0  0  0  0
  1  3  1  0  0  0  0
  2  4  1  1  0  0  0
  3 18  2  0  0  0  0
  4  1  2  0  0  0  0
  4 10  1  0  0  0  0
  5 11  1  6  0  0  0
  5 17  1  0  0  0  0
  5  2  1  0  0  0  0
  6 20  1  0  0  0  0
  7  2  1  0  0  0  0
  7 14  1  1  0  0  0
  8  9  1  0  0  0  0
  9 11  2  0  0  0  0
  9 16  1  0  0  0  0
 10 13  2  0  0  0  0
 12 10  1  0  0  0  0
 13 18  1  0  0  0  0
 14 15  1  0  0  0  0
 15 25  1  0  0  0  0
 15  1  1  0  0  0  0
 16 20  1  6  0  0  0
 16  7  1  0  0  0  0
 17 31  1  6  0  0  0
 17 12  1  0  0  0  0
 19  6  1  0  0  0  0
 19  8  1  0  0  0  0
 21 26  1  0  0  0  0
 21 23  1  1  0  0  0
 24 22  1  0  0  0  0
 24 28  1  0  0  0  0
 25 27  1  6  0  0  0
 25 28  1  0  0  0  0
 27 24  1  0  0  0  0
 28 29  1  6  0  0  0
 28 21  1  0  0  0  0
 29 21  1  0  0  0  0
 30 24  1  0  0  0  0
 30 22  1  0  0  0  0
 32 31  1  0  0  0  0
M  END
>  <MODEL>
9

>  <REMARK>
 VINA RESULT:      -8.7      1.928      7.536
  Name = 
  2 active torsions:
  status: ('A' for Active; 'I' for Inactive)
    1  A    between atoms: C_13  and  C_29
    2  A    between atoms: C_16  and  N_27
                            x       y       z     vdW  Elec       q    Type
                         _______ _______ _______ _____ _____    ______ ____

>  <TORSDO>
F 2

$$$$
