=
 OpenBabel11052415573D

 34 39  0  0  1  0  0  0  0  0999 V2000
  182.5430  177.6720  141.3800 C   0  0  1  0  0  3  0  0  0  0  0  0
  182.6120  178.3310  137.6670 C   0  0  0  0  0  3  0  0  0  0  0  0
  181.4390  179.6240  139.3440 C   0  0  0  0  0  2  0  0  0  0  0  0
  180.9720  179.0720  142.8820 C   0  0  0  0  0  0  0  0  0  0  0  0
  180.1320  180.1430  142.6400 C   0  0  0  0  0  3  0  0  0  0  0  0
  181.1930  178.4540  144.1060 O   0  0  0  0  0  1  0  0  0  0  0  0
  181.0610  179.5910  140.7550 N   0  0  0  0  0  0  0  0  0  0  0  0
  181.5480  178.7490  141.6800 C   0  0  0  0  0  0  0  0  0  0  0  0
  180.2150  180.4380  141.3210 N   0  0  0  0  0  0  0  0  0  0  0  0
  183.4510  177.2240  137.1250 C   0  0  0  0  0  2  0  0  0  0  0  0
  182.7190  175.9210  137.1540 C   0  0  0  0  0  0  0  0  0  0  0  0
  182.3510  175.3630  138.3120 C   0  0  0  0  0  3  0  0  0  0  0  0
  182.1740  178.3760  138.9270 C   0  0  0  0  0  0  0  0  0  0  0  0
  182.4770  175.9870  139.6440 C   0  0  0  0  0  3  0  0  0  0  0  0
  182.4430  177.2970  139.9310 C   0  0  0  0  0  0  0  0  0  0  0  0
  182.4950  175.2000  135.8880 C   0  0  0  0  0  0  0  0  0  0  0  0
  182.0530  173.8830  135.9060 O   0  0  0  0  0  1  0  0  0  0  0  0
  182.7010  175.7670  134.7800 O   0  0  0  0  0  0  0  0  0  0  0  0
  183.9590  178.1410  141.6890 C   0  0  0  0  0  2  0  0  0  0  0  0
  187.9390  178.1790  143.4570 C   0  0  0  0  0  2  0  0  0  0  0  0
  185.5300  178.3280  145.2370 C   0  0  0  0  0  2  0  0  0  0  0  0
  189.3590  177.1030  146.7990 C   0  0  0  0  0  0  0  0  0  0  0  0
  184.0710  178.5960  143.1390 C   0  0  2  0  0  3  0  0  0  0  0  0
  189.2460  177.4160  145.4410 C   0  0  0  0  0  3  0  0  0  0  0  0
  188.0140  177.8110  144.9080 C   0  0  0  0  0  0  0  0  0  0  0  0
  185.0050  179.7960  143.2240 C   0  0  0  0  0  2  0  0  0  0  0  0
  187.0110  177.6120  147.1110 C   0  0  0  0  0  3  0  0  0  0  0  0
  186.8850  177.9170  145.7520 C   0  0  0  0  0  0  0  0  0  0  0  0
  188.2430  177.2070  147.6340 C   0  0  0  0  0  3  0  0  0  0  0  0
  185.4730  178.4460  143.7150 C   0  0  1  0  0  0  0  0  0  0  0  0
  186.5820  177.8140  142.8710 C   0  0  0  0  0  2  0  0  0  0  0  0
  190.6740  176.6760  147.3600 C   0  0  0  0  0  2  0  0  0  0  0  0
  191.7090  176.7860  146.3630 N   0  0  0  0  0  0  0  0  0  0  0  0
  192.1280  175.8100  145.8170 O   0  0  0  0  0  0  0  0  0  0  0  0
  1  8  1  0  0  0  0
  1 19  1  6  0  0  0
  2 13  2  0  0  0  0
  3  7  1  0  0  0  0
  4  6  1  0  0  0  0
  5  4  1  0  0  0  0
  7  9  1  0  0  0  0
  7  8  1  0  0  0  0
  8  4  2  0  0  0  0
  9  5  2  0  0  0  0
 10 11  1  0  0  0  0
 10  2  1  0  0  0  0
 11 12  2  0  0  0  0
 12 14  1  0  0  0  0
 13  3  1  0  0  0  0
 13 15  1  0  0  0  0
 14 15  2  0  0  0  0
 15  1  1  0  0  0  0
 16 17  1  0  0  0  0
 16 11  1  0  0  0  0
 18 16  2  0  0  0  0
 20 25  1  0  0  0  0
 21 28  1  0  0  0  0
 22 32  1  0  0  0  0
 22 29  1  0  0  0  0
 23 19  1  6  0  0  0
 23 26  1  0  0  0  0
 23 30  1  0  0  0  0
 24 22  2  0  0  0  0
 25 24  1  0  0  0  0
 25 28  2  0  0  0  0
 26 30  1  0  0  0  0
 27 29  2  0  0  0  0
 28 27  1  0  0  0  0
 30 31  1  6  0  0  0
 30 21  1  0  0  0  0
 31 20  1  0  0  0  0
 33 32  1  0  0  0  0
 34 33  2  0  0  0  0
M  END
>  <MODEL>
1

>  <REMARK>
 VINA RESULT:      -9.4      0.000      0.000
  Name = 
  5 active torsions:
  status: ('A' for Active; 'I' for Inactive)
    1  A    between atoms: C_1  and  C_9
    2  A    between atoms: C_3  and  C_25
    3  A    between atoms: C_7  and  C_11
    4  A    between atoms: C_8  and  C_9
    5  A    between atoms: C_11  and  N_15
                            x       y       z     vdW  Elec       q    Type
                         _______ _______ _______ _____ _____    ______ ____

>  <TORSDO>
F 5

$$$$
=
 OpenBabel11052415573D

 34 39  0  0  1  0  0  0  0  0999 V2000
  190.7870  176.5300  137.7080 C   0  0  1  0  0  3  0  0  0  0  0  0
  187.8330  174.3210  136.9220 C   0  0  0  0  0  3  0  0  0  0  0  0
  190.1720  173.7120  136.7860 C   0  0  0  0  0  2  0  0  0  0  0  0
  193.1740  175.6760  137.2010 C   0  0  0  0  0  0  0  0  0  0  0  0
  193.6730  174.4730  136.7360 C   0  0  0  0  0  3  0  0  0  0  0  0
  193.9120  176.8010  137.5430 O   0  0  0  0  0  1  0  0  0  0  0  0
  191.5100  174.2950  136.8430 N   0  0  0  0  0  0  0  0  0  0  0  0
  191.8110  175.5330  137.2630 C   0  0  0  0  0  0  0  0  0  0  0  0
  192.6210  173.6450  136.5310 N   0  0  0  0  0  0  0  0  0  0  0  0
  186.6550  175.2080  137.1480 C   0  0  0  0  0  2  0  0  0  0  0  0
  186.5250  176.2270  136.0620 C   0  0  0  0  0  0  0  0  0  0  0  0
  187.4640  177.1610  135.8790 C   0  0  0  0  0  3  0  0  0  0  0  0
  189.0930  174.7580  136.9070 C   0  0  0  0  0  0  0  0  0  0  0  0
  188.7600  177.2270  136.5840 C   0  0  0  0  0  3  0  0  0  0  0  0
  189.4670  176.1990  137.0760 C   0  0  0  0  0  0  0  0  0  0  0  0
  185.2920  176.2570  135.2560 C   0  0  0  0  0  0  0  0  0  0  0  0
  184.6050  175.0790  134.9920 O   0  0  0  0  0  1  0  0  0  0  0  0
  184.8490  177.3460  134.7990 O   0  0  0  0  0  0  0  0  0  0  0  0
  190.6430  176.5200  139.2250 C   0  0  0  0  0  2  0  0  0  0  0  0
  190.2920  178.0330  143.2920 C   0  0  0  0  0  2  0  0  0  0  0  0
  187.8090  177.4790  141.7030 C   0  0  0  0  0  2  0  0  0  0  0  0
  187.6650  177.7410  146.0060 C   0  0  0  0  0  0  0  0  0  0  0  0
  189.2910  177.0860  139.6410 C   0  0  2  0  0  3  0  0  0  0  0  0
  188.8910  177.9010  145.3540 C   0  0  0  0  0  3  0  0  0  0  0  0
  188.9670  177.8150  143.9600 C   0  0  0  0  0  0  0  0  0  0  0  0
  189.4610  178.5350  140.0780 C   0  0  0  0  0  2  0  0  0  0  0  0
  186.5690  177.4420  143.8660 C   0  0  0  0  0  3  0  0  0  0  0  0
  187.7930  177.5900  143.2050 C   0  0  0  0  0  0  0  0  0  0  0  0
  186.5030  177.5180  145.2600 C   0  0  0  0  0  3  0  0  0  0  0  0
  189.2200  177.4620  141.1150 C   0  0  1  0  0  0  0  0  0  0  0  0
  190.4130  177.1880  142.0320 C   0  0  0  0  0  2  0  0  0  0  0  0
  187.5920  177.8270  147.4930 C   0  0  0  0  0  2  0  0  0  0  0  0
  188.8810  177.5570  148.0790 N   0  0  0  0  0  0  0  0  0  0  0  0
  189.3840  178.3440  148.8220 O   0  0  0  0  0  0  0  0  0  0  0  0
  1 19  1  1  0  0  0
  2 10  1  0  0  0  0
  3  7  1  0  0  0  0
  3 13  1  0  0  0  0
  4  8  2  0  0  0  0
  4  6  1  0  0  0  0
  5  4  1  0  0  0  0
  7  8  1  0  0  0  0
  8  1  1  0  0  0  0
  9  5  2  0  0  0  0
  9  7  1  0  0  0  0
 11 10  1  0  0  0  0
 12 11  2  0  0  0  0
 12 14  1  0  0  0  0
 13  2  2  0  0  0  0
 13 15  1  0  0  0  0
 14 15  2  0  0  0  0
 15  1  1  0  0  0  0
 16 11  1  0  0  0  0
 17 16  1  0  0  0  0
 18 16  2  0  0  0  0
 20 25  1  0  0  0  0
 21 28  1  0  0  0  0
 22 32  1  0  0  0  0
 23 19  1  1  0  0  0
 23 26  1  0  0  0  0
 23 30  1  0  0  0  0
 24 22  1  0  0  0  0
 25 24  2  0  0  0  0
 27 29  1  0  0  0  0
 28 27  2  0  0  0  0
 28 25  1  0  0  0  0
 29 22  2  0  0  0  0
 30 26  1  6  0  0  0
 30 21  1  0  0  0  0
 30 31  1  0  0  0  0
 31 20  1  0  0  0  0
 32 33  1  0  0  0  0
 33 34  2  0  0  0  0
M  END
>  <MODEL>
2

>  <REMARK>
 VINA RESULT:      -8.7      5.207      7.548
  Name = 
  5 active torsions:
  status: ('A' for Active; 'I' for Inactive)
    1  A    between atoms: C_1  and  C_9
    2  A    between atoms: C_3  and  C_25
    3  A    between atoms: C_7  and  C_11
    4  A    between atoms: C_8  and  C_9
    5  A    between atoms: C_11  and  N_15
                            x       y       z     vdW  Elec       q    Type
                         _______ _______ _______ _____ _____    ______ ____

>  <TORSDO>
F 5

$$$$
=
 OpenBabel11052415573D

 34 39  0  0  1  0  0  0  0  0999 V2000
  181.0010  178.0360  141.5150 C   0  0  1  0  0  3  0  0  0  0  0  0
  180.7470  180.8040  138.9660 C   0  0  0  0  0  3  0  0  0  0  0  0
  179.9190  180.8510  141.2400 C   0  0  0  0  0  2  0  0  0  0  0  0
  179.7750  178.2850  143.7770 C   0  0  0  0  0  0  0  0  0  0  0  0
  179.0430  179.3070  144.3530 C   0  0  0  0  0  3  0  0  0  0  0  0
  180.0520  177.0460  144.3410 O   0  0  0  0  0  1  0  0  0  0  0  0
  179.6940  179.9820  142.3930 N   0  0  0  0  0  0  0  0  0  0  0  0
  180.1760  178.7390  142.5470 C   0  0  0  0  0  0  0  0  0  0  0  0
  179.0180  180.3370  143.4750 N   0  0  0  0  0  0  0  0  0  0  0  0
  181.3880  180.2270  137.7500 C   0  0  0  0  0  2  0  0  0  0  0  0
  180.5170  179.1930  137.1120 C   0  0  0  0  0  0  0  0  0  0  0  0
  180.2140  178.0590  137.7520 C   0  0  0  0  0  3  0  0  0  0  0  0
  180.4560  180.0900  140.0550 C   0  0  0  0  0  0  0  0  0  0  0  0
  180.5540  177.7460  139.1550 C   0  0  0  0  0  3  0  0  0  0  0  0
  180.7040  178.6170  140.1640 C   0  0  0  0  0  0  0  0  0  0  0  0
  180.0770  179.3910  135.7200 C   0  0  0  0  0  0  0  0  0  0  0  0
  179.5070  178.3390  135.0140 O   0  0  0  0  0  0  0  0  0  0  0  0
  180.2110  180.5110  135.1560 O   0  0  0  0  0  1  0  0  0  0  0  0
  182.4880  178.1820  141.8170 C   0  0  0  0  0  2  0  0  0  0  0  0
  186.5550  178.2520  143.3710 C   0  0  0  0  0  2  0  0  0  0  0  0
  184.2560  178.7740  145.2250 C   0  0  0  0  0  2  0  0  0  0  0  0
  188.1030  177.5730  146.7610 C   0  0  0  0  0  0  0  0  0  0  0  0
  182.6990  178.8260  143.1810 C   0  0  2  0  0  3  0  0  0  0  0  0
  187.9310  177.7010  145.3790 C   0  0  0  0  0  3  0  0  0  0  0  0
  186.6920  178.0840  144.8550 C   0  0  0  0  0  0  0  0  0  0  0  0
  183.6910  179.9750  143.0530 C   0  0  0  0  0  2  0  0  0  0  0  0
  185.8020  178.2450  147.1090 C   0  0  0  0  0  3  0  0  0  0  0  0
  185.6160  178.3660  145.7280 C   0  0  0  0  0  0  0  0  0  0  0  0
  187.0390  177.8510  147.6250 C   0  0  0  0  0  3  0  0  0  0  0  0
  184.1220  178.6820  143.7060 C   0  0  1  0  0  0  0  0  0  0  0  0
  185.1530  177.8830  142.9070 C   0  0  0  0  0  2  0  0  0  0  0  0
  189.4250  177.1580  147.3130 C   0  0  0  0  0  2  0  0  0  0  0  0
  190.4390  177.2090  146.2900 N   0  0  0  0  0  0  0  0  0  0  0  0
  191.3630  176.4530  146.3170 O   0  0  0  0  0  0  0  0  0  0  0  0
  1 19  1  1  0  0  0
  1  8  1  0  0  0  0
  2 13  2  0  0  0  0
  3  7  1  0  0  0  0
  4  6  1  0  0  0  0
  4  5  1  0  0  0  0
  7  8  1  0  0  0  0
  7  9  1  0  0  0  0
  8  4  2  0  0  0  0
  9  5  2  0  0  0  0
 10  2  1  0  0  0  0
 11 10  1  0  0  0  0
 11 12  2  0  0  0  0
 12 14  1  0  0  0  0
 13 15  1  0  0  0  0
 13  3  1  0  0  0  0
 14 15  2  0  0  0  0
 15  1  1  0  0  0  0
 16 11  1  0  0  0  0
 17 16  2  0  0  0  0
 18 16  1  0  0  0  0
 20 25  1  0  0  0  0
 21 28  1  0  0  0  0
 22 32  1  0  0  0  0
 22 29  1  0  0  0  0
 23 19  1  6  0  0  0
 23 30  1  0  0  0  0
 24 22  2  0  0  0  0
 25 24  1  0  0  0  0
 25 28  2  0  0  0  0
 26 23  1  0  0  0  0
 26 30  1  0  0  0  0
 27 29  2  0  0  0  0
 28 27  1  0  0  0  0
 30 31  1  6  0  0  0
 30 21  1  0  0  0  0
 31 20  1  0  0  0  0
 33 34  2  0  0  0  0
 33 32  1  0  0  0  0
M  END
>  <MODEL>
3

>  <REMARK>
 VINA RESULT:      -8.1      2.069      2.514
  Name = 
  5 active torsions:
  status: ('A' for Active; 'I' for Inactive)
    1  A    between atoms: C_1  and  C_9
    2  A    between atoms: C_3  and  C_25
    3  A    between atoms: C_7  and  C_11
    4  A    between atoms: C_8  and  C_9
    5  A    between atoms: C_11  and  N_15
                            x       y       z     vdW  Elec       q    Type
                         _______ _______ _______ _____ _____    ______ ____

>  <TORSDO>
F 5

$$$$
=
 OpenBabel11052415573D

 34 39  0  0  1  0  0  0  0  0999 V2000
  189.1190  175.8720  137.3730 C   0  0  1  0  0  3  0  0  0  0  0  0
  192.1200  175.7120  135.0950 C   0  0  0  0  0  3  0  0  0  0  0  0
  190.0640  176.9240  134.6950 C   0  0  0  0  0  2  0  0  0  0  0  0
  186.9610  177.0280  136.5410 C   0  0  0  0  0  0  0  0  0  0  0  0
  186.6400  177.7220  135.3890 C   0  0  0  0  0  3  0  0  0  0  0  0
  186.1220  176.7790  137.6190 O   0  0  0  0  0  1  0  0  0  0  0  0
  188.7100  177.0830  135.2200 N   0  0  0  0  0  0  0  0  0  0  0  0
  188.2710  176.6420  136.4090 C   0  0  0  0  0  0  0  0  0  0  0  0
  187.7420  177.7400  134.6010 N   0  0  0  0  0  0  0  0  0  0  0  0
  193.0680  174.8150  135.8180 C   0  0  0  0  0  2  0  0  0  0  0  0
  192.6170  173.3910  135.7680 C   0  0  0  0  0  0  0  0  0  0  0  0
  191.4760  173.0110  136.3510 C   0  0  0  0  0  3  0  0  0  0  0  0
  190.8510  175.8930  135.4620 C   0  0  0  0  0  0  0  0  0  0  0  0
  190.4810  173.9130  136.9650 C   0  0  0  0  0  3  0  0  0  0  0  0
  190.2200  175.1830  136.6210 C   0  0  0  0  0  0  0  0  0  0  0  0
  193.5000  172.3840  135.1550 C   0  0  0  0  0  0  0  0  0  0  0  0
  194.8380  172.6790  134.9260 O   0  0  0  0  0  1  0  0  0  0  0  0
  193.0540  171.2490  134.8320 O   0  0  0  0  0  0  0  0  0  0  0  0
  189.7200  176.7950  138.4250 C   0  0  0  0  0  2  0  0  0  0  0  0
  190.8400  177.8140  142.5080 C   0  0  0  0  0  2  0  0  0  0  0  0
  187.9390  177.5770  141.7880 C   0  0  0  0  0  2  0  0  0  0  0  0
  189.2240  177.3170  145.8970 C   0  0  0  0  0  0  0  0  0  0  0  0
  188.6300  177.3700  139.3220 C   0  0  2  0  0  3  0  0  0  0  0  0
  190.1800  177.4970  144.8940 C   0  0  0  0  0  3  0  0  0  0  0  0
  189.7910  177.5790  143.5530 C   0  0  0  0  0  0  0  0  0  0  0  0
  189.0560  178.7450  139.8210 C   0  0  0  0  0  2  0  0  0  0  0  0
  187.4700  177.3340  144.2250 C   0  0  0  0  0  3  0  0  0  0  0  0
  188.4210  177.5040  143.2130 C   0  0  0  0  0  0  0  0  0  0  0  0
  187.8680  177.2420  145.5620 C   0  0  0  0  0  3  0  0  0  0  0  0
  189.0740  177.5660  140.7660 C   0  0  1  0  0  0  0  0  0  0  0  0
  190.4730  177.1250  141.2010 C   0  0  0  0  0  2  0  0  0  0  0  0
  189.6460  177.2230  147.3250 C   0  0  0  0  0  2  0  0  0  0  0  0
  189.0060  178.2480  148.1100 N   0  0  0  0  0  0  0  0  0  0  0  0
  188.1450  177.9650  148.8870 O   0  0  0  0  0  0  0  0  0  0  0  0
  1 19  1  1  0  0  0
  2 13  2  0  0  0  0
  2 10  1  0  0  0  0
  3  7  1  0  0  0  0
  3 13  1  0  0  0  0
  4  6  1  0  0  0  0
  5  4  1  0  0  0  0
  7  8  1  0  0  0  0
  8  4  2  0  0  0  0
  8  1  1  0  0  0  0
  9  7  1  0  0  0  0
  9  5  2  0  0  0  0
 11 10  1  0  0  0  0
 11 12  2  0  0  0  0
 12 14  1  0  0  0  0
 13 15  1  0  0  0  0
 15 14  2  0  0  0  0
 15  1  1  0  0  0  0
 16 11  1  0  0  0  0
 17 16  1  0  0  0  0
 18 16  2  0  0  0  0
 20 25  1  0  0  0  0
 21 28  1  0  0  0  0
 22 32  1  0  0  0  0
 23 19  1  6  0  0  0
 23 26  1  0  0  0  0
 23 30  1  0  0  0  0
 24 22  2  0  0  0  0
 25 24  1  0  0  0  0
 27 29  2  0  0  0  0
 28 25  2  0  0  0  0
 28 27  1  0  0  0  0
 29 22  1  0  0  0  0
 30 26  1  6  0  0  0
 30 31  1  0  0  0  0
 30 21  1  0  0  0  0
 31 20  1  0  0  0  0
 32 33  1  0  0  0  0
 33 34  2  0  0  0  0
M  END
>  <MODEL>
4

>  <REMARK>
 VINA RESULT:      -8.1      6.429      7.711
  Name = 
  5 active torsions:
  status: ('A' for Active; 'I' for Inactive)
    1  A    between atoms: C_1  and  C_9
    2  A    between atoms: C_3  and  C_25
    3  A    between atoms: C_7  and  C_11
    4  A    between atoms: C_8  and  C_9
    5  A    between atoms: C_11  and  N_15
                            x       y       z     vdW  Elec       q    Type
                         _______ _______ _______ _____ _____    ______ ____

>  <TORSDO>
F 5

$$$$
=
 OpenBabel11052415573D

 34 39  0  0  1  0  0  0  0  0999 V2000
  190.0850  176.7700  139.4800 C   0  0  1  0  0  3  0  0  0  0  0  0
  191.6000  178.2890  142.5820 C   0  0  0  0  0  3  0  0  0  0  0  0
  192.7900  177.5030  140.6270 C   0  0  0  0  0  2  0  0  0  0  0  0
  191.6410  175.7730  137.6720 C   0  0  0  0  0  0  0  0  0  0  0  0
  193.0150  175.7220  137.5250 C   0  0  0  0  0  3  0  0  0  0  0  0
  190.6940  175.2610  136.7940 O   0  0  0  0  0  1  0  0  0  0  0  0
  192.5860  176.7560  139.3880 N   0  0  0  0  0  0  0  0  0  0  0  0
  191.4000  176.4330  138.8500 C   0  0  0  0  0  0  0  0  0  0  0  0
  193.5640  176.3400  138.5980 N   0  0  0  0  0  0  0  0  0  0  0  0
  190.4230  178.5580  143.4580 C   0  0  0  0  0  2  0  0  0  0  0  0
  189.8630  177.2930  144.0230 C   0  0  0  0  0  0  0  0  0  0  0  0
  189.3290  176.3600  143.2280 C   0  0  0  0  0  3  0  0  0  0  0  0
  191.5330  177.5790  141.4550 C   0  0  0  0  0  0  0  0  0  0  0  0
  189.3460  176.3780  141.7510 C   0  0  0  0  0  3  0  0  0  0  0  0
  190.2740  176.9370  140.9590 C   0  0  0  0  0  0  0  0  0  0  0  0
  189.8120  177.1270  145.4870 C   0  0  0  0  0  0  0  0  0  0  0  0
  190.9840  176.9280  146.2060 O   0  0  0  0  0  1  0  0  0  0  0  0
  188.7100  177.1630  146.0990 O   0  0  0  0  0  0  0  0  0  0  0  0
  189.5140  178.0540  138.8910 C   0  0  0  0  0  2  0  0  0  0  0  0
  185.2310  178.7860  139.1850 C   0  0  0  0  0  2  0  0  0  0  0  0
  186.2910  177.0980  136.9430 C   0  0  0  0  0  2  0  0  0  0  0  0
  182.1420  176.8810  138.1000 C   0  0  0  0  0  0  0  0  0  0  0  0
  188.6710  177.7530  137.6580 C   0  0  2  0  0  3  0  0  0  0  0  0
  182.9990  177.7390  138.7950 C   0  0  0  0  0  3  0  0  0  0  0  0
  184.3500  177.8250  138.4440 C   0  0  0  0  0  0  0  0  0  0  0  0
  187.9430  179.0160  137.2190 C   0  0  0  0  0  2  0  0  0  0  0  0
  183.9770  176.2100  136.6690 C   0  0  0  0  0  3  0  0  0  0  0  0
  184.8450  177.0570  137.3650 C   0  0  0  0  0  0  0  0  0  0  0  0
  182.6310  176.1220  137.0330 C   0  0  0  0  0  3  0  0  0  0  0  0
  187.1740  177.9040  137.8950 C   0  0  1  0  0  0  0  0  0  0  0  0
  186.6530  178.2530  139.2900 C   0  0  0  0  0  2  0  0  0  0  0  0
  180.7030  176.7900  138.4840 C   0  0  0  0  0  2  0  0  0  0  0  0
  180.5650  176.2040  139.7930 N   0  0  0  0  0  0  0  0  0  0  0  0
  180.4300  175.0230  139.9150 O   0  0  0  0  0  0  0  0  0  0  0  0
  1 19  1  6  0  0  0
  1 15  1  0  0  0  0
  2 10  1  0  0  0  0
  3 13  1  0  0  0  0
  4  8  2  0  0  0  0
  5  4  1  0  0  0  0
  5  9  2  0  0  0  0
  6  4  1  0  0  0  0
  7  3  1  0  0  0  0
  8  7  1  0  0  0  0
  8  1  1  0  0  0  0
  9  7  1  0  0  0  0
 10 11  1  0  0  0  0
 11 16  1  0  0  0  0
 12 11  2  0  0  0  0
 13  2  2  0  0  0  0
 14 12  1  0  0  0  0
 15 13  1  0  0  0  0
 15 14  2  0  0  0  0
 16 18  2  0  0  0  0
 16 17  1  0  0  0  0
 20 31  1  0  0  0  0
 21 28  1  0  0  0  0
 22 32  1  0  0  0  0
 22 24  1  0  0  0  0
 23 30  1  0  0  0  0
 23 19  1  1  0  0  0
 25 24  2  0  0  0  0
 25 20  1  0  0  0  0
 26 23  1  0  0  0  0
 26 30  1  0  0  0  0
 27 29  1  0  0  0  0
 27 28  2  0  0  0  0
 28 25  1  0  0  0  0
 29 22  2  0  0  0  0
 30 21  1  6  0  0  0
 30 31  1  0  0  0  0
 32 33  1  0  0  0  0
 33 34  2  0  0  0  0
M  END
>  <MODEL>
5

>  <REMARK>
 VINA RESULT:      -7.8      4.345     10.384
  Name = 
  5 active torsions:
  status: ('A' for Active; 'I' for Inactive)
    1  A    between atoms: C_1  and  C_9
    2  A    between atoms: C_3  and  C_25
    3  A    between atoms: C_7  and  C_11
    4  A    between atoms: C_8  and  C_9
    5  A    between atoms: C_11  and  N_15
                            x       y       z     vdW  Elec       q    Type
                         _______ _______ _______ _____ _____    ______ ____

>  <TORSDO>
F 5

$$$$
=
 OpenBabel11052415573D

 34 39  0  0  1  0  0  0  0  0999 V2000
  189.3540  176.8170  139.8010 C   0  0  1  0  0  3  0  0  0  0  0  0
  191.2900  178.2880  142.6830 C   0  0  0  0  0  3  0  0  0  0  0  0
  192.1980  177.5030  140.5820 C   0  0  0  0  0  2  0  0  0  0  0  0
  190.6410  175.8140  137.7960 C   0  0  0  0  0  0  0  0  0  0  0  0
  191.9830  175.7450  137.4670 C   0  0  0  0  0  3  0  0  0  0  0  0
  189.5790  175.3230  137.0470 O   0  0  0  0  0  1  0  0  0  0  0  0
  191.8210  176.7690  139.3770 N   0  0  0  0  0  0  0  0  0  0  0  0
  190.5690  176.4680  138.9990 C   0  0  0  0  0  0  0  0  0  0  0  0
  192.6780  176.3460  138.4610 N   0  0  0  0  0  0  0  0  0  0  0  0
  190.2440  178.5670  143.7090 C   0  0  0  0  0  2  0  0  0  0  0  0
  189.7460  177.3040  144.3360 C   0  0  0  0  0  0  0  0  0  0  0  0
  189.0970  176.3860  143.6130 C   0  0  0  0  0  3  0  0  0  0  0  0
  191.0630  177.5890  141.5700 C   0  0  0  0  0  0  0  0  0  0  0  0
  188.9180  176.4160  142.1470 C   0  0  0  0  0  3  0  0  0  0  0  0
  189.7400  176.9690  141.2430 C   0  0  0  0  0  0  0  0  0  0  0  0
  189.8870  177.1270  145.7920 C   0  0  0  0  0  0  0  0  0  0  0  0
  188.7680  177.1990  146.6130 O   0  0  0  0  0  1  0  0  0  0  0  0
  191.0170  176.9080  146.3070 O   0  0  0  0  0  0  0  0  0  0  0  0
  188.7290  178.1140  139.3010 C   0  0  0  0  0  2  0  0  0  0  0  0
  184.6910  179.2930  140.4280 C   0  0  0  0  0  2  0  0  0  0  0  0
  185.0900  177.3730  138.1580 C   0  0  0  0  0  2  0  0  0  0  0  0
  181.2880  177.6500  140.1750 C   0  0  0  0  0  0  0  0  0  0  0  0
  187.6160  177.8250  138.3010 C   0  0  2  0  0  3  0  0  0  0  0  0
  182.3460  178.4560  140.6030 C   0  0  0  0  0  3  0  0  0  0  0  0
  183.5910  178.3830  139.9690 C   0  0  0  0  0  0  0  0  0  0  0  0
  186.9220  179.1270  137.9230 C   0  0  0  0  0  2  0  0  0  0  0  0
  182.7050  176.7100  138.4490 C   0  0  0  0  0  3  0  0  0  0  0  0
  183.7730  177.5050  138.8760 C   0  0  0  0  0  0  0  0  0  0  0  0
  181.4670  176.7810  139.0940 C   0  0  0  0  0  3  0  0  0  0  0  0
  186.2250  178.1420  138.8340 C   0  0  1  0  0  0  0  0  0  0  0  0
  186.0510  178.6260  140.2750 C   0  0  0  0  0  2  0  0  0  0  0  0
  179.9640  177.7280  140.8590 C   0  0  0  0  0  2  0  0  0  0  0  0
  180.0940  178.3790  142.1380 N   0  0  0  0  0  0  0  0  0  0  0  0
  179.6930  177.8480  143.1290 O   0  0  0  0  0  0  0  0  0  0  0  0
  1 19  1  6  0  0  0
  1 15  1  0  0  0  0
  2 10  1  0  0  0  0
  3 13  1  0  0  0  0
  4  8  2  0  0  0  0
  5  4  1  0  0  0  0
  5  9  2  0  0  0  0
  6  4  1  0  0  0  0
  7  3  1  0  0  0  0
  8  7  1  0  0  0  0
  8  1  1  0  0  0  0
  9  7  1  0  0  0  0
 10 11  1  0  0  0  0
 11 16  1  0  0  0  0
 12 11  2  0  0  0  0
 13  2  2  0  0  0  0
 14 12  1  0  0  0  0
 15 13  1  0  0  0  0
 15 14  2  0  0  0  0
 16 18  2  0  0  0  0
 16 17  1  0  0  0  0
 21 30  1  0  0  0  0
 21 28  1  0  0  0  0
 22 24  1  0  0  0  0
 22 32  1  0  0  0  0
 23 30  1  0  0  0  0
 23 19  1  1  0  0  0
 25 20  1  0  0  0  0
 25 24  2  0  0  0  0
 26 23  1  0  0  0  0
 27 28  2  0  0  0  0
 27 29  1  0  0  0  0
 28 25  1  0  0  0  0
 29 22  2  0  0  0  0
 30 26  1  6  0  0  0
 30 31  1  0  0  0  0
 31 20  1  0  0  0  0
 32 33  1  0  0  0  0
 33 34  2  0  0  0  0
M  END
>  <MODEL>
6

>  <REMARK>
 VINA RESULT:      -7.7      3.887      9.828
  Name = 
  5 active torsions:
  status: ('A' for Active; 'I' for Inactive)
    1  A    between atoms: C_1  and  C_9
    2  A    between atoms: C_3  and  C_25
    3  A    between atoms: C_7  and  C_11
    4  A    between atoms: C_8  and  C_9
    5  A    between atoms: C_11  and  N_15
                            x       y       z     vdW  Elec       q    Type
                         _______ _______ _______ _____ _____    ______ ____

>  <TORSDO>
F 5

$$$$
=
 OpenBabel11052415573D

 34 39  0  0  1  0  0  0  0  0999 V2000
  181.9500  178.0870  141.4650 C   0  0  1  0  0  3  0  0  0  0  0  0
  181.9610  178.4680  137.7130 C   0  0  0  0  0  3  0  0  0  0  0  0
  180.4350  179.5190  139.2690 C   0  0  0  0  0  2  0  0  0  0  0  0
  180.0170  179.1220  142.8340 C   0  0  0  0  0  0  0  0  0  0  0  0
  178.9310  179.9100  142.4990 C   0  0  0  0  0  3  0  0  0  0  0  0
  180.3540  178.6760  144.1060 O   0  0  0  0  0  1  0  0  0  0  0  0
  180.0340  179.4900  140.6740 N   0  0  0  0  0  0  0  0  0  0  0  0
  180.6960  178.8780  141.6680 C   0  0  0  0  0  0  0  0  0  0  0  0
  178.9760  180.1190  141.1610 N   0  0  0  0  0  0  0  0  0  0  0  0
  183.0810  177.5880  137.2700 C   0  0  0  0  0  2  0  0  0  0  0  0
  182.7200  176.1430  137.3920 C   0  0  0  0  0  0  0  0  0  0  0  0
  182.4770  175.5930  138.5860 C   0  0  0  0  0  3  0  0  0  0  0  0
  181.4880  178.4860  138.9600 C   0  0  0  0  0  0  0  0  0  0  0  0
  182.3900  176.3230  139.8670 C   0  0  0  0  0  3  0  0  0  0  0  0
  182.0010  177.5940  140.0490 C   0  0  0  0  0  0  0  0  0  0  0  0
  182.7370  175.2990  136.1850 C   0  0  0  0  0  0  0  0  0  0  0  0
  181.5450  174.8260  135.6500 O   0  0  0  0  0  1  0  0  0  0  0  0
  183.8270  174.9970  135.6260 O   0  0  0  0  0  0  0  0  0  0  0  0
  183.1810  178.9380  141.7530 C   0  0  0  0  0  2  0  0  0  0  0  0
  187.5110  179.3450  141.5320 C   0  0  0  0  0  2  0  0  0  0  0  0
  186.3090  177.3620  143.4340 C   0  0  0  0  0  2  0  0  0  0  0  0
  190.4240  177.0150  142.1900 C   0  0  0  0  0  0  0  0  0  0  0  0
  183.9940  178.3390  142.8940 C   0  0  2  0  0  3  0  0  0  0  0  0
  189.6440  178.0580  141.6820 C   0  0  0  0  0  3  0  0  0  0  0  0
  188.3050  178.1900  142.0650 C   0  0  0  0  0  0  0  0  0  0  0  0
  184.8290  179.4310  143.5510 C   0  0  0  0  0  2  0  0  0  0  0  0
  188.5370  176.2450  143.5000 C   0  0  0  0  0  3  0  0  0  0  0  0
  187.7460  177.2780  142.9890 C   0  0  0  0  0  0  0  0  0  0  0  0
  189.8710  176.1120  143.1040 C   0  0  0  0  0  3  0  0  0  0  0  0
  185.4990  178.4050  142.6660 C   0  0  1  0  0  0  0  0  0  0  0  0
  186.0480  178.9640  141.3520 C   0  0  0  0  0  2  0  0  0  0  0  0
  191.8490  176.8750  141.7720 C   0  0  0  0  0  2  0  0  0  0  0  0
  192.0500  177.4430  140.4630 N   0  0  0  0  0  0  0  0  0  0  0  0
  191.6590  176.8710  139.4900 O   0  0  0  0  0  0  0  0  0  0  0  0
  1  8  1  0  0  0  0
  1 19  1  6  0  0  0
  2 13  2  0  0  0  0
  3  7  1  0  0  0  0
  4  6  1  0  0  0  0
  5  4  1  0  0  0  0
  7  9  1  0  0  0  0
  7  8  1  0  0  0  0
  8  4  2  0  0  0  0
  9  5  2  0  0  0  0
 10 11  1  0  0  0  0
 10  2  1  0  0  0  0
 11 12  2  0  0  0  0
 12 14  1  0  0  0  0
 13  3  1  0  0  0  0
 13 15  1  0  0  0  0
 14 15  2  0  0  0  0
 15  1  1  0  0  0  0
 16 11  1  0  0  0  0
 17 16  1  0  0  0  0
 18 16  2  0  0  0  0
 20 25  1  0  0  0  0
 22 29  1  0  0  0  0
 23 19  1  6  0  0  0
 23 26  1  0  0  0  0
 24 25  1  0  0  0  0
 24 22  2  0  0  0  0
 25 28  2  0  0  0  0
 28 21  1  0  0  0  0
 28 27  1  0  0  0  0
 29 27  2  0  0  0  0
 30 31  1  6  0  0  0
 30 23  1  0  0  0  0
 30 21  1  0  0  0  0
 30 26  1  0  0  0  0
 31 20  1  0  0  0  0
 32 22  1  0  0  0  0
 33 32  1  0  0  0  0
 34 33  2  0  0  0  0
M  END
>  <MODEL>
7

>  <REMARK>
 VINA RESULT:      -7.5      2.289      2.634
  Name = 
  5 active torsions:
  status: ('A' for Active; 'I' for Inactive)
    1  A    between atoms: C_1  and  C_9
    2  A    between atoms: C_3  and  C_25
    3  A    between atoms: C_7  and  C_11
    4  A    between atoms: C_8  and  C_9
    5  A    between atoms: C_11  and  N_15
                            x       y       z     vdW  Elec       q    Type
                         _______ _______ _______ _____ _____    ______ ____

>  <TORSDO>
F 5

$$$$
=
 OpenBabel11052415573D

 34 39  0  0  1  0  0  0  0  0999 V2000
  187.4980  176.8230  137.3780 C   0  0  1  0  0  3  0  0  0  0  0  0
  186.4360  173.2530  136.7830 C   0  0  0  0  0  3  0  0  0  0  0  0
  188.2120  174.4420  135.6470 C   0  0  0  0  0  2  0  0  0  0  0  0
  189.2510  177.8970  135.8100 C   0  0  0  0  0  0  0  0  0  0  0  0
  190.0080  177.4130  134.7590 C   0  0  0  0  0  3  0  0  0  0  0  0
  189.2690  179.1900  136.3170 O   0  0  0  0  0  1  0  0  0  0  0  0
  188.7730  175.7820  135.4910 N   0  0  0  0  0  0  0  0  0  0  0  0
  188.4870  176.8480  136.2540 C   0  0  0  0  0  0  0  0  0  0  0  0
  189.6910  176.1070  134.5940 N   0  0  0  0  0  0  0  0  0  0  0  0
  185.2960  173.0590  137.7260 C   0  0  0  0  0  2  0  0  0  0  0  0
  184.0750  173.7840  137.2600 C   0  0  0  0  0  0  0  0  0  0  0  0
  184.0580  175.1190  137.1740 C   0  0  0  0  0  3  0  0  0  0  0  0
  186.9920  174.4390  136.5330 C   0  0  0  0  0  0  0  0  0  0  0  0
  185.2190  176.0080  137.3740 C   0  0  0  0  0  3  0  0  0  0  0  0
  186.5090  175.7200  137.1400 C   0  0  0  0  0  0  0  0  0  0  0  0
  182.8470  173.0150  136.9930 C   0  0  0  0  0  0  0  0  0  0  0  0
  182.7730  171.6760  137.3530 O   0  0  0  0  0  1  0  0  0  0  0  0
  181.8550  173.5610  136.4370 O   0  0  0  0  0  0  0  0  0  0  0  0
  188.1990  176.6000  138.7120 C   0  0  0  0  0  2  0  0  0  0  0  0
  190.5550  177.1500  142.3330 C   0  0  0  0  0  2  0  0  0  0  0  0
  187.6650  177.9520  142.3150 C   0  0  0  0  0  2  0  0  0  0  0  0
  189.7390  177.2480  146.0300 C   0  0  0  0  0  0  0  0  0  0  0  0
  187.6240  177.5200  139.7820 C   0  0  2  0  0  3  0  0  0  0  0  0
  190.4260  177.0810  144.8240 C   0  0  0  0  0  3  0  0  0  0  0  0
  189.7760  177.2980  143.6050 C   0  0  0  0  0  0  0  0  0  0  0  0
  188.6020  178.6560  140.0540 C   0  0  0  0  0  2  0  0  0  0  0  0
  187.7480  177.8850  144.8060 C   0  0  0  0  0  3  0  0  0  0  0  0
  188.4230  177.7110  143.5940 C   0  0  0  0  0  0  0  0  0  0  0  0
  188.4020  177.6560  146.0200 C   0  0  0  0  0  3  0  0  0  0  0  0
  188.4440  177.5440  141.0650 C   0  0  1  0  0  0  0  0  0  0  0  0
  189.6690  176.6380  141.2060 C   0  0  0  0  0  2  0  0  0  0  0  0
  190.4370  177.0090  147.3270 C   0  0  0  0  0  2  0  0  0  0  0  0
  191.8480  176.8060  147.1120 N   0  0  0  0  0  0  0  0  0  0  0  0
  192.2630  175.7320  146.7980 O   0  0  0  0  0  0  0  0  0  0  0  0
  1 19  1  1  0  0  0
  2 10  1  0  0  0  0
  3 13  1  0  0  0  0
  4  8  2  0  0  0  0
  4  6  1  0  0  0  0
  5  4  1  0  0  0  0
  7  3  1  0  0  0  0
  7  8  1  0  0  0  0
  8  1  1  0  0  0  0
  9  5  2  0  0  0  0
  9  7  1  0  0  0  0
 11 10  1  0  0  0  0
 12 11  2  0  0  0  0
 12 14  1  0  0  0  0
 13  2  2  0  0  0  0
 13 15  1  0  0  0  0
 15 14  2  0  0  0  0
 15  1  1  0  0  0  0
 16 11  1  0  0  0  0
 16 17  1  0  0  0  0
 18 16  2  0  0  0  0
 20 25  1  0  0  0  0
 21 28  1  0  0  0  0
 22 32  1  0  0  0  0
 23 19  1  6  0  0  0
 23 26  1  0  0  0  0
 23 30  1  0  0  0  0
 24 22  2  0  0  0  0
 25 24  1  0  0  0  0
 27 29  2  0  0  0  0
 28 25  2  0  0  0  0
 28 27  1  0  0  0  0
 29 22  1  0  0  0  0
 30 26  1  6  0  0  0
 30 31  1  0  0  0  0
 30 21  1  0  0  0  0
 31 20  1  0  0  0  0
 33 32  1  0  0  0  0
 34 33  2  0  0  0  0
M  END
>  <MODEL>
8

>  <REMARK>
 VINA RESULT:      -7.5      4.405      5.974
  Name = 
  5 active torsions:
  status: ('A' for Active; 'I' for Inactive)
    1  A    between atoms: C_1  and  C_9
    2  A    between atoms: C_3  and  C_25
    3  A    between atoms: C_7  and  C_11
    4  A    between atoms: C_8  and  C_9
    5  A    between atoms: C_11  and  N_15
                            x       y       z     vdW  Elec       q    Type
                         _______ _______ _______ _____ _____    ______ ____

>  <TORSDO>
F 5

$$$$
=
 OpenBabel11052415573D

 34 39  0  0  1  0  0  0  0  0999 V2000
  188.0070  176.7370  136.8950 C   0  0  1  0  0  3  0  0  0  0  0  0
  184.9370  174.6030  137.3850 C   0  0  0  0  0  3  0  0  0  0  0  0
  186.9400  173.9970  136.1700 C   0  0  0  0  0  2  0  0  0  0  0  0
  189.8780  175.9130  135.3120 C   0  0  0  0  0  0  0  0  0  0  0  0
  190.0710  174.7460  134.5960 C   0  0  0  0  0  3  0  0  0  0  0  0
  190.7330  177.0080  135.3570 O   0  0  0  0  0  1  0  0  0  0  0  0
  188.1820  174.5690  135.6550 N   0  0  0  0  0  0  0  0  0  0  0  0
  188.6850  175.7720  135.9730 C   0  0  0  0  0  0  0  0  0  0  0  0
  189.0090  173.9400  134.8340 N   0  0  0  0  0  0  0  0  0  0  0  0
  184.0190  175.4750  138.1740 C   0  0  0  0  0  2  0  0  0  0  0  0
  183.4530  176.5730  137.3320 C   0  0  0  0  0  0  0  0  0  0  0  0
  184.2430  177.5140  136.8050 C   0  0  0  0  0  3  0  0  0  0  0  0
  186.0710  175.0350  136.8320 C   0  0  0  0  0  0  0  0  0  0  0  0
  185.7190  177.5230  136.8530 C   0  0  0  0  0  3  0  0  0  0  0  0
  186.5330  176.4580  136.9060 C   0  0  0  0  0  0  0  0  0  0  0  0
  181.9910  176.6670  137.1720 C   0  0  0  0  0  0  0  0  0  0  0  0
  181.3090  177.7770  137.6550 O   0  0  0  0  0  1  0  0  0  0  0  0
  181.3460  175.7480  136.5970 O   0  0  0  0  0  0  0  0  0  0  0  0
  188.5600  176.6140  138.3090 C   0  0  0  0  0  2  0  0  0  0  0  0
  190.2590  177.1840  142.2780 C   0  0  0  0  0  2  0  0  0  0  0  0
  187.4100  177.9670  141.7650 C   0  0  0  0  0  2  0  0  0  0  0  0
  188.8230  177.2800  145.7820 C   0  0  0  0  0  0  0  0  0  0  0  0
  187.8050  177.5320  139.2630 C   0  0  2  0  0  3  0  0  0  0  0  0
  189.7070  177.1170  144.7110 C   0  0  0  0  0  3  0  0  0  0  0  0
  189.2730  177.3280  143.3980 C   0  0  0  0  0  0  0  0  0  0  0  0
  188.7150  178.6740  139.6960 C   0  0  0  0  0  2  0  0  0  0  0  0
  187.0670  177.9030  144.2340 C   0  0  0  0  0  3  0  0  0  0  0  0
  187.9400  177.7320  143.1550 C   0  0  0  0  0  0  0  0  0  0  0  0
  187.5050  177.6790  145.5420 C   0  0  0  0  0  3  0  0  0  0  0  0
  188.3940  177.5620  140.6680 C   0  0  1  0  0  0  0  0  0  0  0  0
  189.5820  176.6650  141.0180 C   0  0  0  0  0  2  0  0  0  0  0  0
  189.2910  177.0470  147.1790 C   0  0  0  0  0  2  0  0  0  0  0  0
  188.8990  178.1400  148.0320 N   0  0  0  0  0  0  0  0  0  0  0  0
  188.1860  177.9480  148.9710 O   0  0  0  0  0  0  0  0  0  0  0  0
  1 15  1  0  0  0  0
  1 19  1  1  0  0  0
  2 10  1  0  0  0  0
  3 13  1  0  0  0  0
  4  6  1  0  0  0  0
  4  8  2  0  0  0  0
  5  9  2  0  0  0  0
  5  4  1  0  0  0  0
  7  8  1  0  0  0  0
  7  3  1  0  0  0  0
  8  1  1  0  0  0  0
  9  7  1  0  0  0  0
 11 10  1  0  0  0  0
 12 14  1  0  0  0  0
 12 11  2  0  0  0  0
 13 15  1  0  0  0  0
 13  2  2  0  0  0  0
 14 15  2  0  0  0  0
 16 11  1  0  0  0  0
 16 17  1  0  0  0  0
 18 16  2  0  0  0  0
 20 25  1  0  0  0  0
 21 28  1  0  0  0  0
 22 32  1  0  0  0  0
 23 19  1  6  0  0  0
 23 26  1  0  0  0  0
 23 30  1  0  0  0  0
 24 22  2  0  0  0  0
 25 24  1  0  0  0  0
 27 29  2  0  0  0  0
 28 25  2  0  0  0  0
 28 27  1  0  0  0  0
 29 22  1  0  0  0  0
 30 26  1  6  0  0  0
 30 31  1  0  0  0  0
 30 21  1  0  0  0  0
 31 20  1  0  0  0  0
 32 33  1  0  0  0  0
 33 34  2  0  0  0  0
M  END
>  <MODEL>
9

>  <REMARK>
 VINA RESULT:      -7.3      4.423      6.300
  Name = 
  5 active torsions:
  status: ('A' for Active; 'I' for Inactive)
    1  A    between atoms: C_1  and  C_9
    2  A    between atoms: C_3  and  C_25
    3  A    between atoms: C_7  and  C_11
    4  A    between atoms: C_8  and  C_9
    5  A    between atoms: C_11  and  N_15
                            x       y       z     vdW  Elec       q    Type
                         _______ _______ _______ _____ _____    ______ ____

>  <TORSDO>
F 5

$$$$
