=
 OpenBabel11052413533D

 27 30  0  0  1  0  0  0  0  0999 V2000
  188.4700  178.0190  142.6430 C   0  0  2  0  0  3  0  0  0  0  0  0
  187.9370  177.8290  141.2130 C   0  0  1  0  0  3  0  0  0  0  0  0
  186.4260  177.8180  137.0070 S   0  0  0  0  0  0  0  0  0  0  0  0
  187.1510  175.1830  136.9360 C   0  0  0  0  0  1  0  0  0  0  0  0
  186.6330  178.5880  141.0080 C   0  0  0  0  0  2  0  0  0  0  0  0
  188.3300  176.6180  138.4310 O   0  0  0  0  0  0  0  0  0  0  0  0
  188.3980  177.9810  138.7300 C   0  0  1  0  0  3  0  0  0  0  0  0
  187.7390  176.5600  137.1590 C   0  0  2  0  0  3  0  0  0  0  0  0
  187.0210  178.5950  138.5180 C   0  0  2  0  0  3  0  0  0  0  0  0
  188.9510  178.2190  140.1350 C   0  0  0  0  0  2  0  0  0  0  0  0
  186.0520  178.2330  139.6470 C   0  0  0  0  0  2  0  0  0  0  0  0
  190.3880  178.4710  144.1440 N   0  0  0  0  0  0  0  0  0  0  0  0
  191.4920  176.4180  143.5430 C   0  0  1  0  0  3  0  0  0  0  0  0
  191.4380  179.4840  144.0590 C   0  0  0  0  0  1  0  0  0  0  0  0
  191.2780  175.0570  143.7570 O   0  0  0  0  0  1  0  0  0  0  0  0
  190.0010  178.1680  142.7660 C   0  0  1  0  0  3  0  0  0  0  0  0
  191.8620  177.4160  145.6960 O   0  0  0  0  0  1  0  0  0  0  0  0
  191.5740  177.1390  141.2870 O   0  0  0  0  0  1  0  0  0  0  0  0
  190.7030  176.8780  142.3430 C   0  0  1  0  0  3  0  0  0  0  0  0
  190.9140  177.2130  144.6850 C   0  0  1  0  0  3  0  0  0  0  0  0
  187.8880  176.9740  143.6080 C   0  0  0  0  0  2  0  0  0  0  0  0
  185.4500  178.6840  146.7040 C   0  0  0  0  0  3  0  0  0  0  0  0
  187.0300  177.5610  144.6840 C   0  0  0  0  0  0  0  0  0  0  0  0
  187.4910  177.5840  146.0050 C   0  0  0  0  0  3  0  0  0  0  0  0
  186.7020  178.1440  147.0130 C   0  0  0  0  0  3  0  0  0  0  0  0
  184.9870  178.6610  145.3840 C   0  0  0  0  0  3  0  0  0  0  0  0
  185.7750  178.1010  144.3760 C   0  0  0  0  0  3  0  0  0  0  0  0
  1 21  1  1  0  0  0
  2  1  1  1  0  0  0
  3  8  1  0  0  0  0
  3  9  1  0  0  0  0
  5  2  1  0  0  0  0
  6  7  1  0  0  0  0
  7 10  1  1  0  0  0
  8  4  1  1  0  0  0
  8  6  1  0  0  0  0
  9  7  1  0  0  0  0
  9 11  1  1  0  0  0
 10  2  1  0  0  0  0
 11  5  1  0  0  0  0
 12 20  1  0  0  0  0
 13 15  1  1  0  0  0
 13 20  1  0  0  0  0
 14 12  1  0  0  0  0
 16  1  1  1  0  0  0
 16 12  1  0  0  0  0
 19 18  1  6  0  0  0
 19 16  1  0  0  0  0
 19 13  1  0  0  0  0
 20 17  1  1  0  0  0
 21 23  1  0  0  0  0
 22 25  1  0  0  0  0
 23 24  1  0  0  0  0
 24 25  2  0  0  0  0
 26 22  2  0  0  0  0
 27 23  2  0  0  0  0
 27 26  1  0  0  0  0
M  END
>  <MODEL>
1

>  <REMARK>
 VINA RESULT:      -8.7      0.000      0.000
  Name = 
  4 active torsions:
  status: ('A' for Active; 'I' for Inactive)
    1  A    between atoms: C_1  and  C_2
    2  A    between atoms: C_1  and  C_15
    3  A    between atoms: C_1  and  C_18
    4  A    between atoms: C_9  and  C_15
                            x       y       z     vdW  Elec       q    Type
                         _______ _______ _______ _____ _____    ______ ____

>  <TORSDO>
F 4

$$$$
=
 OpenBabel11052413533D

 27 30  0  0  1  0  0  0  0  0999 V2000
  188.7030  177.3540  142.3790 C   0  0  2  0  0  3  0  0  0  0  0  0
  188.2460  177.3350  140.9110 C   0  0  1  0  0  3  0  0  0  0  0  0
  187.1640  177.7640  136.5960 S   0  0  0  0  0  0  0  0  0  0  0  0
  186.8230  175.0510  136.5890 C   0  0  0  0  0  1  0  0  0  0  0  0
  187.3520  178.5280  140.5990 C   0  0  0  0  0  2  0  0  0  0  0  0
  188.3490  175.9750  138.1720 O   0  0  0  0  0  0  0  0  0  0  0  0
  188.9130  177.2170  138.4730 C   0  0  1  0  0  3  0  0  0  0  0  0
  187.8770  176.1050  136.8570 C   0  0  2  0  0  3  0  0  0  0  0  0
  187.8970  178.3040  138.1480 C   0  0  2  0  0  3  0  0  0  0  0  0
  189.4090  177.2720  139.9180 C   0  0  0  0  0  2  0  0  0  0  0  0
  186.7820  178.3780  139.1960 C   0  0  0  0  0  2  0  0  0  0  0  0
  190.9770  178.2380  142.8060 N   0  0  0  0  0  0  0  0  0  0  0  0
  191.2440  176.9140  144.7980 C   0  0  1  0  0  3  0  0  0  0  0  0
  192.2240  178.0400  142.0700 C   0  0  0  0  0  1  0  0  0  0  0  0
  190.6990  176.8990  146.0810 O   0  0  0  0  0  1  0  0  0  0  0  0
  190.1910  177.0200  142.6150 C   0  0  1  0  0  3  0  0  0  0  0  0
  192.4090  179.0000  144.5560 O   0  0  0  0  0  1  0  0  0  0  0  0
  190.9770  174.9450  143.5070 O   0  0  0  0  0  1  0  0  0  0  0  0
  190.3560  176.1420  143.8550 C   0  0  1  0  0  3  0  0  0  0  0  0
  191.2260  178.3180  144.2500 C   0  0  1  0  0  3  0  0  0  0  0  0
  187.7550  176.5450  143.2780 C   0  0  0  0  0  2  0  0  0  0  0  0
  185.3930  178.9950  145.9000 C   0  0  0  0  0  3  0  0  0  0  0  0
  186.9230  177.3910  144.1890 C   0  0  0  0  0  0  0  0  0  0  0  0
  187.2700  177.5070  145.5400 C   0  0  0  0  0  3  0  0  0  0  0  0
  186.5060  178.3070  146.3940 C   0  0  0  0  0  3  0  0  0  0  0  0
  185.0430  178.8790  144.5510 C   0  0  0  0  0  3  0  0  0  0  0  0
  185.8070  178.0790  143.6960 C   0  0  0  0  0  3  0  0  0  0  0  0
  1 21  1  1  0  0  0
  2  1  1  1  0  0  0
  3  8  1  0  0  0  0
  3  9  1  0  0  0  0
  5  2  1  0  0  0  0
  6  7  1  0  0  0  0
  7 10  1  1  0  0  0
  8  4  1  1  0  0  0
  8  6  1  0  0  0  0
  9  7  1  0  0  0  0
  9 11  1  1  0  0  0
 10  2  1  0  0  0  0
 11  5  1  0  0  0  0
 12 20  1  0  0  0  0
 13 15  1  1  0  0  0
 14 12  1  0  0  0  0
 16  1  1  1  0  0  0
 16 12  1  0  0  0  0
 16 19  1  0  0  0  0
 19 18  1  6  0  0  0
 19 13  1  0  0  0  0
 20 17  1  6  0  0  0
 20 13  1  0  0  0  0
 21 23  1  0  0  0  0
 22 25  1  0  0  0  0
 23 24  1  0  0  0  0
 24 25  2  0  0  0  0
 26 22  2  0  0  0  0
 27 23  2  0  0  0  0
 27 26  1  0  0  0  0
M  END
>  <MODEL>
2

>  <REMARK>
 VINA RESULT:      -8.2      1.032      1.367
  Name = 
  4 active torsions:
  status: ('A' for Active; 'I' for Inactive)
    1  A    between atoms: C_1  and  C_2
    2  A    between atoms: C_1  and  C_15
    3  A    between atoms: C_1  and  C_18
    4  A    between atoms: C_9  and  C_15
                            x       y       z     vdW  Elec       q    Type
                         _______ _______ _______ _____ _____    ______ ____

>  <TORSDO>
F 4

$$$$
=
 OpenBabel11052413533D

 27 30  0  0  1  0  0  0  0  0999 V2000
  188.4440  177.8220  140.9780 C   0  0  2  0  0  3  0  0  0  0  0  0
  189.1430  177.4300  142.2910 C   0  0  1  0  0  3  0  0  0  0  0  0
  191.6430  176.4120  145.8530 S   0  0  0  0  0  0  0  0  0  0  0  0
  189.3670  176.7460  147.3310 C   0  0  0  0  0  1  0  0  0  0  0  0
  190.1190  176.2820  142.0710 C   0  0  0  0  0  2  0  0  0  0  0  0
  189.5460  177.9490  145.2790 O   0  0  0  0  0  0  0  0  0  0  0  0
  190.5030  178.1820  144.2880 C   0  0  1  0  0  3  0  0  0  0  0  0
  190.2800  177.5010  146.3880 C   0  0  2  0  0  3  0  0  0  0  0  0
  191.3760  176.9420  144.1540 C   0  0  2  0  0  3  0  0  0  0  0  0
  189.8530  178.6040  142.9710 C   0  0  0  0  0  2  0  0  0  0  0  0
  190.6550  175.8100  143.4150 C   0  0  0  0  0  2  0  0  0  0  0  0
  189.8380  176.5360  139.3860 N   0  0  0  0  0  0  0  0  0  0  0  0
  188.6170  177.3530  137.4780 C   0  0  1  0  0  3  0  0  0  0  0  0
  191.2420  176.6970  139.0130 C   0  0  0  0  0  1  0  0  0  0  0  0
  187.3410  177.1770  136.9450 O   0  0  0  0  0  1  0  0  0  0  0  0
  189.3520  177.8720  139.7320 C   0  0  1  0  0  3  0  0  0  0  0  0
  189.7090  175.2150  137.4030 O   0  0  0  0  0  1  0  0  0  0  0  0
  189.2350  179.5680  138.0500 O   0  0  0  0  0  1  0  0  0  0  0  0
  188.5890  178.4310  138.5310 C   0  0  1  0  0  3  0  0  0  0  0  0
  189.0320  176.1160  138.2340 C   0  0  1  0  0  3  0  0  0  0  0  0
  187.5870  179.0860  141.1490 C   0  0  0  0  0  2  0  0  0  0  0  0
  183.5380  178.3090  142.3560 C   0  0  0  0  0  3  0  0  0  0  0  0
  186.1770  178.8060  141.5620 C   0  0  0  0  0  0  0  0  0  0  0  0
  185.8910  178.5020  142.8980 C   0  0  0  0  0  3  0  0  0  0  0  0
  184.5740  178.2550  143.2940 C   0  0  0  0  0  3  0  0  0  0  0  0
  183.8220  178.6110  141.0210 C   0  0  0  0  0  3  0  0  0  0  0  0
  185.1390  178.8590  140.6230 C   0  0  0  0  0  3  0  0  0  0  0  0
  1 21  1  1  0  0  0
  2  1  1  6  0  0  0
  2 10  1  0  0  0  0
  3  8  1  0  0  0  0
  5  2  1  0  0  0  0
  5 11  1  0  0  0  0
  6  8  1  0  0  0  0
  7 10  1  6  0  0  0
  7  6  1  0  0  0  0
  8  4  1  1  0  0  0
  9 11  1  6  0  0  0
  9  7  1  0  0  0  0
  9  3  1  0  0  0  0
 12 16  1  0  0  0  0
 13 15  1  1  0  0  0
 13 20  1  0  0  0  0
 13 19  1  0  0  0  0
 14 12  1  0  0  0  0
 16  1  1  1  0  0  0
 19 18  1  6  0  0  0
 19 16  1  0  0  0  0
 20 17  1  6  0  0  0
 20 12  1  0  0  0  0
 21 23  1  0  0  0  0
 22 25  1  0  0  0  0
 23 24  1  0  0  0  0
 24 25  2  0  0  0  0
 26 22  2  0  0  0  0
 27 26  1  0  0  0  0
 27 23  2  0  0  0  0
M  END
>  <MODEL>
3

>  <REMARK>
 VINA RESULT:      -7.9      2.989      6.058
  Name = 
  4 active torsions:
  status: ('A' for Active; 'I' for Inactive)
    1  A    between atoms: C_1  and  C_2
    2  A    between atoms: C_1  and  C_15
    3  A    between atoms: C_1  and  C_18
    4  A    between atoms: C_9  and  C_15
                            x       y       z     vdW  Elec       q    Type
                         _______ _______ _______ _____ _____    ______ ____

>  <TORSDO>
F 4

$$$$
=
 OpenBabel11052413533D

 27 30  0  0  1  0  0  0  0  0999 V2000
  187.2910  177.6370  143.7840 C   0  0  2  0  0  3  0  0  0  0  0  0
  185.9280  177.8540  143.1030 C   0  0  1  0  0  3  0  0  0  0  0  0
  182.0310  179.0110  141.2460 S   0  0  0  0  0  0  0  0  0  0  0  0
  182.2010  176.6710  139.8430 C   0  0  0  0  0  1  0  0  0  0  0  0
  184.9180  178.4500  144.0740 C   0  0  0  0  0  2  0  0  0  0  0  0
  184.2360  177.6860  140.5590 O   0  0  0  0  0  0  0  0  0  0  0  0
  184.6500  178.8720  141.1720 C   0  0  1  0  0  3  0  0  0  0  0  0
  182.9520  177.9660  140.0680 C   0  0  2  0  0  3  0  0  0  0  0  0
  183.5630  179.3250  142.1370 C   0  0  2  0  0  3  0  0  0  0  0  0
  186.0160  178.7120  141.8380 C   0  0  0  0  0  2  0  0  0  0  0  0
  183.5460  178.4840  143.4170 C   0  0  0  0  0  2  0  0  0  0  0  0
  189.3270  178.3400  142.5620 N   0  0  0  0  0  0  0  0  0  0  0  0
  190.6750  176.6320  143.5930 C   0  0  1  0  0  3  0  0  0  0  0  0
  189.6560  178.2520  141.1410 C   0  0  0  0  0  1  0  0  0  0  0  0
  191.1810  176.3770  144.8660 O   0  0  0  0  0  1  0  0  0  0  0  0
  188.4400  177.2120  142.8460 C   0  0  1  0  0  3  0  0  0  0  0  0
  191.6720  178.6840  142.8410 O   0  0  0  0  0  1  0  0  0  0  0  0
  189.2620  174.9740  142.6580 O   0  0  0  0  0  1  0  0  0  0  0  0
  189.2700  176.0970  143.4830 C   0  0  1  0  0  3  0  0  0  0  0  0
  190.5160  178.1180  143.3920 C   0  0  1  0  0  3  0  0  0  0  0  0
  187.1660  176.7430  145.0270 C   0  0  0  0  0  2  0  0  0  0  0  0
  188.4290  178.6280  148.6750 C   0  0  0  0  0  3  0  0  0  0  0  0
  187.6160  177.4060  146.2910 C   0  0  0  0  0  0  0  0  0  0  0  0
  186.7580  178.2900  146.9560 C   0  0  0  0  0  3  0  0  0  0  0  0
  187.1640  178.9000  148.1450 C   0  0  0  0  0  3  0  0  0  0  0  0
  189.2880  177.7460  148.0130 C   0  0  0  0  0  3  0  0  0  0  0  0
  188.8830  177.1350  146.8230 C   0  0  0  0  0  3  0  0  0  0  0  0
  1 21  1  1  0  0  0
  2  1  1  1  0  0  0
  2  5  1  0  0  0  0
  3  9  1  0  0  0  0
  6  7  1  0  0  0  0
  7 10  1  1  0  0  0
  7  9  1  0  0  0  0
  8  4  1  1  0  0  0
  8  6  1  0  0  0  0
  8  3  1  0  0  0  0
  9 11  1  1  0  0  0
 10  2  1  0  0  0  0
 11  5  1  0  0  0  0
 12 16  1  0  0  0  0
 12 20  1  0  0  0  0
 13 15  1  1  0  0  0
 14 12  1  0  0  0  0
 16 19  1  0  0  0  0
 16  1  1  1  0  0  0
 19 18  1  6  0  0  0
 19 13  1  0  0  0  0
 20 17  1  6  0  0  0
 20 13  1  0  0  0  0
 21 23  1  0  0  0  0
 23 27  2  0  0  0  0
 23 24  1  0  0  0  0
 24 25  2  0  0  0  0
 25 22  1  0  0  0  0
 26 22  2  0  0  0  0
 27 26  1  0  0  0  0
M  END
>  <MODEL>
4

>  <REMARK>
 VINA RESULT:      -7.8      2.542      3.593
  Name = 
  4 active torsions:
  status: ('A' for Active; 'I' for Inactive)
    1  A    between atoms: C_1  and  C_2
    2  A    between atoms: C_1  and  C_15
    3  A    between atoms: C_1  and  C_18
    4  A    between atoms: C_9  and  C_15
                            x       y       z     vdW  Elec       q    Type
                         _______ _______ _______ _____ _____    ______ ____

>  <TORSDO>
F 4

$$$$
=
 OpenBabel11052413533D

 27 30  0  0  1  0  0  0  0  0999 V2000
  189.9830  176.6030  138.6380 C   0  0  2  0  0  3  0  0  0  0  0  0
  191.2200  175.7880  138.2230 C   0  0  1  0  0  3  0  0  0  0  0  0
  194.6680  173.5240  136.5030 S   0  0  0  0  0  0  0  0  0  0  0  0
  195.8660  173.8340  138.9410 C   0  0  0  0  0  1  0  0  0  0  0  0
  190.8260  174.5910  137.3660 C   0  0  0  0  0  2  0  0  0  0  0  0
  194.2620  175.4690  138.2760 O   0  0  0  0  0  0  0  0  0  0  0  0
  193.5090  175.7880  137.1440 C   0  0  1  0  0  3  0  0  0  0  0  0
  195.2940  174.6460  137.7980 C   0  0  2  0  0  3  0  0  0  0  0  0
  193.1580  174.4990  136.4130 C   0  0  2  0  0  3  0  0  0  0  0  0
  192.2820  176.6250  137.5060 C   0  0  0  0  0  2  0  0  0  0  0  0
  192.0500  173.7190  137.1270 C   0  0  0  0  0  2  0  0  0  0  0  0
  188.2260  176.3590  136.9090 N   0  0  0  0  0  0  0  0  0  0  0  0
  187.0180  178.2840  137.7000 C   0  0  1  0  0  3  0  0  0  0  0  0
  188.2910  176.5420  135.4610 C   0  0  0  0  0  1  0  0  0  0  0  0
  186.2650  178.6110  138.8270 O   0  0  0  0  0  1  0  0  0  0  0  0
  189.2130  177.2740  137.4810 C   0  0  1  0  0  3  0  0  0  0  0  0
  185.8670  176.4970  136.5830 O   0  0  0  0  0  1  0  0  0  0  0  0
  188.9140  179.6370  137.2590 O   0  0  0  0  0  1  0  0  0  0  0  0
  188.4810  178.5220  137.9740 C   0  0  1  0  0  3  0  0  0  0  0  0
  186.9320  176.8030  137.4380 C   0  0  1  0  0  3  0  0  0  0  0  0
  190.3020  177.5690  139.7890 C   0  0  0  0  0  2  0  0  0  0  0  0
  188.5600  176.3850  143.5320 C   0  0  0  0  0  3  0  0  0  0  0  0
  189.7050  177.1620  141.0990 C   0  0  0  0  0  0  0  0  0  0  0  0
  188.4450  177.6460  141.4680 C   0  0  0  0  0  3  0  0  0  0  0  0
  187.8730  177.2580  142.6830 C   0  0  0  0  0  3  0  0  0  0  0  0
  189.8200  175.9010  143.1660 C   0  0  0  0  0  3  0  0  0  0  0  0
  190.3920  176.2880  141.9510 C   0  0  0  0  0  3  0  0  0  0  0  0
  1 21  1  1  0  0  0
  2  1  1  6  0  0  0
  3  8  1  0  0  0  0
  5  2  1  0  0  0  0
  7 10  1  1  0  0  0
  7  6  1  0  0  0  0
  8  6  1  0  0  0  0
  8  4  1  1  0  0  0
  9  3  1  0  0  0  0
  9 11  1  1  0  0  0
  9  7  1  0  0  0  0
 10  2  1  0  0  0  0
 11  5  1  0  0  0  0
 12 20  1  0  0  0  0
 12 16  1  0  0  0  0
 13 19  1  0  0  0  0
 13 15  1  1  0  0  0
 14 12  1  0  0  0  0
 16 19  1  0  0  0  0
 16  1  1  1  0  0  0
 19 18  1  6  0  0  0
 20 17  1  6  0  0  0
 20 13  1  0  0  0  0
 21 23  1  0  0  0  0
 23 24  2  0  0  0  0
 23 27  1  0  0  0  0
 24 25  1  0  0  0  0
 25 22  2  0  0  0  0
 26 22  1  0  0  0  0
 27 26  2  0  0  0  0
M  END
>  <MODEL>
5

>  <REMARK>
 VINA RESULT:      -7.7      4.088      6.818
  Name = 
  4 active torsions:
  status: ('A' for Active; 'I' for Inactive)
    1  A    between atoms: C_1  and  C_2
    2  A    between atoms: C_1  and  C_15
    3  A    between atoms: C_1  and  C_18
    4  A    between atoms: C_9  and  C_15
                            x       y       z     vdW  Elec       q    Type
                         _______ _______ _______ _____ _____    ______ ____

>  <TORSDO>
F 4

$$$$
=
 OpenBabel11052413533D

 27 30  0  0  1  0  0  0  0  0999 V2000
  188.9860  177.9040  141.6380 C   0  0  2  0  0  3  0  0  0  0  0  0
  187.8010  178.2290  142.5640 C   0  0  1  0  0  3  0  0  0  0  0  0
  184.0510  178.8850  144.9070 S   0  0  0  0  0  0  0  0  0  0  0  0
  185.6810  179.4360  147.0320 C   0  0  0  0  0  1  0  0  0  0  0  0
  186.7150  178.9950  141.8190 C   0  0  0  0  0  2  0  0  0  0  0  0
  186.5230  177.9900  145.3340 O   0  0  0  0  0  0  0  0  0  0  0  0
  186.0570  177.3590  144.1780 C   0  0  1  0  0  3  0  0  0  0  0  0
  185.3640  178.3300  146.0470 C   0  0  2  0  0  3  0  0  0  0  0  0
  185.0130  178.2530  143.5220 C   0  0  2  0  0  3  0  0  0  0  0  0
  187.2060  176.9900  143.2390 C   0  0  0  0  0  2  0  0  0  0  0  0
  185.6490  179.4470  142.8060 C   0  0  0  0  0  2  0  0  0  0  0  0
  190.2850  178.3810  143.6930 N   0  0  0  0  0  0  0  0  0  0  0  0
  191.5890  176.3690  143.4740 C   0  0  1  0  0  3  0  0  0  0  0  0
  191.2710  179.4230  143.9690 C   0  0  0  0  0  1  0  0  0  0  0  0
  191.3590  174.9990  143.5940 O   0  0  0  0  0  1  0  0  0  0  0  0
  190.3840  178.0920  142.2620 C   0  0  1  0  0  3  0  0  0  0  0  0
  191.1950  177.3370  145.6360 O   0  0  0  0  0  1  0  0  0  0  0  0
  192.3890  177.1340  141.3780 O   0  0  0  0  0  1  0  0  0  0  0  0
  191.2270  176.8300  142.0840 C   0  0  1  0  0  3  0  0  0  0  0  0
  190.6410  177.1270  144.3670 C   0  0  1  0  0  3  0  0  0  0  0  0
  188.8390  178.5880  140.2710 C   0  0  0  0  0  2  0  0  0  0  0  0
  188.5590  175.8640  136.9610 C   0  0  0  0  0  3  0  0  0  0  0  0
  188.7430  177.6300  139.1260 C   0  0  0  0  0  0  0  0  0  0  0  0
  187.5770  177.5860  138.3530 C   0  0  0  0  0  3  0  0  0  0  0  0
  187.4860  176.7040  137.2720 C   0  0  0  0  0  3  0  0  0  0  0  0
  189.7240  175.9050  137.7330 C   0  0  0  0  0  3  0  0  0  0  0  0
  189.8170  176.7860  138.8140 C   0  0  0  0  0  3  0  0  0  0  0  0
  1 21  1  6  0  0  0
  2  1  1  6  0  0  0
  2 10  1  0  0  0  0
  3  8  1  0  0  0  0
  5  2  1  0  0  0  0
  5 11  1  0  0  0  0
  6  8  1  0  0  0  0
  7 10  1  6  0  0  0
  7  6  1  0  0  0  0
  8  4  1  1  0  0  0
  9 11  1  1  0  0  0
  9  7  1  0  0  0  0
  9  3  1  0  0  0  0
 12 14  1  0  0  0  0
 12 20  1  0  0  0  0
 13 15  1  6  0  0  0
 13 20  1  0  0  0  0
 16  1  1  1  0  0  0
 16 12  1  0  0  0  0
 19 18  1  6  0  0  0
 19 16  1  0  0  0  0
 19 13  1  0  0  0  0
 20 17  1  1  0  0  0
 22 25  2  0  0  0  0
 22 26  1  0  0  0  0
 23 21  1  0  0  0  0
 24 23  2  0  0  0  0
 25 24  1  0  0  0  0
 26 27  2  0  0  0  0
 27 23  1  0  0  0  0
M  END
>  <MODEL>
6

>  <REMARK>
 VINA RESULT:      -7.7      2.128      5.721
  Name = 
  4 active torsions:
  status: ('A' for Active; 'I' for Inactive)
    1  A    between atoms: C_1  and  C_2
    2  A    between atoms: C_1  and  C_15
    3  A    between atoms: C_1  and  C_18
    4  A    between atoms: C_9  and  C_15
                            x       y       z     vdW  Elec       q    Type
                         _______ _______ _______ _____ _____    ______ ____

>  <TORSDO>
F 4

$$$$
=
 OpenBabel11052413533D

 27 30  0  0  1  0  0  0  0  0999 V2000
  182.3130  178.0070  141.3750 C   0  0  2  0  0  3  0  0  0  0  0  0
  182.4870  177.5220  139.9250 C   0  0  1  0  0  3  0  0  0  0  0  0
  183.4950  175.9690  135.8570 S   0  0  0  0  0  0  0  0  0  0  0  0
  180.7980  175.7980  135.4430 C   0  0  0  0  0  1  0  0  0  0  0  0
  183.6330  178.2520  139.2360 C   0  0  0  0  0  2  0  0  0  0  0  0
  181.5880  175.6400  137.6870 O   0  0  0  0  0  0  0  0  0  0  0  0
  182.8120  175.5630  138.3570 C   0  0  1  0  0  3  0  0  0  0  0  0
  181.8830  175.2800  136.3630 C   0  0  2  0  0  3  0  0  0  0  0  0
  183.8450  176.3650  137.5780 C   0  0  2  0  0  3  0  0  0  0  0  0
  182.6800  176.0080  139.8140 C   0  0  0  0  0  2  0  0  0  0  0  0
  183.6570  177.8740  137.7620 C   0  0  0  0  0  2  0  0  0  0  0  0
  180.7520  179.8640  141.8720 N   0  0  0  0  0  0  0  0  0  0  0  0
  179.1760  179.1400  140.2030 C   0  0  1  0  0  3  0  0  0  0  0  0
  179.9340  180.1220  143.0550 C   0  0  0  0  0  1  0  0  0  0  0  0
  179.1290  179.0940  138.8110 O   0  0  0  0  0  1  0  0  0  0  0  0
  180.8780  178.4100  141.7710 C   0  0  1  0  0  3  0  0  0  0  0  0
  179.3160  181.4550  140.8230 O   0  0  0  0  0  1  0  0  0  0  0  0
  178.9400  177.0750  141.3440 O   0  0  0  0  0  1  0  0  0  0  0  0
  179.8720  177.9120  140.7330 C   0  0  1  0  0  3  0  0  0  0  0  0
  180.0550  180.2790  140.6490 C   0  0  1  0  0  3  0  0  0  0  0  0
  183.3610  179.0660  141.7470 C   0  0  0  0  0  2  0  0  0  0  0  0
  185.4640  178.2530  145.4030 C   0  0  0  0  0  3  0  0  0  0  0  0
  184.0850  178.7750  143.0240 C   0  0  0  0  0  0  0  0  0  0  0  0
  185.3730  178.2290  142.9830 C   0  0  0  0  0  3  0  0  0  0  0  0
  186.0610  177.9680  144.1710 C   0  0  0  0  0  3  0  0  0  0  0  0
  184.1770  178.7970  145.4460 C   0  0  0  0  0  3  0  0  0  0  0  0
  183.4880  179.0580  144.2580 C   0  0  0  0  0  3  0  0  0  0  0  0
  1 21  1  6  0  0  0
  2  1  1  1  0  0  0
  3  8  1  0  0  0  0
  3  9  1  0  0  0  0
  5  2  1  0  0  0  0
  6  7  1  0  0  0  0
  7 10  1  1  0  0  0
  8  4  1  6  0  0  0
  8  6  1  0  0  0  0
  9 11  1  6  0  0  0
  9  7  1  0  0  0  0
 10  2  1  0  0  0  0
 11  5  1  0  0  0  0
 12 14  1  0  0  0  0
 13 15  1  6  0  0  0
 13 20  1  0  0  0  0
 13 19  1  0  0  0  0
 16  1  1  6  0  0  0
 16 12  1  0  0  0  0
 19 18  1  1  0  0  0
 19 16  1  0  0  0  0
 20 17  1  1  0  0  0
 20 12  1  0  0  0  0
 21 23  1  0  0  0  0
 22 26  1  0  0  0  0
 23 27  1  0  0  0  0
 24 23  2  0  0  0  0
 24 25  1  0  0  0  0
 25 22  2  0  0  0  0
 27 26  2  0  0  0  0
M  END
>  <MODEL>
7

>  <REMARK>
 VINA RESULT:      -7.2      5.584      7.937
  Name = 
  4 active torsions:
  status: ('A' for Active; 'I' for Inactive)
    1  A    between atoms: C_1  and  C_2
    2  A    between atoms: C_1  and  C_15
    3  A    between atoms: C_1  and  C_18
    4  A    between atoms: C_9  and  C_15
                            x       y       z     vdW  Elec       q    Type
                         _______ _______ _______ _____ _____    ______ ____

>  <TORSDO>
F 4

$$$$
=
 OpenBabel11052413533D

 27 30  0  0  1  0  0  0  0  0999 V2000
  188.3030  177.6610  142.1990 C   0  0  2  0  0  3  0  0  0  0  0  0
  186.8070  177.9010  142.4630 C   0  0  1  0  0  3  0  0  0  0  0  0
  182.6130  179.0330  143.5150 S   0  0  0  0  0  0  0  0  0  0  0  0
  181.8490  177.5180  141.3710 C   0  0  0  0  0  1  0  0  0  0  0  0
  186.5020  177.8780  143.9550 C   0  0  0  0  0  2  0  0  0  0  0  0
  184.0270  178.4870  141.3260 O   0  0  0  0  0  0  0  0  0  0  0  0
  184.7870  179.3780  142.0880 C   0  0  1  0  0  3  0  0  0  0  0  0
  182.7010  178.7200  141.7200 C   0  0  2  0  0  3  0  0  0  0  0  0
  184.4040  179.2150  143.5520 C   0  0  2  0  0  3  0  0  0  0  0  0
  186.2840  179.1950  141.8350 C   0  0  0  0  0  2  0  0  0  0  0  0
  184.9950  177.9410  144.1620 C   0  0  0  0  0  2  0  0  0  0  0  0
  189.5910  176.5660  144.0090 N   0  0  0  0  0  0  0  0  0  0  0  0
  191.6460  177.6340  143.3510 C   0  0  1  0  0  3  0  0  0  0  0  0
  189.5350  176.7530  145.4580 C   0  0  0  0  0  1  0  0  0  0  0  0
  192.5310  177.5450  142.2780 O   0  0  0  0  0  1  0  0  0  0  0  0
  189.2300  177.8540  143.4170 C   0  0  1  0  0  3  0  0  0  0  0  0
  191.6800  175.5080  144.4660 O   0  0  0  0  0  1  0  0  0  0  0  0
  190.6520  179.7510  143.7360 O   0  0  0  0  0  1  0  0  0  0  0  0
  190.5160  178.5710  143.0070 C   0  0  1  0  0  3  0  0  0  0  0  0
  190.9660  176.3060  143.5650 C   0  0  1  0  0  3  0  0  0  0  0  0
  188.7860  178.4140  140.9500 C   0  0  0  0  0  2  0  0  0  0  0  0
  189.6360  175.8800  137.5870 C   0  0  0  0  0  3  0  0  0  0  0  0
  189.0820  177.5210  139.7860 C   0  0  0  0  0  0  0  0  0  0  0  0
  188.1490  177.3960  138.7510 C   0  0  0  0  0  3  0  0  0  0  0  0
  188.4250  176.5760  137.6530 C   0  0  0  0  0  3  0  0  0  0  0  0
  190.5690  176.0030  138.6210 C   0  0  0  0  0  3  0  0  0  0  0  0
  190.2940  176.8220  139.7190 C   0  0  0  0  0  3  0  0  0  0  0  0
  1 21  1  6  0  0  0
  2  1  1  1  0  0  0
  2  5  1  0  0  0  0
  3  9  1  0  0  0  0
  5 11  1  0  0  0  0
  6  8  1  0  0  0  0
  6  7  1  0  0  0  0
  7 10  1  1  0  0  0
  7  9  1  0  0  0  0
  8  4  1  1  0  0  0
  8  3  1  0  0  0  0
  9 11  1  6  0  0  0
 10  2  1  0  0  0  0
 12 14  1  0  0  0  0
 13 15  1  6  0  0  0
 13 20  1  0  0  0  0
 16  1  1  6  0  0  0
 16 12  1  0  0  0  0
 19 13  1  0  0  0  0
 19 16  1  0  0  0  0
 19 18  1  1  0  0  0
 20 12  1  0  0  0  0
 20 17  1  1  0  0  0
 22 25  2  0  0  0  0
 22 26  1  0  0  0  0
 23 21  1  0  0  0  0
 24 23  2  0  0  0  0
 25 24  1  0  0  0  0
 26 27  2  0  0  0  0
 27 23  1  0  0  0  0
M  END
>  <MODEL>
8

>  <REMARK>
 VINA RESULT:      -7.1      2.608      5.345
  Name = 
  4 active torsions:
  status: ('A' for Active; 'I' for Inactive)
    1  A    between atoms: C_1  and  C_2
    2  A    between atoms: C_1  and  C_15
    3  A    between atoms: C_1  and  C_18
    4  A    between atoms: C_9  and  C_15
                            x       y       z     vdW  Elec       q    Type
                         _______ _______ _______ _____ _____    ______ ____

>  <TORSDO>
F 4

$$$$
=
 OpenBabel11052413533D

 27 30  0  0  1  0  0  0  0  0999 V2000
  188.8900  177.7810  142.0450 C   0  0  2  0  0  3  0  0  0  0  0  0
  187.3690  177.9100  141.8560 C   0  0  1  0  0  3  0  0  0  0  0  0
  182.9640  178.6540  141.7070 S   0  0  0  0  0  0  0  0  0  0  0  0
  183.0490  177.6170  139.1790 C   0  0  0  0  0  1  0  0  0  0  0  0
  186.6240  177.5550  143.1360 C   0  0  0  0  0  2  0  0  0  0  0  0
  185.0290  178.6410  140.0250 O   0  0  0  0  0  0  0  0  0  0  0  0
  185.4260  179.3690  141.1490 C   0  0  1  0  0  3  0  0  0  0  0  0
  183.6290  178.7410  140.0100 C   0  0  2  0  0  3  0  0  0  0  0  0
  184.6290  178.8810  142.3520 C   0  0  2  0  0  3  0  0  0  0  0  0
  186.9380  179.2930  141.3600 C   0  0  0  0  0  2  0  0  0  0  0  0
  185.1280  177.5240  142.8570 C   0  0  0  0  0  2  0  0  0  0  0  0
  190.6630  176.9030  140.5560 N   0  0  0  0  0  0  0  0  0  0  0  0
  189.2560  177.0390  138.6080 C   0  0  1  0  0  3  0  0  0  0  0  0
  191.9270  177.5020  140.1330 C   0  0  0  0  0  1  0  0  0  0  0  0
  188.1280  176.3750  138.1290 O   0  0  0  0  0  1  0  0  0  0  0  0
  189.7370  178.0140  140.7780 C   0  0  1  0  0  3  0  0  0  0  0  0
  191.0260  175.4200  138.7220 O   0  0  0  0  0  1  0  0  0  0  0  0
  189.0540  179.3780  138.9360 O   0  0  0  0  0  1  0  0  0  0  0  0
  188.8410  178.1440  139.5470 C   0  0  1  0  0  3  0  0  0  0  0  0
  190.0680  176.1110  139.4740 C   0  0  1  0  0  3  0  0  0  0  0  0
  189.2600  176.4890  142.7880 C   0  0  0  0  0  2  0  0  0  0  0  0
  190.8300  177.1260  146.7360 C   0  0  0  0  0  3  0  0  0  0  0  0
  189.8140  176.7200  144.1590 C   0  0  0  0  0  0  0  0  0  0  0  0
  188.9650  177.1350  145.1910 C   0  0  0  0  0  3  0  0  0  0  0  0
  189.4720  177.3370  146.4770 C   0  0  0  0  0  3  0  0  0  0  0  0
  191.6800  176.7130  145.7060 C   0  0  0  0  0  3  0  0  0  0  0  0
  191.1740  176.5100  144.4190 C   0  0  0  0  0  3  0  0  0  0  0  0
  1 21  1  6  0  0  0
  2  1  1  1  0  0  0
  2  5  1  0  0  0  0
  3  9  1  0  0  0  0
  6  7  1  0  0  0  0
  7 10  1  1  0  0  0
  7  9  1  0  0  0  0
  8  4  1  6  0  0  0
  8  6  1  0  0  0  0
  8  3  1  0  0  0  0
  9 11  1  6  0  0  0
 10  2  1  0  0  0  0
 11  5  1  0  0  0  0
 12 16  1  0  0  0  0
 13 15  1  1  0  0  0
 13 20  1  0  0  0  0
 13 19  1  0  0  0  0
 14 12  1  0  0  0  0
 16  1  1  1  0  0  0
 19 18  1  6  0  0  0
 19 16  1  0  0  0  0
 20 17  1  6  0  0  0
 20 12  1  0  0  0  0
 21 23  1  0  0  0  0
 23 27  2  0  0  0  0
 23 24  1  0  0  0  0
 24 25  2  0  0  0  0
 25 22  1  0  0  0  0
 26 22  2  0  0  0  0
 27 26  1  0  0  0  0
M  END
>  <MODEL>
9

>  <REMARK>
 VINA RESULT:      -7.0      2.874      4.437
  Name = 
  4 active torsions:
  status: ('A' for Active; 'I' for Inactive)
    1  A    between atoms: C_1  and  C_2
    2  A    between atoms: C_1  and  C_15
    3  A    between atoms: C_1  and  C_18
    4  A    between atoms: C_9  and  C_15
                            x       y       z     vdW  Elec       q    Type
                         _______ _______ _______ _____ _____    ______ ____

>  <TORSDO>
F 4

$$$$
