=
 OpenBabel11052413273D

 28 31  0  0  1  0  0  0  0  0999 V2000
  187.5560  177.6140  144.0720 C   0  0  0  0  0  2  0  0  0  0  0  0
  188.3140  178.4880  143.0710 C   0  0  2  0  0  3  0  0  0  0  0  0
  186.2110  178.8450  141.7250 C   0  0  1  0  0  3  0  0  0  0  0  0
  181.9390  178.5700  141.2460 C   0  0  0  0  0  2  0  0  0  0  0  0
  187.6790  178.4210  141.6780 C   0  0  0  0  0  2  0  0  0  0  0  0
  183.7300  178.5050  138.8660 C   0  0  0  0  0  2  0  0  0  0  0  0
  183.9180  178.3380  142.7660 C   0  0  1  0  0  3  0  0  0  0  0  0
  181.5380  179.6760  139.0020 C   0  0  2  0  0  3  0  0  0  0  0  0
  183.4210  178.8700  141.4210 C   0  0  1  0  0  3  0  0  0  0  0  0
  185.6580  178.8070  140.3580 N   0  0  0  0  0  2  0  0  0  0  0  0
  183.0170  179.8380  138.6770 C   0  0  0  0  0  2  0  0  0  0  0  0
  185.4840  178.4260  145.2250 C   0  0  0  0  0  0  0  0  0  0  0  0
  185.4240  177.9860  142.7420 C   0  0  2  0  0  3  0  0  0  0  0  0
  184.2830  178.3010  140.2810 C   0  0  2  0  0  3  0  0  0  0  0  0
  184.0110  178.7340  145.1950 C   0  0  0  0  0  2  0  0  0  0  0  0
  180.7590  180.7890  138.3340 C   0  0  0  0  0  1  0  0  0  0  0  0
  181.2730  179.7230  140.5050 C   0  0  0  0  0  2  0  0  0  0  0  0
  183.5980  179.3370  143.8650 C   0  0  0  0  0  2  0  0  0  0  0  0
  186.1120  178.0170  144.0950 C   0  0  0  0  0  0  0  0  0  0  0  0
  185.8250  179.4500  147.3390 O   0  0  0  0  0  0  0  0  0  0  0  0
  186.1490  178.5210  146.5520 C   0  0  0  0  0  0  0  0  0  0  0  0
  187.2630  177.6130  146.9630 C   0  0  0  0  0  2  0  0  0  0  0  0
  187.9980  178.2010  148.1510 C   0  0  0  0  0  1  0  0  0  0  0  0
  189.8030  178.1430  143.0380 C   0  0  0  0  0  2  0  0  0  0  0  0
  190.5400  178.5010  144.3280 C   0  0  0  0  0  2  0  0  0  0  0  0
  191.4390  177.3670  144.7930 C   0  0  0  0  0  3  0  0  0  0  0  0
  190.9700  176.8450  146.1390 C   0  0  0  0  0  1  0  0  0  0  0  0
  191.3930  176.2430  143.7800 C   0  0  0  0  0  1  0  0  0  0  0  0
  1 19  1  0  0  0  0
  2 24  1  6  0  0  0
  2  1  1  0  0  0  0
  3  5  1  6  0  0  0
  3 13  1  0  0  0  0
  5  2  1  0  0  0  0
  7 18  1  1  0  0  0
  8 16  1  6  0  0  0
  8 17  1  0  0  0  0
  9  4  1  6  0  0  0
  9  7  1  0  0  0  0
 10  3  1  0  0  0  0
 11  6  1  0  0  0  0
 11  8  1  0  0  0  0
 12 21  1  0  0  0  0
 13  7  1  0  0  0  0
 13 19  1  1  0  0  0
 14  6  1  6  0  0  0
 14 10  1  0  0  0  0
 14  9  1  0  0  0  0
 15 12  1  0  0  0  0
 17  4  1  0  0  0  0
 18 15  1  0  0  0  0
 19 12  2  0  0  0  0
 21 22  1  0  0  0  0
 21 20  2  0  0  0  0
 22 23  1  0  0  0  0
 24 25  1  0  0  0  0
 25 26  1  0  0  0  0
 26 27  1  0  0  0  0
 28 26  1  0  0  0  0
M  END
>  <MODEL>
1

>  <REMARK>
 VINA RESULT:      -9.6      0.000      0.000
  Name = 
  5 active torsions:
  status: ('A' for Active; 'I' for Inactive)
    1  A    between atoms: C_2  and  C_8
    2  A    between atoms: C_6  and  C_11
    3  A    between atoms: C_8  and  C_11
    4  A    between atoms: C_16  and  C_21
    5  A    between atoms: C_19  and  C_21
                            x       y       z     vdW  Elec       q    Type
                         _______ _______ _______ _____ _____    ______ ____

>  <TORSDO>
F 5

$$$$
=
 OpenBabel11052413273D

 28 31  0  0  1  0  0  0  0  0999 V2000
  188.0740  178.2580  145.1990 C   0  0  0  0  0  2  0  0  0  0  0  0
  186.9250  177.5500  144.4780 C   0  0  2  0  0  3  0  0  0  0  0  0
  188.3270  177.2970  142.3970 C   0  0  1  0  0  3  0  0  0  0  0  0
  192.1100  177.4790  140.3450 C   0  0  0  0  0  2  0  0  0  0  0  0
  186.9910  177.7760  142.9650 C   0  0  0  0  0  2  0  0  0  0  0  0
  189.5660  177.9180  138.8590 C   0  0  0  0  0  2  0  0  0  0  0  0
  190.8770  177.5810  142.5240 C   0  0  1  0  0  3  0  0  0  0  0  0
  191.5420  176.6610  138.0160 C   0  0  2  0  0  3  0  0  0  0  0  0
  190.7840  177.2120  141.0430 C   0  0  1  0  0  3  0  0  0  0  0  0
  188.3250  177.4930  140.9350 N   0  0  0  0  0  2  0  0  0  0  0  0
  190.0420  176.5960  138.2690 C   0  0  0  0  0  2  0  0  0  0  0  0
  190.3530  177.2290  145.3720 C   0  0  0  0  0  0  0  0  0  0  0  0
  189.5080  177.9870  143.1190 C   0  0  2  0  0  3  0  0  0  0  0  0
  189.6060  177.9550  140.3900 C   0  0  2  0  0  3  0  0  0  0  0  0
  191.6750  176.8750  144.7460 C   0  0  0  0  0  2  0  0  0  0  0  0
  191.9160  175.6180  136.9840 C   0  0  0  0  0  1  0  0  0  0  0  0
  192.3490  176.4090  139.2870 C   0  0  0  0  0  2  0  0  0  0  0  0
  191.5030  176.4360  143.3030 C   0  0  0  0  0  2  0  0  0  0  0  0
  189.3810  177.8040  144.6220 C   0  0  0  0  0  0  0  0  0  0  0  0
  191.2760  176.8250  147.5210 O   0  0  0  0  0  0  0  0  0  0  0  0
  190.2310  176.9850  146.8350 C   0  0  0  0  0  0  0  0  0  0  0  0
  188.9130  176.8260  147.5190 C   0  0  0  0  0  2  0  0  0  0  0  0
  188.7070  177.9500  148.5150 C   0  0  0  0  0  1  0  0  0  0  0  0
  185.5670  177.9500  145.0570 C   0  0  0  0  0  2  0  0  0  0  0  0
  184.8300  178.9930  144.2180 C   0  0  0  0  0  2  0  0  0  0  0  0
  183.5970  178.4050  143.5510 C   0  0  0  0  0  3  0  0  0  0  0  0
  182.3390  179.0120  144.1460 C   0  0  0  0  0  1  0  0  0  0  0  0
  183.6400  178.7030  142.0670 C   0  0  0  0  0  1  0  0  0  0  0  0
  2 24  1  1  0  0  0
  2  1  1  0  0  0  0
  3  5  1  1  0  0  0
  3 13  1  0  0  0  0
  5  2  1  0  0  0  0
  7 13  1  0  0  0  0
  7 18  1  1  0  0  0
  8 16  1  6  0  0  0
  8 11  1  0  0  0  0
  8 17  1  0  0  0  0
  9  4  1  6  0  0  0
  9  7  1  0  0  0  0
 10  3  1  0  0  0  0
 11  6  1  0  0  0  0
 12 21  1  0  0  0  0
 13 19  1  1  0  0  0
 14  6  1  6  0  0  0
 14 10  1  0  0  0  0
 14  9  1  0  0  0  0
 15 12  1  0  0  0  0
 17  4  1  0  0  0  0
 18 15  1  0  0  0  0
 19  1  1  0  0  0  0
 19 12  2  0  0  0  0
 21 22  1  0  0  0  0
 21 20  2  0  0  0  0
 22 23  1  0  0  0  0
 25 24  1  0  0  0  0
 26 27  1  0  0  0  0
 26 25  1  0  0  0  0
 28 26  1  0  0  0  0
M  END
>  <MODEL>
2

>  <REMARK>
 VINA RESULT:      -9.0      2.817      6.752
  Name = 
  5 active torsions:
  status: ('A' for Active; 'I' for Inactive)
    1  A    between atoms: C_2  and  C_8
    2  A    between atoms: C_6  and  C_11
    3  A    between atoms: C_8  and  C_11
    4  A    between atoms: C_16  and  C_21
    5  A    between atoms: C_19  and  C_21
                            x       y       z     vdW  Elec       q    Type
                         _______ _______ _______ _____ _____    ______ ____

>  <TORSDO>
F 5

$$$$
=
 OpenBabel11052413273D

 28 31  0  0  1  0  0  0  0  0999 V2000
  186.3440  178.8570  140.9470 C   0  0  0  0  0  2  0  0  0  0  0  0
  187.2190  177.8560  140.1900 C   0  0  2  0  0  3  0  0  0  0  0  0
  188.6320  177.4690  142.2430 C   0  0  1  0  0  3  0  0  0  0  0  0
  189.3520  177.8940  146.4690 C   0  0  0  0  0  2  0  0  0  0  0  0
  188.6420  177.8190  140.7550 C   0  0  0  0  0  2  0  0  0  0  0  0
  191.6320  177.6470  144.5680 C   0  0  0  0  0  2  0  0  0  0  0  0
  187.7610  178.1790  144.5530 C   0  0  1  0  0  3  0  0  0  0  0  0
  191.4990  176.5970  146.8210 C   0  0  2  0  0  3  0  0  0  0  0  0
  189.0740  177.5440  145.0140 C   0  0  1  0  0  3  0  0  0  0  0  0
  190.0230  177.4010  142.7290 N   0  0  0  0  0  2  0  0  0  0  0  0
  191.7310  176.3370  145.3380 C   0  0  0  0  0  2  0  0  0  0  0  0
  185.2270  178.2550  143.1100 C   0  0  0  0  0  0  0  0  0  0  0  0
  187.7410  178.4570  143.0310 C   0  0  2  0  0  3  0  0  0  0  0  0
  190.2170  177.9610  144.0720 C   0  0  2  0  0  3  0  0  0  0  0  0
  185.3040  178.0140  144.5930 C   0  0  0  0  0  2  0  0  0  0  0  0
  192.1000  175.4620  147.6230 C   0  0  0  0  0  1  0  0  0  0  0  0
  190.0140  176.7070  147.1570 C   0  0  0  0  0  2  0  0  0  0  0  0
  186.5910  177.3060  144.9730 C   0  0  0  0  0  2  0  0  0  0  0  0
  186.3570  178.5250  142.4090 C   0  0  0  0  0  0  0  0  0  0  0  0
  183.6830  177.7110  141.3910 O   0  0  0  0  0  0  0  0  0  0  0  0
  183.8650  178.2570  142.5120 C   0  0  0  0  0  0  0  0  0  0  0  0
  182.7100  178.9670  143.1410 C   0  0  0  0  0  2  0  0  0  0  0  0
  181.5030  178.9020  142.2270 C   0  0  0  0  0  1  0  0  0  0  0  0
  187.2080  178.1280  138.6850 C   0  0  0  0  0  2  0  0  0  0  0  0
  187.8660  177.0210  137.8610 C   0  0  0  0  0  2  0  0  0  0  0  0
  188.9930  177.5610  136.9960 C   0  0  0  0  0  3  0  0  0  0  0  0
  189.0430  179.0750  137.0830 C   0  0  0  0  0  1  0  0  0  0  0  0
  190.3110  176.9910  137.4780 C   0  0  0  0  0  1  0  0  0  0  0  0
  1 19  1  0  0  0  0
  2 24  1  6  0  0  0
  2  5  1  0  0  0  0
  2  1  1  0  0  0  0
  3  5  1  6  0  0  0
  3 10  1  0  0  0  0
  3 13  1  0  0  0  0
  4 17  1  0  0  0  0
  6 11  1  0  0  0  0
  7 18  1  6  0  0  0
  7  9  1  0  0  0  0
  8 17  1  0  0  0  0
  8 16  1  1  0  0  0
  9  4  1  1  0  0  0
 10 14  1  0  0  0  0
 11  8  1  0  0  0  0
 12 15  1  0  0  0  0
 13 19  1  6  0  0  0
 13  7  1  0  0  0  0
 14  6  1  1  0  0  0
 14  9  1  0  0  0  0
 15 18  1  0  0  0  0
 19 12  2  0  0  0  0
 20 21  2  0  0  0  0
 21 12  1  0  0  0  0
 21 22  1  0  0  0  0
 23 22  1  0  0  0  0
 25 24  1  0  0  0  0
 26 27  1  0  0  0  0
 26 28  1  0  0  0  0
 26 25  1  0  0  0  0
M  END
>  <MODEL>
3

>  <REMARK>
 VINA RESULT:      -8.7      2.680      7.352
  Name = 
  5 active torsions:
  status: ('A' for Active; 'I' for Inactive)
    1  A    between atoms: C_2  and  C_8
    2  A    between atoms: C_6  and  C_11
    3  A    between atoms: C_8  and  C_11
    4  A    between atoms: C_16  and  C_21
    5  A    between atoms: C_19  and  C_21
                            x       y       z     vdW  Elec       q    Type
                         _______ _______ _______ _____ _____    ______ ____

>  <TORSDO>
F 5

$$$$
=
 OpenBabel11052413273D

 28 31  0  0  1  0  0  0  0  0999 V2000
  189.4410  177.7820  145.3130 C   0  0  0  0  0  2  0  0  0  0  0  0
  188.6300  177.0600  146.3910 C   0  0  2  0  0  3  0  0  0  0  0  0
  186.4710  177.6780  145.2430 C   0  0  1  0  0  3  0  0  0  0  0  0
  184.2970  179.2090  141.8540 C   0  0  0  0  0  2  0  0  0  0  0  0
  187.2440  177.6890  146.5620 C   0  0  0  0  0  2  0  0  0  0  0  0
  183.1810  179.4690  144.6040 C   0  0  0  0  0  2  0  0  0  0  0  0
  186.4950  178.4600  142.7970 C   0  0  1  0  0  3  0  0  0  0  0  0
  181.8770  178.9380  142.5520 C   0  0  2  0  0  3  0  0  0  0  0  0
  184.9800  178.4880  143.0070 C   0  0  1  0  0  3  0  0  0  0  0  0
  185.1300  178.2500  145.4680 N   0  0  0  0  0  2  0  0  0  0  0  0
  182.2060  178.4870  143.9690 C   0  0  0  0  0  2  0  0  0  0  0  0
  189.1520  177.2590  142.8780 C   0  0  0  0  0  0  0  0  0  0  0  0
  187.2760  178.3890  144.1300 C   0  0  2  0  0  3  0  0  0  0  0  0
  184.6520  179.1060  144.3770 C   0  0  2  0  0  3  0  0  0  0  0  0
  188.3590  177.3780  141.6040 C   0  0  0  0  0  2  0  0  0  0  0  0
  180.5660  178.3130  142.1240 C   0  0  0  0  0  1  0  0  0  0  0  0
  182.9620  178.5380  141.5570 C   0  0  0  0  0  2  0  0  0  0  0  0
  186.8670  177.3120  141.8730 C   0  0  0  0  0  2  0  0  0  0  0  0
  188.6680  177.7900  144.0280 C   0  0  0  0  0  0  0  0  0  0  0  0
  190.5900  175.3720  142.9440 O   0  0  0  0  0  0  0  0  0  0  0  0
  190.4880  176.6150  142.7640 C   0  0  0  0  0  0  0  0  0  0  0  0
  191.7430  177.3940  142.5370 C   0  0  0  0  0  2  0  0  0  0  0  0
  192.0560  177.4510  141.0550 C   0  0  0  0  0  1  0  0  0  0  0  0
  189.3930  176.9890  147.7140 C   0  0  0  0  0  2  0  0  0  0  0  0
  190.9030  177.1650  147.5570 C   0  0  0  0  0  2  0  0  0  0  0  0
  191.6190  175.8260  147.4850 C   0  0  0  0  0  3  0  0  0  0  0  0
  192.1100  175.5680  146.0730 C   0  0  0  0  0  1  0  0  0  0  0  0
  192.8030  175.8400  148.4290 C   0  0  0  0  0  1  0  0  0  0  0  0
  1  2  1  0  0  0  0
  2  5  1  0  0  0  0
  2 24  1  1  0  0  0
  3 10  1  0  0  0  0
  3  5  1  1  0  0  0
  7 18  1  6  0  0  0
  7  9  1  0  0  0  0
  7 13  1  0  0  0  0
  8 16  1  6  0  0  0
  8 11  1  0  0  0  0
  9  4  1  6  0  0  0
  9 14  1  0  0  0  0
 11  6  1  0  0  0  0
 12 19  2  0  0  0  0
 13 19  1  6  0  0  0
 13  3  1  0  0  0  0
 14  6  1  1  0  0  0
 14 10  1  0  0  0  0
 15 18  1  0  0  0  0
 15 12  1  0  0  0  0
 17  4  1  0  0  0  0
 17  8  1  0  0  0  0
 19  1  1  0  0  0  0
 21 12  1  0  0  0  0
 21 20  2  0  0  0  0
 22 21  1  0  0  0  0
 23 22  1  0  0  0  0
 25 24  1  0  0  0  0
 26 25  1  0  0  0  0
 26 28  1  0  0  0  0
 27 26  1  0  0  0  0
M  END
>  <MODEL>
4

>  <REMARK>
 VINA RESULT:      -8.6      2.486      4.560
  Name = 
  5 active torsions:
  status: ('A' for Active; 'I' for Inactive)
    1  A    between atoms: C_2  and  C_8
    2  A    between atoms: C_6  and  C_11
    3  A    between atoms: C_8  and  C_11
    4  A    between atoms: C_16  and  C_21
    5  A    between atoms: C_19  and  C_21
                            x       y       z     vdW  Elec       q    Type
                         _______ _______ _______ _____ _____    ______ ____

>  <TORSDO>
F 5

$$$$
=
 OpenBabel11052413273D

 28 31  0  0  1  0  0  0  0  0999 V2000
  187.1950  177.6090  143.6580 C   0  0  0  0  0  2  0  0  0  0  0  0
  187.9240  178.5020  142.6520 C   0  0  2  0  0  3  0  0  0  0  0  0
  185.7650  178.9720  141.4360 C   0  0  1  0  0  3  0  0  0  0  0  0
  181.4670  178.8390  141.1790 C   0  0  0  0  0  2  0  0  0  0  0  0
  187.2150  178.5080  141.2940 C   0  0  0  0  0  2  0  0  0  0  0  0
  183.1270  178.8180  138.7050 C   0  0  0  0  0  2  0  0  0  0  0  0
  183.5160  178.4900  142.5800 C   0  0  1  0  0  3  0  0  0  0  0  0
  180.9820  180.0460  139.0050 C   0  0  2  0  0  3  0  0  0  0  0  0
  182.9650  179.0890  141.2850 C   0  0  1  0  0  3  0  0  0  0  0  0
  185.1390  179.0050  140.1010 N   0  0  0  0  0  2  0  0  0  0  0  0
  182.4470  180.1780  138.6070 C   0  0  0  0  0  2  0  0  0  0  0  0
  185.2120  178.4340  144.9520 C   0  0  0  0  0  0  0  0  0  0  0  0
  185.0070  178.0960  142.4610 C   0  0  2  0  0  3  0  0  0  0  0  0
  183.7480  178.5420  140.0790 C   0  0  2  0  0  3  0  0  0  0  0  0
  183.7490  178.7850  145.0140 C   0  0  0  0  0  2  0  0  0  0  0  0
  180.2040  181.2060  138.4230 C   0  0  0  0  0  1  0  0  0  0  0  0
  180.7990  180.0390  140.5200 C   0  0  0  0  0  2  0  0  0  0  0  0
  183.2860  179.4530  143.7320 C   0  0  0  0  0  2  0  0  0  0  0  0
  185.7670  178.0530  143.7750 C   0  0  0  0  0  0  0  0  0  0  0  0
  185.8140  179.4460  147.0130 O   0  0  0  0  0  0  0  0  0  0  0  0
  185.9490  178.4560  146.2440 C   0  0  0  0  0  0  0  0  0  0  0  0
  186.9250  177.3940  146.6340 C   0  0  0  0  0  2  0  0  0  0  0  0
  188.1800  178.0280  147.2010 C   0  0  0  0  0  1  0  0  0  0  0  0
  189.3990  178.1150  142.5250 C   0  0  0  0  0  2  0  0  0  0  0  0
  189.6480  176.9840  141.5280 C   0  0  0  0  0  2  0  0  0  0  0  0
  190.5600  177.4270  140.3950 C   0  0  0  0  0  3  0  0  0  0  0  0
  192.0030  177.4560  140.8620 C   0  0  0  0  0  1  0  0  0  0  0  0
  190.4290  176.4580  139.2390 C   0  0  0  0  0  1  0  0  0  0  0  0
  1 19  1  0  0  0  0
  2 24  1  6  0  0  0
  2  1  1  0  0  0  0
  3  5  1  6  0  0  0
  3 13  1  0  0  0  0
  5  2  1  0  0  0  0
  7 18  1  1  0  0  0
  8 16  1  6  0  0  0
  8 17  1  0  0  0  0
  9  4  1  6  0  0  0
  9  7  1  0  0  0  0
 10  3  1  0  0  0  0
 11  6  1  0  0  0  0
 11  8  1  0  0  0  0
 12 15  1  0  0  0  0
 12 21  1  0  0  0  0
 13  7  1  0  0  0  0
 13 19  1  1  0  0  0
 14  6  1  6  0  0  0
 14 10  1  0  0  0  0
 14  9  1  0  0  0  0
 17  4  1  0  0  0  0
 18 15  1  0  0  0  0
 19 12  2  0  0  0  0
 21 22  1  0  0  0  0
 21 20  2  0  0  0  0
 22 23  1  0  0  0  0
 25 24  1  0  0  0  0
 26 27  1  0  0  0  0
 26 25  1  0  0  0  0
 28 26  1  0  0  0  0
M  END
>  <MODEL>
5

>  <REMARK>
 VINA RESULT:      -8.5      1.295      1.790
  Name = 
  5 active torsions:
  status: ('A' for Active; 'I' for Inactive)
    1  A    between atoms: C_2  and  C_8
    2  A    between atoms: C_6  and  C_11
    3  A    between atoms: C_8  and  C_11
    4  A    between atoms: C_16  and  C_21
    5  A    between atoms: C_19  and  C_21
                            x       y       z     vdW  Elec       q    Type
                         _______ _______ _______ _____ _____    ______ ____

>  <TORSDO>
F 5

$$$$
=
 OpenBabel11052413273D

 28 31  0  0  1  0  0  0  0  0999 V2000
  183.1470  178.3540  141.8810 C   0  0  0  0  0  2  0  0  0  0  0  0
  182.6290  179.3260  142.9430 C   0  0  2  0  0  3  0  0  0  0  0  0
  184.6040  178.8250  144.4300 C   0  0  1  0  0  3  0  0  0  0  0  0
  188.4930  177.0940  145.0900 C   0  0  0  0  0  2  0  0  0  0  0  0
  183.0800  178.9120  144.3470 C   0  0  0  0  0  2  0  0  0  0  0  0
  186.5730  177.3920  147.3480 C   0  0  0  0  0  2  0  0  0  0  0  0
  186.6910  177.6890  143.4530 C   0  0  1  0  0  3  0  0  0  0  0  0
  189.0290  177.7720  147.4710 C   0  0  2  0  0  3  0  0  0  0  0  0
  187.2120  177.8860  144.8780 C   0  0  1  0  0  3  0  0  0  0  0  0
  184.9900  178.4680  145.8080 N   0  0  0  0  0  2  0  0  0  0  0  0
  187.6600  178.3840  147.7370 C   0  0  0  0  0  2  0  0  0  0  0  0
  185.4660  178.5400  140.9460 C   0  0  0  0  0  0  0  0  0  0  0  0
  185.1560  177.8590  143.3560 C   0  0  2  0  0  3  0  0  0  0  0  0
  186.1120  177.5260  145.8920 C   0  0  2  0  0  3  0  0  0  0  0  0
  186.9500  178.3340  141.0900 C   0  0  0  0  0  2  0  0  0  0  0  0
  190.0650  178.4880  148.3120 C   0  0  0  0  0  1  0  0  0  0  0  0
  189.4290  177.8780  146.0010 C   0  0  0  0  0  2  0  0  0  0  0  0
  187.4150  178.6290  142.5040 C   0  0  0  0  0  2  0  0  0  0  0  0
  184.6400  178.2530  141.9830 C   0  0  0  0  0  0  0  0  0  0  0  0
  184.5550  180.1590  139.4680 O   0  0  0  0  0  0  0  0  0  0  0  0
  184.9900  178.9840  139.6090 C   0  0  0  0  0  0  0  0  0  0  0  0
  184.9130  178.0640  138.4340 C   0  0  0  0  0  2  0  0  0  0  0  0
  183.4640  177.7440  138.1220 C   0  0  0  0  0  1  0  0  0  0  0  0
  181.1120  179.4960  142.8570 C   0  0  0  0  0  2  0  0  0  0  0  0
  180.4800  178.7360  141.6920 C   0  0  0  0  0  2  0  0  0  0  0  0
  179.8030  179.6780  140.7090 C   0  0  0  0  0  3  0  0  0  0  0  0
  179.2670  180.8980  141.4350 C   0  0  0  0  0  1  0  0  0  0  0  0
  180.8080  180.1200  139.6660 C   0  0  0  0  0  1  0  0  0  0  0  0
  1 19  1  0  0  0  0
  1  2  1  0  0  0  0
  2 24  1  1  0  0  0
  2  5  1  0  0  0  0
  3  5  1  1  0  0  0
  3 10  1  0  0  0  0
  4 17  1  0  0  0  0
  6 11  1  0  0  0  0
  7 18  1  6  0  0  0
  7  9  1  0  0  0  0
  8 11  1  0  0  0  0
  8 16  1  1  0  0  0
  9  4  1  1  0  0  0
  9 14  1  0  0  0  0
 10 14  1  0  0  0  0
 12 15  1  0  0  0  0
 12 19  2  0  0  0  0
 13 19  1  6  0  0  0
 13  7  1  0  0  0  0
 13  3  1  0  0  0  0
 14  6  1  1  0  0  0
 15 18  1  0  0  0  0
 17  8  1  0  0  0  0
 20 21  2  0  0  0  0
 21 12  1  0  0  0  0
 22 21  1  0  0  0  0
 23 22  1  0  0  0  0
 25 24  1  0  0  0  0
 26 27  1  0  0  0  0
 26 25  1  0  0  0  0
 28 26  1  0  0  0  0
M  END
>  <MODEL>
6

>  <REMARK>
 VINA RESULT:      -8.4      2.327      8.264
  Name = 
  5 active torsions:
  status: ('A' for Active; 'I' for Inactive)
    1  A    between atoms: C_2  and  C_8
    2  A    between atoms: C_6  and  C_11
    3  A    between atoms: C_8  and  C_11
    4  A    between atoms: C_16  and  C_21
    5  A    between atoms: C_19  and  C_21
                            x       y       z     vdW  Elec       q    Type
                         _______ _______ _______ _____ _____    ______ ____

>  <TORSDO>
F 5

$$$$
=
 OpenBabel11052413273D

 28 31  0  0  1  0  0  0  0  0999 V2000
  186.2030  178.2310  139.4090 C   0  0  0  0  0  2  0  0  0  0  0  0
  185.3270  179.3190  140.0340 C   0  0  2  0  0  3  0  0  0  0  0  0
  186.1990  178.7630  142.3340 C   0  0  1  0  0  3  0  0  0  0  0  0
  188.9890  176.7620  144.9350 C   0  0  0  0  0  2  0  0  0  0  0  0
  184.9510  178.9730  141.4780 C   0  0  0  0  0  2  0  0  0  0  0  0
  186.2330  177.3880  145.8770 C   0  0  0  0  0  2  0  0  0  0  0  0
  188.3520  177.3850  142.5930 C   0  0  1  0  0  3  0  0  0  0  0  0
  188.3080  177.5660  147.2390 C   0  0  2  0  0  3  0  0  0  0  0  0
  188.0920  177.6420  144.0780 C   0  0  1  0  0  3  0  0  0  0  0  0
  185.7860  178.4770  143.7210 N   0  0  0  0  0  2  0  0  0  0  0  0
  187.0730  178.3110  146.7500 C   0  0  0  0  0  2  0  0  0  0  0  0
  188.6780  178.1500  139.7970 C   0  0  0  0  0  0  0  0  0  0  0  0
  187.1110  177.6770  141.7160 C   0  0  2  0  0  3  0  0  0  0  0  0
  186.5970  177.4530  144.3890 C   0  0  2  0  0  3  0  0  0  0  0  0
  189.8490  177.8300  140.6880 C   0  0  0  0  0  2  0  0  0  0  0  0
  188.8430  178.2520  148.4780 C   0  0  0  0  0  1  0  0  0  0  0  0
  189.4100  177.5290  146.1830 C   0  0  0  0  0  2  0  0  0  0  0  0
  189.5570  178.1880  142.1340 C   0  0  0  0  0  2  0  0  0  0  0  0
  187.4130  178.0110  140.2660 C   0  0  0  0  0  0  0  0  0  0  0  0
  189.0530  179.7530  138.0870 O   0  0  0  0  0  0  0  0  0  0  0  0
  189.0020  178.5320  138.3970 C   0  0  0  0  0  0  0  0  0  0  0  0
  189.1800  177.5260  137.3060 C   0  0  0  0  0  2  0  0  0  0  0  0
  188.1970  177.7990  136.1850 C   0  0  0  0  0  1  0  0  0  0  0  0
  184.0960  179.6100  139.1750 C   0  0  0  0  0  2  0  0  0  0  0  0
  183.6370  178.4140  138.3420 C   0  0  0  0  0  2  0  0  0  0  0  0
  182.3530  177.8100  138.8870 C   0  0  0  0  0  3  0  0  0  0  0  0
  182.6690  176.6470  139.8090 C   0  0  0  0  0  1  0  0  0  0  0  0
  181.5920  178.8660  139.6600 C   0  0  0  0  0  1  0  0  0  0  0  0
  1  2  1  0  0  0  0
  1 19  1  0  0  0  0
  2 24  1  6  0  0  0
  2  5  1  0  0  0  0
  3  5  1  6  0  0  0
  3 10  1  0  0  0  0
  4 17  1  0  0  0  0
  6 11  1  0  0  0  0
  7 18  1  6  0  0  0
  7  9  1  0  0  0  0
  8 16  1  1  0  0  0
  9 14  1  0  0  0  0
  9  4  1  1  0  0  0
 10 14  1  0  0  0  0
 11  8  1  0  0  0  0
 12 19  2  0  0  0  0
 12 15  1  0  0  0  0
 13 19  1  6  0  0  0
 13  3  1  0  0  0  0
 13  7  1  0  0  0  0
 14  6  1  1  0  0  0
 15 18  1  0  0  0  0
 17  8  1  0  0  0  0
 20 21  2  0  0  0  0
 21 12  1  0  0  0  0
 22 21  1  0  0  0  0
 23 22  1  0  0  0  0
 25 26  1  0  0  0  0
 25 24  1  0  0  0  0
 26 28  1  0  0  0  0
 26 27  1  0  0  0  0
M  END
>  <MODEL>
7

>  <REMARK>
 VINA RESULT:      -8.1      2.781      7.986
  Name = 
  5 active torsions:
  status: ('A' for Active; 'I' for Inactive)
    1  A    between atoms: C_2  and  C_8
    2  A    between atoms: C_6  and  C_11
    3  A    between atoms: C_8  and  C_11
    4  A    between atoms: C_16  and  C_21
    5  A    between atoms: C_19  and  C_21
                            x       y       z     vdW  Elec       q    Type
                         _______ _______ _______ _____ _____    ______ ____

>  <TORSDO>
F 5

$$$$
=
 OpenBabel11052413273D

 28 31  0  0  1  0  0  0  0  0999 V2000
  185.3810  179.2650  142.2420 C   0  0  0  0  0  2  0  0  0  0  0  0
  185.9730  178.2470  141.2660 C   0  0  2  0  0  3  0  0  0  0  0  0
  187.8210  177.6970  142.8910 C   0  0  1  0  0  3  0  0  0  0  0  0
  189.5920  177.9080  146.8130 C   0  0  0  0  0  2  0  0  0  0  0  0
  187.4870  178.1050  141.4570 C   0  0  0  0  0  2  0  0  0  0  0  0
  191.3090  177.6080  144.3970 C   0  0  0  0  0  2  0  0  0  0  0  0
  187.5990  178.3610  145.3630 C   0  0  1  0  0  3  0  0  0  0  0  0
  191.6690  176.4760  146.5850 C   0  0  2  0  0  3  0  0  0  0  0  0
  188.9400  177.6340  145.4650 C   0  0  1  0  0  3  0  0  0  0  0  0
  189.2820  177.5290  143.0130 N   0  0  0  0  0  2  0  0  0  0  0  0
  191.5100  176.2640  145.0850 C   0  0  0  0  0  2  0  0  0  0  0  0
  184.7970  178.6410  144.5990 C   0  0  0  0  0  0  0  0  0  0  0  0
  187.2210  178.7020  143.9010 C   0  0  2  0  0  3  0  0  0  0  0  0
  189.8390  178.0220  144.2780 C   0  0  2  0  0  3  0  0  0  0  0  0
  185.2220  178.3360  146.0110 C   0  0  0  0  0  2  0  0  0  0  0  0
  192.3740  175.2780  147.1830 C   0  0  0  0  0  1  0  0  0  0  0  0
  190.3250  176.6580  147.2840 C   0  0  0  0  0  2  0  0  0  0  0  0
  186.5140  177.5400  146.0400 C   0  0  0  0  0  2  0  0  0  0  0  0
  185.7340  178.8740  143.6460 C   0  0  0  0  0  0  0  0  0  0  0  0
  182.5850  179.1590  145.2880 O   0  0  0  0  0  0  0  0  0  0  0  0
  183.3330  178.7460  144.3610 C   0  0  0  0  0  0  0  0  0  0  0  0
  182.6870  178.2900  143.0930 C   0  0  0  0  0  2  0  0  0  0  0  0
  181.5190  179.1950  142.7530 C   0  0  0  0  0  1  0  0  0  0  0  0
  185.6080  178.5800  139.8180 C   0  0  0  0  0  2  0  0  0  0  0  0
  184.3190  179.3900  139.6860 C   0  0  0  0  0  2  0  0  0  0  0  0
  183.2980  178.6800  138.8110 C   0  0  0  0  0  3  0  0  0  0  0  0
  182.9750  177.3130  139.3840 C   0  0  0  0  0  1  0  0  0  0  0  0
  182.0310  179.5060  138.7480 C   0  0  0  0  0  1  0  0  0  0  0  0
  1 19  1  0  0  0  0
  2 24  1  6  0  0  0
  2  5  1  0  0  0  0
  2  1  1  0  0  0  0
  3  5  1  6  0  0  0
  3 10  1  0  0  0  0
  3 13  1  0  0  0  0
  4 17  1  0  0  0  0
  6 11  1  0  0  0  0
  7  9  1  0  0  0  0
  7 18  1  6  0  0  0
  8 16  1  1  0  0  0
  8 17  1  0  0  0  0
  9  4  1  1  0  0  0
 10 14  1  0  0  0  0
 11  8  1  0  0  0  0
 12 15  1  0  0  0  0
 13 19  1  1  0  0  0
 13  7  1  0  0  0  0
 14  6  1  1  0  0  0
 14  9  1  0  0  0  0
 15 18  1  0  0  0  0
 19 12  2  0  0  0  0
 21 12  1  0  0  0  0
 21 20  2  0  0  0  0
 22 21  1  0  0  0  0
 23 22  1  0  0  0  0
 25 24  1  0  0  0  0
 26 27  1  0  0  0  0
 26 25  1  0  0  0  0
 28 26  1  0  0  0  0
M  END
>  <MODEL>
8

>  <REMARK>
 VINA RESULT:      -8.1      1.651      7.575
  Name = 
  5 active torsions:
  status: ('A' for Active; 'I' for Inactive)
    1  A    between atoms: C_2  and  C_8
    2  A    between atoms: C_6  and  C_11
    3  A    between atoms: C_8  and  C_11
    4  A    between atoms: C_16  and  C_21
    5  A    between atoms: C_19  and  C_21
                            x       y       z     vdW  Elec       q    Type
                         _______ _______ _______ _____ _____    ______ ____

>  <TORSDO>
F 5

$$$$
=
 OpenBabel11052413273D

 28 31  0  0  1  0  0  0  0  0999 V2000
  187.3680  178.5710  139.1420 C   0  0  0  0  0  2  0  0  0  0  0  0
  188.1050  177.3020  138.7080 C   0  0  2  0  0  3  0  0  0  0  0  0
  189.1940  177.1050  140.9740 C   0  0  1  0  0  3  0  0  0  0  0  0
  189.5430  178.2520  145.1120 C   0  0  0  0  0  2  0  0  0  0  0  0
  189.4270  177.1370  139.4640 C   0  0  0  0  0  2  0  0  0  0  0  0
  191.9150  177.2360  143.6240 C   0  0  0  0  0  2  0  0  0  0  0  0
  188.2450  178.4100  142.9730 C   0  0  1  0  0  3  0  0  0  0  0  0
  191.3470  176.7060  145.9890 C   0  0  2  0  0  3  0  0  0  0  0  0
  189.3540  177.6660  143.7200 C   0  0  1  0  0  3  0  0  0  0  0  0
  190.4870  176.9000  141.6540 N   0  0  0  0  0  2  0  0  0  0  0  0
  191.6760  176.1130  144.6250 C   0  0  0  0  0  2  0  0  0  0  0  0
  185.9380  178.6240  141.2010 C   0  0  0  0  0  0  0  0  0  0  0  0
  188.4370  178.3710  141.4390 C   0  0  2  0  0  3  0  0  0  0  0  0
  190.6470  177.6800  142.8870 C   0  0  2  0  0  3  0  0  0  0  0  0
  185.8120  178.6810  142.7000 C   0  0  0  0  0  2  0  0  0  0  0  0
  191.6280  175.6730  147.0590 C   0  0  0  0  0  1  0  0  0  0  0  0
  189.8860  177.1350  146.0890 C   0  0  0  0  0  2  0  0  0  0  0  0
  186.8900  177.8540  143.3770 C   0  0  0  0  0  2  0  0  0  0  0  0
  187.1650  178.5470  140.6280 C   0  0  0  0  0  0  0  0  0  0  0  0
  184.4790  179.7530  139.7080 O   0  0  0  0  0  0  0  0  0  0  0  0
  184.6720  178.7380  140.4290 C   0  0  0  0  0  0  0  0  0  0  0  0
  183.5650  177.7400  140.5420 C   0  0  0  0  0  2  0  0  0  0  0  0
  182.3280  178.4020  141.1150 C   0  0  0  0  0  1  0  0  0  0  0  0
  188.3030  177.2580  137.1920 C   0  0  0  0  0  2  0  0  0  0  0  0
  187.3910  178.2200  136.4310 C   0  0  0  0  0  2  0  0  0  0  0  0
  186.3710  177.4740  135.5860 C   0  0  0  0  0  3  0  0  0  0  0  0
  186.9290  176.1300  135.1540 C   0  0  0  0  0  1  0  0  0  0  0  0
  185.1120  177.2530  136.3970 C   0  0  0  0  0  1  0  0  0  0  0  0
  1 19  1  0  0  0  0
  2 24  1  6  0  0  0
  2  1  1  0  0  0  0
  2  5  1  0  0  0  0
  3  5  1  6  0  0  0
  3 13  1  0  0  0  0
  3 10  1  0  0  0  0
  4 17  1  0  0  0  0
  6 11  1  0  0  0  0
  7 18  1  6  0  0  0
  7  9  1  0  0  0  0
  8 17  1  0  0  0  0
  8 16  1  1  0  0  0
  9  4  1  1  0  0  0
 10 14  1  0  0  0  0
 11  8  1  0  0  0  0
 12 15  1  0  0  0  0
 13 19  1  6  0  0  0
 13  7  1  0  0  0  0
 14  6  1  1  0  0  0
 14  9  1  0  0  0  0
 15 18  1  0  0  0  0
 19 12  2  0  0  0  0
 20 21  2  0  0  0  0
 21 22  1  0  0  0  0
 21 12  1  0  0  0  0
 22 23  1  0  0  0  0
 25 24  1  0  0  0  0
 26 28  1  0  0  0  0
 26 25  1  0  0  0  0
 27 26  1  0  0  0  0
M  END
>  <MODEL>
9

>  <REMARK>
 VINA RESULT:      -8.0      2.892      7.865
  Name = 
  5 active torsions:
  status: ('A' for Active; 'I' for Inactive)
    1  A    between atoms: C_2  and  C_8
    2  A    between atoms: C_6  and  C_11
    3  A    between atoms: C_8  and  C_11
    4  A    between atoms: C_16  and  C_21
    5  A    between atoms: C_19  and  C_21
                            x       y       z     vdW  Elec       q    Type
                         _______ _______ _______ _____ _____    ______ ____

>  <TORSDO>
F 5

$$$$
