=
 OpenBabel11052413573D

 34 39  0  0  1  0  0  0  0  0999 V2000
  189.4900  177.2710  146.4550 C   0  0  0  0  0  0  0  0  0  0  0  0
  191.3010  176.3080  145.2140 C   0  0  0  0  0  0  0  0  0  0  0  0
  189.1080  176.9470  143.9650 C   0  0  1  0  0  3  0  0  0  0  0  0
  188.7690  177.4830  141.7060 C   0  0  2  0  0  3  0  0  0  0  0  0
  191.5700  176.8860  147.4950 C   0  0  0  0  0  3  0  0  0  0  0  0
  192.0550  176.3590  146.3440 N   0  0  0  0  0  0  0  0  0  0  0  0
  190.9430  177.5290  142.3860 C   0  0  0  0  0  2  0  0  0  0  0  0
  190.0140  176.8900  145.2030 C   0  0  0  0  0  0  0  0  0  0  0  0
  189.4930  178.0110  140.4930 C   0  0  0  0  0  2  0  0  0  0  0  0
  190.2840  177.3090  147.5550 N   0  0  0  0  0  0  0  0  0  0  0  0
  187.7320  177.5610  144.3280 C   0  0  1  0  0  3  0  0  0  0  0  0
  188.0830  177.4880  146.5870 N   0  0  0  0  0  2  0  0  0  0  0  0
  191.7830  175.5540  144.1080 N   0  0  0  0  0  1  0  0  0  0  0  0
  187.3600  178.0380  141.8850 C   0  0  0  0  0  2  0  0  0  0  0  0
  186.7460  177.4310  143.1570 C   0  0  2  0  0  3  0  0  0  0  0  0
  190.9520  177.9060  140.9070 C   0  0  2  0  0  3  0  0  0  0  0  0
  189.5970  177.8010  142.8660 N   0  0  2  0  0  0  0  0  0  0  0  0
  187.2130  177.0350  145.5810 N   0  0  0  0  0  2  0  0  0  0  0  0
  183.2220  178.7490  142.7120 C   0  0  0  0  0  0  0  0  0  0  0  0
  182.9530  179.2820  143.9760 C   0  0  0  0  0  3  0  0  0  0  0  0
  185.4300  178.0810  143.4580 C   0  0  0  0  0  0  0  0  0  0  0  0
  183.9190  179.2160  144.9840 C   0  0  0  0  0  3  0  0  0  0  0  0
  184.4570  178.1490  142.4540 C   0  0  0  0  0  3  0  0  0  0  0  0
  185.1560  178.6170  144.7260 C   0  0  0  0  0  3  0  0  0  0  0  0
  182.0110  178.8320  141.4520 Cl  0  0  0  0  0  0  0  0  0  0  0  0
  191.7000  176.9420  140.0930 N   0  0  0  0  0  2  0  0  0  0  0  0
  191.0480  176.7130  138.8060 C   0  0  0  0  0  2  0  0  0  0  0  0
  190.1850  174.2370  137.6680 F   0  0  0  0  0  0  0  0  0  0  0  0
  191.9190  175.8700  137.9410 C   0  0  0  0  0  0  0  0  0  0  0  0
  191.4430  174.6660  137.3980 C   0  0  0  0  0  0  0  0  0  0  0  0
  193.5680  174.3300  136.2830 C   0  0  0  0  0  3  0  0  0  0  0  0
  194.0410  175.5310  136.8170 C   0  0  0  0  0  3  0  0  0  0  0  0
  193.2160  176.3020  137.6440 C   0  0  0  0  0  3  0  0  0  0  0  0
  192.2700  173.8980  136.5730 C   0  0  0  0  0  3  0  0  0  0  0  0
  1 12  1  0  0  0  0
  1 10  2  0  0  0  0
  2  6  1  0  0  0  0
  3 11  1  0  0  0  0
  3  8  1  1  0  0  0
  4  9  1  6  0  0  0
  4 14  1  0  0  0  0
  4 17  1  0  0  0  0
  5 10  1  0  0  0  0
  6  5  2  0  0  0  0
  8  2  2  0  0  0  0
  8  1  1  0  0  0  0
  9 16  1  0  0  0  0
 11 18  1  1  0  0  0
 13  2  1  0  0  0  0
 14 15  1  0  0  0  0
 15 21  1  1  0  0  0
 15 11  1  0  0  0  0
 16 26  1  6  0  0  0
 16  7  1  0  0  0  0
 17  7  1  6  0  0  0
 17  3  1  0  0  0  0
 18 12  1  0  0  0  0
 19 20  1  0  0  0  0
 20 22  2  0  0  0  0
 21 24  2  0  0  0  0
 23 19  2  0  0  0  0
 23 21  1  0  0  0  0
 24 22  1  0  0  0  0
 25 19  1  0  0  0  0
 27 26  1  0  0  0  0
 29 27  1  0  0  0  0
 30 28  1  0  0  0  0
 30 29  2  0  0  0  0
 31 34  2  0  0  0  0
 31 32  1  0  0  0  0
 32 33  2  0  0  0  0
 33 29  1  0  0  0  0
 34 30  1  0  0  0  0
M  END
>  <MODEL>
1

>  <REMARK>
 VINA RESULT:     -10.3      0.000      0.000
  Name = 
  4 active torsions:
  status: ('A' for Active; 'I' for Inactive)
    1  A    between atoms: C_3  and  C_13
    2  A    between atoms: C_3  and  N_17
    3  A    between atoms: C_12  and  C_28
    4  A    between atoms: N_17  and  C_29
                            x       y       z     vdW  Elec       q    Type
                         _______ _______ _______ _____ _____    ______ ____

>  <TORSDO>
F 4

$$$$
=
 OpenBabel11052413573D

 34 39  0  0  1  0  0  0  0  0999 V2000
  190.9690  177.3370  141.5240 C   0  0  0  0  0  0  0  0  0  0  0  0
  189.5880  177.0550  139.5840 C   0  0  0  0  0  0  0  0  0  0  0  0
  188.4620  177.2380  141.9250 C   0  0  1  0  0  3  0  0  0  0  0  0
  186.2990  177.9440  142.4990 C   0  0  2  0  0  3  0  0  0  0  0  0
  191.9220  177.3930  139.3690 C   0  0  0  0  0  3  0  0  0  0  0  0
  190.7050  177.1630  138.8170 N   0  0  0  0  0  0  0  0  0  0  0  0
  186.9520  178.4810  140.3840 C   0  0  0  0  0  2  0  0  0  0  0  0
  189.6710  177.2700  140.9780 C   0  0  0  0  0  0  0  0  0  0  0  0
  185.1590  178.7940  141.9980 C   0  0  0  0  0  2  0  0  0  0  0  0
  192.0540  177.4470  140.7170 N   0  0  0  0  0  0  0  0  0  0  0  0
  188.9210  177.4120  143.3950 C   0  0  1  0  0  3  0  0  0  0  0  0
  191.1460  177.1520  142.9300 N   0  0  0  0  0  2  0  0  0  0  0  0
  188.3850  176.6020  138.9740 N   0  0  0  0  0  1  0  0  0  0  0  0
  186.5690  178.0760  143.9940 C   0  0  0  0  0  2  0  0  0  0  0  0
  187.7550  177.1710  144.3670 C   0  0  2  0  0  3  0  0  0  0  0  0
  185.5370  179.0300  140.5440 C   0  0  2  0  0  3  0  0  0  0  0  0
  187.4810  178.3220  141.7290 N   0  0  2  0  0  0  0  0  0  0  0  0
  190.0990  176.6130  143.6970 N   0  0  0  0  0  2  0  0  0  0  0  0
  189.8580  177.2940  147.5150 C   0  0  0  0  0  0  0  0  0  0  0  0
  188.9570  177.8270  148.4420 C   0  0  0  0  0  3  0  0  0  0  0  0
  188.1570  177.4040  145.7910 C   0  0  0  0  0  0  0  0  0  0  0  0
  187.6550  178.1480  148.0480 C   0  0  0  0  0  3  0  0  0  0  0  0
  189.4590  177.0850  146.1930 C   0  0  0  0  0  3  0  0  0  0  0  0
  187.2550  177.9380  146.7240 C   0  0  0  0  0  3  0  0  0  0  0  0
  191.4870  176.8930  148.0100 Cl  0  0  0  0  0  0  0  0  0  0  0  0
  184.5930  178.4110  139.6080 N   0  0  0  0  0  2  0  0  0  0  0  0
  183.3590  178.0150  140.2830 C   0  0  0  0  0  2  0  0  0  0  0  0
  181.1190  178.4120  142.0140 F   0  0  0  0  0  0  0  0  0  0  0  0
  182.2920  179.0180  140.0120 C   0  0  0  0  0  0  0  0  0  0  0  0
  181.2170  179.1810  140.9010 C   0  0  0  0  0  0  0  0  0  0  0  0
  180.3270  180.9450  139.4980 C   0  0  0  0  0  3  0  0  0  0  0  0
  181.3990  180.7880  138.6160 C   0  0  0  0  0  3  0  0  0  0  0  0
  182.3820  179.8270  138.8740 C   0  0  0  0  0  3  0  0  0  0  0  0
  180.2360  180.1430  140.6390 C   0  0  0  0  0  3  0  0  0  0  0  0
  1 12  1  0  0  0  0
  2  8  2  0  0  0  0
  3  8  1  6  0  0  0
  3 11  1  0  0  0  0
  4  9  1  6  0  0  0
  4 14  1  0  0  0  0
  5 10  1  0  0  0  0
  6  5  2  0  0  0  0
  6  2  1  0  0  0  0
  7 16  1  0  0  0  0
  8  1  1  0  0  0  0
 10  1  2  0  0  0  0
 11 18  1  1  0  0  0
 11 15  1  0  0  0  0
 12 18  1  0  0  0  0
 13  2  1  0  0  0  0
 14 15  1  0  0  0  0
 15 21  1  1  0  0  0
 16 26  1  6  0  0  0
 16  9  1  0  0  0  0
 17  7  1  6  0  0  0
 17  3  1  0  0  0  0
 17  4  1  0  0  0  0
 19 25  1  0  0  0  0
 19 20  1  0  0  0  0
 21 23  1  0  0  0  0
 21 24  2  0  0  0  0
 22 20  2  0  0  0  0
 23 19  2  0  0  0  0
 24 22  1  0  0  0  0
 26 27  1  0  0  0  0
 29 27  1  0  0  0  0
 29 30  1  0  0  0  0
 30 28  1  0  0  0  0
 31 34  1  0  0  0  0
 32 33  1  0  0  0  0
 32 31  2  0  0  0  0
 33 29  2  0  0  0  0
 34 30  2  0  0  0  0
M  END
>  <MODEL>
2

>  <REMARK>
 VINA RESULT:      -9.9      3.665      7.691
  Name = 
  4 active torsions:
  status: ('A' for Active; 'I' for Inactive)
    1  A    between atoms: C_3  and  C_13
    2  A    between atoms: C_3  and  N_17
    3  A    between atoms: C_12  and  C_28
    4  A    between atoms: N_17  and  C_29
                            x       y       z     vdW  Elec       q    Type
                         _______ _______ _______ _____ _____    ______ ____

>  <TORSDO>
F 4

$$$$
=
 OpenBabel11052413573D

 34 39  0  0  1  0  0  0  0  0999 V2000
  184.8370  178.9870  144.9130 C   0  0  0  0  0  0  0  0  0  0  0  0
  186.8840  177.7520  145.0820 C   0  0  0  0  0  0  0  0  0  0  0  0
  185.7880  178.0710  142.7420 C   0  0  1  0  0  3  0  0  0  0  0  0
  186.7680  178.0460  140.6100 C   0  0  2  0  0  3  0  0  0  0  0  0
  185.9820  178.8640  146.9690 C   0  0  0  0  0  3  0  0  0  0  0  0
  186.9280  178.0740  146.4020 N   0  0  0  0  0  0  0  0  0  0  0  0
  188.2380  178.2530  142.3370 C   0  0  0  0  0  2  0  0  0  0  0  0
  185.8870  178.3150  144.2560 C   0  0  0  0  0  0  0  0  0  0  0  0
  188.0840  178.2650  139.9100 C   0  0  0  0  0  2  0  0  0  0  0  0
  184.9270  179.2890  146.2320 N   0  0  0  0  0  0  0  0  0  0  0  0
  184.5230  178.7550  142.1650 C   0  0  1  0  0  3  0  0  0  0  0  0
  183.6150  179.2300  144.2110 N   0  0  0  0  0  2  0  0  0  0  0  0
  187.7730  176.7530  144.5970 N   0  0  0  0  0  1  0  0  0  0  0  0
  185.5640  178.6280  139.8780 C   0  0  0  0  0  2  0  0  0  0  0  0
  184.2970  178.3460  140.7010 C   0  0  2  0  0  3  0  0  0  0  0  0
  189.0770  178.2620  141.0620 C   0  0  2  0  0  3  0  0  0  0  0  0
  186.8920  178.6340  141.9410 N   0  0  2  0  0  0  0  0  0  0  0  0
  183.3570  178.5470  143.0100 N   0  0  0  0  0  2  0  0  0  0  0  0
  180.7190  179.3820  140.0090 C   0  0  0  0  0  0  0  0  0  0  0  0
  180.8870  180.3450  139.0090 C   0  0  0  0  0  3  0  0  0  0  0  0
  183.1190  179.0500  140.0990 C   0  0  0  0  0  0  0  0  0  0  0  0
  182.1690  180.6620  138.5510 C   0  0  0  0  0  3  0  0  0  0  0  0
  181.8330  178.7370  140.5530 C   0  0  0  0  0  3  0  0  0  0  0  0
  183.2840  180.0170  139.0950 C   0  0  0  0  0  3  0  0  0  0  0  0
  179.1140  178.9860  140.5810 Cl  0  0  0  0  0  0  0  0  0  0  0  0
  190.0070  177.1300  141.0020 N   0  0  0  0  0  2  0  0  0  0  0  0
  191.3310  177.5030  141.4950 C   0  0  0  0  0  2  0  0  0  0  0  0
  191.2550  179.4420  143.5930 F   0  0  0  0  0  0  0  0  0  0  0  0
  191.4510  177.1450  142.9360 C   0  0  0  0  0  0  0  0  0  0  0  0
  191.3970  178.1350  143.9290 C   0  0  0  0  0  0  0  0  0  0  0  0
  191.6340  176.4330  145.6380 C   0  0  0  0  0  3  0  0  0  0  0  0
  191.6810  175.4460  144.6510 C   0  0  0  0  0  3  0  0  0  0  0  0
  191.5870  175.8010  143.3010 C   0  0  0  0  0  3  0  0  0  0  0  0
  191.4920  177.7770  145.2770 C   0  0  0  0  0  3  0  0  0  0  0  0
  1 10  2  0  0  0  0
  2  6  1  0  0  0  0
  3  8  1  1  0  0  0
  4 14  1  6  0  0  0
  4 17  1  0  0  0  0
  6  5  2  0  0  0  0
  8  1  1  0  0  0  0
  8  2  2  0  0  0  0
  9  4  1  0  0  0  0
  9 16  1  0  0  0  0
 10  5  1  0  0  0  0
 11  3  1  0  0  0  0
 11 18  1  1  0  0  0
 12  1  1  0  0  0  0
 13  2  1  0  0  0  0
 14 15  1  0  0  0  0
 15 21  1  6  0  0  0
 15 11  1  0  0  0  0
 16 26  1  6  0  0  0
 16  7  1  0  0  0  0
 17  7  1  1  0  0  0
 17  3  1  0  0  0  0
 18 12  1  0  0  0  0
 19 23  1  0  0  0  0
 19 25  1  0  0  0  0
 20 19  2  0  0  0  0
 21 23  2  0  0  0  0
 22 20  1  0  0  0  0
 22 24  2  0  0  0  0
 24 21  1  0  0  0  0
 26 27  1  0  0  0  0
 27 29  1  0  0  0  0
 28 30  1  0  0  0  0
 29 33  2  0  0  0  0
 29 30  1  0  0  0  0
 30 34  2  0  0  0  0
 32 31  2  0  0  0  0
 33 32  1  0  0  0  0
 34 31  1  0  0  0  0
M  END
>  <MODEL>
3

>  <REMARK>
 VINA RESULT:      -9.9      3.202      5.223
  Name = 
  4 active torsions:
  status: ('A' for Active; 'I' for Inactive)
    1  A    between atoms: C_3  and  C_13
    2  A    between atoms: C_3  and  N_17
    3  A    between atoms: C_12  and  C_28
    4  A    between atoms: N_17  and  C_29
                            x       y       z     vdW  Elec       q    Type
                         _______ _______ _______ _____ _____    ______ ____

>  <TORSDO>
F 4

$$$$
=
 OpenBabel11052413573D

 34 39  0  0  1  0  0  0  0  0999 V2000
  187.6730  177.6490  138.7930 C   0  0  0  0  0  0  0  0  0  0  0  0
  188.8670  178.0720  140.8280 C   0  0  0  0  0  0  0  0  0  0  0  0
  186.3430  178.6950  140.6880 C   0  0  1  0  0  3  0  0  0  0  0  0
  184.7520  178.9080  142.3990 C   0  0  2  0  0  3  0  0  0  0  0  0
  189.8930  176.8990  139.0450 C   0  0  0  0  0  3  0  0  0  0  0  0
  189.9450  177.4490  140.2840 N   0  0  0  0  0  0  0  0  0  0  0  0
  186.6650  177.8280  142.9990 C   0  0  0  0  0  2  0  0  0  0  0  0
  187.6370  178.0790  140.1350 C   0  0  0  0  0  0  0  0  0  0  0  0
  184.4550  178.4460  143.8030 C   0  0  0  0  0  2  0  0  0  0  0  0
  188.7720  177.0280  138.2950 N   0  0  0  0  0  0  0  0  0  0  0  0
  185.2120  178.6190  139.6310 C   0  0  1  0  0  3  0  0  0  0  0  0
  186.5950  177.9920  137.9200 N   0  0  0  0  0  2  0  0  0  0  0  0
  189.0450  178.8130  142.0300 N   0  0  0  0  0  1  0  0  0  0  0  0
  183.5360  178.9420  141.4800 C   0  0  0  0  0  2  0  0  0  0  0  0
  183.9800  179.4160  140.0870 C   0  0  2  0  0  3  0  0  0  0  0  0
  185.7830  177.8510  144.2440 C   0  0  2  0  0  3  0  0  0  0  0  0
  185.7740  178.0120  141.8650 N   0  0  2  0  0  0  0  0  0  0  0  0
  185.6800  178.9870  138.3040 N   0  0  0  0  0  2  0  0  0  0  0  0
  181.2460  180.3780  137.6460 C   0  0  0  0  0  0  0  0  0  0  0  0
  180.7310  179.1290  137.2850 C   0  0  0  0  0  3  0  0  0  0  0  0
  182.8460  179.2980  139.1140 C   0  0  0  0  0  0  0  0  0  0  0  0
  181.2700  177.9630  137.8370 C   0  0  0  0  0  3  0  0  0  0  0  0
  182.3020  180.4620  138.5570 C   0  0  0  0  0  3  0  0  0  0  0  0
  182.3260  178.0470  138.7490 C   0  0  0  0  0  3  0  0  0  0  0  0
  180.5700  181.8360  136.9550 Cl  0  0  0  0  0  0  0  0  0  0  0  0
  186.3970  178.5990  145.3460 N   0  0  0  0  0  2  0  0  0  0  0  0
  186.7310  177.7190  146.4640 C   0  0  0  0  0  2  0  0  0  0  0  0
  188.2130  177.4700  148.8950 F   0  0  0  0  0  0  0  0  0  0  0  0
  188.2000  177.4810  146.4980 C   0  0  0  0  0  0  0  0  0  0  0  0
  188.8800  177.3560  147.7200 C   0  0  0  0  0  0  0  0  0  0  0  0
  190.9560  176.9880  146.5260 C   0  0  0  0  0  3  0  0  0  0  0  0
  190.2800  177.1060  145.3090 C   0  0  0  0  0  3  0  0  0  0  0  0
  188.9030  177.3490  145.2950 C   0  0  0  0  0  3  0  0  0  0  0  0
  190.2570  177.1130  147.7300 C   0  0  0  0  0  3  0  0  0  0  0  0
  1  8  1  0  0  0  0
  2 13  1  0  0  0  0
  3  8  1  6  0  0  0
  3 17  1  0  0  0  0
  4 14  1  6  0  0  0
  4  9  1  0  0  0  0
  5  6  2  0  0  0  0
  6  2  1  0  0  0  0
  7 16  1  0  0  0  0
  8  2  2  0  0  0  0
  9 16  1  0  0  0  0
 10  1  2  0  0  0  0
 10  5  1  0  0  0  0
 11 18  1  6  0  0  0
 11 15  1  0  0  0  0
 11  3  1  0  0  0  0
 12 18  1  0  0  0  0
 12  1  1  0  0  0  0
 15 21  1  6  0  0  0
 15 14  1  0  0  0  0
 16 26  1  1  0  0  0
 17  4  1  0  0  0  0
 17  7  1  1  0  0  0
 19 23  1  0  0  0  0
 20 19  2  0  0  0  0
 20 22  1  0  0  0  0
 22 24  2  0  0  0  0
 23 21  2  0  0  0  0
 24 21  1  0  0  0  0
 25 19  1  0  0  0  0
 26 27  1  0  0  0  0
 27 29  1  0  0  0  0
 29 30  1  0  0  0  0
 30 34  2  0  0  0  0
 30 28  1  0  0  0  0
 31 34  1  0  0  0  0
 32 31  2  0  0  0  0
 33 32  1  0  0  0  0
 33 29  2  0  0  0  0
M  END
>  <MODEL>
4

>  <REMARK>
 VINA RESULT:      -9.8      3.733      7.442
  Name = 
  4 active torsions:
  status: ('A' for Active; 'I' for Inactive)
    1  A    between atoms: C_3  and  C_13
    2  A    between atoms: C_3  and  N_17
    3  A    between atoms: C_12  and  C_28
    4  A    between atoms: N_17  and  C_29
                            x       y       z     vdW  Elec       q    Type
                         _______ _______ _______ _____ _____    ______ ____

>  <TORSDO>
F 4

$$$$
=
 OpenBabel11052413573D

 34 39  0  0  1  0  0  0  0  0999 V2000
  188.6710  177.3020  139.1000 C   0  0  0  0  0  0  0  0  0  0  0  0
  190.0590  177.6010  141.0310 C   0  0  0  0  0  0  0  0  0  0  0  0
  187.5390  178.2400  141.1720 C   0  0  1  0  0  3  0  0  0  0  0  0
  186.1230  178.3590  143.0390 C   0  0  2  0  0  3  0  0  0  0  0  0
  190.8980  176.5300  139.0920 C   0  0  0  0  0  3  0  0  0  0  0  0
  191.0740  177.0070  140.3500 N   0  0  0  0  0  0  0  0  0  0  0  0
  188.0750  177.2380  143.3870 C   0  0  0  0  0  2  0  0  0  0  0  0
  188.7680  177.6530  140.4610 C   0  0  0  0  0  0  0  0  0  0  0  0
  185.9570  177.8160  144.4350 C   0  0  0  0  0  2  0  0  0  0  0  0
  189.7110  176.7080  138.4630 N   0  0  0  0  0  0  0  0  0  0  0  0
  186.3110  178.2300  140.2260 C   0  0  1  0  0  3  0  0  0  0  0  0
  187.5160  177.6990  138.3560 N   0  0  0  0  0  2  0  0  0  0  0  0
  190.3590  178.2700  142.2510 N   0  0  0  0  0  1  0  0  0  0  0  0
  184.8240  178.4500  142.2450 C   0  0  0  0  0  2  0  0  0  0  0  0
  185.1360  179.0040  140.8450 C   0  0  2  0  0  3  0  0  0  0  0  0
  187.3170  177.1910  144.7100 C   0  0  2  0  0  3  0  0  0  0  0  0
  187.0800  177.4910  142.3570 N   0  0  2  0  0  0  0  0  0  0  0  0
  186.6520  178.6740  138.8840 N   0  0  0  0  0  2  0  0  0  0  0  0
  181.9920  177.7050  139.1760 C   0  0  0  0  0  0  0  0  0  0  0  0
  181.6140  178.7960  138.3860 C   0  0  0  0  0  3  0  0  0  0  0  0
  183.9130  178.9470  139.9810 C   0  0  0  0  0  0  0  0  0  0  0  0
  182.3840  179.9630  138.3910 C   0  0  0  0  0  3  0  0  0  0  0  0
  183.1380  177.7820  139.9710 C   0  0  0  0  0  3  0  0  0  0  0  0
  183.5310  180.0400  139.1870 C   0  0  0  0  0  3  0  0  0  0  0  0
  181.0280  176.2460  139.1690 Cl  0  0  0  0  0  0  0  0  0  0  0  0
  188.0410  177.8710  145.7900 N   0  0  0  0  0  2  0  0  0  0  0  0
  189.3880  178.2510  145.3690 C   0  0  0  0  0  2  0  0  0  0  0  0
  189.8180  177.9270  148.1760 F   0  0  0  0  0  0  0  0  0  0  0  0
  190.3810  177.2950  145.9330 C   0  0  0  0  0  0  0  0  0  0  0  0
  190.5460  177.1660  147.3210 C   0  0  0  0  0  0  0  0  0  0  0  0
  192.2240  175.4550  146.9610 C   0  0  0  0  0  3  0  0  0  0  0  0
  192.0560  175.5770  145.5790 C   0  0  0  0  0  3  0  0  0  0  0  0
  191.1330  176.4950  145.0660 C   0  0  0  0  0  3  0  0  0  0  0  0
  191.4700  176.2480  147.8300 C   0  0  0  0  0  3  0  0  0  0  0  0
  1  8  1  0  0  0  0
  2 13  1  0  0  0  0
  3  8  1  6  0  0  0
  3 17  1  0  0  0  0
  4 14  1  6  0  0  0
  4  9  1  0  0  0  0
  5  6  2  0  0  0  0
  6  2  1  0  0  0  0
  7 16  1  0  0  0  0
  8  2  2  0  0  0  0
  9 16  1  0  0  0  0
 10  5  1  0  0  0  0
 10  1  2  0  0  0  0
 11 18  1  6  0  0  0
 11 15  1  0  0  0  0
 11  3  1  0  0  0  0
 12 18  1  0  0  0  0
 12  1  1  0  0  0  0
 15 21  1  6  0  0  0
 15 14  1  0  0  0  0
 16 26  1  1  0  0  0
 17  4  1  0  0  0  0
 17  7  1  1  0  0  0
 19 23  1  0  0  0  0
 20 22  1  0  0  0  0
 20 19  2  0  0  0  0
 22 24  2  0  0  0  0
 23 21  2  0  0  0  0
 24 21  1  0  0  0  0
 25 19  1  0  0  0  0
 27 26  1  0  0  0  0
 27 29  1  0  0  0  0
 29 30  1  0  0  0  0
 30 34  2  0  0  0  0
 30 28  1  0  0  0  0
 31 34  1  0  0  0  0
 32 31  2  0  0  0  0
 33 32  1  0  0  0  0
 33 29  2  0  0  0  0
M  END
>  <MODEL>
5

>  <REMARK>
 VINA RESULT:      -9.8      3.026      6.643
  Name = 
  4 active torsions:
  status: ('A' for Active; 'I' for Inactive)
    1  A    between atoms: C_3  and  C_13
    2  A    between atoms: C_3  and  N_17
    3  A    between atoms: C_12  and  C_28
    4  A    between atoms: N_17  and  C_29
                            x       y       z     vdW  Elec       q    Type
                         _______ _______ _______ _____ _____    ______ ____

>  <TORSDO>
F 4

$$$$
=
 OpenBabel11052413573D

 34 39  0  0  1  0  0  0  0  0999 V2000
  192.1680  175.4640  136.9540 C   0  0  0  0  0  0  0  0  0  0  0  0
  193.2760  176.4320  138.8460 C   0  0  0  0  0  0  0  0  0  0  0  0
  190.7830  177.0310  138.3970 C   0  0  1  0  0  3  0  0  0  0  0  0
  189.1200  177.7520  139.8870 C   0  0  2  0  0  3  0  0  0  0  0  0
  194.3480  174.7810  137.5300 C   0  0  0  0  0  3  0  0  0  0  0  0
  194.3590  175.6620  138.5610 N   0  0  0  0  0  0  0  0  0  0  0  0
  190.9670  176.8560  140.8730 C   0  0  0  0  0  2  0  0  0  0  0  0
  192.0810  176.2610  138.1130 C   0  0  0  0  0  0  0  0  0  0  0  0
  188.7420  177.7160  141.3460 C   0  0  0  0  0  2  0  0  0  0  0  0
  193.2690  174.7090  136.7140 N   0  0  0  0  0  0  0  0  0  0  0  0
  189.7010  176.6740  137.3450 C   0  0  1  0  0  3  0  0  0  0  0  0
  191.1430  175.5610  135.9620 N   0  0  0  0  0  2  0  0  0  0  0  0
  193.4200  177.4830  139.7950 N   0  0  0  0  0  1  0  0  0  0  0  0
  187.9500  177.5410  138.9320 C   0  0  0  0  0  2  0  0  0  0  0  0
  188.4740  177.5890  137.4870 C   0  0  2  0  0  3  0  0  0  0  0  0
  190.0280  177.2500  142.0100 C   0  0  2  0  0  3  0  0  0  0  0  0
  190.1370  176.7230  139.6870 N   0  0  2  0  0  0  0  0  0  0  0  0
  190.2430  176.6390  135.9960 N   0  0  0  0  0  2  0  0  0  0  0  0
  185.7460  175.5980  135.7700 C   0  0  0  0  0  0  0  0  0  0  0  0
  185.3400  176.4780  134.7620 C   0  0  0  0  0  3  0  0  0  0  0  0
  187.3850  177.2170  136.5280 C   0  0  0  0  0  0  0  0  0  0  0  0
  185.9540  177.7270  134.6330 C   0  0  0  0  0  3  0  0  0  0  0  0
  186.7660  175.9680  136.6510 C   0  0  0  0  0  3  0  0  0  0  0  0
  186.9750  178.0970  135.5150 C   0  0  0  0  0  3  0  0  0  0  0  0
  184.9760  174.0360  135.9300 Cl  0  0  0  0  0  0  0  0  0  0  0  0
  190.6130  178.2710  142.8850 N   0  0  0  0  0  2  0  0  0  0  0  0
  191.4180  177.6660  143.9440 C   0  0  0  0  0  2  0  0  0  0  0  0
  192.3740  176.3260  146.2800 F   0  0  0  0  0  0  0  0  0  0  0  0
  190.5790  177.4450  145.1530 C   0  0  0  0  0  0  0  0  0  0  0  0
  191.1000  176.7900  146.2800 C   0  0  0  0  0  0  0  0  0  0  0  0
  188.9870  177.0870  147.4290 C   0  0  0  0  0  3  0  0  0  0  0  0
  188.4690  177.7450  146.3110 C   0  0  0  0  0  3  0  0  0  0  0  0
  189.2650  177.9270  145.1750 C   0  0  0  0  0  3  0  0  0  0  0  0
  190.3010  176.6110  147.4130 C   0  0  0  0  0  3  0  0  0  0  0  0
  1  8  1  0  0  0  0
  2 13  1  0  0  0  0
  3  8  1  6  0  0  0
  3 17  1  0  0  0  0
  4 14  1  6  0  0  0
  4  9  1  0  0  0  0
  5  6  2  0  0  0  0
  6  2  1  0  0  0  0
  7 16  1  0  0  0  0
  8  2  2  0  0  0  0
  9 16  1  0  0  0  0
 10  1  2  0  0  0  0
 10  5  1  0  0  0  0
 11 18  1  6  0  0  0
 11 15  1  0  0  0  0
 11  3  1  0  0  0  0
 12 18  1  0  0  0  0
 12  1  1  0  0  0  0
 15 21  1  6  0  0  0
 15 14  1  0  0  0  0
 16 26  1  6  0  0  0
 17  4  1  0  0  0  0
 17  7  1  1  0  0  0
 19 25  1  0  0  0  0
 19 23  1  0  0  0  0
 20 19  2  0  0  0  0
 21 23  2  0  0  0  0
 22 20  1  0  0  0  0
 22 24  2  0  0  0  0
 24 21  1  0  0  0  0
 26 27  1  0  0  0  0
 27 29  1  0  0  0  0
 28 30  1  0  0  0  0
 29 33  2  0  0  0  0
 29 30  1  0  0  0  0
 30 34  2  0  0  0  0
 32 31  2  0  0  0  0
 33 32  1  0  0  0  0
 34 31  1  0  0  0  0
M  END
>  <MODEL>
6

>  <REMARK>
 VINA RESULT:      -9.6      3.665      8.015
  Name = 
  4 active torsions:
  status: ('A' for Active; 'I' for Inactive)
    1  A    between atoms: C_3  and  C_13
    2  A    between atoms: C_3  and  N_17
    3  A    between atoms: C_12  and  C_28
    4  A    between atoms: N_17  and  C_29
                            x       y       z     vdW  Elec       q    Type
                         _______ _______ _______ _____ _____    ______ ____

>  <TORSDO>
F 4

$$$$
=
 OpenBabel11052413573D

 34 39  0  0  1  0  0  0  0  0999 V2000
  190.9990  177.3670  141.4630 C   0  0  0  0  0  0  0  0  0  0  0  0
  189.5670  177.0970  139.5590 C   0  0  0  0  0  0  0  0  0  0  0  0
  188.5060  177.2300  141.9330 C   0  0  1  0  0  3  0  0  0  0  0  0
  186.3510  177.9000  142.5780 C   0  0  2  0  0  3  0  0  0  0  0  0
  191.8900  177.4670  139.2840 C   0  0  0  0  0  3  0  0  0  0  0  0
  190.6610  177.2300  138.7630 N   0  0  0  0  0  0  0  0  0  0  0  0
  186.9380  178.4770  140.4550 C   0  0  0  0  0  2  0  0  0  0  0  0
  189.6870  177.2910  140.9530 C   0  0  0  0  0  0  0  0  0  0  0  0
  185.1880  178.7430  142.1230 C   0  0  0  0  0  2  0  0  0  0  0  0
  192.0590  177.5030  140.6280 N   0  0  0  0  0  0  0  0  0  0  0  0
  189.0040  177.3890  143.3920 C   0  0  1  0  0  3  0  0  0  0  0  0
  191.2180  177.1640  142.8610 N   0  0  0  0  0  2  0  0  0  0  0  0
  188.3530  176.6380  138.9760 N   0  0  0  0  0  1  0  0  0  0  0  0
  186.6610  178.0130  144.0670 C   0  0  0  0  0  2  0  0  0  0  0  0
  187.8690  177.1180  144.3920 C   0  0  2  0  0  3  0  0  0  0  0  0
  185.5210  179.0050  140.6620 C   0  0  2  0  0  3  0  0  0  0  0  0
  187.5070  178.3050  141.7820 N   0  0  2  0  0  0  0  0  0  0  0  0
  190.1990  176.6000  143.6490 N   0  0  0  0  0  2  0  0  0  0  0  0
  190.0470  177.1850  147.4910 C   0  0  0  0  0  0  0  0  0  0  0  0
  189.1770  177.7270  148.4420 C   0  0  0  0  0  3  0  0  0  0  0  0
  188.3080  177.3350  145.8080 C   0  0  0  0  0  0  0  0  0  0  0  0
  187.8720  178.0730  148.0810 C   0  0  0  0  0  3  0  0  0  0  0  0
  189.6130  176.9910  146.1770 C   0  0  0  0  0  3  0  0  0  0  0  0
  187.4380  177.8780  146.7660 C   0  0  0  0  0  3  0  0  0  0  0  0
  191.6800  176.7530  147.9460 Cl  0  0  0  0  0  0  0  0  0  0  0  0
  184.5580  178.3880  139.7440 N   0  0  0  0  0  2  0  0  0  0  0  0
  185.0040  178.4930  138.3570 C   0  0  0  0  0  2  0  0  0  0  0  0
  182.3180  178.5910  137.3860 F   0  0  0  0  0  0  0  0  0  0  0  0
  184.3940  177.4020  137.5470 C   0  0  0  0  0  0  0  0  0  0  0  0
  183.0720  177.5040  137.0850 C   0  0  0  0  0  0  0  0  0  0  0  0
  183.2910  175.3540  135.9890 C   0  0  0  0  0  3  0  0  0  0  0  0
  184.6080  175.2540  136.4420 C   0  0  0  0  0  3  0  0  0  0  0  0
  185.1600  176.2780  137.2190 C   0  0  0  0  0  3  0  0  0  0  0  0
  182.5240  176.4780  136.3100 C   0  0  0  0  0  3  0  0  0  0  0  0
  1 12  1  0  0  0  0
  2  8  2  0  0  0  0
  3  8  1  6  0  0  0
  3 11  1  0  0  0  0
  4  9  1  6  0  0  0
  4 14  1  0  0  0  0
  5 10  1  0  0  0  0
  6  5  2  0  0  0  0
  6  2  1  0  0  0  0
  7 16  1  0  0  0  0
  8  1  1  0  0  0  0
 10  1  2  0  0  0  0
 11 18  1  1  0  0  0
 11 15  1  0  0  0  0
 12 18  1  0  0  0  0
 13  2  1  0  0  0  0
 14 15  1  0  0  0  0
 15 21  1  1  0  0  0
 16 26  1  6  0  0  0
 16  9  1  0  0  0  0
 17  7  1  6  0  0  0
 17  3  1  0  0  0  0
 17  4  1  0  0  0  0
 19 25  1  0  0  0  0
 19 20  1  0  0  0  0
 21 23  1  0  0  0  0
 21 24  2  0  0  0  0
 22 20  2  0  0  0  0
 23 19  2  0  0  0  0
 24 22  1  0  0  0  0
 27 26  1  0  0  0  0
 29 27  1  0  0  0  0
 30 28  1  0  0  0  0
 30 29  2  0  0  0  0
 31 34  2  0  0  0  0
 31 32  1  0  0  0  0
 32 33  2  0  0  0  0
 33 29  1  0  0  0  0
 34 30  1  0  0  0  0
M  END
>  <MODEL>
7

>  <REMARK>
 VINA RESULT:      -9.4      4.060      6.591
  Name = 
  4 active torsions:
  status: ('A' for Active; 'I' for Inactive)
    1  A    between atoms: C_3  and  C_13
    2  A    between atoms: C_3  and  N_17
    3  A    between atoms: C_12  and  C_28
    4  A    between atoms: N_17  and  C_29
                            x       y       z     vdW  Elec       q    Type
                         _______ _______ _______ _____ _____    ______ ____

>  <TORSDO>
F 4

$$$$
=
 OpenBabel11052413573D

 34 39  0  0  1  0  0  0  0  0999 V2000
  186.2160  178.3280  139.7900 C   0  0  0  0  0  0  0  0  0  0  0  0
  188.2800  178.6270  140.9730 C   0  0  0  0  0  0  0  0  0  0  0  0
  186.0340  178.7970  142.2810 C   0  0  1  0  0  3  0  0  0  0  0  0
  185.5920  178.4410  144.5570 C   0  0  2  0  0  3  0  0  0  0  0  0
  188.2740  177.9610  138.7010 C   0  0  0  0  0  3  0  0  0  0  0  0
  188.9410  178.3060  139.8300 N   0  0  0  0  0  0  0  0  0  0  0  0
  187.5990  177.6420  143.8350 C   0  0  0  0  0  2  0  0  0  0  0  0
  186.8720  178.5230  141.0230 C   0  0  0  0  0  0  0  0  0  0  0  0
  186.1220  177.7120  145.7660 C   0  0  0  0  0  2  0  0  0  0  0  0
  186.9190  178.0050  138.6760 N   0  0  0  0  0  0  0  0  0  0  0  0
  184.5220  178.6880  141.9580 C   0  0  1  0  0  3  0  0  0  0  0  0
  184.8180  178.6060  139.6910 N   0  0  0  0  0  2  0  0  0  0  0  0
  189.0200  179.1850  142.0530 N   0  0  0  0  0  1  0  0  0  0  0  0
  184.0740  178.4010  144.4180 C   0  0  0  0  0  2  0  0  0  0  0  0
  183.6720  179.1660  143.1460 C   0  0  2  0  0  3  0  0  0  0  0  0
  187.5180  177.3050  145.3210 C   0  0  2  0  0  3  0  0  0  0  0  0
  186.2300  177.8420  143.3880 N   0  0  2  0  0  0  0  0  0  0  0  0
  184.1830  179.3440  140.7050 N   0  0  0  0  0  2  0  0  0  0  0  0
  180.3850  178.8230  141.2940 C   0  0  0  0  0  0  0  0  0  0  0  0
  179.4740  178.6940  142.3470 C   0  0  0  0  0  3  0  0  0  0  0  0
  182.2050  179.0030  142.8860 C   0  0  0  0  0  0  0  0  0  0  0  0
  179.9240  178.7210  143.6700 C   0  0  0  0  0  3  0  0  0  0  0  0
  181.7470  178.9750  141.5630 C   0  0  0  0  0  3  0  0  0  0  0  0
  181.2880  178.8740  143.9390 C   0  0  0  0  0  3  0  0  0  0  0  0
  179.8190  178.7890  139.6390 Cl  0  0  0  0  0  0  0  0  0  0  0  0
  188.5720  177.9630  146.0980 N   0  0  0  0  0  2  0  0  0  0  0  0
  189.7590  178.2110  145.2830 C   0  0  0  0  0  2  0  0  0  0  0  0
  190.8460  177.3360  147.7770 F   0  0  0  0  0  0  0  0  0  0  0  0
  190.7000  177.0620  145.4000 C   0  0  0  0  0  0  0  0  0  0  0  0
  191.1970  176.6660  146.6510 C   0  0  0  0  0  0  0  0  0  0  0  0
  192.4310  174.8690  145.5910 C   0  0  0  0  0  3  0  0  0  0  0  0
  191.9310  175.2590  144.3450 C   0  0  0  0  0  3  0  0  0  0  0  0
  191.0640  176.3520  144.2500 C   0  0  0  0  0  3  0  0  0  0  0  0
  192.0640  175.5720  146.7420 C   0  0  0  0  0  3  0  0  0  0  0  0
  1  8  1  0  0  0  0
  2  8  2  0  0  0  0
  2 13  1  0  0  0  0
  3  8  1  6  0  0  0
  3 17  1  0  0  0  0
  4 14  1  6  0  0  0
  4  9  1  0  0  0  0
  5  6  2  0  0  0  0
  6  2  1  0  0  0  0
  7 16  1  0  0  0  0
 10  5  1  0  0  0  0
 10  1  2  0  0  0  0
 11 18  1  6  0  0  0
 11  3  1  0  0  0  0
 11 15  1  0  0  0  0
 12  1  1  0  0  0  0
 12 18  1  0  0  0  0
 15 21  1  6  0  0  0
 15 14  1  0  0  0  0
 16  9  1  0  0  0  0
 16 26  1  1  0  0  0
 17  7  1  1  0  0  0
 17  4  1  0  0  0  0
 19 23  2  0  0  0  0
 19 20  1  0  0  0  0
 20 22  2  0  0  0  0
 21 24  2  0  0  0  0
 22 24  1  0  0  0  0
 23 21  1  0  0  0  0
 25 19  1  0  0  0  0
 27 29  1  0  0  0  0
 27 26  1  0  0  0  0
 29 30  1  0  0  0  0
 30 34  2  0  0  0  0
 30 28  1  0  0  0  0
 31 34  1  0  0  0  0
 32 31  2  0  0  0  0
 33 32  1  0  0  0  0
 33 29  2  0  0  0  0
M  END
>  <MODEL>
8

>  <REMARK>
 VINA RESULT:      -9.3      3.489      6.416
  Name = 
  4 active torsions:
  status: ('A' for Active; 'I' for Inactive)
    1  A    between atoms: C_3  and  C_13
    2  A    between atoms: C_3  and  N_17
    3  A    between atoms: C_12  and  C_28
    4  A    between atoms: N_17  and  C_29
                            x       y       z     vdW  Elec       q    Type
                         _______ _______ _______ _____ _____    ______ ____

>  <TORSDO>
F 4

$$$$
=
 OpenBabel11052413573D

 34 39  0  0  1  0  0  0  0  0999 V2000
  188.9740  178.3560  139.5260 C   0  0  0  0  0  0  0  0  0  0  0  0
  186.7950  178.2530  138.5310 C   0  0  0  0  0  0  0  0  0  0  0  0
  187.0470  177.7810  141.0790 C   0  0  1  0  0  3  0  0  0  0  0  0
  185.4770  178.0040  142.8090 C   0  0  2  0  0  3  0  0  0  0  0  0
  188.6640  178.9940  137.2780 C   0  0  0  0  0  3  0  0  0  0  0  0
  187.3450  178.6890  137.3670 N   0  0  0  0  0  0  0  0  0  0  0  0
  184.9170  179.0520  140.8660 C   0  0  0  0  0  2  0  0  0  0  0  0
  187.5840  178.1940  139.7010 C   0  0  0  0  0  0  0  0  0  0  0  0
  184.2160  178.7450  143.1750 C   0  0  0  0  0  2  0  0  0  0  0  0
  189.4760  178.7960  138.3450 N   0  0  0  0  0  0  0  0  0  0  0  0
  188.1980  177.7270  142.1150 C   0  0  1  0  0  3  0  0  0  0  0  0
  189.8630  177.9230  140.5580 N   0  0  0  0  0  2  0  0  0  0  0  0
  185.4660  177.7460  138.5070 N   0  0  0  0  0  1  0  0  0  0  0  0
  186.4810  177.8740  143.9490 C   0  0  0  0  0  2  0  0  0  0  0  0
  187.7160  177.1140  143.4400 C   0  0  2  0  0  3  0  0  0  0  0  0
  183.7740  179.3250  141.8400 C   0  0  2  0  0  3  0  0  0  0  0  0
  186.0730  178.7120  141.6790 N   0  0  2  0  0  0  0  0  0  0  0  0
  189.3860  177.0820  141.5780 N   0  0  0  0  0  2  0  0  0  0  0  0
  189.4610  177.5060  146.7800 C   0  0  0  0  0  0  0  0  0  0  0  0
  190.7710  177.1330  146.4650 C   0  0  0  0  0  3  0  0  0  0  0  0
  188.7930  177.1170  144.4810 C   0  0  0  0  0  0  0  0  0  0  0  0
  191.0970  176.7530  145.1600 C   0  0  0  0  0  3  0  0  0  0  0  0
  188.4750  177.4970  145.7900 C   0  0  0  0  0  3  0  0  0  0  0  0
  190.1100  176.7440  144.1690 C   0  0  0  0  0  3  0  0  0  0  0  0
  189.0560  177.9810  148.4140 Cl  0  0  0  0  0  0  0  0  0  0  0  0
  182.5020  178.7640  141.3760 N   0  0  0  0  0  2  0  0  0  0  0  0
  182.7140  177.7200  140.3760 C   0  0  0  0  0  2  0  0  0  0  0  0
  182.6100  175.2610  138.9230 F   0  0  0  0  0  0  0  0  0  0  0  0
  181.4570  176.9450  140.1820 C   0  0  0  0  0  0  0  0  0  0  0  0
  181.4620  175.7360  139.4690 C   0  0  0  0  0  0  0  0  0  0  0  0
  179.0860  175.4870  139.8760 C   0  0  0  0  0  3  0  0  0  0  0  0
  179.0810  176.6870  140.5920 C   0  0  0  0  0  3  0  0  0  0  0  0
  180.2660  177.4130  140.7480 C   0  0  0  0  0  3  0  0  0  0  0  0
  180.2750  175.0120  139.3150 C   0  0  0  0  0  3  0  0  0  0  0  0
  1  8  1  0  0  0  0
  1 12  1  0  0  0  0
  2  8  2  0  0  0  0
  3  8  1  6  0  0  0
  3 17  1  0  0  0  0
  3 11  1  0  0  0  0
  4  9  1  1  0  0  0
  4 14  1  0  0  0  0
  5  6  2  0  0  0  0
  5 10  1  0  0  0  0
  6  2  1  0  0  0  0
  7 16  1  0  0  0  0
 10  1  2  0  0  0  0
 11 18  1  6  0  0  0
 11 15  1  0  0  0  0
 12 18  1  0  0  0  0
 13  2  1  0  0  0  0
 15 14  1  0  0  0  0
 15 21  1  1  0  0  0
 16 26  1  6  0  0  0
 16  9  1  0  0  0  0
 17  7  1  6  0  0  0
 17  4  1  0  0  0  0
 19 25  1  0  0  0  0
 20 19  1  0  0  0  0
 21 23  1  0  0  0  0
 22 20  2  0  0  0  0
 23 19  2  0  0  0  0
 24 21  2  0  0  0  0
 24 22  1  0  0  0  0
 27 26  1  0  0  0  0
 28 30  1  0  0  0  0
 29 27  1  0  0  0  0
 29 33  1  0  0  0  0
 30 29  2  0  0  0  0
 31 32  1  0  0  0  0
 32 33  2  0  0  0  0
 34 30  1  0  0  0  0
 34 31  2  0  0  0  0
M  END
>  <MODEL>
9

>  <REMARK>
 VINA RESULT:      -9.3      3.932      8.368
  Name = 
  4 active torsions:
  status: ('A' for Active; 'I' for Inactive)
    1  A    between atoms: C_3  and  C_13
    2  A    between atoms: C_3  and  N_17
    3  A    between atoms: C_12  and  C_28
    4  A    between atoms: N_17  and  C_29
                            x       y       z     vdW  Elec       q    Type
                         _______ _______ _______ _____ _____    ______ ____

>  <TORSDO>
F 4

$$$$
