=
 OpenBabel11052414213D

 34 39  0  0  1  0  0  0  0  0999 V2000
  187.8480  177.4880  146.7940 C   0  0  2  0  0  3  0  0  0  0  0  0
  184.5670  178.2880  147.3120 O   0  0  0  0  0  1  0  0  0  0  0  0
  182.2920  178.6610  141.2700 C   0  0  0  0  0  3  0  0  0  0  0  0
  186.7360  177.8670  144.5950 C   0  0  0  0  0  0  0  0  0  0  0  0
  185.8620  178.3250  142.3710 C   0  0  0  0  0  0  0  0  0  0  0  0
  186.6850  178.7540  148.1000 O   0  0  0  0  0  0  0  0  0  0  0  0
  185.8550  178.6850  146.9500 C   0  0  0  0  0  0  0  0  0  0  0  0
  184.2470  178.2790  144.3090 C   0  0  0  0  0  2  0  0  0  0  0  0
  181.1090  178.7660  141.7830 N   0  0  0  0  0  0  0  0  0  0  0  0
  186.5440  177.6100  146.0860 C   0  0  2  0  0  3  0  0  0  0  0  0
  183.3700  179.1970  143.4750 C   0  0  0  0  0  2  0  0  0  0  0  0
  184.7660  178.7480  141.4270 C   0  0  0  0  0  2  0  0  0  0  0  0
  187.8820  178.1110  147.9180 N   0  0  0  0  0  2  0  0  0  0  0  0
  187.9980  177.5770  144.0050 C   0  0  0  0  0  0  0  0  0  0  0  0
  189.0470  177.0290  146.1100 C   0  0  0  0  0  3  0  0  0  0  0  0
  185.8220  179.9320  146.3210 O   0  0  0  0  0  1  0  0  0  0  0  0
  187.0950  178.1040  141.8550 N   0  0  0  0  0  0  0  0  0  0  0  0
  188.1640  177.7340  142.6100 C   0  0  0  0  0  0  0  0  0  0  0  0
  183.4620  178.7930  142.0770 N   0  0  0  0  0  0  0  0  0  0  0  0
  185.6470  178.2010  143.7590 C   0  0  0  0  0  0  0  0  0  0  0  0
  189.0830  177.0720  144.8130 N   0  0  0  0  0  0  0  0  0  0  0  0
  190.7020  176.9020  139.9440 N   0  0  0  0  0  0  0  0  0  0  0  0
  191.9760  177.3970  140.4680 C   0  0  0  0  0  2  0  0  0  0  0  0
  189.4620  177.5080  141.9200 C   0  0  0  0  0  0  0  0  0  0  0  0
  191.9160  177.6510  141.9490 C   0  0  0  0  0  3  0  0  0  0  0  0
  189.4680  177.1060  140.6450 C   0  0  0  0  0  3  0  0  0  0  0  0
  190.7540  177.7300  142.6010 C   0  0  0  0  0  3  0  0  0  0  0  0
  190.6570  176.3890  138.5880 C   0  0  0  0  0  1  0  0  0  0  0  0
  179.8620  176.9620  139.2470 O   0  0  0  0  0  1  0  0  0  0  0  0
  180.3150  178.2480  139.5340 C   0  0  2  0  0  3  0  0  0  0  0  0
  179.4340  180.4810  139.4530 C   0  0  0  0  0  2  0  0  0  0  0  0
  179.2140  179.9730  140.8620 C   0  0  0  0  0  2  0  0  0  0  0  0
  179.9210  178.6330  140.9530 C   0  0  2  0  0  3  0  0  0  0  0  0
  179.6450  179.2440  138.6140 C   0  0  0  0  0  2  0  0  0  0  0  0
  1 15  1  6  0  0  0
  1 13  1  0  0  0  0
  3  9  2  0  0  0  0
  3 19  1  0  0  0  0
  5 20  1  0  0  0  0
  7  2  1  0  0  0  0
  7  6  1  0  0  0  0
 10  4  1  6  0  0  0
 10  1  1  0  0  0  0
 10  7  1  0  0  0  0
 11  8  1  0  0  0  0
 12 19  1  0  0  0  0
 12  5  1  0  0  0  0
 13  6  1  0  0  0  0
 14  4  1  0  0  0  0
 14 21  1  0  0  0  0
 16  7  1  0  0  0  0
 17  5  2  0  0  0  0
 17 18  1  0  0  0  0
 18 14  2  0  0  0  0
 19 11  1  0  0  0  0
 20  8  1  0  0  0  0
 20  4  2  0  0  0  0
 21 15  2  0  0  0  0
 22 23  1  0  0  0  0
 22 26  1  0  0  0  0
 23 25  1  0  0  0  0
 24 27  1  0  0  0  0
 24 18  1  0  0  0  0
 25 27  2  0  0  0  0
 26 24  2  0  0  0  0
 28 22  1  0  0  0  0
 30 29  1  6  0  0  0
 30 33  1  0  0  0  0
 31 32  1  0  0  0  0
 32 33  1  0  0  0  0
 33  9  1  1  0  0  0
 34 31  1  0  0  0  0
 34 30  1  0  0  0  0
M  END
>  <MODEL>
1

>  <REMARK>
 VINA RESULT:     -10.5      0.000      0.000
  Name = 
  2 active torsions:
  status: ('A' for Active; 'I' for Inactive)
    1  A    between atoms: C_12  and  C_28
    2  A    between atoms: N_13  and  C_33
                            x       y       z     vdW  Elec       q    Type
                         _______ _______ _______ _____ _____    ______ ____

>  <TORSDO>
F 2

$$$$
=
 OpenBabel11052414213D

 34 39  0  0  1  0  0  0  0  0999 V2000
  189.8910  176.8060  146.6240 C   0  0  2  0  0  3  0  0  0  0  0  0
  186.8620  177.6060  147.9870 O   0  0  0  0  0  1  0  0  0  0  0  0
  183.2220  178.5820  142.7320 C   0  0  0  0  0  3  0  0  0  0  0  0
  188.3000  177.4090  144.8000 C   0  0  0  0  0  0  0  0  0  0  0  0
  186.9360  178.0880  142.9030 C   0  0  0  0  0  0  0  0  0  0  0  0
  189.1230  177.9620  148.2780 O   0  0  0  0  0  0  0  0  0  0  0  0
  188.0400  178.0140  147.3620 C   0  0  0  0  0  0  0  0  0  0  0  0
  185.8320  177.8840  145.1630 C   0  0  0  0  0  2  0  0  0  0  0  0
  182.2010  178.6580  143.5230 N   0  0  0  0  0  0  0  0  0  0  0  0
  188.4600  177.0150  146.2650 C   0  0  2  0  0  3  0  0  0  0  0  0
  184.8170  178.8910  144.6490 C   0  0  0  0  0  2  0  0  0  0  0  0
  185.6630  178.6150  142.2930 C   0  0  0  0  0  2  0  0  0  0  0  0
  190.2160  177.3200  147.7560 N   0  0  0  0  0  2  0  0  0  0  0  0
  189.3710  177.1560  143.9000 C   0  0  0  0  0  0  0  0  0  0  0  0
  190.8720  176.3950  145.6320 C   0  0  0  0  0  3  0  0  0  0  0  0
  187.9040  179.3160  146.8710 O   0  0  0  0  0  1  0  0  0  0  0  0
  188.0010  177.8970  142.0870 N   0  0  0  0  0  0  0  0  0  0  0  0
  189.2050  177.4400  142.5250 C   0  0  0  0  0  0  0  0  0  0  0  0
  184.5560  178.6190  143.2410 N   0  0  0  0  0  0  0  0  0  0  0  0
  187.0560  177.8370  144.2850 C   0  0  0  0  0  0  0  0  0  0  0  0
  190.5980  176.5590  144.3740 N   0  0  0  0  0  0  0  0  0  0  0  0
  191.0160  176.5970  139.3250 N   0  0  0  0  0  0  0  0  0  0  0  0
  192.3310  177.2260  139.4580 C   0  0  0  0  0  2  0  0  0  0  0  0
  190.2900  177.2610  141.5250 C   0  0  0  0  0  0  0  0  0  0  0  0
  192.6400  177.5900  140.8840 C   0  0  0  0  0  3  0  0  0  0  0  0
  189.9980  176.7620  140.3190 C   0  0  0  0  0  3  0  0  0  0  0  0
  191.6900  177.6320  141.8200 C   0  0  0  0  0  3  0  0  0  0  0  0
  190.6640  175.9790  138.0610 C   0  0  0  0  0  1  0  0  0  0  0  0
  180.1660  180.2490  141.3860 O   0  0  0  0  0  1  0  0  0  0  0  0
  180.3410  180.0360  142.7520 C   0  0  2  0  0  3  0  0  0  0  0  0
  179.0600  179.1230  144.5670 C   0  0  0  0  0  2  0  0  0  0  0  0
  179.9190  178.0000  144.0270 C   0  0  0  0  0  2  0  0  0  0  0  0
  180.8450  178.6220  142.9970 C   0  0  2  0  0  3  0  0  0  0  0  0
  179.0100  180.1510  143.4620 C   0  0  0  0  0  2  0  0  0  0  0  0
  1 15  1  6  0  0  0
  1 13  1  0  0  0  0
  3 19  1  0  0  0  0
  3  9  2  0  0  0  0
  5 20  2  0  0  0  0
  7  2  1  0  0  0  0
  7  6  1  0  0  0  0
 10  4  1  6  0  0  0
 10  1  1  0  0  0  0
 10  7  1  0  0  0  0
 11  8  1  0  0  0  0
 12  5  1  0  0  0  0
 12 19  1  0  0  0  0
 13  6  1  0  0  0  0
 14 21  1  0  0  0  0
 14  4  2  0  0  0  0
 16  7  1  0  0  0  0
 17 18  2  0  0  0  0
 17  5  1  0  0  0  0
 18 14  1  0  0  0  0
 19 11  1  0  0  0  0
 20  4  1  0  0  0  0
 20  8  1  0  0  0  0
 21 15  2  0  0  0  0
 22 23  1  0  0  0  0
 22 26  1  0  0  0  0
 23 25  1  0  0  0  0
 24 27  1  0  0  0  0
 24 18  1  0  0  0  0
 25 27  2  0  0  0  0
 26 24  2  0  0  0  0
 28 22  1  0  0  0  0
 30 29  1  6  0  0  0
 30 33  1  0  0  0  0
 30 34  1  0  0  0  0
 32 31  1  0  0  0  0
 33  9  1  1  0  0  0
 33 32  1  0  0  0  0
 34 31  1  0  0  0  0
M  END
>  <MODEL>
2

>  <REMARK>
 VINA RESULT:      -9.3      1.863      2.313
  Name = 
  2 active torsions:
  status: ('A' for Active; 'I' for Inactive)
    1  A    between atoms: C_12  and  C_28
    2  A    between atoms: N_13  and  C_33
                            x       y       z     vdW  Elec       q    Type
                         _______ _______ _______ _____ _____    ______ ____

>  <TORSDO>
F 2

$$$$
=
 OpenBabel11052414213D

 34 39  0  0  1  0  0  0  0  0999 V2000
  188.1750  177.3790  146.6140 C   0  0  2  0  0  3  0  0  0  0  0  0
  185.0060  178.1260  147.6500 O   0  0  0  0  0  1  0  0  0  0  0  0
  181.8860  178.8860  142.0370 C   0  0  0  0  0  3  0  0  0  0  0  0
  186.7590  177.8960  144.6270 C   0  0  0  0  0  0  0  0  0  0  0  0
  185.5760  178.4960  142.5880 C   0  0  0  0  0  0  0  0  0  0  0  0
  187.2170  178.5500  148.1550 O   0  0  0  0  0  0  0  0  0  0  0  0
  186.2300  178.5530  147.1340 C   0  0  0  0  0  0  0  0  0  0  0  0
  184.2570  178.3130  144.7310 C   0  0  0  0  0  2  0  0  0  0  0  0
  180.7900  178.9520  142.7210 N   0  0  0  0  0  0  0  0  0  0  0  0
  186.7830  177.5410  146.1100 C   0  0  2  0  0  3  0  0  0  0  0  0
  183.2730  179.2800  144.0940 C   0  0  0  0  0  2  0  0  0  0  0  0
  184.3580  178.9750  141.8420 C   0  0  0  0  0  2  0  0  0  0  0  0
  188.3730  177.9260  147.7600 N   0  0  0  0  0  2  0  0  0  0  0  0
  187.9210  177.6530  143.8440 C   0  0  0  0  0  0  0  0  0  0  0  0
  189.2600  176.9710  145.7360 C   0  0  0  0  0  3  0  0  0  0  0  0
  186.1130  179.8380  146.6000 O   0  0  0  0  0  1  0  0  0  0  0  0
  186.7210  178.3160  141.8860 N   0  0  0  0  0  0  0  0  0  0  0  0
  187.8860  177.9010  142.4530 C   0  0  0  0  0  0  0  0  0  0  0  0
  183.1610  178.9700  142.6750 N   0  0  0  0  0  0  0  0  0  0  0  0
  185.5630  178.2800  143.9810 C   0  0  0  0  0  0  0  0  0  0  0  0
  189.1100  177.1000  144.4520 N   0  0  0  0  0  0  0  0  0  0  0  0
  191.4370  177.3720  141.2930 N   0  0  0  0  0  0  0  0  0  0  0  0
  191.3250  177.0510  139.8690 C   0  0  0  0  0  2  0  0  0  0  0  0
  189.0690  177.7290  141.5710 C   0  0  0  0  0  0  0  0  0  0  0  0
  189.9860  177.4390  139.3080 C   0  0  0  0  0  3  0  0  0  0  0  0
  190.2790  177.5640  142.1160 C   0  0  0  0  0  3  0  0  0  0  0  0
  188.9480  177.7200  140.0980 C   0  0  0  0  0  3  0  0  0  0  0  0
  192.7370  177.2770  141.9290 C   0  0  0  0  0  1  0  0  0  0  0  0
  179.0260  177.0210  140.6220 O   0  0  0  0  0  1  0  0  0  0  0  0
  179.6510  178.2660  140.6740 C   0  0  2  0  0  3  0  0  0  0  0  0
  179.0140  180.5650  140.3940 C   0  0  0  0  0  2  0  0  0  0  0  0
  178.9310  180.2640  141.8750 C   0  0  0  0  0  2  0  0  0  0  0  0
  179.4950  178.8670  142.0640 C   0  0  2  0  0  3  0  0  0  0  0  0
  178.9760  179.2190  139.7130 C   0  0  0  0  0  2  0  0  0  0  0  0
  1 15  1  6  0  0  0
  1 13  1  0  0  0  0
  3 19  1  0  0  0  0
  3  9  2  0  0  0  0
  5 20  2  0  0  0  0
  7  2  1  0  0  0  0
  7  6  1  0  0  0  0
 10  4  1  6  0  0  0
 10  1  1  0  0  0  0
 10  7  1  0  0  0  0
 11  8  1  0  0  0  0
 12  5  1  0  0  0  0
 12 19  1  0  0  0  0
 13  6  1  0  0  0  0
 14 21  1  0  0  0  0
 14  4  2  0  0  0  0
 16  7  1  0  0  0  0
 17 18  2  0  0  0  0
 17  5  1  0  0  0  0
 18 14  1  0  0  0  0
 19 11  1  0  0  0  0
 20  4  1  0  0  0  0
 20  8  1  0  0  0  0
 21 15  2  0  0  0  0
 22 28  1  0  0  0  0
 22 26  1  0  0  0  0
 23 22  1  0  0  0  0
 24 26  2  0  0  0  0
 24 18  1  0  0  0  0
 25 23  1  0  0  0  0
 25 27  2  0  0  0  0
 27 24  1  0  0  0  0
 30 29  1  1  0  0  0
 30 33  1  0  0  0  0
 31 32  1  0  0  0  0
 32 33  1  0  0  0  0
 33  9  1  6  0  0  0
 34 31  1  0  0  0  0
 34 30  1  0  0  0  0
M  END
>  <MODEL>
3

>  <REMARK>
 VINA RESULT:      -9.1      0.800      1.315
  Name = 
  2 active torsions:
  status: ('A' for Active; 'I' for Inactive)
    1  A    between atoms: C_12  and  C_28
    2  A    between atoms: N_13  and  C_33
                            x       y       z     vdW  Elec       q    Type
                         _______ _______ _______ _____ _____    ______ ____

>  <TORSDO>
F 2

$$$$
=
 OpenBabel11052414213D

 34 39  0  0  1  0  0  0  0  0999 V2000
  184.5810  178.4480  145.4030 C   0  0  2  0  0  3  0  0  0  0  0  0
  183.7990  178.6970  142.0860 O   0  0  0  0  0  1  0  0  0  0  0  0
  189.3780  177.0650  139.2510 C   0  0  0  0  0  3  0  0  0  0  0  0
  186.6270  178.0290  144.0410 C   0  0  0  0  0  0  0  0  0  0  0  0
  188.7490  177.7250  142.8890 C   0  0  0  0  0  0  0  0  0  0  0  0
  183.4480  179.7530  144.1070 O   0  0  0  0  0  0  0  0  0  0  0  0
  184.4210  179.2320  143.2140 C   0  0  0  0  0  0  0  0  0  0  0  0
  186.6420  177.8600  141.5080 C   0  0  0  0  0  2  0  0  0  0  0  0
  188.7390  177.0650  138.1250 N   0  0  0  0  0  0  0  0  0  0  0  0
  185.1050  178.1290  144.0460 C   0  0  2  0  0  3  0  0  0  0  0  0
  187.5320  178.3450  140.3760 C   0  0  0  0  0  2  0  0  0  0  0  0
  189.5980  177.6710  141.6460 C   0  0  0  0  0  2  0  0  0  0  0  0
  183.6470  179.3320  145.3970 N   0  0  0  0  0  2  0  0  0  0  0  0
  187.3080  177.8510  145.2770 C   0  0  0  0  0  0  0  0  0  0  0  0
  185.3040  178.0730  146.6070 C   0  0  0  0  0  3  0  0  0  0  0  0
  185.3100  180.2470  142.8460 O   0  0  0  0  0  1  0  0  0  0  0  0
  189.3700  177.6250  144.0890 N   0  0  0  0  0  0  0  0  0  0  0  0
  188.7100  177.6760  145.2780 C   0  0  0  0  0  0  0  0  0  0  0  0
  188.7970  177.6250  140.4300 N   0  0  0  0  0  0  0  0  0  0  0  0
  187.3530  177.9200  142.8340 C   0  0  0  0  0  0  0  0  0  0  0  0
  186.5680  177.7900  146.5160 N   0  0  0  0  0  0  0  0  0  0  0  0
  191.3840  176.6070  147.7170 N   0  0  0  0  0  0  0  0  0  0  0  0
  191.2600  177.5330  148.8430 C   0  0  0  0  0  2  0  0  0  0  0  0
  189.5070  177.5400  146.5250 C   0  0  0  0  0  0  0  0  0  0  0  0
  189.9390  178.2530  148.8380 C   0  0  0  0  0  3  0  0  0  0  0  0
  190.5810  176.7430  146.5370 C   0  0  0  0  0  3  0  0  0  0  0  0
  189.1550  178.2750  147.7580 C   0  0  0  0  0  3  0  0  0  0  0  0
  192.4910  175.6700  147.7030 C   0  0  0  0  0  1  0  0  0  0  0  0
  188.0670  176.4010  134.9080 O   0  0  0  0  0  1  0  0  0  0  0  0
  188.2860  175.7490  136.1200 C   0  0  2  0  0  3  0  0  0  0  0  0
  189.8180  174.1140  136.9860 C   0  0  0  0  0  2  0  0  0  0  0  0
  190.3890  175.4730  137.3260 C   0  0  0  0  0  2  0  0  0  0  0  0
  189.3380  176.4950  136.9280 C   0  0  2  0  0  3  0  0  0  0  0  0
  188.8380  174.3640  135.8650 C   0  0  0  0  0  2  0  0  0  0  0  0
  1 15  1  1  0  0  0
  2  7  1  0  0  0  0
  3 19  1  0  0  0  0
  4 14  1  0  0  0  0
  5 17  2  0  0  0  0
  6 13  1  0  0  0  0
  7 10  1  0  0  0  0
  7  6  1  0  0  0  0
  8 20  1  0  0  0  0
  9  3  2  0  0  0  0
 10  4  1  1  0  0  0
 10  1  1  0  0  0  0
 11 19  1  0  0  0  0
 11  8  1  0  0  0  0
 12  5  1  0  0  0  0
 13  1  1  0  0  0  0
 14 18  2  0  0  0  0
 14 21  1  0  0  0  0
 16  7  1  0  0  0  0
 17 18  1  0  0  0  0
 18 24  1  0  0  0  0
 19 12  1  0  0  0  0
 20  5  1  0  0  0  0
 20  4  2  0  0  0  0
 21 15  2  0  0  0  0
 22 23  1  0  0  0  0
 24 26  2  0  0  0  0
 24 27  1  0  0  0  0
 25 23  1  0  0  0  0
 26 22  1  0  0  0  0
 27 25  2  0  0  0  0
 28 22  1  0  0  0  0
 30 29  1  6  0  0  0
 30 33  1  0  0  0  0
 31 32  1  0  0  0  0
 33 32  1  0  0  0  0
 33  9  1  1  0  0  0
 34 30  1  0  0  0  0
 34 31  1  0  0  0  0
M  END
>  <MODEL>
4

>  <REMARK>
 VINA RESULT:      -9.0      3.169      6.599
  Name = 
  2 active torsions:
  status: ('A' for Active; 'I' for Inactive)
    1  A    between atoms: C_12  and  C_28
    2  A    between atoms: N_13  and  C_33
                            x       y       z     vdW  Elec       q    Type
                         _______ _______ _______ _____ _____    ______ ____

>  <TORSDO>
F 2

$$$$
=
 OpenBabel11052414213D

 34 39  0  0  1  0  0  0  0  0999 V2000
  186.4140  177.8060  145.5840 C   0  0  2  0  0  3  0  0  0  0  0  0
  183.1370  178.6280  145.0770 O   0  0  0  0  0  1  0  0  0  0  0  0
  182.7610  178.7950  138.6240 C   0  0  0  0  0  3  0  0  0  0  0  0
  186.0090  178.1110  143.1420 C   0  0  0  0  0  0  0  0  0  0  0  0
  185.8400  178.4930  140.7450 C   0  0  0  0  0  0  0  0  0  0  0  0
  184.9300  179.1180  146.4440 O   0  0  0  0  0  0  0  0  0  0  0  0
  184.4780  179.0100  145.1020 C   0  0  0  0  0  0  0  0  0  0  0  0
  183.7220  178.5150  142.1170 C   0  0  0  0  0  2  0  0  0  0  0  0
  181.4800  178.9200  138.7590 N   0  0  0  0  0  0  0  0  0  0  0  0
  185.3800  177.9050  144.5170 C   0  0  2  0  0  3  0  0  0  0  0  0
  183.1430  179.4050  141.0310 C   0  0  0  0  0  2  0  0  0  0  0  0
  185.0780  178.8850  139.5060 C   0  0  0  0  0  2  0  0  0  0  0  0
  186.1200  178.4670  146.6460 N   0  0  0  0  0  2  0  0  0  0  0  0
  187.3860  177.7990  142.9630 C   0  0  0  0  0  0  0  0  0  0  0  0
  187.7560  177.3220  145.3020 C   0  0  0  0  0  3  0  0  0  0  0  0
  184.6480  180.2350  144.4510 O   0  0  0  0  0  1  0  0  0  0  0  0
  187.1670  178.2530  140.6270 N   0  0  0  0  0  0  0  0  0  0  0  0
  187.9600  177.9070  141.6770 C   0  0  0  0  0  0  0  0  0  0  0  0
  183.6400  178.9540  139.7380 N   0  0  0  0  0  0  0  0  0  0  0  0
  185.2210  178.4170  142.0100 C   0  0  0  0  0  0  0  0  0  0  0  0
  188.1760  177.3200  144.0730 N   0  0  0  0  0  0  0  0  0  0  0  0
  191.1840  177.1280  139.8770 N   0  0  0  0  0  0  0  0  0  0  0  0
  192.2410  177.5030  140.8170 C   0  0  0  0  0  2  0  0  0  0  0  0
  189.4010  177.6560  141.4110 C   0  0  0  0  0  0  0  0  0  0  0  0
  191.7220  177.6460  142.2210 C   0  0  0  0  0  3  0  0  0  0  0  0
  189.7990  177.3530  140.1710 C   0  0  0  0  0  3  0  0  0  0  0  0
  190.4170  177.7460  142.4800 C   0  0  0  0  0  3  0  0  0  0  0  0
  191.5550  176.7240  138.5350 C   0  0  0  0  0  1  0  0  0  0  0  0
  181.1330  177.1690  135.9200 O   0  0  0  0  0  1  0  0  0  0  0  0
  181.3980  178.4640  136.3630 C   0  0  2  0  0  3  0  0  0  0  0  0
  180.4310  180.6460  136.0960 C   0  0  0  0  0  2  0  0  0  0  0  0
  179.8520  180.0610  137.3660 C   0  0  0  0  0  2  0  0  0  0  0  0
  180.5910  178.7590  137.6190 C   0  0  2  0  0  3  0  0  0  0  0  0
  180.9540  179.4630  135.3180 C   0  0  0  0  0  2  0  0  0  0  0  0
  1 15  1  6  0  0  0
  1 13  1  0  0  0  0
  2  7  1  0  0  0  0
  3  9  2  0  0  0  0
  3 19  1  0  0  0  0
  5 20  1  0  0  0  0
  6 13  1  0  0  0  0
  7  6  1  0  0  0  0
 10  4  1  6  0  0  0
 10  7  1  0  0  0  0
 10  1  1  0  0  0  0
 11  8  1  0  0  0  0
 12 19  1  0  0  0  0
 12  5  1  0  0  0  0
 14  4  1  0  0  0  0
 14 21  1  0  0  0  0
 16  7  1  0  0  0  0
 17  5  2  0  0  0  0
 17 18  1  0  0  0  0
 18 14  2  0  0  0  0
 19 11  1  0  0  0  0
 20  8  1  0  0  0  0
 20  4  2  0  0  0  0
 21 15  2  0  0  0  0
 22 26  1  0  0  0  0
 22 23  1  0  0  0  0
 23 25  1  0  0  0  0
 24 18  1  0  0  0  0
 24 27  1  0  0  0  0
 25 27  2  0  0  0  0
 26 24  2  0  0  0  0
 28 22  1  0  0  0  0
 30 29  1  6  0  0  0
 30 33  1  0  0  0  0
 31 32  1  0  0  0  0
 32 33  1  0  0  0  0
 33  9  1  1  0  0  0
 34 31  1  0  0  0  0
 34 30  1  0  0  0  0
M  END
>  <MODEL>
5

>  <REMARK>
 VINA RESULT:      -9.0      1.785      2.202
  Name = 
  2 active torsions:
  status: ('A' for Active; 'I' for Inactive)
    1  A    between atoms: C_12  and  C_28
    2  A    between atoms: N_13  and  C_33
                            x       y       z     vdW  Elec       q    Type
                         _______ _______ _______ _____ _____    ______ ____

>  <TORSDO>
F 2

$$$$
=
 OpenBabel11052414213D

 34 39  0  0  1  0  0  0  0  0999 V2000
  185.1120  178.2080  143.7270 C   0  0  2  0  0  3  0  0  0  0  0  0
  185.1230  178.2990  140.3120 O   0  0  0  0  0  1  0  0  0  0  0  0
  191.2180  176.6380  138.9310 C   0  0  0  0  0  3  0  0  0  0  0  0
  187.4210  177.7640  142.8990 C   0  0  0  0  0  0  0  0  0  0  0  0
  189.7550  177.4460  142.2890 C   0  0  0  0  0  0  0  0  0  0  0  0
  184.3050  179.4360  142.1450 O   0  0  0  0  0  0  0  0  0  0  0  0
  185.4620  178.8930  141.5280 C   0  0  0  0  0  0  0  0  0  0  0  0
  188.0270  177.4850  140.4500 C   0  0  0  0  0  2  0  0  0  0  0  0
  190.8600  176.5780  137.6890 N   0  0  0  0  0  0  0  0  0  0  0  0
  185.9390  177.8380  142.5460 C   0  0  2  0  0  3  0  0  0  0  0  0
  189.1540  177.9350  139.5350 C   0  0  0  0  0  2  0  0  0  0  0  0
  190.8710  177.3510  141.2810 C   0  0  0  0  0  2  0  0  0  0  0  0
  184.1990  179.0750  143.4640 N   0  0  0  0  0  2  0  0  0  0  0  0
  187.7970  177.6510  144.2670 C   0  0  0  0  0  0  0  0  0  0  0  0
  185.5370  177.8980  145.0830 C   0  0  0  0  0  3  0  0  0  0  0  0
  186.4060  179.9050  141.3300 O   0  0  0  0  0  1  0  0  0  0  0  0
  190.0800  177.4080  143.6030 N   0  0  0  0  0  0  0  0  0  0  0  0
  189.1610  177.4990  144.6020 C   0  0  0  0  0  0  0  0  0  0  0  0
  190.3760  177.2380  139.9150 N   0  0  0  0  0  0  0  0  0  0  0  0
  188.4100  177.6140  141.9010 C   0  0  0  0  0  0  0  0  0  0  0  0
  186.7890  177.6320  145.3020 N   0  0  0  0  0  0  0  0  0  0  0  0
  191.2860  176.7100  147.6190 N   0  0  0  0  0  0  0  0  0  0  0  0
  190.7770  177.5830  148.6780 C   0  0  0  0  0  2  0  0  0  0  0  0
  189.6460  177.4310  146.0060 C   0  0  0  0  0  0  0  0  0  0  0  0
  189.4150  178.1290  148.3510 C   0  0  0  0  0  3  0  0  0  0  0  0
  190.7790  176.7760  146.2800 C   0  0  0  0  0  3  0  0  0  0  0  0
  188.9170  178.0820  147.1140 C   0  0  0  0  0  3  0  0  0  0  0  0
  192.4750  175.9220  147.8770 C   0  0  0  0  0  1  0  0  0  0  0  0
  191.0090  173.9800  135.5740 O   0  0  0  0  0  1  0  0  0  0  0  0
  191.5970  174.4510  136.7470 C   0  0  2  0  0  3  0  0  0  0  0  0
  193.8070  175.0120  137.5030 C   0  0  0  0  0  2  0  0  0  0  0  0
  193.1730  176.2950  137.0090 C   0  0  0  0  0  2  0  0  0  0  0  0
  191.7250  175.9660  136.6920 C   0  0  2  0  0  3  0  0  0  0  0  0
  193.0020  173.9020  136.8710 C   0  0  0  0  0  2  0  0  0  0  0  0
  1 15  1  1  0  0  0
  2  7  1  0  0  0  0
  3 19  1  0  0  0  0
  4 14  1  0  0  0  0
  5 17  2  0  0  0  0
  6 13  1  0  0  0  0
  7  6  1  0  0  0  0
  7 10  1  0  0  0  0
  8 20  1  0  0  0  0
  9  3  2  0  0  0  0
 10  4  1  1  0  0  0
 10  1  1  0  0  0  0
 11 19  1  0  0  0  0
 11  8  1  0  0  0  0
 12  5  1  0  0  0  0
 13  1  1  0  0  0  0
 14 18  2  0  0  0  0
 14 21  1  0  0  0  0
 15 21  2  0  0  0  0
 16  7  1  0  0  0  0
 17 18  1  0  0  0  0
 18 24  1  0  0  0  0
 19 12  1  0  0  0  0
 20  5  1  0  0  0  0
 20  4  2  0  0  0  0
 22 28  1  0  0  0  0
 22 23  1  0  0  0  0
 24 26  2  0  0  0  0
 24 27  1  0  0  0  0
 25 23  1  0  0  0  0
 26 22  1  0  0  0  0
 27 25  2  0  0  0  0
 30 29  1  6  0  0  0
 30 34  1  0  0  0  0
 32 31  1  0  0  0  0
 33 30  1  0  0  0  0
 33 32  1  0  0  0  0
 33  9  1  1  0  0  0
 34 31  1  0  0  0  0
M  END
>  <MODEL>
6

>  <REMARK>
 VINA RESULT:      -8.9      3.346      7.920
  Name = 
  2 active torsions:
  status: ('A' for Active; 'I' for Inactive)
    1  A    between atoms: C_12  and  C_28
    2  A    between atoms: N_13  and  C_33
                            x       y       z     vdW  Elec       q    Type
                         _______ _______ _______ _____ _____    ______ ____

>  <TORSDO>
F 2

$$$$
=
 OpenBabel11052414213D

 34 39  0  0  1  0  0  0  0  0999 V2000
  190.2910  176.4140  146.0460 C   0  0  2  0  0  3  0  0  0  0  0  0
  187.4040  177.3570  147.6110 O   0  0  0  0  0  1  0  0  0  0  0  0
  183.6050  178.9280  142.6180 C   0  0  0  0  0  3  0  0  0  0  0  0
  188.6670  177.2460  144.3460 C   0  0  0  0  0  0  0  0  0  0  0  0
  187.2730  178.1430  142.5650 C   0  0  0  0  0  0  0  0  0  0  0  0
  189.6980  177.5210  147.8020 O   0  0  0  0  0  0  0  0  0  0  0  0
  188.5790  177.7120  146.9480 C   0  0  0  0  0  0  0  0  0  0  0  0
  186.2660  177.8850  144.8640 C   0  0  0  0  0  2  0  0  0  0  0  0
  182.6330  179.0320  143.4650 N   0  0  0  0  0  0  0  0  0  0  0  0
  188.8670  176.7530  145.7760 C   0  0  2  0  0  3  0  0  0  0  0  0
  185.3090  178.9960  144.4630 C   0  0  0  0  0  2  0  0  0  0  0  0
  186.0180  178.8010  142.0550 C   0  0  0  0  0  2  0  0  0  0  0  0
  190.7100  176.8310  147.1870 N   0  0  0  0  0  2  0  0  0  0  0  0
  189.6710  176.9680  143.3780 C   0  0  0  0  0  0  0  0  0  0  0  0
  191.1890  175.9900  144.9830 C   0  0  0  0  0  3  0  0  0  0  0  0
  188.5240  179.0480  146.5400 O   0  0  0  0  0  1  0  0  0  0  0  0
  188.2780  177.9210  141.6850 N   0  0  0  0  0  0  0  0  0  0  0  0
  189.4620  177.3480  142.0320 C   0  0  0  0  0  0  0  0  0  0  0  0
  184.9610  178.8320  143.0580 N   0  0  0  0  0  0  0  0  0  0  0  0
  187.4380  177.7990  143.9230 C   0  0  0  0  0  0  0  0  0  0  0  0
  190.8690  176.2520  143.7520 N   0  0  0  0  0  0  0  0  0  0  0  0
  191.0600  176.4600  138.7310 N   0  0  0  0  0  0  0  0  0  0  0  0
  192.3880  177.0730  138.7780 C   0  0  0  0  0  2  0  0  0  0  0  0
  190.4800  177.1480  140.9680 C   0  0  0  0  0  0  0  0  0  0  0  0
  192.7900  177.4420  140.1790 C   0  0  0  0  0  3  0  0  0  0  0  0
  190.1070  176.6450  139.7870 C   0  0  0  0  0  3  0  0  0  0  0  0
  191.9000  177.5030  141.1720 C   0  0  0  0  0  3  0  0  0  0  0  0
  190.6220  175.8380  137.4970 C   0  0  0  0  0  1  0  0  0  0  0  0
  179.5050  178.2000  144.3440 O   0  0  0  0  0  1  0  0  0  0  0  0
  180.4820  177.8810  143.4020 C   0  0  2  0  0  3  0  0  0  0  0  0
  180.6820  177.8790  141.0090 C   0  0  0  0  0  2  0  0  0  0  0  0
  181.2270  179.2050  141.4940 C   0  0  0  0  0  2  0  0  0  0  0  0
  181.2550  179.1320  143.0100 C   0  0  2  0  0  3  0  0  0  0  0  0
  179.8270  177.3630  142.1410 C   0  0  0  0  0  2  0  0  0  0  0  0
  1 15  1  6  0  0  0
  1 13  1  0  0  0  0
  3 19  1  0  0  0  0
  3  9  2  0  0  0  0
  5 20  2  0  0  0  0
  7  2  1  0  0  0  0
  7  6  1  0  0  0  0
 10  4  1  6  0  0  0
 10  1  1  0  0  0  0
 10  7  1  0  0  0  0
 11  8  1  0  0  0  0
 12  5  1  0  0  0  0
 12 19  1  0  0  0  0
 13  6  1  0  0  0  0
 14 21  1  0  0  0  0
 14  4  2  0  0  0  0
 16  7  1  0  0  0  0
 17 18  2  0  0  0  0
 17  5  1  0  0  0  0
 18 14  1  0  0  0  0
 19 11  1  0  0  0  0
 20  4  1  0  0  0  0
 20  8  1  0  0  0  0
 21 15  2  0  0  0  0
 22 23  1  0  0  0  0
 22 26  1  0  0  0  0
 23 25  1  0  0  0  0
 24 27  1  0  0  0  0
 24 18  1  0  0  0  0
 25 27  2  0  0  0  0
 26 24  2  0  0  0  0
 28 22  1  0  0  0  0
 30 29  1  1  0  0  0
 31 32  1  0  0  0  0
 31 34  1  0  0  0  0
 32 33  1  0  0  0  0
 33 30  1  0  0  0  0
 33  9  1  6  0  0  0
 34 30  1  0  0  0  0
M  END
>  <MODEL>
7

>  <REMARK>
 VINA RESULT:      -8.7      1.901      2.487
  Name = 
  2 active torsions:
  status: ('A' for Active; 'I' for Inactive)
    1  A    between atoms: C_12  and  C_28
    2  A    between atoms: N_13  and  C_33
                            x       y       z     vdW  Elec       q    Type
                         _______ _______ _______ _____ _____    ______ ____

>  <TORSDO>
F 2

$$$$
=
 OpenBabel11052414213D

 34 39  0  0  1  0  0  0  0  0999 V2000
  184.9360  177.1070  135.7920 C   0  0  2  0  0  3  0  0  0  0  0  0
  188.3170  176.6750  136.0260 O   0  0  0  0  0  1  0  0  0  0  0  0
  189.4450  178.1280  142.2260 C   0  0  0  0  0  3  0  0  0  0  0  0
  185.6950  177.7690  138.0730 C   0  0  0  0  0  0  0  0  0  0  0  0
  186.2610  178.5830  140.2950 C   0  0  0  0  0  0  0  0  0  0  0  0
  186.6980  177.5060  134.6090 O   0  0  0  0  0  0  0  0  0  0  0  0
  187.2230  177.5350  135.9270 C   0  0  0  0  0  0  0  0  0  0  0  0
  188.0660  177.4680  138.9290 C   0  0  0  0  0  2  0  0  0  0  0  0
  190.6560  177.7090  142.0440 N   0  0  0  0  0  0  0  0  0  0  0  0
  186.0440  177.0320  136.7840 C   0  0  2  0  0  3  0  0  0  0  0  0
  189.0530  178.2810  139.7490 C   0  0  0  0  0  2  0  0  0  0  0  0
  187.2470  178.9130  141.3850 C   0  0  0  0  0  2  0  0  0  0  0  0
  185.3360  177.3440  134.5940 N   0  0  0  0  0  2  0  0  0  0  0  0
  184.3310  178.0680  138.3460 C   0  0  0  0  0  0  0  0  0  0  0  0
  183.5510  177.2610  136.2070 C   0  0  0  0  0  3  0  0  0  0  0  0
  187.5980  178.8410  136.2540 O   0  0  0  0  0  1  0  0  0  0  0  0
  184.9620  178.9130  140.4910 N   0  0  0  0  0  0  0  0  0  0  0  0
  183.9860  178.6770  139.5730 C   0  0  0  0  0  0  0  0  0  0  0  0
  188.5700  178.3620  141.1220 N   0  0  0  0  0  0  0  0  0  0  0  0
  186.6610  177.9890  139.0800 C   0  0  0  0  0  0  0  0  0  0  0  0
  183.3000  177.7000  137.4030 N   0  0  0  0  0  0  0  0  0  0  0  0
  180.6610  178.8990  141.3430 N   0  0  0  0  0  0  0  0  0  0  0  0
  180.0180  180.0920  140.7900 C   0  0  0  0  0  2  0  0  0  0  0  0
  182.5950  179.0750  139.9150 C   0  0  0  0  0  0  0  0  0  0  0  0
  180.6590  180.5330  139.5040 C   0  0  0  0  0  3  0  0  0  0  0  0
  181.9930  178.5210  140.9720 C   0  0  0  0  0  3  0  0  0  0  0  0
  181.8570  180.0830  139.1260 C   0  0  0  0  0  3  0  0  0  0  0  0
  180.0220  178.2120  142.4480 C   0  0  0  0  0  1  0  0  0  0  0  0
  191.9560  175.2370  143.8990 O   0  0  0  0  0  1  0  0  0  0  0  0
  191.0470  176.2890  143.9900 C   0  0  2  0  0  3  0  0  0  0  0  0
  190.7640  178.2560  145.3400 C   0  0  0  0  0  2  0  0  0  0  0  0
  191.5140  178.6810  144.0960 C   0  0  0  0  0  2  0  0  0  0  0  0
  191.5410  177.4750  143.1750 C   0  0  2  0  0  3  0  0  0  0  0  0
  190.9510  176.7610  145.4250 C   0  0  0  0  0  2  0  0  0  0  0  0
  1 15  1  1  0  0  0
  1 10  1  0  0  0  0
  4 14  2  0  0  0  0
  4 20  1  0  0  0  0
  5 17  1  0  0  0  0
  5 12  1  0  0  0  0
  6  7  1  0  0  0  0
  7  2  1  0  0  0  0
  7 16  1  0  0  0  0
  7 10  1  0  0  0  0
  8 20  1  0  0  0  0
  8 11  1  0  0  0  0
  9  3  2  0  0  0  0
 10  4  1  1  0  0  0
 11 19  1  0  0  0  0
 13  6  1  0  0  0  0
 13  1  1  0  0  0  0
 14 18  1  0  0  0  0
 15 21  2  0  0  0  0
 18 24  1  0  0  0  0
 18 17  2  0  0  0  0
 19 12  1  0  0  0  0
 19  3  1  0  0  0  0
 20  5  2  0  0  0  0
 21 14  1  0  0  0  0
 22 28  1  0  0  0  0
 23 22  1  0  0  0  0
 24 26  2  0  0  0  0
 25 23  1  0  0  0  0
 26 22  1  0  0  0  0
 27 25  2  0  0  0  0
 27 24  1  0  0  0  0
 30 29  1  1  0  0  0
 30 34  1  0  0  0  0
 31 34  1  0  0  0  0
 32 31  1  0  0  0  0
 33  9  1  6  0  0  0
 33 30  1  0  0  0  0
 33 32  1  0  0  0  0
M  END
>  <MODEL>
8

>  <REMARK>
 VINA RESULT:      -8.4      4.050      9.849
  Name = 
  2 active torsions:
  status: ('A' for Active; 'I' for Inactive)
    1  A    between atoms: C_12  and  C_28
    2  A    between atoms: N_13  and  C_33
                            x       y       z     vdW  Elec       q    Type
                         _______ _______ _______ _____ _____    ______ ____

>  <TORSDO>
F 2

$$$$
=
 OpenBabel11052414213D

 34 39  0  0  1  0  0  0  0  0999 V2000
  182.5960  178.7220  141.1600 C   0  0  2  0  0  3  0  0  0  0  0  0
  183.5230  178.6290  137.8730 O   0  0  0  0  0  1  0  0  0  0  0  0
  189.8080  177.1590  138.2780 C   0  0  0  0  0  3  0  0  0  0  0  0
  185.0540  178.3330  141.0090 C   0  0  0  0  0  0  0  0  0  0  0  0
  187.4740  178.0830  141.0650 C   0  0  0  0  0  0  0  0  0  0  0  0
  182.2120  179.8270  139.3460 O   0  0  0  0  0  0  0  0  0  0  0  0
  183.5070  179.3020  139.0950 C   0  0  0  0  0  0  0  0  0  0  0  0
  186.3040  177.9490  138.8330 C   0  0  0  0  0  2  0  0  0  0  0  0
  189.7990  177.0180  136.9910 N   0  0  0  0  0  0  0  0  0  0  0  0
  183.7200  178.3250  140.2690 C   0  0  2  0  0  3  0  0  0  0  0  0
  187.6230  178.3980  138.2250 C   0  0  0  0  0  2  0  0  0  0  0  0
  188.8220  177.9830  140.4000 C   0  0  0  0  0  2  0  0  0  0  0  0
  181.7650  179.5330  140.6080 N   0  0  0  0  0  2  0  0  0  0  0  0
  185.0500  178.3100  142.4310 C   0  0  0  0  0  0  0  0  0  0  0  0
  182.6480  178.5030  142.5970 C   0  0  0  0  0  3  0  0  0  0  0  0
  184.4410  180.3410  139.0930 O   0  0  0  0  0  1  0  0  0  0  0  0
  187.4340  178.1300  142.4180 N   0  0  0  0  0  0  0  0  0  0  0  0
  186.2780  178.2350  143.1280 C   0  0  0  0  0  0  0  0  0  0  0  0
  188.7160  177.7750  138.9610 N   0  0  0  0  0  0  0  0  0  0  0  0
  186.2780  178.1720  140.3220 C   0  0  0  0  0  0  0  0  0  0  0  0
  183.8020  178.3030  143.1580 N   0  0  0  0  0  0  0  0  0  0  0  0
  187.5750  177.7800  146.6420 N   0  0  0  0  0  0  0  0  0  0  0  0
  186.7130  178.6200  147.4740 C   0  0  0  0  0  2  0  0  0  0  0  0
  186.3690  178.2630  144.6110 C   0  0  0  0  0  0  0  0  0  0  0  0
  185.4420  179.0000  146.7660 C   0  0  0  0  0  3  0  0  0  0  0  0
  187.4450  177.7480  145.2150 C   0  0  0  0  0  3  0  0  0  0  0  0
  185.3050  178.8610  145.4450 C   0  0  0  0  0  3  0  0  0  0  0  0
  188.7220  177.1380  147.2520 C   0  0  0  0  0  1  0  0  0  0  0  0
  190.4880  174.7750  134.5960 O   0  0  0  0  0  1  0  0  0  0  0  0
  190.5840  174.9420  135.9760 C   0  0  2  0  0  3  0  0  0  0  0  0
  192.3240  174.9230  137.6320 C   0  0  0  0  0  2  0  0  0  0  0  0
  192.1260  176.3660  137.2190 C   0  0  0  0  0  2  0  0  0  0  0  0
  190.9160  176.3910  136.3020 C   0  0  2  0  0  3  0  0  0  0  0  0
  191.7230  174.1050  136.5150 C   0  0  0  0  0  2  0  0  0  0  0  0
  1 15  1  1  0  0  0
  2  7  1  0  0  0  0
  3 19  1  0  0  0  0
  4 14  1  0  0  0  0
  5 17  2  0  0  0  0
  6 13  1  0  0  0  0
  7  6  1  0  0  0  0
  7 10  1  0  0  0  0
  8 20  1  0  0  0  0
  9  3  2  0  0  0  0
 10  4  1  1  0  0  0
 10  1  1  0  0  0  0
 11  8  1  0  0  0  0
 11 19  1  0  0  0  0
 12  5  1  0  0  0  0
 13  1  1  0  0  0  0
 14 18  2  0  0  0  0
 14 21  1  0  0  0  0
 15 21  2  0  0  0  0
 16  7  1  0  0  0  0
 17 18  1  0  0  0  0
 18 24  1  0  0  0  0
 19 12  1  0  0  0  0
 20  4  2  0  0  0  0
 20  5  1  0  0  0  0
 22 28  1  0  0  0  0
 22 23  1  0  0  0  0
 24 26  2  0  0  0  0
 24 27  1  0  0  0  0
 25 23  1  0  0  0  0
 26 22  1  0  0  0  0
 27 25  2  0  0  0  0
 30 29  1  6  0  0  0
 30 33  1  0  0  0  0
 30 34  1  0  0  0  0
 32 31  1  0  0  0  0
 33  9  1  1  0  0  0
 33 32  1  0  0  0  0
 34 31  1  0  0  0  0
M  END
>  <MODEL>
9

>  <REMARK>
 VINA RESULT:      -8.4      3.243      8.218
  Name = 
  2 active torsions:
  status: ('A' for Active; 'I' for Inactive)
    1  A    between atoms: C_12  and  C_28
    2  A    between atoms: N_13  and  C_33
                            x       y       z     vdW  Elec       q    Type
                         _______ _______ _______ _____ _____    ______ ____

>  <TORSDO>
F 2

$$$$
