=
 OpenBabel11052413203D

 28 33  0  0  1  0  0  0  0  0999 V2000
  185.6750  178.0640  144.4410 C   0  0  0  0  0  0  0  0  0  0  0  0
  188.8800  178.8430  142.5660 C   0  0  0  0  0  2  0  0  0  0  0  0
  189.3520  176.7640  147.2500 C   0  0  0  0  0  1  0  0  0  0  0  0
  191.5430  177.2180  141.8940 C   0  0  0  0  0  2  0  0  0  0  0  0
  188.9470  176.4680  143.5150 N   0  0  2  0  0  0  0  0  0  0  0  0
  189.7920  178.1290  140.4530 N   0  0  0  0  0  0  0  0  0  0  0  0
  189.6240  177.5410  142.7710 C   0  0  1  0  0  0  0  0  0  0  0  0
  191.3770  176.4660  144.5350 S   0  0  0  0  0  0  0  0  0  0  0  0
  190.1030  177.0770  141.4160 C   0  0  2  0  0  3  0  0  0  0  0  0
  187.7640  177.8790  145.6870 C   0  0  0  0  0  0  0  0  0  0  0  0
  187.4810  176.5270  143.5770 C   0  0  0  0  0  2  0  0  0  0  0  0
  191.0540  177.7130  143.2470 C   0  0  1  0  0  3  0  0  0  0  0  0
  186.0290  179.4070  146.4290 C   0  0  0  0  0  3  0  0  0  0  0  0
  189.1630  177.3480  145.8580 C   0  0  2  0  0  3  0  0  0  0  0  0
  187.2920  178.8420  146.5900 C   0  0  0  0  0  3  0  0  0  0  0  0
  189.1840  177.4860  139.3030 C   0  0  0  0  0  1  0  0  0  0  0  0
  188.7620  178.9670  141.0620 C   0  0  0  0  0  2  0  0  0  0  0  0
  189.5910  176.3010  144.8160 C   0  0  1  0  0  3  0  0  0  0  0  0
  185.2240  179.0200  145.3600 C   0  0  0  0  0  3  0  0  0  0  0  0
  186.9670  177.5150  144.5860 C   0  0  0  0  0  0  0  0  0  0  0  0
  184.7830  177.6830  143.2910 C   0  0  0  0  0  2  0  0  0  0  0  0
  183.9540  178.8440  142.6930 C   0  0  2  0  0  3  0  0  0  0  0  0
  181.7510  177.9190  141.0400 C   0  0  0  0  0  2  0  0  0  0  0  0
  182.5150  178.8830  143.2360 C   0  0  0  0  0  2  0  0  0  0  0  0
  185.3660  178.9140  140.7310 C   0  0  0  0  0  1  0  0  0  0  0  0
  183.9960  178.9690  141.2210 N   0  0  0  0  0  0  0  0  0  0  0  0
  183.2170  177.9110  140.5760 C   0  0  0  0  0  2  0  0  0  0  0  0
  181.4800  178.9730  142.1150 C   0  0  0  0  0  2  0  0  0  0  0  0
  1 20  2  0  0  0  0
  1 19  1  0  0  0  0
  5 11  1  1  0  0  0
  5 18  1  0  0  0  0
  6 17  1  0  0  0  0
  6  9  1  0  0  0  0
  7  2  1  6  0  0  0
  7 12  1  0  0  0  0
  7  5  1  0  0  0  0
  9  4  1  1  0  0  0
  9  7  1  0  0  0  0
 10 14  1  0  0  0  0
 10 15  2  0  0  0  0
 11 20  1  0  0  0  0
 12  4  1  6  0  0  0
 12  8  1  0  0  0  0
 13 15  1  0  0  0  0
 14  3  1  1  0  0  0
 16  6  1  0  0  0  0
 17  2  1  0  0  0  0
 18  8  1  6  0  0  0
 18 14  1  0  0  0  0
 19 13  2  0  0  0  0
 20 10  1  0  0  0  0
 21  1  1  0  0  0  0
 22 24  1  0  0  0  0
 22 21  1  6  0  0  0
 23 28  1  0  0  0  0
 25 26  1  0  0  0  0
 26 22  1  0  0  0  0
 27 23  1  0  0  0  0
 27 26  1  0  0  0  0
 28 24  1  0  0  0  0
M  END
>  <MODEL>
1

>  <REMARK>
 VINA RESULT:      -8.1      0.000      0.000
  Name = 
  2 active torsions:
  status: ('A' for Active; 'I' for Inactive)
    1  A    between atoms: C_1  and  C_2
    2  A    between atoms: C_2  and  C_3
                            x       y       z     vdW  Elec       q    Type
                         _______ _______ _______ _____ _____    ______ ____

>  <TORSDO>
F 2

$$$$
=
 OpenBabel11052413203D

 28 33  0  0  1  0  0  0  0  0999 V2000
  190.9500  176.9750  143.1710 C   0  0  0  0  0  0  0  0  0  0  0  0
  187.5360  176.6890  144.8010 C   0  0  0  0  0  2  0  0  0  0  0  0
  191.6070  177.0150  147.9320 C   0  0  0  0  0  1  0  0  0  0  0  0
  186.0030  178.2820  147.1030 C   0  0  0  0  0  2  0  0  0  0  0  0
  188.8830  178.5900  145.8590 N   0  0  2  0  0  0  0  0  0  0  0  0
  185.5310  178.0240  144.7190 N   0  0  0  0  0  0  0  0  0  0  0  0
  187.6440  177.7960  145.8280 C   0  0  1  0  0  0  0  0  0  0  0  0
  188.4190  178.0990  148.4060 S   0  0  0  0  0  0  0  0  0  0  0  0
  186.4170  178.6650  145.6870 C   0  0  2  0  0  3  0  0  0  0  0  0
  190.8970  176.5970  145.5800 C   0  0  0  0  0  0  0  0  0  0  0  0
  189.6940  178.6020  144.6350 C   0  0  0  0  0  2  0  0  0  0  0  0
  187.2260  177.3860  147.2270 C   0  0  1  0  0  3  0  0  0  0  0  0
  192.0200  175.0150  144.1200 C   0  0  0  0  0  3  0  0  0  0  0  0
  190.4320  176.9530  146.9680 C   0  0  2  0  0  3  0  0  0  0  0  0
  191.6270  175.4150  145.3950 C   0  0  0  0  0  3  0  0  0  0  0  0
  185.0910  179.0560  143.7980 C   0  0  0  0  0  1  0  0  0  0  0  0
  186.3520  177.0920  143.9490 C   0  0  0  0  0  2  0  0  0  0  0  0
  189.6350  178.2650  147.0690 C   0  0  1  0  0  3  0  0  0  0  0  0
  191.6830  175.7920  143.0130 C   0  0  0  0  0  3  0  0  0  0  0  0
  190.5250  177.3630  144.4600 C   0  0  0  0  0  0  0  0  0  0  0  0
  190.5920  177.7780  141.9500 C   0  0  0  0  0  2  0  0  0  0  0  0
  189.7090  177.0390  140.9170 C   0  0  2  0  0  3  0  0  0  0  0  0
  189.9150  178.1690  138.2480 C   0  0  0  0  0  2  0  0  0  0  0  0
  190.5370  176.3190  139.8390 C   0  0  0  0  0  2  0  0  0  0  0  0
  187.8490  178.5160  141.3720 C   0  0  0  0  0  1  0  0  0  0  0  0
  188.6060  177.8330  140.3340 N   0  0  0  0  0  0  0  0  0  0  0  0
  189.1120  178.8250  139.3830 C   0  0  0  0  0  2  0  0  0  0  0  0
  190.0590  176.6560  138.4270 C   0  0  0  0  0  2  0  0  0  0  0  0
  1 20  1  0  0  0  0
  5 11  1  6  0  0  0
  5 18  1  0  0  0  0
  6  9  1  0  0  0  0
  7  2  1  6  0  0  0
  7  5  1  0  0  0  0
  7 12  1  0  0  0  0
  9  7  1  0  0  0  0
  9  4  1  1  0  0  0
 10 14  1  0  0  0  0
 12  4  1  1  0  0  0
 12  8  1  0  0  0  0
 13 15  2  0  0  0  0
 14 18  1  0  0  0  0
 14  3  1  1  0  0  0
 15 10  1  0  0  0  0
 16  6  1  0  0  0  0
 17  6  1  0  0  0  0
 17  2  1  0  0  0  0
 18  8  1  1  0  0  0
 19  1  2  0  0  0  0
 19 13  1  0  0  0  0
 20 11  1  0  0  0  0
 20 10  2  0  0  0  0
 21  1  1  0  0  0  0
 22 21  1  6  0  0  0
 23 28  1  0  0  0  0
 23 27  1  0  0  0  0
 24 22  1  0  0  0  0
 26 22  1  0  0  0  0
 26 25  1  0  0  0  0
 27 26  1  0  0  0  0
 28 24  1  0  0  0  0
M  END
>  <MODEL>
2

>  <REMARK>
 VINA RESULT:      -6.8      2.292      5.679
  Name = 
  2 active torsions:
  status: ('A' for Active; 'I' for Inactive)
    1  A    between atoms: C_1  and  C_2
    2  A    between atoms: C_2  and  C_3
                            x       y       z     vdW  Elec       q    Type
                         _______ _______ _______ _____ _____    ______ ____

>  <TORSDO>
F 2

$$$$
=
 OpenBabel11052413203D

 28 33  0  0  1  0  0  0  0  0999 V2000
  187.8550  177.9290  141.5630 C   0  0  0  0  0  0  0  0  0  0  0  0
  184.1000  177.4000  141.4170 C   0  0  0  0  0  2  0  0  0  0  0  0
  186.1170  178.6310  145.9880 C   0  0  0  0  0  1  0  0  0  0  0  0
  181.5580  179.0480  142.4210 C   0  0  0  0  0  2  0  0  0  0  0  0
  184.6570  179.5750  142.6460 N   0  0  2  0  0  0  0  0  0  0  0  0
  182.3160  178.4430  140.1780 N   0  0  0  0  0  0  0  0  0  0  0  0
  183.6350  178.6290  142.1700 C   0  0  1  0  0  0  0  0  0  0  0  0
  183.0450  179.3400  144.7170 S   0  0  0  0  0  0  0  0  0  0  0  0
  182.5840  179.3070  141.3240 C   0  0  2  0  0  3  0  0  0  0  0  0
  186.6610  177.8420  143.6880 C   0  0  0  0  0  0  0  0  0  0  0  0
  185.9570  179.5440  141.9650 C   0  0  0  0  0  2  0  0  0  0  0  0
  182.6150  178.3410  143.2550 C   0  0  1  0  0  3  0  0  0  0  0  0
  188.4380  176.2550  143.2190 C   0  0  0  0  0  3  0  0  0  0  0  0
  185.5630  178.3000  144.6120 C   0  0  2  0  0  3  0  0  0  0  0  0
  187.4540  176.7510  144.0710 C   0  0  0  0  0  3  0  0  0  0  0  0
  182.3210  179.2900  138.9990 C   0  0  0  0  0  1  0  0  0  0  0  0
  183.4570  177.5400  140.0540 C   0  0  0  0  0  2  0  0  0  0  0  0
  184.7450  179.5000  144.1030 C   0  0  1  0  0  3  0  0  0  0  0  0
  188.6370  176.8410  141.9710 C   0  0  0  0  0  3  0  0  0  0  0  0
  186.8370  178.4110  142.4130 C   0  0  0  0  0  0  0  0  0  0  0  0
  188.0900  178.5250  140.2010 C   0  0  0  0  0  2  0  0  0  0  0  0
  188.1500  177.5020  139.0410 C   0  0  2  0  0  3  0  0  0  0  0  0
  189.4300  178.5730  136.6640 C   0  0  0  0  0  2  0  0  0  0  0  0
  189.5900  177.0900  138.6920 C   0  0  0  0  0  2  0  0  0  0  0  0
  186.0110  178.2530  138.1990 C   0  0  0  0  0  1  0  0  0  0  0  0
  187.3630  177.8520  137.8400 N   0  0  0  0  0  0  0  0  0  0  0  0
  187.9970  178.9360  137.0870 C   0  0  0  0  0  2  0  0  0  0  0  0
  189.8730  177.2090  137.1940 C   0  0  0  0  0  2  0  0  0  0  0  0
  1 19  2  0  0  0  0
  1 20  1  0  0  0  0
  5 11  1  6  0  0  0
  5 18  1  0  0  0  0
  6  9  1  0  0  0  0
  7  2  1  6  0  0  0
  7  5  1  0  0  0  0
  7 12  1  0  0  0  0
  9  7  1  0  0  0  0
  9  4  1  1  0  0  0
 10 15  1  0  0  0  0
 10 14  1  0  0  0  0
 11 20  1  0  0  0  0
 12  4  1  6  0  0  0
 12  8  1  0  0  0  0
 13 15  2  0  0  0  0
 14  3  1  1  0  0  0
 16  6  1  0  0  0  0
 17  6  1  0  0  0  0
 17  2  1  0  0  0  0
 18 14  1  0  0  0  0
 18  8  1  1  0  0  0
 19 13  1  0  0  0  0
 20 10  2  0  0  0  0
 21  1  1  0  0  0  0
 22 21  1  1  0  0  0
 23 27  1  0  0  0  0
 23 28  1  0  0  0  0
 24 22  1  0  0  0  0
 26 25  1  0  0  0  0
 26 22  1  0  0  0  0
 27 26  1  0  0  0  0
 28 24  1  0  0  0  0
M  END
>  <MODEL>
3

>  <REMARK>
 VINA RESULT:      -6.8      2.606      6.221
  Name = 
  2 active torsions:
  status: ('A' for Active; 'I' for Inactive)
    1  A    between atoms: C_1  and  C_2
    2  A    between atoms: C_2  and  C_3
                            x       y       z     vdW  Elec       q    Type
                         _______ _______ _______ _____ _____    ______ ____

>  <TORSDO>
F 2

$$$$
=
 OpenBabel11052413203D

 28 33  0  0  1  0  0  0  0  0999 V2000
  190.8990  176.8300  140.4590 C   0  0  0  0  0  0  0  0  0  0  0  0
  189.2860  178.2480  137.3300 C   0  0  0  0  0  2  0  0  0  0  0  0
  193.2720  175.0610  136.6730 C   0  0  0  0  0  1  0  0  0  0  0  0
  188.2140  177.0060  134.5940 C   0  0  0  0  0  2  0  0  0  0  0  0
  189.5890  175.7160  137.1190 N   0  0  2  0  0  0  0  0  0  0  0  0
  187.0600  178.1570  136.4140 N   0  0  0  0  0  0  0  0  0  0  0  0
  189.1460  176.9820  136.5130 C   0  0  1  0  0  0  0  0  0  0  0  0
  190.5700  175.5880  134.6780 S   0  0  0  0  0  0  0  0  0  0  0  0
  187.7170  176.9100  136.0310 C   0  0  2  0  0  3  0  0  0  0  0  0
  192.0520  176.4490  138.3440 C   0  0  0  0  0  0  0  0  0  0  0  0
  189.6650  175.6740  138.5850 C   0  0  0  0  0  2  0  0  0  0  0  0
  189.6490  177.1060  135.0880 C   0  0  1  0  0  3  0  0  0  0  0  0
  193.1670  177.6330  140.1480 C   0  0  0  0  0  3  0  0  0  0  0  0
  192.0790  175.9720  136.9150 C   0  0  2  0  0  3  0  0  0  0  0  0
  193.1740  177.1180  138.8530 C   0  0  0  0  0  3  0  0  0  0  0  0
  185.7830  177.7990  137.0040 C   0  0  0  0  0  1  0  0  0  0  0  0
  187.8660  178.7490  137.4780 C   0  0  0  0  0  2  0  0  0  0  0  0
  190.8020  175.2550  136.4460 C   0  0  1  0  0  3  0  0  0  0  0  0
  192.0340  177.4890  140.9470 C   0  0  0  0  0  3  0  0  0  0  0  0
  190.8950  176.3370  139.1360 C   0  0  0  0  0  0  0  0  0  0  0  0
  189.6900  176.7090  141.3460 C   0  0  0  0  0  2  0  0  0  0  0  0
  189.4820  177.8830  142.3330 C   0  0  2  0  0  3  0  0  0  0  0  0
  187.8310  177.1590  144.6110 C   0  0  0  0  0  2  0  0  0  0  0  0
  190.1320  177.6250  143.7030 C   0  0  0  0  0  2  0  0  0  0  0  0
  187.4970  178.5950  141.1500 C   0  0  0  0  0  1  0  0  0  0  0  0
  188.0940  178.3740  142.4590 N   0  0  0  0  0  0  0  0  0  0  0  0
  187.2630  177.4300  143.2080 C   0  0  0  0  0  2  0  0  0  0  0  0
  189.1600  177.8750  144.8560 C   0  0  0  0  0  2  0  0  0  0  0  0
  1 19  1  0  0  0  0
  1 21  1  0  0  0  0
  2 17  1  0  0  0  0
  5 11  1  1  0  0  0
  6 16  1  0  0  0  0
  6 17  1  0  0  0  0
  7  5  1  0  0  0  0
  7  2  1  1  0  0  0
  8 12  1  0  0  0  0
  9  4  1  6  0  0  0
  9  6  1  0  0  0  0
  9  7  1  0  0  0  0
 10 15  2  0  0  0  0
 10 20  1  0  0  0  0
 11 20  1  0  0  0  0
 12  4  1  6  0  0  0
 12  7  1  0  0  0  0
 13 19  2  0  0  0  0
 14  3  1  1  0  0  0
 14 10  1  0  0  0  0
 15 13  1  0  0  0  0
 18  8  1  6  0  0  0
 18 14  1  0  0  0  0
 18  5  1  0  0  0  0
 20  1  2  0  0  0  0
 22 21  1  6  0  0  0
 22 26  1  0  0  0  0
 22 24  1  0  0  0  0
 23 28  1  0  0  0  0
 24 28  1  0  0  0  0
 25 26  1  0  0  0  0
 26 27  1  0  0  0  0
 27 23  1  0  0  0  0
M  END
>  <MODEL>
4

>  <REMARK>
 VINA RESULT:      -6.7      3.492      7.231
  Name = 
  2 active torsions:
  status: ('A' for Active; 'I' for Inactive)
    1  A    between atoms: C_1  and  C_2
    2  A    between atoms: C_2  and  C_3
                            x       y       z     vdW  Elec       q    Type
                         _______ _______ _______ _____ _____    ______ ____

>  <TORSDO>
F 2

$$$$
=
 OpenBabel11052413203D

 28 33  0  0  1  0  0  0  0  0999 V2000
  185.6540  178.3790  143.0920 C   0  0  0  0  0  0  0  0  0  0  0  0
  189.3620  178.9220  143.6880 C   0  0  0  0  0  2  0  0  0  0  0  0
  186.5180  177.5150  147.7390 C   0  0  0  0  0  1  0  0  0  0  0  0
  191.6800  177.2440  145.0990 C   0  0  0  0  0  2  0  0  0  0  0  0
  188.6010  176.7010  144.7070 N   0  0  2  0  0  0  0  0  0  0  0  0
  191.3600  177.9310  142.7760 N   0  0  0  0  0  0  0  0  0  0  0  0
  189.6860  177.6670  144.4710 C   0  0  1  0  0  0  0  0  0  0  0  0
  189.7840  176.8630  147.0560 S   0  0  0  0  0  0  0  0  0  0  0  0
  190.8850  177.0240  143.8180 C   0  0  2  0  0  3  0  0  0  0  0  0
  186.4170  178.3880  145.4080 C   0  0  0  0  0  0  0  0  0  0  0  0
  187.4540  176.7540  143.7910 C   0  0  0  0  0  2  0  0  0  0  0  0
  190.4760  177.9170  145.7400 C   0  0  1  0  0  3  0  0  0  0  0  0
  184.7490  179.9880  144.6650 C   0  0  0  0  0  3  0  0  0  0  0  0
  187.3230  177.8990  146.5080 C   0  0  2  0  0  3  0  0  0  0  0  0
  185.5560  179.4630  145.6710 C   0  0  0  0  0  3  0  0  0  0  0  0
  191.5890  177.1290  141.5880 C   0  0  0  0  0  1  0  0  0  0  0  0
  190.2550  178.8350  142.4690 C   0  0  0  0  0  2  0  0  0  0  0  0
  188.2350  176.7220  146.1220 C   0  0  1  0  0  3  0  0  0  0  0  0
  184.7970  179.4490  143.3810 C   0  0  0  0  0  3  0  0  0  0  0  0
  186.4950  177.8680  144.1030 C   0  0  0  0  0  0  0  0  0  0  0  0
  185.6900  177.8340  141.6900 C   0  0  0  0  0  2  0  0  0  0  0  0
  185.6620  178.9030  140.5710 C   0  0  2  0  0  3  0  0  0  0  0  0
  184.5510  177.8990  138.0820 C   0  0  0  0  0  2  0  0  0  0  0  0
  184.2320  179.2880  140.1570 C   0  0  0  0  0  2  0  0  0  0  0  0
  187.8680  178.2530  139.8220 C   0  0  0  0  0  1  0  0  0  0  0  0
  186.5260  178.6300  139.4030 N   0  0  0  0  0  0  0  0  0  0  0  0
  185.9690  177.5610  138.5710 C   0  0  0  0  0  2  0  0  0  0  0  0
  184.0360  179.2260  138.6420 C   0  0  0  0  0  2  0  0  0  0  0  0
  1 19  2  0  0  0  0
  1 20  1  0  0  0  0
  5 11  1  6  0  0  0
  5 18  1  0  0  0  0
  6  9  1  0  0  0  0
  7  2  1  6  0  0  0
  7  5  1  0  0  0  0
  7 12  1  0  0  0  0
  9  7  1  0  0  0  0
  9  4  1  1  0  0  0
 10 15  1  0  0  0  0
 10 14  1  0  0  0  0
 11 20  1  0  0  0  0
 12  4  1  6  0  0  0
 12  8  1  0  0  0  0
 13 15  2  0  0  0  0
 14  3  1  1  0  0  0
 16  6  1  0  0  0  0
 17  6  1  0  0  0  0
 17  2  1  0  0  0  0
 18 14  1  0  0  0  0
 18  8  1  1  0  0  0
 19 13  1  0  0  0  0
 20 10  2  0  0  0  0
 21  1  1  0  0  0  0
 22 21  1  1  0  0  0
 23 27  1  0  0  0  0
 23 28  1  0  0  0  0
 24 22  1  0  0  0  0
 26 25  1  0  0  0  0
 26 22  1  0  0  0  0
 27 26  1  0  0  0  0
 28 24  1  0  0  0  0
M  END
>  <MODEL>
5

>  <REMARK>
 VINA RESULT:      -6.5      1.720      2.566
  Name = 
  2 active torsions:
  status: ('A' for Active; 'I' for Inactive)
    1  A    between atoms: C_1  and  C_2
    2  A    between atoms: C_2  and  C_3
                            x       y       z     vdW  Elec       q    Type
                         _______ _______ _______ _____ _____    ______ ____

>  <TORSDO>
F 2

$$$$
=
 OpenBabel11052413203D

 28 33  0  0  1  0  0  0  0  0999 V2000
  184.9270  178.8520  140.4480 C   0  0  0  0  0  0  0  0  0  0  0  0
  182.5640  176.0030  139.6130 C   0  0  0  0  0  2  0  0  0  0  0  0
  180.8770  179.5450  142.9410 C   0  0  0  0  0  1  0  0  0  0  0  0
  179.5070  175.8060  138.7190 C   0  0  0  0  0  2  0  0  0  0  0  0
  181.3590  178.2530  139.4350 N   0  0  2  0  0  0  0  0  0  0  0  0
  181.5750  175.2010  137.5670 N   0  0  0  0  0  0  0  0  0  0  0  0
  181.2970  176.7860  139.3430 C   0  0  1  0  0  0  0  0  0  0  0  0
  179.1310  177.6650  140.7120 S   0  0  0  0  0  0  0  0  0  0  0  0
  180.7540  176.3240  138.0130 C   0  0  2  0  0  3  0  0  0  0  0  0
  182.9020  178.6560  141.7940 C   0  0  0  0  0  0  0  0  0  0  0  0
  182.6830  178.8710  139.2910 C   0  0  0  0  0  2  0  0  0  0  0  0
  180.0730  176.2480  140.0600 C   0  0  1  0  0  3  0  0  0  0  0  0
  185.0870  178.5580  142.8500 C   0  0  0  0  0  3  0  0  0  0  0  0
  181.4070  178.5410  141.9300 C   0  0  2  0  0  3  0  0  0  0  0  0
  183.6970  178.5230  142.9410 C   0  0  0  0  0  3  0  0  0  0  0  0
  181.9020  175.4420  136.1730 C   0  0  0  0  0  1  0  0  0  0  0  0
  182.8290  175.2730  138.3130 C   0  0  0  0  0  2  0  0  0  0  0  0
  180.6210  178.6950  140.6170 C   0  0  1  0  0  3  0  0  0  0  0  0
  185.6980  178.7220  141.6090 C   0  0  0  0  0  3  0  0  0  0  0  0
  183.5200  178.7840  140.5360 C   0  0  0  0  0  0  0  0  0  0  0  0
  185.6240  179.0120  139.1240 C   0  0  0  0  0  2  0  0  0  0  0  0
  186.7070  177.9490  138.8220 C   0  0  2  0  0  3  0  0  0  0  0  0
  188.8650  178.9780  137.1720 C   0  0  0  0  0  2  0  0  0  0  0  0
  188.0650  178.2920  139.4580 C   0  0  0  0  0  2  0  0  0  0  0  0
  185.5410  177.2510  136.8220 C   0  0  0  0  0  1  0  0  0  0  0  0
  186.8400  177.5550  137.4040 N   0  0  0  0  0  0  0  0  0  0  0  0
  187.4780  178.6130  136.6180 C   0  0  0  0  0  2  0  0  0  0  0  0
  189.2100  178.2080  138.4480 C   0  0  0  0  0  2  0  0  0  0  0  0
  1 20  2  0  0  0  0
  1 19  1  0  0  0  0
  5 11  1  1  0  0  0
  5 18  1  0  0  0  0
  6  9  1  0  0  0  0
  6 17  1  0  0  0  0
  7  5  1  0  0  0  0
  7  2  1  1  0  0  0
  7 12  1  0  0  0  0
  9  4  1  1  0  0  0
  9  7  1  0  0  0  0
 10 14  1  0  0  0  0
 10 15  2  0  0  0  0
 11 20  1  0  0  0  0
 12  4  1  6  0  0  0
 12  8  1  0  0  0  0
 13 15  1  0  0  0  0
 14  3  1  1  0  0  0
 16  6  1  0  0  0  0
 17  2  1  0  0  0  0
 18  8  1  1  0  0  0
 18 14  1  0  0  0  0
 19 13  2  0  0  0  0
 20 10  1  0  0  0  0
 21  1  1  0  0  0  0
 22 21  1  6  0  0  0
 22 24  1  0  0  0  0
 23 28  1  0  0  0  0
 25 26  1  0  0  0  0
 26 22  1  0  0  0  0
 27 23  1  0  0  0  0
 27 26  1  0  0  0  0
 28 24  1  0  0  0  0
M  END
>  <MODEL>
6

>  <REMARK>
 VINA RESULT:      -6.5      4.218      7.911
  Name = 
  2 active torsions:
  status: ('A' for Active; 'I' for Inactive)
    1  A    between atoms: C_1  and  C_2
    2  A    between atoms: C_2  and  C_3
                            x       y       z     vdW  Elec       q    Type
                         _______ _______ _______ _____ _____    ______ ____

>  <TORSDO>
F 2

$$$$
=
 OpenBabel11052413203D

 28 33  0  0  1  0  0  0  0  0999 V2000
  187.7690  177.9110  139.5830 C   0  0  0  0  0  0  0  0  0  0  0  0
  188.0150  176.4440  143.0740 C   0  0  0  0  0  2  0  0  0  0  0  0
  192.4330  177.6000  140.7010 C   0  0  0  0  0  1  0  0  0  0  0  0
  189.5760  177.2390  145.7410 C   0  0  0  0  0  2  0  0  0  0  0  0
  189.4900  178.5250  142.8650 N   0  0  2  0  0  0  0  0  0  0  0  0
  187.1880  177.1270  145.2310 N   0  0  0  0  0  0  0  0  0  0  0  0
  189.0040  177.4090  143.6920 C   0  0  1  0  0  0  0  0  0  0  0  0
  191.6840  177.6310  144.0180 S   0  0  0  0  0  0  0  0  0  0  0  0
  188.4130  177.8860  144.9970 C   0  0  2  0  0  3  0  0  0  0  0  0
  189.9880  177.2620  140.3620 C   0  0  0  0  0  0  0  0  0  0  0  0
  188.6550  178.9160  141.7220 C   0  0  0  0  0  2  0  0  0  0  0  0
  190.1490  176.7370  144.4240 C   0  0  1  0  0  3  0  0  0  0  0  0
  189.0550  176.2610  138.3560 C   0  0  0  0  0  3  0  0  0  0  0  0
  191.1020  177.3040  141.3750 C   0  0  2  0  0  3  0  0  0  0  0  0
  190.0920  176.3780  139.2790 C   0  0  0  0  0  3  0  0  0  0  0  0
  186.1660  178.0800  145.6200 C   0  0  0  0  0  1  0  0  0  0  0  0
  186.7820  176.5740  143.9420 C   0  0  0  0  0  2  0  0  0  0  0  0
  190.8940  178.3010  142.5280 C   0  0  1  0  0  3  0  0  0  0  0  0
  187.8990  177.0240  138.5070 C   0  0  0  0  0  3  0  0  0  0  0  0
  188.8060  178.0060  140.5360 C   0  0  0  0  0  0  0  0  0  0  0  0
  186.4990  178.7070  139.7210 C   0  0  0  0  0  2  0  0  0  0  0  0
  185.1950  177.8940  139.5380 C   0  0  2  0  0  3  0  0  0  0  0  0
  182.9480  179.5440  138.7180 C   0  0  0  0  0  2  0  0  0  0  0  0
  184.7150  177.8690  138.0760 C   0  0  0  0  0  2  0  0  0  0  0  0
  184.5850  178.2530  141.8500 C   0  0  0  0  0  1  0  0  0  0  0  0
  184.1020  178.2200  140.4770 N   0  0  0  0  0  0  0  0  0  0  0  0
  183.4930  179.5120  140.1560 C   0  0  0  0  0  2  0  0  0  0  0  0
  183.2410  178.2540  137.9490 C   0  0  0  0  0  2  0  0  0  0  0  0
  1 21  1  0  0  0  0
  1 20  1  0  0  0  0
  2 17  1  0  0  0  0
  5 11  1  6  0  0  0
  5  7  1  0  0  0  0
  6 16  1  0  0  0  0
  7  2  1  6  0  0  0
  7 12  1  0  0  0  0
  7  9  1  0  0  0  0
  8 12  1  0  0  0  0
  9  6  1  0  0  0  0
  9  4  1  1  0  0  0
 10 20  2  0  0  0  0
 10 14  1  0  0  0  0
 12  4  1  1  0  0  0
 13 19  1  0  0  0  0
 13 15  2  0  0  0  0
 14  3  1  6  0  0  0
 14 18  1  0  0  0  0
 15 10  1  0  0  0  0
 17  6  1  0  0  0  0
 18  5  1  0  0  0  0
 18  8  1  1  0  0  0
 19  1  2  0  0  0  0
 20 11  1  0  0  0  0
 22 21  1  6  0  0  0
 22 26  1  0  0  0  0
 23 27  1  0  0  0  0
 24 22  1  0  0  0  0
 26 25  1  0  0  0  0
 27 26  1  0  0  0  0
 28 24  1  0  0  0  0
 28 23  1  0  0  0  0
M  END
>  <MODEL>
7

>  <REMARK>
 VINA RESULT:      -6.2      1.543      4.777
  Name = 
  2 active torsions:
  status: ('A' for Active; 'I' for Inactive)
    1  A    between atoms: C_1  and  C_2
    2  A    between atoms: C_2  and  C_3
                            x       y       z     vdW  Elec       q    Type
                         _______ _______ _______ _____ _____    ______ ____

>  <TORSDO>
F 2

$$$$
=
 OpenBabel11052413203D

 28 33  0  0  1  0  0  0  0  0999 V2000
  182.5080  178.7280  142.0000 C   0  0  0  0  0  0  0  0  0  0  0  0
  181.1540  176.5760  139.1840 C   0  0  0  0  0  2  0  0  0  0  0  0
  180.0980  181.6090  139.0020 C   0  0  0  0  0  1  0  0  0  0  0  0
  181.1840  176.7630  135.9980 C   0  0  0  0  0  2  0  0  0  0  0  0
  182.3150  178.6560  138.2490 N   0  0  2  0  0  0  0  0  0  0  0  0
  182.1790  175.1460  137.5370 N   0  0  0  0  0  0  0  0  0  0  0  0
  181.5640  177.4170  137.9940 C   0  0  1  0  0  0  0  0  0  0  0  0
  180.5280  179.3940  136.4590 S   0  0  0  0  0  0  0  0  0  0  0  0
  182.2820  176.5090  137.0240 C   0  0  2  0  0  3  0  0  0  0  0  0
  180.9220  179.7710  140.4690 C   0  0  0  0  0  0  0  0  0  0  0  0
  183.0270  178.7480  139.5300 C   0  0  0  0  0  2  0  0  0  0  0  0
  180.4520  177.6530  136.9900 C   0  0  1  0  0  3  0  0  0  0  0  0
  180.4290  179.6510  142.8430 C   0  0  0  0  0  3  0  0  0  0  0  0
  180.4620  180.1350  139.0810 C   0  0  2  0  0  3  0  0  0  0  0  0
  180.0700  180.0300  141.5520 C   0  0  0  0  0  3  0  0  0  0  0  0
  183.5030  174.5590  137.4530 C   0  0  0  0  0  1  0  0  0  0  0  0
  181.8540  175.2530  138.9570 C   0  0  0  0  0  2  0  0  0  0  0  0
  181.4620  179.8070  137.9590 C   0  0  1  0  0  3  0  0  0  0  0  0
  181.6430  179.0030  143.0660 C   0  0  0  0  0  3  0  0  0  0  0  0
  182.1300  179.0840  140.6880 C   0  0  0  0  0  0  0  0  0  0  0  0
  183.8030  178.0130  142.2790 C   0  0  0  0  0  2  0  0  0  0  0  0
  185.0240  178.9350  142.5090 C   0  0  2  0  0  3  0  0  0  0  0  0
  187.5020  177.4570  142.8430 C   0  0  0  0  0  2  0  0  0  0  0  0
  186.0400  178.8670  141.3560 C   0  0  0  0  0  2  0  0  0  0  0  0
  184.6890  178.8700  144.9030 C   0  0  0  0  0  1  0  0  0  0  0  0
  185.6730  178.8190  143.8310 N   0  0  0  0  0  0  0  0  0  0  0  0
  186.4320  177.5720  143.9420 C   0  0  0  0  0  2  0  0  0  0  0  0
  187.4640  178.6280  141.8590 C   0  0  0  0  0  2  0  0  0  0  0  0
  1 21  1  0  0  0  0
  1 19  1  0  0  0  0
  5 11  1  1  0  0  0
  6 17  1  0  0  0  0
  7  5  1  0  0  0  0
  7  2  1  1  0  0  0
  8 12  1  0  0  0  0
  9  4  1  6  0  0  0
  9  6  1  0  0  0  0
  9  7  1  0  0  0  0
 10 20  1  0  0  0  0
 10 15  2  0  0  0  0
 11 20  1  0  0  0  0
 12  4  1  6  0  0  0
 12  7  1  0  0  0  0
 13 19  2  0  0  0  0
 14  3  1  1  0  0  0
 14 10  1  0  0  0  0
 15 13  1  0  0  0  0
 16  6  1  0  0  0  0
 17  2  1  0  0  0  0
 18  8  1  6  0  0  0
 18  5  1  0  0  0  0
 18 14  1  0  0  0  0
 20  1  2  0  0  0  0
 22 21  1  6  0  0  0
 22 26  1  0  0  0  0
 23 27  1  0  0  0  0
 24 28  1  0  0  0  0
 24 22  1  0  0  0  0
 26 27  1  0  0  0  0
 26 25  1  0  0  0  0
 28 23  1  0  0  0  0
M  END
>  <MODEL>
8

>  <REMARK>
 VINA RESULT:      -6.0      3.858      8.200
  Name = 
  2 active torsions:
  status: ('A' for Active; 'I' for Inactive)
    1  A    between atoms: C_1  and  C_2
    2  A    between atoms: C_2  and  C_3
                            x       y       z     vdW  Elec       q    Type
                         _______ _______ _______ _____ _____    ______ ____

>  <TORSDO>
F 2

$$$$
=
 OpenBabel11052413203D

 28 33  0  0  1  0  0  0  0  0999 V2000
  187.3290  177.8450  141.6540 C   0  0  0  0  0  0  0  0  0  0  0  0
  189.4210  178.6130  144.7260 C   0  0  0  0  0  2  0  0  0  0  0  0
  184.3360  178.2060  145.3960 C   0  0  0  0  0  1  0  0  0  0  0  0
  189.6150  177.4050  147.6730 C   0  0  0  0  0  2  0  0  0  0  0  0
  187.7860  176.7040  145.2040 N   0  0  2  0  0  0  0  0  0  0  0  0
  191.2290  177.4730  145.8400 N   0  0  0  0  0  0  0  0  0  0  0  0
  188.8400  177.6050  145.6950 C   0  0  1  0  0  0  0  0  0  0  0  0
  186.8680  177.4830  147.5470 S   0  0  0  0  0  0  0  0  0  0  0  0
  189.9940  176.8480  146.3060 C   0  0  2  0  0  3  0  0  0  0  0  0
  186.1330  178.4590  143.6890 C   0  0  0  0  0  0  0  0  0  0  0  0
  187.7140  176.4950  143.7520 C   0  0  0  0  0  2  0  0  0  0  0  0
  188.4710  178.1880  147.0450 C   0  0  1  0  0  3  0  0  0  0  0  0
  185.8620  179.7770  141.6680 C   0  0  0  0  0  3  0  0  0  0  0  0
  185.8350  178.2860  145.1560 C   0  0  2  0  0  3  0  0  0  0  0  0
  185.5620  179.5430  143.0080 C   0  0  0  0  0  3  0  0  0  0  0  0
  192.1100  176.4030  145.4110 C   0  0  0  0  0  1  0  0  0  0  0  0
  190.8870  178.2430  144.6460 C   0  0  0  0  0  2  0  0  0  0  0  0
  186.5110  177.0720  145.8160 C   0  0  1  0  0  3  0  0  0  0  0  0
  186.7420  178.9320  140.9940 C   0  0  0  0  0  3  0  0  0  0  0  0
  187.0500  177.6270  143.0200 C   0  0  0  0  0  0  0  0  0  0  0  0
  188.2870  176.9640  140.8980 C   0  0  0  0  0  2  0  0  0  0  0  0
  189.0780  177.6730  139.7730 C   0  0  2  0  0  3  0  0  0  0  0  0
  190.1050  175.8230  137.7820 C   0  0  0  0  0  2  0  0  0  0  0  0
  188.3890  177.5580  138.4030 C   0  0  0  0  0  2  0  0  0  0  0  0
  191.1430  177.4490  141.0120 C   0  0  0  0  0  1  0  0  0  0  0  0
  190.5180  177.3480  139.7010 N   0  0  0  0  0  0  0  0  0  0  0  0
  190.7310  175.9980  139.1760 C   0  0  0  0  0  2  0  0  0  0  0  0
  189.3480  177.0680  137.3170 C   0  0  0  0  0  2  0  0  0  0  0  0
  1 20  1  0  0  0  0
  5 11  1  6  0  0  0
  5  7  1  0  0  0  0
  5 18  1  0  0  0  0
  6  9  1  0  0  0  0
  7  2  1  6  0  0  0
  7  9  1  0  0  0  0
  7 12  1  0  0  0  0
  9  4  1  1  0  0  0
 10 14  1  0  0  0  0
 12  8  1  0  0  0  0
 12  4  1  1  0  0  0
 13 15  2  0  0  0  0
 14  3  1  6  0  0  0
 14 18  1  0  0  0  0
 15 10  1  0  0  0  0
 16  6  1  0  0  0  0
 17  2  1  0  0  0  0
 17  6  1  0  0  0  0
 18  8  1  1  0  0  0
 19  1  2  0  0  0  0
 19 13  1  0  0  0  0
 20 10  2  0  0  0  0
 20 11  1  0  0  0  0
 21  1  1  0  0  0  0
 22 21  1  1  0  0  0
 23 27  1  0  0  0  0
 24 22  1  0  0  0  0
 26 22  1  0  0  0  0
 26 25  1  0  0  0  0
 27 26  1  0  0  0  0
 28 23  1  0  0  0  0
 28 24  1  0  0  0  0
M  END
>  <MODEL>
9

>  <REMARK>
 VINA RESULT:      -5.8      2.456      5.330
  Name = 
  2 active torsions:
  status: ('A' for Active; 'I' for Inactive)
    1  A    between atoms: C_1  and  C_2
    2  A    between atoms: C_2  and  C_3
                            x       y       z     vdW  Elec       q    Type
                         _______ _______ _______ _____ _____    ______ ____

>  <TORSDO>
F 2

$$$$
