=
 OpenBabel11052413123D

 31 35  0  0  1  0  0  0  0  0999 V2000
  189.8100  177.3230  147.1220 C   0  0  0  0  0  0  0  0  0  0  0  0
  188.0570  177.5960  143.7360 C   0  0  0  0  0  0  0  0  0  0  0  0
  186.6740  177.8180  144.0020 C   0  0  0  0  0  0  0  0  0  0  0  0
  185.5090  178.7470  145.9760 C   0  0  0  0  0  3  0  0  0  0  0  0
  189.0640  177.2820  144.8020 C   0  0  0  0  0  0  0  0  0  0  0  0
  191.0400  176.7790  146.7460 C   0  0  0  0  0  3  0  0  0  0  0  0
  186.0930  177.5250  145.3520 C   0  0  0  0  0  2  0  0  0  0  0  0
  189.9810  177.4530  142.0760 C   0  0  2  0  0  3  0  0  0  0  0  0
  189.5490  177.6140  148.4900 N   0  0  0  0  0  1  0  0  0  0  0  0
  186.2930  178.2600  141.6450 C   0  0  0  0  0  3  0  0  0  0  0  0
  184.4500  179.3730  145.4690 C   0  0  0  0  0  3  0  0  0  0  0  0
  190.6050  176.4160  143.0060 C   0  0  0  0  0  2  0  0  0  0  0  0
  188.5150  177.6540  142.3940 C   0  0  0  0  0  0  0  0  0  0  0  0
  188.8360  177.5810  146.1560 C   0  0  0  0  0  3  0  0  0  0  0  0
  183.7820  179.0040  144.2080 C   0  0  0  0  0  3  0  0  0  0  0  0
  190.3220  176.7560  144.4340 C   0  0  0  0  0  0  0  0  0  0  0  0
  191.2940  176.4950  145.4030 C   0  0  0  0  0  3  0  0  0  0  0  0
  187.6300  178.0040  141.3710 C   0  0  0  0  0  3  0  0  0  0  0  0
  185.8040  178.1770  142.9460 C   0  0  0  0  0  0  0  0  0  0  0  0
  184.3680  178.4830  143.1230 C   0  0  0  0  0  3  0  0  0  0  0  0
  192.3400  177.8780  140.5530 O   0  0  0  0  0  0  0  0  0  0  0  0
  191.3960  177.2640  139.9850 C   0  0  0  0  0  0  0  0  0  0  0  0
  190.1740  177.0310  140.6920 N   0  0  0  0  0  2  0  0  0  0  0  0
  191.7250  175.8800  135.9360 C   0  0  0  0  0  0  0  0  0  0  0  0
  190.4110  176.7600  137.7640 C   0  0  0  0  0  3  0  0  0  0  0  0
  193.9380  176.3650  138.8400 O   0  0  0  0  0  1  0  0  0  0  0  0
  191.8150  175.4160  134.5940 N   0  0  0  0  0  1  0  0  0  0  0  0
  190.4990  176.3110  136.4440 C   0  0  0  0  0  3  0  0  0  0  0  0
  192.7810  176.3470  138.0700 C   0  0  0  0  0  0  0  0  0  0  0  0
  191.5420  176.7790  138.5930 C   0  0  0  0  0  0  0  0  0  0  0  0
  192.8630  175.9000  136.7460 C   0  0  0  0  0  3  0  0  0  0  0  0
  1  9  1  0  0  0  0
  2  3  1  0  0  0  0
  2  5  1  0  0  0  0
  3  7  1  0  0  0  0
  5 14  1  0  0  0  0
  6  1  1  0  0  0  0
  7  4  1  0  0  0  0
  8 23  1  6  0  0  0
  8 13  1  0  0  0  0
  8 12  1  0  0  0  0
 10 19  1  0  0  0  0
 11  4  2  0  0  0  0
 12 16  1  0  0  0  0
 13  2  2  0  0  0  0
 14  1  2  0  0  0  0
 15 11  1  0  0  0  0
 16  5  2  0  0  0  0
 16 17  1  0  0  0  0
 17  6  2  0  0  0  0
 18 10  2  0  0  0  0
 18 13  1  0  0  0  0
 19 20  1  0  0  0  0
 19  3  2  0  0  0  0
 20 15  2  0  0  0  0
 22 21  2  0  0  0  0
 22 23  1  0  0  0  0
 24 28  2  0  0  0  0
 24 31  1  0  0  0  0
 25 30  2  0  0  0  0
 27 24  1  0  0  0  0
 28 25  1  0  0  0  0
 29 30  1  0  0  0  0
 29 26  1  0  0  0  0
 30 22  1  0  0  0  0
 31 29  2  0  0  0  0
M  END
>  <MODEL>
1

>  <REMARK>
 VINA RESULT:     -11.7      0.000      0.000
  Name = 
  2 active torsions:
  status: ('A' for Active; 'I' for Inactive)
    1  A    between atoms: C_9  and  C_22
    2  A    between atoms: C_15  and  N_23
                            x       y       z     vdW  Elec       q    Type
                         _______ _______ _______ _____ _____    ______ ____

>  <TORSDO>
F 2

$$$$
=
 OpenBabel11052413123D

 31 35  0  0  1  0  0  0  0  0999 V2000
  185.4290  178.5040  143.2660 C   0  0  0  0  0  0  0  0  0  0  0  0
  189.1060  177.4890  143.0230 C   0  0  0  0  0  0  0  0  0  0  0  0
  189.6240  177.4860  144.3510 C   0  0  0  0  0  0  0  0  0  0  0  0
  188.5120  177.2520  146.5470 C   0  0  0  0  0  3  0  0  0  0  0  0
  187.7340  177.9820  142.6720 C   0  0  0  0  0  0  0  0  0  0  0  0
  185.1420  178.8010  141.9330 C   0  0  0  0  0  3  0  0  0  0  0  0
  188.9040  178.1920  145.4600 C   0  0  0  0  0  2  0  0  0  0  0  0
  189.4030  176.9820  140.5460 C   0  0  2  0  0  3  0  0  0  0  0  0
  184.4140  178.6250  144.2560 N   0  0  0  0  0  1  0  0  0  0  0  0
  191.6710  176.4550  143.5490 C   0  0  0  0  0  3  0  0  0  0  0  0
  189.4050  176.6180  147.3030 C   0  0  0  0  0  3  0  0  0  0  0  0
  188.4810  178.1670  140.2720 C   0  0  0  0  0  2  0  0  0  0  0  0
  189.9290  177.0210  141.9660 C   0  0  0  0  0  0  0  0  0  0  0  0
  186.7120  178.0890  143.6290 C   0  0  0  0  0  3  0  0  0  0  0  0
  190.8650  176.6920  147.1160 C   0  0  0  0  0  3  0  0  0  0  0  0
  187.4220  178.2610  141.3230 C   0  0  0  0  0  0  0  0  0  0  0  0
  186.1380  178.6800  140.9620 C   0  0  0  0  0  3  0  0  0  0  0  0
  191.1910  176.4930  142.2460 C   0  0  0  0  0  3  0  0  0  0  0  0
  190.9040  176.9390  144.6050 C   0  0  0  0  0  0  0  0  0  0  0  0
  191.5080  176.8360  145.9510 C   0  0  0  0  0  3  0  0  0  0  0  0
  189.5970  175.2520  138.3020 O   0  0  0  0  0  0  0  0  0  0  0  0
  190.5210  176.0970  138.4540 C   0  0  0  0  0  0  0  0  0  0  0  0
  190.4910  176.9880  139.5740 N   0  0  0  0  0  2  0  0  0  0  0  0
  193.6860  176.3170  135.5640 C   0  0  0  0  0  0  0  0  0  0  0  0
  191.3650  175.9450  136.1260 C   0  0  0  0  0  3  0  0  0  0  0  0
  193.2770  176.7550  139.1990 O   0  0  0  0  0  1  0  0  0  0  0  0
  194.7250  176.3780  134.5940 N   0  0  0  0  0  1  0  0  0  0  0  0
  192.3830  176.0110  135.1710 C   0  0  0  0  0  3  0  0  0  0  0  0
  192.9560  176.4940  137.8710 C   0  0  0  0  0  0  0  0  0  0  0  0
  191.6350  176.1780  137.4820 C   0  0  0  0  0  0  0  0  0  0  0  0
  193.9710  176.5590  136.9100 C   0  0  0  0  0  3  0  0  0  0  0  0
  1 14  1  0  0  0  0
  1  9  1  0  0  0  0
  2  3  1  0  0  0  0
  3 19  2  0  0  0  0
  3  7  1  0  0  0  0
  4 11  2  0  0  0  0
  5  2  1  0  0  0  0
  5 14  2  0  0  0  0
  6  1  2  0  0  0  0
  7  4  1  0  0  0  0
  8 23  1  6  0  0  0
  8 13  1  0  0  0  0
 10 19  1  0  0  0  0
 12  8  1  0  0  0  0
 12 16  1  0  0  0  0
 13 18  1  0  0  0  0
 13  2  2  0  0  0  0
 15 11  1  0  0  0  0
 16  5  1  0  0  0  0
 17 16  2  0  0  0  0
 17  6  1  0  0  0  0
 18 10  2  0  0  0  0
 19 20  1  0  0  0  0
 20 15  2  0  0  0  0
 21 22  2  0  0  0  0
 22 23  1  0  0  0  0
 24 31  1  0  0  0  0
 25 30  2  0  0  0  0
 27 24  1  0  0  0  0
 28 24  2  0  0  0  0
 28 25  1  0  0  0  0
 29 26  1  0  0  0  0
 30 29  1  0  0  0  0
 30 22  1  0  0  0  0
 31 29  2  0  0  0  0
M  END
>  <MODEL>
2

>  <REMARK>
 VINA RESULT:     -10.3      1.799      4.321
  Name = 
  2 active torsions:
  status: ('A' for Active; 'I' for Inactive)
    1  A    between atoms: C_9  and  C_22
    2  A    between atoms: C_15  and  N_23
                            x       y       z     vdW  Elec       q    Type
                         _______ _______ _______ _____ _____    ______ ____

>  <TORSDO>
F 2

$$$$
=
 OpenBabel11052413123D

 31 35  0  0  1  0  0  0  0  0999 V2000
  190.7470  177.4230  141.9940 C   0  0  0  0  0  0  0  0  0  0  0  0
  187.2360  178.1700  143.3060 C   0  0  0  0  0  0  0  0  0  0  0  0
  187.2430  177.8760  144.7010 C   0  0  0  0  0  0  0  0  0  0  0  0
  189.0850  177.7680  146.3480 C   0  0  0  0  0  3  0  0  0  0  0  0
  188.3840  177.8650  142.3910 C   0  0  0  0  0  0  0  0  0  0  0  0
  190.5240  177.4120  140.6160 C   0  0  0  0  0  3  0  0  0  0  0  0
  188.3220  177.0270  145.3030 C   0  0  0  0  0  2  0  0  0  0  0  0
  186.0470  179.1220  141.2660 C   0  0  2  0  0  3  0  0  0  0  0  0
  192.0550  177.1930  142.5050 N   0  0  0  0  0  1  0  0  0  0  0  0
  185.0420  178.8770  144.9220 C   0  0  0  0  0  3  0  0  0  0  0  0
  188.5310  178.1710  147.4890 C   0  0  0  0  0  3  0  0  0  0  0  0
  186.8060  178.0890  140.4380 C   0  0  0  0  0  2  0  0  0  0  0  0
  186.0810  178.7670  142.7380 C   0  0  0  0  0  0  0  0  0  0  0  0
  189.6870  177.6560  142.8720 C   0  0  0  0  0  3  0  0  0  0  0  0
  187.1040  178.0190  147.8270 C   0  0  0  0  0  3  0  0  0  0  0  0
  188.1780  177.8780  140.9940 C   0  0  0  0  0  0  0  0  0  0  0  0
  189.2400  177.6400  140.1170 C   0  0  0  0  0  3  0  0  0  0  0  0
  185.0090  179.1290  143.5570 C   0  0  0  0  0  3  0  0  0  0  0  0
  186.1450  178.2600  145.5060 C   0  0  0  0  0  0  0  0  0  0  0  0
  186.0780  178.0520  146.9690 C   0  0  0  0  0  3  0  0  0  0  0  0
  185.3120  179.3770  138.5350 O   0  0  0  0  0  0  0  0  0  0  0  0
  184.3740  179.3310  139.3770 C   0  0  0  0  0  0  0  0  0  0  0  0
  184.6770  179.2180  140.7710 N   0  0  0  0  0  2  0  0  0  0  0  0
  180.2880  179.5930  138.0920 C   0  0  0  0  0  0  0  0  0  0  0  0
  182.3730  180.6420  138.7190 C   0  0  0  0  0  3  0  0  0  0  0  0
  182.7300  176.9540  138.8950 O   0  0  0  0  0  1  0  0  0  0  0  0
  178.9320  179.6970  137.6740 N   0  0  0  0  0  1  0  0  0  0  0  0
  181.0440  180.7460  138.3020 C   0  0  0  0  0  3  0  0  0  0  0  0
  182.1920  178.2230  138.7150 C   0  0  0  0  0  0  0  0  0  0  0  0
  182.9620  179.3870  138.9360 C   0  0  0  0  0  0  0  0  0  0  0  0
  180.8610  178.3350  138.2960 C   0  0  0  0  0  3  0  0  0  0  0  0
  1  9  1  0  0  0  0
  1 14  1  0  0  0  0
  2  3  1  0  0  0  0
  3  7  1  0  0  0  0
  3 19  2  0  0  0  0
  4 11  2  0  0  0  0
  5 14  2  0  0  0  0
  5  2  1  0  0  0  0
  6  1  2  0  0  0  0
  7  4  1  0  0  0  0
  8 23  1  6  0  0  0
  8 13  1  0  0  0  0
 10 19  1  0  0  0  0
 11 15  1  0  0  0  0
 12 16  1  0  0  0  0
 12  8  1  0  0  0  0
 13  2  2  0  0  0  0
 13 18  1  0  0  0  0
 16  5  1  0  0  0  0
 17  6  1  0  0  0  0
 17 16  2  0  0  0  0
 18 10  2  0  0  0  0
 19 20  1  0  0  0  0
 20 15  2  0  0  0  0
 21 22  2  0  0  0  0
 22 23  1  0  0  0  0
 24 31  2  0  0  0  0
 24 28  1  0  0  0  0
 25 30  1  0  0  0  0
 27 24  1  0  0  0  0
 28 25  2  0  0  0  0
 29 26  1  0  0  0  0
 29 30  2  0  0  0  0
 30 22  1  0  0  0  0
 31 29  1  0  0  0  0
M  END
>  <MODEL>
3

>  <REMARK>
 VINA RESULT:     -10.0      4.257      6.959
  Name = 
  2 active torsions:
  status: ('A' for Active; 'I' for Inactive)
    1  A    between atoms: C_9  and  C_22
    2  A    between atoms: C_15  and  N_23
                            x       y       z     vdW  Elec       q    Type
                         _______ _______ _______ _____ _____    ______ ____

>  <TORSDO>
F 2

$$$$
=
 OpenBabel11052413123D

 31 35  0  0  1  0  0  0  0  0999 V2000
  187.4370  177.5280  147.1290 C   0  0  0  0  0  0  0  0  0  0  0  0
  187.2980  178.1480  143.3600 C   0  0  0  0  0  0  0  0  0  0  0  0
  188.6300  178.0220  142.8690 C   0  0  0  0  0  0  0  0  0  0  0  0
  190.6050  176.8310  143.7640 C   0  0  0  0  0  3  0  0  0  0  0  0
  186.9480  178.1260  144.8170 C   0  0  0  0  0  0  0  0  0  0  0  0
  186.1880  178.0070  147.5280 C   0  0  0  0  0  3  0  0  0  0  0  0
  189.8030  178.0870  143.8000 C   0  0  0  0  0  2  0  0  0  0  0  0
  184.8080  178.4300  142.9120 C   0  0  2  0  0  3  0  0  0  0  0  0
  188.3340  176.9880  148.0940 N   0  0  0  0  0  1  0  0  0  0  0  0
  187.8000  178.1190  140.5900 C   0  0  0  0  0  3  0  0  0  0  0  0
  191.2710  176.4380  142.6820 C   0  0  0  0  0  3  0  0  0  0  0  0
  184.7330  179.1800  144.2390 C   0  0  0  0  0  2  0  0  0  0  0  0
  186.2400  178.3210  142.4300 C   0  0  0  0  0  0  0  0  0  0  0  0
  187.8090  177.5790  145.7840 C   0  0  0  0  0  3  0  0  0  0  0  0
  191.2380  177.1280  141.3800 C   0  0  0  0  0  3  0  0  0  0  0  0
  185.6780  178.5830  145.2320 C   0  0  0  0  0  0  0  0  0  0  0  0
  185.3090  178.5340  146.5790 C   0  0  0  0  0  3  0  0  0  0  0  0
  186.5040  178.2850  141.0590 C   0  0  0  0  0  3  0  0  0  0  0  0
  188.8660  177.9820  141.4750 C   0  0  0  0  0  0  0  0  0  0  0  0
  190.2010  177.7980  140.8640 C   0  0  0  0  0  3  0  0  0  0  0  0
  183.1990  177.1280  140.9660 O   0  0  0  0  0  0  0  0  0  0  0  0
  183.1660  178.3890  140.9850 C   0  0  0  0  0  0  0  0  0  0  0  0
  183.9650  179.1060  141.9310 N   0  0  0  0  0  2  0  0  0  0  0  0
  180.5860  180.5070  138.2890 C   0  0  0  0  0  0  0  0  0  0  0  0
  180.9200  178.8980  140.0610 C   0  0  0  0  0  3  0  0  0  0  0  0
  184.1800  180.3710  139.0820 O   0  0  0  0  0  1  0  0  0  0  0  0
  179.7170  181.1950  137.3950 N   0  0  0  0  0  1  0  0  0  0  0  0
  180.0660  179.5780  139.1890 C   0  0  0  0  0  3  0  0  0  0  0  0
  182.8210  180.0820  139.1300 C   0  0  0  0  0  0  0  0  0  0  0  0
  182.3030  179.1340  140.0400 C   0  0  0  0  0  0  0  0  0  0  0  0
  181.9590  180.7600  138.2610 C   0  0  0  0  0  3  0  0  0  0  0  0
  1  6  1  0  0  0  0
  1  9  1  0  0  0  0
  2  5  1  0  0  0  0
  3  2  1  0  0  0  0
  3  7  1  0  0  0  0
  4  7  1  0  0  0  0
  5 16  2  0  0  0  0
  5 14  1  0  0  0  0
  8 23  1  6  0  0  0
  8 12  1  0  0  0  0
 10 18  2  0  0  0  0
 10 19  1  0  0  0  0
 11  4  2  0  0  0  0
 12 16  1  0  0  0  0
 13  8  1  0  0  0  0
 13  2  2  0  0  0  0
 14  1  2  0  0  0  0
 15 11  1  0  0  0  0
 16 17  1  0  0  0  0
 17  6  2  0  0  0  0
 18 13  1  0  0  0  0
 19  3  2  0  0  0  0
 20 15  2  0  0  0  0
 20 19  1  0  0  0  0
 21 22  2  0  0  0  0
 22 23  1  0  0  0  0
 24 28  1  0  0  0  0
 26 29  1  0  0  0  0
 27 24  1  0  0  0  0
 28 25  2  0  0  0  0
 29 30  2  0  0  0  0
 30 25  1  0  0  0  0
 30 22  1  0  0  0  0
 31 24  2  0  0  0  0
 31 29  1  0  0  0  0
M  END
>  <MODEL>
4

>  <REMARK>
 VINA RESULT:      -9.8      4.169      7.307
  Name = 
  2 active torsions:
  status: ('A' for Active; 'I' for Inactive)
    1  A    between atoms: C_9  and  C_22
    2  A    between atoms: C_15  and  N_23
                            x       y       z     vdW  Elec       q    Type
                         _______ _______ _______ _____ _____    ______ ____

>  <TORSDO>
F 2

$$$$
=
 OpenBabel11052413123D

 31 35  0  0  1  0  0  0  0  0999 V2000
  184.1420  178.7560  143.9150 C   0  0  0  0  0  0  0  0  0  0  0  0
  187.8150  177.7630  144.2880 C   0  0  0  0  0  0  0  0  0  0  0  0
  188.1580  177.9490  145.6590 C   0  0  0  0  0  0  0  0  0  0  0  0
  186.7720  178.0080  147.7060 C   0  0  0  0  0  3  0  0  0  0  0  0
  186.5020  178.1850  143.6990 C   0  0  0  0  0  0  0  0  0  0  0  0
  184.0310  178.8630  142.5280 C   0  0  0  0  0  3  0  0  0  0  0  0
  187.3060  178.7940  146.5570 C   0  0  0  0  0  2  0  0  0  0  0  0
  188.4240  176.9210  141.9640 C   0  0  2  0  0  3  0  0  0  0  0  0
  183.0100  179.0010  144.7410 N   0  0  0  0  0  1  0  0  0  0  0  0
  190.2850  176.8420  145.2760 C   0  0  0  0  0  3  0  0  0  0  0  0
  187.5570  177.4970  148.6500 C   0  0  0  0  0  3  0  0  0  0  0  0
  187.5520  178.0460  141.4120 C   0  0  0  0  0  2  0  0  0  0  0  0
  188.7640  177.1630  143.4200 C   0  0  0  0  0  0  0  0  0  0  0  0
  185.3660  178.4110  144.4940 C   0  0  0  0  0  3  0  0  0  0  0  0
  189.0290  177.5610  148.6430 C   0  0  0  0  0  3  0  0  0  0  0  0
  186.3680  178.2710  142.2960 C   0  0  0  0  0  0  0  0  0  0  0  0
  185.1430  178.6200  141.7190 C   0  0  0  0  0  3  0  0  0  0  0  0
  189.9770  176.6940  143.9300 C   0  0  0  0  0  3  0  0  0  0  0  0
  189.3910  177.4590  146.1480 C   0  0  0  0  0  0  0  0  0  0  0  0
  189.8180  177.5510  147.5610 C   0  0  0  0  0  3  0  0  0  0  0  0
  188.4650  176.7730  139.1280 O   0  0  0  0  0  0  0  0  0  0  0  0
  189.5800  176.7490  139.7180 C   0  0  0  0  0  0  0  0  0  0  0  0
  189.6280  176.8060  141.1470 N   0  0  0  0  0  2  0  0  0  0  0  0
  193.1800  176.4920  137.3970 C   0  0  0  0  0  0  0  0  0  0  0  0
  190.7880  176.2260  137.6150 C   0  0  0  0  0  3  0  0  0  0  0  0
  192.1960  177.5030  140.7990 O   0  0  0  0  0  1  0  0  0  0  0  0
  194.3660  176.3930  136.6160 N   0  0  0  0  0  1  0  0  0  0  0  0
  191.9500  176.1340  136.8450 C   0  0  0  0  0  3  0  0  0  0  0  0
  192.0890  177.0360  139.4940 C   0  0  0  0  0  0  0  0  0  0  0  0
  190.8400  176.6700  138.9450 C   0  0  0  0  0  0  0  0  0  0  0  0
  193.2490  176.9440  138.7170 C   0  0  0  0  0  3  0  0  0  0  0  0
  1 14  1  0  0  0  0
  1  9  1  0  0  0  0
  2  3  1  0  0  0  0
  3 19  2  0  0  0  0
  3  7  1  0  0  0  0
  4 11  2  0  0  0  0
  5  2  1  0  0  0  0
  5 14  2  0  0  0  0
  6  1  2  0  0  0  0
  7  4  1  0  0  0  0
  8 23  1  6  0  0  0
  8 13  1  0  0  0  0
 10 19  1  0  0  0  0
 12  8  1  0  0  0  0
 12 16  1  0  0  0  0
 13 18  1  0  0  0  0
 13  2  2  0  0  0  0
 15 11  1  0  0  0  0
 16  5  1  0  0  0  0
 17 16  2  0  0  0  0
 17  6  1  0  0  0  0
 18 10  2  0  0  0  0
 19 20  1  0  0  0  0
 20 15  2  0  0  0  0
 21 22  2  0  0  0  0
 22 23  1  0  0  0  0
 24 31  1  0  0  0  0
 25 30  2  0  0  0  0
 27 24  1  0  0  0  0
 28 24  2  0  0  0  0
 28 25  1  0  0  0  0
 29 26  1  0  0  0  0
 30 29  1  0  0  0  0
 30 22  1  0  0  0  0
 31 29  2  0  0  0  0
M  END
>  <MODEL>
5

>  <REMARK>
 VINA RESULT:      -9.7      2.016      4.251
  Name = 
  2 active torsions:
  status: ('A' for Active; 'I' for Inactive)
    1  A    between atoms: C_9  and  C_22
    2  A    between atoms: C_15  and  N_23
                            x       y       z     vdW  Elec       q    Type
                         _______ _______ _______ _____ _____    ______ ____

>  <TORSDO>
F 2

$$$$
=
 OpenBabel11052413123D

 31 35  0  0  1  0  0  0  0  0999 V2000
  191.6140  177.3440  140.2190 C   0  0  0  0  0  0  0  0  0  0  0  0
  188.6310  177.5680  142.5990 C   0  0  0  0  0  0  0  0  0  0  0  0
  189.0810  177.1120  143.8720 C   0  0  0  0  0  0  0  0  0  0  0  0
  191.3400  176.9960  144.8720 C   0  0  0  0  0  3  0  0  0  0  0  0
  189.4620  177.4930  141.3530 C   0  0  0  0  0  0  0  0  0  0  0  0
  190.9830  177.4760  138.9810 C   0  0  0  0  0  3  0  0  0  0  0  0
  190.3420  176.3110  144.0010 C   0  0  0  0  0  2  0  0  0  0  0  0
  186.8210  178.6300  141.1580 C   0  0  2  0  0  3  0  0  0  0  0  0
  193.0270  177.1890  140.2840 N   0  0  0  0  0  1  0  0  0  0  0  0
  186.9950  177.8500  144.8730 C   0  0  0  0  0  3  0  0  0  0  0  0
  191.1370  177.2010  146.1700 C   0  0  0  0  0  3  0  0  0  0  0  0
  187.3530  177.7870  140.0030 C   0  0  0  0  0  2  0  0  0  0  0  0
  187.3230  178.1080  142.4880 C   0  0  0  0  0  0  0  0  0  0  0  0
  190.8600  177.3620  141.3940 C   0  0  0  0  0  3  0  0  0  0  0  0
  189.8930  176.8650  146.8880 C   0  0  0  0  0  3  0  0  0  0  0  0
  188.8390  177.6520  140.0950 C   0  0  0  0  0  0  0  0  0  0  0  0
  189.5960  177.6290  138.9200 C   0  0  0  0  0  3  0  0  0  0  0  0
  186.5320  178.2580  143.6290 C   0  0  0  0  0  3  0  0  0  0  0  0
  188.2590  177.2830  145.0110 C   0  0  0  0  0  0  0  0  0  0  0  0
  188.6540  176.8960  146.3830 C   0  0  0  0  0  3  0  0  0  0  0  0
  185.2740  179.3720  138.8940 O   0  0  0  0  0  0  0  0  0  0  0  0
  184.6430  179.0160  139.9270 C   0  0  0  0  0  0  0  0  0  0  0  0
  185.3630  178.6450  141.1070 N   0  0  0  0  0  2  0  0  0  0  0  0
  180.3570  178.8160  139.9860 C   0  0  0  0  0  0  0  0  0  0  0  0
  182.5190  177.8970  140.5530 C   0  0  0  0  0  3  0  0  0  0  0  0
  182.9620  181.0900  138.7190 O   0  0  0  0  0  1  0  0  0  0  0  0
  178.9360  178.7300  140.0070 N   0  0  0  0  0  1  0  0  0  0  0  0
  181.1240  177.8150  140.5810 C   0  0  0  0  0  3  0  0  0  0  0  0
  182.3780  179.9880  139.3340 C   0  0  0  0  0  0  0  0  0  0  0  0
  183.1630  178.9750  139.9280 C   0  0  0  0  0  0  0  0  0  0  0  0
  180.9810  179.9000  139.3660 C   0  0  0  0  0  3  0  0  0  0  0  0
  1  9  1  0  0  0  0
  1 14  1  0  0  0  0
  2  3  1  0  0  0  0
  3  7  1  0  0  0  0
  3 19  2  0  0  0  0
  4 11  2  0  0  0  0
  5 14  2  0  0  0  0
  5  2  1  0  0  0  0
  6  1  2  0  0  0  0
  7  4  1  0  0  0  0
  8 23  1  1  0  0  0
  8 13  1  0  0  0  0
 10 19  1  0  0  0  0
 11 15  1  0  0  0  0
 12 16  1  0  0  0  0
 12  8  1  0  0  0  0
 13  2  2  0  0  0  0
 13 18  1  0  0  0  0
 16  5  1  0  0  0  0
 17  6  1  0  0  0  0
 17 16  2  0  0  0  0
 18 10  2  0  0  0  0
 19 20  1  0  0  0  0
 20 15  2  0  0  0  0
 21 22  2  0  0  0  0
 22 30  1  0  0  0  0
 22 23  1  0  0  0  0
 24 27  1  0  0  0  0
 24 28  1  0  0  0  0
 25 28  2  0  0  0  0
 26 29  1  0  0  0  0
 29 31  1  0  0  0  0
 29 30  2  0  0  0  0
 30 25  1  0  0  0  0
 31 24  2  0  0  0  0
M  END
>  <MODEL>
6

>  <REMARK>
 VINA RESULT:      -9.4      3.847      7.482
  Name = 
  2 active torsions:
  status: ('A' for Active; 'I' for Inactive)
    1  A    between atoms: C_9  and  C_22
    2  A    between atoms: C_15  and  N_23
                            x       y       z     vdW  Elec       q    Type
                         _______ _______ _______ _____ _____    ______ ____

>  <TORSDO>
F 2

$$$$
=
 OpenBabel11052413123D

 31 35  0  0  1  0  0  0  0  0999 V2000
  185.7170  178.3730  146.0820 C   0  0  0  0  0  0  0  0  0  0  0  0
  184.8080  178.4980  142.3720 C   0  0  0  0  0  0  0  0  0  0  0  0
  183.3870  178.5840  142.2950 C   0  0  0  0  0  0  0  0  0  0  0  0
  181.6990  179.3810  143.9170 C   0  0  0  0  0  3  0  0  0  0  0  0
  185.5550  178.2760  143.6520 C   0  0  0  0  0  0  0  0  0  0  0  0
  187.0460  177.9530  146.0210 C   0  0  0  0  0  3  0  0  0  0  0  0
  182.5300  178.2260  143.4720 C   0  0  0  0  0  2  0  0  0  0  0  0
  187.0790  178.5540  141.2220 C   0  0  2  0  0  3  0  0  0  0  0  0
  185.1090  178.6280  147.3430 N   0  0  0  0  0  1  0  0  0  0  0  0
  183.5420  179.0040  139.9090 C   0  0  0  0  0  3  0  0  0  0  0  0
  180.7380  179.9050  143.1620 C   0  0  0  0  0  3  0  0  0  0  0  0
  187.5580  177.5760  142.2910 C   0  0  0  0  0  2  0  0  0  0  0  0
  185.5660  178.6100  141.1770 C   0  0  0  0  0  0  0  0  0  0  0  0
  184.9820  178.5420  144.9070 C   0  0  0  0  0  3  0  0  0  0  0  0
  180.4300  179.4820  141.7840 C   0  0  0  0  0  3  0  0  0  0  0  0
  186.9090  177.8770  143.6040 C   0  0  0  0  0  0  0  0  0  0  0  0
  187.6420  177.7050  144.7820 C   0  0  0  0  0  3  0  0  0  0  0  0
  184.9230  178.8800  139.9670 C   0  0  0  0  0  3  0  0  0  0  0  0
  182.7650  178.8640  141.0560 C   0  0  0  0  0  0  0  0  0  0  0  0
  181.3060  179.0280  140.8800 C   0  0  0  0  0  3  0  0  0  0  0  0
  189.7980  177.8790  140.7570 O   0  0  0  0  0  0  0  0  0  0  0  0
  189.0170  177.8200  139.7680 C   0  0  0  0  0  0  0  0  0  0  0  0
  187.6370  178.1630  139.9320 N   0  0  0  0  0  2  0  0  0  0  0  0
  190.4870  176.5040  135.9570 C   0  0  0  0  0  0  0  0  0  0  0  0
  190.1950  176.1740  138.3330 C   0  0  0  0  0  3  0  0  0  0  0  0
  188.6280  179.3780  137.3180 O   0  0  0  0  0  1  0  0  0  0  0  0
  190.9890  176.0570  134.7030 N   0  0  0  0  0  1  0  0  0  0  0  0
  190.6820  175.7310  137.1010 C   0  0  0  0  0  3  0  0  0  0  0  0
  189.3150  178.1700  137.2750 C   0  0  0  0  0  0  0  0  0  0  0  0
  189.5140  177.3960  138.4390 C   0  0  0  0  0  0  0  0  0  0  0  0
  189.8040  177.7190  136.0430 C   0  0  0  0  0  3  0  0  0  0  0  0
  1  9  1  0  0  0  0
  2  5  1  0  0  0  0
  3  2  1  0  0  0  0
  3  7  1  0  0  0  0
  5 14  1  0  0  0  0
  6  1  1  0  0  0  0
  7  4  1  0  0  0  0
  8 23  1  6  0  0  0
  8 12  1  0  0  0  0
 10 18  2  0  0  0  0
 10 19  1  0  0  0  0
 11  4  2  0  0  0  0
 12 16  1  0  0  0  0
 13  8  1  0  0  0  0
 13  2  2  0  0  0  0
 14  1  2  0  0  0  0
 15 11  1  0  0  0  0
 16  5  2  0  0  0  0
 16 17  1  0  0  0  0
 17  6  2  0  0  0  0
 18 13  1  0  0  0  0
 19  3  2  0  0  0  0
 20 19  1  0  0  0  0
 20 15  2  0  0  0  0
 22 23  1  0  0  0  0
 22 21  2  0  0  0  0
 24 31  2  0  0  0  0
 24 28  1  0  0  0  0
 25 30  1  0  0  0  0
 27 24  1  0  0  0  0
 28 25  2  0  0  0  0
 29 26  1  0  0  0  0
 29 30  2  0  0  0  0
 30 22  1  0  0  0  0
 31 29  1  0  0  0  0
M  END
>  <MODEL>
7

>  <REMARK>
 VINA RESULT:      -9.3      2.300      3.593
  Name = 
  2 active torsions:
  status: ('A' for Active; 'I' for Inactive)
    1  A    between atoms: C_9  and  C_22
    2  A    between atoms: C_15  and  N_23
                            x       y       z     vdW  Elec       q    Type
                         _______ _______ _______ _____ _____    ______ ____

>  <TORSDO>
F 2

$$$$
=
 OpenBabel11052413123D

 31 35  0  0  1  0  0  0  0  0999 V2000
  192.7150  177.0890  139.9640 C   0  0  0  0  0  0  0  0  0  0  0  0
  189.3750  177.4300  141.7910 C   0  0  0  0  0  0  0  0  0  0  0  0
  189.6170  177.1160  143.1600 C   0  0  0  0  0  0  0  0  0  0  0  0
  191.6820  177.1820  144.5210 C   0  0  0  0  0  3  0  0  0  0  0  0
  190.4020  177.2660  140.7110 C   0  0  0  0  0  0  0  0  0  0  0  0
  192.2950  177.0770  138.6330 C   0  0  0  0  0  3  0  0  0  0  0  0
  190.8560  176.3800  143.5730 C   0  0  0  0  0  2  0  0  0  0  0  0
  187.8070  178.2800  139.9750 C   0  0  2  0  0  3  0  0  0  0  0  0
  194.1010  176.9940  140.2730 N   0  0  0  0  0  1  0  0  0  0  0  0
  187.3800  177.8680  143.7280 C   0  0  0  0  0  3  0  0  0  0  0  0
  191.2620  177.5030  145.7410 C   0  0  0  0  0  3  0  0  0  0  0  0
  188.5400  177.3490  139.0140 C   0  0  0  0  0  2  0  0  0  0  0  0
  188.0930  177.9070  141.4150 C   0  0  0  0  0  0  0  0  0  0  0  0
  191.7760  177.1920  140.9920 C   0  0  0  0  0  3  0  0  0  0  0  0
  189.9240  177.1930  146.2770 C   0  0  0  0  0  3  0  0  0  0  0  0
  189.9930  177.2790  139.3590 C   0  0  0  0  0  0  0  0  0  0  0  0
  190.9350  177.1720  138.3310 C   0  0  0  0  0  3  0  0  0  0  0  0
  187.1200  178.1370  142.3910 C   0  0  0  0  0  3  0  0  0  0  0  0
  188.6150  177.3660  144.1270 C   0  0  0  0  0  0  0  0  0  0  0  0
  188.7850  177.1280  145.5770 C   0  0  0  0  0  3  0  0  0  0  0  0
  186.6500  178.6060  137.4020 O   0  0  0  0  0  0  0  0  0  0  0  0
  185.8590  178.3920  138.3610 C   0  0  0  0  0  0  0  0  0  0  0  0
  186.3770  178.2340  139.6860 N   0  0  0  0  0  2  0  0  0  0  0  0
  181.6420  178.0300  137.6550 C   0  0  0  0  0  0  0  0  0  0  0  0
  183.8840  177.1350  137.5400 C   0  0  0  0  0  3  0  0  0  0  0  0
  183.9630  180.5020  139.0940 O   0  0  0  0  0  1  0  0  0  0  0  0
  180.2470  177.8970  137.4060 N   0  0  0  0  0  1  0  0  0  0  0  0
  182.5140  177.0000  137.3020 C   0  0  0  0  0  3  0  0  0  0  0  0
  183.5090  179.3350  138.4890 C   0  0  0  0  0  0  0  0  0  0  0  0
  184.4000  178.3000  138.1280 C   0  0  0  0  0  0  0  0  0  0  0  0
  182.1380  179.1930  138.2480 C   0  0  0  0  0  3  0  0  0  0  0  0
  1  9  1  0  0  0  0
  1 14  1  0  0  0  0
  2  3  1  0  0  0  0
  3  7  1  0  0  0  0
  3 19  2  0  0  0  0
  4 11  2  0  0  0  0
  5 14  2  0  0  0  0
  5  2  1  0  0  0  0
  6  1  2  0  0  0  0
  7  4  1  0  0  0  0
  8 23  1  6  0  0  0
  8 13  1  0  0  0  0
 10 19  1  0  0  0  0
 11 15  1  0  0  0  0
 12 16  1  0  0  0  0
 12  8  1  0  0  0  0
 13  2  2  0  0  0  0
 13 18  1  0  0  0  0
 16  5  1  0  0  0  0
 17  6  1  0  0  0  0
 17 16  2  0  0  0  0
 18 10  2  0  0  0  0
 19 20  1  0  0  0  0
 20 15  2  0  0  0  0
 21 22  2  0  0  0  0
 22 23  1  0  0  0  0
 24 31  1  0  0  0  0
 25 30  2  0  0  0  0
 27 24  1  0  0  0  0
 28 25  1  0  0  0  0
 28 24  2  0  0  0  0
 29 26  1  0  0  0  0
 30 22  1  0  0  0  0
 30 29  1  0  0  0  0
 31 29  2  0  0  0  0
M  END
>  <MODEL>
8

>  <REMARK>
 VINA RESULT:      -9.1      3.852      6.853
  Name = 
  2 active torsions:
  status: ('A' for Active; 'I' for Inactive)
    1  A    between atoms: C_9  and  C_22
    2  A    between atoms: C_15  and  N_23
                            x       y       z     vdW  Elec       q    Type
                         _______ _______ _______ _____ _____    ______ ____

>  <TORSDO>
F 2

$$$$
=
 OpenBabel11052413123D

 31 35  0  0  1  0  0  0  0  0999 V2000
  183.3230  178.8570  138.9510 C   0  0  0  0  0  0  0  0  0  0  0  0
  187.0430  178.1110  139.4230 C   0  0  0  0  0  0  0  0  0  0  0  0
  187.5260  177.6100  138.1790 C   0  0  0  0  0  0  0  0  0  0  0  0
  186.6930  177.8750  135.8650 C   0  0  0  0  0  3  0  0  0  0  0  0
  185.5940  178.3800  139.6980 C   0  0  0  0  0  0  0  0  0  0  0  0
  182.9060  178.9990  140.2760 C   0  0  0  0  0  3  0  0  0  0  0  0
  186.5800  177.1010  137.1340 C   0  0  0  0  0  2  0  0  0  0  0  0
  187.4980  178.9160  141.7940 C   0  0  2  0  0  3  0  0  0  0  0  0
  182.3880  179.0140  137.8900 N   0  0  0  0  0  1  0  0  0  0  0  0
  189.8020  177.7330  139.0140 C   0  0  0  0  0  3  0  0  0  0  0  0
  187.7920  177.8650  135.1160 C   0  0  0  0  0  3  0  0  0  0  0  0
  186.1230  178.3630  142.1630 C   0  0  0  0  0  2  0  0  0  0  0  0
  187.9700  178.3560  140.4690 C   0  0  0  0  0  0  0  0  0  0  0  0
  184.6580  178.5590  138.6670 C   0  0  0  0  0  3  0  0  0  0  0  0
  189.0440  177.1740  135.4730 C   0  0  0  0  0  3  0  0  0  0  0  0
  185.1630  178.5530  141.0330 C   0  0  0  0  0  0  0  0  0  0  0  0
  183.8260  178.8470  141.3150 C   0  0  0  0  0  3  0  0  0  0  0  0
  189.3370  178.1820  140.2430 C   0  0  0  0  0  3  0  0  0  0  0  0
  188.9170  177.4500  137.9780 C   0  0  0  0  0  0  0  0  0  0  0  0
  189.5240  176.9910  136.7090 C   0  0  0  0  0  3  0  0  0  0  0  0
  187.6050  176.4650  143.2250 O   0  0  0  0  0  0  0  0  0  0  0  0
  188.4490  177.3480  143.5400 C   0  0  0  0  0  0  0  0  0  0  0  0
  188.4380  178.6120  142.8680 N   0  0  0  0  0  2  0  0  0  0  0  0
  191.2900  176.6100  146.6700 C   0  0  0  0  0  0  0  0  0  0  0  0
  189.0760  177.2450  145.9380 C   0  0  0  0  0  3  0  0  0  0  0  0
  191.1930  176.4830  142.9900 O   0  0  0  0  0  1  0  0  0  0  0  0
  192.2230  176.3770  147.7190 N   0  0  0  0  0  1  0  0  0  0  0  0
  189.9890  177.0110  146.9700 C   0  0  0  0  0  3  0  0  0  0  0  0
  190.7720  176.6750  144.3000 C   0  0  0  0  0  0  0  0  0  0  0  0
  189.4530  177.0880  144.5960 C   0  0  0  0  0  0  0  0  0  0  0  0
  191.6800  176.4410  145.3390 C   0  0  0  0  0  3  0  0  0  0  0  0
  1  6  1  0  0  0  0
  2  5  1  0  0  0  0
  2 13  1  0  0  0  0
  3  2  2  0  0  0  0
  4  7  1  0  0  0  0
  5 16  2  0  0  0  0
  6 17  2  0  0  0  0
  7  3  1  0  0  0  0
  8 12  1  0  0  0  0
  8 23  1  1  0  0  0
  9  1  1  0  0  0  0
 10 18  1  0  0  0  0
 11 15  1  0  0  0  0
 11  4  2  0  0  0  0
 13  8  1  0  0  0  0
 14  1  2  0  0  0  0
 14  5  1  0  0  0  0
 15 20  2  0  0  0  0
 16 17  1  0  0  0  0
 16 12  1  0  0  0  0
 18 13  2  0  0  0  0
 19  3  1  0  0  0  0
 19 10  2  0  0  0  0
 20 19  1  0  0  0  0
 21 22  2  0  0  0  0
 22 30  1  0  0  0  0
 23 22  1  0  0  0  0
 24 28  1  0  0  0  0
 24 27  1  0  0  0  0
 25 28  2  0  0  0  0
 26 29  1  0  0  0  0
 29 30  2  0  0  0  0
 29 31  1  0  0  0  0
 30 25  1  0  0  0  0
 31 24  2  0  0  0  0
M  END
>  <MODEL>
9

>  <REMARK>
 VINA RESULT:      -8.8      2.880      7.952
  Name = 
  2 active torsions:
  status: ('A' for Active; 'I' for Inactive)
    1  A    between atoms: C_9  and  C_22
    2  A    between atoms: C_15  and  N_23
                            x       y       z     vdW  Elec       q    Type
                         _______ _______ _______ _____ _____    ______ ____

>  <TORSDO>
F 2

$$$$
