=
 OpenBabel11052414243D

 34 37  0  0  1  0  0  0  0  0999 V2000
  191.1300  177.3840  144.1460 C   0  0  1  0  0  0  0  0  0  0  0  0
  188.8750  177.9120  145.2060 C   0  0  0  0  0  1  0  0  0  0  0  0
  189.0650  177.8700  142.6700 C   0  0  1  0  0  3  0  0  0  0  0  0
  189.5860  177.2870  144.0070 C   0  0  1  0  0  3  0  0  0  0  0  0
  189.8120  177.2690  141.4740 C   0  0  2  0  0  3  0  0  0  0  0  0
  191.8060  176.8050  142.8990 C   0  0  0  0  0  2  0  0  0  0  0  0
  191.5600  178.8430  144.3120 C   0  0  0  0  0  1  0  0  0  0  0  0
  191.3130  177.4830  141.6270 C   0  0  0  0  0  2  0  0  0  0  0  0
  186.9430  178.9030  141.7380 C   0  0  0  0  0  2  0  0  0  0  0  0
  186.8090  177.1860  143.7140 C   0  0  0  0  0  2  0  0  0  0  0  0
  185.9330  178.2260  144.3990 C   0  0  0  0  0  2  0  0  0  0  0  0
  184.5940  179.2090  142.5130 C   0  0  0  0  0  2  0  0  0  0  0  0
  185.4780  178.6810  141.3940 C   0  0  0  0  0  2  0  0  0  0  0  0
  184.5680  178.2760  143.7180 C   0  0  2  0  0  3  0  0  0  0  0  0
  187.5510  177.7010  142.4650 C   0  0  2  0  0  3  0  0  0  0  0  0
  183.5050  178.7760  144.6850 C   0  0  0  0  0  2  0  0  0  0  0  0
  182.3180  179.3670  143.9430 C   0  0  0  0  0  2  0  0  0  0  0  0
  181.1770  178.3590  143.8940 C   0  0  2  0  0  3  0  0  0  0  0  0
  179.4160  177.5530  142.3770 O   0  0  0  0  0  1  0  0  0  0  0  0
  180.1760  178.6470  142.7860 C   0  0  1  0  0  0  0  0  0  0  0  0
  179.8650  179.0750  144.2010 C   0  0  0  0  0  2  0  0  0  0  0  0
  179.6900  180.9180  142.2190 O   0  0  0  0  0  1  0  0  0  0  0  0
  180.3820  179.7840  141.7930 C   0  0  0  0  0  2  0  0  0  0  0  0
  191.6200  176.5840  145.3270 C   0  0  0  0  0  0  0  0  0  0  0  0
  191.9970  175.3900  145.1850 O   0  0  0  0  0  0  0  0  0  0  0  0
  191.7490  177.1870  146.5750 O   0  0  0  0  0  1  0  0  0  0  0  0
  189.3630  177.8840  140.2680 O   0  0  0  0  0  0  0  0  0  0  0  0
  187.6300  176.7460  137.2220 C   0  0  0  0  0  0  0  0  0  0  0  0
  188.5120  175.8260  136.7440 N   0  0  0  0  0  0  0  0  0  0  0  0
  189.0960  177.1760  139.0890 C   0  0  0  0  0  0  0  0  0  0  0  0
  189.6750  175.5530  137.3930 C   0  0  0  0  0  3  0  0  0  0  0  0
  187.9090  177.4350  138.4050 C   0  0  0  0  0  3  0  0  0  0  0  0
  189.9900  176.2230  138.5780 C   0  0  0  0  0  3  0  0  0  0  0  0
  186.4770  176.9920  136.5520 F   0  0  0  0  0  0  0  0  0  0  0  0
  1  7  1  1  0  0  0
  1 24  1  0  0  0  0
  3 15  1  6  0  0  0
  3  4  1  0  0  0  0
  4  1  1  0  0  0  0
  4  2  1  1  0  0  0
  5 27  1  6  0  0  0
  5  8  1  0  0  0  0
  5  3  1  0  0  0  0
  6  1  1  0  0  0  0
  8  6  1  0  0  0  0
 10 11  1  0  0  0  0
 12 14  1  0  0  0  0
 13  9  1  0  0  0  0
 13 12  1  0  0  0  0
 14 11  1  0  0  0  0
 14 16  1  1  0  0  0
 15  9  1  1  0  0  0
 15 10  1  0  0  0  0
 17 16  1  0  0  0  0
 18 17  1  6  0  0  0
 18 21  1  0  0  0  0
 20 19  1  6  0  0  0
 20 18  1  0  0  0  0
 20 21  1  0  0  0  0
 23 22  1  0  0  0  0
 23 20  1  0  0  0  0
 24 26  1  0  0  0  0
 25 24  2  0  0  0  0
 28 32  1  0  0  0  0
 29 28  2  0  0  0  0
 29 31  1  0  0  0  0
 30 27  1  0  0  0  0
 31 33  2  0  0  0  0
 32 30  2  0  0  0  0
 33 30  1  0  0  0  0
 34 28  1  0  0  0  0
M  END
>  <MODEL>
1

>  <REMARK>
 VINA RESULT:      -9.4      0.000      0.000
  Name = 
  8 active torsions:
  status: ('A' for Active; 'I' for Inactive)
    1  A    between atoms: C_1  and  C_6
    2  A    between atoms: C_3  and  C_29
    3  A    between atoms: C_3  and  C_33
    4  A    between atoms: C_4  and  C_31
    5  A    between atoms: C_12  and  O_28
    6  A    between atoms: C_13  and  C_33
    7  A    between atoms: C_20  and  C_22
    8  A    between atoms: C_21  and  O_28
                            x       y       z     vdW  Elec       q    Type
                         _______ _______ _______ _____ _____    ______ ____

>  <TORSDO>
F 8

$$$$
=
 OpenBabel11052414243D

 34 37  0  0  1  0  0  0  0  0999 V2000
  188.4120  177.6850  138.1910 C   0  0  1  0  0  0  0  0  0  0  0  0
  186.3040  178.3530  139.4560 C   0  0  0  0  0  1  0  0  0  0  0  0
  188.2820  177.4280  140.7600 C   0  0  1  0  0  3  0  0  0  0  0  0
  187.8260  178.2370  139.5200 C   0  0  1  0  0  3  0  0  0  0  0  0
  189.8070  177.2780  140.7950 C   0  0  2  0  0  3  0  0  0  0  0  0
  189.9300  177.5220  138.3160 C   0  0  0  0  0  2  0  0  0  0  0  0
  187.7920  176.3260  137.8590 C   0  0  0  0  0  1  0  0  0  0  0  0
  190.3060  176.6450  139.5020 C   0  0  0  0  0  2  0  0  0  0  0  0
  187.6290  176.9190  143.1590 C   0  0  0  0  0  2  0  0  0  0  0  0
  186.6450  179.0250  141.9490 C   0  0  0  0  0  2  0  0  0  0  0  0
  185.2910  178.5200  142.4300 C   0  0  0  0  0  2  0  0  0  0  0  0
  185.7860  177.5720  144.7040 C   0  0  0  0  0  2  0  0  0  0  0  0
  187.2950  177.4980  144.5240 C   0  0  0  0  0  2  0  0  0  0  0  0
  185.1690  178.7350  143.9360 C   0  0  2  0  0  3  0  0  0  0  0  0
  187.7940  178.0090  142.0960 C   0  0  2  0  0  3  0  0  0  0  0  0
  183.7080  178.8540  144.3430 C   0  0  0  0  0  2  0  0  0  0  0  0
  182.8120  179.0520  143.1320 C   0  0  0  0  0  2  0  0  0  0  0  0
  181.3680  178.7260  143.4910 C   0  0  2  0  0  3  0  0  0  0  0  0
  179.3560  177.6920  142.5240 O   0  0  0  0  0  1  0  0  0  0  0  0
  180.5020  178.4450  142.2730 C   0  0  1  0  0  0  0  0  0  0  0  0
  180.4550  179.8080  142.9210 C   0  0  0  0  0  2  0  0  0  0  0  0
  180.1800  177.8000  139.9930 O   0  0  0  0  0  1  0  0  0  0  0  0
  181.0810  178.4130  140.8640 C   0  0  0  0  0  2  0  0  0  0  0  0
  188.1600  178.6380  137.0500 C   0  0  0  0  0  0  0  0  0  0  0  0
  188.6840  179.7840  137.0400 O   0  0  0  0  0  1  0  0  0  0  0  0
  187.4170  178.2280  135.9470 O   0  0  0  0  0  0  0  0  0  0  0  0
  190.1850  176.4650  141.9030 O   0  0  0  0  0  0  0  0  0  0  0  0
  191.6850  176.5650  145.2680 C   0  0  0  0  0  0  0  0  0  0  0  0
  191.9940  177.8860  145.3800 N   0  0  0  0  0  0  0  0  0  0  0  0
  190.7890  176.9660  143.0640 C   0  0  0  0  0  0  0  0  0  0  0  0
  191.7230  178.7660  144.3810 C   0  0  0  0  0  3  0  0  0  0  0  0
  191.0750  176.0850  144.1060 C   0  0  0  0  0  3  0  0  0  0  0  0
  191.1150  178.3240  143.2030 C   0  0  0  0  0  3  0  0  0  0  0  0
  191.9660  175.7130  146.2850 F   0  0  0  0  0  0  0  0  0  0  0  0
  1  7  1  6  0  0  0
  1  6  1  0  0  0  0
  1  4  1  0  0  0  0
  3  5  1  0  0  0  0
  3 15  1  1  0  0  0
  4  2  1  6  0  0  0
  4  3  1  0  0  0  0
  5 27  1  1  0  0  0
  6  8  1  0  0  0  0
  8  5  1  0  0  0  0
  9 13  1  0  0  0  0
 10 11  1  0  0  0  0
 11 14  1  0  0  0  0
 13 12  1  0  0  0  0
 14 16  1  6  0  0  0
 14 12  1  0  0  0  0
 15 10  1  6  0  0  0
 15  9  1  0  0  0  0
 17 16  1  0  0  0  0
 18 17  1  6  0  0  0
 20 19  1  1  0  0  0
 20 21  1  0  0  0  0
 20 18  1  0  0  0  0
 21 18  1  0  0  0  0
 22 23  1  0  0  0  0
 23 20  1  0  0  0  0
 24  1  1  0  0  0  0
 25 24  1  0  0  0  0
 26 24  2  0  0  0  0
 27 30  1  0  0  0  0
 28 29  1  0  0  0  0
 28 34  1  0  0  0  0
 30 33  2  0  0  0  0
 30 32  1  0  0  0  0
 31 29  2  0  0  0  0
 32 28  2  0  0  0  0
 33 31  1  0  0  0  0
M  END
>  <MODEL>
2

>  <REMARK>
 VINA RESULT:      -8.2      2.995      5.534
  Name = 
  8 active torsions:
  status: ('A' for Active; 'I' for Inactive)
    1  A    between atoms: C_1  and  C_6
    2  A    between atoms: C_3  and  C_29
    3  A    between atoms: C_3  and  C_33
    4  A    between atoms: C_4  and  C_31
    5  A    between atoms: C_12  and  O_28
    6  A    between atoms: C_13  and  C_33
    7  A    between atoms: C_20  and  C_22
    8  A    between atoms: C_21  and  O_28
                            x       y       z     vdW  Elec       q    Type
                         _______ _______ _______ _____ _____    ______ ____

>  <TORSDO>
F 8

$$$$
=
 OpenBabel11052414243D

 34 37  0  0  1  0  0  0  0  0999 V2000
  180.4100  178.8970  141.5070 C   0  0  1  0  0  0  0  0  0  0  0  0
  182.2450  177.2820  140.7890 C   0  0  0  0  0  1  0  0  0  0  0  0
  181.4970  179.0950  139.1700 C   0  0  1  0  0  3  0  0  0  0  0  0
  181.6940  178.7010  140.6550 C   0  0  1  0  0  3  0  0  0  0  0  0
  180.9040  180.5030  139.0440 C   0  0  2  0  0  3  0  0  0  0  0  0
  179.8520  180.3070  141.2970 C   0  0  0  0  0  2  0  0  0  0  0  0
  179.3430  177.8750  141.1050 C   0  0  0  0  0  1  0  0  0  0  0  0
  179.5980  180.5980  139.8240 C   0  0  0  0  0  2  0  0  0  0  0  0
  183.0080  177.5800  137.8060 C   0  0  0  0  0  2  0  0  0  0  0  0
  183.9860  179.7260  138.9490 C   0  0  0  0  0  2  0  0  0  0  0  0
  185.0650  178.7990  139.4920 C   0  0  0  0  0  2  0  0  0  0  0  0
  185.4610  177.1820  137.6100 C   0  0  0  0  0  2  0  0  0  0  0  0
  184.1850  177.5070  136.8470 C   0  0  0  0  0  2  0  0  0  0  0  0
  186.0060  178.3900  138.3630 C   0  0  2  0  0  3  0  0  0  0  0  0
  182.7780  179.0020  138.3260 C   0  0  2  0  0  3  0  0  0  0  0  0
  187.3780  178.0290  138.9130 C   0  0  0  0  0  2  0  0  0  0  0  0
  187.4810  178.3490  140.3950 C   0  0  0  0  0  2  0  0  0  0  0  0
  188.5710  177.5040  141.0390 C   0  0  2  0  0  3  0  0  0  0  0  0
  188.9340  176.0150  142.9640 O   0  0  0  0  0  1  0  0  0  0  0  0
  188.2660  177.1400  142.4840 C   0  0  1  0  0  0  0  0  0  0  0  0
  189.2000  178.2890  142.1870 C   0  0  0  0  0  2  0  0  0  0  0  0
  187.1280  177.6230  144.5300 O   0  0  0  0  0  1  0  0  0  0  0  0
  186.9510  177.5260  143.1490 C   0  0  0  0  0  2  0  0  0  0  0  0
  180.7070  178.7510  142.9780 C   0  0  0  0  0  0  0  0  0  0  0  0
  181.6770  179.3600  143.5020 O   0  0  0  0  0  0  0  0  0  0  0  0
  179.8560  178.0120  143.7940 O   0  0  0  0  0  1  0  0  0  0  0  0
  180.6630  180.8020  137.6710 O   0  0  0  0  0  0  0  0  0  0  0  0
  181.7710  184.2970  137.2950 C   0  0  0  0  0  0  0  0  0  0  0  0
  181.3260  184.5810  136.0410 N   0  0  0  0  0  0  0  0  0  0  0  0
  180.8700  182.0660  137.1040 C   0  0  0  0  0  0  0  0  0  0  0  0
  180.6610  183.6590  135.2960 C   0  0  0  0  0  3  0  0  0  0  0  0
  181.5480  183.0330  137.8470 C   0  0  0  0  0  3  0  0  0  0  0  0
  180.4200  182.3830  135.8130 C   0  0  0  0  0  3  0  0  0  0  0  0
  182.4290  185.2400  138.0130 F   0  0  0  0  0  0  0  0  0  0  0  0
  1  7  1  6  0  0  0
  1 24  1  0  0  0  0
  3 15  1  6  0  0  0
  3  4  1  0  0  0  0
  4  2  1  6  0  0  0
  4  1  1  0  0  0  0
  5 27  1  6  0  0  0
  5  3  1  0  0  0  0
  5  8  1  0  0  0  0
  6  1  1  0  0  0  0
  8  6  1  0  0  0  0
 10 11  1  0  0  0  0
 12 14  1  0  0  0  0
 13 12  1  0  0  0  0
 13  9  1  0  0  0  0
 14 16  1  1  0  0  0
 14 11  1  0  0  0  0
 15  9  1  1  0  0  0
 15 10  1  0  0  0  0
 16 17  1  0  0  0  0
 18 17  1  6  0  0  0
 18 21  1  0  0  0  0
 18 20  1  0  0  0  0
 20 19  1  1  0  0  0
 20 23  1  0  0  0  0
 21 20  1  0  0  0  0
 23 22  1  0  0  0  0
 24 25  2  0  0  0  0
 24 26  1  0  0  0  0
 28 32  1  0  0  0  0
 28 34  1  0  0  0  0
 29 28  2  0  0  0  0
 30 27  1  0  0  0  0
 30 32  2  0  0  0  0
 31 33  2  0  0  0  0
 31 29  1  0  0  0  0
 33 30  1  0  0  0  0
M  END
>  <MODEL>
3

>  <REMARK>
 VINA RESULT:      -8.0      4.202      9.242
  Name = 
  8 active torsions:
  status: ('A' for Active; 'I' for Inactive)
    1  A    between atoms: C_1  and  C_6
    2  A    between atoms: C_3  and  C_29
    3  A    between atoms: C_3  and  C_33
    4  A    between atoms: C_4  and  C_31
    5  A    between atoms: C_12  and  O_28
    6  A    between atoms: C_13  and  C_33
    7  A    between atoms: C_20  and  C_22
    8  A    between atoms: C_21  and  O_28
                            x       y       z     vdW  Elec       q    Type
                         _______ _______ _______ _____ _____    ______ ____

>  <TORSDO>
F 8

$$$$
=
 OpenBabel11052414243D

 34 37  0  0  1  0  0  0  0  0999 V2000
  189.4620  177.3370  142.4780 C   0  0  1  0  0  0  0  0  0  0  0  0
  187.7960  178.4660  140.9150 C   0  0  0  0  0  1  0  0  0  0  0  0
  190.0370  177.7030  139.9850 C   0  0  1  0  0  3  0  0  0  0  0  0
  188.9210  177.4370  141.0250 C   0  0  1  0  0  3  0  0  0  0  0  0
  191.1820  176.6940  140.1290 C   0  0  2  0  0  3  0  0  0  0  0  0
  190.6280  176.3460  142.5360 C   0  0  0  0  0  2  0  0  0  0  0  0
  189.9480  178.7050  142.9610 C   0  0  0  0  0  1  0  0  0  0  0  0
  191.7290  176.7150  141.5510 C   0  0  0  0  0  2  0  0  0  0  0  0
  188.9680  179.0760  138.1380 C   0  0  0  0  0  2  0  0  0  0  0  0
  188.7200  176.4670  138.1460 C   0  0  0  0  0  2  0  0  0  0  0  0
  187.2320  176.7280  137.9590 C   0  0  0  0  0  2  0  0  0  0  0  0
  187.1660  178.7350  136.4490 C   0  0  0  0  0  2  0  0  0  0  0  0
  188.6160  179.1440  136.6600 C   0  0  0  0  0  2  0  0  0  0  0  0
  186.9720  177.2260  136.5410 C   0  0  2  0  0  3  0  0  0  0  0  0
  189.5430  177.7120  138.5300 C   0  0  2  0  0  3  0  0  0  0  0  0
  185.5490  176.9020  136.1110 C   0  0  0  0  0  2  0  0  0  0  0  0
  184.6930  176.4950  137.2990 C   0  0  0  0  0  2  0  0  0  0  0  0
  183.3520  177.2160  137.2480 C   0  0  2  0  0  3  0  0  0  0  0  0
  182.3050  179.3330  137.9360 O   0  0  0  0  0  1  0  0  0  0  0  0
  183.2550  178.3610  138.2440 C   0  0  1  0  0  0  0  0  0  0  0  0
  182.6330  177.0260  138.5810 C   0  0  0  0  0  2  0  0  0  0  0  0
  184.5000  180.1580  139.2110 O   0  0  0  0  0  1  0  0  0  0  0  0
  184.4340  178.7670  139.1190 C   0  0  0  0  0  2  0  0  0  0  0  0
  188.3990  176.8280  143.4190 C   0  0  0  0  0  0  0  0  0  0  0  0
  187.9100  175.6750  143.2760 O   0  0  0  0  0  0  0  0  0  0  0  0
  188.0090  177.5920  144.5150 O   0  0  0  0  0  1  0  0  0  0  0  0
  192.2250  177.0150  139.2110 O   0  0  0  0  0  0  0  0  0  0  0  0
  192.2130  174.1990  136.8340 C   0  0  0  0  0  0  0  0  0  0  0  0
  193.1710  174.5950  135.9520 N   0  0  0  0  0  0  0  0  0  0  0  0
  192.5630  176.2160  138.1120 C   0  0  0  0  0  0  0  0  0  0  0  0
  193.8390  175.7690  136.1060 C   0  0  0  0  0  3  0  0  0  0  0  0
  191.8950  175.0050  137.9300 C   0  0  0  0  0  3  0  0  0  0  0  0
  193.5480  176.6030  137.1900 C   0  0  0  0  0  3  0  0  0  0  0  0
  191.5680  173.0210  136.6520 F   0  0  0  0  0  0  0  0  0  0  0  0
  1  6  1  0  0  0  0
  1  7  1  1  0  0  0
  1 24  1  0  0  0  0
  3 15  1  6  0  0  0
  3  5  1  0  0  0  0
  3  4  1  0  0  0  0
  4  2  1  1  0  0  0
  4  1  1  0  0  0  0
  5 27  1  6  0  0  0
  5  8  1  0  0  0  0
  8  6  1  0  0  0  0
 10 15  1  0  0  0  0
 11 10  1  0  0  0  0
 12 14  1  0  0  0  0
 12 13  1  0  0  0  0
 13  9  1  0  0  0  0
 14 16  1  1  0  0  0
 14 11  1  0  0  0  0
 15  9  1  1  0  0  0
 16 17  1  0  0  0  0
 18 17  1  1  0  0  0
 18 20  1  0  0  0  0
 18 21  1  0  0  0  0
 20 19  1  6  0  0  0
 20 21  1  0  0  0  0
 20 23  1  0  0  0  0
 23 22  1  0  0  0  0
 24 26  1  0  0  0  0
 25 24  2  0  0  0  0
 28 32  1  0  0  0  0
 29 31  1  0  0  0  0
 29 28  2  0  0  0  0
 30 27  1  0  0  0  0
 31 33  2  0  0  0  0
 32 30  2  0  0  0  0
 33 30  1  0  0  0  0
 34 28  1  0  0  0  0
M  END
>  <MODEL>
4

>  <REMARK>
 VINA RESULT:      -7.6      3.598      5.096
  Name = 
  8 active torsions:
  status: ('A' for Active; 'I' for Inactive)
    1  A    between atoms: C_1  and  C_6
    2  A    between atoms: C_3  and  C_29
    3  A    between atoms: C_3  and  C_33
    4  A    between atoms: C_4  and  C_31
    5  A    between atoms: C_12  and  O_28
    6  A    between atoms: C_13  and  C_33
    7  A    between atoms: C_20  and  C_22
    8  A    between atoms: C_21  and  O_28
                            x       y       z     vdW  Elec       q    Type
                         _______ _______ _______ _____ _____    ______ ____

>  <TORSDO>
F 8

$$$$
=
 OpenBabel11052414243D

 34 37  0  0  1  0  0  0  0  0999 V2000
  188.2320  177.5540  147.5120 C   0  0  1  0  0  0  0  0  0  0  0  0
  190.5090  176.4810  147.1130 C   0  0  0  0  0  1  0  0  0  0  0  0
  188.9870  176.9180  145.1230 C   0  0  1  0  0  3  0  0  0  0  0  0
  189.4260  177.3890  146.5320 C   0  0  1  0  0  3  0  0  0  0  0  0
  187.8710  177.8080  144.5630 C   0  0  2  0  0  3  0  0  0  0  0  0
  187.1420  178.4160  146.8700 C   0  0  0  0  0  2  0  0  0  0  0  0
  187.6420  176.1870  147.8660 C   0  0  0  0  0  1  0  0  0  0  0  0
  186.6940  177.8490  145.5300 C   0  0  0  0  0  2  0  0  0  0  0  0
  190.6120  178.2310  143.6840 C   0  0  0  0  0  2  0  0  0  0  0  0
  189.9040  175.8060  142.9860 C   0  0  0  0  0  2  0  0  0  0  0  0
  189.6160  176.4130  141.6190 C   0  0  0  0  0  2  0  0  0  0  0  0
  191.4350  178.1230  141.3340 C   0  0  0  0  0  2  0  0  0  0  0  0
  191.8460  178.1690  142.7970 C   0  0  0  0  0  2  0  0  0  0  0  0
  190.9290  176.7470  140.9180 C   0  0  2  0  0  3  0  0  0  0  0  0
  190.1360  176.8390  144.1060 C   0  0  2  0  0  3  0  0  0  0  0  0
  190.7470  176.7420  139.4080 C   0  0  0  0  0  2  0  0  0  0  0  0
  189.2990  177.0020  139.0260 C   0  0  0  0  0  2  0  0  0  0  0  0
  189.2100  178.2120  138.1060 C   0  0  2  0  0  3  0  0  0  0  0  0
  187.5540  179.5260  136.8470 O   0  0  0  0  0  1  0  0  0  0  0  0
  187.9150  178.2620  137.3120 C   0  0  1  0  0  0  0  0  0  0  0  0
  189.1690  177.7360  136.6570 C   0  0  0  0  0  2  0  0  0  0  0  0
  185.6390  177.6660  136.8850 O   0  0  0  0  0  1  0  0  0  0  0  0
  186.8070  177.2360  137.5150 C   0  0  0  0  0  2  0  0  0  0  0  0
  188.6630  178.2520  148.7780 C   0  0  0  0  0  0  0  0  0  0  0  0
  187.9220  178.2500  149.7980 O   0  0  0  0  0  1  0  0  0  0  0  0
  189.9260  178.8290  148.8650 O   0  0  0  0  0  0  0  0  0  0  0  0
  187.4370  177.3000  143.3030 O   0  0  0  0  0  0  0  0  0  0  0  0
  184.1240  178.5670  142.3070 C   0  0  0  0  0  0  0  0  0  0  0  0
  184.3930  179.0690  141.0710 N   0  0  0  0  0  0  0  0  0  0  0  0
  186.4300  177.8940  142.5330 C   0  0  0  0  0  0  0  0  0  0  0  0
  185.6410  179.0060  140.5350 C   0  0  0  0  0  3  0  0  0  0  0  0
  185.1390  177.9700  143.0570 C   0  0  0  0  0  3  0  0  0  0  0  0
  186.6840  178.4170  141.2560 C   0  0  0  0  0  3  0  0  0  0  0  0
  182.8670  178.6430  142.8110 F   0  0  0  0  0  0  0  0  0  0  0  0
  1  7  1  1  0  0  0
  1 24  1  0  0  0  0
  3 15  1  6  0  0  0
  3  4  1  0  0  0  0
  4  2  1  1  0  0  0
  4  1  1  0  0  0  0
  5 27  1  6  0  0  0
  5  3  1  0  0  0  0
  5  8  1  0  0  0  0
  6  1  1  0  0  0  0
  8  6  1  0  0  0  0
  9 15  1  0  0  0  0
 11 10  1  0  0  0  0
 12 13  1  0  0  0  0
 13  9  1  0  0  0  0
 14 16  1  6  0  0  0
 14 12  1  0  0  0  0
 14 11  1  0  0  0  0
 15 10  1  6  0  0  0
 17 16  1  0  0  0  0
 18 17  1  1  0  0  0
 20 19  1  6  0  0  0
 20 23  1  0  0  0  0
 20 18  1  0  0  0  0
 21 20  1  0  0  0  0
 21 18  1  0  0  0  0
 22 23  1  0  0  0  0
 24 26  2  0  0  0  0
 24 25  1  0  0  0  0
 28 34  1  0  0  0  0
 28 32  1  0  0  0  0
 29 28  2  0  0  0  0
 30 32  2  0  0  0  0
 30 27  1  0  0  0  0
 31 29  1  0  0  0  0
 31 33  2  0  0  0  0
 33 30  1  0  0  0  0
M  END
>  <MODEL>
5

>  <REMARK>
 VINA RESULT:      -7.6      3.442      6.549
  Name = 
  8 active torsions:
  status: ('A' for Active; 'I' for Inactive)
    1  A    between atoms: C_1  and  C_6
    2  A    between atoms: C_3  and  C_29
    3  A    between atoms: C_3  and  C_33
    4  A    between atoms: C_4  and  C_31
    5  A    between atoms: C_12  and  O_28
    6  A    between atoms: C_13  and  C_33
    7  A    between atoms: C_20  and  C_22
    8  A    between atoms: C_21  and  O_28
                            x       y       z     vdW  Elec       q    Type
                         _______ _______ _______ _____ _____    ______ ____

>  <TORSDO>
F 8

$$$$
=
 OpenBabel11052414243D

 34 37  0  0  1  0  0  0  0  0999 V2000
  189.3030  176.0510  136.9610 C   0  0  1  0  0  0  0  0  0  0  0  0
  191.3840  176.7210  138.2690 C   0  0  0  0  0  1  0  0  0  0  0  0
  189.1320  177.6750  138.9640 C   0  0  1  0  0  3  0  0  0  0  0  0
  189.8790  176.4700  138.3420 C   0  0  1  0  0  3  0  0  0  0  0  0
  187.6180  177.4340  138.9950 C   0  0  2  0  0  3  0  0  0  0  0  0
  187.7860  175.8710  137.0590 C   0  0  0  0  0  2  0  0  0  0  0  0
  189.6100  177.1200  135.9100 C   0  0  0  0  0  1  0  0  0  0  0  0
  187.1040  177.1230  137.5950 C   0  0  0  0  0  2  0  0  0  0  0  0
  190.6460  177.0450  140.9000 C   0  0  0  0  0  2  0  0  0  0  0  0
  188.4860  178.4630  141.3320 C   0  0  0  0  0  2  0  0  0  0  0  0
  188.1820  177.4460  142.4240 C   0  0  0  0  0  2  0  0  0  0  0  0
  190.4430  176.9090  143.3800 C   0  0  0  0  0  2  0  0  0  0  0  0
  191.2480  177.4840  142.2250 C   0  0  0  0  0  2  0  0  0  0  0  0
  189.1320  177.6560  143.5990 C   0  0  2  0  0  3  0  0  0  0  0  0
  189.6190  178.0500  140.3730 C   0  0  2  0  0  3  0  0  0  0  0  0
  188.5060  177.1510  144.8910 C   0  0  0  0  0  2  0  0  0  0  0  0
  186.9970  177.3240  144.8770 C   0  0  0  0  0  2  0  0  0  0  0  0
  186.4780  177.5120  146.2970 C   0  0  2  0  0  3  0  0  0  0  0  0
  184.4760  178.2780  147.5040 O   0  0  0  0  0  1  0  0  0  0  0  0
  185.2750  178.4380  146.3730 C   0  0  1  0  0  0  0  0  0  0  0  0
  186.6480  178.9730  146.7020 C   0  0  0  0  0  2  0  0  0  0  0  0
  183.2510  179.1290  145.3040 O   0  0  0  0  0  1  0  0  0  0  0  0
  184.6310  179.0240  145.1230 C   0  0  0  0  0  2  0  0  0  0  0  0
  189.8790  174.7320  136.5100 C   0  0  0  0  0  0  0  0  0  0  0  0
  190.2620  174.5690  135.3210 O   0  0  0  0  0  0  0  0  0  0  0  0
  190.0790  173.7050  137.4280 O   0  0  0  0  0  1  0  0  0  0  0  0
  186.9570  178.5920  139.5000 O   0  0  0  0  0  0  0  0  0  0  0  0
  183.6300  178.6330  141.0850 C   0  0  0  0  0  0  0  0  0  0  0  0
  182.8300  178.8860  140.0130 N   0  0  0  0  0  0  0  0  0  0  0  0
  185.5670  178.6900  139.6470 C   0  0  0  0  0  0  0  0  0  0  0  0
  183.3440  179.0450  138.7640 C   0  0  0  0  0  3  0  0  0  0  0  0
  185.0130  178.5290  140.9170 C   0  0  0  0  0  3  0  0  0  0  0  0
  184.7230  178.9490  138.5570 C   0  0  0  0  0  3  0  0  0  0  0  0
  183.0850  178.4770  142.3160 F   0  0  0  0  0  0  0  0  0  0  0  0
  1  7  1  6  0  0  0
  1  6  1  0  0  0  0
  1  4  1  0  0  0  0
  3  5  1  0  0  0  0
  3 15  1  1  0  0  0
  4  2  1  6  0  0  0
  4  3  1  0  0  0  0
  5 27  1  6  0  0  0
  6  8  1  0  0  0  0
  8  5  1  0  0  0  0
  9 13  1  0  0  0  0
 10 11  1  0  0  0  0
 11 14  1  0  0  0  0
 12 14  1  0  0  0  0
 13 12  1  0  0  0  0
 14 16  1  1  0  0  0
 15  9  1  1  0  0  0
 15 10  1  0  0  0  0
 17 16  1  0  0  0  0
 18 17  1  6  0  0  0
 18 20  1  0  0  0  0
 18 21  1  0  0  0  0
 20 21  1  0  0  0  0
 20 19  1  1  0  0  0
 23 22  1  0  0  0  0
 23 20  1  0  0  0  0
 24  1  1  0  0  0  0
 24 26  1  0  0  0  0
 25 24  2  0  0  0  0
 27 30  1  0  0  0  0
 28 34  1  0  0  0  0
 29 28  2  0  0  0  0
 30 32  2  0  0  0  0
 31 29  1  0  0  0  0
 32 28  1  0  0  0  0
 33 31  2  0  0  0  0
 33 30  1  0  0  0  0
M  END
>  <MODEL>
6

>  <REMARK>
 VINA RESULT:      -7.5      3.362      6.204
  Name = 
  8 active torsions:
  status: ('A' for Active; 'I' for Inactive)
    1  A    between atoms: C_1  and  C_6
    2  A    between atoms: C_3  and  C_29
    3  A    between atoms: C_3  and  C_33
    4  A    between atoms: C_4  and  C_31
    5  A    between atoms: C_12  and  O_28
    6  A    between atoms: C_13  and  C_33
    7  A    between atoms: C_20  and  C_22
    8  A    between atoms: C_21  and  O_28
                            x       y       z     vdW  Elec       q    Type
                         _______ _______ _______ _____ _____    ______ ____

>  <TORSDO>
F 8

$$$$
=
 OpenBabel11052414243D

 34 37  0  0  1  0  0  0  0  0999 V2000
  182.4600  178.9750  139.4770 C   0  0  1  0  0  0  0  0  0  0  0  0
  181.6140  177.6030  141.4500 C   0  0  0  0  0  1  0  0  0  0  0  0
  184.0780  178.2250  141.3480 C   0  0  1  0  0  3  0  0  0  0  0  0
  182.6310  178.6440  140.9850 C   0  0  1  0  0  3  0  0  0  0  0  0
  185.0970  179.2530  140.8410 C   0  0  2  0  0  3  0  0  0  0  0  0
  183.5350  179.9710  139.0340 C   0  0  0  0  0  2  0  0  0  0  0  0
  182.5830  177.7030  138.6350 C   0  0  0  0  0  1  0  0  0  0  0  0
  184.9360  179.4590  139.3400 C   0  0  0  0  0  2  0  0  0  0  0  0
  184.1140  179.2710  143.6600 C   0  0  0  0  0  2  0  0  0  0  0  0
  185.5390  177.1280  143.1660 C   0  0  0  0  0  2  0  0  0  0  0  0
  186.6940  177.8990  143.7930 C   0  0  0  0  0  2  0  0  0  0  0  0
  185.6050  179.1880  145.6550 C   0  0  0  0  0  2  0  0  0  0  0  0
  184.1780  179.0180  145.1580 C   0  0  0  0  0  2  0  0  0  0  0  0
  186.4870  177.9960  145.3010 C   0  0  2  0  0  3  0  0  0  0  0  0
  184.2980  177.9850  142.8500 C   0  0  2  0  0  3  0  0  0  0  0  0
  187.8200  178.1610  146.0160 C   0  0  0  0  0  2  0  0  0  0  0  0
  188.8340  177.1360  145.5350 C   0  0  0  0  0  2  0  0  0  0  0  0
  190.1210  177.8310  145.1130 C   0  0  2  0  0  3  0  0  0  0  0  0
  191.4840  178.2530  143.1080 O   0  0  0  0  0  1  0  0  0  0  0  0
  190.6350  177.3620  143.7610 C   0  0  1  0  0  0  0  0  0  0  0  0
  191.2410  176.7980  145.0240 C   0  0  0  0  0  2  0  0  0  0  0  0
  190.5560  175.1550  142.8430 O   0  0  0  0  0  1  0  0  0  0  0  0
  189.8600  176.3630  142.9100 C   0  0  0  0  0  2  0  0  0  0  0  0
  181.1220  179.6180  139.2110 C   0  0  0  0  0  0  0  0  0  0  0  0
  180.2800  179.0640  138.4550 O   0  0  0  0  0  0  0  0  0  0  0  0
  180.7640  180.7890  139.8720 O   0  0  0  0  0  1  0  0  0  0  0  0
  186.4180  178.7990  141.1230 O   0  0  0  0  0  0  0  0  0  0  0  0
  189.5730  177.8720  139.4590 C   0  0  0  0  0  0  0  0  0  0  0  0
  189.1160  177.4280  138.2570 N   0  0  0  0  0  0  0  0  0  0  0  0
  187.3060  178.3380  140.1420 C   0  0  0  0  0  0  0  0  0  0  0  0
  187.7900  177.4210  137.9580 C   0  0  0  0  0  3  0  0  0  0  0  0
  188.6730  178.3370  140.4220 C   0  0  0  0  0  3  0  0  0  0  0  0
  186.8590  177.8760  138.8950 C   0  0  0  0  0  3  0  0  0  0  0  0
  190.9030  177.8680  139.7240 F   0  0  0  0  0  0  0  0  0  0  0  0
  1  7  1  6  0  0  0
  1  4  1  0  0  0  0
  3 15  1  1  0  0  0
  4  3  1  0  0  0  0
  4  2  1  6  0  0  0
  5 27  1  6  0  0  0
  5  3  1  0  0  0  0
  6  8  1  0  0  0  0
  6  1  1  0  0  0  0
  8  5  1  0  0  0  0
  9 13  1  0  0  0  0
 10 11  1  0  0  0  0
 11 14  1  0  0  0  0
 13 12  1  0  0  0  0
 14 12  1  0  0  0  0
 14 16  1  1  0  0  0
 15 10  1  6  0  0  0
 15  9  1  0  0  0  0
 17 16  1  0  0  0  0
 18 17  1  6  0  0  0
 20 19  1  6  0  0  0
 20 21  1  0  0  0  0
 20 18  1  0  0  0  0
 21 18  1  0  0  0  0
 22 23  1  0  0  0  0
 23 20  1  0  0  0  0
 24  1  1  0  0  0  0
 24 26  1  0  0  0  0
 25 24  2  0  0  0  0
 28 34  1  0  0  0  0
 28 32  1  0  0  0  0
 29 28  2  0  0  0  0
 30 32  2  0  0  0  0
 30 27  1  0  0  0  0
 31 29  1  0  0  0  0
 31 33  2  0  0  0  0
 33 30  1  0  0  0  0
M  END
>  <MODEL>
7

>  <REMARK>
 VINA RESULT:      -7.5      2.306      7.697
  Name = 
  8 active torsions:
  status: ('A' for Active; 'I' for Inactive)
    1  A    between atoms: C_1  and  C_6
    2  A    between atoms: C_3  and  C_29
    3  A    between atoms: C_3  and  C_33
    4  A    between atoms: C_4  and  C_31
    5  A    between atoms: C_12  and  O_28
    6  A    between atoms: C_13  and  C_33
    7  A    between atoms: C_20  and  C_22
    8  A    between atoms: C_21  and  O_28
                            x       y       z     vdW  Elec       q    Type
                         _______ _______ _______ _____ _____    ______ ____

>  <TORSDO>
F 8

$$$$
=
 OpenBabel11052414243D

 34 37  0  0  1  0  0  0  0  0999 V2000
  188.6110  177.7110  139.1420 C   0  0  1  0  0  0  0  0  0  0  0  0
  186.2430  178.6400  139.2880 C   0  0  0  0  0  1  0  0  0  0  0  0
  187.3840  177.8330  141.4130 C   0  0  1  0  0  3  0  0  0  0  0  0
  187.5760  178.4720  140.0150 C   0  0  1  0  0  3  0  0  0  0  0  0
  188.7300  177.6290  142.1200 C   0  0  2  0  0  3  0  0  0  0  0  0
  189.9100  177.5070  139.9260 C   0  0  0  0  0  2  0  0  0  0  0  0
  188.0580  176.3450  138.7310 C   0  0  0  0  0  1  0  0  0  0  0  0
  189.6620  176.7950  141.2500 C   0  0  0  0  0  2  0  0  0  0  0  0
  186.1940  177.8860  143.6540 C   0  0  0  0  0  2  0  0  0  0  0  0
  185.2040  179.1930  141.6100 C   0  0  0  0  0  2  0  0  0  0  0  0
  183.8930  178.4990  141.9550 C   0  0  0  0  0  2  0  0  0  0  0  0
  183.9010  178.4280  144.4670 C   0  0  0  0  0  2  0  0  0  0  0  0
  185.3840  178.7220  144.6320 C   0  0  0  0  0  2  0  0  0  0  0  0
  183.3130  179.1000  143.2310 C   0  0  2  0  0  3  0  0  0  0  0  0
  186.4380  178.6210  142.3330 C   0  0  2  0  0  3  0  0  0  0  0  0
  181.8020  178.9260  143.2680 C   0  0  0  0  0  2  0  0  0  0  0  0
  181.2140  178.9150  141.8670 C   0  0  0  0  0  2  0  0  0  0  0  0
  179.8970  178.1520  141.8580 C   0  0  2  0  0  3  0  0  0  0  0  0
  178.9320  176.0320  141.0630 O   0  0  0  0  0  1  0  0  0  0  0  0
  179.8570  177.0460  140.8160 C   0  0  1  0  0  0  0  0  0  0  0  0
  179.2000  178.3720  140.5190 C   0  0  0  0  0  2  0  0  0  0  0  0
  180.8540  177.1520  138.6450 O   0  0  0  0  0  1  0  0  0  0  0  0
  181.0660  176.7110  139.9520 C   0  0  0  0  0  2  0  0  0  0  0  0
  188.9590  178.4980  137.9030 C   0  0  0  0  0  0  0  0  0  0  0  0
  189.0540  179.7540  137.9440 O   0  0  0  0  0  1  0  0  0  0  0  0
  189.2710  177.8390  136.7190 O   0  0  0  0  0  0  0  0  0  0  0  0
  188.5220  176.9690  143.3670 O   0  0  0  0  0  0  0  0  0  0  0  0
  189.9290  177.3310  146.7540 C   0  0  0  0  0  0  0  0  0  0  0  0
  191.2320  177.0080  146.5340 N   0  0  0  0  0  0  0  0  0  0  0  0
  189.4520  176.9800  144.4140 C   0  0  0  0  0  0  0  0  0  0  0  0
  191.6830  176.6720  145.2960 C   0  0  0  0  0  3  0  0  0  0  0  0
  189.0180  177.3230  145.6950 C   0  0  0  0  0  3  0  0  0  0  0  0
  190.8010  176.6520  144.2120 C   0  0  0  0  0  3  0  0  0  0  0  0
  189.5120  177.6640  148.0000 F   0  0  0  0  0  0  0  0  0  0  0  0
  1  7  1  6  0  0  0
  1  6  1  0  0  0  0
  1  4  1  0  0  0  0
  3  5  1  0  0  0  0
  3 15  1  1  0  0  0
  4  2  1  6  0  0  0
  4  3  1  0  0  0  0
  5 27  1  1  0  0  0
  6  8  1  0  0  0  0
  8  5  1  0  0  0  0
  9 13  1  0  0  0  0
 10 11  1  0  0  0  0
 11 14  1  0  0  0  0
 12 13  1  0  0  0  0
 14 16  1  6  0  0  0
 14 12  1  0  0  0  0
 15 10  1  6  0  0  0
 15  9  1  0  0  0  0
 17 16  1  0  0  0  0
 18 17  1  6  0  0  0
 20 19  1  1  0  0  0
 20 18  1  0  0  0  0
 21 20  1  0  0  0  0
 21 18  1  0  0  0  0
 22 23  1  0  0  0  0
 23 20  1  0  0  0  0
 24 25  1  0  0  0  0
 24  1  1  0  0  0  0
 26 24  2  0  0  0  0
 27 30  1  0  0  0  0
 28 34  1  0  0  0  0
 29 28  1  0  0  0  0
 30 32  1  0  0  0  0
 31 29  2  0  0  0  0
 32 28  2  0  0  0  0
 33 30  2  0  0  0  0
 33 31  1  0  0  0  0
M  END
>  <MODEL>
8

>  <REMARK>
 VINA RESULT:      -7.4      3.277      5.645
  Name = 
  8 active torsions:
  status: ('A' for Active; 'I' for Inactive)
    1  A    between atoms: C_1  and  C_6
    2  A    between atoms: C_3  and  C_29
    3  A    between atoms: C_3  and  C_33
    4  A    between atoms: C_4  and  C_31
    5  A    between atoms: C_12  and  O_28
    6  A    between atoms: C_13  and  C_33
    7  A    between atoms: C_20  and  C_22
    8  A    between atoms: C_21  and  O_28
                            x       y       z     vdW  Elec       q    Type
                         _______ _______ _______ _____ _____    ______ ____

>  <TORSDO>
F 8

$$$$
=
 OpenBabel11052414243D

 34 37  0  0  1  0  0  0  0  0999 V2000
  188.1140  176.5790  136.8330 C   0  0  1  0  0  0  0  0  0  0  0  0
  190.1700  177.2240  138.1930 C   0  0  0  0  0  1  0  0  0  0  0  0
  187.8980  178.1290  138.8900 C   0  0  1  0  0  3  0  0  0  0  0  0
  188.6670  176.9540  138.2360 C   0  0  1  0  0  3  0  0  0  0  0  0
  186.3860  177.8710  138.8910 C   0  0  2  0  0  3  0  0  0  0  0  0
  186.5980  176.3800  136.9030 C   0  0  0  0  0  2  0  0  0  0  0  0
  188.4240  177.6880  135.8250 C   0  0  0  0  0  1  0  0  0  0  0  0
  185.8950  177.6040  137.4740 C   0  0  0  0  0  2  0  0  0  0  0  0
  189.3330  177.4020  140.8520 C   0  0  0  0  0  2  0  0  0  0  0  0
  187.2210  178.9000  141.2550 C   0  0  0  0  0  2  0  0  0  0  0  0
  186.8470  177.8770  142.3190 C   0  0  0  0  0  2  0  0  0  0  0  0
  189.0580  177.2310  143.3230 C   0  0  0  0  0  2  0  0  0  0  0  0
  189.9170  177.7930  142.2010 C   0  0  0  0  0  2  0  0  0  0  0  0
  187.7730  178.0260  143.5220 C   0  0  2  0  0  3  0  0  0  0  0  0
  188.3620  178.4580  140.3180 C   0  0  2  0  0  3  0  0  0  0  0  0
  187.0930  177.5250  144.7880 C   0  0  0  0  0  2  0  0  0  0  0  0
  188.1030  176.9460  145.7650 C   0  0  0  0  0  2  0  0  0  0  0  0
  188.1490  177.7900  147.0310 C   0  0  2  0  0  3  0  0  0  0  0  0
  189.7500  178.6290  148.7000 O   0  0  0  0  0  1  0  0  0  0  0  0
  189.4220  177.5850  147.8370 C   0  0  1  0  0  0  0  0  0  0  0  0
  188.1580  176.8670  148.2460 C   0  0  0  0  0  2  0  0  0  0  0  0
  191.7680  177.1280  147.8590 O   0  0  0  0  0  1  0  0  0  0  0  0
  190.5490  176.6860  147.3440 C   0  0  0  0  0  2  0  0  0  0  0  0
  188.7110  175.2830  136.3430 C   0  0  0  0  0  0  0  0  0  0  0  0
  188.2900  174.1770  136.7760 O   0  0  0  0  0  1  0  0  0  0  0  0
  189.6720  175.2910  135.3380 O   0  0  0  0  0  0  0  0  0  0  0  0
  185.7060  179.0030  139.4280 O   0  0  0  0  0  0  0  0  0  0  0  0
  182.2130  180.0640  138.9270 C   0  0  0  0  0  0  0  0  0  0  0  0
  181.5620  179.2560  139.8070 N   0  0  0  0  0  0  0  0  0  0  0  0
  184.3150  179.0730  139.5770 C   0  0  0  0  0  0  0  0  0  0  0  0
  182.2330  178.3590  140.5780 C   0  0  0  0  0  3  0  0  0  0  0  0
  183.6020  179.9860  138.7990 C   0  0  0  0  0  3  0  0  0  0  0  0
  183.6230  178.2510  140.4780 C   0  0  0  0  0  3  0  0  0  0  0  0
  181.5140  180.9490  138.1740 F   0  0  0  0  0  0  0  0  0  0  0  0
  1  7  1  6  0  0  0
  1  6  1  0  0  0  0
  1  4  1  0  0  0  0
  3  5  1  0  0  0  0
  3 15  1  1  0  0  0
  4  2  1  6  0  0  0
  4  3  1  0  0  0  0
  5 27  1  6  0  0  0
  6  8  1  0  0  0  0
  8  5  1  0  0  0  0
  9 13  1  0  0  0  0
 10 11  1  0  0  0  0
 11 14  1  0  0  0  0
 12 14  1  0  0  0  0
 13 12  1  0  0  0  0
 14 16  1  1  0  0  0
 15  9  1  1  0  0  0
 15 10  1  0  0  0  0
 16 17  1  0  0  0  0
 18 17  1  6  0  0  0
 18 20  1  0  0  0  0
 18 21  1  0  0  0  0
 20 21  1  0  0  0  0
 20 19  1  1  0  0  0
 23 20  1  0  0  0  0
 23 22  1  0  0  0  0
 24 25  1  0  0  0  0
 24  1  1  0  0  0  0
 26 24  2  0  0  0  0
 27 30  1  0  0  0  0
 28 29  1  0  0  0  0
 29 31  2  0  0  0  0
 30 33  2  0  0  0  0
 32 28  2  0  0  0  0
 32 30  1  0  0  0  0
 33 31  1  0  0  0  0
 34 28  1  0  0  0  0
M  END
>  <MODEL>
9

>  <REMARK>
 VINA RESULT:      -7.4      3.289      7.512
  Name = 
  8 active torsions:
  status: ('A' for Active; 'I' for Inactive)
    1  A    between atoms: C_1  and  C_6
    2  A    between atoms: C_3  and  C_29
    3  A    between atoms: C_3  and  C_33
    4  A    between atoms: C_4  and  C_31
    5  A    between atoms: C_12  and  O_28
    6  A    between atoms: C_13  and  C_33
    7  A    between atoms: C_20  and  C_22
    8  A    between atoms: C_21  and  O_28
                            x       y       z     vdW  Elec       q    Type
                         _______ _______ _______ _____ _____    ______ ____

>  <TORSDO>
F 8

$$$$
