=
 OpenBabel11052416453D

 32 38  0  0  1  0  0  0  0  0999 V2000
  191.0000  175.5670  137.9720 C   0  0  1  0  0  3  0  0  0  0  0  0
  188.5670  177.4550  141.8760 C   0  0  2  0  0  3  0  0  0  0  0  0
  191.7910  176.5890  145.4980 C   0  0  0  0  0  3  0  0  0  0  0  0
  190.7720  176.7200  146.4420 C   0  0  0  0  0  3  0  0  0  0  0  0
  186.2120  178.2650  142.5480 C   0  0  0  0  0  0  0  0  0  0  0  0
  185.3310  178.6180  143.5670 C   0  0  0  0  0  0  0  0  0  0  0  0
  189.4630  177.5180  139.5020 C   0  0  1  0  0  3  0  0  0  0  0  0
  191.0350  177.2100  141.3030 C   0  0  0  0  0  2  0  0  0  0  0  0
  184.5980  178.9780  145.7610 C   0  0  1  0  0  3  0  0  0  0  0  0
  191.4770  176.3700  139.1810 C   0  0  0  0  0  2  0  0  0  0  0  0
  191.5430  176.8880  144.1570 C   0  0  0  0  0  3  0  0  0  0  0  0
  190.0080  177.7380  142.3240 C   0  0  2  0  0  3  0  0  0  0  0  0
  190.2660  177.3020  143.7440 C   0  0  0  0  0  0  0  0  0  0  0  0
  187.8930  177.8950  144.2810 C   0  0  0  0  0  0  0  0  0  0  0  0
  183.4470  179.2410  144.7640 C   0  0  0  0  0  3  0  0  0  0  0  0
  189.5660  175.8470  137.5060 C   0  0  1  0  0  3  0  0  0  0  0  0
  190.4030  176.5830  140.1370 N   0  0  2  0  0  0  0  0  0  0  0  0
  183.9750  178.9850  143.4220 N   0  0  0  0  0  0  0  0  0  0  0  0
  188.7320  176.8270  138.3510 C   0  0  0  0  0  2  0  0  0  0  0  0
  190.7320  176.5380  136.8330 C   0  0  2  0  0  3  0  0  0  0  0  0
  189.5040  177.1520  146.0460 C   0  0  0  0  0  3  0  0  0  0  0  0
  189.2430  177.4510  144.7010 C   0  0  0  0  0  0  0  0  0  0  0  0
  186.9720  178.2360  145.2320 N   0  0  0  0  0  0  0  0  0  0  0  0
  188.4060  178.0560  140.4810 C   0  0  0  0  0  2  0  0  0  0  0  0
  185.7580  178.2270  141.2350 O   0  0  0  0  0  1  0  0  0  0  0  0
  184.2290  177.8090  146.6560 C   0  0  0  0  0  1  0  0  0  0  0  0
  187.5480  177.9360  142.8970 C   0  0  0  0  0  0  0  0  0  0  0  0
  185.7190  178.6010  144.8670 C   0  0  0  0  0  0  0  0  0  0  0  0
  191.0120  175.8830  135.5660 N   0  0  0  0  0  2  0  0  0  0  0  0
  192.2680  175.1670  135.7200 C   0  0  2  0  0  3  0  0  0  0  0  0
  193.3930  175.9950  135.1330 C   0  0  0  0  0  1  0  0  0  0  0  0
  192.1950  173.9440  135.0510 O   0  0  0  0  0  1  0  0  0  0  0  0
  1 10  1  1  0  0  0
  2 24  1  6  0  0  0
  2 12  1  0  0  0  0
  2 27  1  0  0  0  0
  3  4  1  0  0  0  0
  5 27  2  0  0  0  0
  5  6  1  0  0  0  0
  6 28  2  0  0  0  0
  7 19  1  6  0  0  0
  7 17  1  0  0  0  0
  7 24  1  0  0  0  0
  9 26  1  1  0  0  0
 11  3  2  0  0  0  0
 12  8  1  6  0  0  0
 12 13  1  0  0  0  0
 13 11  1  0  0  0  0
 13 22  2  0  0  0  0
 14 22  1  0  0  0  0
 14 23  2  0  0  0  0
 15  9  1  0  0  0  0
 16  1  1  0  0  0  0
 16 19  1  1  0  0  0
 17 10  1  6  0  0  0
 17  8  1  0  0  0  0
 18  6  1  0  0  0  0
 18 15  2  0  0  0  0
 20 29  1  6  0  0  0
 20 16  1  0  0  0  0
 20  1  1  0  0  0  0
 21  4  2  0  0  0  0
 22 21  1  0  0  0  0
 25  5  1  0  0  0  0
 27 14  1  0  0  0  0
 28 23  1  0  0  0  0
 28  9  1  0  0  0  0
 29 30  1  0  0  0  0
 30 31  1  6  0  0  0
 32 30  1  0  0  0  0
M  END
>  <MODEL>
1

>  <REMARK>
 VINA RESULT:      -9.6      0.000      0.000
  Name = 
  2 active torsions:
  status: ('A' for Active; 'I' for Inactive)
    1  A    between atoms: C_1  and  N_10
    2  A    between atoms: N_10  and  C_24
                            x       y       z     vdW  Elec       q    Type
                         _______ _______ _______ _____ _____    ______ ____

>  <TORSDO>
F 2

$$$$
=
 OpenBabel11052416453D

 32 38  0  0  1  0  0  0  0  0999 V2000
  190.5710  176.2110  139.3350 C   0  0  1  0  0  3  0  0  0  0  0  0
  186.5540  177.9770  141.6760 C   0  0  2  0  0  3  0  0  0  0  0  0
  187.9580  177.5720  146.3790 C   0  0  0  0  0  3  0  0  0  0  0  0
  186.6250  177.6310  146.7870 C   0  0  0  0  0  3  0  0  0  0  0  0
  184.0850  178.5660  141.2170 C   0  0  0  0  0  0  0  0  0  0  0  0
  182.8270  178.8620  141.7340 C   0  0  0  0  0  0  0  0  0  0  0  0
  188.3800  178.0470  139.9120 C   0  0  1  0  0  3  0  0  0  0  0  0
  189.0400  177.9660  142.2290 C   0  0  0  0  0  2  0  0  0  0  0  0
  181.1940  179.2220  143.3730 C   0  0  1  0  0  3  0  0  0  0  0  0
  190.4170  177.1000  140.5670 C   0  0  0  0  0  2  0  0  0  0  0  0
  188.2900  177.7970  145.0420 C   0  0  0  0  0  3  0  0  0  0  0  0
  187.6350  178.4200  142.6720 C   0  0  2  0  0  3  0  0  0  0  0  0
  187.2890  178.0630  144.0950 C   0  0  0  0  0  0  0  0  0  0  0  0
  184.8780  178.4290  143.5240 C   0  0  0  0  0  0  0  0  0  0  0  0
  180.5690  179.3310  141.9630 C   0  0  0  0  0  3  0  0  0  0  0  0
  189.4610  176.3270  138.2830 C   0  0  1  0  0  3  0  0  0  0  0  0
  189.0230  177.2360  140.9560 N   0  0  2  0  0  0  0  0  0  0  0  0
  181.6430  179.0830  140.9980 N   0  0  0  0  0  0  0  0  0  0  0  0
  188.2720  177.2460  138.6150 C   0  0  0  0  0  2  0  0  0  0  0  0
  190.7460  177.1100  138.1210 C   0  0  2  0  0  3  0  0  0  0  0  0
  185.6220  177.9180  145.8570 C   0  0  0  0  0  3  0  0  0  0  0  0
  185.9440  178.1400  144.5100 C   0  0  0  0  0  0  0  0  0  0  0  0
  183.6140  178.7080  143.9620 N   0  0  0  0  0  0  0  0  0  0  0  0
  186.9650  178.5090  140.3040 C   0  0  0  0  0  2  0  0  0  0  0  0
  184.2470  178.4350  139.8420 O   0  0  0  0  0  1  0  0  0  0  0  0
  180.5670  178.0540  144.1110 C   0  0  0  0  0  1  0  0  0  0  0  0
  185.1610  178.3870  142.1260 C   0  0  0  0  0  0  0  0  0  0  0  0
  182.6160  178.9300  143.0720 C   0  0  0  0  0  0  0  0  0  0  0  0
  191.5950  176.4420  137.1470 N   0  0  0  0  0  2  0  0  0  0  0  0
  192.2380  175.3300  137.8270 C   0  0  2  0  0  3  0  0  0  0  0  0
  193.7310  175.5820  137.8990 C   0  0  0  0  0  1  0  0  0  0  0  0
  192.0020  174.1490  137.1220 O   0  0  0  0  0  1  0  0  0  0  0  0
  1 10  1  1  0  0  0
  2 24  1  6  0  0  0
  2 27  1  0  0  0  0
  2 12  1  0  0  0  0
  3  4  1  0  0  0  0
  5  6  2  0  0  0  0
  5 27  1  0  0  0  0
  6 28  1  0  0  0  0
  7 19  1  6  0  0  0
  7 24  1  0  0  0  0
  7 17  1  0  0  0  0
  9 26  1  1  0  0  0
 11  3  2  0  0  0  0
 12  8  1  6  0  0  0
 12 13  1  0  0  0  0
 13 22  2  0  0  0  0
 13 11  1  0  0  0  0
 14 23  1  0  0  0  0
 14 22  1  0  0  0  0
 15  9  1  0  0  0  0
 16 19  1  1  0  0  0
 16  1  1  0  0  0  0
 17 10  1  6  0  0  0
 17  8  1  0  0  0  0
 18  6  1  0  0  0  0
 18 15  2  0  0  0  0
 20 29  1  6  0  0  0
 20 16  1  0  0  0  0
 20  1  1  0  0  0  0
 21  4  2  0  0  0  0
 22 21  1  0  0  0  0
 25  5  1  0  0  0  0
 27 14  2  0  0  0  0
 28  9  1  0  0  0  0
 28 23  2  0  0  0  0
 29 30  1  0  0  0  0
 30 31  1  6  0  0  0
 32 30  1  0  0  0  0
M  END
>  <MODEL>
2

>  <REMARK>
 VINA RESULT:      -9.6      1.858      2.868
  Name = 
  2 active torsions:
  status: ('A' for Active; 'I' for Inactive)
    1  A    between atoms: C_1  and  N_10
    2  A    between atoms: N_10  and  C_24
                            x       y       z     vdW  Elec       q    Type
                         _______ _______ _______ _____ _____    ______ ____

>  <TORSDO>
F 2

$$$$
=
 OpenBabel11052416453D

 32 38  0  0  1  0  0  0  0  0999 V2000
  187.9650  178.9580  137.3640 C   0  0  1  0  0  3  0  0  0  0  0  0
  188.0930  177.8330  142.2060 C   0  0  2  0  0  3  0  0  0  0  0  0
  183.5520  179.1410  143.5930 C   0  0  0  0  0  3  0  0  0  0  0  0
  183.9720  179.2080  144.9220 C   0  0  0  0  0  3  0  0  0  0  0  0
  189.7810  177.2400  144.0640 C   0  0  0  0  0  0  0  0  0  0  0  0
  190.0340  177.0950  145.4250 C   0  0  0  0  0  0  0  0  0  0  0  0
  188.4700  177.3470  139.7420 C   0  0  1  0  0  3  0  0  0  0  0  0
  186.2330  177.8780  140.4670 C   0  0  0  0  0  2  0  0  0  0  0  0
  189.5850  177.1270  147.7230 C   0  0  1  0  0  3  0  0  0  0  0  0
  186.9220  178.3440  138.2960 C   0  0  0  0  0  2  0  0  0  0  0  0
  184.4100  178.6390  142.6130 C   0  0  0  0  0  3  0  0  0  0  0  0
  186.6060  177.5670  141.9300 C   0  0  2  0  0  3  0  0  0  0  0  0
  185.7060  178.2170  142.9500 C   0  0  0  0  0  0  0  0  0  0  0  0
  187.4840  177.8180  144.6670 C   0  0  0  0  0  0  0  0  0  0  0  0
  191.0640  176.7530  147.4740 C   0  0  0  0  0  3  0  0  0  0  0  0
  189.4300  178.6660  137.7110 C   0  0  1  0  0  3  0  0  0  0  0  0
  187.3810  178.3340  139.6760 N   0  0  2  0  0  0  0  0  0  0  0  0
  191.2700  176.7650  146.0240 N   0  0  0  0  0  0  0  0  0  0  0  0
  189.7000  177.8710  139.0010 C   0  0  0  0  0  2  0  0  0  0  0  0
  188.7120  177.8270  136.6760 C   0  0  2  0  0  3  0  0  0  0  0  0
  185.2520  178.7700  145.2720 C   0  0  0  0  0  3  0  0  0  0  0  0
  186.1240  178.2680  144.2950 C   0  0  0  0  0  0  0  0  0  0  0  0
  187.8080  177.6740  145.9880 N   0  0  0  0  0  0  0  0  0  0  0  0
  188.8890  177.0200  141.1860 C   0  0  0  0  0  2  0  0  0  0  0  0
  190.8200  177.0830  143.1540 O   0  0  0  0  0  1  0  0  0  0  0  0
  189.5200  178.4400  148.4810 C   0  0  0  0  0  1  0  0  0  0  0  0
  188.4600  177.5660  143.6570 C   0  0  0  0  0  0  0  0  0  0  0  0
  189.0620  177.3060  146.3470 C   0  0  0  0  0  0  0  0  0  0  0  0
  189.1160  178.2550  135.3470 N   0  0  0  0  0  2  0  0  0  0  0  0
  189.4570  177.0600  134.5940 C   0  0  2  0  0  3  0  0  0  0  0  0
  188.3030  176.0800  134.6590 C   0  0  0  0  0  1  0  0  0  0  0  0
  190.5970  176.4690  135.1410 O   0  0  0  0  0  1  0  0  0  0  0  0
  1 16  1  0  0  0  0
  1 10  1  1  0  0  0
  2 24  1  6  0  0  0
  2 27  1  0  0  0  0
  3  4  1  0  0  0  0
  4 21  2  0  0  0  0
  5  6  1  0  0  0  0
  6 18  1  0  0  0  0
  6 28  2  0  0  0  0
  7 19  1  6  0  0  0
  7 24  1  0  0  0  0
  9 26  1  1  0  0  0
 11 13  1  0  0  0  0
 11  3  2  0  0  0  0
 12  8  1  6  0  0  0
 12  2  1  0  0  0  0
 12 13  1  0  0  0  0
 13 22  2  0  0  0  0
 14 23  2  0  0  0  0
 15  9  1  0  0  0  0
 16 19  1  1  0  0  0
 17 10  1  6  0  0  0
 17  7  1  0  0  0  0
 17  8  1  0  0  0  0
 18 15  2  0  0  0  0
 20 29  1  6  0  0  0
 20  1  1  0  0  0  0
 20 16  1  0  0  0  0
 22 14  1  0  0  0  0
 22 21  1  0  0  0  0
 23 28  1  0  0  0  0
 25  5  1  0  0  0  0
 27  5  2  0  0  0  0
 27 14  1  0  0  0  0
 28  9  1  0  0  0  0
 30 31  1  1  0  0  0
 30 32  1  0  0  0  0
 30 29  1  0  0  0  0
M  END
>  <MODEL>
3

>  <REMARK>
 VINA RESULT:      -9.4      2.296      4.704
  Name = 
  2 active torsions:
  status: ('A' for Active; 'I' for Inactive)
    1  A    between atoms: C_1  and  N_10
    2  A    between atoms: N_10  and  C_24
                            x       y       z     vdW  Elec       q    Type
                         _______ _______ _______ _____ _____    ______ ____

>  <TORSDO>
F 2

$$$$
=
 OpenBabel11052416453D

 32 38  0  0  1  0  0  0  0  0999 V2000
  180.9120  180.6380  139.4890 C   0  0  1  0  0  3  0  0  0  0  0  0
  185.1350  178.7360  141.3000 C   0  0  2  0  0  3  0  0  0  0  0  0
  184.1220  178.6280  146.1190 C   0  0  0  0  0  3  0  0  0  0  0  0
  185.4860  178.5580  146.4090 C   0  0  0  0  0  3  0  0  0  0  0  0
  187.5650  178.2530  140.5840 C   0  0  0  0  0  0  0  0  0  0  0  0
  188.8660  177.9350  140.9630 C   0  0  0  0  0  0  0  0  0  0  0  0
  183.1700  178.8030  139.6930 C   0  0  1  0  0  3  0  0  0  0  0  0
  182.7040  178.6340  142.0520 C   0  0  0  0  0  2  0  0  0  0  0  0
  190.6350  177.4470  142.4170 C   0  0  1  0  0  3  0  0  0  0  0  0
  181.1810  179.6320  140.6070 C   0  0  0  0  0  2  0  0  0  0  0  0
  183.6830  178.5320  144.7970 C   0  0  0  0  0  3  0  0  0  0  0  0
  184.1470  178.1680  142.3300 C   0  0  2  0  0  3  0  0  0  0  0  0
  184.6060  178.3870  143.7490 C   0  0  0  0  0  0  0  0  0  0  0  0
  186.9650  178.1360  142.9490 C   0  0  0  0  0  0  0  0  0  0  0  0
  191.1420  177.4960  140.9580 C   0  0  0  0  0  3  0  0  0  0  0  0
  181.9320  180.6550  138.3440 C   0  0  1  0  0  3  0  0  0  0  0  0
  182.6050  179.4890  140.8640 N   0  0  2  0  0  0  0  0  0  0  0  0
  189.9880  177.8160  140.1140 N   0  0  0  0  0  0  0  0  0  0  0  0
  183.1580  179.7340  138.4810 C   0  0  0  0  0  2  0  0  0  0  0  0
  180.6490  179.8640  138.2070 C   0  0  2  0  0  3  0  0  0  0  0  0
  186.4110  178.3900  145.3750 C   0  0  0  0  0  3  0  0  0  0  0  0
  185.9810  178.2980  144.0440 C   0  0  0  0  0  0  0  0  0  0  0  0
  188.2660  177.8430  143.2520 N   0  0  0  0  0  0  0  0  0  0  0  0
  184.6190  178.3370  139.9190 C   0  0  0  0  0  2  0  0  0  0  0  0
  187.2880  178.5190  139.2470 O   0  0  0  0  0  1  0  0  0  0  0  0
  191.3050  178.5480  143.2190 C   0  0  0  0  0  1  0  0  0  0  0  0
  186.5660  178.3140  141.5910 C   0  0  0  0  0  0  0  0  0  0  0  0
  189.1880  177.7350  142.2650 C   0  0  0  0  0  0  0  0  0  0  0  0
  179.7130  180.6070  137.3800 N   0  0  0  0  0  2  0  0  0  0  0  0
  180.4960  181.3740  136.4250 C   0  0  2  0  0  3  0  0  0  0  0  0
  179.8690  182.7420  136.2440 C   0  0  0  0  0  1  0  0  0  0  0  0
  180.5200  180.7100  135.1970 O   0  0  0  0  0  1  0  0  0  0  0  0
  1 10  1  1  0  0  0
  2 24  1  6  0  0  0
  2 27  1  0  0  0  0
  2 12  1  0  0  0  0
  3  4  1  0  0  0  0
  5  6  2  0  0  0  0
  5 27  1  0  0  0  0
  6 28  1  0  0  0  0
  7 19  1  6  0  0  0
  7 24  1  0  0  0  0
  7 17  1  0  0  0  0
  9 26  1  1  0  0  0
 11  3  2  0  0  0  0
 12  8  1  1  0  0  0
 12 13  1  0  0  0  0
 13 22  2  0  0  0  0
 13 11  1  0  0  0  0
 14 23  1  0  0  0  0
 14 22  1  0  0  0  0
 15  9  1  0  0  0  0
 16 19  1  1  0  0  0
 16  1  1  0  0  0  0
 17 10  1  6  0  0  0
 17  8  1  0  0  0  0
 18 15  2  0  0  0  0
 18  6  1  0  0  0  0
 20 29  1  6  0  0  0
 20 16  1  0  0  0  0
 20  1  1  0  0  0  0
 21  4  2  0  0  0  0
 22 21  1  0  0  0  0
 25  5  1  0  0  0  0
 27 14  2  0  0  0  0
 28  9  1  0  0  0  0
 28 23  2  0  0  0  0
 30 31  1  6  0  0  0
 30 29  1  0  0  0  0
 32 30  1  0  0  0  0
M  END
>  <MODEL>
4

>  <REMARK>
 VINA RESULT:      -9.2      4.183      7.885
  Name = 
  2 active torsions:
  status: ('A' for Active; 'I' for Inactive)
    1  A    between atoms: C_1  and  N_10
    2  A    between atoms: N_10  and  C_24
                            x       y       z     vdW  Elec       q    Type
                         _______ _______ _______ _____ _____    ______ ____

>  <TORSDO>
F 2

$$$$
=
 OpenBabel11052416453D

 32 38  0  0  1  0  0  0  0  0999 V2000
  190.6600  176.0460  147.5140 C   0  0  1  0  0  3  0  0  0  0  0  0
  188.8270  177.6400  143.1760 C   0  0  2  0  0  3  0  0  0  0  0  0
  184.1240  178.4550  144.3890 C   0  0  0  0  0  3  0  0  0  0  0  0
  183.7620  178.3980  143.0420 C   0  0  0  0  0  3  0  0  0  0  0  0
  189.4450  177.7400  140.6730 C   0  0  0  0  0  0  0  0  0  0  0  0
  189.0270  177.9450  139.3620 C   0  0  0  0  0  0  0  0  0  0  0  0
  190.5330  177.6110  145.0570 C   0  0  1  0  0  3  0  0  0  0  0  0
  188.2420  178.1210  145.6060 C   0  0  0  0  0  2  0  0  0  0  0  0
  187.5330  178.3930  137.6150 C   0  0  1  0  0  3  0  0  0  0  0  0
  189.6530  177.1420  147.1740 C   0  0  0  0  0  2  0  0  0  0  0  0
  185.4720  178.4400  144.7510 C   0  0  0  0  0  3  0  0  0  0  0  0
  187.9320  178.4420  144.1310 C   0  0  2  0  0  3  0  0  0  0  0  0
  186.4720  178.3460  143.7700 C   0  0  0  0  0  0  0  0  0  0  0  0
  187.1500  178.2160  141.3630 C   0  0  0  0  0  0  0  0  0  0  0  0
  188.9430  178.1060  137.0510 C   0  0  0  0  0  3  0  0  0  0  0  0
  191.7320  175.7680  146.4530 C   0  0  1  0  0  3  0  0  0  0  0  0
  189.3270  177.1450  145.7570 N   0  0  2  0  0  0  0  0  0  0  0  0
  189.8130  177.8250  138.1950 N   0  0  0  0  0  0  0  0  0  0  0  0
  191.6270  176.5470  145.1290 C   0  0  0  0  0  2  0  0  0  0  0  0
  192.0370  176.6830  147.6190 C   0  0  2  0  0  3  0  0  0  0  0  0
  184.7490  178.3270  142.0560 C   0  0  0  0  0  3  0  0  0  0  0  0
  186.1060  178.3060  142.4100 C   0  0  0  0  0  0  0  0  0  0  0  0
  186.8040  178.3860  140.0510 N   0  0  0  0  0  0  0  0  0  0  0  0
  190.2740  177.9260  143.5730 C   0  0  0  0  0  2  0  0  0  0  0  0
  190.7560  177.3470  140.9190 O   0  0  0  0  0  1  0  0  0  0  0  0
  186.5710  177.3270  137.1260 C   0  0  0  0  0  1  0  0  0  0  0  0
  188.5010  177.9220  141.7180 C   0  0  0  0  0  0  0  0  0  0  0  0
  187.7390  178.2630  139.0780 C   0  0  0  0  0  0  0  0  0  0  0  0
  192.8280  175.9610  148.6010 N   0  0  0  0  0  2  0  0  0  0  0  0
  193.5700  176.9490  149.3680 C   0  0  2  0  0  3  0  0  0  0  0  0
  193.9570  176.3560  150.7080 C   0  0  0  0  0  1  0  0  0  0  0  0
  192.7740  178.0770  149.5740 O   0  0  0  0  0  1  0  0  0  0  0  0
  1 10  1  6  0  0  0
  1 20  1  0  0  0  0
  2 24  1  6  0  0  0
  2 12  1  0  0  0  0
  3 11  1  0  0  0  0
  4  3  2  0  0  0  0
  5 25  1  0  0  0  0
  5 27  1  0  0  0  0
  6  5  2  0  0  0  0
  7 24  1  6  0  0  0
  7 19  1  0  0  0  0
  7 17  1  0  0  0  0
  9 26  1  6  0  0  0
  9 28  1  0  0  0  0
 12  8  1  1  0  0  0
 13 12  1  0  0  0  0
 13 11  2  0  0  0  0
 14 27  2  0  0  0  0
 14 22  1  0  0  0  0
 15  9  1  0  0  0  0
 15 18  2  0  0  0  0
 16 19  1  6  0  0  0
 16  1  1  0  0  0  0
 16 20  1  0  0  0  0
 17  8  1  1  0  0  0
 17 10  1  0  0  0  0
 18  6  1  0  0  0  0
 20 29  1  1  0  0  0
 21 22  2  0  0  0  0
 21  4  1  0  0  0  0
 22 13  1  0  0  0  0
 23 14  1  0  0  0  0
 27  2  1  0  0  0  0
 28  6  1  0  0  0  0
 28 23  2  0  0  0  0
 29 30  1  0  0  0  0
 30 32  1  0  0  0  0
 30 31  1  1  0  0  0
M  END
>  <MODEL>
5

>  <REMARK>
 VINA RESULT:      -9.1      3.122      8.060
  Name = 
  2 active torsions:
  status: ('A' for Active; 'I' for Inactive)
    1  A    between atoms: C_1  and  N_10
    2  A    between atoms: N_10  and  C_24
                            x       y       z     vdW  Elec       q    Type
                         _______ _______ _______ _____ _____    ______ ____

>  <TORSDO>
F 2

$$$$
=
 OpenBabel11052416453D

 32 38  0  0  1  0  0  0  0  0999 V2000
  191.2290  177.8870  144.9590 C   0  0  1  0  0  3  0  0  0  0  0  0
  187.3240  178.0380  141.8850 C   0  0  2  0  0  3  0  0  0  0  0  0
  189.5800  178.1330  137.5080 C   0  0  0  0  0  3  0  0  0  0  0  0
  188.4220  178.6420  136.9170 C   0  0  0  0  0  3  0  0  0  0  0  0
  184.7800  178.4670  141.9220 C   0  0  0  0  0  0  0  0  0  0  0  0
  183.6190  178.7360  141.2040 C   0  0  0  0  0  0  0  0  0  0  0  0
  188.6370  177.1290  143.8590 C   0  0  1  0  0  3  0  0  0  0  0  0
  189.6740  177.0810  141.6830 C   0  0  0  0  0  2  0  0  0  0  0  0
  182.2900  179.1670  139.3250 C   0  0  1  0  0  3  0  0  0  0  0  0
  190.9630  177.2130  143.6140 C   0  0  0  0  0  2  0  0  0  0  0  0
  189.5580  177.7110  138.8380 C   0  0  0  0  0  3  0  0  0  0  0  0
  188.3060  177.2590  140.9980 C   0  0  2  0  0  3  0  0  0  0  0  0
  188.3810  177.8130  139.5980 C   0  0  0  0  0  0  0  0  0  0  0  0
  185.9580  178.4150  139.7820 C   0  0  0  0  0  0  0  0  0  0  0  0
  181.4340  179.2320  140.6100 C   0  0  0  0  0  3  0  0  0  0  0  0
  189.9950  178.1630  145.8260 C   0  0  1  0  0  3  0  0  0  0  0  0
  189.7170  177.6750  143.0240 N   0  0  2  0  0  0  0  0  0  0  0  0
  182.3310  178.9650  141.7360 N   0  0  0  0  0  0  0  0  0  0  0  0
  188.6210  177.8240  145.2200 C   0  0  0  0  0  2  0  0  0  0  0  0
  190.8260  176.9210  146.0620 C   0  0  2  0  0  3  0  0  0  0  0  0
  187.2400  178.7270  137.6570 C   0  0  0  0  0  3  0  0  0  0  0  0
  187.2080  178.3100  138.9960 C   0  0  0  0  0  0  0  0  0  0  0  0
  184.7830  178.6970  139.1420 N   0  0  0  0  0  0  0  0  0  0  0  0
  187.2470  177.3020  143.2210 C   0  0  0  0  0  2  0  0  0  0  0  0
  184.7350  178.4360  143.3110 O   0  0  0  0  0  1  0  0  0  0  0  0
  182.3050  180.5310  138.6620 C   0  0  0  0  0  1  0  0  0  0  0  0
  185.9840  178.2530  141.1990 C   0  0  0  0  0  0  0  0  0  0  0  0
  183.6370  178.8410  139.8520 C   0  0  0  0  0  0  0  0  0  0  0  0
  191.6800  177.1280  147.2190 N   0  0  0  0  0  2  0  0  0  0  0  0
  192.0560  175.8150  147.7180 C   0  0  2  0  0  3  0  0  0  0  0  0
  193.1800  175.9630  148.7230 C   0  0  0  0  0  1  0  0  0  0  0  0
  192.4850  175.0150  146.6580 O   0  0  0  0  0  1  0  0  0  0  0  0
  1 10  1  6  0  0  0
  1 16  1  0  0  0  0
  1 20  1  0  0  0  0
  2 24  1  1  0  0  0
  3 11  1  0  0  0  0
  4  3  2  0  0  0  0
  4 21  1  0  0  0  0
  5 25  1  0  0  0  0
  6 18  1  0  0  0  0
  6  5  1  0  0  0  0
  7 24  1  6  0  0  0
  7 19  1  0  0  0  0
  9 26  1  1  0  0  0
  9 28  1  0  0  0  0
  9 15  1  0  0  0  0
 11 13  2  0  0  0  0
 12  8  1  1  0  0  0
 12  2  1  0  0  0  0
 13 12  1  0  0  0  0
 14 27  1  0  0  0  0
 15 18  2  0  0  0  0
 16 19  1  6  0  0  0
 16 20  1  0  0  0  0
 17  8  1  6  0  0  0
 17 10  1  0  0  0  0
 17  7  1  0  0  0  0
 20 29  1  1  0  0  0
 21 22  2  0  0  0  0
 22 13  1  0  0  0  0
 22 14  1  0  0  0  0
 23 14  2  0  0  0  0
 23 28  1  0  0  0  0
 27  2  1  0  0  0  0
 27  5  2  0  0  0  0
 28  6  2  0  0  0  0
 29 30  1  0  0  0  0
 30 31  1  1  0  0  0
 32 30  1  0  0  0  0
M  END
>  <MODEL>
6

>  <REMARK>
 VINA RESULT:      -9.0      3.389      6.939
  Name = 
  2 active torsions:
  status: ('A' for Active; 'I' for Inactive)
    1  A    between atoms: C_1  and  N_10
    2  A    between atoms: N_10  and  C_24
                            x       y       z     vdW  Elec       q    Type
                         _______ _______ _______ _____ _____    ______ ____

>  <TORSDO>
F 2

$$$$
=
 OpenBabel11052416453D

 32 38  0  0  1  0  0  0  0  0999 V2000
  187.6570  177.1550  145.0500 C   0  0  1  0  0  3  0  0  0  0  0  0
  184.2570  178.1720  141.5670 C   0  0  2  0  0  3  0  0  0  0  0  0
  180.2450  178.8490  144.3430 C   0  0  0  0  0  3  0  0  0  0  0  0
  179.4320  178.6280  143.2310 C   0  0  0  0  0  3  0  0  0  0  0  0
  183.9270  178.0370  139.0130 C   0  0  0  0  0  0  0  0  0  0  0  0
  183.0510  178.0780  137.9320 C   0  0  0  0  0  0  0  0  0  0  0  0
  186.5170  178.4390  142.6930 C   0  0  1  0  0  3  0  0  0  0  0  0
  184.5380  178.8760  143.9980 C   0  0  0  0  0  2  0  0  0  0  0  0
  180.9970  178.2520  136.8200 C   0  0  1  0  0  3  0  0  0  0  0  0
  186.4990  178.1510  145.0150 C   0  0  0  0  0  2  0  0  0  0  0  0
  181.6290  178.9470  144.1890 C   0  0  0  0  0  3  0  0  0  0  0  0
  183.6940  179.0200  142.7160 C   0  0  2  0  0  3  0  0  0  0  0  0
  182.2160  178.8050  142.9210 C   0  0  0  0  0  0  0  0  0  0  0  0
  181.9970  178.4560  140.4510 C   0  0  0  0  0  0  0  0  0  0  0  0
  182.1320  177.9860  135.8060 C   0  0  0  0  0  3  0  0  0  0  0  0
  188.2980  176.8250  143.6970 C   0  0  1  0  0  3  0  0  0  0  0  0
  185.6890  177.9840  143.8190 N   0  0  2  0  0  0  0  0  0  0  0  0
  183.3750  177.8780  136.5730 N   0  0  0  0  0  0  0  0  0  0  0  0
  187.6570  177.4510  142.4450 C   0  0  0  0  0  2  0  0  0  0  0  0
  188.9160  177.8750  144.5950 C   0  0  2  0  0  3  0  0  0  0  0  0
  180.0040  178.5060  141.9620 C   0  0  0  0  0  3  0  0  0  0  0  0
  181.3930  178.5990  141.7960 C   0  0  0  0  0  0  0  0  0  0  0  0
  181.1910  178.4660  139.3470 N   0  0  0  0  0  0  0  0  0  0  0  0
  185.7180  178.5780  141.3860 C   0  0  0  0  0  2  0  0  0  0  0  0
  185.2690  177.7470  138.7940 O   0  0  0  0  0  1  0  0  0  0  0  0
  180.0240  177.0880  136.8030 C   0  0  0  0  0  1  0  0  0  0  0  0
  183.4060  178.2770  140.3110 C   0  0  0  0  0  0  0  0  0  0  0  0
  181.7230  178.2910  138.1130 C   0  0  0  0  0  0  0  0  0  0  0  0
  190.0680  177.3070  145.2750 N   0  0  0  0  0  2  0  0  0  0  0  0
  191.2560  177.8260  144.6170 C   0  0  2  0  0  3  0  0  0  0  0  0
  190.9310  179.1560  143.9690 C   0  0  0  0  0  1  0  0  0  0  0  0
  191.6800  176.9250  143.6380 O   0  0  0  0  0  1  0  0  0  0  0  0
  1 10  1  6  0  0  0
  2 24  1  6  0  0  0
  2 12  1  0  0  0  0
  4  3  2  0  0  0  0
  5 27  1  0  0  0  0
  6 28  1  0  0  0  0
  6  5  2  0  0  0  0
  7 24  1  6  0  0  0
  7 17  1  0  0  0  0
  9 26  1  1  0  0  0
  9 28  1  0  0  0  0
 11  3  1  0  0  0  0
 12 13  1  0  0  0  0
 12  8  1  1  0  0  0
 13 11  2  0  0  0  0
 14 22  1  0  0  0  0
 15 18  2  0  0  0  0
 15  9  1  0  0  0  0
 16 19  1  6  0  0  0
 16 20  1  0  0  0  0
 16  1  1  0  0  0  0
 17  8  1  1  0  0  0
 17 10  1  0  0  0  0
 18  6  1  0  0  0  0
 19  7  1  0  0  0  0
 20  1  1  0  0  0  0
 20 29  1  1  0  0  0
 21  4  1  0  0  0  0
 22 21  2  0  0  0  0
 22 13  1  0  0  0  0
 23 14  1  0  0  0  0
 25  5  1  0  0  0  0
 27 14  2  0  0  0  0
 27  2  1  0  0  0  0
 28 23  2  0  0  0  0
 30 31  1  6  0  0  0
 30 29  1  0  0  0  0
 32 30  1  0  0  0  0
M  END
>  <MODEL>
7

>  <REMARK>
 VINA RESULT:      -8.8      4.175      7.963
  Name = 
  2 active torsions:
  status: ('A' for Active; 'I' for Inactive)
    1  A    between atoms: C_1  and  N_10
    2  A    between atoms: N_10  and  C_24
                            x       y       z     vdW  Elec       q    Type
                         _______ _______ _______ _____ _____    ______ ____

>  <TORSDO>
F 2

$$$$
=
 OpenBabel11052416453D

 32 38  0  0  1  0  0  0  0  0999 V2000
  188.0740  176.9590  146.0970 C   0  0  1  0  0  3  0  0  0  0  0  0
  187.2700  178.0540  141.3140 C   0  0  2  0  0  3  0  0  0  0  0  0
  182.3770  178.6220  141.2930 C   0  0  0  0  0  3  0  0  0  0  0  0
  182.3560  178.4280  139.9110 C   0  0  0  0  0  3  0  0  0  0  0  0
  188.4700  177.9920  139.0320 C   0  0  0  0  0  0  0  0  0  0  0  0
  188.3730  178.0580  137.6450 C   0  0  0  0  0  0  0  0  0  0  0  0
  188.4670  178.3030  143.5400 C   0  0  1  0  0  3  0  0  0  0  0  0
  186.0880  178.6890  143.4780 C   0  0  0  0  0  2  0  0  0  0  0  0
  187.3270  178.2520  135.5590 C   0  0  1  0  0  3  0  0  0  0  0  0
  187.1240  177.9470  145.4230 C   0  0  0  0  0  2  0  0  0  0  0  0
  183.5960  178.7350  141.9640 C   0  0  0  0  0  3  0  0  0  0  0  0
  186.1300  178.8650  141.9480 C   0  0  2  0  0  3  0  0  0  0  0  0
  184.8080  178.6330  141.2620 C   0  0  0  0  0  0  0  0  0  0  0  0
  186.0550  178.3550  139.1080 C   0  0  0  0  0  0  0  0  0  0  0  0
  188.8440  178.0230  135.3760 C   0  0  0  0  0  3  0  0  0  0  0  0
  189.3830  176.6730  145.3520 C   0  0  1  0  0  3  0  0  0  0  0  0
  187.1520  177.8100  143.9760 N   0  0  2  0  0  0  0  0  0  0  0  0
  189.4240  177.9000  136.7160 N   0  0  0  0  0  0  0  0  0  0  0  0
  189.5630  177.3310  143.9720 C   0  0  0  0  0  2  0  0  0  0  0  0
  189.3500  177.7010  146.4630 C   0  0  2  0  0  3  0  0  0  0  0  0
  183.5550  178.3480  139.1990 C   0  0  0  0  0  3  0  0  0  0  0  0
  184.7860  178.4550  139.8640 C   0  0  0  0  0  0  0  0  0  0  0  0
  186.0300  178.3920  137.7420 N   0  0  0  0  0  0  0  0  0  0  0  0
  188.5610  178.4760  142.0140 C   0  0  0  0  0  2  0  0  0  0  0  0
  189.7010  177.7170  139.6190 O   0  0  0  0  0  1  0  0  0  0  0  0
  186.5670  177.0820  134.9620 C   0  0  0  0  0  1  0  0  0  0  0  0
  187.2930  178.1900  139.8000 C   0  0  0  0  0  0  0  0  0  0  0  0
  187.1780  178.2570  137.0340 C   0  0  0  0  0  0  0  0  0  0  0  0
  189.9150  177.1210  147.6700 N   0  0  0  0  0  2  0  0  0  0  0  0
  191.3390  176.9470  147.4390 C   0  0  2  0  0  3  0  0  0  0  0  0
  191.6550  175.4680  147.3410 C   0  0  0  0  0  1  0  0  0  0  0  0
  192.0580  177.5040  148.4980 O   0  0  0  0  0  1  0  0  0  0  0  0
  1 10  1  6  0  0  0
  1 20  1  0  0  0  0
  2 12  1  0  0  0  0
  2 24  1  1  0  0  0
  3 11  1  0  0  0  0
  4  3  2  0  0  0  0
  5 25  1  0  0  0  0
  5 27  1  0  0  0  0
  6  5  2  0  0  0  0
  7 24  1  6  0  0  0
  7 19  1  0  0  0  0
  7 17  1  0  0  0  0
  9 26  1  6  0  0  0
  9 28  1  0  0  0  0
 12  8  1  1  0  0  0
 13 12  1  0  0  0  0
 13 11  2  0  0  0  0
 14 27  2  0  0  0  0
 14 22  1  0  0  0  0
 15  9  1  0  0  0  0
 15 18  2  0  0  0  0
 16 19  1  6  0  0  0
 16  1  1  0  0  0  0
 16 20  1  0  0  0  0
 17  8  1  6  0  0  0
 17 10  1  0  0  0  0
 18  6  1  0  0  0  0
 20 29  1  1  0  0  0
 21 22  2  0  0  0  0
 21  4  1  0  0  0  0
 22 13  1  0  0  0  0
 23 14  1  0  0  0  0
 27  2  1  0  0  0  0
 28  6  1  0  0  0  0
 28 23  2  0  0  0  0
 30 31  1  1  0  0  0
 30 29  1  0  0  0  0
 30 32  1  0  0  0  0
M  END
>  <MODEL>
8

>  <REMARK>
 VINA RESULT:      -8.3      3.102      8.322
  Name = 
  2 active torsions:
  status: ('A' for Active; 'I' for Inactive)
    1  A    between atoms: C_1  and  N_10
    2  A    between atoms: N_10  and  C_24
                            x       y       z     vdW  Elec       q    Type
                         _______ _______ _______ _____ _____    ______ ____

>  <TORSDO>
F 2

$$$$
=
 OpenBabel11052416453D

 32 38  0  0  1  0  0  0  0  0999 V2000
  186.3980  177.4950  145.7630 C   0  0  1  0  0  3  0  0  0  0  0  0
  186.6000  178.1080  140.8320 C   0  0  2  0  0  3  0  0  0  0  0  0
  181.8300  178.7290  139.7700 C   0  0  0  0  0  3  0  0  0  0  0  0
  182.0790  178.3950  138.4380 C   0  0  0  0  0  3  0  0  0  0  0  0
  188.2290  177.8010  138.8560 C   0  0  0  0  0  0  0  0  0  0  0  0
  188.4120  177.7270  137.4780 C   0  0  0  0  0  0  0  0  0  0  0  0
  187.3360  178.5680  143.2180 C   0  0  1  0  0  3  0  0  0  0  0  0
  185.0310  178.9730  142.6420 C   0  0  0  0  0  2  0  0  0  0  0  0
  187.8100  177.7190  135.2150 C   0  0  1  0  0  3  0  0  0  0  0  0
  185.6340  178.4210  144.8180 C   0  0  0  0  0  2  0  0  0  0  0  0
  182.8940  178.8940  140.6590 C   0  0  0  0  0  3  0  0  0  0  0  0
  185.3830  178.9920  141.1410 C   0  0  2  0  0  3  0  0  0  0  0  0
  184.2170  178.7080  140.2280 C   0  0  0  0  0  0  0  0  0  0  0  0
  185.8600  178.1980  138.4080 C   0  0  0  0  0  0  0  0  0  0  0  0
  189.3250  177.4550  135.3650 C   0  0  0  0  0  3  0  0  0  0  0  0
  187.8210  177.1200  145.3280 C   0  0  1  0  0  3  0  0  0  0  0  0
  185.9460  178.1370  143.4270 N   0  0  2  0  0  0  0  0  0  0  0  0
  189.6210  177.4630  136.8000 N   0  0  0  0  0  0  0  0  0  0  0  0
  188.2930  177.6310  143.9560 C   0  0  0  0  0  2  0  0  0  0  0  0
  187.5990  178.2550  146.3040 C   0  0  2  0  0  3  0  0  0  0  0  0
  183.3930  178.2290  137.9930 C   0  0  0  0  0  3  0  0  0  0  0  0
  184.4690  178.3890  138.8790 C   0  0  0  0  0  0  0  0  0  0  0  0
  186.1080  178.0960  137.0680 N   0  0  0  0  0  0  0  0  0  0  0  0
  187.7380  178.5830  141.7330 C   0  0  0  0  0  2  0  0  0  0  0  0
  189.3080  177.5730  139.7030 O   0  0  0  0  0  1  0  0  0  0  0  0
  187.1470  176.5040  134.5940 C   0  0  0  0  0  1  0  0  0  0  0  0
  186.9280  178.0890  139.3480 C   0  0  0  0  0  0  0  0  0  0  0  0
  187.3700  177.8760  136.6230 C   0  0  0  0  0  0  0  0  0  0  0  0
  187.8930  177.7940  147.6510 N   0  0  0  0  0  2  0  0  0  0  0  0
  189.3090  178.0260  147.8860 C   0  0  2  0  0  3  0  0  0  0  0  0
  190.0820  176.7580  147.5850 C   0  0  0  0  0  1  0  0  0  0  0  0
  189.5100  178.3850  149.2200 O   0  0  0  0  0  1  0  0  0  0  0  0
  1 10  1  6  0  0  0
  1 20  1  0  0  0  0
  2 12  1  0  0  0  0
  2 24  1  1  0  0  0
  3 11  1  0  0  0  0
  4  3  2  0  0  0  0
  5 27  1  0  0  0  0
  5 25  1  0  0  0  0
  6  5  2  0  0  0  0
  7 24  1  6  0  0  0
  7 17  1  0  0  0  0
  7 19  1  0  0  0  0
  9 26  1  1  0  0  0
  9 15  1  0  0  0  0
  9 28  1  0  0  0  0
 12  8  1  1  0  0  0
 13 11  2  0  0  0  0
 13 12  1  0  0  0  0
 14 22  1  0  0  0  0
 14 27  2  0  0  0  0
 15 18  2  0  0  0  0
 16 19  1  6  0  0  0
 16  1  1  0  0  0  0
 16 20  1  0  0  0  0
 17  8  1  6  0  0  0
 17 10  1  0  0  0  0
 18  6  1  0  0  0  0
 20 29  1  1  0  0  0
 21  4  1  0  0  0  0
 21 22  2  0  0  0  0
 22 13  1  0  0  0  0
 23 14  1  0  0  0  0
 27  2  1  0  0  0  0
 28 23  2  0  0  0  0
 28  6  1  0  0  0  0
 29 30  1  0  0  0  0
 30 31  1  1  0  0  0
 30 32  1  0  0  0  0
M  END
>  <MODEL>
9

>  <REMARK>
 VINA RESULT:      -7.8      3.302      8.903
  Name = 
  2 active torsions:
  status: ('A' for Active; 'I' for Inactive)
    1  A    between atoms: C_1  and  N_10
    2  A    between atoms: N_10  and  C_24
                            x       y       z     vdW  Elec       q    Type
                         _______ _______ _______ _____ _____    ______ ____

>  <TORSDO>
F 2

$$$$
