=
 OpenBabel11052412423D

 25 28  0  0  1  0  0  0  0  0999 V2000
  186.3460  178.9340  142.1670 C   0  0  2  0  0  3  0  0  0  0  0  0
  185.5780  178.8620  143.4360 C   0  0  0  0  0  0  0  0  0  0  0  0
  184.0030  179.0510  141.7740 N   0  0  0  0  0  0  0  0  0  0  0  0
  183.3260  178.8360  144.2020 C   0  0  0  0  0  0  0  0  0  0  0  0
  181.7150  178.8880  143.9260 S   0  0  0  0  0  0  0  0  0  0  0  0
  186.0460  178.7340  144.7020 N   0  0  0  0  0  0  0  0  0  0  0  0
  185.1720  179.0830  141.2050 C   0  0  0  0  0  0  0  0  0  0  0  0
  183.8010  178.7090  145.4740 N   0  0  0  0  0  2  0  0  0  0  0  0
  185.1470  178.6650  145.7280 C   0  0  0  0  0  0  0  0  0  0  0  0
  184.2470  178.9110  143.1630 C   0  0  0  0  0  0  0  0  0  0  0  0
  187.1540  177.6380  141.9760 C   0  0  2  0  0  3  0  0  0  0  0  0
  190.3090  176.2790  141.2710 O   0  0  0  0  0  1  0  0  0  0  0  0
  187.4440  176.9460  143.2900 C   0  0  0  0  0  2  0  0  0  0  0  0
  188.7610  176.2350  143.0790 C   0  0  0  0  0  2  0  0  0  0  0  0
  189.5250  177.0890  142.0900 C   0  0  2  0  0  3  0  0  0  0  0  0
  188.4870  177.8170  141.2570 C   0  0  0  0  0  2  0  0  0  0  0  0
  185.2940  179.2740  139.8300 O   0  0  0  0  0  0  0  0  0  0  0  0
  184.5330  180.1640  139.1820 O   0  0  0  0  0  1  0  0  0  0  0  0
  185.6310  178.4950  147.1250 C   0  0  0  0  0  2  0  0  0  0  0  0
  187.1340  178.6800  147.1750 C   0  0  2  0  0  3  0  0  0  0  0  0
  187.7840  177.3710  147.2110 C   0  0  2  0  0  3  0  0  0  0  0  0
  187.6460  178.1580  148.4490 N   0  0  0  0  0  2  0  0  0  0  0  0
  189.1890  177.4690  146.7030 C   0  0  0  0  0  0  0  0  0  0  0  0
  190.2660  176.6170  147.2860 C   0  0  0  0  0  1  0  0  0  0  0  0
  189.4700  178.2790  145.8340 O   0  0  0  0  0  0  0  0  0  0  0  0
  1  7  1  6  0  0  0
  1  2  1  0  0  0  0
  2  6  1  0  0  0  0
  3 10  1  0  0  0  0
  4  8  1  0  0  0  0
  5  4  2  0  0  0  0
  6  9  2  0  0  0  0
  7  3  2  0  0  0  0
  8  9  1  0  0  0  0
  9 19  1  0  0  0  0
 10  2  2  0  0  0  0
 10  4  1  0  0  0  0
 11 16  1  1  0  0  0
 11  1  1  0  0  0  0
 11 13  1  0  0  0  0
 14 13  1  0  0  0  0
 15 12  1  6  0  0  0
 15 14  1  0  0  0  0
 16 15  1  0  0  0  0
 17  7  1  0  0  0  0
 18 17  1  0  0  0  0
 20 19  1  1  0  0  0
 20 21  1  0  0  0  0
 20 22  1  0  0  0  0
 21 23  1  6  0  0  0
 21 22  1  0  0  0  0
 23 24  1  0  0  0  0
 25 23  2  0  0  0  0
M  END
>  <MODEL>
1

>  <REMARK>
 VINA RESULT:      -8.2      0.000      0.000
  Name = 
  5 active torsions:
  status: ('A' for Active; 'I' for Inactive)
    1  A    between atoms: C_1  and  C_5
    2  A    between atoms: C_2  and  C_21
    3  A    between atoms: O_4  and  C_18
    4  A    between atoms: C_6  and  C_15
    5  A    between atoms: C_6  and  C_23
                            x       y       z     vdW  Elec       q    Type
                         _______ _______ _______ _____ _____    ______ ____

>  <TORSDO>
F 5

$$$$
=
 OpenBabel11052412423D

 25 28  0  0  1  0  0  0  0  0999 V2000
  187.9200  178.2760  144.7720 C   0  0  2  0  0  3  0  0  0  0  0  0
  188.8550  177.7410  143.7510 C   0  0  0  0  0  0  0  0  0  0  0  0
  189.5320  176.8230  145.7450 N   0  0  0  0  0  0  0  0  0  0  0  0
  190.7090  176.2590  143.5770 C   0  0  0  0  0  0  0  0  0  0  0  0
  191.7980  175.2390  144.2450 S   0  0  0  0  0  0  0  0  0  0  0  0
  188.8730  177.9720  142.4150 N   0  0  0  0  0  0  0  0  0  0  0  0
  188.5230  177.6020  146.0000 C   0  0  0  0  0  0  0  0  0  0  0  0
  190.7230  176.4970  142.2340 N   0  0  0  0  0  2  0  0  0  0  0  0
  189.8210  177.3500  141.6540 C   0  0  0  0  0  0  0  0  0  0  0  0
  189.7440  176.9010  144.3460 C   0  0  0  0  0  0  0  0  0  0  0  0
  186.4850  177.8230  144.4480 C   0  0  2  0  0  3  0  0  0  0  0  0
  183.0790  178.6200  144.6950 O   0  0  0  0  0  1  0  0  0  0  0  0
  186.1460  177.9960  142.9840 C   0  0  0  0  0  2  0  0  0  0  0  0
  184.6590  178.2600  142.9500 C   0  0  0  0  0  2  0  0  0  0  0  0
  184.3500  178.9770  144.2470 C   0  0  2  0  0  3  0  0  0  0  0  0
  185.3960  178.5290  145.2490 C   0  0  0  0  0  2  0  0  0  0  0  0
  188.0870  177.8020  147.3080 O   0  0  0  0  0  0  0  0  0  0  0  0
  188.9440  178.1100  148.2880 O   0  0  0  0  0  1  0  0  0  0  0  0
  189.8460  177.5630  140.1820 C   0  0  0  0  0  2  0  0  0  0  0  0
  188.6090  178.3270  139.7510 C   0  0  2  0  0  3  0  0  0  0  0  0
  188.1040  177.7680  138.4990 C   0  0  2  0  0  3  0  0  0  0  0  0
  188.8810  179.0190  138.4850 N   0  0  0  0  0  2  0  0  0  0  0  0
  186.6470  178.0750  138.3380 C   0  0  0  0  0  0  0  0  0  0  0  0
  185.9360  177.7310  137.0720 C   0  0  0  0  0  1  0  0  0  0  0  0
  186.0410  178.6480  139.2290 O   0  0  0  0  0  0  0  0  0  0  0  0
  1  2  1  6  0  0  0
  1  7  1  0  0  0  0
  2 10  2  0  0  0  0
  3  7  2  0  0  0  0
  4  5  2  0  0  0  0
  4 10  1  0  0  0  0
  6  2  1  0  0  0  0
  7 17  1  0  0  0  0
  8  4  1  0  0  0  0
  9  8  1  0  0  0  0
  9  6  2  0  0  0  0
 10  3  1  0  0  0  0
 11 13  1  6  0  0  0
 11  1  1  0  0  0  0
 11 16  1  0  0  0  0
 14 13  1  0  0  0  0
 14 15  1  0  0  0  0
 15 12  1  1  0  0  0
 15 16  1  0  0  0  0
 17 18  1  0  0  0  0
 19  9  1  0  0  0  0
 20 19  1  6  0  0  0
 21 23  1  1  0  0  0
 21 20  1  0  0  0  0
 22 21  1  0  0  0  0
 22 20  1  0  0  0  0
 23 25  2  0  0  0  0
 24 23  1  0  0  0  0
M  END
>  <MODEL>
2

>  <REMARK>
 VINA RESULT:      -8.0      3.555      7.297
  Name = 
  5 active torsions:
  status: ('A' for Active; 'I' for Inactive)
    1  A    between atoms: C_1  and  C_5
    2  A    between atoms: C_2  and  C_21
    3  A    between atoms: O_4  and  C_18
    4  A    between atoms: C_6  and  C_15
    5  A    between atoms: C_6  and  C_23
                            x       y       z     vdW  Elec       q    Type
                         _______ _______ _______ _____ _____    ______ ____

>  <TORSDO>
F 5

$$$$
=
 OpenBabel11052412423D

 25 28  0  0  1  0  0  0  0  0999 V2000
  189.6510  178.3090  144.3590 C   0  0  2  0  0  3  0  0  0  0  0  0
  189.1810  178.1350  142.9620 C   0  0  0  0  0  0  0  0  0  0  0  0
  191.3410  177.3530  142.9860 N   0  0  0  0  0  0  0  0  0  0  0  0
  189.9480  177.2870  140.8750 C   0  0  0  0  0  0  0  0  0  0  0  0
  191.1030  176.6050  139.9400 S   0  0  0  0  0  0  0  0  0  0  0  0
  187.9700  178.4350  142.4330 N   0  0  0  0  0  0  0  0  0  0  0  0
  191.0700  177.7790  144.1840 C   0  0  0  0  0  0  0  0  0  0  0  0
  188.7280  177.5930  140.3470 N   0  0  0  0  0  2  0  0  0  0  0  0
  187.7470  178.1680  141.1110 C   0  0  0  0  0  0  0  0  0  0  0  0
  190.1690  177.5680  142.2190 C   0  0  0  0  0  0  0  0  0  0  0  0
  188.7780  177.4660  145.3070 C   0  0  2  0  0  3  0  0  0  0  0  0
  187.5860  177.1120  148.5860 O   0  0  0  0  0  1  0  0  0  0  0  0
  187.3000  177.6920  145.0780 C   0  0  0  0  0  2  0  0  0  0  0  0
  186.6530  177.4740  146.4260 C   0  0  0  0  0  2  0  0  0  0  0  0
  187.6900  177.9010  147.4430 C   0  0  2  0  0  3  0  0  0  0  0  0
  189.0440  177.6940  146.7920 C   0  0  0  0  0  2  0  0  0  0  0  0
  192.0400  177.7660  145.1850 O   0  0  0  0  0  0  0  0  0  0  0  0
  192.0930  176.7820  146.0890 O   0  0  0  0  0  1  0  0  0  0  0  0
  186.4180  178.4610  140.5110 C   0  0  0  0  0  2  0  0  0  0  0  0
  185.6040  179.3210  141.4570 C   0  0  2  0  0  3  0  0  0  0  0  0
  184.6120  178.4920  142.1370 C   0  0  2  0  0  3  0  0  0  0  0  0
  184.2060  179.3470  141.0090 N   0  0  0  0  0  2  0  0  0  0  0  0
  184.1950  179.1260  143.4290 C   0  0  0  0  0  0  0  0  0  0  0  0
  182.9270  178.7160  144.0990 C   0  0  0  0  0  1  0  0  0  0  0  0
  184.8740  180.0140  143.9210 O   0  0  0  0  0  0  0  0  0  0  0  0
  1  2  1  6  0  0  0
  1 11  1  0  0  0  0
  3  7  2  0  0  0  0
  4 10  1  0  0  0  0
  5  4  2  0  0  0  0
  6  2  1  0  0  0  0
  7  1  1  0  0  0  0
  7 17  1  0  0  0  0
  8  4  1  0  0  0  0
  8  9  1  0  0  0  0
  9  6  2  0  0  0  0
 10  2  2  0  0  0  0
 10  3  1  0  0  0  0
 11 13  1  1  0  0  0
 11 16  1  0  0  0  0
 13 14  1  0  0  0  0
 14 15  1  0  0  0  0
 15 12  1  1  0  0  0
 16 15  1  0  0  0  0
 17 18  1  0  0  0  0
 19  9  1  0  0  0  0
 20 19  1  6  0  0  0
 20 21  1  0  0  0  0
 21 23  1  1  0  0  0
 22 20  1  0  0  0  0
 22 21  1  0  0  0  0
 23 25  2  0  0  0  0
 23 24  1  0  0  0  0
M  END
>  <MODEL>
3

>  <REMARK>
 VINA RESULT:      -8.0      3.279      6.632
  Name = 
  5 active torsions:
  status: ('A' for Active; 'I' for Inactive)
    1  A    between atoms: C_1  and  C_5
    2  A    between atoms: C_2  and  C_21
    3  A    between atoms: O_4  and  C_18
    4  A    between atoms: C_6  and  C_15
    5  A    between atoms: C_6  and  C_23
                            x       y       z     vdW  Elec       q    Type
                         _______ _______ _______ _____ _____    ______ ____

>  <TORSDO>
F 5

$$$$
=
 OpenBabel11052412423D

 25 28  0  0  1  0  0  0  0  0999 V2000
  189.2500  176.5490  143.3190 C   0  0  2  0  0  3  0  0  0  0  0  0
  188.3600  177.1360  144.3530 C   0  0  0  0  0  0  0  0  0  0  0  0
  190.3690  176.7700  145.4060 N   0  0  0  0  0  0  0  0  0  0  0  0
  188.4180  177.8140  146.6330 C   0  0  0  0  0  0  0  0  0  0  0  0
  189.1980  177.9910  148.0590 S   0  0  0  0  0  0  0  0  0  0  0  0
  187.0720  177.5380  144.2300 N   0  0  0  0  0  0  0  0  0  0  0  0
  190.4920  176.3510  144.1820 C   0  0  0  0  0  0  0  0  0  0  0  0
  187.1200  178.2160  146.5050 N   0  0  0  0  0  2  0  0  0  0  0  0
  186.4470  178.0760  145.3200 C   0  0  0  0  0  0  0  0  0  0  0  0
  189.0450  177.2630  145.5210 C   0  0  0  0  0  0  0  0  0  0  0  0
  189.4390  177.5530  142.1680 C   0  0  2  0  0  3  0  0  0  0  0  0
  190.2250  177.9410  138.7730 O   0  0  0  0  0  1  0  0  0  0  0  0
  188.1200  178.0840  141.6490 C   0  0  0  0  0  2  0  0  0  0  0  0
  188.3610  178.3800  140.1870 C   0  0  0  0  0  2  0  0  0  0  0  0
  189.3980  177.3720  139.7390 C   0  0  2  0  0  3  0  0  0  0  0  0
  190.2100  177.0130  140.9680 C   0  0  0  0  0  2  0  0  0  0  0  0
  191.6700  175.7450  143.7480 O   0  0  0  0  0  0  0  0  0  0  0  0
  192.2060  174.7130  144.4110 O   0  0  0  0  0  1  0  0  0  0  0  0
  185.0420  178.5530  145.2070 C   0  0  0  0  0  2  0  0  0  0  0  0
  184.4900  178.2090  143.8370 C   0  0  2  0  0  3  0  0  0  0  0  0
  184.5350  179.3940  142.9840 C   0  0  2  0  0  3  0  0  0  0  0  0
  183.2630  178.9800  143.6000 N   0  0  0  0  0  2  0  0  0  0  0  0
  184.5490  179.0000  141.5390 C   0  0  0  0  0  0  0  0  0  0  0  0
  183.8620  177.7560  141.0860 C   0  0  0  0  0  1  0  0  0  0  0  0
  185.1610  179.6770  140.7270 O   0  0  0  0  0  0  0  0  0  0  0  0
  1  7  1  1  0  0  0
  1  2  1  0  0  0  0
  2 10  2  0  0  0  0
  3 10  1  0  0  0  0
  4  5  2  0  0  0  0
  6  2  1  0  0  0  0
  6  9  2  0  0  0  0
  7  3  2  0  0  0  0
  8  4  1  0  0  0  0
  9  8  1  0  0  0  0
 10  4  1  0  0  0  0
 11 16  1  6  0  0  0
 11  1  1  0  0  0  0
 13 11  1  0  0  0  0
 14 13  1  0  0  0  0
 15 12  1  6  0  0  0
 15 14  1  0  0  0  0
 15 16  1  0  0  0  0
 17  7  1  0  0  0  0
 17 18  1  0  0  0  0
 19  9  1  0  0  0  0
 20 19  1  1  0  0  0
 21 23  1  6  0  0  0
 21 22  1  0  0  0  0
 21 20  1  0  0  0  0
 22 20  1  0  0  0  0
 24 23  1  0  0  0  0
 25 23  2  0  0  0  0
M  END
>  <MODEL>
4

>  <REMARK>
 VINA RESULT:      -7.9      2.538      5.613
  Name = 
  5 active torsions:
  status: ('A' for Active; 'I' for Inactive)
    1  A    between atoms: C_1  and  C_5
    2  A    between atoms: C_2  and  C_21
    3  A    between atoms: O_4  and  C_18
    4  A    between atoms: C_6  and  C_15
    5  A    between atoms: C_6  and  C_23
                            x       y       z     vdW  Elec       q    Type
                         _______ _______ _______ _____ _____    ______ ____

>  <TORSDO>
F 5

$$$$
=
 OpenBabel11052412423D

 25 28  0  0  1  0  0  0  0  0999 V2000
  188.1740  178.6110  141.1270 C   0  0  2  0  0  3  0  0  0  0  0  0
  186.7930  178.6410  141.6710 C   0  0  0  0  0  0  0  0  0  0  0  0
  186.5540  178.5860  139.3870 N   0  0  0  0  0  0  0  0  0  0  0  0
  184.5370  178.5990  140.9140 C   0  0  0  0  0  0  0  0  0  0  0  0
  183.4260  178.5540  139.7160 S   0  0  0  0  0  0  0  0  0  0  0  0
  186.3930  178.6670  142.9660 N   0  0  0  0  0  0  0  0  0  0  0  0
  187.8290  178.6080  139.6420 C   0  0  0  0  0  0  0  0  0  0  0  0
  184.1410  178.6270  142.2190 N   0  0  0  0  0  2  0  0  0  0  0  0
  185.0550  178.6680  143.2390 C   0  0  0  0  0  0  0  0  0  0  0  0
  185.9020  178.6040  140.6440 C   0  0  0  0  0  0  0  0  0  0  0  0
  188.8930  177.3380  141.6090 C   0  0  2  0  0  3  0  0  0  0  0  0
  191.6710  176.0640  143.3280 O   0  0  0  0  0  1  0  0  0  0  0  0
  188.2020  176.7040  142.7960 C   0  0  0  0  0  2  0  0  0  0  0  0
  189.3040  176.0320  143.5820 C   0  0  0  0  0  2  0  0  0  0  0  0
  190.5390  176.8760  143.3440 C   0  0  2  0  0  3  0  0  0  0  0  0
  190.3560  177.5360  141.9910 C   0  0  0  0  0  2  0  0  0  0  0  0
  188.7650  178.6580  138.6110 O   0  0  0  0  0  0  0  0  0  0  0  0
  188.5670  179.4200  137.5290 O   0  0  0  0  0  1  0  0  0  0  0  0
  184.5870  178.6670  144.6510 C   0  0  0  0  0  2  0  0  0  0  0  0
  185.7430  178.9960  145.5760 C   0  0  2  0  0  3  0  0  0  0  0  0
  186.0590  177.8270  146.3930 C   0  0  2  0  0  3  0  0  0  0  0  0
  185.2820  178.9380  146.9690 N   0  0  0  0  0  2  0  0  0  0  0  0
  187.4740  177.8940  146.8790 C   0  0  0  0  0  0  0  0  0  0  0  0
  187.7850  177.7420  148.3300 C   0  0  0  0  0  1  0  0  0  0  0  0
  188.3810  178.1140  146.0910 O   0  0  0  0  0  0  0  0  0  0  0  0
  1  7  1  6  0  0  0
  1 11  1  0  0  0  0
  1  2  1  0  0  0  0
  2  6  1  0  0  0  0
  3  7  2  0  0  0  0
  3 10  1  0  0  0  0
  4  8  1  0  0  0  0
  5  4  2  0  0  0  0
  6  9  2  0  0  0  0
  8  9  1  0  0  0  0
  9 19  1  0  0  0  0
 10  4  1  0  0  0  0
 10  2  2  0  0  0  0
 11 16  1  1  0  0  0
 11 13  1  0  0  0  0
 13 14  1  0  0  0  0
 15 12  1  6  0  0  0
 15 14  1  0  0  0  0
 16 15  1  0  0  0  0
 17  7  1  0  0  0  0
 18 17  1  0  0  0  0
 20 19  1  6  0  0  0
 20 21  1  0  0  0  0
 20 22  1  0  0  0  0
 21 23  1  1  0  0  0
 21 22  1  0  0  0  0
 23 24  1  0  0  0  0
 25 23  2  0  0  0  0
M  END
>  <MODEL>
5

>  <REMARK>
 VINA RESULT:      -7.9      2.007      2.696
  Name = 
  5 active torsions:
  status: ('A' for Active; 'I' for Inactive)
    1  A    between atoms: C_1  and  C_5
    2  A    between atoms: C_2  and  C_21
    3  A    between atoms: O_4  and  C_18
    4  A    between atoms: C_6  and  C_15
    5  A    between atoms: C_6  and  C_23
                            x       y       z     vdW  Elec       q    Type
                         _______ _______ _______ _____ _____    ______ ____

>  <TORSDO>
F 5

$$$$
=
 OpenBabel11052412423D

 25 28  0  0  1  0  0  0  0  0999 V2000
  189.4650  178.2000  142.7810 C   0  0  2  0  0  3  0  0  0  0  0  0
  188.9910  177.9890  141.3900 C   0  0  0  0  0  0  0  0  0  0  0  0
  191.1280  177.1500  141.4440 N   0  0  0  0  0  0  0  0  0  0  0  0
  189.7340  177.0460  139.3360 C   0  0  0  0  0  0  0  0  0  0  0  0
  190.8690  176.2990  138.4270 S   0  0  0  0  0  0  0  0  0  0  0  0
  187.7880  178.3030  140.8490 N   0  0  0  0  0  0  0  0  0  0  0  0
  190.8700  177.6270  142.6260 C   0  0  0  0  0  0  0  0  0  0  0  0
  188.5220  177.3660  138.7960 N   0  0  0  0  0  2  0  0  0  0  0  0
  187.5580  177.9940  139.5390 C   0  0  0  0  0  0  0  0  0  0  0  0
  189.9630  177.3690  140.6690 C   0  0  0  0  0  0  0  0  0  0  0  0
  188.5700  177.4170  143.7580 C   0  0  2  0  0  3  0  0  0  0  0  0
  187.3750  177.2090  147.0480 O   0  0  0  0  0  1  0  0  0  0  0  0
  187.0990  177.6780  143.5220 C   0  0  0  0  0  2  0  0  0  0  0  0
  186.4480  177.5250  144.8780 C   0  0  0  0  0  2  0  0  0  0  0  0
  187.5000  177.9560  145.8780 C   0  0  2  0  0  3  0  0  0  0  0  0
  188.8460  177.6870  145.2330 C   0  0  0  0  0  2  0  0  0  0  0  0
  191.8390  177.6240  143.6270 O   0  0  0  0  0  0  0  0  0  0  0  0
  192.1350  178.7350  144.3120 O   0  0  0  0  0  1  0  0  0  0  0  0
  186.2360  178.3000  138.9270 C   0  0  0  0  0  2  0  0  0  0  0  0
  185.3150  178.9060  139.9680 C   0  0  2  0  0  3  0  0  0  0  0  0
  183.9320  178.5500  139.6590 C   0  0  2  0  0  3  0  0  0  0  0  0
  184.4380  179.8920  139.3250 N   0  0  0  0  0  2  0  0  0  0  0  0
  183.0850  178.6210  140.8920 C   0  0  0  0  0  0  0  0  0  0  0  0
  183.7030  178.4980  142.2440 C   0  0  0  0  0  1  0  0  0  0  0  0
  181.8730  178.7390  140.7950 O   0  0  0  0  0  0  0  0  0  0  0  0
  1  2  1  6  0  0  0
  1 11  1  0  0  0  0
  3  7  2  0  0  0  0
  4 10  1  0  0  0  0
  5  4  2  0  0  0  0
  6  2  1  0  0  0  0
  7  1  1  0  0  0  0
  7 17  1  0  0  0  0
  8  4  1  0  0  0  0
  8  9  1  0  0  0  0
  9  6  2  0  0  0  0
 10  2  2  0  0  0  0
 10  3  1  0  0  0  0
 11 13  1  6  0  0  0
 11 16  1  0  0  0  0
 13 14  1  0  0  0  0
 14 15  1  0  0  0  0
 15 12  1  1  0  0  0
 16 15  1  0  0  0  0
 17 18  1  0  0  0  0
 19  9  1  0  0  0  0
 20 19  1  6  0  0  0
 21 20  1  0  0  0  0
 21 23  1  1  0  0  0
 22 21  1  0  0  0  0
 22 20  1  0  0  0  0
 23 24  1  0  0  0  0
 25 23  2  0  0  0  0
M  END
>  <MODEL>
6

>  <REMARK>
 VINA RESULT:      -7.8      3.617      7.044
  Name = 
  5 active torsions:
  status: ('A' for Active; 'I' for Inactive)
    1  A    between atoms: C_1  and  C_5
    2  A    between atoms: C_2  and  C_21
    3  A    between atoms: O_4  and  C_18
    4  A    between atoms: C_6  and  C_15
    5  A    between atoms: C_6  and  C_23
                            x       y       z     vdW  Elec       q    Type
                         _______ _______ _______ _____ _____    ______ ____

>  <TORSDO>
F 5

$$$$
=
 OpenBabel11052412423D

 25 28  0  0  1  0  0  0  0  0999 V2000
  188.1630  176.9030  143.8580 C   0  0  2  0  0  3  0  0  0  0  0  0
  188.0070  177.4140  142.4730 C   0  0  0  0  0  0  0  0  0  0  0  0
  186.0410  177.9290  143.5440 N   0  0  0  0  0  0  0  0  0  0  0  0
  186.4290  178.5870  141.1320 C   0  0  0  0  0  0  0  0  0  0  0  0
  184.9810  179.3160  140.9270 S   0  0  0  0  0  0  0  0  0  0  0  0
  188.8940  177.3680  141.4490 N   0  0  0  0  0  0  0  0  0  0  0  0
  186.7910  177.2950  144.3960 C   0  0  0  0  0  0  0  0  0  0  0  0
  187.3250  178.5360  140.1040 N   0  0  0  0  0  2  0  0  0  0  0  0
  188.5430  177.9280  140.2530 C   0  0  0  0  0  0  0  0  0  0  0  0
  186.7910  178.0100  142.3450 C   0  0  0  0  0  0  0  0  0  0  0  0
  189.3370  177.6210  144.5470 C   0  0  2  0  0  3  0  0  0  0  0  0
  191.8410  177.3770  146.9890 O   0  0  0  0  0  1  0  0  0  0  0  0
  190.5690  177.6760  143.6700 C   0  0  0  0  0  2  0  0  0  0  0  0
  191.7370  177.6680  144.6290 C   0  0  0  0  0  2  0  0  0  0  0  0
  191.2680  176.8680  145.8260 C   0  0  2  0  0  3  0  0  0  0  0  0
  189.7600  177.0180  145.8820 C   0  0  0  0  0  2  0  0  0  0  0  0
  186.3230  176.9900  145.6730 O   0  0  0  0  0  0  0  0  0  0  0  0
  186.3020  177.9120  146.6430 O   0  0  0  0  0  1  0  0  0  0  0  0
  189.5080  177.9170  139.1200 C   0  0  0  0  0  2  0  0  0  0  0  0
  190.7450  177.1300  139.5050 C   0  0  2  0  0  3  0  0  0  0  0  0
  191.4940  176.7810  138.2990 C   0  0  2  0  0  3  0  0  0  0  0  0
  190.6470  175.7720  138.9570 N   0  0  0  0  0  2  0  0  0  0  0  0
  192.9320  176.5290  138.6300 C   0  0  0  0  0  0  0  0  0  0  0  0
  193.7110  175.4980  137.8830 C   0  0  0  0  0  1  0  0  0  0  0  0
  193.4660  177.1390  139.5430 O   0  0  0  0  0  0  0  0  0  0  0  0
  1  2  1  6  0  0  0
  1  7  1  0  0  0  0
  1 11  1  0  0  0  0
  3  7  2  0  0  0  0
  4 10  1  0  0  0  0
  5  4  2  0  0  0  0
  6  2  1  0  0  0  0
  7 17  1  0  0  0  0
  8  9  1  0  0  0  0
  8  4  1  0  0  0  0
  9  6  2  0  0  0  0
 10  2  2  0  0  0  0
 10  3  1  0  0  0  0
 11 13  1  6  0  0  0
 11 16  1  0  0  0  0
 13 14  1  0  0  0  0
 14 15  1  0  0  0  0
 15 16  1  0  0  0  0
 15 12  1  1  0  0  0
 17 18  1  0  0  0  0
 19  9  1  0  0  0  0
 20 19  1  6  0  0  0
 21 23  1  1  0  0  0
 21 22  1  0  0  0  0
 21 20  1  0  0  0  0
 22 20  1  0  0  0  0
 23 25  2  0  0  0  0
 24 23  1  0  0  0  0
M  END
>  <MODEL>
7

>  <REMARK>
 VINA RESULT:      -7.7      3.384      6.329
  Name = 
  5 active torsions:
  status: ('A' for Active; 'I' for Inactive)
    1  A    between atoms: C_1  and  C_5
    2  A    between atoms: C_2  and  C_21
    3  A    between atoms: O_4  and  C_18
    4  A    between atoms: C_6  and  C_15
    5  A    between atoms: C_6  and  C_23
                            x       y       z     vdW  Elec       q    Type
                         _______ _______ _______ _____ _____    ______ ____

>  <TORSDO>
F 5

$$$$
=
 OpenBabel11052412423D

 25 28  0  0  1  0  0  0  0  0999 V2000
  188.0890  176.8740  144.6150 C   0  0  2  0  0  3  0  0  0  0  0  0
  188.0340  177.2650  143.1840 C   0  0  0  0  0  0  0  0  0  0  0  0
  186.1270  178.1280  144.1290 N   0  0  0  0  0  0  0  0  0  0  0  0
  186.6570  178.4930  141.6830 C   0  0  0  0  0  0  0  0  0  0  0  0
  185.3210  179.3790  141.3580 S   0  0  0  0  0  0  0  0  0  0  0  0
  188.9320  177.0060  142.2010 N   0  0  0  0  0  0  0  0  0  0  0  0
  186.7670  177.4890  145.0630 C   0  0  0  0  0  0  0  0  0  0  0  0
  187.5620  178.2290  140.6970 N   0  0  0  0  0  2  0  0  0  0  0  0
  188.6870  177.4870  140.9460 C   0  0  0  0  0  0  0  0  0  0  0  0
  186.9100  177.9950  142.9560 C   0  0  0  0  0  0  0  0  0  0  0  0
  189.3300  177.5000  145.2770 C   0  0  2  0  0  3  0  0  0  0  0  0
  191.5540  177.3350  147.9820 O   0  0  0  0  0  1  0  0  0  0  0  0
  190.6070  177.1460  144.5480 C   0  0  0  0  0  2  0  0  0  0  0  0
  191.6790  177.1320  145.6130 C   0  0  0  0  0  2  0  0  0  0  0  0
  190.9770  176.7010  146.8830 C   0  0  2  0  0  3  0  0  0  0  0  0
  189.5280  177.1280  146.7420 C   0  0  0  0  0  2  0  0  0  0  0  0
  186.2330  177.3720  146.3460 O   0  0  0  0  0  0  0  0  0  0  0  0
  186.0920  178.4400  147.1400 O   0  0  0  0  0  1  0  0  0  0  0  0
  189.6690  177.2430  139.8560 C   0  0  0  0  0  2  0  0  0  0  0  0
  189.3380  178.1160  138.6610 C   0  0  2  0  0  3  0  0  0  0  0  0
  188.5980  177.3310  137.6760 C   0  0  2  0  0  3  0  0  0  0  0  0
  190.0320  177.5980  137.4750 N   0  0  0  0  0  2  0  0  0  0  0  0
  187.7870  178.2280  136.7920 C   0  0  0  0  0  0  0  0  0  0  0  0
  187.2980  177.7470  135.4680 C   0  0  0  0  0  1  0  0  0  0  0  0
  187.5550  179.3770  137.1360 O   0  0  0  0  0  0  0  0  0  0  0  0
  1  2  1  6  0  0  0
  1  7  1  0  0  0  0
  1 11  1  0  0  0  0
  3  7  2  0  0  0  0
  4 10  1  0  0  0  0
  5  4  2  0  0  0  0
  6  2  1  0  0  0  0
  7 17  1  0  0  0  0
  8  9  1  0  0  0  0
  8  4  1  0  0  0  0
  9  6  2  0  0  0  0
 10  2  2  0  0  0  0
 10  3  1  0  0  0  0
 11 13  1  6  0  0  0
 11 16  1  0  0  0  0
 13 14  1  0  0  0  0
 14 15  1  0  0  0  0
 15 12  1  1  0  0  0
 16 15  1  0  0  0  0
 17 18  1  0  0  0  0
 19  9  1  0  0  0  0
 20 19  1  1  0  0  0
 21 23  1  6  0  0  0
 21 20  1  0  0  0  0
 22 21  1  0  0  0  0
 22 20  1  0  0  0  0
 23 25  2  0  0  0  0
 24 23  1  0  0  0  0
M  END
>  <MODEL>
8

>  <REMARK>
 VINA RESULT:      -7.7      3.220      6.784
  Name = 
  5 active torsions:
  status: ('A' for Active; 'I' for Inactive)
    1  A    between atoms: C_1  and  C_5
    2  A    between atoms: C_2  and  C_21
    3  A    between atoms: O_4  and  C_18
    4  A    between atoms: C_6  and  C_15
    5  A    between atoms: C_6  and  C_23
                            x       y       z     vdW  Elec       q    Type
                         _______ _______ _______ _____ _____    ______ ____

>  <TORSDO>
F 5

$$$$
=
 OpenBabel11052412423D

 25 28  0  0  1  0  0  0  0  0999 V2000
  188.0960  178.2510  145.6470 C   0  0  2  0  0  3  0  0  0  0  0  0
  189.3450  177.7620  145.0100 C   0  0  0  0  0  0  0  0  0  0  0  0
  189.3950  176.9560  147.1600 N   0  0  0  0  0  0  0  0  0  0  0  0
  191.2460  176.4250  145.5200 C   0  0  0  0  0  0  0  0  0  0  0  0
  192.1230  175.5120  146.5540 S   0  0  0  0  0  0  0  0  0  0  0  0
  189.7810  177.9570  143.7410 N   0  0  0  0  0  0  0  0  0  0  0  0
  188.3100  177.6610  147.0370 C   0  0  0  0  0  0  0  0  0  0  0  0
  191.6810  176.6260  144.2420 N   0  0  0  0  0  2  0  0  0  0  0  0
  190.9630  177.3890  143.3600 C   0  0  0  0  0  0  0  0  0  0  0  0
  190.0440  177.0110  145.9020 C   0  0  0  0  0  0  0  0  0  0  0  0
  186.8760  177.6790  144.9020 C   0  0  2  0  0  3  0  0  0  0  0  0
  183.5620  178.2580  143.9140 O   0  0  0  0  0  1  0  0  0  0  0  0
  187.0510  177.7220  143.3990 C   0  0  0  0  0  2  0  0  0  0  0  0
  185.6550  177.8810  142.8440 C   0  0  0  0  0  2  0  0  0  0  0  0
  184.8930  178.6680  143.8900 C   0  0  2  0  0  3  0  0  0  0  0  0
  185.5530  178.3650  145.2220 C   0  0  0  0  0  2  0  0  0  0  0  0
  187.4590  177.8630  148.1220 O   0  0  0  0  0  0  0  0  0  0  0  0
  187.9310  178.2520  149.3120 O   0  0  0  0  0  1  0  0  0  0  0  0
  191.4510  177.5630  141.9650 C   0  0  0  0  0  2  0  0  0  0  0  0
  190.5850  176.7620  141.0130 C   0  0  2  0  0  3  0  0  0  0  0  0
  190.5390  177.4340  139.7160 C   0  0  2  0  0  3  0  0  0  0  0  0
  189.4040  177.5540  140.6470 N   0  0  0  0  0  2  0  0  0  0  0  0
  190.2020  176.4570  138.6310 C   0  0  0  0  0  0  0  0  0  0  0  0
  189.3760  176.8790  137.4630 C   0  0  0  0  0  1  0  0  0  0  0  0
  190.5700  175.2960  138.7180 O   0  0  0  0  0  0  0  0  0  0  0  0
  1  2  1  6  0  0  0
  1  7  1  0  0  0  0
  2 10  2  0  0  0  0
  4 10  1  0  0  0  0
  4  5  2  0  0  0  0
  6  2  1  0  0  0  0
  7  3  2  0  0  0  0
  7 17  1  0  0  0  0
  8  4  1  0  0  0  0
  9  6  2  0  0  0  0
  9  8  1  0  0  0  0
 10  3  1  0  0  0  0
 11 13  1  6  0  0  0
 11 16  1  0  0  0  0
 11  1  1  0  0  0  0
 14 13  1  0  0  0  0
 14 15  1  0  0  0  0
 15 12  1  1  0  0  0
 15 16  1  0  0  0  0
 17 18  1  0  0  0  0
 19  9  1  0  0  0  0
 20 19  1  1  0  0  0
 21 23  1  6  0  0  0
 21 22  1  0  0  0  0
 21 20  1  0  0  0  0
 22 20  1  0  0  0  0
 23 25  2  0  0  0  0
 24 23  1  0  0  0  0
M  END
>  <MODEL>
9

>  <REMARK>
 VINA RESULT:      -7.7      3.629      7.210
  Name = 
  5 active torsions:
  status: ('A' for Active; 'I' for Inactive)
    1  A    between atoms: C_1  and  C_5
    2  A    between atoms: C_2  and  C_21
    3  A    between atoms: O_4  and  C_18
    4  A    between atoms: C_6  and  C_15
    5  A    between atoms: C_6  and  C_23
                            x       y       z     vdW  Elec       q    Type
                         _______ _______ _______ _____ _____    ______ ____

>  <TORSDO>
F 5

$$$$
