=
 OpenBabel11052413473D

 27 31  0  0  1  0  0  0  0  0999 V2000
  181.9660  179.1940  138.1790 C   0  0  1  0  0  3  0  0  0  0  0  0
  179.2620  181.9520  139.0980 C   0  0  0  0  0  3  0  0  0  0  0  0
  181.6480  180.4280  139.0240 C   0  0  1  0  0  0  0  0  0  0  0  0
  180.7070  180.3160  140.2000 C   0  0  0  0  0  3  0  0  0  0  0  0
  183.0450  179.8160  139.1080 C   0  0  1  0  0  3  0  0  0  0  0  0
  179.5800  181.0290  140.2070 C   0  0  0  0  0  3  0  0  0  0  0  0
  180.1670  182.2470  138.1570 C   0  0  0  0  0  3  0  0  0  0  0  0
  181.5780  181.7250  138.2190 C   0  0  0  0  0  2  0  0  0  0  0  0
  183.2970  179.0360  140.3250 N   0  0  0  0  0  0  0  0  0  0  0  0
  185.6400  178.8100  140.0630 O   0  0  0  0  0  0  0  0  0  0  0  0
  183.6550  179.1260  145.0610 C   0  0  0  0  0  3  0  0  0  0  0  0
  184.9820  179.0830  145.2040 C   0  0  0  0  0  3  0  0  0  0  0  0
  182.4550  179.0940  141.5210 C   0  0  0  0  0  2  0  0  0  0  0  0
  185.7820  178.1020  143.0190 C   0  0  0  0  0  0  0  0  0  0  0  0
  186.8090  177.4880  142.3820 F   0  0  0  0  0  0  0  0  0  0  0  0
  184.6170  178.5320  142.2170 C   0  0  0  0  0  0  0  0  0  0  0  0
  185.9350  178.3790  144.3210 C   0  0  0  0  0  3  0  0  0  0  0  0
  183.3740  178.7080  142.6430 C   0  0  0  0  0  0  0  0  0  0  0  0
  184.6130  178.7700  140.7920 C   0  0  0  0  0  0  0  0  0  0  0  0
  182.9000  178.3730  144.0150 C   0  0  0  0  0  2  0  0  0  0  0  0
  180.5410  175.0970  139.7060 C   0  0  0  0  0  3  0  0  0  0  0  0
  179.6700  176.1010  140.3810 C   0  0  0  0  0  2  0  0  0  0  0  0
  181.3030  177.9140  138.6390 C   0  0  0  0  0  0  0  0  0  0  0  0
  181.6150  175.4260  138.9870 C   0  0  0  0  0  3  0  0  0  0  0  0
  179.0800  177.0510  139.3950 C   0  0  0  0  0  3  0  0  0  0  0  0
  179.8210  177.8710  138.6500 C   0  0  0  0  0  3  0  0  0  0  0  0
  182.0570  176.8040  138.6910 C   0  0  0  0  0  3  0  0  0  0  0  0
  1 23  1  1  0  0  0
  1  3  1  0  0  0  0
  1  5  1  0  0  0  0
  2  6  1  0  0  0  0
  3  8  1  6  0  0  0
  3  5  1  0  0  0  0
  3  4  1  0  0  0  0
  4  6  2  0  0  0  0
  5  9  1  1  0  0  0
  7  8  1  0  0  0  0
  7  2  2  0  0  0  0
  9 19  1  0  0  0  0
  9 13  1  0  0  0  0
 10 19  2  0  0  0  0
 11 12  2  0  0  0  0
 13 18  1  0  0  0  0
 14 17  2  0  0  0  0
 15 14  1  0  0  0  0
 16 18  2  0  0  0  0
 16 14  1  0  0  0  0
 17 12  1  0  0  0  0
 18 20  1  0  0  0  0
 19 16  1  0  0  0  0
 20 11  1  0  0  0  0
 21 22  1  0  0  0  0
 23 26  1  0  0  0  0
 23 27  2  0  0  0  0
 24 21  2  0  0  0  0
 25 22  1  0  0  0  0
 26 25  2  0  0  0  0
 27 24  1  0  0  0  0
M  END
>  <MODEL>
1

>  <REMARK>
 VINA RESULT:      -7.2      0.000      0.000
  Name = 
  2 active torsions:
  status: ('A' for Active; 'I' for Inactive)
    1  A    between atoms: C_1  and  C_18
    2  A    between atoms: N_2  and  C_15
                            x       y       z     vdW  Elec       q    Type
                         _______ _______ _______ _____ _____    ______ ____

>  <TORSDO>
F 2

$$$$
=
 OpenBabel11052413473D

 27 31  0  0  1  0  0  0  0  0999 V2000
  179.9830  177.5570  138.2250 C   0  0  1  0  0  3  0  0  0  0  0  0
  182.2300  176.4860  135.1320 C   0  0  0  0  0  3  0  0  0  0  0  0
  181.2610  176.8530  137.7670 C   0  0  1  0  0  0  0  0  0  0  0  0
  182.4320  177.6650  137.2640 C   0  0  0  0  0  3  0  0  0  0  0  0
  180.9140  176.8620  139.2550 C   0  0  1  0  0  3  0  0  0  0  0  0
  182.8610  177.4890  136.0140 C   0  0  0  0  0  3  0  0  0  0  0  0
  181.3490  175.5980  135.6060 C   0  0  0  0  0  3  0  0  0  0  0  0
  181.0130  175.5150  137.0730 C   0  0  0  0  0  2  0  0  0  0  0  0
  181.7070  177.7980  140.0610 N   0  0  0  0  0  0  0  0  0  0  0  0
  180.2150  177.9640  141.8920 O   0  0  0  0  0  0  0  0  0  0  0  0
  185.4980  178.3510  142.8690 C   0  0  0  0  0  3  0  0  0  0  0  0
  184.9070  178.4010  144.0650 C   0  0  0  0  0  3  0  0  0  0  0  0
  183.1640  177.9120  139.9830 C   0  0  0  0  0  2  0  0  0  0  0  0
  182.5320  179.0680  143.5260 C   0  0  0  0  0  0  0  0  0  0  0  0
  181.3780  179.5800  144.0200 F   0  0  0  0  0  0  0  0  0  0  0  0
  182.5300  178.5430  142.1450 C   0  0  0  0  0  0  0  0  0  0  0  0
  183.5750  178.9690  144.3610 C   0  0  0  0  0  3  0  0  0  0  0  0
  183.5700  178.4380  141.3280 C   0  0  0  0  0  0  0  0  0  0  0  0
  181.3670  178.1130  141.4040 C   0  0  0  0  0  0  0  0  0  0  0  0
  184.9320  178.9620  141.6280 C   0  0  0  0  0  2  0  0  0  0  0  0
  180.0090  182.1370  138.6450 C   0  0  0  0  0  3  0  0  0  0  0  0
  181.2020  181.8040  137.8140 C   0  0  0  0  0  2  0  0  0  0  0  0
  180.0230  179.0680  138.1550 C   0  0  0  0  0  0  0  0  0  0  0  0
  179.2680  181.2160  139.2620 C   0  0  0  0  0  3  0  0  0  0  0  0
  180.8340  180.9150  136.6750 C   0  0  0  0  0  3  0  0  0  0  0  0
  180.3380  179.6900  136.8470 C   0  0  0  0  0  3  0  0  0  0  0  0
  179.4610  179.7540  139.1630 C   0  0  0  0  0  3  0  0  0  0  0  0
  1 23  1  1  0  0  0
  1  5  1  0  0  0  0
  2  7  2  0  0  0  0
  2  6  1  0  0  0  0
  3  8  1  6  0  0  0
  3  1  1  0  0  0  0
  3  5  1  0  0  0  0
  4  3  1  0  0  0  0
  5  9  1  1  0  0  0
  6  4  2  0  0  0  0
  7  8  1  0  0  0  0
  9 19  1  0  0  0  0
 11 12  2  0  0  0  0
 12 17  1  0  0  0  0
 13  9  1  0  0  0  0
 13 18  1  0  0  0  0
 14 15  1  0  0  0  0
 14 17  2  0  0  0  0
 16 14  1  0  0  0  0
 18 20  1  0  0  0  0
 18 16  2  0  0  0  0
 19 10  2  0  0  0  0
 19 16  1  0  0  0  0
 20 11  1  0  0  0  0
 21 24  2  0  0  0  0
 22 21  1  0  0  0  0
 23 27  2  0  0  0  0
 25 26  2  0  0  0  0
 25 22  1  0  0  0  0
 26 23  1  0  0  0  0
 27 24  1  0  0  0  0
M  END
>  <MODEL>
2

>  <REMARK>
 VINA RESULT:      -6.4      2.294      4.545
  Name = 
  2 active torsions:
  status: ('A' for Active; 'I' for Inactive)
    1  A    between atoms: C_1  and  C_18
    2  A    between atoms: N_2  and  C_15
                            x       y       z     vdW  Elec       q    Type
                         _______ _______ _______ _____ _____    ______ ____

>  <TORSDO>
F 2

$$$$
=
 OpenBabel11052413473D

 27 31  0  0  1  0  0  0  0  0999 V2000
  189.8520  177.3450  136.6520 C   0  0  1  0  0  3  0  0  0  0  0  0
  192.7940  174.6860  136.4530 C   0  0  0  0  0  3  0  0  0  0  0  0
  190.2780  175.9550  136.1770 C   0  0  1  0  0  0  0  0  0  0  0  0
  190.4650  174.8400  137.1790 C   0  0  0  0  0  3  0  0  0  0  0  0
  188.8720  176.4510  135.8460 C   0  0  1  0  0  3  0  0  0  0  0  0
  191.6630  174.2680  137.3050 C   0  0  0  0  0  3  0  0  0  0  0  0
  192.6150  175.5040  135.4100 C   0  0  0  0  0  3  0  0  0  0  0  0
  191.2450  175.9760  134.9950 C   0  0  0  0  0  2  0  0  0  0  0  0
  187.8070  175.8560  136.6630 N   0  0  0  0  0  0  0  0  0  0  0  0
  186.1680  177.5240  136.2890 O   0  0  0  0  0  0  0  0  0  0  0  0
  184.5190  172.4420  136.9790 C   0  0  0  0  0  3  0  0  0  0  0  0
  183.4150  173.1450  136.7150 C   0  0  0  0  0  3  0  0  0  0  0  0
  187.6890  174.4230  136.9340 C   0  0  0  0  0  2  0  0  0  0  0  0
  184.0850  175.5210  137.2430 C   0  0  0  0  0  0  0  0  0  0  0  0
  183.6370  176.7700  137.5230 F   0  0  0  0  0  0  0  0  0  0  0  0
  185.5340  175.3300  137.0260 C   0  0  0  0  0  0  0  0  0  0  0  0
  183.1700  174.5580  137.0740 C   0  0  0  0  0  3  0  0  0  0  0  0
  186.2270  174.2130  137.2010 C   0  0  0  0  0  0  0  0  0  0  0  0
  186.4770  176.3580  136.6510 C   0  0  0  0  0  0  0  0  0  0  0  0
  185.6700  172.9590  137.7800 C   0  0  0  0  0  2  0  0  0  0  0  0
  188.5320  177.8290  141.0300 C   0  0  0  0  0  3  0  0  0  0  0  0
  189.3750  176.5980  140.9990 C   0  0  0  0  0  2  0  0  0  0  0  0
  189.6200  177.4710  138.1410 C   0  0  0  0  0  0  0  0  0  0  0  0
  188.1340  178.4690  139.9310 C   0  0  0  0  0  3  0  0  0  0  0  0
  190.6780  176.8550  140.3220 C   0  0  0  0  0  3  0  0  0  0  0  0
  190.7690  177.2140  139.0420 C   0  0  0  0  0  3  0  0  0  0  0  0
  188.5140  178.1160  138.5480 C   0  0  0  0  0  3  0  0  0  0  0  0
  1 23  1  1  0  0  0
  2  6  1  0  0  0  0
  3  8  1  6  0  0  0
  3  1  1  0  0  0  0
  3  4  1  0  0  0  0
  4  6  2  0  0  0  0
  5  3  1  0  0  0  0
  5  1  1  0  0  0  0
  5  9  1  1  0  0  0
  7  2  2  0  0  0  0
  8  7  1  0  0  0  0
  9 13  1  0  0  0  0
 10 19  2  0  0  0  0
 11 20  1  0  0  0  0
 12 11  2  0  0  0  0
 12 17  1  0  0  0  0
 13 18  1  0  0  0  0
 14 15  1  0  0  0  0
 16 18  2  0  0  0  0
 16 14  1  0  0  0  0
 17 14  2  0  0  0  0
 18 20  1  0  0  0  0
 19  9  1  0  0  0  0
 19 16  1  0  0  0  0
 22 21  1  0  0  0  0
 23 27  2  0  0  0  0
 23 26  1  0  0  0  0
 24 21  2  0  0  0  0
 25 22  1  0  0  0  0
 26 25  2  0  0  0  0
 27 24  1  0  0  0  0
M  END
>  <MODEL>
3

>  <REMARK>
 VINA RESULT:      -6.3      6.207      9.504
  Name = 
  2 active torsions:
  status: ('A' for Active; 'I' for Inactive)
    1  A    between atoms: C_1  and  C_18
    2  A    between atoms: N_2  and  C_15
                            x       y       z     vdW  Elec       q    Type
                         _______ _______ _______ _____ _____    ______ ____

>  <TORSDO>
F 2

$$$$
=
 OpenBabel11052413473D

 27 31  0  0  1  0  0  0  0  0999 V2000
  179.1850  178.0720  140.3330 C   0  0  1  0  0  3  0  0  0  0  0  0
  180.3350  174.7440  138.4980 C   0  0  0  0  0  3  0  0  0  0  0  0
  179.9300  176.7420  140.4630 C   0  0  1  0  0  0  0  0  0  0  0  0
  181.2850  176.5690  139.8180 C   0  0  0  0  0  3  0  0  0  0  0  0
  179.7840  177.6310  141.6960 C   0  0  1  0  0  3  0  0  0  0  0  0
  181.4490  175.6340  138.8820 C   0  0  0  0  0  3  0  0  0  0  0  0
  179.1950  174.7140  139.1990 C   0  0  0  0  0  3  0  0  0  0  0  0
  179.0140  175.5190  140.4590 C   0  0  0  0  0  2  0  0  0  0  0  0
  181.0010  178.3610  142.0710 N   0  0  0  0  0  0  0  0  0  0  0  0
  180.7010  178.2730  144.4180 O   0  0  0  0  0  0  0  0  0  0  0  0
  185.7300  178.1880  142.4890 C   0  0  0  0  0  3  0  0  0  0  0  0
  185.8500  178.0520  143.8120 C   0  0  0  0  0  3  0  0  0  0  0  0
  182.2110  178.4080  141.2480 C   0  0  0  0  0  2  0  0  0  0  0  0
  183.6580  178.9330  144.7010 C   0  0  0  0  0  0  0  0  0  0  0  0
  183.0070  179.4100  145.7910 F   0  0  0  0  0  0  0  0  0  0  0  0
  182.8730  178.6690  143.4770 C   0  0  0  0  0  0  0  0  0  0  0  0
  184.9550  178.6280  144.8370 C   0  0  0  0  0  3  0  0  0  0  0  0
  183.3190  178.6580  142.2280 C   0  0  0  0  0  0  0  0  0  0  0  0
  181.4470  178.4450  143.4170 C   0  0  0  0  0  0  0  0  0  0  0  0
  184.7010  179.0440  141.8250 C   0  0  0  0  0  2  0  0  0  0  0  0
  181.3310  181.7040  138.5030 C   0  0  0  0  0  3  0  0  0  0  0  0
  182.2310  180.5410  138.2560 C   0  0  0  0  0  2  0  0  0  0  0  0
  179.9200  179.1460  139.5620 C   0  0  0  0  0  0  0  0  0  0  0  0
  180.2500  181.6390  139.2810 C   0  0  0  0  0  3  0  0  0  0  0  0
  181.4880  179.4090  137.6300 C   0  0  0  0  0  3  0  0  0  0  0  0
  180.4820  178.7820  138.2390 C   0  0  0  0  0  3  0  0  0  0  0  0
  179.7440  180.4210  139.9440 C   0  0  0  0  0  3  0  0  0  0  0  0
  1 23  1  6  0  0  0
  1  3  1  0  0  0  0
  1  5  1  0  0  0  0
  2  6  1  0  0  0  0
  2  7  2  0  0  0  0
  3  4  1  6  0  0  0
  3  5  1  0  0  0  0
  5  9  1  6  0  0  0
  6  4  2  0  0  0  0
  7  8  1  0  0  0  0
  8  3  1  0  0  0  0
  9 19  1  0  0  0  0
 11 12  2  0  0  0  0
 12 17  1  0  0  0  0
 13  9  1  0  0  0  0
 13 18  1  0  0  0  0
 14 17  2  0  0  0  0
 14 15  1  0  0  0  0
 16 14  1  0  0  0  0
 18 16  2  0  0  0  0
 19 16  1  0  0  0  0
 19 10  2  0  0  0  0
 20 18  1  0  0  0  0
 20 11  1  0  0  0  0
 21 24  2  0  0  0  0
 22 21  1  0  0  0  0
 23 27  2  0  0  0  0
 24 27  1  0  0  0  0
 25 26  2  0  0  0  0
 25 22  1  0  0  0  0
 26 23  1  0  0  0  0
M  END
>  <MODEL>
4

>  <REMARK>
 VINA RESULT:      -6.1      1.996      4.558
  Name = 
  2 active torsions:
  status: ('A' for Active; 'I' for Inactive)
    1  A    between atoms: C_1  and  C_18
    2  A    between atoms: N_2  and  C_15
                            x       y       z     vdW  Elec       q    Type
                         _______ _______ _______ _____ _____    ______ ____

>  <TORSDO>
F 2

$$$$
=
 OpenBabel11052413473D

 27 31  0  0  1  0  0  0  0  0999 V2000
  183.0280  179.1710  137.7560 C   0  0  1  0  0  3  0  0  0  0  0  0
  179.0850  179.4190  137.3550 C   0  0  0  0  0  3  0  0  0  0  0  0
  181.7170  179.6600  138.3740 C   0  0  1  0  0  0  0  0  0  0  0  0
  180.7520  178.6680  138.9790 C   0  0  0  0  0  3  0  0  0  0  0  0
  183.0310  179.9720  139.0860 C   0  0  1  0  0  3  0  0  0  0  0  0
  179.5230  178.5580  138.4720 C   0  0  0  0  0  3  0  0  0  0  0  0
  179.8260  180.4550  136.9430 C   0  0  0  0  0  3  0  0  0  0  0  0
  181.0990  180.8520  137.6450 C   0  0  0  0  0  2  0  0  0  0  0  0
  183.2940  179.1480  140.2720 N   0  0  0  0  0  0  0  0  0  0  0  0
  185.6530  179.0820  140.0820 O   0  0  0  0  0  0  0  0  0  0  0  0
  183.4920  179.0150  145.0160 C   0  0  0  0  0  3  0  0  0  0  0  0
  184.8130  179.0470  145.2030 C   0  0  0  0  0  3  0  0  0  0  0  0
  182.4110  179.0910  141.4380 C   0  0  0  0  0  2  0  0  0  0  0  0
  185.7440  178.2320  143.0030 C   0  0  0  0  0  0  0  0  0  0  0  0
  186.8280  177.7160  142.3730 F   0  0  0  0  0  0  0  0  0  0  0  0
  184.5810  178.6300  142.1820 C   0  0  0  0  0  0  0  0  0  0  0  0
  185.8380  178.4500  144.3210 C   0  0  0  0  0  3  0  0  0  0  0  0
  183.3170  178.7060  142.5720 C   0  0  0  0  0  0  0  0  0  0  0  0
  184.6080  178.9400  140.7710 C   0  0  0  0  0  0  0  0  0  0  0  0
  182.8200  178.2710  143.9070 C   0  0  0  0  0  2  0  0  0  0  0  0
  183.1040  174.5880  138.1300 C   0  0  0  0  0  3  0  0  0  0  0  0
  183.8580  174.9010  136.8820 C   0  0  0  0  0  2  0  0  0  0  0  0
  183.2590  177.6780  137.8390 C   0  0  0  0  0  0  0  0  0  0  0  0
  182.4140  175.5010  138.8140 C   0  0  0  0  0  3  0  0  0  0  0  0
  184.9050  175.9330  137.1290 C   0  0  0  0  0  3  0  0  0  0  0  0
  184.6170  177.1720  137.5270 C   0  0  0  0  0  3  0  0  0  0  0  0
  182.3490  176.9420  138.4960 C   0  0  0  0  0  3  0  0  0  0  0  0
  1 23  1  1  0  0  0
  1  3  1  0  0  0  0
  1  5  1  0  0  0  0
  2  6  1  0  0  0  0
  3  8  1  6  0  0  0
  3  4  1  0  0  0  0
  3  5  1  0  0  0  0
  5  9  1  1  0  0  0
  6  4  2  0  0  0  0
  7  2  2  0  0  0  0
  7  8  1  0  0  0  0
  9 19  1  0  0  0  0
  9 13  1  0  0  0  0
 10 19  2  0  0  0  0
 11 12  2  0  0  0  0
 13 18  1  0  0  0  0
 14 17  2  0  0  0  0
 15 14  1  0  0  0  0
 16 18  2  0  0  0  0
 16 14  1  0  0  0  0
 17 12  1  0  0  0  0
 18 20  1  0  0  0  0
 19 16  1  0  0  0  0
 20 11  1  0  0  0  0
 21 24  2  0  0  0  0
 22 25  1  0  0  0  0
 22 21  1  0  0  0  0
 23 27  2  0  0  0  0
 25 26  2  0  0  0  0
 26 23  1  0  0  0  0
 27 24  1  0  0  0  0
M  END
>  <MODEL>
5

>  <REMARK>
 VINA RESULT:      -5.7      1.372      2.298
  Name = 
  2 active torsions:
  status: ('A' for Active; 'I' for Inactive)
    1  A    between atoms: C_1  and  C_18
    2  A    between atoms: N_2  and  C_15
                            x       y       z     vdW  Elec       q    Type
                         _______ _______ _______ _____ _____    ______ ____

>  <TORSDO>
F 2

$$$$
=
 OpenBabel11052413473D

 27 31  0  0  1  0  0  0  0  0999 V2000
  182.9570  179.1160  139.8620 C   0  0  1  0  0  3  0  0  0  0  0  0
  181.5770  179.0030  143.5830 C   0  0  0  0  0  3  0  0  0  0  0  0
  182.5820  178.2300  141.0510 C   0  0  1  0  0  0  0  0  0  0  0  0
  181.1280  178.0060  141.3960 C   0  0  0  0  0  3  0  0  0  0  0  0
  183.1750  177.5800  139.8020 C   0  0  1  0  0  3  0  0  0  0  0  0
  180.6720  178.3930  142.5880 C   0  0  0  0  0  3  0  0  0  0  0  0
  182.9030  179.0120  143.4040 C   0  0  0  0  0  3  0  0  0  0  0  0
  183.5520  178.3320  142.2260 C   0  0  0  0  0  2  0  0  0  0  0  0
  182.2000  176.8770  138.9590 N   0  0  0  0  0  0  0  0  0  0  0  0
  183.5340  176.7320  137.0080 O   0  0  0  0  0  0  0  0  0  0  0  0
  180.0550  172.7440  138.0170 C   0  0  0  0  0  3  0  0  0  0  0  0
  180.7180  172.3740  136.9190 C   0  0  0  0  0  3  0  0  0  0  0  0
  181.1460  176.0060  139.4810 C   0  0  0  0  0  2  0  0  0  0  0  0
  181.6580  174.5430  136.0330 C   0  0  0  0  0  0  0  0  0  0  0  0
  182.1770  175.1740  134.9510 F   0  0  0  0  0  0  0  0  0  0  0  0
  181.6730  175.2500  137.3310 C   0  0  0  0  0  0  0  0  0  0  0  0
  181.2620  173.2720  135.8800 C   0  0  0  0  0  3  0  0  0  0  0  0
  180.8550  175.0560  138.3560 C   0  0  0  0  0  0  0  0  0  0  0  0
  182.5470  176.3430  137.6880 C   0  0  0  0  0  0  0  0  0  0  0  0
  179.6700  174.1540  138.3290 C   0  0  0  0  0  2  0  0  0  0  0  0
  179.6260  180.5230  137.0210 C   0  0  0  0  0  3  0  0  0  0  0  0
  178.9310  180.0770  138.2630 C   0  0  0  0  0  2  0  0  0  0  0  0
  181.7860  179.6860  139.0920 C   0  0  0  0  0  0  0  0  0  0  0  0
  180.9250  180.3230  136.7990 C   0  0  0  0  0  3  0  0  0  0  0  0
  179.5340  180.7070  139.4730 C   0  0  0  0  0  3  0  0  0  0  0  0
  180.7980  180.4970  139.8420 C   0  0  0  0  0  3  0  0  0  0  0  0
  181.8730  179.7120  137.7520 C   0  0  0  0  0  3  0  0  0  0  0  0
  1 23  1  6  0  0  0
  1  3  1  0  0  0  0
  3  4  1  1  0  0  0
  3  8  1  0  0  0  0
  4  6  2  0  0  0  0
  5  9  1  6  0  0  0
  5  1  1  0  0  0  0
  5  3  1  0  0  0  0
  6  2  1  0  0  0  0
  7  2  2  0  0  0  0
  8  7  1  0  0  0  0
  9 13  1  0  0  0  0
 10 19  2  0  0  0  0
 11 20  1  0  0  0  0
 12 11  2  0  0  0  0
 14 16  1  0  0  0  0
 15 14  1  0  0  0  0
 16 19  1  0  0  0  0
 16 18  2  0  0  0  0
 17 14  2  0  0  0  0
 17 12  1  0  0  0  0
 18 13  1  0  0  0  0
 19  9  1  0  0  0  0
 20 18  1  0  0  0  0
 21 22  1  0  0  0  0
 22 25  1  0  0  0  0
 23 26  1  0  0  0  0
 24 21  2  0  0  0  0
 24 27  1  0  0  0  0
 25 26  2  0  0  0  0
 27 23  2  0  0  0  0
M  END
>  <MODEL>
6

>  <REMARK>
 VINA RESULT:      -5.4      2.693      6.062
  Name = 
  2 active torsions:
  status: ('A' for Active; 'I' for Inactive)
    1  A    between atoms: C_1  and  C_18
    2  A    between atoms: N_2  and  C_15
                            x       y       z     vdW  Elec       q    Type
                         _______ _______ _______ _____ _____    ______ ____

>  <TORSDO>
F 2

$$$$
=
 OpenBabel11052413473D

 27 31  0  0  1  0  0  0  0  0999 V2000
  183.1770  177.1890  139.2560 C   0  0  1  0  0  3  0  0  0  0  0  0
  182.7030  173.8950  137.0900 C   0  0  0  0  0  3  0  0  0  0  0  0
  183.0480  176.6020  137.8500 C   0  0  1  0  0  0  0  0  0  0  0  0
  181.7070  176.1120  137.3560 C   0  0  0  0  0  3  0  0  0  0  0  0
  183.2990  178.1000  138.0050 C   0  0  1  0  0  3  0  0  0  0  0  0
  181.5610  174.8300  137.0210 C   0  0  0  0  0  3  0  0  0  0  0  0
  183.9490  174.3340  137.3030 C   0  0  0  0  0  3  0  0  0  0  0  0
  184.2700  175.8030  137.4010 C   0  0  0  0  0  2  0  0  0  0  0  0
  182.1220  178.9440  137.7700 N   0  0  0  0  0  0  0  0  0  0  0  0
  182.9360  180.9030  138.8220 O   0  0  0  0  0  0  0  0  0  0  0  0
  179.6440  181.4620  134.5950 C   0  0  0  0  0  3  0  0  0  0  0  0
  180.0040  182.7020  134.9360 C   0  0  0  0  0  3  0  0  0  0  0  0
  181.1900  178.7550  136.6570 C   0  0  0  0  0  2  0  0  0  0  0  0
  180.7910  182.4560  137.3220 C   0  0  0  0  0  0  0  0  0  0  0  0
  181.0580  183.1060  138.4810 F   0  0  0  0  0  0  0  0  0  0  0  0
  181.1490  181.0250  137.2230 C   0  0  0  0  0  0  0  0  0  0  0  0
  180.3170  183.1790  136.2980 C   0  0  0  0  0  3  0  0  0  0  0  0
  180.5970  180.1160  136.4330 C   0  0  0  0  0  0  0  0  0  0  0  0
  182.1280  180.3400  138.0350 C   0  0  0  0  0  0  0  0  0  0  0  0
  179.4040  180.3600  135.5740 C   0  0  0  0  0  2  0  0  0  0  0  0
  179.3890  178.0100  141.7310 C   0  0  0  0  0  3  0  0  0  0  0  0
  178.9310  177.2350  140.5430 C   0  0  0  0  0  2  0  0  0  0  0  0
  181.8870  177.2550  140.0440 C   0  0  0  0  0  0  0  0  0  0  0  0
  180.6260  178.4930  141.8560 C   0  0  0  0  0  3  0  0  0  0  0  0
  179.7470  176.0000  140.3580 C   0  0  0  0  0  3  0  0  0  0  0  0
  181.0550  176.0300  140.1080 C   0  0  0  0  0  3  0  0  0  0  0  0
  181.7290  178.2800  140.8980 C   0  0  0  0  0  3  0  0  0  0  0  0
  1 23  1  1  0  0  0
  2  7  2  0  0  0  0
  3  4  1  6  0  0  0
  3  5  1  0  0  0  0
  3  1  1  0  0  0  0
  5  9  1  1  0  0  0
  5  1  1  0  0  0  0
  6  2  1  0  0  0  0
  6  4  2  0  0  0  0
  7  8  1  0  0  0  0
  8  3  1  0  0  0  0
  9 19  1  0  0  0  0
 11 12  2  0  0  0  0
 11 20  1  0  0  0  0
 12 17  1  0  0  0  0
 13  9  1  0  0  0  0
 14 15  1  0  0  0  0
 16 14  1  0  0  0  0
 16 19  1  0  0  0  0
 17 14  2  0  0  0  0
 18 13  1  0  0  0  0
 18 16  2  0  0  0  0
 19 10  2  0  0  0  0
 20 18  1  0  0  0  0
 21 24  2  0  0  0  0
 22 21  1  0  0  0  0
 23 26  1  0  0  0  0
 23 27  2  0  0  0  0
 25 22  1  0  0  0  0
 26 25  2  0  0  0  0
 27 24  1  0  0  0  0
M  END
>  <MODEL>
7

>  <REMARK>
 VINA RESULT:      -5.3      3.212      6.539
  Name = 
  2 active torsions:
  status: ('A' for Active; 'I' for Inactive)
    1  A    between atoms: C_1  and  C_18
    2  A    between atoms: N_2  and  C_15
                            x       y       z     vdW  Elec       q    Type
                         _______ _______ _______ _____ _____    ______ ____

>  <TORSDO>
F 2

$$$$
=
 OpenBabel11052413473D

 27 31  0  0  1  0  0  0  0  0999 V2000
  184.9570  178.7730  138.1760 C   0  0  1  0  0  3  0  0  0  0  0  0
  181.2360  177.9090  139.2620 C   0  0  0  0  0  3  0  0  0  0  0  0
  183.9480  178.7230  139.3250 C   0  0  1  0  0  0  0  0  0  0  0  0
  183.5370  177.3940  139.9120 C   0  0  0  0  0  3  0  0  0  0  0  0
  185.3480  179.2720  139.5940 C   0  0  1  0  0  3  0  0  0  0  0  0
  182.2570  177.0210  139.8560 C   0  0  0  0  0  3  0  0  0  0  0  0
  181.5190  179.1760  138.9390 C   0  0  0  0  0  3  0  0  0  0  0  0
  182.8610  179.7930  139.2370 C   0  0  0  0  0  2  0  0  0  0  0  0
  186.2340  178.3540  140.3200 N   0  0  0  0  0  0  0  0  0  0  0  0
  188.2580  178.9870  139.2670 O   0  0  0  0  0  0  0  0  0  0  0  0
  188.4460  177.4260  144.4200 C   0  0  0  0  0  3  0  0  0  0  0  0
  189.6910  177.7940  144.1100 C   0  0  0  0  0  3  0  0  0  0  0  0
  185.9560  177.8420  141.6630 C   0  0  0  0  0  2  0  0  0  0  0  0
  189.7330  177.6840  141.5890 C   0  0  0  0  0  0  0  0  0  0  0  0
  190.5210  177.6150  140.4880 F   0  0  0  0  0  0  0  0  0  0  0  0
  188.2810  177.8810  141.3980 C   0  0  0  0  0  0  0  0  0  0  0  0
  190.3350  177.6770  142.7850 C   0  0  0  0  0  3  0  0  0  0  0  0
  187.3100  177.5280  142.2290 C   0  0  0  0  0  0  0  0  0  0  0  0
  187.6490  178.4360  140.2230 C   0  0  0  0  0  0  0  0  0  0  0  0
  187.5150  176.7380  143.4750 C   0  0  0  0  0  2  0  0  0  0  0  0
  187.1480  174.8810  137.0800 C   0  0  0  0  0  3  0  0  0  0  0  0
  185.8760  174.4550  137.7320 C   0  0  0  0  0  2  0  0  0  0  0  0
  185.4940  177.4290  137.7360 C   0  0  0  0  0  0  0  0  0  0  0  0
  187.5660  176.1470  137.0530 C   0  0  0  0  0  3  0  0  0  0  0  0
  184.7010  175.1380  137.1190 C   0  0  0  0  0  3  0  0  0  0  0  0
  184.5330  176.4590  137.1570 C   0  0  0  0  0  3  0  0  0  0  0  0
  186.8220  177.3070  137.5840 C   0  0  0  0  0  3  0  0  0  0  0  0
  1 23  1  1  0  0  0
  1  3  1  0  0  0  0
  1  5  1  0  0  0  0
  2  6  1  0  0  0  0
  3  8  1  6  0  0  0
  3  5  1  0  0  0  0
  3  4  1  0  0  0  0
  5  9  1  1  0  0  0
  6  4  2  0  0  0  0
  7  8  1  0  0  0  0
  7  2  2  0  0  0  0
  9 13  1  0  0  0  0
 10 19  2  0  0  0  0
 12 11  2  0  0  0  0
 13 18  1  0  0  0  0
 14 17  2  0  0  0  0
 15 14  1  0  0  0  0
 16 14  1  0  0  0  0
 16 18  2  0  0  0  0
 17 12  1  0  0  0  0
 18 20  1  0  0  0  0
 19  9  1  0  0  0  0
 19 16  1  0  0  0  0
 20 11  1  0  0  0  0
 21 22  1  0  0  0  0
 24 21  2  0  0  0  0
 24 27  1  0  0  0  0
 25 26  2  0  0  0  0
 25 22  1  0  0  0  0
 26 23  1  0  0  0  0
 27 23  2  0  0  0  0
M  END
>  <MODEL>
8

>  <REMARK>
 VINA RESULT:      -5.3      3.176      4.532
  Name = 
  2 active torsions:
  status: ('A' for Active; 'I' for Inactive)
    1  A    between atoms: C_1  and  C_18
    2  A    between atoms: N_2  and  C_15
                            x       y       z     vdW  Elec       q    Type
                         _______ _______ _______ _____ _____    ______ ____

>  <TORSDO>
F 2

$$$$
=
 OpenBabel11052413473D

 27 31  0  0  1  0  0  0  0  0999 V2000
  188.1400  179.2370  141.6040 C   0  0  1  0  0  3  0  0  0  0  0  0
  188.8820  176.7890  144.6410 C   0  0  0  0  0  3  0  0  0  0  0  0
  189.0200  178.1040  142.1360 C   0  0  1  0  0  0  0  0  0  0  0  0
  188.4680  176.7010  142.2330 C   0  0  0  0  0  3  0  0  0  0  0  0
  189.3350  178.7040  140.7680 C   0  0  1  0  0  3  0  0  0  0  0  0
  188.3950  176.1070  143.4240 C   0  0  0  0  0  3  0  0  0  0  0  0
  189.5790  177.9290  144.5680 C   0  0  0  0  0  3  0  0  0  0  0  0
  189.9760  178.5360  143.2470 C   0  0  0  0  0  2  0  0  0  0  0  0
  188.9350  177.8690  139.6290 N   0  0  0  0  0  0  0  0  0  0  0  0
  188.8910  179.5830  137.9950 O   0  0  0  0  0  0  0  0  0  0  0  0
  190.3050  174.6220  136.4440 C   0  0  0  0  0  3  0  0  0  0  0  0
  190.4390  175.3890  135.3600 C   0  0  0  0  0  3  0  0  0  0  0  0
  189.2180  176.4370  139.5260 C   0  0  0  0  0  2  0  0  0  0  0  0
  189.0050  177.4010  135.8770 C   0  0  0  0  0  0  0  0  0  0  0  0
  188.3540  178.4700  135.3560 F   0  0  0  0  0  0  0  0  0  0  0  0
  189.0860  177.2800  137.3470 C   0  0  0  0  0  0  0  0  0  0  0  0
  189.6290  176.5780  135.0240 C   0  0  0  0  0  3  0  0  0  0  0  0
  189.2380  176.1660  138.0500 C   0  0  0  0  0  0  0  0  0  0  0  0
  188.9380  178.3600  138.2950 C   0  0  0  0  0  0  0  0  0  0  0  0
  189.2290  174.7950  137.4670 C   0  0  0  0  0  2  0  0  0  0  0  0
  183.7370  178.1130  140.9040 C   0  0  0  0  0  3  0  0  0  0  0  0
  184.1150  178.9830  139.7540 C   0  0  0  0  0  2  0  0  0  0  0  0
  186.7500  178.8220  141.1770 C   0  0  0  0  0  0  0  0  0  0  0  0
  184.5190  177.9260  141.9670 C   0  0  0  0  0  3  0  0  0  0  0  0
  185.3740  178.5090  139.1110 C   0  0  0  0  0  3  0  0  0  0  0  0
  186.5420  178.4720  139.7510 C   0  0  0  0  0  3  0  0  0  0  0  0
  185.8780  178.4760  142.1380 C   0  0  0  0  0  3  0  0  0  0  0  0
  1 23  1  6  0  0  0
  1  3  1  0  0  0  0
  3  4  1  1  0  0  0
  3  8  1  0  0  0  0
  4  6  2  0  0  0  0
  5  9  1  6  0  0  0
  5  1  1  0  0  0  0
  5  3  1  0  0  0  0
  6  2  1  0  0  0  0
  7  2  2  0  0  0  0
  8  7  1  0  0  0  0
 10 19  2  0  0  0  0
 11 20  1  0  0  0  0
 12 11  2  0  0  0  0
 13  9  1  0  0  0  0
 14 16  1  0  0  0  0
 15 14  1  0  0  0  0
 16 18  2  0  0  0  0
 16 19  1  0  0  0  0
 17 12  1  0  0  0  0
 17 14  2  0  0  0  0
 18 13  1  0  0  0  0
 19  9  1  0  0  0  0
 20 18  1  0  0  0  0
 21 24  2  0  0  0  0
 22 21  1  0  0  0  0
 23 27  2  0  0  0  0
 24 27  1  0  0  0  0
 25 26  2  0  0  0  0
 25 22  1  0  0  0  0
 26 23  1  0  0  0  0
M  END
>  <MODEL>
9

>  <REMARK>
 VINA RESULT:      -5.2      4.876      8.200
  Name = 
  2 active torsions:
  status: ('A' for Active; 'I' for Inactive)
    1  A    between atoms: C_1  and  C_18
    2  A    between atoms: N_2  and  C_15
                            x       y       z     vdW  Elec       q    Type
                         _______ _______ _______ _____ _____    ______ ____

>  <TORSDO>
F 2

$$$$
