=
 OpenBabel11052416493D

 32 38  0  0  1  0  0  0  0  0999 V2000
  192.1980  175.3040  137.2990 C   0  0  0  0  0  0  0  0  0  0  0  0
  189.8050  177.7970  137.5040 C   0  0  0  0  0  2  0  0  0  0  0  0
  188.4190  177.6380  142.5060 C   0  0  0  0  0  0  0  0  0  0  0  0
  183.7680  179.0030  142.4810 N   0  0  0  0  0  0  0  0  0  0  0  0
  183.7200  178.9280  143.8370 C   0  0  0  0  0  3  0  0  0  0  0  0
  189.3000  177.2810  144.9030 C   0  0  0  0  0  0  0  0  0  0  0  0
  190.6830  176.9710  144.9070 C   0  0  0  0  0  0  0  0  0  0  0  0
  189.7670  177.9260  140.4330 C   0  0  2  0  0  3  0  0  0  0  0  0
  187.3130  178.0710  140.3020 C   0  0  0  0  0  3  0  0  0  0  0  0
  190.1540  175.4420  138.3940 C   0  0  0  0  0  3  0  0  0  0  0  0
  189.2210  177.0980  147.3330 C   0  0  0  0  0  0  0  0  0  0  0  0
  188.4240  177.9030  138.1470 C   0  0  0  0  0  2  0  0  0  0  0  0
  184.9040  178.7190  141.7900 C   0  0  0  0  0  3  0  0  0  0  0  0
  186.0700  178.3390  142.4680 C   0  0  0  0  0  0  0  0  0  0  0  0
  187.2620  178.0280  141.7830 C   0  0  0  0  0  0  0  0  0  0  0  0
  187.1720  177.8900  144.5380 N   0  0  0  0  0  0  0  0  0  0  0  0
  193.1830  174.7810  136.7170 O   0  0  0  0  0  0  0  0  0  0  0  0
  190.5770  176.7600  147.3430 C   0  0  0  0  0  3  0  0  0  0  0  0
  192.0610  176.7530  137.5290 C   0  0  0  0  0  2  0  0  0  0  0  0
  191.1200  174.5430  137.7920 N   0  0  0  0  0  0  0  0  0  0  0  0
  188.4710  177.9800  139.6440 C   0  0  0  0  0  0  0  0  0  0  0  0
  191.3010  176.7050  146.1410 C   0  0  0  0  0  3  0  0  0  0  0  0
  191.0090  177.4520  139.6650 C   0  0  0  0  0  2  0  0  0  0  0  0
  190.7350  176.8670  138.2810 C   0  0  1  0  0  0  0  0  0  0  0  0
  184.8530  178.5530  144.5600 C   0  0  0  0  0  3  0  0  0  0  0  0
  186.0400  178.2560  143.8750 C   0  0  0  0  0  0  0  0  0  0  0  0
  187.3120  177.7400  145.8710 C   0  0  0  0  0  3  0  0  0  0  0  0
  189.5940  177.1290  141.7230 C   0  0  0  0  0  2  0  0  0  0  0  0
  191.5580  176.9790  143.7090 C   0  0  0  0  0  1  0  0  0  0  0  0
  188.5040  177.1700  148.5210 O   0  0  0  0  0  1  0  0  0  0  0  0
  188.3470  177.6030  143.9180 C   0  0  0  0  0  0  0  0  0  0  0  0
  188.6130  177.3610  146.1060 C   0  0  0  0  0  0  0  0  0  0  0  0
  1 19  1  0  0  0  0
  1 20  1  0  0  0  0
  2 12  1  0  0  0  0
  3 31  1  0  0  0  0
  4  5  1  0  0  0  0
  5 25  2  0  0  0  0
  6  7  1  0  0  0  0
  6 32  1  0  0  0  0
  7 22  2  0  0  0  0
  8 23  1  6  0  0  0
  8 28  1  0  0  0  0
  9 15  1  0  0  0  0
 11 18  2  0  0  0  0
 11 30  1  0  0  0  0
 12 21  1  0  0  0  0
 13 14  1  0  0  0  0
 13  4  2  0  0  0  0
 14 26  2  0  0  0  0
 15 14  1  0  0  0  0
 15  3  2  0  0  0  0
 16 27  1  0  0  0  0
 17  1  2  0  0  0  0
 19 24  1  0  0  0  0
 20 10  2  0  0  0  0
 21  9  2  0  0  0  0
 21  8  1  0  0  0  0
 22 18  1  0  0  0  0
 24  2  1  6  0  0  0
 24 10  1  0  0  0  0
 24 23  1  0  0  0  0
 26 16  1  0  0  0  0
 26 25  1  0  0  0  0
 27 32  2  0  0  0  0
 28  3  1  0  0  0  0
 29  7  1  0  0  0  0
 31 16  1  0  0  0  0
 31  6  2  0  0  0  0
 32 11  1  0  0  0  0
M  END
>  <MODEL>
1

>  <REMARK>
 VINA RESULT:     -12.1      0.000      0.000
  Name = 
  0 active torsions:
  status: ('A' for Active; 'I' for Inactive)
                            x       y       z     vdW  Elec       q    Type
                         _______ _______ _______ _____ _____    ______ ____

>  <TORSDO>
F 0

$$$$
=
 OpenBabel11052416493D

 32 38  0  0  1  0  0  0  0  0999 V2000
  180.7630  177.7040  138.6110 C   0  0  0  0  0  0  0  0  0  0  0  0
  181.3100  179.3250  141.6200 C   0  0  0  0  0  2  0  0  0  0  0  0
  186.2540  178.1400  142.6720 C   0  0  0  0  0  0  0  0  0  0  0  0
  186.4370  178.0500  147.5150 N   0  0  0  0  0  0  0  0  0  0  0  0
  187.7720  177.7960  147.4780 C   0  0  0  0  0  3  0  0  0  0  0  0
  188.5780  177.7660  141.6180 C   0  0  0  0  0  0  0  0  0  0  0  0
  188.5330  177.8840  140.2070 C   0  0  0  0  0  0  0  0  0  0  0  0
  184.2300  179.0720  141.5630 C   0  0  2  0  0  3  0  0  0  0  0  0
  184.1340  178.4940  143.9540 C   0  0  0  0  0  3  0  0  0  0  0  0
  181.8780  177.0900  140.5530 C   0  0  0  0  0  3  0  0  0  0  0  0
  190.9630  177.2660  141.5310 C   0  0  0  0  0  0  0  0  0  0  0  0
  181.9690  178.9350  142.9410 C   0  0  0  0  0  2  0  0  0  0  0  0
  185.7080  178.2060  146.3780 C   0  0  0  0  0  3  0  0  0  0  0  0
  186.3240  178.1090  145.1220 C   0  0  0  0  0  0  0  0  0  0  0  0
  185.5970  178.2540  143.9240 C   0  0  0  0  0  0  0  0  0  0  0  0
  188.3090  177.7540  143.8460 N   0  0  0  0  0  0  0  0  0  0  0  0
  180.1110  177.5750  137.5430 O   0  0  0  0  0  0  0  0  0  0  0  0
  190.9200  177.3500  140.1360 C   0  0  0  0  0  3  0  0  0  0  0  0
  181.1830  179.0060  139.1580 C   0  0  0  0  0  2  0  0  0  0  0  0
  181.1570  176.6010  139.3940 N   0  0  0  0  0  0  0  0  0  0  0  0
  183.4630  178.8350  142.8520 C   0  0  0  0  0  0  0  0  0  0  0  0
  189.7170  177.6630  139.4830 C   0  0  0  0  0  3  0  0  0  0  0  0
  183.3990  179.0880  140.2720 C   0  0  0  0  0  2  0  0  0  0  0  0
  181.9510  178.6260  140.4240 C   0  0  1  0  0  0  0  0  0  0  0  0
  188.4330  177.6890  146.2530 C   0  0  0  0  0  3  0  0  0  0  0  0
  187.7080  177.8460  145.0640 C   0  0  0  0  0  0  0  0  0  0  0  0
  189.6100  177.4880  143.6080 C   0  0  0  0  0  3  0  0  0  0  0  0
  185.4040  178.1050  141.4350 C   0  0  0  0  0  2  0  0  0  0  0  0
  187.3410  178.3010  139.4270 C   0  0  0  0  0  1  0  0  0  0  0  0
  192.1550  176.9740  142.1830 O   0  0  0  0  0  1  0  0  0  0  0  0
  187.6500  177.9090  142.6670 C   0  0  0  0  0  0  0  0  0  0  0  0
  189.7850  177.4870  142.2430 C   0  0  0  0  0  0  0  0  0  0  0  0
  1 19  1  0  0  0  0
  1 20  1  0  0  0  0
  2 12  1  0  0  0  0
  3 15  2  0  0  0  0
  5  4  1  0  0  0  0
  6 32  1  0  0  0  0
  6 31  2  0  0  0  0
  7  6  1  0  0  0  0
  8 23  1  6  0  0  0
  8 21  1  0  0  0  0
 11 30  1  0  0  0  0
 11 32  1  0  0  0  0
 13  4  2  0  0  0  0
 14 13  1  0  0  0  0
 15  9  1  0  0  0  0
 15 14  1  0  0  0  0
 16 26  1  0  0  0  0
 17  1  2  0  0  0  0
 18 11  2  0  0  0  0
 20 10  2  0  0  0  0
 21 12  1  0  0  0  0
 21  9  2  0  0  0  0
 22 18  1  0  0  0  0
 22  7  2  0  0  0  0
 23 24  1  0  0  0  0
 24 19  1  6  0  0  0
 24 10  1  0  0  0  0
 24  2  1  0  0  0  0
 25  5  2  0  0  0  0
 26 14  2  0  0  0  0
 26 25  1  0  0  0  0
 27 16  1  0  0  0  0
 28  8  1  0  0  0  0
 28  3  1  0  0  0  0
 29  7  1  0  0  0  0
 31  3  1  0  0  0  0
 31 16  1  0  0  0  0
 32 27  2  0  0  0  0
M  END
>  <MODEL>
2

>  <REMARK>
 VINA RESULT:     -10.8      3.356      6.766
  Name = 
  0 active torsions:
  status: ('A' for Active; 'I' for Inactive)
                            x       y       z     vdW  Elec       q    Type
                         _______ _______ _______ _____ _____    ______ ____

>  <TORSDO>
F 0

$$$$
=
 OpenBabel11052416493D

 32 38  0  0  1  0  0  0  0  0999 V2000
  192.2960  175.2940  137.7770 C   0  0  0  0  0  0  0  0  0  0  0  0
  189.9730  177.7240  136.9510 C   0  0  0  0  0  2  0  0  0  0  0  0
  187.0420  178.0010  141.2280 C   0  0  0  0  0  0  0  0  0  0  0  0
  182.6530  179.2190  139.5690 N   0  0  0  0  0  0  0  0  0  0  0  0
  182.1680  179.2720  140.8380 C   0  0  0  0  0  3  0  0  0  0  0  0
  187.0990  177.9000  143.8040 C   0  0  0  0  0  0  0  0  0  0  0  0
  188.4050  177.6330  144.2850 C   0  0  0  0  0  0  0  0  0  0  0  0
  188.9900  178.1300  139.6830 C   0  0  2  0  0  3  0  0  0  0  0  0
  186.7100  178.1890  138.7540 C   0  0  0  0  0  3  0  0  0  0  0  0
  190.0090  175.4760  138.1350 C   0  0  0  0  0  3  0  0  0  0  0  0
  186.2370  177.9460  146.0850 C   0  0  0  0  0  0  0  0  0  0  0  0
  188.4590  177.8500  137.1000 C   0  0  0  0  0  2  0  0  0  0  0  0
  183.9510  178.9050  139.3130 C   0  0  0  0  0  3  0  0  0  0  0  0
  184.8340  178.6260  140.3660 C   0  0  0  0  0  0  0  0  0  0  0  0
  186.1820  178.2860  140.1360 C   0  0  0  0  0  0  0  0  0  0  0  0
  185.2050  178.4080  142.7140 N   0  0  0  0  0  0  0  0  0  0  0  0
  193.4150  174.7490  137.5990 O   0  0  0  0  0  0  0  0  0  0  0  0
  187.5160  177.6510  146.5650 C   0  0  0  0  0  3  0  0  0  0  0  0
  192.0960  176.7540  137.8050 C   0  0  0  0  0  2  0  0  0  0  0  0
  191.1140  174.5520  137.9690 N   0  0  0  0  0  0  0  0  0  0  0  0
  188.0180  178.0710  138.5170 C   0  0  0  0  0  0  0  0  0  0  0  0
  188.5900  177.5040  145.6720 C   0  0  0  0  0  3  0  0  0  0  0  0
  190.4120  177.6220  139.4080 C   0  0  0  0  0  2  0  0  0  0  0  0
  190.5990  176.9010  138.0740 C   0  0  1  0  0  0  0  0  0  0  0  0
  183.0060  179.0020  141.9220 C   0  0  0  0  0  3  0  0  0  0  0  0
  184.3490  178.6760  141.6890 C   0  0  0  0  0  0  0  0  0  0  0  0
  184.9050  178.3890  144.0290 C   0  0  0  0  0  3  0  0  0  0  0  0
  188.4060  177.4540  140.9210 C   0  0  0  0  0  2  0  0  0  0  0  0
  189.6210  177.5520  143.4380 C   0  0  0  0  0  1  0  0  0  0  0  0
  185.1740  178.1100  146.9650 O   0  0  0  0  0  1  0  0  0  0  0  0
  186.5170  178.0980  142.5380 C   0  0  0  0  0  0  0  0  0  0  0  0
  186.0590  178.0730  144.7080 C   0  0  0  0  0  0  0  0  0  0  0  0
  1 19  1  0  0  0  0
  1 20  1  0  0  0  0
  2 12  1  0  0  0  0
  3 31  1  0  0  0  0
  4  5  1  0  0  0  0
  5 25  2  0  0  0  0
  6  7  1  0  0  0  0
  6 32  1  0  0  0  0
  7 22  2  0  0  0  0
  8 23  1  6  0  0  0
  8 28  1  0  0  0  0
  9 15  1  0  0  0  0
 11 18  2  0  0  0  0
 11 30  1  0  0  0  0
 12 21  1  0  0  0  0
 13  4  2  0  0  0  0
 13 14  1  0  0  0  0
 14 26  2  0  0  0  0
 15 14  1  0  0  0  0
 15  3  2  0  0  0  0
 16 27  1  0  0  0  0
 17  1  2  0  0  0  0
 19 24  1  0  0  0  0
 20 10  2  0  0  0  0
 21  9  2  0  0  0  0
 21  8  1  0  0  0  0
 22 18  1  0  0  0  0
 24  2  1  6  0  0  0
 24 10  1  0  0  0  0
 24 23  1  0  0  0  0
 26 25  1  0  0  0  0
 26 16  1  0  0  0  0
 27 32  2  0  0  0  0
 28  3  1  0  0  0  0
 29  7  1  0  0  0  0
 31 16  1  0  0  0  0
 31  6  2  0  0  0  0
 32 11  1  0  0  0  0
M  END
>  <MODEL>
3

>  <REMARK>
 VINA RESULT:     -10.2      1.437      2.263
  Name = 
  0 active torsions:
  status: ('A' for Active; 'I' for Inactive)
                            x       y       z     vdW  Elec       q    Type
                         _______ _______ _______ _____ _____    ______ ____

>  <TORSDO>
F 0

$$$$
=
 OpenBabel11052416493D

 32 38  0  0  1  0  0  0  0  0999 V2000
  188.4530  178.7820  136.3730 C   0  0  0  0  0  0  0  0  0  0  0  0
  190.2160  176.5440  138.3380 C   0  0  0  0  0  2  0  0  0  0  0  0
  188.3330  177.4690  143.0880 C   0  0  0  0  0  0  0  0  0  0  0  0
  192.0560  176.5020  146.0380 N   0  0  0  0  0  0  0  0  0  0  0  0
  191.2830  176.7570  147.1270 C   0  0  0  0  0  3  0  0  0  0  0  0
  186.1960  178.0610  144.4040 C   0  0  0  0  0  0  0  0  0  0  0  0
  185.0900  178.2530  143.5400 C   0  0  0  0  0  0  0  0  0  0  0  0
  188.4910  176.8020  140.6950 C   0  0  2  0  0  3  0  0  0  0  0  0
  190.5330  176.8450  142.0700 C   0  0  0  0  0  3  0  0  0  0  0  0
  189.4320  178.9580  138.4710 C   0  0  0  0  0  3  0  0  0  0  0  0
  184.8060  178.5660  146.3430 C   0  0  0  0  0  0  0  0  0  0  0  0
  190.9360  176.6370  139.6820 C   0  0  0  0  0  2  0  0  0  0  0  0
  191.5630  176.5980  144.7740 C   0  0  0  0  0  3  0  0  0  0  0  0
  190.2270  176.9650  144.5600 C   0  0  0  0  0  0  0  0  0  0  0  0
  189.6870  177.0850  143.2640 C   0  0  0  0  0  0  0  0  0  0  0  0
  188.1110  177.5880  145.4720 N   0  0  0  0  0  0  0  0  0  0  0  0
  188.0180  179.1410  135.2480 O   0  0  0  0  0  0  0  0  0  0  0  0
  183.7180  178.7880  145.4940 C   0  0  0  0  0  3  0  0  0  0  0  0
  188.4080  177.3920  136.8580 C   0  0  0  0  0  2  0  0  0  0  0  0
  189.0300  179.6880  137.2840 N   0  0  0  0  0  0  0  0  0  0  0  0
  190.0010  176.7530  140.8490 C   0  0  0  0  0  0  0  0  0  0  0  0
  183.8590  178.6250  144.1070 C   0  0  0  0  0  3  0  0  0  0  0  0
  187.9620  177.0670  139.2780 C   0  0  0  0  0  2  0  0  0  0  0  0
  189.0180  177.4870  138.2570 C   0  0  1  0  0  0  0  0  0  0  0  0
  189.9460  177.1280  146.9680 C   0  0  0  0  0  3  0  0  0  0  0  0
  189.4100  177.2340  145.6770 C   0  0  0  0  0  0  0  0  0  0  0  0
  187.2030  177.8990  146.4190 C   0  0  0  0  0  3  0  0  0  0  0  0
  187.8660  177.7720  141.6940 C   0  0  0  0  0  2  0  0  0  0  0  0
  185.1060  178.0170  142.0750 C   0  0  0  0  0  1  0  0  0  0  0  0
  184.6670  178.7080  147.7190 O   0  0  0  0  0  1  0  0  0  0  0  0
  187.5450  177.6930  144.2410 C   0  0  0  0  0  0  0  0  0  0  0  0
  186.0240  178.1960  145.7750 C   0  0  0  0  0  0  0  0  0  0  0  0
  1 19  1  0  0  0  0
  1 20  1  0  0  0  0
  2 12  1  0  0  0  0
  3 15  2  0  0  0  0
  3 31  1  0  0  0  0
  4  5  1  0  0  0  0
  6 32  1  0  0  0  0
  7 22  2  0  0  0  0
  7  6  1  0  0  0  0
  8 23  1  6  0  0  0
  8 21  1  0  0  0  0
  8 28  1  0  0  0  0
  9 15  1  0  0  0  0
 11 30  1  0  0  0  0
 12 21  1  0  0  0  0
 13  4  2  0  0  0  0
 14 13  1  0  0  0  0
 14 26  2  0  0  0  0
 15 14  1  0  0  0  0
 16 26  1  0  0  0  0
 16 27  1  0  0  0  0
 17  1  2  0  0  0  0
 18 11  2  0  0  0  0
 20 10  2  0  0  0  0
 21  9  2  0  0  0  0
 22 18  1  0  0  0  0
 24 19  1  6  0  0  0
 24  2  1  0  0  0  0
 24 10  1  0  0  0  0
 24 23  1  0  0  0  0
 25  5  2  0  0  0  0
 26 25  1  0  0  0  0
 28  3  1  0  0  0  0
 29  7  1  0  0  0  0
 31  6  2  0  0  0  0
 31 16  1  0  0  0  0
 32 11  1  0  0  0  0
 32 27  2  0  0  0  0
M  END
>  <MODEL>
4

>  <REMARK>
 VINA RESULT:     -10.1      2.235      4.825
  Name = 
  0 active torsions:
  status: ('A' for Active; 'I' for Inactive)
                            x       y       z     vdW  Elec       q    Type
                         _______ _______ _______ _____ _____    ______ ____

>  <TORSDO>
F 0

$$$$
=
 OpenBabel11052416493D

 32 38  0  0  1  0  0  0  0  0999 V2000
  183.8680  176.9940  136.1930 C   0  0  0  0  0  0  0  0  0  0  0  0
  182.8880  179.0070  138.8320 C   0  0  0  0  0  2  0  0  0  0  0  0
  186.5730  178.1150  142.3790 C   0  0  0  0  0  0  0  0  0  0  0  0
  184.2850  178.6590  146.6160 N   0  0  0  0  0  0  0  0  0  0  0  0
  185.4440  178.4420  147.2910 C   0  0  0  0  0  3  0  0  0  0  0  0
  189.0940  177.6770  142.7000 C   0  0  0  0  0  0  0  0  0  0  0  0
  189.7720  177.6090  141.4570 C   0  0  0  0  0  0  0  0  0  0  0  0
  185.4250  178.8350  140.2900 C   0  0  2  0  0  3  0  0  0  0  0  0
  184.1120  178.5700  142.3570 C   0  0  0  0  0  3  0  0  0  0  0  0
  183.8260  176.6700  138.4920 C   0  0  0  0  0  3  0  0  0  0  0  0
  191.1750  177.2400  143.8930 C   0  0  0  0  0  0  0  0  0  0  0  0
  182.7740  178.8110  140.3420 C   0  0  0  0  0  2  0  0  0  0  0  0
  184.2360  178.6440  145.2570 C   0  0  0  0  0  3  0  0  0  0  0  0
  185.3960  178.4040  144.5090 C   0  0  0  0  0  0  0  0  0  0  0  0
  185.3790  178.3710  143.1000 C   0  0  0  0  0  0  0  0  0  0  0  0
  187.7380  177.9460  144.4670 N   0  0  0  0  0  0  0  0  0  0  0  0
  183.8400  176.7080  134.9680 O   0  0  0  0  0  0  0  0  0  0  0  0
  191.8460  177.1410  142.6700 C   0  0  0  0  0  3  0  0  0  0  0  0
  184.0070  178.3680  136.7070 C   0  0  0  0  0  2  0  0  0  0  0  0
  183.7680  176.0140  137.2000 N   0  0  0  0  0  0  0  0  0  0  0  0
  184.1030  178.7450  141.0330 C   0  0  0  0  0  0  0  0  0  0  0  0
  191.1500  177.3310  141.4660 C   0  0  0  0  0  3  0  0  0  0  0  0
  185.3600  178.6590  138.7670 C   0  0  0  0  0  2  0  0  0  0  0  0
  184.0160  178.1780  138.2230 C   0  0  1  0  0  0  0  0  0  0  0  0
  186.6280  178.1960  146.5930 C   0  0  0  0  0  3  0  0  0  0  0  0
  186.6090  178.1770  145.1910 C   0  0  0  0  0  0  0  0  0  0  0  0
  188.9690  177.6890  144.9550 C   0  0  0  0  0  3  0  0  0  0  0  0
  186.4630  177.8950  140.8970 C   0  0  0  0  0  2  0  0  0  0  0  0
  189.1550  177.8860  140.1370 C   0  0  0  0  0  1  0  0  0  0  0  0
  191.8620  177.0700  145.0890 O   0  0  0  0  0  1  0  0  0  0  0  0
  187.7700  177.9270  143.1080 C   0  0  0  0  0  0  0  0  0  0  0  0
  189.8090  177.5170  143.8790 C   0  0  0  0  0  0  0  0  0  0  0  0
  1 19  1  0  0  0  0
  1 20  1  0  0  0  0
  2 12  1  0  0  0  0
  3 15  2  0  0  0  0
  3 31  1  0  0  0  0
  4  5  1  0  0  0  0
  6 31  2  0  0  0  0
  6 32  1  0  0  0  0
  7 22  2  0  0  0  0
  7  6  1  0  0  0  0
  8 23  1  6  0  0  0
  8 28  1  0  0  0  0
  8 21  1  0  0  0  0
  9 15  1  0  0  0  0
 11 30  1  0  0  0  0
 12 21  1  0  0  0  0
 13  4  2  0  0  0  0
 14 26  2  0  0  0  0
 14 13  1  0  0  0  0
 15 14  1  0  0  0  0
 16 27  1  0  0  0  0
 16 26  1  0  0  0  0
 17  1  2  0  0  0  0
 18 11  2  0  0  0  0
 20 10  2  0  0  0  0
 21  9  2  0  0  0  0
 22 18  1  0  0  0  0
 24 19  1  6  0  0  0
 24 10  1  0  0  0  0
 24 23  1  0  0  0  0
 24  2  1  0  0  0  0
 25  5  2  0  0  0  0
 26 25  1  0  0  0  0
 28  3  1  0  0  0  0
 29  7  1  0  0  0  0
 31 16  1  0  0  0  0
 32 11  1  0  0  0  0
 32 27  2  0  0  0  0
M  END
>  <MODEL>
5

>  <REMARK>
 VINA RESULT:      -9.6      3.037      4.913
  Name = 
  0 active torsions:
  status: ('A' for Active; 'I' for Inactive)
                            x       y       z     vdW  Elec       q    Type
                         _______ _______ _______ _____ _____    ______ ____

>  <TORSDO>
F 0

$$$$
=
 OpenBabel11052416493D

 32 38  0  0  1  0  0  0  0  0999 V2000
  180.4530  177.8150  136.7890 C   0  0  0  0  0  0  0  0  0  0  0  0
  180.5110  179.5990  139.7540 C   0  0  0  0  0  2  0  0  0  0  0  0
  185.1890  178.4440  141.6900 C   0  0  0  0  0  0  0  0  0  0  0  0
  184.5520  178.6240  146.4910 N   0  0  0  0  0  0  0  0  0  0  0  0
  185.8700  178.3610  146.6940 C   0  0  0  0  0  3  0  0  0  0  0  0
  187.6500  177.9990  141.0650 C   0  0  0  0  0  0  0  0  0  0  0  0
  187.8460  178.0380  139.6620 C   0  0  0  0  0  0  0  0  0  0  0  0
  183.3940  179.3250  140.2050 C   0  0  2  0  0  3  0  0  0  0  0  0
  182.8880  178.8830  142.5740 C   0  0  0  0  0  3  0  0  0  0  0  0
  181.2160  177.3040  138.9220 C   0  0  0  0  0  3  0  0  0  0  0  0
  190.0080  177.4800  141.4090 C   0  0  0  0  0  0  0  0  0  0  0  0
  180.9320  179.2790  141.1870 C   0  0  0  0  0  2  0  0  0  0  0  0
  184.0270  178.7210  145.2400 C   0  0  0  0  0  3  0  0  0  0  0  0
  184.8440  178.5500  144.1140 C   0  0  0  0  0  0  0  0  0  0  0  0
  184.3310  178.6330  142.8040 C   0  0  0  0  0  0  0  0  0  0  0  0
  187.0100  178.1130  143.2120 N   0  0  0  0  0  0  0  0  0  0  0  0
  179.9890  177.6310  135.6340 O   0  0  0  0  0  0  0  0  0  0  0  0
  190.2020  177.4850  140.0240 C   0  0  0  0  0  3  0  0  0  0  0  0
  180.7950  179.1430  137.3270 C   0  0  0  0  0  2  0  0  0  0  0  0
  180.6920  176.7560  137.6850 N   0  0  0  0  0  0  0  0  0  0  0  0
  182.4180  179.1660  141.3570 C   0  0  0  0  0  0  0  0  0  0  0  0
  189.1310  177.7690  139.1620 C   0  0  0  0  0  3  0  0  0  0  0  0
  182.7930  179.2750  138.7930 C   0  0  0  0  0  2  0  0  0  0  0  0
  181.3330  178.8300  138.7230 C   0  0  1  0  0  0  0  0  0  0  0  0
  186.7260  178.1810  145.6060 C   0  0  0  0  0  3  0  0  0  0  0  0
  186.2140  178.2760  144.3040 C   0  0  0  0  0  0  0  0  0  0  0  0
  188.3280  177.8250  143.2120 C   0  0  0  0  0  3  0  0  0  0  0  0
  184.5580  178.3460  140.3300 C   0  0  0  0  0  2  0  0  0  0  0  0
  186.8090  178.4170  138.6710 C   0  0  0  0  0  1  0  0  0  0  0  0
  191.0680  177.2180  142.2680 O   0  0  0  0  0  1  0  0  0  0  0  0
  186.5610  178.2060  141.9320 C   0  0  0  0  0  0  0  0  0  0  0  0
  188.7310  177.7480  141.8990 C   0  0  0  0  0  0  0  0  0  0  0  0
  1 19  1  0  0  0  0
  1 20  1  0  0  0  0
  2 12  1  0  0  0  0
  3 31  1  0  0  0  0
  3 15  2  0  0  0  0
  4  5  1  0  0  0  0
  6 32  1  0  0  0  0
  6 31  2  0  0  0  0
  7  6  1  0  0  0  0
  8 23  1  6  0  0  0
  8 28  1  0  0  0  0
  8 21  1  0  0  0  0
  9 15  1  0  0  0  0
 11 32  1  0  0  0  0
 11 30  1  0  0  0  0
 12 21  1  0  0  0  0
 13  4  2  0  0  0  0
 14 26  2  0  0  0  0
 14 13  1  0  0  0  0
 15 14  1  0  0  0  0
 16 27  1  0  0  0  0
 16 26  1  0  0  0  0
 17  1  2  0  0  0  0
 18 11  2  0  0  0  0
 20 10  2  0  0  0  0
 21  9  2  0  0  0  0
 22  7  2  0  0  0  0
 22 18  1  0  0  0  0
 24 19  1  6  0  0  0
 24 23  1  0  0  0  0
 24 10  1  0  0  0  0
 24  2  1  0  0  0  0
 25  5  2  0  0  0  0
 26 25  1  0  0  0  0
 28  3  1  0  0  0  0
 29  7  1  0  0  0  0
 31 16  1  0  0  0  0
 32 27  2  0  0  0  0
M  END
>  <MODEL>
6

>  <REMARK>
 VINA RESULT:      -9.5      3.902      6.904
  Name = 
  0 active torsions:
  status: ('A' for Active; 'I' for Inactive)
                            x       y       z     vdW  Elec       q    Type
                         _______ _______ _______ _____ _____    ______ ____

>  <TORSDO>
F 0

$$$$
=
 OpenBabel11052416493D

 32 38  0  0  1  0  0  0  0  0999 V2000
  180.3730  180.9930  138.5600 C   0  0  0  0  0  0  0  0  0  0  0  0
  182.7240  178.6730  137.5270 C   0  0  0  0  0  2  0  0  0  0  0  0
  185.8820  178.3430  141.6360 C   0  0  0  0  0  0  0  0  0  0  0  0
  190.2140  177.3300  139.7120 N   0  0  0  0  0  0  0  0  0  0  0  0
  190.7660  177.2490  140.9510 C   0  0  0  0  0  3  0  0  0  0  0  0
  185.9560  178.3500  144.2130 C   0  0  0  0  0  0  0  0  0  0  0  0
  184.6690  178.5570  144.7690 C   0  0  0  0  0  0  0  0  0  0  0  0
  183.8610  178.2030  140.1880 C   0  0  2  0  0  3  0  0  0  0  0  0
  186.0900  178.2530  139.1430 C   0  0  0  0  0  3  0  0  0  0  0  0
  182.6800  180.8750  138.7940 C   0  0  0  0  0  3  0  0  0  0  0  0
  186.9370  178.2520  146.4440 C   0  0  0  0  0  0  0  0  0  0  0  0
  184.2480  178.5920  137.5940 C   0  0  0  0  0  2  0  0  0  0  0  0
  188.8950  177.6100  139.5340 C   0  0  0  0  0  3  0  0  0  0  0  0
  188.0600  177.8220  140.6400 C   0  0  0  0  0  0  0  0  0  0  0  0
  186.6920  178.1250  140.4920 C   0  0  0  0  0  0  0  0  0  0  0  0
  187.8050  177.9440  143.0100 N   0  0  0  0  0  0  0  0  0  0  0  0
  179.2290  181.5080  138.4600 O   0  0  0  0  0  0  0  0  0  0  0  0
  185.6760  178.4870  146.9990 C   0  0  0  0  0  3  0  0  0  0  0  0
  180.6190  179.5410  138.5230 C   0  0  0  0  0  2  0  0  0  0  0  0
  181.5390  181.7670  138.7190 N   0  0  0  0  0  0  0  0  0  0  0  0
  184.7680  178.3360  138.9770 C   0  0  0  0  0  0  0  0  0  0  0  0
  184.5530  178.6300  146.1680 C   0  0  0  0  0  3  0  0  0  0  0  0
  182.4110  178.6730  140.0050 C   0  0  0  0  0  2  0  0  0  0  0  0
  182.1320  179.4350  138.7100 C   0  0  1  0  0  0  0  0  0  0  0  0
  189.9780  177.4520  142.0850 C   0  0  0  0  0  3  0  0  0  0  0  0
  188.6140  177.7410  141.9330 C   0  0  0  0  0  0  0  0  0  0  0  0
  188.1720  177.9260  144.3080 C   0  0  0  0  0  3  0  0  0  0  0  0
  184.4870  178.8540  141.4190 C   0  0  0  0  0  2  0  0  0  0  0  0
  183.4090  178.6270  143.9900 C   0  0  0  0  0  1  0  0  0  0  0  0
  188.0490  178.0920  147.2620 O   0  0  0  0  0  1  0  0  0  0  0  0
  186.4770  178.2170  142.9120 C   0  0  0  0  0  0  0  0  0  0  0  0
  187.0460  178.1800  145.0560 C   0  0  0  0  0  0  0  0  0  0  0  0
  1 20  1  0  0  0  0
  2 12  1  0  0  0  0
  3 31  1  0  0  0  0
  4  5  1  0  0  0  0
  5 25  2  0  0  0  0
  6  7  1  0  0  0  0
  6 32  1  0  0  0  0
  7 22  2  0  0  0  0
  8 23  1  6  0  0  0
  8 28  1  0  0  0  0
  9 15  1  0  0  0  0
 11 18  2  0  0  0  0
 11 30  1  0  0  0  0
 12 21  1  0  0  0  0
 13  4  2  0  0  0  0
 13 14  1  0  0  0  0
 14 26  2  0  0  0  0
 15 14  1  0  0  0  0
 15  3  2  0  0  0  0
 16 27  1  0  0  0  0
 17  1  2  0  0  0  0
 19  1  1  0  0  0  0
 19 24  1  0  0  0  0
 20 10  2  0  0  0  0
 21  9  2  0  0  0  0
 21  8  1  0  0  0  0
 22 18  1  0  0  0  0
 24  2  1  6  0  0  0
 24 10  1  0  0  0  0
 24 23  1  0  0  0  0
 26 25  1  0  0  0  0
 26 16  1  0  0  0  0
 27 32  2  0  0  0  0
 28  3  1  0  0  0  0
 29  7  1  0  0  0  0
 31 16  1  0  0  0  0
 31  6  2  0  0  0  0
 32 11  1  0  0  0  0
M  END
>  <MODEL>
7

>  <REMARK>
 VINA RESULT:      -9.5      3.673      6.875
  Name = 
  0 active torsions:
  status: ('A' for Active; 'I' for Inactive)
                            x       y       z     vdW  Elec       q    Type
                         _______ _______ _______ _____ _____    ______ ____

>  <TORSDO>
F 0

$$$$
