=
 OpenBabel11052412403D

 25 28  0  0  1  0  0  0  0  0999 V2000
  187.6980  178.0440  145.5650 C   0  0  0  0  0  0  0  0  0  0  0  0
  188.9950  177.6220  145.2750 C   0  0  0  0  0  0  0  0  0  0  0  0
  187.9260  177.4180  147.8890 C   0  0  0  0  0  3  0  0  0  0  0  0
  186.6900  178.7240  144.7100 C   0  0  2  0  0  3  0  0  0  0  0  0
  183.9010  178.6020  144.0030 C   0  0  0  0  0  3  0  0  0  0  0  0
  189.2300  176.9680  147.6230 C   0  0  0  0  0  3  0  0  0  0  0  0
  185.5680  178.8500  145.7090 C   0  0  0  0  0  0  0  0  0  0  0  0
  184.1920  179.0280  145.2390 C   0  0  0  0  0  3  0  0  0  0  0  0
  191.0750  176.6460  146.0160 C   0  0  0  0  0  0  0  0  0  0  0  0
  191.9680  176.0540  147.0550 C   0  0  0  0  0  1  0  0  0  0  0  0
  189.5130  177.7360  144.0250 N   0  0  0  0  0  0  0  0  0  0  0  0
  184.9290  177.9270  143.1660 C   0  0  0  0  0  3  0  0  0  0  0  0
  187.1910  177.9660  146.8390 C   0  0  0  0  0  0  0  0  0  0  0  0
  185.8530  178.4330  146.9040 N   0  0  0  0  0  0  0  0  0  0  0  0
  191.5440  176.7810  144.7470 N   0  0  0  0  0  0  0  0  0  0  0  0
  186.2250  177.9230  143.5220 C   0  0  0  0  0  3  0  0  0  0  0  0
  190.7760  177.3110  143.7580 C   0  0  0  0  0  0  0  0  0  0  0  0
  189.7730  177.0700  146.3210 C   0  0  0  0  0  0  0  0  0  0  0  0
  191.3340  177.4670  142.3890 C   0  0  0  0  0  2  0  0  0  0  0  0
  190.5580  176.6630  141.4490 N   0  0  0  0  0  2  0  0  0  0  0  0
  190.0770  177.4810  140.3310 C   0  0  2  0  0  3  0  0  0  0  0  0
  188.6310  177.9260  140.5140 C   0  0  0  0  0  1  0  0  0  0  0  0
  190.3220  176.8330  139.0010 C   0  0  0  0  0  0  0  0  0  0  0  0
  190.0610  177.5430  137.8370 O   0  0  0  0  0  0  0  0  0  0  0  0
  190.7920  175.6670  138.9290 O   0  0  0  0  0  1  0  0  0  0  0  0
  1 13  1  0  0  0  0
  2  1  2  0  0  0  0
  2 18  1  0  0  0  0
  4 16  1  6  0  0  0
  4  1  1  0  0  0  0
  4  7  1  0  0  0  0
  5  8  2  0  0  0  0
  6  3  1  0  0  0  0
  7 14  2  0  0  0  0
  8  7  1  0  0  0  0
  9 18  1  0  0  0  0
  9 10  1  0  0  0  0
 11  2  1  0  0  0  0
 12 16  2  0  0  0  0
 12  5  1  0  0  0  0
 13 14  1  0  0  0  0
 13  3  2  0  0  0  0
 15  9  2  0  0  0  0
 17 11  2  0  0  0  0
 17 15  1  0  0  0  0
 18  6  2  0  0  0  0
 19 17  1  0  0  0  0
 20 19  1  0  0  0  0
 21 22  1  1  0  0  0
 21 20  1  0  0  0  0
 23 21  1  0  0  0  0
 24 23  2  0  0  0  0
 25 23  1  0  0  0  0
M  END
>  <MODEL>
1

>  <REMARK>
 VINA RESULT:      -9.5      0.000      0.000
  Name = 
  4 active torsions:
  status: ('A' for Active; 'I' for Inactive)
    1  A    between atoms: C_2  and  CA_21
    2  A    between atoms: C_6  and  N_15
    3  A    between atoms: C_6  and  C_23
    4  A    between atoms: N_15  and  CA_21
                            x       y       z     vdW  Elec       q    Type
                         _______ _______ _______ _____ _____    ______ ____

>  <TORSDO>
F 4

$$$$
=
 OpenBabel11052412403D

 25 28  0  0  1  0  0  0  0  0999 V2000
  187.5820  177.6430  145.2190 C   0  0  0  0  0  0  0  0  0  0  0  0
  186.6990  178.0930  144.2370 C   0  0  0  0  0  0  0  0  0  0  0  0
  186.0140  178.1660  146.9840 C   0  0  0  0  0  3  0  0  0  0  0  0
  188.9120  176.9920  145.0970 C   0  0  2  0  0  3  0  0  0  0  0  0
  191.5780  177.1150  146.1800 C   0  0  0  0  0  3  0  0  0  0  0  0
  185.1110  178.6420  146.0180 C   0  0  0  0  0  3  0  0  0  0  0  0
  189.2290  176.8080  146.5590 C   0  0  0  0  0  0  0  0  0  0  0  0
  190.6210  176.6360  146.9850 C   0  0  0  0  0  3  0  0  0  0  0  0
  184.5660  179.0570  143.6470 C   0  0  0  0  0  0  0  0  0  0  0  0
  183.2210  179.6110  143.9830 C   0  0  0  0  0  1  0  0  0  0  0  0
  187.0220  178.0420  142.9190 N   0  0  0  0  0  0  0  0  0  0  0  0
  191.2310  177.8390  144.9280 C   0  0  0  0  0  3  0  0  0  0  0  0
  187.2370  177.6570  146.5490 C   0  0  0  0  0  0  0  0  0  0  0  0
  188.2860  177.1740  147.3710 N   0  0  0  0  0  0  0  0  0  0  0  0
  184.9400  178.9860  142.3420 N   0  0  0  0  0  0  0  0  0  0  0  0
  189.9750  177.8410  144.4490 C   0  0  0  0  0  3  0  0  0  0  0  0
  186.1540  178.4920  141.9760 C   0  0  0  0  0  0  0  0  0  0  0  0
  185.4440  178.6060  144.6440 C   0  0  0  0  0  0  0  0  0  0  0  0
  186.5140  178.4050  140.5370 C   0  0  0  0  0  2  0  0  0  0  0  0
  187.9070  178.8050  140.3560 N   0  0  0  0  0  2  0  0  0  0  0  0
  188.6680  177.7600  139.6660 C   0  0  2  0  0  3  0  0  0  0  0  0
  189.6860  177.0830  140.5770 C   0  0  0  0  0  1  0  0  0  0  0  0
  189.2700  178.2430  138.3810 C   0  0  0  0  0  0  0  0  0  0  0  0
  188.8930  179.4790  137.8730 O   0  0  0  0  0  1  0  0  0  0  0  0
  190.1360  177.5580  137.7750 O   0  0  0  0  0  0  0  0  0  0  0  0
  1 13  1  0  0  0  0
  2 18  1  0  0  0  0
  2  1  2  0  0  0  0
  4 16  1  1  0  0  0
  4  1  1  0  0  0  0
  4  7  1  0  0  0  0
  5  8  2  0  0  0  0
  6  3  1  0  0  0  0
  7  8  1  0  0  0  0
  7 14  2  0  0  0  0
  9 10  1  0  0  0  0
  9 18  1  0  0  0  0
 11  2  1  0  0  0  0
 12  5  1  0  0  0  0
 13  3  2  0  0  0  0
 13 14  1  0  0  0  0
 15  9  2  0  0  0  0
 16 12  2  0  0  0  0
 17 15  1  0  0  0  0
 17 11  2  0  0  0  0
 18  6  2  0  0  0  0
 19 17  1  0  0  0  0
 20 19  1  0  0  0  0
 21 20  1  0  0  0  0
 21 22  1  1  0  0  0
 23 21  1  0  0  0  0
 24 23  1  0  0  0  0
 25 23  2  0  0  0  0
M  END
>  <MODEL>
2

>  <REMARK>
 VINA RESULT:      -9.3      1.781      4.754
  Name = 
  4 active torsions:
  status: ('A' for Active; 'I' for Inactive)
    1  A    between atoms: C_2  and  CA_21
    2  A    between atoms: C_6  and  N_15
    3  A    between atoms: C_6  and  C_23
    4  A    between atoms: N_15  and  CA_21
                            x       y       z     vdW  Elec       q    Type
                         _______ _______ _______ _____ _____    ______ ____

>  <TORSDO>
F 4

$$$$
=
 OpenBabel11052412403D

 25 28  0  0  1  0  0  0  0  0999 V2000
  189.1000  177.1050  143.9160 C   0  0  0  0  0  0  0  0  0  0  0  0
  188.2830  177.4850  144.9820 C   0  0  0  0  0  0  0  0  0  0  0  0
  190.9960  176.7750  145.3780 C   0  0  0  0  0  3  0  0  0  0  0  0
  188.7780  176.8980  142.4800 C   0  0  2  0  0  3  0  0  0  0  0  0
  189.7580  177.5360  139.8480 C   0  0  0  0  0  3  0  0  0  0  0  0
  190.2030  177.1700  146.4690 C   0  0  0  0  0  3  0  0  0  0  0  0
  190.1440  176.5050  141.9780 C   0  0  0  0  0  0  0  0  0  0  0  0
  190.4650  176.6470  140.5560 C   0  0  0  0  0  3  0  0  0  0  0  0
  188.0170  177.9090  147.3430 C   0  0  0  0  0  0  0  0  0  0  0  0
  188.5230  177.9750  148.7460 C   0  0  0  0  0  1  0  0  0  0  0  0
  186.9790  177.8090  144.7930 N   0  0  0  0  0  0  0  0  0  0  0  0
  188.7220  178.3820  140.5010 C   0  0  0  0  0  3  0  0  0  0  0  0
  190.4090  176.7380  144.1150 C   0  0  0  0  0  0  0  0  0  0  0  0
  191.0550  176.4070  142.8970 N   0  0  0  0  0  0  0  0  0  0  0  0
  186.7180  178.2250  147.0990 N   0  0  0  0  0  0  0  0  0  0  0  0
  188.3050  178.1310  141.7540 C   0  0  0  0  0  3  0  0  0  0  0  0
  186.2000  178.1850  145.8420 C   0  0  0  0  0  0  0  0  0  0  0  0
  188.8470  177.5230  146.2800 C   0  0  0  0  0  0  0  0  0  0  0  0
  184.7680  178.5110  145.6190 C   0  0  0  0  0  2  0  0  0  0  0  0
  184.6610  179.7200  144.8060 N   0  0  0  0  0  2  0  0  0  0  0  0
  183.7490  179.5140  143.6770 C   0  0  2  0  0  3  0  0  0  0  0  0
  182.5190  178.7010  144.0620 C   0  0  0  0  0  1  0  0  0  0  0  0
  184.4480  178.9730  142.4670 C   0  0  0  0  0  0  0  0  0  0  0  0
  185.4460  179.7250  141.8610 O   0  0  0  0  0  0  0  0  0  0  0  0
  184.1650  177.8320  142.0140 O   0  0  0  0  0  1  0  0  0  0  0  0
  1 13  2  0  0  0  0
  1  2  1  0  0  0  0
  2 18  2  0  0  0  0
  3  6  2  0  0  0  0
  4 16  1  6  0  0  0
  4  1  1  0  0  0  0
  5 12  1  0  0  0  0
  5  8  2  0  0  0  0
  7  4  1  0  0  0  0
  7 14  2  0  0  0  0
  8  7  1  0  0  0  0
  9 10  1  0  0  0  0
 11  2  1  0  0  0  0
 11 17  2  0  0  0  0
 12 16  2  0  0  0  0
 13  3  1  0  0  0  0
 14 13  1  0  0  0  0
 15  9  2  0  0  0  0
 17 15  1  0  0  0  0
 18  6  1  0  0  0  0
 18  9  1  0  0  0  0
 19 17  1  0  0  0  0
 20 19  1  0  0  0  0
 21 22  1  1  0  0  0
 21 20  1  0  0  0  0
 23 21  1  0  0  0  0
 24 23  2  0  0  0  0
 25 23  1  0  0  0  0
M  END
>  <MODEL>
3

>  <REMARK>
 VINA RESULT:      -9.3      2.326      5.501
  Name = 
  4 active torsions:
  status: ('A' for Active; 'I' for Inactive)
    1  A    between atoms: C_2  and  CA_21
    2  A    between atoms: C_6  and  N_15
    3  A    between atoms: C_6  and  C_23
    4  A    between atoms: N_15  and  CA_21
                            x       y       z     vdW  Elec       q    Type
                         _______ _______ _______ _____ _____    ______ ____

>  <TORSDO>
F 4

$$$$
=
 OpenBabel11052412403D

 25 28  0  0  1  0  0  0  0  0999 V2000
  185.7350  178.5230  144.5870 C   0  0  0  0  0  0  0  0  0  0  0  0
  187.0520  178.0670  144.6440 C   0  0  0  0  0  0  0  0  0  0  0  0
  185.4770  178.3260  146.9830 C   0  0  0  0  0  3  0  0  0  0  0  0
  184.9370  179.0290  143.4410 C   0  0  2  0  0  3  0  0  0  0  0  0
  182.3430  178.7590  142.2190 C   0  0  0  0  0  3  0  0  0  0  0  0
  186.7960  177.8470  147.0690 C   0  0  0  0  0  3  0  0  0  0  0  0
  183.6420  179.3230  144.1540 C   0  0  0  0  0  0  0  0  0  0  0  0
  182.3930  179.4020  143.3920 C   0  0  0  0  0  3  0  0  0  0  0  0
  188.9150  177.2580  145.9500 C   0  0  0  0  0  0  0  0  0  0  0  0
  189.5650  176.8700  147.2360 C   0  0  0  0  0  1  0  0  0  0  0  0
  187.8120  177.9590  143.5240 N   0  0  0  0  0  0  0  0  0  0  0  0
  183.4990  177.9530  141.7400 C   0  0  0  0  0  3  0  0  0  0  0  0
  184.9820  178.6710  145.7270 C   0  0  0  0  0  0  0  0  0  0  0  0
  183.6710  179.1290  145.4370 N   0  0  0  0  0  0  0  0  0  0  0  0
  189.6310  177.1670  144.7980 N   0  0  0  0  0  0  0  0  0  0  0  0
  184.6970  178.0240  142.3440 C   0  0  0  0  0  3  0  0  0  0  0  0
  189.0910  177.5050  143.5960 C   0  0  0  0  0  0  0  0  0  0  0  0
  187.5900  177.7180  145.9060 C   0  0  0  0  0  0  0  0  0  0  0  0
  189.9150  177.4180  142.3620 C   0  0  0  0  0  2  0  0  0  0  0  0
  189.1770  176.6950  141.3300 N   0  0  0  0  0  2  0  0  0  0  0  0
  189.5160  177.1950  139.9950 C   0  0  2  0  0  3  0  0  0  0  0  0
  191.0060  177.4730  139.8370 C   0  0  0  0  0  1  0  0  0  0  0  0
  188.6610  178.3570  139.5850 C   0  0  0  0  0  0  0  0  0  0  0  0
  189.0830  179.1850  138.5540 O   0  0  0  0  0  0  0  0  0  0  0  0
  187.5510  178.5690  140.1420 O   0  0  0  0  0  1  0  0  0  0  0  0
  1  2  2  0  0  0  0
  1 13  1  0  0  0  0
  2 18  1  0  0  0  0
  3  6  1  0  0  0  0
  4 16  1  6  0  0  0
  4  7  1  0  0  0  0
  4  1  1  0  0  0  0
  5  8  2  0  0  0  0
  7 14  2  0  0  0  0
  8  7  1  0  0  0  0
  9 10  1  0  0  0  0
 11 17  2  0  0  0  0
 11  2  1  0  0  0  0
 12  5  1  0  0  0  0
 12 16  2  0  0  0  0
 13  3  2  0  0  0  0
 14 13  1  0  0  0  0
 15  9  2  0  0  0  0
 17 15  1  0  0  0  0
 18  9  1  0  0  0  0
 18  6  2  0  0  0  0
 19 17  1  0  0  0  0
 20 19  1  0  0  0  0
 21 22  1  1  0  0  0
 21 20  1  0  0  0  0
 23 21  1  0  0  0  0
 23 25  1  0  0  0  0
 24 23  2  0  0  0  0
M  END
>  <MODEL>
4

>  <REMARK>
 VINA RESULT:      -9.3      1.565      2.340
  Name = 
  4 active torsions:
  status: ('A' for Active; 'I' for Inactive)
    1  A    between atoms: C_2  and  CA_21
    2  A    between atoms: C_6  and  N_15
    3  A    between atoms: C_6  and  C_23
    4  A    between atoms: N_15  and  CA_21
                            x       y       z     vdW  Elec       q    Type
                         _______ _______ _______ _____ _____    ______ ____

>  <TORSDO>
F 4

$$$$
=
 OpenBabel11052412403D

 25 28  0  0  1  0  0  0  0  0999 V2000
  187.3740  177.7620  144.6040 C   0  0  0  0  0  0  0  0  0  0  0  0
  186.3370  178.1600  143.7590 C   0  0  0  0  0  0  0  0  0  0  0  0
  185.9870  178.0270  146.5660 C   0  0  0  0  0  3  0  0  0  0  0  0
  188.7380  177.2650  144.2900 C   0  0  2  0  0  3  0  0  0  0  0  0
  191.4890  177.6210  145.0630 C   0  0  0  0  0  3  0  0  0  0  0  0
  184.9300  178.4490  145.7410 C   0  0  0  0  0  3  0  0  0  0  0  0
  189.2470  177.0450  145.6910 C   0  0  0  0  0  0  0  0  0  0  0  0
  190.6900  177.0040  145.9430 C   0  0  0  0  0  3  0  0  0  0  0  0
  184.0620  178.9170  143.4790 C   0  0  0  0  0  0  0  0  0  0  0  0
  182.7190  179.3060  144.0000 C   0  0  0  0  0  1  0  0  0  0  0  0
  186.5020  178.2080  142.4120 N   0  0  0  0  0  0  0  0  0  0  0  0
  190.9210  178.3630  143.9050 C   0  0  0  0  0  3  0  0  0  0  0  0
  187.1930  177.6750  145.9630 C   0  0  0  0  0  0  0  0  0  0  0  0
  188.3780  177.2680  146.6280 N   0  0  0  0  0  0  0  0  0  0  0  0
  184.2800  178.9480  142.1380 N   0  0  0  0  0  0  0  0  0  0  0  0
  189.6230  178.2530  143.5750 C   0  0  0  0  0  3  0  0  0  0  0  0
  185.4840  178.6060  141.6050 C   0  0  0  0  0  0  0  0  0  0  0  0
  185.0960  178.5150  144.3390 C   0  0  0  0  0  0  0  0  0  0  0  0
  185.6750  178.6280  140.1310 C   0  0  0  0  0  2  0  0  0  0  0  0
  187.0980  178.5250  139.8190 N   0  0  0  0  0  2  0  0  0  0  0  0
  187.3020  178.0730  138.4400 C   0  0  2  0  0  3  0  0  0  0  0  0
  185.9900  177.8640  137.6940 C   0  0  0  0  0  1  0  0  0  0  0  0
  188.2130  176.8850  138.3570 C   0  0  0  0  0  0  0  0  0  0  0  0
  187.8730  175.8200  137.5330 O   0  0  0  0  0  0  0  0  0  0  0  0
  189.2970  176.8570  138.9980 O   0  0  0  0  0  1  0  0  0  0  0  0
  1 13  1  0  0  0  0
  2 18  1  0  0  0  0
  2  1  2  0  0  0  0
  4 16  1  1  0  0  0
  4  1  1  0  0  0  0
  4  7  1  0  0  0  0
  5  8  2  0  0  0  0
  6  3  1  0  0  0  0
  7  8  1  0  0  0  0
  7 14  2  0  0  0  0
  9 10  1  0  0  0  0
  9 18  1  0  0  0  0
 11  2  1  0  0  0  0
 12  5  1  0  0  0  0
 13  3  2  0  0  0  0
 13 14  1  0  0  0  0
 15  9  2  0  0  0  0
 16 12  2  0  0  0  0
 17 15  1  0  0  0  0
 17 11  2  0  0  0  0
 18  6  2  0  0  0  0
 19 17  1  0  0  0  0
 20 19  1  0  0  0  0
 21 22  1  1  0  0  0
 21 20  1  0  0  0  0
 23 21  1  0  0  0  0
 23 25  1  0  0  0  0
 24 23  2  0  0  0  0
M  END
>  <MODEL>
5

>  <REMARK>
 VINA RESULT:      -8.8      2.255      5.027
  Name = 
  4 active torsions:
  status: ('A' for Active; 'I' for Inactive)
    1  A    between atoms: C_2  and  CA_21
    2  A    between atoms: C_6  and  N_15
    3  A    between atoms: C_6  and  C_23
    4  A    between atoms: N_15  and  CA_21
                            x       y       z     vdW  Elec       q    Type
                         _______ _______ _______ _____ _____    ______ ____

>  <TORSDO>
F 4

$$$$
=
 OpenBabel11052412403D

 25 28  0  0  1  0  0  0  0  0999 V2000
  187.2920  177.7420  143.1190 C   0  0  0  0  0  0  0  0  0  0  0  0
  188.6210  177.4120  142.8490 C   0  0  0  0  0  0  0  0  0  0  0  0
  186.9590  178.5800  140.8760 C   0  0  0  0  0  3  0  0  0  0  0  0
  186.4660  177.5060  144.3310 C   0  0  2  0  0  3  0  0  0  0  0  0
  184.6270  178.8550  146.0900 C   0  0  0  0  0  3  0  0  0  0  0  0
  188.2980  178.2740  140.5800 C   0  0  0  0  0  3  0  0  0  0  0  0
  185.1730  178.1290  143.8710 C   0  0  0  0  0  0  0  0  0  0  0  0
  184.1850  178.5700  144.8590 C   0  0  0  0  0  3  0  0  0  0  0  0
  190.4710  177.3530  141.3000 C   0  0  0  0  0  0  0  0  0  0  0  0
  191.0970  177.6050  139.9680 C   0  0  0  0  0  1  0  0  0  0  0  0
  189.4110  176.8360  143.7900 N   0  0  0  0  0  0  0  0  0  0  0  0
  186.0760  178.7750  146.4190 C   0  0  0  0  0  3  0  0  0  0  0  0
  186.4820  178.2870  142.1520 C   0  0  0  0  0  0  0  0  0  0  0  0
  185.1810  178.5590  142.6460 N   0  0  0  0  0  0  0  0  0  0  0  0
  191.2200  176.7810  142.2800 N   0  0  0  0  0  0  0  0  0  0  0  0
  186.9520  178.2040  145.5750 C   0  0  0  0  0  3  0  0  0  0  0  0
  190.7060  176.5290  143.5130 C   0  0  0  0  0  0  0  0  0  0  0  0
  189.1330  177.6880  141.5590 C   0  0  0  0  0  0  0  0  0  0  0  0
  191.5480  175.8760  144.5490 C   0  0  0  0  0  2  0  0  0  0  0  0
  191.8160  176.8210  145.6300 N   0  0  0  0  0  2  0  0  0  0  0  0
  191.2870  176.3250  146.9040 C   0  0  2  0  0  3  0  0  0  0  0  0
  190.0200  177.0550  147.3330 C   0  0  0  0  0  1  0  0  0  0  0  0
  192.3300  176.2890  147.9810 C   0  0  0  0  0  0  0  0  0  0  0  0
  192.4610  177.3700  148.8410 O   0  0  0  0  0  1  0  0  0  0  0  0
  193.0630  175.2760  148.1350 O   0  0  0  0  0  0  0  0  0  0  0  0
  1  4  1  0  0  0  0
  2  1  1  0  0  0  0
  2 11  1  0  0  0  0
  3 13  1  0  0  0  0
  4 16  1  1  0  0  0
  5 12  1  0  0  0  0
  6  3  2  0  0  0  0
  6 18  1  0  0  0  0
  7  4  1  0  0  0  0
  7  8  1  0  0  0  0
  8  5  2  0  0  0  0
  9 18  1  0  0  0  0
  9 15  2  0  0  0  0
 10  9  1  0  0  0  0
 13 14  1  0  0  0  0
 13  1  2  0  0  0  0
 14  7  2  0  0  0  0
 15 17  1  0  0  0  0
 16 12  2  0  0  0  0
 17 11  2  0  0  0  0
 17 19  1  0  0  0  0
 18  2  2  0  0  0  0
 19 20  1  0  0  0  0
 20 21  1  0  0  0  0
 21 22  1  1  0  0  0
 21 23  1  0  0  0  0
 23 25  2  0  0  0  0
 23 24  1  0  0  0  0
M  END
>  <MODEL>
6

>  <REMARK>
 VINA RESULT:      -8.8      3.208      5.354
  Name = 
  4 active torsions:
  status: ('A' for Active; 'I' for Inactive)
    1  A    between atoms: C_2  and  CA_21
    2  A    between atoms: C_6  and  N_15
    3  A    between atoms: C_6  and  C_23
    4  A    between atoms: N_15  and  CA_21
                            x       y       z     vdW  Elec       q    Type
                         _______ _______ _______ _____ _____    ______ ____

>  <TORSDO>
F 4

$$$$
=
 OpenBabel11052412403D

 25 28  0  0  1  0  0  0  0  0999 V2000
  187.2700  177.8360  144.8130 C   0  0  0  0  0  0  0  0  0  0  0  0
  186.2830  178.2290  143.9080 C   0  0  0  0  0  0  0  0  0  0  0  0
  185.7960  178.1830  146.6980 C   0  0  0  0  0  3  0  0  0  0  0  0
  188.6380  177.3050  144.5790 C   0  0  2  0  0  3  0  0  0  0  0  0
  191.3550  177.6320  145.4740 C   0  0  0  0  0  3  0  0  0  0  0  0
  184.7890  178.6010  145.8110 C   0  0  0  0  0  3  0  0  0  0  0  0
  189.0750  177.1170  146.0090 C   0  0  0  0  0  0  0  0  0  0  0  0
  190.5030  177.0560  146.3310 C   0  0  0  0  0  3  0  0  0  0  0  0
  184.0400  179.0190  143.4980 C   0  0  0  0  0  0  0  0  0  0  0  0
  182.6810  179.4480  143.9420 C   0  0  0  0  0  1  0  0  0  0  0  0
  186.5120  178.2350  142.5700 N   0  0  0  0  0  0  0  0  0  0  0  0
  190.8580  178.3510  144.2700 C   0  0  0  0  0  3  0  0  0  0  0  0
  187.0230  177.7920  146.1630 C   0  0  0  0  0  0  0  0  0  0  0  0
  188.1660  177.3820  146.8960 N   0  0  0  0  0  0  0  0  0  0  0  0
  184.3220  179.0080  142.1680 N   0  0  0  0  0  0  0  0  0  0  0  0
  189.5760  178.2560  143.8810 C   0  0  0  0  0  3  0  0  0  0  0  0
  185.5430  178.6290  141.7040 C   0  0  0  0  0  0  0  0  0  0  0  0
  185.0230  178.6230  144.4170 C   0  0  0  0  0  0  0  0  0  0  0  0
  185.8040  178.6040  140.2410 C   0  0  0  0  0  2  0  0  0  0  0  0
  187.2440  178.6280  140.0000 N   0  0  0  0  0  2  0  0  0  0  0  0
  187.6120  177.7040  138.9220 C   0  0  2  0  0  3  0  0  0  0  0  0
  189.0400  177.1890  139.0580 C   0  0  0  0  0  1  0  0  0  0  0  0
  187.3240  178.2680  137.5630 C   0  0  0  0  0  0  0  0  0  0  0  0
  186.4340  177.6100  136.7250 O   0  0  0  0  0  0  0  0  0  0  0  0
  187.8540  179.3470  137.1860 O   0  0  0  0  0  1  0  0  0  0  0  0
  1 13  1  0  0  0  0
  2 18  1  0  0  0  0
  2  1  2  0  0  0  0
  4 16  1  1  0  0  0
  4  1  1  0  0  0  0
  4  7  1  0  0  0  0
  5  8  2  0  0  0  0
  6  3  1  0  0  0  0
  7  8  1  0  0  0  0
  7 14  2  0  0  0  0
  9 10  1  0  0  0  0
  9 18  1  0  0  0  0
 11  2  1  0  0  0  0
 12  5  1  0  0  0  0
 13  3  2  0  0  0  0
 13 14  1  0  0  0  0
 15  9  2  0  0  0  0
 16 12  2  0  0  0  0
 17 15  1  0  0  0  0
 17 11  2  0  0  0  0
 18  6  2  0  0  0  0
 19 17  1  0  0  0  0
 20 19  1  0  0  0  0
 21 22  1  6  0  0  0
 21 20  1  0  0  0  0
 23 21  1  0  0  0  0
 24 23  2  0  0  0  0
 25 23  1  0  0  0  0
M  END
>  <MODEL>
7

>  <REMARK>
 VINA RESULT:      -8.7      2.236      5.081
  Name = 
  4 active torsions:
  status: ('A' for Active; 'I' for Inactive)
    1  A    between atoms: C_2  and  CA_21
    2  A    between atoms: C_6  and  N_15
    3  A    between atoms: C_6  and  C_23
    4  A    between atoms: N_15  and  CA_21
                            x       y       z     vdW  Elec       q    Type
                         _______ _______ _______ _____ _____    ______ ____

>  <TORSDO>
F 4

$$$$
=
 OpenBabel11052412403D

 25 28  0  0  1  0  0  0  0  0999 V2000
  185.3950  178.5220  143.8210 C   0  0  0  0  0  0  0  0  0  0  0  0
  186.7060  178.1110  143.5760 C   0  0  0  0  0  0  0  0  0  0  0  0
  185.6440  178.1780  146.2010 C   0  0  0  0  0  3  0  0  0  0  0  0
  184.3650  179.0630  142.8970 C   0  0  2  0  0  3  0  0  0  0  0  0
  181.5820  178.7700  142.2200 C   0  0  0  0  0  3  0  0  0  0  0  0
  186.9620  177.7430  145.9830 C   0  0  0  0  0  3  0  0  0  0  0  0
  183.2400  179.2690  143.8780 C   0  0  0  0  0  0  0  0  0  0  0  0
  181.8590  179.3460  143.3960 C   0  0  0  0  0  3  0  0  0  0  0  0
  188.8170  177.2960  144.4180 C   0  0  0  0  0  0  0  0  0  0  0  0
  189.7290  176.8590  145.5160 C   0  0  0  0  0  1  0  0  0  0  0  0
  187.2190  178.0950  142.3200 N   0  0  0  0  0  0  0  0  0  0  0  0
  182.6310  178.0350  141.4630 C   0  0  0  0  0  3  0  0  0  0  0  0
  184.8910  178.5760  145.0980 C   0  0  0  0  0  0  0  0  0  0  0  0
  183.5390  179.0030  145.1130 N   0  0  0  0  0  0  0  0  0  0  0  0
  189.2810  177.2970  143.1400 N   0  0  0  0  0  0  0  0  0  0  0  0
  183.9270  178.1150  141.8110 C   0  0  0  0  0  3  0  0  0  0  0  0
  188.4960  177.6840  142.0990 C   0  0  0  0  0  0  0  0  0  0  0  0
  187.5010  177.7100  144.6770 C   0  0  0  0  0  0  0  0  0  0  0  0
  189.0480  177.6970  140.7190 C   0  0  0  0  0  2  0  0  0  0  0  0
  188.2800  178.6230  139.8920 N   0  0  0  0  0  2  0  0  0  0  0  0
  188.0180  178.0520  138.5680 C   0  0  2  0  0  3  0  0  0  0  0  0
  188.9420  178.6170  137.4960 C   0  0  0  0  0  1  0  0  0  0  0  0
  186.5700  178.1300  138.1870 C   0  0  0  0  0  0  0  0  0  0  0  0
  186.1270  177.4730  137.0470 O   0  0  0  0  0  0  0  0  0  0  0  0
  185.7460  178.7550  138.9070 O   0  0  0  0  0  1  0  0  0  0  0  0
  1 13  1  0  0  0  0
  2  1  2  0  0  0  0
  2 18  1  0  0  0  0
  4 16  1  6  0  0  0
  4  1  1  0  0  0  0
  4  7  1  0  0  0  0
  5  8  2  0  0  0  0
  6  3  1  0  0  0  0
  7 14  2  0  0  0  0
  8  7  1  0  0  0  0
  9 18  1  0  0  0  0
  9 10  1  0  0  0  0
 11  2  1  0  0  0  0
 12 16  2  0  0  0  0
 12  5  1  0  0  0  0
 13 14  1  0  0  0  0
 13  3  2  0  0  0  0
 15  9  2  0  0  0  0
 17 11  2  0  0  0  0
 17 15  1  0  0  0  0
 18  6  2  0  0  0  0
 19 17  1  0  0  0  0
 20 19  1  0  0  0  0
 21 22  1  6  0  0  0
 21 20  1  0  0  0  0
 23 21  1  0  0  0  0
 23 25  1  0  0  0  0
 24 23  2  0  0  0  0
M  END
>  <MODEL>
8

>  <REMARK>
 VINA RESULT:      -8.7      2.231      3.203
  Name = 
  4 active torsions:
  status: ('A' for Active; 'I' for Inactive)
    1  A    between atoms: C_2  and  CA_21
    2  A    between atoms: C_6  and  N_15
    3  A    between atoms: C_6  and  C_23
    4  A    between atoms: N_15  and  CA_21
                            x       y       z     vdW  Elec       q    Type
                         _______ _______ _______ _____ _____    ______ ____

>  <TORSDO>
F 4

$$$$
=
 OpenBabel11052412403D

 25 28  0  0  1  0  0  0  0  0999 V2000
  189.6470  177.9110  142.1370 C   0  0  0  0  0  0  0  0  0  0  0  0
  188.5820  178.0900  141.2540 C   0  0  0  0  0  0  0  0  0  0  0  0
  191.1250  177.2350  140.3470 C   0  0  0  0  0  3  0  0  0  0  0  0
  189.7500  178.1840  143.5940 C   0  0  2  0  0  3  0  0  0  0  0  0
  190.6750  176.9810  146.0420 C   0  0  0  0  0  3  0  0  0  0  0  0
  190.0660  177.3900  139.4370 C   0  0  0  0  0  3  0  0  0  0  0  0
  191.1740  177.7470  143.8250 C   0  0  0  0  0  0  0  0  0  0  0  0
  191.6130  177.3800  145.1740 C   0  0  0  0  0  3  0  0  0  0  0  0
  187.7150  178.0020  139.0030 C   0  0  0  0  0  0  0  0  0  0  0  0
  187.8460  177.7440  137.5390 C   0  0  0  0  0  1  0  0  0  0  0  0
  187.3690  178.5160  141.6880 N   0  0  0  0  0  0  0  0  0  0  0  0
  189.2510  176.8680  145.6280 C   0  0  0  0  0  3  0  0  0  0  0  0
  190.8860  177.5190  141.6900 C   0  0  0  0  0  0  0  0  0  0  0  0
  191.8130  177.3830  142.7560 N   0  0  0  0  0  0  0  0  0  0  0  0
  186.5190  178.4280  139.4900 N   0  0  0  0  0  0  0  0  0  0  0  0
  188.8220  177.3690  144.4580 C   0  0  0  0  0  3  0  0  0  0  0  0
  186.3390  178.6780  140.8150 C   0  0  0  0  0  0  0  0  0  0  0  0
  188.7940  177.8200  139.8810 C   0  0  0  0  0  0  0  0  0  0  0  0
  185.0250  179.1690  141.3050 C   0  0  0  0  0  2  0  0  0  0  0  0
  185.1380  179.5540  142.7090 N   0  0  0  0  0  2  0  0  0  0  0  0
  184.2630  178.7320  143.5510 C   0  0  2  0  0  3  0  0  0  0  0  0
  182.7870  178.9300  143.2260 C   0  0  0  0  0  1  0  0  0  0  0  0
  184.5630  178.8890  145.0120 C   0  0  0  0  0  0  0  0  0  0  0  0
  185.8820  178.8720  145.4440 O   0  0  0  0  0  0  0  0  0  0  0  0
  183.6350  179.0690  145.8450 O   0  0  0  0  0  1  0  0  0  0  0  0
  1  4  1  0  0  0  0
  2 11  1  0  0  0  0
  2  1  2  0  0  0  0
  3 13  2  0  0  0  0
  4  7  1  0  0  0  0
  4 16  1  1  0  0  0
  6 18  2  0  0  0  0
  6  3  1  0  0  0  0
  7  8  1  0  0  0  0
  8  5  2  0  0  0  0
  9 15  2  0  0  0  0
  9 18  1  0  0  0  0
 10  9  1  0  0  0  0
 12  5  1  0  0  0  0
 13  1  1  0  0  0  0
 13 14  1  0  0  0  0
 14  7  2  0  0  0  0
 15 17  1  0  0  0  0
 16 12  2  0  0  0  0
 17 19  1  0  0  0  0
 17 11  2  0  0  0  0
 18  2  1  0  0  0  0
 19 20  1  0  0  0  0
 20 21  1  0  0  0  0
 21 22  1  1  0  0  0
 21 23  1  0  0  0  0
 23 24  2  0  0  0  0
 23 25  1  0  0  0  0
M  END
>  <MODEL>
9

>  <REMARK>
 VINA RESULT:      -8.7      3.343      6.921
  Name = 
  4 active torsions:
  status: ('A' for Active; 'I' for Inactive)
    1  A    between atoms: C_2  and  CA_21
    2  A    between atoms: C_6  and  N_15
    3  A    between atoms: C_6  and  C_23
    4  A    between atoms: N_15  and  CA_21
                            x       y       z     vdW  Elec       q    Type
                         _______ _______ _______ _____ _____    ______ ____

>  <TORSDO>
F 4

$$$$
