=
 OpenBabel11052413163D

 31 34  0  0  1  0  0  0  0  0999 V2000
  192.0160  176.3640  146.8450 C   0  0  1  0  0  3  0  0  0  0  0  0
  189.6810  177.6370  144.1280 C   0  0  0  0  0  0  0  0  0  0  0  0
  190.4130  177.5270  142.8320 C   0  0  0  0  0  0  0  0  0  0  0  0
  192.4150  177.7080  141.4870 C   0  0  0  0  0  3  0  0  0  0  0  0
  190.2520  177.4150  145.3430 C   0  0  0  0  0  0  0  0  0  0  0  0
  190.7580  175.9280  147.5720 C   0  0  0  0  0  2  0  0  0  0  0  0
  191.7790  177.8160  142.7230 C   0  0  0  0  0  3  0  0  0  0  0  0
  187.3660  177.7810  145.2850 C   0  0  1  0  0  3  0  0  0  0  0  0
  192.8850  175.2950  146.7280 F   0  0  0  0  0  0  0  0  0  0  0  0
  188.1940  176.9640  141.7320 C   0  0  0  0  0  2  0  0  0  0  0  0
  191.7090  177.3370  140.3880 N   0  0  0  0  0  0  0  0  0  0  0  0
  188.0050  176.9320  146.3710 C   0  0  0  0  0  2  0  0  0  0  0  0
  188.1710  177.7390  143.9700 C   0  0  2  0  0  3  0  0  0  0  0  0
  191.6640  176.8890  145.4580 C   0  0  0  0  0  2  0  0  0  0  0  0
  189.6670  176.6860  139.1910 C   0  0  0  0  0  1  0  0  0  0  0  0
  189.3880  177.5120  146.5950 C   0  0  1  0  0  3  0  0  0  0  0  0
  189.9660  177.0630  147.8090 O   0  0  0  0  0  0  0  0  0  0  0  0
  187.7310  176.6590  143.0880 N   0  0  0  0  0  2  0  0  0  0  0  0
  189.6960  177.1560  141.6730 C   0  0  0  0  0  0  0  0  0  0  0  0
  190.3780  177.0660  140.4460 C   0  0  0  0  0  0  0  0  0  0  0  0
  185.8900  177.4450  145.0920 C   0  0  0  0  0  2  0  0  0  0  0  0
  185.1220  179.7510  145.4190 C   0  0  0  0  0  2  0  0  0  0  0  0
  185.1140  178.6500  144.6650 C   0  0  0  0  0  0  0  0  0  0  0  0
  183.1870  179.4760  143.5180 O   0  0  0  0  0  1  0  0  0  0  0  0
  184.2240  178.5390  143.4620 C   0  0  1  0  0  3  0  0  0  0  0  0
  185.6990  179.8740  142.1040 O   0  0  0  0  0  1  0  0  0  0  0  0
  185.0150  178.6570  142.1570 C   0  0  2  0  0  3  0  0  0  0  0  0
  184.0930  178.5400  140.9520 C   0  0  0  0  0  2  0  0  0  0  0  0
  184.7450  179.1060  139.7350 C   0  0  0  0  0  0  0  0  0  0  0  0
  184.2100  180.2300  139.1200 O   0  0  0  0  0  0  0  0  0  0  0  0
  185.7950  178.5810  139.2830 O   0  0  0  0  0  1  0  0  0  0  0  0
  1  9  1  6  0  0  0
  1  6  1  0  0  0  0
  2  5  2  0  0  0  0
  3  2  1  0  0  0  0
  4  7  2  0  0  0  0
  5 14  1  0  0  0  0
  5 16  1  0  0  0  0
  6 17  1  0  0  0  0
  7  3  1  0  0  0  0
  8 21  1  6  0  0  0
  8 12  1  0  0  0  0
 10 18  1  0  0  0  0
 11 20  2  0  0  0  0
 11  4  1  0  0  0  0
 13 18  1  6  0  0  0
 13  2  1  0  0  0  0
 13  8  1  0  0  0  0
 14  1  1  0  0  0  0
 15 20  1  0  0  0  0
 16 12  1  6  0  0  0
 16 17  1  0  0  0  0
 19 10  1  0  0  0  0
 19  3  2  0  0  0  0
 20 19  1  0  0  0  0
 23 21  1  0  0  0  0
 23 22  2  0  0  0  0
 25 24  1  1  0  0  0
 25 23  1  0  0  0  0
 27 26  1  1  0  0  0
 27 25  1  0  0  0  0
 28 27  1  0  0  0  0
 29 28  1  0  0  0  0
 30 29  2  0  0  0  0
 31 29  1  0  0  0  0
M  END
>  <MODEL>
1

>  <REMARK>
 VINA RESULT:      -8.8      0.000      0.000
  Name = 
  6 active torsions:
  status: ('A' for Active; 'I' for Inactive)
    1  A    between atoms: C_1  and  C_24
    2  A    between atoms: C_9  and  C_22
    3  A    between atoms: C_9  and  C_23
    4  A    between atoms: C_15  and  C_23
    5  A    between atoms: C_19  and  C_22
    6  A    between atoms: C_19  and  C_24
                            x       y       z     vdW  Elec       q    Type
                         _______ _______ _______ _____ _____    ______ ____

>  <TORSDO>
F 6

$$$$
=
 OpenBabel11052413163D

 31 34  0  0  1  0  0  0  0  0999 V2000
  191.8930  176.4890  146.7670 C   0  0  1  0  0  3  0  0  0  0  0  0
  189.6900  177.7410  143.9320 C   0  0  0  0  0  0  0  0  0  0  0  0
  190.4750  177.6030  142.6710 C   0  0  0  0  0  0  0  0  0  0  0  0
  192.5340  177.7430  141.4100 C   0  0  0  0  0  3  0  0  0  0  0  0
  190.2060  177.5330  145.1730 C   0  0  0  0  0  0  0  0  0  0  0  0
  190.6010  176.0780  147.4460 C   0  0  0  0  0  2  0  0  0  0  0  0
  191.8480  177.8760  142.6160 C   0  0  0  0  0  3  0  0  0  0  0  0
  187.3290  177.9250  144.9870 C   0  0  1  0  0  3  0  0  0  0  0  0
  192.7550  175.4110  146.7040 F   0  0  0  0  0  0  0  0  0  0  0  0
  188.2990  177.0440  141.4860 C   0  0  0  0  0  2  0  0  0  0  0  0
  191.8720  177.3600  140.2870 N   0  0  0  0  0  0  0  0  0  0  0  0
  187.9130  177.0880  146.1120 C   0  0  0  0  0  2  0  0  0  0  0  0
  188.1890  177.8550  143.7080 C   0  0  2  0  0  3  0  0  0  0  0  0
  191.6060  176.9950  145.3570 C   0  0  0  0  0  2  0  0  0  0  0  0
  189.8770  176.7100  139.0140 C   0  0  0  0  0  1  0  0  0  0  0  0
  189.2910  177.6580  146.3860 C   0  0  1  0  0  3  0  0  0  0  0  0
  189.8120  177.2240  147.6300 O   0  0  0  0  0  0  0  0  0  0  0  0
  187.7760  176.7650  142.8250 N   0  0  0  0  0  2  0  0  0  0  0  0
  189.8040  177.2200  141.4870 C   0  0  0  0  0  0  0  0  0  0  0  0
  190.5370  177.1030  140.2930 C   0  0  0  0  0  0  0  0  0  0  0  0
  185.8590  177.6010  144.7360 C   0  0  0  0  0  2  0  0  0  0  0  0
  184.7500  179.0310  146.3910 C   0  0  0  0  0  2  0  0  0  0  0  0
  184.9810  178.7540  145.1060 C   0  0  0  0  0  0  0  0  0  0  0  0
  185.1470  179.8690  142.9990 O   0  0  0  0  0  1  0  0  0  0  0  0
  184.2620  179.4860  144.0120 C   0  0  1  0  0  3  0  0  0  0  0  0
  183.0170  178.8040  142.0660 O   0  0  0  0  0  1  0  0  0  0  0  0
  183.0930  178.6710  143.4550 C   0  0  2  0  0  3  0  0  0  0  0  0
  181.7770  179.1110  144.0780 C   0  0  0  0  0  2  0  0  0  0  0  0
  180.7140  179.2270  143.0380 C   0  0  0  0  0  0  0  0  0  0  0  0
  180.1410  178.0820  142.5010 O   0  0  0  0  0  0  0  0  0  0  0  0
  180.3180  180.3620  142.6690 O   0  0  0  0  0  1  0  0  0  0  0  0
  1  9  1  6  0  0  0
  1  6  1  0  0  0  0
  2  5  2  0  0  0  0
  3  2  1  0  0  0  0
  4  7  2  0  0  0  0
  5 14  1  0  0  0  0
  5 16  1  0  0  0  0
  6 17  1  0  0  0  0
  7  3  1  0  0  0  0
  8 21  1  6  0  0  0
  8 12  1  0  0  0  0
 10 19  1  0  0  0  0
 10 18  1  0  0  0  0
 11 20  2  0  0  0  0
 11  4  1  0  0  0  0
 13 18  1  1  0  0  0
 13  2  1  0  0  0  0
 13  8  1  0  0  0  0
 14  1  1  0  0  0  0
 15 20  1  0  0  0  0
 16 12  1  6  0  0  0
 16 17  1  0  0  0  0
 19  3  2  0  0  0  0
 20 19  1  0  0  0  0
 21 23  1  0  0  0  0
 23 22  2  0  0  0  0
 25 24  1  6  0  0  0
 25 23  1  0  0  0  0
 27 26  1  6  0  0  0
 27 25  1  0  0  0  0
 27 28  1  0  0  0  0
 29 28  1  0  0  0  0
 30 29  2  0  0  0  0
 31 29  1  0  0  0  0
M  END
>  <MODEL>
2

>  <REMARK>
 VINA RESULT:      -8.2      1.436      2.142
  Name = 
  6 active torsions:
  status: ('A' for Active; 'I' for Inactive)
    1  A    between atoms: C_1  and  C_24
    2  A    between atoms: C_9  and  C_22
    3  A    between atoms: C_9  and  C_23
    4  A    between atoms: C_15  and  C_23
    5  A    between atoms: C_19  and  C_22
    6  A    between atoms: C_19  and  C_24
                            x       y       z     vdW  Elec       q    Type
                         _______ _______ _______ _____ _____    ______ ____

>  <TORSDO>
F 6

$$$$
=
 OpenBabel11052413163D

 31 34  0  0  1  0  0  0  0  0999 V2000
  191.3050  177.4020  144.3950 C   0  0  1  0  0  3  0  0  0  0  0  0
  187.8890  177.4600  142.7260 C   0  0  0  0  0  0  0  0  0  0  0  0
  186.8850  177.7610  143.7890 C   0  0  0  0  0  0  0  0  0  0  0  0
  186.0150  177.5290  146.0340 C   0  0  0  0  0  3  0  0  0  0  0  0
  189.2030  177.2110  142.9730 C   0  0  0  0  0  0  0  0  0  0  0  0
  191.8450  177.8830  143.0620 C   0  0  0  0  0  2  0  0  0  0  0  0
  186.9850  177.2250  145.0800 C   0  0  0  0  0  3  0  0  0  0  0  0
  188.4140  177.5070  140.1880 C   0  0  1  0  0  3  0  0  0  0  0  0
  191.7250  178.2480  145.4040 F   0  0  0  0  0  0  0  0  0  0  0  0
  185.5740  179.0690  142.0520 C   0  0  0  0  0  2  0  0  0  0  0  0
  184.9680  178.3310  145.7110 N   0  0  0  0  0  0  0  0  0  0  0  0
  189.8250  177.8660  140.6230 C   0  0  0  0  0  2  0  0  0  0  0  0
  187.3860  177.7330  141.3170 C   0  0  2  0  0  3  0  0  0  0  0  0
  189.7810  177.3680  144.3610 C   0  0  0  0  0  2  0  0  0  0  0  0
  183.6340  179.7100  144.1810 C   0  0  0  0  0  1  0  0  0  0  0  0
  190.1430  176.9630  141.7990 C   0  0  1  0  0  3  0  0  0  0  0  0
  191.5300  176.9250  142.0840 O   0  0  0  0  0  0  0  0  0  0  0  0
  186.8230  179.0830  141.2870 N   0  0  0  0  0  2  0  0  0  0  0  0
  185.7800  178.5820  143.4710 C   0  0  0  0  0  0  0  0  0  0  0  0
  184.8230  178.8560  144.4650 C   0  0  0  0  0  0  0  0  0  0  0  0
  188.0260  178.1940  138.8820 C   0  0  0  0  0  2  0  0  0  0  0  0
  189.1650  178.6210  136.7520 C   0  0  0  0  0  2  0  0  0  0  0  0
  188.9370  177.7860  137.7680 C   0  0  0  0  0  0  0  0  0  0  0  0
  188.5840  175.5270  137.0740 O   0  0  0  0  0  1  0  0  0  0  0  0
  189.4610  176.3800  137.7490 C   0  0  1  0  0  3  0  0  0  0  0  0
  190.8900  175.5140  136.0140 O   0  0  0  0  0  1  0  0  0  0  0  0
  190.8740  176.3080  137.1640 C   0  0  2  0  0  3  0  0  0  0  0  0
  191.8550  175.7460  138.1810 C   0  0  0  0  0  2  0  0  0  0  0  0
  193.1140  176.5470  138.1950 C   0  0  0  0  0  0  0  0  0  0  0  0
  193.5630  177.1150  139.3790 O   0  0  0  0  0  1  0  0  0  0  0  0
  193.7830  176.6830  137.1390 O   0  0  0  0  0  0  0  0  0  0  0  0
  1  9  1  1  0  0  0
  2  5  2  0  0  0  0
  2  3  1  0  0  0  0
  3  7  1  0  0  0  0
  5 14  1  0  0  0  0
  6  1  1  0  0  0  0
  7  4  2  0  0  0  0
  8 21  1  6  0  0  0
  8 12  1  0  0  0  0
  8 13  1  0  0  0  0
 10 19  1  0  0  0  0
 11  4  1  0  0  0  0
 13 18  1  1  0  0  0
 13  2  1  0  0  0  0
 14  1  1  0  0  0  0
 15 20  1  0  0  0  0
 16 12  1  6  0  0  0
 16 17  1  0  0  0  0
 16  5  1  0  0  0  0
 17  6  1  0  0  0  0
 18 10  1  0  0  0  0
 19  3  2  0  0  0  0
 19 20  1  0  0  0  0
 20 11  2  0  0  0  0
 22 23  2  0  0  0  0
 23 21  1  0  0  0  0
 25 24  1  6  0  0  0
 25 23  1  0  0  0  0
 27 26  1  6  0  0  0
 27 25  1  0  0  0  0
 27 28  1  0  0  0  0
 28 29  1  0  0  0  0
 29 30  1  0  0  0  0
 31 29  2  0  0  0  0
M  END
>  <MODEL>
3

>  <REMARK>
 VINA RESULT:      -8.1      3.316      6.614
  Name = 
  6 active torsions:
  status: ('A' for Active; 'I' for Inactive)
    1  A    between atoms: C_1  and  C_24
    2  A    between atoms: C_9  and  C_22
    3  A    between atoms: C_9  and  C_23
    4  A    between atoms: C_15  and  C_23
    5  A    between atoms: C_19  and  C_22
    6  A    between atoms: C_19  and  C_24
                            x       y       z     vdW  Elec       q    Type
                         _______ _______ _______ _____ _____    ______ ____

>  <TORSDO>
F 6

$$$$
=
 OpenBabel11052413163D

 31 34  0  0  1  0  0  0  0  0999 V2000
  179.5490  179.4590  141.2380 C   0  0  1  0  0  3  0  0  0  0  0  0
  183.1360  178.2010  141.1730 C   0  0  0  0  0  0  0  0  0  0  0  0
  183.4930  177.9650  139.7440 C   0  0  0  0  0  0  0  0  0  0  0  0
  182.9680  177.2110  137.5060 C   0  0  0  0  0  3  0  0  0  0  0  0
  181.8820  178.5120  141.6000 C   0  0  0  0  0  0  0  0  0  0  0  0
  179.9540  180.2260  142.4830 C   0  0  0  0  0  2  0  0  0  0  0  0
  182.5820  177.4220  138.8290 C   0  0  0  0  0  3  0  0  0  0  0  0
  184.0240  178.6660  143.5640 C   0  0  1  0  0  3  0  0  0  0  0  0
  178.9780  180.3210  140.3210 F   0  0  0  0  0  0  0  0  0  0  0  0
  185.8500  178.7310  140.3020 C   0  0  0  0  0  2  0  0  0  0  0  0
  184.2300  177.5200  137.1070 N   0  0  0  0  0  0  0  0  0  0  0  0
  182.7970  179.5510  143.7030 C   0  0  0  0  0  2  0  0  0  0  0  0
  184.3420  178.3470  142.0880 C   0  0  2  0  0  3  0  0  0  0  0  0
  180.7680  178.7870  140.6170 C   0  0  0  0  0  2  0  0  0  0  0  0
  186.5220  178.3220  137.4580 C   0  0  0  0  0  1  0  0  0  0  0  0
  181.6500  178.7770  143.0830 C   0  0  1  0  0  3  0  0  0  0  0  0
  180.3870  179.3050  143.4500 O   0  0  0  0  0  0  0  0  0  0  0  0
  185.2480  179.3310  141.4950 N   0  0  0  0  0  2  0  0  0  0  0  0
  184.8040  178.2650  139.3090 C   0  0  0  0  0  0  0  0  0  0  0  0
  185.1500  178.0300  137.9670 C   0  0  0  0  0  0  0  0  0  0  0  0
  185.2220  179.2250  144.3260 C   0  0  0  0  0  2  0  0  0  0  0  0
  185.0650  178.3760  146.6210 C   0  0  0  0  0  2  0  0  0  0  0  0
  185.6440  178.2990  145.4210 C   0  0  0  0  0  0  0  0  0  0  0  0
  187.0490  177.2230  143.8150 O   0  0  0  0  0  1  0  0  0  0  0  0
  186.8190  177.3970  145.1830 C   0  0  1  0  0  3  0  0  0  0  0  0
  189.1020  178.1380  144.9880 O   0  0  0  0  0  1  0  0  0  0  0  0
  188.0750  177.8960  145.9020 C   0  0  2  0  0  3  0  0  0  0  0  0
  188.5450  176.8850  146.9380 C   0  0  0  0  0  2  0  0  0  0  0  0
  189.6250  177.4660  147.7870 C   0  0  0  0  0  0  0  0  0  0  0  0
  190.9260  176.9940  147.6750 O   0  0  0  0  0  0  0  0  0  0  0  0
  189.3620  178.4040  148.5830 O   0  0  0  0  0  1  0  0  0  0  0  0
  1  9  1  6  0  0  0
  1  6  1  0  0  0  0
  2  5  2  0  0  0  0
  3  2  1  0  0  0  0
  4  7  1  0  0  0  0
  5 16  1  0  0  0  0
  6 17  1  0  0  0  0
  7  3  2  0  0  0  0
  8 12  1  0  0  0  0
  8 21  1  6  0  0  0
 10 18  1  0  0  0  0
 11  4  2  0  0  0  0
 11 20  1  0  0  0  0
 13  2  1  6  0  0  0
 13  8  1  0  0  0  0
 14  1  1  0  0  0  0
 14  5  1  0  0  0  0
 15 20  1  0  0  0  0
 16 17  1  0  0  0  0
 16 12  1  6  0  0  0
 18 13  1  0  0  0  0
 19  3  1  0  0  0  0
 19 10  1  0  0  0  0
 20 19  2  0  0  0  0
 21 23  1  0  0  0  0
 23 22  2  0  0  0  0
 25 24  1  6  0  0  0
 25 23  1  0  0  0  0
 25 27  1  0  0  0  0
 27 26  1  6  0  0  0
 27 28  1  0  0  0  0
 28 29  1  0  0  0  0
 29 31  1  0  0  0  0
 30 29  2  0  0  0  0
M  END
>  <MODEL>
4

>  <REMARK>
 VINA RESULT:      -8.0      4.365      8.162
  Name = 
  6 active torsions:
  status: ('A' for Active; 'I' for Inactive)
    1  A    between atoms: C_1  and  C_24
    2  A    between atoms: C_9  and  C_22
    3  A    between atoms: C_9  and  C_23
    4  A    between atoms: C_15  and  C_23
    5  A    between atoms: C_19  and  C_22
    6  A    between atoms: C_19  and  C_24
                            x       y       z     vdW  Elec       q    Type
                         _______ _______ _______ _____ _____    ______ ____

>  <TORSDO>
F 6

$$$$
=
 OpenBabel11052413163D

 31 34  0  0  1  0  0  0  0  0999 V2000
  188.1280  177.0760  137.4380 C   0  0  1  0  0  3  0  0  0  0  0  0
  186.5950  178.5950  140.5690 C   0  0  0  0  0  0  0  0  0  0  0  0
  185.1540  178.8450  140.2760 C   0  0  0  0  0  0  0  0  0  0  0  0
  183.3610  179.5400  138.8090 C   0  0  0  0  0  3  0  0  0  0  0  0
  187.5010  178.1960  139.6360 C   0  0  0  0  0  0  0  0  0  0  0  0
  189.0700  176.3510  138.3820 C   0  0  0  0  0  2  0  0  0  0  0  0
  184.7180  179.3120  139.0290 C   0  0  0  0  0  3  0  0  0  0  0  0
  188.3820  178.2160  142.4080 C   0  0  1  0  0  3  0  0  0  0  0  0
  187.5140  176.1670  136.5980 F   0  0  0  0  0  0  0  0  0  0  0  0
  184.6550  178.2600  142.6960 C   0  0  0  0  0  2  0  0  0  0  0  0
  182.4630  179.3230  139.8040 N   0  0  0  0  0  0  0  0  0  0  0  0
  189.0010  177.2440  141.4190 C   0  0  0  0  0  2  0  0  0  0  0  0
  186.9170  178.5450  142.0550 C   0  0  2  0  0  3  0  0  0  0  0  0
  187.0690  177.8310  138.2340 C   0  0  0  0  0  2  0  0  0  0  0  0
  181.8020  178.6940  142.0820 C   0  0  0  0  0  1  0  0  0  0  0  0
  188.9380  177.9260  140.0660 C   0  0  1  0  0  3  0  0  0  0  0  0
  189.7880  177.3090  139.1150 O   0  0  0  0  0  0  0  0  0  0  0  0
  185.9760  177.6270  142.6950 N   0  0  0  0  0  2  0  0  0  0  0  0
  184.2030  178.6390  141.3010 C   0  0  0  0  0  0  0  0  0  0  0  0
  182.8450  178.8880  141.0340 C   0  0  0  0  0  0  0  0  0  0  0  0
  188.5580  177.7530  143.8520 C   0  0  0  0  0  2  0  0  0  0  0  0
  190.6570  179.0170  143.9560 C   0  0  0  0  0  2  0  0  0  0  0  0
  189.9740  177.9250  144.3040 C   0  0  0  0  0  0  0  0  0  0  0  0
  191.8290  176.4220  144.3870 O   0  0  0  0  0  1  0  0  0  0  0  0
  190.6390  176.7890  145.0220 C   0  0  1  0  0  3  0  0  0  0  0  0
  192.0950  176.5890  146.9310 O   0  0  0  0  0  1  0  0  0  0  0  0
  190.8710  177.1080  146.5010 C   0  0  2  0  0  3  0  0  0  0  0  0
  189.7500  176.5430  147.3610 C   0  0  0  0  0  2  0  0  0  0  0  0
  188.8210  177.6270  147.7930 C   0  0  0  0  0  0  0  0  0  0  0  0
  187.5510  177.7140  147.2400 O   0  0  0  0  0  0  0  0  0  0  0  0
  189.1790  178.4450  148.6790 O   0  0  0  0  0  1  0  0  0  0  0  0
  1  9  1  6  0  0  0
  1 14  1  0  0  0  0
  1  6  1  0  0  0  0
  3  2  1  0  0  0  0
  3 19  1  0  0  0  0
  4  7  1  0  0  0  0
  4 11  2  0  0  0  0
  5 16  1  0  0  0  0
  5  2  2  0  0  0  0
  6 17  1  0  0  0  0
  7  3  2  0  0  0  0
  8 21  1  1  0  0  0
 11 20  1  0  0  0  0
 12  8  1  0  0  0  0
 13  2  1  6  0  0  0
 13  8  1  0  0  0  0
 13 18  1  0  0  0  0
 14  5  1  0  0  0  0
 16 12  1  1  0  0  0
 17 16  1  0  0  0  0
 18 10  1  0  0  0  0
 19 10  1  0  0  0  0
 20 19  2  0  0  0  0
 20 15  1  0  0  0  0
 21 23  1  0  0  0  0
 22 23  2  0  0  0  0
 23 25  1  0  0  0  0
 25 24  1  6  0  0  0
 25 27  1  0  0  0  0
 27 26  1  1  0  0  0
 27 28  1  0  0  0  0
 28 29  1  0  0  0  0
 29 31  1  0  0  0  0
 30 29  2  0  0  0  0
M  END
>  <MODEL>
5

>  <REMARK>
 VINA RESULT:      -8.0      3.429      7.544
  Name = 
  6 active torsions:
  status: ('A' for Active; 'I' for Inactive)
    1  A    between atoms: C_1  and  C_24
    2  A    between atoms: C_9  and  C_22
    3  A    between atoms: C_9  and  C_23
    4  A    between atoms: C_15  and  C_23
    5  A    between atoms: C_19  and  C_22
    6  A    between atoms: C_19  and  C_24
                            x       y       z     vdW  Elec       q    Type
                         _______ _______ _______ _____ _____    ______ ____

>  <TORSDO>
F 6

$$$$
=
 OpenBabel11052413163D

 31 34  0  0  1  0  0  0  0  0999 V2000
  190.6770  177.0330  146.5880 C   0  0  1  0  0  3  0  0  0  0  0  0
  187.8760  177.1530  144.0200 C   0  0  0  0  0  0  0  0  0  0  0  0
  186.6610  177.6660  144.7180 C   0  0  0  0  0  0  0  0  0  0  0  0
  185.1910  177.7910  146.6350 C   0  0  0  0  0  3  0  0  0  0  0  0
  189.0370  176.8320  144.6530 C   0  0  0  0  0  0  0  0  0  0  0  0
  191.6120  177.2950  145.4220 C   0  0  0  0  0  2  0  0  0  0  0  0
  186.3440  177.2920  146.0300 C   0  0  0  0  0  3  0  0  0  0  0  0
  189.0760  176.8350  141.7440 C   0  0  1  0  0  3  0  0  0  0  0  0
  190.8990  177.9630  147.5860 F   0  0  0  0  0  0  0  0  0  0  0  0
  186.0310  178.8450  142.5590 C   0  0  0  0  0  2  0  0  0  0  0  0
  184.3700  178.6280  145.9490 N   0  0  0  0  0  0  0  0  0  0  0  0
  190.3460  177.1320  142.5250 C   0  0  0  0  0  2  0  0  0  0  0  0
  187.8120  177.2850  142.5060 C   0  0  2  0  0  3  0  0  0  0  0  0
  189.2270  177.1160  146.1260 C   0  0  0  0  0  2  0  0  0  0  0  0
  183.6680  179.9040  143.9740 C   0  0  0  0  0  1  0  0  0  0  0  0
  190.2270  176.3620  143.8250 C   0  0  1  0  0  3  0  0  0  0  0  0
  191.4700  176.2490  144.4960 O   0  0  0  0  0  0  0  0  0  0  0  0
  187.4350  178.6610  142.1830 N   0  0  0  0  0  2  0  0  0  0  0  0
  185.7850  178.5260  144.0190 C   0  0  0  0  0  0  0  0  0  0  0  0
  184.6300  179.0000  144.6680 C   0  0  0  0  0  0  0  0  0  0  0  0
  189.1410  177.3800  140.3200 C   0  0  0  0  0  2  0  0  0  0  0  0
  191.5690  177.1100  140.1010 C   0  0  0  0  0  2  0  0  0  0  0  0
  190.3520  176.8740  139.6040 C   0  0  0  0  0  0  0  0  0  0  0  0
  190.5660  174.8920  138.2860 O   0  0  0  0  0  1  0  0  0  0  0  0
  190.1750  176.2340  138.2590 C   0  0  1  0  0  3  0  0  0  0  0  0
  188.2510  175.1650  137.2790 O   0  0  0  0  0  1  0  0  0  0  0  0
  188.7430  176.3890  137.7400 C   0  0  2  0  0  3  0  0  0  0  0  0
  188.6790  177.4160  136.6200 C   0  0  0  0  0  2  0  0  0  0  0  0
  188.2140  178.7340  137.1400 C   0  0  0  0  0  0  0  0  0  0  0  0
  186.8550  179.0050  137.2290 O   0  0  0  0  0  0  0  0  0  0  0  0
  189.0520  179.5880  137.5260 O   0  0  0  0  0  1  0  0  0  0  0  0
  1  9  1  1  0  0  0
  2  5  2  0  0  0  0
  2  3  1  0  0  0  0
  3  7  1  0  0  0  0
  5 14  1  0  0  0  0
  6  1  1  0  0  0  0
  7  4  2  0  0  0  0
  8 21  1  6  0  0  0
  8 13  1  0  0  0  0
  8 12  1  0  0  0  0
 10 19  1  0  0  0  0
 11  4  1  0  0  0  0
 13 18  1  1  0  0  0
 13  2  1  0  0  0  0
 14  1  1  0  0  0  0
 15 20  1  0  0  0  0
 16 12  1  6  0  0  0
 16 17  1  0  0  0  0
 16  5  1  0  0  0  0
 17  6  1  0  0  0  0
 18 10  1  0  0  0  0
 19 20  1  0  0  0  0
 19  3  2  0  0  0  0
 20 11  2  0  0  0  0
 23 22  2  0  0  0  0
 23 21  1  0  0  0  0
 25 24  1  1  0  0  0
 25 23  1  0  0  0  0
 27 26  1  6  0  0  0
 27 25  1  0  0  0  0
 28 29  1  0  0  0  0
 28 27  1  0  0  0  0
 29 30  2  0  0  0  0
 29 31  1  0  0  0  0
M  END
>  <MODEL>
6

>  <REMARK>
 VINA RESULT:      -8.0      2.487      5.664
  Name = 
  6 active torsions:
  status: ('A' for Active; 'I' for Inactive)
    1  A    between atoms: C_1  and  C_24
    2  A    between atoms: C_9  and  C_22
    3  A    between atoms: C_9  and  C_23
    4  A    between atoms: C_15  and  C_23
    5  A    between atoms: C_19  and  C_22
    6  A    between atoms: C_19  and  C_24
                            x       y       z     vdW  Elec       q    Type
                         _______ _______ _______ _____ _____    ______ ____

>  <TORSDO>
F 6

$$$$
=
 OpenBabel11052413163D

 31 34  0  0  1  0  0  0  0  0999 V2000
  187.7280  177.3490  137.6830 C   0  0  1  0  0  3  0  0  0  0  0  0
  188.1880  178.1380  141.3740 C   0  0  0  0  0  0  0  0  0  0  0  0
  186.8340  178.4190  141.9360 C   0  0  0  0  0  0  0  0  0  0  0  0
  184.6180  179.3780  141.7940 C   0  0  0  0  0  3  0  0  0  0  0  0
  188.4380  177.9640  140.0480 C   0  0  0  0  0  0  0  0  0  0  0  0
  188.9460  176.4570  137.8330 C   0  0  0  0  0  2  0  0  0  0  0  0
  185.8650  179.1330  141.2200 C   0  0  0  0  0  3  0  0  0  0  0  0
  190.6220  177.4100  141.8890 C   0  0  1  0  0  3  0  0  0  0  0  0
  186.6830  176.6290  137.1360 F   0  0  0  0  0  0  0  0  0  0  0  0
  187.6040  177.3230  144.0940 C   0  0  0  0  0  2  0  0  0  0  0  0
  184.3470  178.9370  143.0490 N   0  0  0  0  0  0  0  0  0  0  0  0
  190.5430  176.6820  140.5570 C   0  0  0  0  0  2  0  0  0  0  0  0
  189.2250  177.7800  142.4280 C   0  0  2  0  0  3  0  0  0  0  0  0
  187.3110  177.8980  139.0430 C   0  0  0  0  0  2  0  0  0  0  0  0
  184.9010  177.8260  145.1660 C   0  0  0  0  0  1  0  0  0  0  0  0
  189.8570  177.6350  139.5990 C   0  0  1  0  0  3  0  0  0  0  0  0
  190.0280  177.2500  138.2460 O   0  0  0  0  0  0  0  0  0  0  0  0
  188.6660  176.7290  143.2780 N   0  0  0  0  0  2  0  0  0  0  0  0
  186.5350  177.9820  143.2460 C   0  0  0  0  0  0  0  0  0  0  0  0
  185.2660  178.2570  143.7860 C   0  0  0  0  0  0  0  0  0  0  0  0
  191.4730  176.6530  142.9050 C   0  0  0  0  0  2  0  0  0  0  0  0
  191.6790  178.5790  144.4090 C   0  0  0  0  0  2  0  0  0  0  0  0
  191.3880  177.2860  144.2570 C   0  0  0  0  0  0  0  0  0  0  0  0
  192.2030  175.5720  145.7100 O   0  0  0  0  0  1  0  0  0  0  0  0
  191.1140  176.4080  145.4430 C   0  0  1  0  0  3  0  0  0  0  0  0
  191.7030  177.1280  147.6650 O   0  0  0  0  0  1  0  0  0  0  0  0
  190.7200  177.2250  146.6760 C   0  0  2  0  0  3  0  0  0  0  0  0
  189.3880  176.7520  147.2380 C   0  0  0  0  0  2  0  0  0  0  0  0
  188.6540  177.8850  147.8730 C   0  0  0  0  0  0  0  0  0  0  0  0
  189.2410  178.5980  148.9100 O   0  0  0  0  0  1  0  0  0  0  0  0
  187.5160  178.2120  147.4500 O   0  0  0  0  0  0  0  0  0  0  0  0
  1  9  1  1  0  0  0
  1  6  1  0  0  0  0
  1 14  1  0  0  0  0
  2  3  1  0  0  0  0
  3 19  1  0  0  0  0
  4 11  2  0  0  0  0
  5  2  2  0  0  0  0
  6 17  1  0  0  0  0
  7  4  1  0  0  0  0
  7  3  2  0  0  0  0
  8 13  1  0  0  0  0
  8 21  1  1  0  0  0
 11 20  1  0  0  0  0
 12  8  1  0  0  0  0
 13  2  1  6  0  0  0
 13 18  1  0  0  0  0
 14  5  1  0  0  0  0
 16  5  1  0  0  0  0
 16 12  1  1  0  0  0
 17 16  1  0  0  0  0
 18 10  1  0  0  0  0
 19 20  2  0  0  0  0
 19 10  1  0  0  0  0
 20 15  1  0  0  0  0
 21 23  1  0  0  0  0
 23 22  2  0  0  0  0
 23 25  1  0  0  0  0
 25 24  1  1  0  0  0
 25 27  1  0  0  0  0
 27 28  1  0  0  0  0
 27 26  1  1  0  0  0
 28 29  1  0  0  0  0
 29 30  1  0  0  0  0
 31 29  2  0  0  0  0
M  END
>  <MODEL>
7

>  <REMARK>
 VINA RESULT:      -7.8      3.252      7.406
  Name = 
  6 active torsions:
  status: ('A' for Active; 'I' for Inactive)
    1  A    between atoms: C_1  and  C_24
    2  A    between atoms: C_9  and  C_22
    3  A    between atoms: C_9  and  C_23
    4  A    between atoms: C_15  and  C_23
    5  A    between atoms: C_19  and  C_22
    6  A    between atoms: C_19  and  C_24
                            x       y       z     vdW  Elec       q    Type
                         _______ _______ _______ _____ _____    ______ ____

>  <TORSDO>
F 6

$$$$
=
 OpenBabel11052413163D

 31 34  0  0  1  0  0  0  0  0999 V2000
  191.3120  177.2470  144.2230 C   0  0  1  0  0  3  0  0  0  0  0  0
  187.8630  177.4460  142.6350 C   0  0  0  0  0  0  0  0  0  0  0  0
  186.8930  177.7530  143.7270 C   0  0  0  0  0  0  0  0  0  0  0  0
  186.0670  177.4980  145.9860 C   0  0  0  0  0  3  0  0  0  0  0  0
  189.1740  177.1510  142.8460 C   0  0  0  0  0  0  0  0  0  0  0  0
  191.8370  177.7400  142.8880 C   0  0  0  0  0  2  0  0  0  0  0  0
  187.0060  177.1870  145.0030 C   0  0  0  0  0  3  0  0  0  0  0  0
  188.3320  177.5330  140.0880 C   0  0  1  0  0  3  0  0  0  0  0  0
  191.7810  178.0570  145.2400 F   0  0  0  0  0  0  0  0  0  0  0  0
  185.5850  179.1390  142.0490 C   0  0  0  0  0  2  0  0  0  0  0  0
  185.0390  178.3390  145.7040 N   0  0  0  0  0  0  0  0  0  0  0  0
  189.7630  177.8390  140.4970 C   0  0  0  0  0  2  0  0  0  0  0  0
  187.3380  177.7650  141.2440 C   0  0  2  0  0  3  0  0  0  0  0  0
  189.7870  177.2600  144.2240 C   0  0  0  0  0  2  0  0  0  0  0  0
  183.7130  179.7910  144.2360 C   0  0  0  0  0  1  0  0  0  0  0  0
  190.0790  176.9010  141.6450 C   0  0  1  0  0  3  0  0  0  0  0  0
  191.4710  176.8140  141.8980 O   0  0  0  0  0  0  0  0  0  0  0  0
  186.8160  179.1320  141.2560 N   0  0  0  0  0  2  0  0  0  0  0  0
  185.8070  178.6140  143.4530 C   0  0  0  0  0  0  0  0  0  0  0  0
  184.8820  178.8950  144.4740 C   0  0  0  0  0  0  0  0  0  0  0  0
  187.9370  178.2600  138.8050 C   0  0  0  0  0  2  0  0  0  0  0  0
  187.8340  176.2010  137.4760 C   0  0  0  0  0  2  0  0  0  0  0  0
  187.2430  177.3370  137.8540 C   0  0  0  0  0  0  0  0  0  0  0  0
  185.8350  177.3100  135.9240 O   0  0  0  0  0  1  0  0  0  0  0  0
  185.9530  177.7850  137.2340 C   0  0  1  0  0  3  0  0  0  0  0  0
  184.3110  176.1000  137.7520 O   0  0  0  0  0  1  0  0  0  0  0  0
  184.7440  177.3850  138.0850 C   0  0  2  0  0  3  0  0  0  0  0  0
  183.6000  178.3700  137.8980 C   0  0  0  0  0  2  0  0  0  0  0  0
  183.5540  179.3430  139.0280 C   0  0  0  0  0  0  0  0  0  0  0  0
  182.7230  179.1060  140.1150 O   0  0  0  0  0  1  0  0  0  0  0  0
  184.2900  180.3630  139.0090 O   0  0  0  0  0  0  0  0  0  0  0  0
  1 14  1  0  0  0  0
  1  9  1  1  0  0  0
  2  5  2  0  0  0  0
  2  3  1  0  0  0  0
  3  7  1  0  0  0  0
  5 14  1  0  0  0  0
  6  1  1  0  0  0  0
  7  4  2  0  0  0  0
  8 21  1  6  0  0  0
  8 12  1  0  0  0  0
  8 13  1  0  0  0  0
 10 19  1  0  0  0  0
 11  4  1  0  0  0  0
 13 18  1  1  0  0  0
 13  2  1  0  0  0  0
 15 20  1  0  0  0  0
 16 12  1  6  0  0  0
 16 17  1  0  0  0  0
 16  5  1  0  0  0  0
 17  6  1  0  0  0  0
 18 10  1  0  0  0  0
 19  3  2  0  0  0  0
 19 20  1  0  0  0  0
 20 11  2  0  0  0  0
 22 23  2  0  0  0  0
 23 21  1  0  0  0  0
 25 24  1  6  0  0  0
 25 23  1  0  0  0  0
 25 27  1  0  0  0  0
 27 26  1  6  0  0  0
 28 27  1  0  0  0  0
 28 29  1  0  0  0  0
 29 30  1  0  0  0  0
 31 29  2  0  0  0  0
M  END
>  <MODEL>
8

>  <REMARK>
 VINA RESULT:      -7.8      2.353      5.407
  Name = 
  6 active torsions:
  status: ('A' for Active; 'I' for Inactive)
    1  A    between atoms: C_1  and  C_24
    2  A    between atoms: C_9  and  C_22
    3  A    between atoms: C_9  and  C_23
    4  A    between atoms: C_15  and  C_23
    5  A    between atoms: C_19  and  C_22
    6  A    between atoms: C_19  and  C_24
                            x       y       z     vdW  Elec       q    Type
                         _______ _______ _______ _____ _____    ______ ____

>  <TORSDO>
F 6

$$$$
=
 OpenBabel11052413163D

 31 34  0  0  1  0  0  0  0  0999 V2000
  182.5710  177.9940  140.1980 C   0  0  1  0  0  3  0  0  0  0  0  0
  185.8550  178.6850  141.9850 C   0  0  0  0  0  0  0  0  0  0  0  0
  185.5860  178.5960  143.4500 C   0  0  0  0  0  0  0  0  0  0  0  0
  184.2040  178.9880  145.3960 C   0  0  0  0  0  3  0  0  0  0  0  0
  184.8850  178.6440  141.0320 C   0  0  0  0  0  0  0  0  0  0  0  0
  183.4230  177.4210  139.0810 C   0  0  0  0  0  2  0  0  0  0  0  0
  184.4030  179.0860  144.0200 C   0  0  0  0  0  3  0  0  0  0  0  0
  187.6450  178.5510  140.1150 C   0  0  1  0  0  3  0  0  0  0  0  0
  181.6200  177.0680  140.5850 F   0  0  0  0  0  0  0  0  0  0  0  0
  187.9120  177.6160  143.7240 C   0  0  0  0  0  2  0  0  0  0  0  0
  185.1600  178.4320  146.1850 N   0  0  0  0  0  0  0  0  0  0  0  0
  186.5470  177.8940  139.2960 C   0  0  0  0  0  2  0  0  0  0  0  0
  187.3260  178.5390  141.6240 C   0  0  2  0  0  3  0  0  0  0  0  0
  183.4470  178.3550  141.3930 C   0  0  0  0  0  2  0  0  0  0  0  0
  187.3380  177.3860  146.6100 C   0  0  0  0  0  1  0  0  0  0  0  0
  185.2880  178.6970  139.5620 C   0  0  1  0  0  3  0  0  0  0  0  0
  184.2740  178.4340  138.6090 O   0  0  0  0  0  0  0  0  0  0  0  0
  187.8410  177.3420  142.2870 N   0  0  0  0  0  2  0  0  0  0  0  0
  186.5720  178.0350  144.2920 C   0  0  0  0  0  0  0  0  0  0  0  0
  186.3290  177.9630  145.6750 C   0  0  0  0  0  0  0  0  0  0  0  0
  189.0210  177.9760  139.7910 C   0  0  0  0  0  2  0  0  0  0  0  0
  189.0660  178.9750  137.5520 C   0  0  0  0  0  2  0  0  0  0  0  0
  189.2370  177.8920  138.3140 C   0  0  0  0  0  0  0  0  0  0  0  0
  188.5540  176.2490  136.7190 O   0  0  0  0  0  1  0  0  0  0  0  0
  189.5010  176.5470  137.7030 C   0  0  1  0  0  3  0  0  0  0  0  0
  190.9550  175.6600  135.9990 O   0  0  0  0  0  1  0  0  0  0  0  0
  190.9270  176.4410  137.1580 C   0  0  2  0  0  3  0  0  0  0  0  0
  191.8630  175.8400  138.1960 C   0  0  0  0  0  2  0  0  0  0  0  0
  193.1390  176.6100  138.2620 C   0  0  0  0  0  0  0  0  0  0  0  0
  193.5640  177.1470  139.4700 O   0  0  0  0  0  1  0  0  0  0  0  0
  193.8440  176.7470  137.2300 O   0  0  0  0  0  0  0  0  0  0  0  0
  1  9  1  1  0  0  0
  1 14  1  0  0  0  0
  2  3  1  0  0  0  0
  3  7  2  0  0  0  0
  3 19  1  0  0  0  0
  4 11  2  0  0  0  0
  5 14  1  0  0  0  0
  5  2  2  0  0  0  0
  6  1  1  0  0  0  0
  7  4  1  0  0  0  0
  8 21  1  1  0  0  0
  8 13  1  0  0  0  0
 10 19  1  0  0  0  0
 12  8  1  0  0  0  0
 13  2  1  6  0  0  0
 13 18  1  0  0  0  0
 16 12  1  1  0  0  0
 16  5  1  0  0  0  0
 17  6  1  0  0  0  0
 17 16  1  0  0  0  0
 18 10  1  0  0  0  0
 19 20  2  0  0  0  0
 20 11  1  0  0  0  0
 20 15  1  0  0  0  0
 22 23  2  0  0  0  0
 23 21  1  0  0  0  0
 25 24  1  6  0  0  0
 25 23  1  0  0  0  0
 27 26  1  6  0  0  0
 27 25  1  0  0  0  0
 27 28  1  0  0  0  0
 28 29  1  0  0  0  0
 29 30  1  0  0  0  0
 31 29  2  0  0  0  0
M  END
>  <MODEL>
9

>  <REMARK>
 VINA RESULT:      -7.5      3.862      8.092
  Name = 
  6 active torsions:
  status: ('A' for Active; 'I' for Inactive)
    1  A    between atoms: C_1  and  C_24
    2  A    between atoms: C_9  and  C_22
    3  A    between atoms: C_9  and  C_23
    4  A    between atoms: C_15  and  C_23
    5  A    between atoms: C_19  and  C_22
    6  A    between atoms: C_19  and  C_24
                            x       y       z     vdW  Elec       q    Type
                         _______ _______ _______ _____ _____    ______ ____

>  <TORSDO>
F 6

$$$$
