=
 OpenBabel11052413483D

 27 31  0  0  0  0  0  0  0  0999 V2000
  187.2900  178.5070  141.7580 N   0  0  0  0  0  0  0  0  0  0  0  0
  187.6970  177.7210  144.0530 C   0  0  0  0  0  0  0  0  0  0  0  0
  189.5170  176.7480  142.6080 N   0  0  0  0  0  0  0  0  0  0  0  0
  190.0980  177.0270  147.3620 C   0  0  0  0  0  3  0  0  0  0  0  0
  192.2590  176.4270  148.4040 O   0  0  0  0  0  1  0  0  0  0  0  0
  187.2560  177.8750  145.3820 C   0  0  0  0  0  3  0  0  0  0  0  0
  191.2580  176.4870  144.7850 C   0  0  0  0  0  2  0  0  0  0  0  0
  189.4950  176.7070  138.9760 N   0  0  0  0  0  0  0  0  0  0  0  0
  192.0410  176.3460  146.0620 C   0  0  0  0  0  3  0  0  0  0  0  0
  190.4480  176.1760  138.0190 C   0  0  0  0  0  1  0  0  0  0  0  0
  189.8500  177.0170  144.9840 C   0  0  0  0  0  0  0  0  0  0  0  0
  186.8450  178.0790  143.0530 C   0  0  0  0  0  0  0  0  0  0  0  0
  191.4980  176.5870  147.2540 C   0  0  0  0  0  0  0  0  0  0  0  0
  189.3430  177.2300  146.2790 C   0  0  0  0  0  0  0  0  0  0  0  0
  188.2990  178.1540  141.0320 C   0  0  0  0  0  0  0  0  0  0  0  0
  189.0250  177.2450  143.8610 C   0  0  0  0  0  0  0  0  0  0  0  0
  190.0200  176.3970  140.3040 C   0  0  0  0  0  2  0  0  0  0  0  0
  188.0630  177.6340  146.4420 N   0  0  0  0  0  0  0  0  0  0  0  0
  189.5100  178.1560  138.8240 C   0  0  0  0  0  2  0  0  0  0  0  0
  188.3910  178.7690  139.6620 C   0  0  0  0  0  2  0  0  0  0  0  0
  189.2080  177.0490  141.3900 C   0  0  0  0  0  0  0  0  0  0  0  0
  182.6960  178.8890  143.8270 C   0  0  0  0  0  3  0  0  0  0  0  0
  185.4010  178.3250  143.3200 C   0  0  0  0  0  0  0  0  0  0  0  0
  184.4530  178.2700  142.2830 C   0  0  0  0  0  3  0  0  0  0  0  0
  183.1070  178.5450  142.5380 C   0  0  0  0  0  3  0  0  0  0  0  0
  183.6310  178.9640  144.8620 C   0  0  0  0  0  3  0  0  0  0  0  0
  184.9790  178.6890  144.6080 C   0  0  0  0  0  3  0  0  0  0  0  0
  1 12  1  0  0  0  0
  2  6  1  0  0  0  0
  3 16  1  0  0  0  0
  6 18  2  0  0  0  0
  7 11  1  0  0  0  0
  7  9  1  0  0  0  0
  8 17  1  0  0  0  0
  9 13  2  0  0  0  0
 10  8  1  0  0  0  0
 11 14  1  0  0  0  0
 12 23  1  0  0  0  0
 12  2  2  0  0  0  0
 13  4  1  0  0  0  0
 13  5  1  0  0  0  0
 14 18  1  0  0  0  0
 14  4  2  0  0  0  0
 15 21  1  0  0  0  0
 15  1  2  0  0  0  0
 16  2  1  0  0  0  0
 16 11  2  0  0  0  0
 17 21  1  0  0  0  0
 19  8  1  0  0  0  0
 19 20  1  0  0  0  0
 20 15  1  0  0  0  0
 21  3  2  0  0  0  0
 22 26  1  0  0  0  0
 23 27  1  0  0  0  0
 24 25  1  0  0  0  0
 24 23  2  0  0  0  0
 25 22  2  0  0  0  0
 27 26  2  0  0  0  0
M  END
>  <MODEL>
1

>  <REMARK>
 VINA RESULT:     -11.2      0.000      0.000
  Name = 
  1 active torsions:
  status: ('A' for Active; 'I' for Inactive)
    1  A    between atoms: C_9  and  C_15
                            x       y       z     vdW  Elec       q    Type
                         _______ _______ _______ _____ _____    ______ ____

>  <TORSDO>
F 1

$$$$
=
 OpenBabel11052413483D

 27 31  0  0  0  0  0  0  0  0999 V2000
  188.2850  177.1180  143.7710 N   0  0  0  0  0  0  0  0  0  0  0  0
  186.1420  178.1460  144.4040 C   0  0  0  0  0  0  0  0  0  0  0  0
  186.4260  178.5040  141.9270 N   0  0  0  0  0  0  0  0  0  0  0  0
  182.0810  178.8430  143.9320 C   0  0  0  0  0  3  0  0  0  0  0  0
  180.0680  179.1500  142.5290 O   0  0  0  0  0  1  0  0  0  0  0  0
  185.2450  178.2880  145.4810 C   0  0  0  0  0  3  0  0  0  0  0  0
  183.6650  178.7410  141.5320 C   0  0  0  0  0  2  0  0  0  0  0  0
  189.5190  177.9950  140.0900 N   0  0  0  0  0  0  0  0  0  0  0  0
  182.1710  178.9150  141.4990 C   0  0  0  0  0  3  0  0  0  0  0  0
  189.8380  178.1730  138.6860 C   0  0  0  0  0  1  0  0  0  0  0  0
  184.2300  178.5400  142.9260 C   0  0  0  0  0  0  0  0  0  0  0  0
  187.4320  177.8190  144.6890 C   0  0  0  0  0  0  0  0  0  0  0  0
  181.4420  178.9720  142.6130 C   0  0  0  0  0  0  0  0  0  0  0  0
  183.3950  178.6330  144.0550 C   0  0  0  0  0  0  0  0  0  0  0  0
  188.3740  177.1470  142.4820 C   0  0  0  0  0  0  0  0  0  0  0  0
  185.6130  178.3130  143.0930 C   0  0  0  0  0  0  0  0  0  0  0  0
  188.1220  178.3920  140.2540 C   0  0  0  0  0  2  0  0  0  0  0  0
  183.9250  178.5220  145.2940 N   0  0  0  0  0  0  0  0  0  0  0  0
  189.6050  176.5660  140.3630 C   0  0  0  0  0  2  0  0  0  0  0  0
  189.4720  176.3250  141.8640 C   0  0  0  0  0  2  0  0  0  0  0  0
  187.6150  178.0890  141.6380 C   0  0  0  0  0  0  0  0  0  0  0  0
  188.9160  177.9980  148.7180 C   0  0  0  0  0  3  0  0  0  0  0  0
  187.9650  177.9100  146.0760 C   0  0  0  0  0  0  0  0  0  0  0  0
  189.2730  177.4930  146.3780 C   0  0  0  0  0  3  0  0  0  0  0  0
  189.7470  177.5430  147.6920 C   0  0  0  0  0  3  0  0  0  0  0  0
  187.6090  178.3990  148.4320 C   0  0  0  0  0  3  0  0  0  0  0  0
  187.1340  178.3490  147.1180 C   0  0  0  0  0  3  0  0  0  0  0  0
  1 12  1  0  0  0  0
  2 12  2  0  0  0  0
  2  6  1  0  0  0  0
  3 16  1  0  0  0  0
  4 14  2  0  0  0  0
  5 13  1  0  0  0  0
  7 11  1  0  0  0  0
  8 17  1  0  0  0  0
  8 19  1  0  0  0  0
  9  7  1  0  0  0  0
  9 13  2  0  0  0  0
 10  8  1  0  0  0  0
 11 16  2  0  0  0  0
 11 14  1  0  0  0  0
 12 23  1  0  0  0  0
 13  4  1  0  0  0  0
 14 18  1  0  0  0  0
 15  1  2  0  0  0  0
 16  2  1  0  0  0  0
 17 21  1  0  0  0  0
 18  6  2  0  0  0  0
 19 20  1  0  0  0  0
 20 15  1  0  0  0  0
 21  3  2  0  0  0  0
 21 15  1  0  0  0  0
 23 24  2  0  0  0  0
 23 27  1  0  0  0  0
 24 25  1  0  0  0  0
 25 22  2  0  0  0  0
 26 22  1  0  0  0  0
 27 26  2  0  0  0  0
M  END
>  <MODEL>
2

>  <REMARK>
 VINA RESULT:     -10.3      3.044      6.112
  Name = 
  1 active torsions:
  status: ('A' for Active; 'I' for Inactive)
    1  A    between atoms: C_9  and  C_15
                            x       y       z     vdW  Elec       q    Type
                         _______ _______ _______ _____ _____    ______ ____

>  <TORSDO>
F 1

$$$$
=
 OpenBabel11052413483D

 27 31  0  0  0  0  0  0  0  0999 V2000
  186.8680  178.7060  140.2000 N   0  0  0  0  0  0  0  0  0  0  0  0
  186.0880  178.2340  142.4840 C   0  0  0  0  0  0  0  0  0  0  0  0
  188.3590  177.1700  142.2490 N   0  0  0  0  0  0  0  0  0  0  0  0
  186.5560  178.0710  146.6020 C   0  0  0  0  0  3  0  0  0  0  0  0
  187.9210  177.7050  148.6310 O   0  0  0  0  0  1  0  0  0  0  0  0
  185.0590  178.5340  143.3980 C   0  0  0  0  0  3  0  0  0  0  0  0
  188.8120  177.2640  145.0090 C   0  0  0  0  0  2  0  0  0  0  0  0
  190.1100  176.6710  139.1050 N   0  0  0  0  0  0  0  0  0  0  0  0
  188.8700  177.3210  146.5120 C   0  0  0  0  0  3  0  0  0  0  0  0
  191.3960  176.0680  138.8110 C   0  0  0  0  0  1  0  0  0  0  0  0
  187.4980  177.7500  144.4270 C   0  0  0  0  0  0  0  0  0  0  0  0
  185.8390  178.4240  141.1590 C   0  0  0  0  0  0  0  0  0  0  0  0
  187.8200  177.6850  147.2460 C   0  0  0  0  0  0  0  0  0  0  0  0
  186.4280  178.1020  145.2720 C   0  0  0  0  0  0  0  0  0  0  0  0
  188.0960  178.3100  140.1090 C   0  0  0  0  0  0  0  0  0  0  0  0
  187.3300  177.7980  143.0260 C   0  0  0  0  0  0  0  0  0  0  0  0
  189.9130  176.5560  140.5480 C   0  0  0  0  0  2  0  0  0  0  0  0
  185.2410  178.4650  144.7380 N   0  0  0  0  0  0  0  0  0  0  0  0
  190.2290  178.0890  138.7890 C   0  0  0  0  0  2  0  0  0  0  0  0
  188.8570  178.7510  138.8890 C   0  0  0  0  0  2  0  0  0  0  0  0
  188.6900  177.3020  141.0070 C   0  0  0  0  0  0  0  0  0  0  0  0
  181.8640  178.9810  139.6240 C   0  0  0  0  0  3  0  0  0  0  0  0
  184.4540  178.6360  140.6560 C   0  0  0  0  0  0  0  0  0  0  0  0
  183.3740  177.9000  141.1750 C   0  0  0  0  0  3  0  0  0  0  0  0
  182.0860  178.0770  140.6650 C   0  0  0  0  0  3  0  0  0  0  0  0
  182.9320  179.7040  139.0880 C   0  0  0  0  0  3  0  0  0  0  0  0
  184.2220  179.5280  139.5980 C   0  0  0  0  0  3  0  0  0  0  0  0
  1 12  1  0  0  0  0
  2 16  1  0  0  0  0
  2  6  1  0  0  0  0
  3 16  1  0  0  0  0
  4 13  1  0  0  0  0
  6 18  2  0  0  0  0
  7  9  1  0  0  0  0
  8 17  1  0  0  0  0
  9 13  2  0  0  0  0
 10  8  1  0  0  0  0
 11  7  1  0  0  0  0
 11 14  1  0  0  0  0
 12  2  2  0  0  0  0
 13  5  1  0  0  0  0
 14  4  2  0  0  0  0
 15  1  2  0  0  0  0
 15 21  1  0  0  0  0
 16 11  2  0  0  0  0
 17 21  1  0  0  0  0
 18 14  1  0  0  0  0
 19 20  1  0  0  0  0
 19  8  1  0  0  0  0
 20 15  1  0  0  0  0
 21  3  2  0  0  0  0
 22 25  1  0  0  0  0
 23 12  1  0  0  0  0
 23 24  1  0  0  0  0
 25 24  2  0  0  0  0
 26 27  1  0  0  0  0
 26 22  2  0  0  0  0
 27 23  2  0  0  0  0
M  END
>  <MODEL>
3

>  <REMARK>
 VINA RESULT:     -10.3      1.879      2.869
  Name = 
  1 active torsions:
  status: ('A' for Active; 'I' for Inactive)
    1  A    between atoms: C_9  and  C_15
                            x       y       z     vdW  Elec       q    Type
                         _______ _______ _______ _____ _____    ______ ____

>  <TORSDO>
F 1

$$$$
=
 OpenBabel11052413483D

 27 31  0  0  0  0  0  0  0  0999 V2000
  189.2120  176.8460  142.7310 N   0  0  0  0  0  0  0  0  0  0  0  0
  187.3460  177.7690  144.0420 C   0  0  0  0  0  0  0  0  0  0  0  0
  187.0070  178.5080  141.6570 N   0  0  0  0  0  0  0  0  0  0  0  0
  183.3320  178.5400  144.7400 C   0  0  0  0  0  3  0  0  0  0  0  0
  181.0430  179.0690  143.9660 O   0  0  0  0  0  1  0  0  0  0  0  0
  186.7590  177.7430  145.3220 C   0  0  0  0  0  3  0  0  0  0  0  0
  184.2490  178.8110  142.0270 C   0  0  0  0  0  2  0  0  0  0  0  0
  189.5070  178.2850  139.0320 N   0  0  0  0  0  0  0  0  0  0  0  0
  182.8040  178.9920  142.4070 C   0  0  0  0  0  3  0  0  0  0  0  0
  189.4670  178.6780  137.6360 C   0  0  0  0  0  1  0  0  0  0  0  0
  185.1400  178.3930  143.1820 C   0  0  0  0  0  0  0  0  0  0  0  0
  188.6510  177.3970  143.9320 C   0  0  0  0  0  0  0  0  0  0  0  0
  182.3850  178.8760  143.6660 C   0  0  0  0  0  0  0  0  0  0  0  0
  184.6230  178.3110  144.4890 C   0  0  0  0  0  0  0  0  0  0  0  0
  188.9720  177.0760  141.4820 C   0  0  0  0  0  0  0  0  0  0  0  0
  186.5090  178.1390  142.9510 C   0  0  0  0  0  0  0  0  0  0  0  0
  188.2160  178.6540  139.6080 C   0  0  0  0  0  2  0  0  0  0  0  0
  185.4450  178.0060  145.5180 N   0  0  0  0  0  0  0  0  0  0  0  0
  189.5990  176.8300  139.0550 C   0  0  0  0  0  2  0  0  0  0  0  0
  189.8410  176.3570  140.4860 C   0  0  0  0  0  2  0  0  0  0  0  0
  188.0650  178.1400  141.0130 C   0  0  0  0  0  0  0  0  0  0  0  0
  191.1170  176.9400  147.4210 C   0  0  0  0  0  3  0  0  0  0  0  0
  189.5220  177.2690  145.1330 C   0  0  0  0  0  0  0  0  0  0  0  0
  190.8550  176.8390  145.0170 C   0  0  0  0  0  3  0  0  0  0  0  0
  191.6490  176.6810  146.1560 C   0  0  0  0  0  3  0  0  0  0  0  0
  189.7880  177.3510  147.5490 C   0  0  0  0  0  3  0  0  0  0  0  0
  188.9930  177.5080  146.4100 C   0  0  0  0  0  3  0  0  0  0  0  0
  1 12  1  0  0  0  0
  2  6  1  0  0  0  0
  3 16  1  0  0  0  0
  6 18  2  0  0  0  0
  7  9  1  0  0  0  0
  7 11  1  0  0  0  0
  8 19  1  0  0  0  0
  8 17  1  0  0  0  0
  9 13  2  0  0  0  0
 10  8  1  0  0  0  0
 11 14  1  0  0  0  0
 12  2  2  0  0  0  0
 12 23  1  0  0  0  0
 13  5  1  0  0  0  0
 13  4  1  0  0  0  0
 14  4  2  0  0  0  0
 14 18  1  0  0  0  0
 15  1  2  0  0  0  0
 16 11  2  0  0  0  0
 16  2  1  0  0  0  0
 17 21  1  0  0  0  0
 19 20  1  0  0  0  0
 20 15  1  0  0  0  0
 21 15  1  0  0  0  0
 21  3  2  0  0  0  0
 22 26  1  0  0  0  0
 23 27  1  0  0  0  0
 24 23  2  0  0  0  0
 24 25  1  0  0  0  0
 25 22  2  0  0  0  0
 27 26  2  0  0  0  0
M  END
>  <MODEL>
4

>  <REMARK>
 VINA RESULT:     -10.1      2.516      5.837
  Name = 
  1 active torsions:
  status: ('A' for Active; 'I' for Inactive)
    1  A    between atoms: C_9  and  C_15
                            x       y       z     vdW  Elec       q    Type
                         _______ _______ _______ _____ _____    ______ ____

>  <TORSDO>
F 1

$$$$
=
 OpenBabel11052413483D

 27 31  0  0  0  0  0  0  0  0999 V2000
  189.8270  178.2780  141.7720 N   0  0  0  0  0  0  0  0  0  0  0  0
  187.4020  178.1350  141.3880 C   0  0  0  0  0  0  0  0  0  0  0  0
  187.8000  177.5490  143.8060 N   0  0  0  0  0  0  0  0  0  0  0  0
  183.4440  178.9280  142.3420 C   0  0  0  0  0  2  0  0  0  0  0  0
  181.6210  179.2850  143.9740 O   0  0  0  0  0  1  0  0  0  0  0  0
  186.4050  178.3920  140.4270 C   0  0  0  0  0  3  0  0  0  0  0  0
  185.2040  178.3040  144.5310 C   0  0  0  0  0  3  0  0  0  0  0  0
  191.0420  176.7920  145.2590 N   0  0  0  0  0  0  0  0  0  0  0  0
  183.7620  178.6800  144.7430 C   0  0  0  0  0  3  0  0  0  0  0  0
  191.4230  176.4260  146.6110 C   0  0  0  0  0  1  0  0  0  0  0  0
  185.6490  178.3710  143.0820 C   0  0  0  0  0  0  0  0  0  0  0  0
  188.6840  177.9900  140.9540 C   0  0  0  0  0  0  0  0  0  0  0  0
  182.9480  178.9580  143.7260 C   0  0  0  0  0  0  0  0  0  0  0  0
  184.7220  178.6550  142.0620 C   0  0  0  0  0  0  0  0  0  0  0  0
  190.0380  178.1410  143.0400 C   0  0  0  0  0  0  0  0  0  0  0  0
  186.9930  178.0920  142.7510 C   0  0  0  0  0  0  0  0  0  0  0  0
  189.5880  176.9380  145.2600 C   0  0  0  0  0  2  0  0  0  0  0  0
  185.1190  178.6410  140.7700 N   0  0  0  0  0  0  0  0  0  0  0  0
  191.6160  178.1070  145.0030 C   0  0  0  0  0  2  0  0  0  0  0  0
  191.4200  178.4710  143.5330 C   0  0  0  0  0  2  0  0  0  0  0  0
  189.0820  177.4880  143.9540 C   0  0  0  0  0  0  0  0  0  0  0  0
  189.6660  177.4810  136.8010 C   0  0  0  0  0  3  0  0  0  0  0  0
  188.9930  177.7960  139.5100 C   0  0  0  0  0  0  0  0  0  0  0  0
  189.4620  176.5610  139.0300 C   0  0  0  0  0  3  0  0  0  0  0  0
  189.7900  176.4040  137.6810 C   0  0  0  0  0  3  0  0  0  0  0  0
  189.2180  178.7190  137.2710 C   0  0  0  0  0  3  0  0  0  0  0  0
  188.8900  178.8770  138.6210 C   0  0  0  0  0  3  0  0  0  0  0  0
  1 15  1  0  0  0  0
  2 16  1  0  0  0  0
  3 21  1  0  0  0  0
  4 13  1  0  0  0  0
  6 18  1  0  0  0  0
  6  2  2  0  0  0  0
  7  9  1  0  0  0  0
  8 17  1  0  0  0  0
  8 10  1  0  0  0  0
 11  7  2  0  0  0  0
 12  2  1  0  0  0  0
 12  1  2  0  0  0  0
 13  5  1  0  0  0  0
 13  9  2  0  0  0  0
 14  4  1  0  0  0  0
 14 11  1  0  0  0  0
 15 20  1  0  0  0  0
 15 21  2  0  0  0  0
 16 11  1  0  0  0  0
 16  3  2  0  0  0  0
 18 14  2  0  0  0  0
 19  8  1  0  0  0  0
 20 19  1  0  0  0  0
 21 17  1  0  0  0  0
 22 26  2  0  0  0  0
 22 25  1  0  0  0  0
 23 12  1  0  0  0  0
 24 23  1  0  0  0  0
 25 24  2  0  0  0  0
 26 27  1  0  0  0  0
 27 23  2  0  0  0  0
M  END
>  <MODEL>
5

>  <REMARK>
 VINA RESULT:      -9.8      2.673      6.630
  Name = 
  1 active torsions:
  status: ('A' for Active; 'I' for Inactive)
    1  A    between atoms: C_9  and  C_15
                            x       y       z     vdW  Elec       q    Type
                         _______ _______ _______ _____ _____    ______ ____

>  <TORSDO>
F 1

$$$$
=
 OpenBabel11052413483D

 27 31  0  0  0  0  0  0  0  0999 V2000
  183.7400  178.9630  143.2260 N   0  0  0  0  0  0  0  0  0  0  0  0
  185.8450  178.3720  142.1010 C   0  0  0  0  0  0  0  0  0  0  0  0
  183.9840  177.9130  140.4670 N   0  0  0  0  0  0  0  0  0  0  0  0
  188.4890  178.4450  138.9060 C   0  0  0  0  0  3  0  0  0  0  0  0
  188.9860  178.4930  136.4840 O   0  0  0  0  0  1  0  0  0  0  0  0
  187.2450  178.4250  142.2490 C   0  0  0  0  0  3  0  0  0  0  0  0
  185.6950  178.1940  138.2690 C   0  0  0  0  0  2  0  0  0  0  0  0
  180.4530  177.7890  141.3130 N   0  0  0  0  0  0  0  0  0  0  0  0
  186.7530  178.3050  137.2050 C   0  0  0  0  0  3  0  0  0  0  0  0
  179.2830  177.5250  140.4970 C   0  0  0  0  0  1  0  0  0  0  0  0
  186.2310  178.3150  139.6830 C   0  0  0  0  0  0  0  0  0  0  0  0
  185.0820  178.4560  143.2250 C   0  0  0  0  0  0  0  0  0  0  0  0
  188.0470  178.4100  137.5040 C   0  0  0  0  0  0  0  0  0  0  0  0
  187.6160  178.4060  139.9170 C   0  0  0  0  0  0  0  0  0  0  0  0
  182.7890  178.8900  142.3540 C   0  0  0  0  0  0  0  0  0  0  0  0
  185.3360  178.2800  140.7750 C   0  0  0  0  0  0  0  0  0  0  0  0
  181.6130  177.6670  140.4310 C   0  0  0  0  0  2  0  0  0  0  0  0
  188.0830  178.4410  141.1850 N   0  0  0  0  0  0  0  0  0  0  0  0
  180.3660  179.1820  141.7330 C   0  0  0  0  0  2  0  0  0  0  0  0
  181.4620  179.4770  142.7530 C   0  0  0  0  0  2  0  0  0  0  0  0
  182.8830  178.0910  141.1180 C   0  0  0  0  0  0  0  0  0  0  0  0
  186.8910  178.0480  147.1020 C   0  0  0  0  0  3  0  0  0  0  0  0
  185.6810  178.2960  144.5790 C   0  0  0  0  0  0  0  0  0  0  0  0
  185.2390  179.0750  145.6620 C   0  0  0  0  0  3  0  0  0  0  0  0
  185.8380  178.9460  146.9180 C   0  0  0  0  0  3  0  0  0  0  0  0
  187.3500  177.2810  146.0280 C   0  0  0  0  0  3  0  0  0  0  0  0
  186.7520  177.4090  144.7710 C   0  0  0  0  0  3  0  0  0  0  0  0
  2  6  1  0  0  0  0
  2 12  2  0  0  0  0
  3 16  1  0  0  0  0
  3 21  2  0  0  0  0
  4 14  2  0  0  0  0
  5 13  1  0  0  0  0
  7 11  1  0  0  0  0
  8 19  1  0  0  0  0
  9 13  2  0  0  0  0
  9  7  1  0  0  0  0
 10  8  1  0  0  0  0
 11 14  1  0  0  0  0
 11 16  2  0  0  0  0
 12  1  1  0  0  0  0
 12 23  1  0  0  0  0
 13  4  1  0  0  0  0
 14 18  1  0  0  0  0
 15 20  1  0  0  0  0
 15  1  2  0  0  0  0
 16  2  1  0  0  0  0
 17 21  1  0  0  0  0
 17  8  1  0  0  0  0
 18  6  2  0  0  0  0
 19 20  1  0  0  0  0
 21 15  1  0  0  0  0
 23 27  2  0  0  0  0
 23 24  1  0  0  0  0
 24 25  2  0  0  0  0
 25 22  1  0  0  0  0
 26 22  2  0  0  0  0
 27 26  1  0  0  0  0
M  END
>  <MODEL>
6

>  <REMARK>
 VINA RESULT:      -9.0      3.490      7.082
  Name = 
  1 active torsions:
  status: ('A' for Active; 'I' for Inactive)
    1  A    between atoms: C_9  and  C_15
                            x       y       z     vdW  Elec       q    Type
                         _______ _______ _______ _____ _____    ______ ____

>  <TORSDO>
F 1

$$$$
=
 OpenBabel11052413483D

 27 31  0  0  0  0  0  0  0  0999 V2000
  189.2030  177.0580  140.9780 N   0  0  0  0  0  0  0  0  0  0  0  0
  187.4770  178.0090  142.4490 C   0  0  0  0  0  0  0  0  0  0  0  0
  186.7950  178.5340  140.0820 N   0  0  0  0  0  0  0  0  0  0  0  0
  183.5520  178.6710  143.6140 C   0  0  0  0  0  3  0  0  0  0  0  0
  181.1580  179.0390  143.1120 O   0  0  0  0  0  1  0  0  0  0  0  0
  187.0620  178.0660  143.7940 C   0  0  0  0  0  3  0  0  0  0  0  0
  184.0960  178.7530  140.7890 C   0  0  0  0  0  2  0  0  0  0  0  0
  188.9440  178.1960  137.1720 N   0  0  0  0  0  0  0  0  0  0  0  0
  182.7050  178.9050  141.3430 C   0  0  0  0  0  3  0  0  0  0  0  0
  188.7030  178.4710  135.7680 C   0  0  0  0  0  1  0  0  0  0  0  0
  185.1490  178.4690  141.8450 C   0  0  0  0  0  0  0  0  0  0  0  0
  188.7740  177.6840  142.1960 C   0  0  0  0  0  0  0  0  0  0  0  0
  182.4580  178.8770  142.6510 C   0  0  0  0  0  0  0  0  0  0  0  0
  184.8100  178.4740  143.2110 C   0  0  0  0  0  0  0  0  0  0  0  0
  188.7920  177.1740  139.7570 C   0  0  0  0  0  0  0  0  0  0  0  0
  186.4880  178.2530  141.4540 C   0  0  0  0  0  0  0  0  0  0  0  0
  187.7200  178.5590  137.8840 C   0  0  0  0  0  2  0  0  0  0  0  0
  185.7730  178.2900  144.1420 N   0  0  0  0  0  0  0  0  0  0  0  0
  189.1120  176.7530  137.2950 C   0  0  0  0  0  2  0  0  0  0  0  0
  189.5620  176.4110  138.7130 C   0  0  0  0  0  2  0  0  0  0  0  0
  187.7780  178.1570  139.3330 C   0  0  0  0  0  0  0  0  0  0  0  0
  191.6770  177.7820  145.3630 C   0  0  0  0  0  3  0  0  0  0  0  0
  189.7980  177.6920  143.2770 C   0  0  0  0  0  0  0  0  0  0  0  0
  189.7960  176.7090  144.2830 C   0  0  0  0  0  3  0  0  0  0  0  0
  190.7350  176.7520  145.3160 C   0  0  0  0  0  3  0  0  0  0  0  0
  191.6780  178.7740  144.3790 C   0  0  0  0  0  3  0  0  0  0  0  0
  190.7380  178.7320  143.3440 C   0  0  0  0  0  3  0  0  0  0  0  0
  1 12  1  0  0  0  0
  2  6  1  0  0  0  0
  3 16  1  0  0  0  0
  6 18  2  0  0  0  0
  7  9  1  0  0  0  0
  7 11  1  0  0  0  0
  8 19  1  0  0  0  0
  8 17  1  0  0  0  0
  9 13  2  0  0  0  0
 10  8  1  0  0  0  0
 11 14  1  0  0  0  0
 12  2  2  0  0  0  0
 12 23  1  0  0  0  0
 13  5  1  0  0  0  0
 13  4  1  0  0  0  0
 14  4  2  0  0  0  0
 14 18  1  0  0  0  0
 15  1  2  0  0  0  0
 16 11  2  0  0  0  0
 16  2  1  0  0  0  0
 17 21  1  0  0  0  0
 19 20  1  0  0  0  0
 20 15  1  0  0  0  0
 21 15  1  0  0  0  0
 21  3  2  0  0  0  0
 23 27  2  0  0  0  0
 23 24  1  0  0  0  0
 24 25  2  0  0  0  0
 25 22  1  0  0  0  0
 26 22  2  0  0  0  0
 27 26  1  0  0  0  0
M  END
>  <MODEL>
7

>  <REMARK>
 VINA RESULT:      -8.8      2.895      6.094
  Name = 
  1 active torsions:
  status: ('A' for Active; 'I' for Inactive)
    1  A    between atoms: C_9  and  C_15
                            x       y       z     vdW  Elec       q    Type
                         _______ _______ _______ _____ _____    ______ ____

>  <TORSDO>
F 1

$$$$
=
 OpenBabel11052413483D

 27 31  0  0  0  0  0  0  0  0999 V2000
  190.3150  177.9040  142.4890 N   0  0  0  0  0  0  0  0  0  0  0  0
  188.5520  177.8240  140.7760 C   0  0  0  0  0  0  0  0  0  0  0  0
  187.4150  177.6030  143.0130 N   0  0  0  0  0  0  0  0  0  0  0  0
  184.9060  178.9540  139.1540 C   0  0  0  0  0  2  0  0  0  0  0  0
  182.5430  179.6530  139.3690 O   0  0  0  0  0  1  0  0  0  0  0  0
  188.3280  177.9790  139.3940 C   0  0  0  0  0  3  0  0  0  0  0  0
  184.9970  178.5910  142.0070 C   0  0  0  0  0  3  0  0  0  0  0  0
  189.1100  176.9200  146.1530 N   0  0  0  0  0  0  0  0  0  0  0  0
  183.7580  179.0680  141.2980 C   0  0  0  0  0  3  0  0  0  0  0  0
  188.5980  176.7500  147.4990 C   0  0  0  0  0  1  0  0  0  0  0  0
  186.1950  178.4090  141.0930 C   0  0  0  0  0  0  0  0  0  0  0  0
  189.8190  177.5490  141.1900 C   0  0  0  0  0  0  0  0  0  0  0  0
  183.7170  179.2250  139.9760 C   0  0  0  0  0  0  0  0  0  0  0  0
  186.0650  178.5780  139.7020 C   0  0  0  0  0  0  0  0  0  0  0  0
  189.7430  177.9550  143.6470 C   0  0  0  0  0  0  0  0  0  0  0  0
  187.4360  178.0150  141.6390 C   0  0  0  0  0  0  0  0  0  0  0  0
  187.9510  177.1370  145.2890 C   0  0  0  0  0  2  0  0  0  0  0  0
  187.1230  178.3430  138.8950 N   0  0  0  0  0  0  0  0  0  0  0  0
  189.8950  178.1480  146.1530 C   0  0  0  0  0  2  0  0  0  0  0  0
  190.6240  178.2880  144.8200 C   0  0  0  0  0  2  0  0  0  0  0  0
  188.3600  177.5010  143.8880 C   0  0  0  0  0  0  0  0  0  0  0  0
  192.8190  176.3760  138.3440 C   0  0  0  0  0  3  0  0  0  0  0  0
  190.8700  177.1180  140.2260 C   0  0  0  0  0  0  0  0  0  0  0  0
  192.2110  177.5030  140.3980 C   0  0  0  0  0  3  0  0  0  0  0  0
  193.1800  177.1280  139.4640 C   0  0  0  0  0  3  0  0  0  0  0  0
  191.4860  176.0030  138.1540 C   0  0  0  0  0  3  0  0  0  0  0  0
  190.5150  176.3780  139.0880 C   0  0  0  0  0  3  0  0  0  0  0  0
  1 15  1  0  0  0  0
  2 12  1  0  0  0  0
  2 16  1  0  0  0  0
  3 21  1  0  0  0  0
  4 14  1  0  0  0  0
  4 13  1  0  0  0  0
  5 13  1  0  0  0  0
  6  2  2  0  0  0  0
  8 10  1  0  0  0  0
  9  7  1  0  0  0  0
 11 16  1  0  0  0  0
 11  7  2  0  0  0  0
 12  1  2  0  0  0  0
 13  9  2  0  0  0  0
 14 11  1  0  0  0  0
 15 21  2  0  0  0  0
 15 20  1  0  0  0  0
 16  3  2  0  0  0  0
 17  8  1  0  0  0  0
 18  6  1  0  0  0  0
 18 14  2  0  0  0  0
 19  8  1  0  0  0  0
 20 19  1  0  0  0  0
 21 17  1  0  0  0  0
 22 25  1  0  0  0  0
 23 24  1  0  0  0  0
 23 12  1  0  0  0  0
 25 24  2  0  0  0  0
 26 22  2  0  0  0  0
 26 27  1  0  0  0  0
 27 23  2  0  0  0  0
M  END
>  <MODEL>
8

>  <REMARK>
 VINA RESULT:      -8.7      3.146      7.698
  Name = 
  1 active torsions:
  status: ('A' for Active; 'I' for Inactive)
    1  A    between atoms: C_9  and  C_15
                            x       y       z     vdW  Elec       q    Type
                         _______ _______ _______ _____ _____    ______ ____

>  <TORSDO>
F 1

$$$$
=
 OpenBabel11052413483D

 27 31  0  0  0  0  0  0  0  0999 V2000
  187.3800  178.5170  144.8740 N   0  0  0  0  0  0  0  0  0  0  0  0
  188.7560  177.6660  143.0220 C   0  0  0  0  0  0  0  0  0  0  0  0
  186.4140  177.9350  142.1340 N   0  0  0  0  0  0  0  0  0  0  0  0
  190.1280  177.6880  139.1080 C   0  0  0  0  0  2  0  0  0  0  0  0
  189.8010  178.0420  136.6820 O   0  0  0  0  0  1  0  0  0  0  0  0
  190.0860  177.3730  142.6600 C   0  0  0  0  0  3  0  0  0  0  0  0
  187.3230  178.1950  139.5000 C   0  0  0  0  0  3  0  0  0  0  0  0
  183.4610  178.4730  144.1800 N   0  0  0  0  0  0  0  0  0  0  0  0
  187.9640  178.2440  138.1390 C   0  0  0  0  0  3  0  0  0  0  0  0
  182.0630  178.6280  143.8210 C   0  0  0  0  0  1  0  0  0  0  0  0
  188.3020  177.9430  140.6310 C   0  0  0  0  0  0  0  0  0  0  0  0
  188.4550  177.7260  144.3480 C   0  0  0  0  0  0  0  0  0  0  0  0
  189.2610  177.9990  137.9610 C   0  0  0  0  0  0  0  0  0  0  0  0
  189.6560  177.6740  140.3580 C   0  0  0  0  0  0  0  0  0  0  0  0
  186.2150  178.8150  144.3990 C   0  0  0  0  0  0  0  0  0  0  0  0
  187.8380  177.9240  141.9650 C   0  0  0  0  0  0  0  0  0  0  0  0
  184.1890  178.2450  142.9340 C   0  0  0  0  0  2  0  0  0  0  0  0
  190.5010  177.3820  141.3710 N   0  0  0  0  0  0  0  0  0  0  0  0
  183.9000  179.7550  144.7180 C   0  0  0  0  0  2  0  0  0  0  0  0
  185.3060  179.6100  145.2960 C   0  0  0  0  0  2  0  0  0  0  0  0
  185.6780  178.2420  143.1510 C   0  0  0  0  0  0  0  0  0  0  0  0
  191.2140  176.3010  147.3190 C   0  0  0  0  0  3  0  0  0  0  0  0
  189.3940  177.2010  145.3780 C   0  0  0  0  0  0  0  0  0  0  0  0
  189.0170  177.1270  146.7300 C   0  0  0  0  0  3  0  0  0  0  0  0
  189.9210  176.6730  147.6940 C   0  0  0  0  0  3  0  0  0  0  0  0
  191.6050  176.3870  145.9800 C   0  0  0  0  0  3  0  0  0  0  0  0
  190.7010  176.8410  145.0160 C   0  0  0  0  0  3  0  0  0  0  0  0
  2 12  1  0  0  0  0
  3 21  1  0  0  0  0
  4 14  1  0  0  0  0
  5 13  1  0  0  0  0
  6  2  2  0  0  0  0
  7 11  2  0  0  0  0
  8 19  1  0  0  0  0
  9  7  1  0  0  0  0
 10  8  1  0  0  0  0
 11 16  1  0  0  0  0
 12  1  2  0  0  0  0
 12 23  1  0  0  0  0
 13  9  2  0  0  0  0
 13  4  1  0  0  0  0
 14 11  1  0  0  0  0
 14 18  2  0  0  0  0
 15  1  1  0  0  0  0
 15 20  1  0  0  0  0
 16  3  2  0  0  0  0
 16  2  1  0  0  0  0
 17 21  1  0  0  0  0
 17  8  1  0  0  0  0
 18  6  1  0  0  0  0
 19 20  1  0  0  0  0
 21 15  2  0  0  0  0
 22 25  1  0  0  0  0
 23 24  1  0  0  0  0
 24 25  2  0  0  0  0
 26 22  2  0  0  0  0
 27 23  2  0  0  0  0
 27 26  1  0  0  0  0
M  END
>  <MODEL>
9

>  <REMARK>
 VINA RESULT:      -8.5      2.680      6.883
  Name = 
  1 active torsions:
  status: ('A' for Active; 'I' for Inactive)
    1  A    between atoms: C_9  and  C_15
                            x       y       z     vdW  Elec       q    Type
                         _______ _______ _______ _____ _____    ______ ____

>  <TORSDO>
F 1

$$$$
