=
 OpenBabel11052414473D

 32 33  0  0  1  0  0  0  0  0999 V2000
  190.2760  176.0170  138.1600 C   0  0  0  0  0  0  0  0  0  0  0  0
  190.1640  174.9210  137.5520 O   0  0  0  0  0  0  0  0  0  0  0  0
  189.3040  177.8890  140.0740 C   0  0  0  0  0  3  0  0  0  0  0  0
  190.7720  176.0530  139.5000 N   0  0  0  0  0  2  0  0  0  0  0  0
  188.7690  178.0090  138.8520 C   0  0  0  0  0  0  0  0  0  0  0  0
  189.7300  177.5460  137.3980 S   0  0  0  0  0  0  0  0  0  0  0  0
  190.6690  177.2890  140.2730 C   0  0  2  0  0  3  0  0  0  0  0  0
  187.4190  178.4490  138.6770 N   0  0  0  0  0  2  0  0  0  0  0  0
  186.4760  178.2350  136.2140 O   0  0  0  0  0  0  0  0  0  0  0  0
  186.5240  176.2130  137.5950 O   0  0  0  0  0  0  0  0  0  0  0  0
  186.2820  177.6960  137.6040 S   0  0  0  0  0  0  0  0  0  0  0  0
  184.6090  178.0110  138.1360 C   0  0  0  0  0  2  0  0  0  0  0  0
  184.5750  179.0250  139.2340 C   0  0  0  0  0  0  0  0  0  0  0  0
  184.5490  180.2150  138.9640 O   0  0  0  0  0  0  0  0  0  0  0  0
  184.5570  178.5930  140.6680 C   0  0  0  0  0  2  0  0  0  0  0  0
  183.4480  177.6800  140.9260 N   0  0  0  0  0  2  0  0  0  0  0  0
  182.0660  178.0440  140.8570 C   0  0  0  0  0  0  0  0  0  0  0  0
  181.0390  177.3250  139.8010 S   0  0  0  0  0  0  0  0  0  0  0  0
  181.5590  179.0210  141.7580 N   0  0  0  0  0  1  0  0  0  0  0  0
  190.8850  176.9750  141.7420 C   0  0  0  0  0  2  0  0  0  0  0  0
  189.5980  176.4410  142.3820 C   0  0  0  0  0  2  0  0  0  0  0  0
  189.4710  176.7820  143.8060 N   0  0  0  0  0  0  0  0  0  0  0  0
  186.4410  178.2460  145.3700 C   0  0  0  0  0  1  0  0  0  0  0  0
  187.2280  177.1590  144.6700 C   0  0  1  0  0  3  0  0  0  0  0  0
  187.2020  177.4060  143.1780 C   0  0  0  0  0  2  0  0  0  0  0  0
  188.4290  177.7890  143.9850 C   0  0  2  0  0  3  0  0  0  0  0  0
  190.7350  177.3400  144.2780 C   0  0  0  0  0  2  0  0  0  0  0  0
  191.3120  176.4660  145.3780 C   0  0  0  0  0  2  0  0  0  0  0  0
  191.1440  177.1380  146.7300 C   0  0  0  0  0  2  0  0  0  0  0  0
  189.7970  176.7930  147.3370 C   0  0  0  0  0  2  0  0  0  0  0  0
  187.9080  177.6920  148.6540 C   0  0  0  0  0  1  0  0  0  0  0  0
  189.3370  177.9350  148.2180 C   0  0  0  0  0  2  0  0  0  0  0  0
  1  4  1  0  0  0  0
  2  1  2  0  0  0  0
  3  7  1  0  0  0  0
  4  7  1  0  0  0  0
  5  3  2  0  0  0  0
  6  1  1  0  0  0  0
  6  5  1  0  0  0  0
  7 20  1  1  0  0  0
  8  5  1  0  0  0  0
  9 11  2  0  0  0  0
 10 11  2  0  0  0  0
 11 12  1  0  0  0  0
 11  8  1  0  0  0  0
 12 13  1  0  0  0  0
 13 15  1  0  0  0  0
 14 13  2  0  0  0  0
 15 16  1  0  0  0  0
 17 16  1  0  0  0  0
 17 19  1  0  0  0  0
 18 17  2  0  0  0  0
 20 21  1  0  0  0  0
 21 22  1  0  0  0  0
 22 27  1  0  0  0  0
 24 23  1  1  0  0  0
 25 26  1  0  0  0  0
 25 24  1  0  0  0  0
 26 22  1  6  0  0  0
 26 24  1  0  0  0  0
 27 28  1  0  0  0  0
 28 29  1  0  0  0  0
 29 30  1  0  0  0  0
 30 32  1  0  0  0  0
 32 31  1  0  0  0  0
M  END
>  <MODEL>
1

>  <REMARK>
 VINA RESULT:      -6.6      0.000      0.000
  Name = 
  16 active torsions:
  status: ('A' for Active; 'I' for Inactive)
    1  A    between atoms: C_1  and  N_30
    2  A    between atoms: C_2  and  C_14
    3  A    between atoms: C_2  and  S_27
    4  A    between atoms: C_5  and  C_14
    5  A    between atoms: C_5  and  N_30
    6  A    between atoms: C_6  and  N_9
    7  A    between atoms: C_6  and  C_17
    8  A    between atoms: C_7  and  C_26
    9  A    between atoms: C_7  and  C_31
   10  A    between atoms: N_9  and  C_31
   11  A    between atoms: N_9  and  C_32
   12  A    between atoms: N_16  and  C_20
   13  A    between atoms: N_16  and  S_27
   14  A    between atoms: C_17  and  C_29
   15  A    between atoms: C_18  and  C_25
   16  A    between atoms: C_18  and  C_29
                            x       y       z     vdW  Elec       q    Type
                         _______ _______ _______ _____ _____    ______ ____

>  <TORSDO>
F 16

$$$$
=
 OpenBabel11052414473D

 32 33  0  0  1  0  0  0  0  0999 V2000
  189.2850  178.2460  138.6110 C   0  0  0  0  0  0  0  0  0  0  0  0
  188.9120  179.4000  138.2750 O   0  0  0  0  0  0  0  0  0  0  0  0
  191.3050  176.4900  139.5830 C   0  0  0  0  0  3  0  0  0  0  0  0
  189.3730  177.8880  139.9920 N   0  0  0  0  0  2  0  0  0  0  0  0
  191.3320  176.6960  138.2600 C   0  0  0  0  0  0  0  0  0  0  0  0
  189.8040  177.0570  137.3730 S   0  0  0  0  0  0  0  0  0  0  0  0
  190.0330  176.6400  140.3720 C   0  0  2  0  0  3  0  0  0  0  0  0
  192.5660  176.6890  137.5360 N   0  0  0  0  0  2  0  0  0  0  0  0
  194.6460  175.2160  138.2480 O   0  0  0  0  0  0  0  0  0  0  0  0
  192.6520  174.0510  137.4330 O   0  0  0  0  0  0  0  0  0  0  0  0
  193.5190  175.2660  137.2550 S   0  0  0  0  0  0  0  0  0  0  0  0
  194.1850  175.2700  135.6000 C   0  0  0  0  0  2  0  0  0  0  0  0
  195.4370  176.0830  135.5250 C   0  0  0  0  0  0  0  0  0  0  0  0
  195.3790  177.2990  135.5970 O   0  0  0  0  0  0  0  0  0  0  0  0
  196.7690  175.4150  135.3780 C   0  0  0  0  0  2  0  0  0  0  0  0
  197.6510  175.7530  136.4900 N   0  0  0  0  0  2  0  0  0  0  0  0
  198.0120  174.8490  137.5400 C   0  0  0  0  0  0  0  0  0  0  0  0
  198.2060  173.2450  137.2640 S   0  0  0  0  0  0  0  0  0  0  0  0
  198.2550  175.3600  138.8440 N   0  0  0  0  0  1  0  0  0  0  0  0
  190.3470  176.6760  141.8560 C   0  0  0  0  0  2  0  0  0  0  0  0
  189.6220  177.8420  142.5390 C   0  0  0  0  0  2  0  0  0  0  0  0
  189.1550  177.5210  143.8960 N   0  0  0  0  0  0  0  0  0  0  0  0
  191.0110  176.5160  146.9480 C   0  0  0  0  0  1  0  0  0  0  0  0
  190.3960  177.5120  145.9890 C   0  0  1  0  0  3  0  0  0  0  0  0
  191.3720  177.7950  144.8680 C   0  0  0  0  0  2  0  0  0  0  0  0
  190.2130  176.8420  144.6380 C   0  0  2  0  0  3  0  0  0  0  0  0
  188.0080  176.6230  143.8070 C   0  0  0  0  0  2  0  0  0  0  0  0
  186.7310  177.3740  144.1440 C   0  0  0  0  0  2  0  0  0  0  0  0
  186.7210  177.7670  145.6110 C   0  0  0  0  0  2  0  0  0  0  0  0
  185.3960  178.4020  145.9880 C   0  0  0  0  0  2  0  0  0  0  0  0
  183.3750  178.9310  144.6670 C   0  0  0  0  0  1  0  0  0  0  0  0
  184.8600  179.1830  144.8070 C   0  0  0  0  0  2  0  0  0  0  0  0
  1  4  1  0  0  0  0
  2  1  2  0  0  0  0
  3  7  1  0  0  0  0
  4  7  1  0  0  0  0
  5  3  2  0  0  0  0
  6  5  1  0  0  0  0
  6  1  1  0  0  0  0
  7 20  1  1  0  0  0
  8  5  1  0  0  0  0
 11 10  2  0  0  0  0
 11  8  1  0  0  0  0
 11  9  2  0  0  0  0
 12 11  1  0  0  0  0
 13 14  2  0  0  0  0
 13 12  1  0  0  0  0
 15 13  1  0  0  0  0
 15 16  1  0  0  0  0
 16 17  1  0  0  0  0
 17 19  1  0  0  0  0
 18 17  2  0  0  0  0
 20 21  1  0  0  0  0
 21 22  1  0  0  0  0
 24 23  1  1  0  0  0
 25 24  1  0  0  0  0
 26 22  1  6  0  0  0
 26 25  1  0  0  0  0
 26 24  1  0  0  0  0
 27 22  1  0  0  0  0
 27 28  1  0  0  0  0
 28 29  1  0  0  0  0
 29 30  1  0  0  0  0
 31 32  1  0  0  0  0
 32 30  1  0  0  0  0
M  END
>  <MODEL>
2

>  <REMARK>
 VINA RESULT:      -6.6      3.988      8.225
  Name = 
  16 active torsions:
  status: ('A' for Active; 'I' for Inactive)
    1  A    between atoms: C_1  and  N_30
    2  A    between atoms: C_2  and  C_14
    3  A    between atoms: C_2  and  S_27
    4  A    between atoms: C_5  and  C_14
    5  A    between atoms: C_5  and  N_30
    6  A    between atoms: C_6  and  N_9
    7  A    between atoms: C_6  and  C_17
    8  A    between atoms: C_7  and  C_26
    9  A    between atoms: C_7  and  C_31
   10  A    between atoms: N_9  and  C_31
   11  A    between atoms: N_9  and  C_32
   12  A    between atoms: N_16  and  C_20
   13  A    between atoms: N_16  and  S_27
   14  A    between atoms: C_17  and  C_29
   15  A    between atoms: C_18  and  C_25
   16  A    between atoms: C_18  and  C_29
                            x       y       z     vdW  Elec       q    Type
                         _______ _______ _______ _____ _____    ______ ____

>  <TORSDO>
F 16

$$$$
=
 OpenBabel11052414473D

 32 33  0  0  1  0  0  0  0  0999 V2000
  190.2970  176.2940  138.6600 C   0  0  0  0  0  0  0  0  0  0  0  0
  190.4180  175.2910  137.9100 O   0  0  0  0  0  0  0  0  0  0  0  0
  188.8000  177.7780  140.5750 C   0  0  0  0  0  3  0  0  0  0  0  0
  190.5450  176.1820  140.0630 N   0  0  0  0  0  2  0  0  0  0  0  0
  188.4750  178.0230  139.2990 C   0  0  0  0  0  0  0  0  0  0  0  0
  189.7200  177.8610  138.0050 S   0  0  0  0  0  0  0  0  0  0  0  0
  190.1690  177.2810  140.9510 C   0  0  2  0  0  3  0  0  0  0  0  0
  187.1350  178.3610  138.9300 N   0  0  0  0  0  2  0  0  0  0  0  0
  186.7580  178.4400  136.3130 O   0  0  0  0  0  0  0  0  0  0  0  0
  186.6610  176.2540  137.4110 O   0  0  0  0  0  0  0  0  0  0  0  0
  186.3130  177.7090  137.5480 S   0  0  0  0  0  0  0  0  0  0  0  0
  184.5460  177.8710  137.7310 C   0  0  0  0  0  2  0  0  0  0  0  0
  184.1990  178.5970  138.9910 C   0  0  0  0  0  0  0  0  0  0  0  0
  184.4890  179.7760  139.1140 O   0  0  0  0  0  0  0  0  0  0  0  0
  183.4820  177.8940  140.1010 C   0  0  0  0  0  2  0  0  0  0  0  0
  183.2450  178.7940  141.2250 N   0  0  0  0  0  2  0  0  0  0  0  0
  183.9780  178.7650  142.4540 C   0  0  0  0  0  0  0  0  0  0  0  0
  185.6170  178.7340  142.4770 S   0  0  0  0  0  0  0  0  0  0  0  0
  183.2700  178.8110  143.6870 N   0  0  0  0  0  1  0  0  0  0  0  0
  190.1610  176.7810  142.3830 C   0  0  0  0  0  2  0  0  0  0  0  0
  190.8470  177.7840  143.3180 C   0  0  0  0  0  2  0  0  0  0  0  0
  190.2130  177.8740  144.6410 N   0  0  0  0  0  0  0  0  0  0  0  0
  191.5860  175.9160  147.4790 C   0  0  0  0  0  1  0  0  0  0  0  0
  191.6710  176.8850  146.3200 C   0  0  1  0  0  3  0  0  0  0  0  0
  191.8470  176.1100  145.0330 C   0  0  0  0  0  2  0  0  0  0  0  0
  190.4810  176.6580  145.4030 C   0  0  2  0  0  3  0  0  0  0  0  0
  188.7690  178.0010  144.4720 C   0  0  0  0  0  2  0  0  0  0  0  0
  188.0480  177.0800  145.4420 C   0  0  0  0  0  2  0  0  0  0  0  0
  186.7690  177.7330  145.9380 C   0  0  0  0  0  2  0  0  0  0  0  0
  186.9490  178.2620  147.3480 C   0  0  0  0  0  2  0  0  0  0  0  0
  189.0780  178.3740  148.6000 C   0  0  0  0  0  1  0  0  0  0  0  0
  188.0110  177.4480  148.0580 C   0  0  0  0  0  2  0  0  0  0  0  0
  1  4  1  0  0  0  0
  2  1  2  0  0  0  0
  3  7  1  0  0  0  0
  4  7  1  0  0  0  0
  5  3  2  0  0  0  0
  6  1  1  0  0  0  0
  6  5  1  0  0  0  0
  7 20  1  1  0  0  0
  8  5  1  0  0  0  0
  9 11  2  0  0  0  0
 10 11  2  0  0  0  0
 11 12  1  0  0  0  0
 11  8  1  0  0  0  0
 12 13  1  0  0  0  0
 13 14  2  0  0  0  0
 13 15  1  0  0  0  0
 15 16  1  0  0  0  0
 16 17  1  0  0  0  0
 17 18  2  0  0  0  0
 17 19  1  0  0  0  0
 20 21  1  0  0  0  0
 21 22  1  0  0  0  0
 24 23  1  1  0  0  0
 25 26  1  0  0  0  0
 25 24  1  0  0  0  0
 26 22  1  6  0  0  0
 26 24  1  0  0  0  0
 27 22  1  0  0  0  0
 27 28  1  0  0  0  0
 28 29  1  0  0  0  0
 29 30  1  0  0  0  0
 30 32  1  0  0  0  0
 32 31  1  0  0  0  0
M  END
>  <MODEL>
3

>  <REMARK>
 VINA RESULT:      -6.5      1.381      2.508
  Name = 
  16 active torsions:
  status: ('A' for Active; 'I' for Inactive)
    1  A    between atoms: C_1  and  N_30
    2  A    between atoms: C_2  and  C_14
    3  A    between atoms: C_2  and  S_27
    4  A    between atoms: C_5  and  C_14
    5  A    between atoms: C_5  and  N_30
    6  A    between atoms: C_6  and  N_9
    7  A    between atoms: C_6  and  C_17
    8  A    between atoms: C_7  and  C_26
    9  A    between atoms: C_7  and  C_31
   10  A    between atoms: N_9  and  C_31
   11  A    between atoms: N_9  and  C_32
   12  A    between atoms: N_16  and  C_20
   13  A    between atoms: N_16  and  S_27
   14  A    between atoms: C_17  and  C_29
   15  A    between atoms: C_18  and  C_25
   16  A    between atoms: C_18  and  C_29
                            x       y       z     vdW  Elec       q    Type
                         _______ _______ _______ _____ _____    ______ ____

>  <TORSDO>
F 16

$$$$
=
 OpenBabel11052414473D

 32 33  0  0  1  0  0  0  0  0999 V2000
  185.4580  178.7130  145.2350 C   0  0  0  0  0  0  0  0  0  0  0  0
  185.3640  179.5640  146.1580 O   0  0  0  0  0  0  0  0  0  0  0  0
  186.4970  177.9220  142.7050 C   0  0  0  0  0  3  0  0  0  0  0  0
  186.6250  177.8960  145.1210 N   0  0  0  0  0  2  0  0  0  0  0  0
  185.3760  178.6530  142.6460 C   0  0  0  0  0  0  0  0  0  0  0  0
  184.1750  178.5720  143.9890 S   0  0  0  0  0  0  0  0  0  0  0  0
  186.8260  177.0930  143.9160 C   0  0  2  0  0  3  0  0  0  0  0  0
  185.1330  179.5460  141.5550 N   0  0  0  0  0  2  0  0  0  0  0  0
  184.2060  180.1500  139.1510 O   0  0  0  0  0  0  0  0  0  0  0  0
  186.1550  178.6740  139.2810 O   0  0  0  0  0  0  0  0  0  0  0  0
  184.8450  179.0300  139.9230 S   0  0  0  0  0  0  0  0  0  0  0  0
  183.7750  177.6020  139.8940 C   0  0  0  0  0  2  0  0  0  0  0  0
  182.3490  178.0010  139.6850 C   0  0  0  0  0  0  0  0  0  0  0  0
  181.9710  178.3470  138.5780 O   0  0  0  0  0  0  0  0  0  0  0  0
  181.3750  177.9650  140.8200 C   0  0  0  0  0  2  0  0  0  0  0  0
  181.1080  179.3080  141.3250 N   0  0  0  0  0  2  0  0  0  0  0  0
  180.3410  179.5940  142.5000 C   0  0  0  0  0  0  0  0  0  0  0  0
  180.1560  178.4870  143.6950 S   0  0  0  0  0  0  0  0  0  0  0  0
  179.7650  180.8840  142.6560 N   0  0  0  0  0  1  0  0  0  0  0  0
  188.2740  176.6430  143.8560 C   0  0  0  0  0  2  0  0  0  0  0  0
  189.1970  177.8180  143.5080 C   0  0  0  0  0  2  0  0  0  0  0  0
  190.4190  177.4070  142.8030 N   0  0  0  0  0  0  0  0  0  0  0  0
  190.9560  176.3670  139.2810 C   0  0  0  0  0  1  0  0  0  0  0  0
  190.8420  177.3720  140.4070 C   0  0  1  0  0  3  0  0  0  0  0  0
  189.3850  177.7200  140.6190 C   0  0  0  0  0  2  0  0  0  0  0  0
  190.0710  176.7390  141.5520 C   0  0  2  0  0  3  0  0  0  0  0  0
  191.1580  176.4640  143.6360 C   0  0  0  0  0  2  0  0  0  0  0  0
  191.6000  177.1410  144.9230 C   0  0  0  0  0  2  0  0  0  0  0  0
  191.3710  176.2210  146.1090 C   0  0  0  0  0  2  0  0  0  0  0  0
  191.1510  177.0230  147.3770 C   0  0  0  0  0  2  0  0  0  0  0  0
  188.7390  176.5260  147.5880 C   0  0  0  0  0  1  0  0  0  0  0  0
  189.7590  177.6190  147.3580 C   0  0  0  0  0  2  0  0  0  0  0  0
  1  2  2  0  0  0  0
  3  7  1  0  0  0  0
  4  1  1  0  0  0  0
  5  3  2  0  0  0  0
  5  6  1  0  0  0  0
  6  1  1  0  0  0  0
  7 20  1  6  0  0  0
  7  4  1  0  0  0  0
  8  5  1  0  0  0  0
  9 11  2  0  0  0  0
 10 11  2  0  0  0  0
 11  8  1  0  0  0  0
 12 11  1  0  0  0  0
 13 12  1  0  0  0  0
 13 15  1  0  0  0  0
 14 13  2  0  0  0  0
 15 16  1  0  0  0  0
 16 17  1  0  0  0  0
 17 19  1  0  0  0  0
 17 18  2  0  0  0  0
 21 20  1  0  0  0  0
 22 21  1  0  0  0  0
 22 27  1  0  0  0  0
 24 23  1  6  0  0  0
 24 25  1  0  0  0  0
 24 26  1  0  0  0  0
 25 26  1  0  0  0  0
 26 22  1  1  0  0  0
 27 28  1  0  0  0  0
 28 29  1  0  0  0  0
 29 30  1  0  0  0  0
 32 30  1  0  0  0  0
 32 31  1  0  0  0  0
M  END
>  <MODEL>
4

>  <REMARK>
 VINA RESULT:      -6.4      2.383      4.536
  Name = 
  16 active torsions:
  status: ('A' for Active; 'I' for Inactive)
    1  A    between atoms: C_1  and  N_30
    2  A    between atoms: C_2  and  C_14
    3  A    between atoms: C_2  and  S_27
    4  A    between atoms: C_5  and  C_14
    5  A    between atoms: C_5  and  N_30
    6  A    between atoms: C_6  and  N_9
    7  A    between atoms: C_6  and  C_17
    8  A    between atoms: C_7  and  C_26
    9  A    between atoms: C_7  and  C_31
   10  A    between atoms: N_9  and  C_31
   11  A    between atoms: N_9  and  C_32
   12  A    between atoms: N_16  and  C_20
   13  A    between atoms: N_16  and  S_27
   14  A    between atoms: C_17  and  C_29
   15  A    between atoms: C_18  and  C_25
   16  A    between atoms: C_18  and  C_29
                            x       y       z     vdW  Elec       q    Type
                         _______ _______ _______ _____ _____    ______ ____

>  <TORSDO>
F 16

$$$$
=
 OpenBabel11052414473D

 32 33  0  0  1  0  0  0  0  0999 V2000
  185.6990  178.7170  145.3720 C   0  0  0  0  0  0  0  0  0  0  0  0
  185.6630  179.5810  146.2870 O   0  0  0  0  0  0  0  0  0  0  0  0
  186.6320  177.8620  142.8210 C   0  0  0  0  0  3  0  0  0  0  0  0
  186.8340  177.8600  145.2320 N   0  0  0  0  0  2  0  0  0  0  0  0
  185.5340  178.6290  142.7870 C   0  0  0  0  0  0  0  0  0  0  0  0
  184.3750  178.6040  144.1680 S   0  0  0  0  0  0  0  0  0  0  0  0
  186.9710  177.0360  144.0320 C   0  0  2  0  0  3  0  0  0  0  0  0
  185.2870  179.5170  141.6930 N   0  0  0  0  0  2  0  0  0  0  0  0
  184.2900  180.1350  139.3210 O   0  0  0  0  0  0  0  0  0  0  0  0
  186.1550  178.5500  139.3940 O   0  0  0  0  0  0  0  0  0  0  0  0
  184.8970  178.9920  140.0850 S   0  0  0  0  0  0  0  0  0  0  0  0
  183.7470  177.6290  140.1300 C   0  0  0  0  0  2  0  0  0  0  0  0
  182.3340  178.1130  140.0600 C   0  0  0  0  0  0  0  0  0  0  0  0
  181.6990  177.9910  139.0250 O   0  0  0  0  0  0  0  0  0  0  0  0
  181.6840  178.7350  141.2560 C   0  0  0  0  0  2  0  0  0  0  0  0
  180.3300  179.1800  140.9450 N   0  0  0  0  0  2  0  0  0  0  0  0
  179.9480  180.5480  140.7630 C   0  0  0  0  0  0  0  0  0  0  0  0
  180.1960  181.3270  139.3420 S   0  0  0  0  0  0  0  0  0  0  0  0
  179.2970  181.2350  141.8240 N   0  0  0  0  0  1  0  0  0  0  0  0
  188.4010  176.5390  143.9320 C   0  0  0  0  0  2  0  0  0  0  0  0
  189.3470  177.4250  144.7520 C   0  0  0  0  0  2  0  0  0  0  0  0
  190.7120  176.8890  144.8440 N   0  0  0  0  0  0  0  0  0  0  0  0
  192.4870  175.9480  147.9640 C   0  0  0  0  0  1  0  0  0  0  0  0
  191.4330  175.7870  146.8900 C   0  0  1  0  0  3  0  0  0  0  0  0
  190.2440  176.6600  147.2230 C   0  0  0  0  0  2  0  0  0  0  0  0
  191.2480  177.1190  146.1820 C   0  0  2  0  0  3  0  0  0  0  0  0
  191.5640  177.5830  143.8830 C   0  0  0  0  0  2  0  0  0  0  0  0
  191.6610  176.7800  142.5960 C   0  0  0  0  0  2  0  0  0  0  0  0
  191.8600  177.7060  141.4100 C   0  0  0  0  0  2  0  0  0  0  0  0
  191.2610  177.1050  140.1520 C   0  0  0  0  0  2  0  0  0  0  0  0
  189.1980  177.0150  138.7950 C   0  0  0  0  0  1  0  0  0  0  0  0
  189.7600  177.2990  140.1710 C   0  0  0  0  0  2  0  0  0  0  0  0
  1  2  2  0  0  0  0
  3  7  1  0  0  0  0
  4  1  1  0  0  0  0
  5  3  2  0  0  0  0
  5  6  1  0  0  0  0
  6  1  1  0  0  0  0
  7 20  1  6  0  0  0
  7  4  1  0  0  0  0
  8  5  1  0  0  0  0
  9 11  2  0  0  0  0
 10 11  2  0  0  0  0
 11 12  1  0  0  0  0
 11  8  1  0  0  0  0
 13 12  1  0  0  0  0
 13 15  1  0  0  0  0
 14 13  2  0  0  0  0
 16 15  1  0  0  0  0
 17 16  1  0  0  0  0
 17 19  1  0  0  0  0
 18 17  2  0  0  0  0
 20 21  1  0  0  0  0
 21 22  1  0  0  0  0
 24 25  1  0  0  0  0
 24 23  1  1  0  0  0
 26 22  1  6  0  0  0
 26 24  1  0  0  0  0
 26 25  1  0  0  0  0
 27 22  1  0  0  0  0
 28 27  1  0  0  0  0
 29 28  1  0  0  0  0
 30 32  1  0  0  0  0
 30 29  1  0  0  0  0
 31 32  1  0  0  0  0
M  END
>  <MODEL>
5

>  <REMARK>
 VINA RESULT:      -6.4      2.539      5.357
  Name = 
  16 active torsions:
  status: ('A' for Active; 'I' for Inactive)
    1  A    between atoms: C_1  and  N_30
    2  A    between atoms: C_2  and  C_14
    3  A    between atoms: C_2  and  S_27
    4  A    between atoms: C_5  and  C_14
    5  A    between atoms: C_5  and  N_30
    6  A    between atoms: C_6  and  N_9
    7  A    between atoms: C_6  and  C_17
    8  A    between atoms: C_7  and  C_26
    9  A    between atoms: C_7  and  C_31
   10  A    between atoms: N_9  and  C_31
   11  A    between atoms: N_9  and  C_32
   12  A    between atoms: N_16  and  C_20
   13  A    between atoms: N_16  and  S_27
   14  A    between atoms: C_17  and  C_29
   15  A    between atoms: C_18  and  C_25
   16  A    between atoms: C_18  and  C_29
                            x       y       z     vdW  Elec       q    Type
                         _______ _______ _______ _____ _____    ______ ____

>  <TORSDO>
F 16

$$$$
=
 OpenBabel11052414473D

 32 33  0  0  1  0  0  0  0  0999 V2000
  185.3210  178.6950  145.1820 C   0  0  0  0  0  0  0  0  0  0  0  0
  185.1950  179.5260  146.1180 O   0  0  0  0  0  0  0  0  0  0  0  0
  186.4280  177.9640  142.6620 C   0  0  0  0  0  3  0  0  0  0  0  0
  186.5020  177.8960  145.0790 N   0  0  0  0  0  2  0  0  0  0  0  0
  185.2980  178.6810  142.5900 C   0  0  0  0  0  0  0  0  0  0  0  0
  184.0690  178.5590  143.9050 S   0  0  0  0  0  0  0  0  0  0  0  0
  186.7410  177.1170  143.8650 C   0  0  2  0  0  3  0  0  0  0  0  0
  185.0680  179.5900  141.5100 N   0  0  0  0  0  2  0  0  0  0  0  0
  184.2350  180.2760  139.0940 O   0  0  0  0  0  0  0  0  0  0  0  0
  186.0110  178.5970  139.2520 O   0  0  0  0  0  0  0  0  0  0  0  0
  184.7410  179.0980  139.8790 S   0  0  0  0  0  0  0  0  0  0  0  0
  183.5220  177.7950  139.8470 C   0  0  0  0  0  2  0  0  0  0  0  0
  182.7620  177.7990  138.5600 C   0  0  0  0  0  0  0  0  0  0  0  0
  181.6260  178.2430  138.5250 O   0  0  0  0  0  0  0  0  0  0  0  0
  183.3890  177.2750  137.3050 C   0  0  0  0  0  2  0  0  0  0  0  0
  184.2490  176.1310  137.5870 N   0  0  0  0  0  2  0  0  0  0  0  0
  185.4030  175.7750  136.8170 C   0  0  0  0  0  0  0  0  0  0  0  0
  186.2660  176.9000  135.9950 S   0  0  0  0  0  0  0  0  0  0  0  0
  185.8380  174.4220  136.8020 N   0  0  0  0  0  1  0  0  0  0  0  0
  188.1960  176.6890  143.8300 C   0  0  0  0  0  2  0  0  0  0  0  0
  189.0760  177.7890  143.2230 C   0  0  0  0  0  2  0  0  0  0  0  0
  190.3390  177.2830  142.6660 N   0  0  0  0  0  0  0  0  0  0  0  0
  191.0760  176.3950  139.1400 C   0  0  0  0  0  1  0  0  0  0  0  0
  190.8390  177.3530  140.2860 C   0  0  1  0  0  3  0  0  0  0  0  0
  189.3510  177.5690  140.4580 C   0  0  0  0  0  2  0  0  0  0  0  0
  190.0890  176.6230  141.3880 C   0  0  2  0  0  3  0  0  0  0  0  0
  190.9070  176.3020  143.5860 C   0  0  0  0  0  2  0  0  0  0  0  0
  191.7180  177.0040  144.6620 C   0  0  0  0  0  2  0  0  0  0  0  0
  191.2760  176.5450  146.0400 C   0  0  0  0  0  2  0  0  0  0  0  0
  190.3000  177.5340  146.6480 C   0  0  0  0  0  2  0  0  0  0  0  0
  188.3930  177.7370  148.2080 C   0  0  0  0  0  1  0  0  0  0  0  0
  189.1960  176.7780  147.3570 C   0  0  0  0  0  2  0  0  0  0  0  0
  1  2  2  0  0  0  0
  3  7  1  0  0  0  0
  4  1  1  0  0  0  0
  5  3  2  0  0  0  0
  5  6  1  0  0  0  0
  6  1  1  0  0  0  0
  7 20  1  6  0  0  0
  7  4  1  0  0  0  0
  8  5  1  0  0  0  0
  9 11  2  0  0  0  0
 10 11  2  0  0  0  0
 11  8  1  0  0  0  0
 12 11  1  0  0  0  0
 13 12  1  0  0  0  0
 14 13  2  0  0  0  0
 15 16  1  0  0  0  0
 15 13  1  0  0  0  0
 17 16  1  0  0  0  0
 18 17  2  0  0  0  0
 19 17  1  0  0  0  0
 21 20  1  0  0  0  0
 22 21  1  0  0  0  0
 22 27  1  0  0  0  0
 24 23  1  6  0  0  0
 24 25  1  0  0  0  0
 24 26  1  0  0  0  0
 25 26  1  0  0  0  0
 26 22  1  1  0  0  0
 27 28  1  0  0  0  0
 28 29  1  0  0  0  0
 29 30  1  0  0  0  0
 30 32  1  0  0  0  0
 32 31  1  0  0  0  0
M  END
>  <MODEL>
6

>  <REMARK>
 VINA RESULT:      -6.4      2.504      4.940
  Name = 
  16 active torsions:
  status: ('A' for Active; 'I' for Inactive)
    1  A    between atoms: C_1  and  N_30
    2  A    between atoms: C_2  and  C_14
    3  A    between atoms: C_2  and  S_27
    4  A    between atoms: C_5  and  C_14
    5  A    between atoms: C_5  and  N_30
    6  A    between atoms: C_6  and  N_9
    7  A    between atoms: C_6  and  C_17
    8  A    between atoms: C_7  and  C_26
    9  A    between atoms: C_7  and  C_31
   10  A    between atoms: N_9  and  C_31
   11  A    between atoms: N_9  and  C_32
   12  A    between atoms: N_16  and  C_20
   13  A    between atoms: N_16  and  S_27
   14  A    between atoms: C_17  and  C_29
   15  A    between atoms: C_18  and  C_25
   16  A    between atoms: C_18  and  C_29
                            x       y       z     vdW  Elec       q    Type
                         _______ _______ _______ _____ _____    ______ ____

>  <TORSDO>
F 16

$$$$
=
 OpenBabel11052414473D

 32 33  0  0  1  0  0  0  0  0999 V2000
  189.7690  177.1510  138.1820 C   0  0  0  0  0  0  0  0  0  0  0  0
  190.0990  176.3620  137.2580 O   0  0  0  0  0  0  0  0  0  0  0  0
  187.9880  177.8920  140.2760 C   0  0  0  0  0  3  0  0  0  0  0  0
  190.0270  176.8130  139.5470 N   0  0  0  0  0  2  0  0  0  0  0  0
  187.6270  178.3160  139.0580 C   0  0  0  0  0  0  0  0  0  0  0  0
  188.8870  178.6680  137.8160 S   0  0  0  0  0  0  0  0  0  0  0  0
  189.4280  177.6150  140.6120 C   0  0  2  0  0  3  0  0  0  0  0  0
  186.2480  178.4460  138.7000 N   0  0  0  0  0  2  0  0  0  0  0  0
  185.6620  179.5900  141.0120 O   0  0  0  0  0  0  0  0  0  0  0  0
  184.2570  180.1380  139.0830 O   0  0  0  0  0  0  0  0  0  0  0  0
  185.0180  179.0400  139.7710 S   0  0  0  0  0  0  0  0  0  0  0  0
  183.8860  177.7350  140.2160 C   0  0  0  0  0  2  0  0  0  0  0  0
  182.6780  178.2820  140.9060 C   0  0  0  0  0  0  0  0  0  0  0  0
  182.7430  178.6130  142.0780 O   0  0  0  0  0  0  0  0  0  0  0  0
  181.3870  178.4430  140.1650 C   0  0  0  0  0  2  0  0  0  0  0  0
  180.3330  178.9320  141.0480 N   0  0  0  0  0  2  0  0  0  0  0  0
  179.9580  180.3080  141.1780 C   0  0  0  0  0  0  0  0  0  0  0  0
  179.7040  181.2560  139.8650 S   0  0  0  0  0  0  0  0  0  0  0  0
  179.7570  180.8540  142.4750 N   0  0  0  0  0  1  0  0  0  0  0  0
  189.5150  176.8480  141.9180 C   0  0  0  0  0  2  0  0  0  0  0  0
  189.6840  177.8050  143.1050 C   0  0  0  0  0  2  0  0  0  0  0  0
  188.6500  177.6410  144.1360 N   0  0  0  0  0  0  0  0  0  0  0  0
  189.4220  177.0920  147.7240 C   0  0  0  0  0  1  0  0  0  0  0  0
  189.4380  177.8710  146.4270 C   0  0  1  0  0  3  0  0  0  0  0  0
  190.5990  177.4020  145.5780 C   0  0  0  0  0  2  0  0  0  0  0  0
  189.1960  176.9090  145.2750 C   0  0  2  0  0  3  0  0  0  0  0  0
  187.5420  176.8690  143.5840 C   0  0  0  0  0  2  0  0  0  0  0  0
  186.2770  177.1230  144.3880 C   0  0  0  0  0  2  0  0  0  0  0  0
  185.7540  178.5240  144.1210 C   0  0  0  0  0  2  0  0  0  0  0  0
  184.8460  178.9810  145.2470 C   0  0  0  0  0  2  0  0  0  0  0  0
  186.1160  179.2890  147.3450 C   0  0  0  0  0  1  0  0  0  0  0  0
  185.2780  178.3200  146.5390 C   0  0  0  0  0  2  0  0  0  0  0  0
  1  4  1  0  0  0  0
  2  1  2  0  0  0  0
  3  7  1  0  0  0  0
  4  7  1  0  0  0  0
  5  3  2  0  0  0  0
  6  1  1  0  0  0  0
  6  5  1  0  0  0  0
  7 20  1  1  0  0  0
  8  5  1  0  0  0  0
  8 11  1  0  0  0  0
 10 11  2  0  0  0  0
 11 12  1  0  0  0  0
 11  9  2  0  0  0  0
 12 13  1  0  0  0  0
 13 14  2  0  0  0  0
 15 13  1  0  0  0  0
 15 16  1  0  0  0  0
 16 17  1  0  0  0  0
 17 19  1  0  0  0  0
 18 17  2  0  0  0  0
 20 21  1  0  0  0  0
 21 22  1  0  0  0  0
 24 23  1  1  0  0  0
 25 24  1  0  0  0  0
 26 22  1  6  0  0  0
 26 25  1  0  0  0  0
 26 24  1  0  0  0  0
 27 22  1  0  0  0  0
 27 28  1  0  0  0  0
 29 28  1  0  0  0  0
 29 30  1  0  0  0  0
 30 32  1  0  0  0  0
 32 31  1  0  0  0  0
M  END
>  <MODEL>
7

>  <REMARK>
 VINA RESULT:      -6.2      1.845      3.256
  Name = 
  16 active torsions:
  status: ('A' for Active; 'I' for Inactive)
    1  A    between atoms: C_1  and  N_30
    2  A    between atoms: C_2  and  C_14
    3  A    between atoms: C_2  and  S_27
    4  A    between atoms: C_5  and  C_14
    5  A    between atoms: C_5  and  N_30
    6  A    between atoms: C_6  and  N_9
    7  A    between atoms: C_6  and  C_17
    8  A    between atoms: C_7  and  C_26
    9  A    between atoms: C_7  and  C_31
   10  A    between atoms: N_9  and  C_31
   11  A    between atoms: N_9  and  C_32
   12  A    between atoms: N_16  and  C_20
   13  A    between atoms: N_16  and  S_27
   14  A    between atoms: C_17  and  C_29
   15  A    between atoms: C_18  and  C_25
   16  A    between atoms: C_18  and  C_29
                            x       y       z     vdW  Elec       q    Type
                         _______ _______ _______ _____ _____    ______ ____

>  <TORSDO>
F 16

$$$$
=
 OpenBabel11052414473D

 32 33  0  0  1  0  0  0  0  0999 V2000
  185.6430  178.7380  145.2510 C   0  0  0  0  0  0  0  0  0  0  0  0
  185.5750  179.6010  146.1640 O   0  0  0  0  0  0  0  0  0  0  0  0
  186.6320  177.9010  142.7150 C   0  0  0  0  0  3  0  0  0  0  0  0
  186.7980  177.9040  145.1290 N   0  0  0  0  0  2  0  0  0  0  0  0
  185.5200  178.6450  142.6640 C   0  0  0  0  0  0  0  0  0  0  0  0
  184.3400  178.5970  144.0270 S   0  0  0  0  0  0  0  0  0  0  0  0
  186.9700  177.0830  143.9310 C   0  0  2  0  0  3  0  0  0  0  0  0
  185.2720  179.5270  141.5650 N   0  0  0  0  0  2  0  0  0  0  0  0
  184.2360  180.1900  139.2220 O   0  0  0  0  0  0  0  0  0  0  0  0
  185.8740  178.3710  139.2690 O   0  0  0  0  0  0  0  0  0  0  0  0
  184.7260  179.0030  140.0030 S   0  0  0  0  0  0  0  0  0  0  0  0
  183.4090  177.8110  140.1630 C   0  0  0  0  0  2  0  0  0  0  0  0
  183.0480  177.2240  138.8370 C   0  0  0  0  0  0  0  0  0  0  0  0
  182.4340  177.8930  138.0210 O   0  0  0  0  0  0  0  0  0  0  0  0
  183.4480  175.8240  138.4910 C   0  0  0  0  0  2  0  0  0  0  0  0
  183.9880  175.7520  137.1370 N   0  0  0  0  0  2  0  0  0  0  0  0
  185.3320  176.0950  136.7820 C   0  0  0  0  0  0  0  0  0  0  0  0
  186.5670  175.0320  136.9630 S   0  0  0  0  0  0  0  0  0  0  0  0
  185.5970  177.3720  136.2160 N   0  0  0  0  0  1  0  0  0  0  0  0
  188.4110  176.6140  143.8550 C   0  0  0  0  0  2  0  0  0  0  0  0
  189.2210  177.1390  145.0460 C   0  0  0  0  0  2  0  0  0  0  0  0
  190.6460  176.7840  144.9820 N   0  0  0  0  0  0  0  0  0  0  0  0
  192.5440  175.8080  148.0180 C   0  0  0  0  0  1  0  0  0  0  0  0
  191.4200  175.6880  147.0120 C   0  0  1  0  0  3  0  0  0  0  0  0
  190.3070  176.6400  147.3900 C   0  0  0  0  0  2  0  0  0  0  0  0
  191.2730  177.0110  146.2800 C   0  0  2  0  0  3  0  0  0  0  0  0
  191.3060  177.6340  143.9970 C   0  0  0  0  0  2  0  0  0  0  0  0
  191.6890  176.8170  142.7750 C   0  0  0  0  0  2  0  0  0  0  0  0
  191.3430  177.5730  141.5040 C   0  0  0  0  0  2  0  0  0  0  0  0
  190.4110  176.7560  140.6300 C   0  0  0  0  0  2  0  0  0  0  0  0
  189.2870  177.5100  138.5610 C   0  0  0  0  0  1  0  0  0  0  0  0
  189.3330  177.6580  140.0660 C   0  0  0  0  0  2  0  0  0  0  0  0
  1  2  2  0  0  0  0
  3  7  1  0  0  0  0
  4  1  1  0  0  0  0
  5  3  2  0  0  0  0
  5  6  1  0  0  0  0
  6  1  1  0  0  0  0
  7 20  1  6  0  0  0
  7  4  1  0  0  0  0
  8  5  1  0  0  0  0
  9 11  2  0  0  0  0
 10 11  2  0  0  0  0
 11 12  1  0  0  0  0
 11  8  1  0  0  0  0
 13 12  1  0  0  0  0
 14 13  2  0  0  0  0
 15 13  1  0  0  0  0
 16 15  1  0  0  0  0
 17 18  2  0  0  0  0
 17 16  1  0  0  0  0
 19 17  1  0  0  0  0
 20 21  1  0  0  0  0
 22 21  1  0  0  0  0
 24 25  1  0  0  0  0
 24 23  1  1  0  0  0
 26 22  1  6  0  0  0
 26 24  1  0  0  0  0
 26 25  1  0  0  0  0
 27 22  1  0  0  0  0
 28 27  1  0  0  0  0
 29 28  1  0  0  0  0
 30 29  1  0  0  0  0
 31 32  1  0  0  0  0
 32 30  1  0  0  0  0
M  END
>  <MODEL>
8

>  <REMARK>
 VINA RESULT:      -6.2      2.543      5.606
  Name = 
  16 active torsions:
  status: ('A' for Active; 'I' for Inactive)
    1  A    between atoms: C_1  and  N_30
    2  A    between atoms: C_2  and  C_14
    3  A    between atoms: C_2  and  S_27
    4  A    between atoms: C_5  and  C_14
    5  A    between atoms: C_5  and  N_30
    6  A    between atoms: C_6  and  N_9
    7  A    between atoms: C_6  and  C_17
    8  A    between atoms: C_7  and  C_26
    9  A    between atoms: C_7  and  C_31
   10  A    between atoms: N_9  and  C_31
   11  A    between atoms: N_9  and  C_32
   12  A    between atoms: N_16  and  C_20
   13  A    between atoms: N_16  and  S_27
   14  A    between atoms: C_17  and  C_29
   15  A    between atoms: C_18  and  C_25
   16  A    between atoms: C_18  and  C_29
                            x       y       z     vdW  Elec       q    Type
                         _______ _______ _______ _____ _____    ______ ____

>  <TORSDO>
F 16

$$$$
=
 OpenBabel11052414473D

 32 33  0  0  1  0  0  0  0  0999 V2000
  190.9400  176.4890  143.4520 C   0  0  0  0  0  0  0  0  0  0  0  0
  191.6830  175.5860  143.9160 O   0  0  0  0  0  0  0  0  0  0  0  0
  188.7740  177.2900  141.7860 C   0  0  0  0  0  3  0  0  0  0  0  0
  189.6200  176.6760  143.9680 N   0  0  0  0  0  2  0  0  0  0  0  0
  189.9560  177.1970  141.1610 C   0  0  0  0  0  0  0  0  0  0  0  0
  191.4820  177.4990  142.0720 S   0  0  0  0  0  0  0  0  0  0  0  0
  188.6900  177.5580  143.2640 C   0  0  2  0  0  3  0  0  0  0  0  0
  190.0360  176.8070  139.7870 N   0  0  0  0  0  2  0  0  0  0  0  0
  187.7250  176.9830  138.5100 O   0  0  0  0  0  0  0  0  0  0  0  0
  189.0510  179.0270  138.7520 O   0  0  0  0  0  0  0  0  0  0  0  0
  189.1190  177.5460  138.5130 S   0  0  0  0  0  0  0  0  0  0  0  0
  189.8850  177.2450  136.9300 C   0  0  0  0  0  2  0  0  0  0  0  0
  190.2870  175.8120  136.7890 C   0  0  0  0  0  0  0  0  0  0  0  0
  189.4610  174.9290  136.9520 O   0  0  0  0  0  0  0  0  0  0  0  0
  191.6960  175.4490  136.4350 C   0  0  0  0  0  2  0  0  0  0  0  0
  192.4920  175.2040  137.6330 N   0  0  0  0  0  2  0  0  0  0  0  0
  193.7860  174.5930  137.6340 C   0  0  0  0  0  0  0  0  0  0  0  0
  194.0710  173.1840  136.8460 S   0  0  0  0  0  0  0  0  0  0  0  0
  194.8620  175.2440  138.2960 N   0  0  0  0  0  1  0  0  0  0  0  0
  187.2810  177.2880  143.7580 C   0  0  0  0  0  2  0  0  0  0  0  0
  186.7830  178.4360  144.6440 C   0  0  0  0  0  2  0  0  0  0  0  0
  185.6000  178.0830  145.4420 N   0  0  0  0  0  0  0  0  0  0  0  0
  182.3610  179.1060  143.9500 C   0  0  0  0  0  1  0  0  0  0  0  0
  183.7670  178.5480  143.9120 C   0  0  1  0  0  3  0  0  0  0  0  0
  184.7540  179.6900  143.8190 C   0  0  0  0  0  2  0  0  0  0  0  0
  184.5110  179.0100  145.1540 C   0  0  2  0  0  3  0  0  0  0  0  0
  185.9310  178.1900  146.8600 C   0  0  0  0  0  2  0  0  0  0  0  0
  187.2830  177.5510  147.1300 C   0  0  0  0  0  2  0  0  0  0  0  0
  187.9510  178.2120  148.3230 C   0  0  0  0  0  2  0  0  0  0  0  0
  189.4510  177.9900  148.2890 C   0  0  0  0  0  2  0  0  0  0  0  0
  191.2620  176.6080  147.3280 C   0  0  0  0  0  1  0  0  0  0  0  0
  189.7680  176.8500  147.3440 C   0  0  0  0  0  2  0  0  0  0  0  0
  1  2  2  0  0  0  0
  1  4  1  0  0  0  0
  3  7  1  0  0  0  0
  5  3  2  0  0  0  0
  5  6  1  0  0  0  0
  6  1  1  0  0  0  0
  7 20  1  1  0  0  0
  7  4  1  0  0  0  0
  8  5  1  0  0  0  0
  9 11  2  0  0  0  0
 11 10  2  0  0  0  0
 11  8  1  0  0  0  0
 12 11  1  0  0  0  0
 13 12  1  0  0  0  0
 13 14  2  0  0  0  0
 15 13  1  0  0  0  0
 15 16  1  0  0  0  0
 16 17  1  0  0  0  0
 17 19  1  0  0  0  0
 18 17  2  0  0  0  0
 20 21  1  0  0  0  0
 21 22  1  0  0  0  0
 22 27  1  0  0  0  0
 24 23  1  1  0  0  0
 24 26  1  0  0  0  0
 25 24  1  0  0  0  0
 25 26  1  0  0  0  0
 26 22  1  6  0  0  0
 27 28  1  0  0  0  0
 28 29  1  0  0  0  0
 30 29  1  0  0  0  0
 31 32  1  0  0  0  0
 32 30  1  0  0  0  0
M  END
>  <MODEL>
9

>  <REMARK>
 VINA RESULT:      -6.2      2.928      6.270
  Name = 
  16 active torsions:
  status: ('A' for Active; 'I' for Inactive)
    1  A    between atoms: C_1  and  N_30
    2  A    between atoms: C_2  and  C_14
    3  A    between atoms: C_2  and  S_27
    4  A    between atoms: C_5  and  C_14
    5  A    between atoms: C_5  and  N_30
    6  A    between atoms: C_6  and  N_9
    7  A    between atoms: C_6  and  C_17
    8  A    between atoms: C_7  and  C_26
    9  A    between atoms: C_7  and  C_31
   10  A    between atoms: N_9  and  C_31
   11  A    between atoms: N_9  and  C_32
   12  A    between atoms: N_16  and  C_20
   13  A    between atoms: N_16  and  S_27
   14  A    between atoms: C_17  and  C_29
   15  A    between atoms: C_18  and  C_25
   16  A    between atoms: C_18  and  C_29
                            x       y       z     vdW  Elec       q    Type
                         _______ _______ _______ _____ _____    ______ ____

>  <TORSDO>
F 16

$$$$
