=
 OpenBabel11052413433D

 27 30  0  0  1  0  0  0  0  0999 V2000
  189.5420  177.6770  141.6130 C   0  0  2  0  0  3  0  0  0  0  0  0
  190.5910  177.2710  140.6170 C   0  0  0  0  0  0  0  0  0  0  0  0
  193.4560  175.5020  138.1950 C   0  0  0  0  0  3  0  0  0  0  0  0
  194.0320  173.5930  136.9190 O   0  0  0  0  0  1  0  0  0  0  0  0
  191.8630  177.6740  140.7240 C   0  0  0  0  0  3  0  0  0  0  0  0
  190.6870  174.9700  137.6560 C   0  0  0  0  0  2  0  0  0  0  0  0
  191.6580  174.2980  137.0250 C   0  0  0  0  0  3  0  0  0  0  0  0
  190.2210  176.3420  139.5830 N   0  0  0  0  0  0  0  0  0  0  0  0
  193.0850  174.5020  137.3770 C   0  0  0  0  0  0  0  0  0  0  0  0
  192.4500  176.5380  138.6040 C   0  0  0  0  0  0  0  0  0  0  0  0
  191.0600  175.9670  138.6660 C   0  0  0  0  0  0  0  0  0  0  0  0
  192.8220  177.2510  139.7910 O   0  0  0  0  0  0  0  0  0  0  0  0
  189.4440  176.8520  142.9270 C   0  0  2  0  0  0  0  0  0  0  0  0
  191.2800  177.9710  144.0840 O   0  0  0  0  0  1  0  0  0  0  0  0
  189.7890  178.1700  146.4540 O   0  0  0  0  0  1  0  0  0  0  0  0
  187.9090  177.0240  145.5320 C   0  0  0  0  0  2  0  0  0  0  0  0
  190.3700  175.6390  142.8550 C   0  0  0  0  0  1  0  0  0  0  0  0
  189.4280  177.2550  145.4690 C   0  0  1  0  0  3  0  0  0  0  0  0
  187.2240  177.1120  144.1680 C   0  0  0  0  0  2  0  0  0  0  0  0
  188.0100  176.3100  143.1270 C   0  0  0  0  0  2  0  0  0  0  0  0
  189.8930  177.7660  144.0980 C   0  0  2  0  0  3  0  0  0  0  0  0
  185.8490  178.7980  139.7900 N   0  0  0  0  0  0  0  0  0  0  0  0
  188.2300  178.0730  140.9850 C   0  0  0  0  0  0  0  0  0  0  0  0
  188.0190  177.8200  139.6260 C   0  0  0  0  0  3  0  0  0  0  0  0
  186.8130  178.1980  139.0370 C   0  0  0  0  0  3  0  0  0  0  0  0
  186.0270  179.0500  141.1120 C   0  0  0  0  0  3  0  0  0  0  0  0
  187.2240  178.6940  141.7350 C   0  0  0  0  0  3  0  0  0  0  0  0
  1  2  1  6  0  0  0
  1 13  1  0  0  0  0
  2  5  2  0  0  0  0
  3 10  2  0  0  0  0
  4  9  1  0  0  0  0
  6 11  1  0  0  0  0
  7  9  2  0  0  0  0
  7  6  1  0  0  0  0
  8  2  1  0  0  0  0
  9  3  1  0  0  0  0
 10 11  1  0  0  0  0
 10 12  1  0  0  0  0
 11  8  2  0  0  0  0
 12  5  1  0  0  0  0
 13 17  1  6  0  0  0
 13 20  1  0  0  0  0
 13 21  1  0  0  0  0
 18 16  1  0  0  0  0
 18 15  1  1  0  0  0
 19 16  1  0  0  0  0
 20 19  1  0  0  0  0
 21 14  1  1  0  0  0
 21 18  1  0  0  0  0
 22 26  1  0  0  0  0
 23  1  1  0  0  0  0
 23 27  1  0  0  0  0
 24 23  2  0  0  0  0
 25 24  1  0  0  0  0
 25 22  2  0  0  0  0
 26 27  2  0  0  0  0
M  END
>  <MODEL>
1

>  <REMARK>
 VINA RESULT:      -8.2      0.000      0.000
  Name = 
  3 active torsions:
  status: ('A' for Active; 'I' for Inactive)
    1  A    between atoms: C_1  and  C_15
    2  A    between atoms: C_2  and  C_15
    3  A    between atoms: C_9  and  C_15
                            x       y       z     vdW  Elec       q    Type
                         _______ _______ _______ _____ _____    ______ ____

>  <TORSDO>
F 3

$$$$
=
 OpenBabel11052413433D

 27 30  0  0  1  0  0  0  0  0999 V2000
  183.2730  177.5180  139.8830 C   0  0  2  0  0  3  0  0  0  0  0  0
  183.4290  178.1040  141.2580 C   0  0  0  0  0  0  0  0  0  0  0  0
  183.8130  179.0360  145.2810 C   0  0  0  0  0  3  0  0  0  0  0  0
  184.8690  178.4820  147.3250 O   0  0  0  0  0  1  0  0  0  0  0  0
  182.4320  178.7600  141.8650 C   0  0  0  0  0  3  0  0  0  0  0  0
  186.1120  178.0440  143.8780 C   0  0  0  0  0  3  0  0  0  0  0  0
  186.1240  178.1980  145.2080 C   0  0  0  0  0  3  0  0  0  0  0  0
  184.6570  177.8580  141.9640 N   0  0  0  0  0  0  0  0  0  0  0  0
  184.9050  178.6140  145.9420 C   0  0  0  0  0  0  0  0  0  0  0  0
  183.8880  179.2730  143.8010 C   0  0  1  0  0  3  0  0  0  0  0  0
  184.8810  178.3560  143.1420 C   0  0  0  0  0  0  0  0  0  0  0  0
  182.6040  179.2690  143.1610 O   0  0  0  0  0  0  0  0  0  0  0  0
  183.9230  178.2860  138.6980 C   0  0  2  0  0  0  0  0  0  0  0  0
  186.0810  178.6660  139.7740 O   0  0  0  0  0  1  0  0  0  0  0  0
  187.4750  177.9330  137.4510 O   0  0  0  0  0  1  0  0  0  0  0  0
  185.4750  177.5800  136.1950 C   0  0  0  0  0  2  0  0  0  0  0  0
  183.6970  179.7880  138.8610 C   0  0  0  0  0  1  0  0  0  0  0  0
  186.1340  178.3040  137.3810 C   0  0  1  0  0  3  0  0  0  0  0  0
  184.1460  176.9150  136.5520 C   0  0  0  0  0  2  0  0  0  0  0  0
  183.2700  177.8780  137.3570 C   0  0  0  0  0  2  0  0  0  0  0  0
  185.4470  177.9960  138.7190 C   0  0  2  0  0  3  0  0  0  0  0  0
  179.4240  175.8340  139.1280 N   0  0  0  0  0  0  0  0  0  0  0  0
  181.9070  176.9380  139.6220 C   0  0  0  0  0  0  0  0  0  0  0  0
  181.7610  175.5510  139.5200 C   0  0  0  0  0  3  0  0  0  0  0  0
  180.5010  175.0100  139.2640 C   0  0  0  0  0  3  0  0  0  0  0  0
  179.5380  177.1830  139.2290 C   0  0  0  0  0  3  0  0  0  0  0  0
  180.7840  177.7610  139.4760 C   0  0  0  0  0  3  0  0  0  0  0  0
  1 23  1  6  0  0  0
  1  2  1  0  0  0  0
  2  5  2  0  0  0  0
  2  8  1  0  0  0  0
  3  9  2  0  0  0  0
  5 12  1  0  0  0  0
  6  7  2  0  0  0  0
  7  9  1  0  0  0  0
  8 11  2  0  0  0  0
  9  4  1  0  0  0  0
 10  3  1  1  0  0  0
 11 10  1  0  0  0  0
 11  6  1  0  0  0  0
 12 10  1  0  0  0  0
 13 21  1  0  0  0  0
 13 17  1  1  0  0  0
 13  1  1  0  0  0  0
 16 19  1  0  0  0  0
 16 18  1  0  0  0  0
 18 15  1  1  0  0  0
 18 21  1  0  0  0  0
 19 20  1  0  0  0  0
 20 13  1  0  0  0  0
 21 14  1  1  0  0  0
 22 26  2  0  0  0  0
 22 25  1  0  0  0  0
 24 23  1  0  0  0  0
 25 24  2  0  0  0  0
 26 27  1  0  0  0  0
 27 23  2  0  0  0  0
M  END
>  <MODEL>
2

>  <REMARK>
 VINA RESULT:      -7.9      5.081      8.857
  Name = 
  3 active torsions:
  status: ('A' for Active; 'I' for Inactive)
    1  A    between atoms: C_1  and  C_15
    2  A    between atoms: C_2  and  C_15
    3  A    between atoms: C_9  and  C_15
                            x       y       z     vdW  Elec       q    Type
                         _______ _______ _______ _____ _____    ______ ____

>  <TORSDO>
F 3

$$$$
=
 OpenBabel11052413433D

 27 30  0  0  1  0  0  0  0  0999 V2000
  182.3570  177.9680  140.1420 C   0  0  2  0  0  3  0  0  0  0  0  0
  182.7730  178.4070  141.5180 C   0  0  0  0  0  0  0  0  0  0  0  0
  183.9190  178.9070  145.4730 C   0  0  0  0  0  3  0  0  0  0  0  0
  185.3460  178.1560  147.2060 O   0  0  0  0  0  1  0  0  0  0  0  0
  181.9120  178.9740  142.3720 C   0  0  0  0  0  3  0  0  0  0  0  0
  185.9080  178.1170  143.5590 C   0  0  0  0  0  2  0  0  0  0  0  0
  186.1730  178.1260  144.8710 C   0  0  0  0  0  3  0  0  0  0  0  0
  184.1130  178.1090  141.9480 N   0  0  0  0  0  0  0  0  0  0  0  0
  185.1170  178.4370  145.8640 C   0  0  0  0  0  0  0  0  0  0  0  0
  183.7110  179.3030  144.0400 C   0  0  0  0  0  0  0  0  0  0  0  0
  184.5590  178.4820  143.1080 C   0  0  0  0  0  0  0  0  0  0  0  0
  182.3290  179.3430  143.6590 O   0  0  0  0  0  0  0  0  0  0  0  0
  182.3130  179.0520  139.0290 C   0  0  2  0  0  0  0  0  0  0  0  0
  183.1510  177.6270  137.2320 O   0  0  0  0  0  1  0  0  0  0  0  0
  181.2000  178.5690  135.4470 O   0  0  0  0  0  1  0  0  0  0  0  0
  180.2790  180.0910  137.0390 C   0  0  0  0  0  2  0  0  0  0  0  0
  183.6580  179.7710  138.9420 C   0  0  0  0  0  1  0  0  0  0  0  0
  181.5160  179.2940  136.5930 C   0  0  1  0  0  3  0  0  0  0  0  0
  179.9710  179.9510  138.5310 C   0  0  0  0  0  2  0  0  0  0  0  0
  181.2500  180.1270  139.3540 C   0  0  0  0  0  2  0  0  0  0  0  0
  182.0300  178.3390  137.6800 C   0  0  2  0  0  3  0  0  0  0  0  0
  179.1760  175.1230  140.0990 N   0  0  0  0  0  0  0  0  0  0  0  0
  181.2260  176.9730  140.1390 C   0  0  0  0  0  0  0  0  0  0  0  0
  181.4530  175.6820  139.6540 C   0  0  0  0  0  3  0  0  0  0  0  0
  180.4060  174.7610  139.6350 C   0  0  0  0  0  3  0  0  0  0  0  0
  178.9310  176.3680  140.5810 C   0  0  0  0  0  3  0  0  0  0  0  0
  179.9520  177.3190  140.6070 C   0  0  0  0  0  3  0  0  0  0  0  0
  1 23  1  1  0  0  0
  1  2  1  0  0  0  0
  2  8  1  0  0  0  0
  2  5  2  0  0  0  0
  3  9  1  0  0  0  0
  5 12  1  0  0  0  0
  6  7  1  0  0  0  0
  7  9  2  0  0  0  0
  8 11  2  0  0  0  0
  9  4  1  0  0  0  0
 10  3  2  0  0  0  0
 11  6  1  0  0  0  0
 11 10  1  0  0  0  0
 12 10  1  0  0  0  0
 13 17  1  6  0  0  0
 13 20  1  0  0  0  0
 13  1  1  0  0  0  0
 16 19  1  0  0  0  0
 18 15  1  6  0  0  0
 18 16  1  0  0  0  0
 18 21  1  0  0  0  0
 19 20  1  0  0  0  0
 21 14  1  6  0  0  0
 21 13  1  0  0  0  0
 22 26  1  0  0  0  0
 23 27  1  0  0  0  0
 24 23  2  0  0  0  0
 25 24  1  0  0  0  0
 25 22  2  0  0  0  0
 26 27  2  0  0  0  0
M  END
>  <MODEL>
3

>  <REMARK>
 VINA RESULT:      -7.8      6.277      9.806
  Name = 
  3 active torsions:
  status: ('A' for Active; 'I' for Inactive)
    1  A    between atoms: C_1  and  C_15
    2  A    between atoms: C_2  and  C_15
    3  A    between atoms: C_9  and  C_15
                            x       y       z     vdW  Elec       q    Type
                         _______ _______ _______ _____ _____    ______ ____

>  <TORSDO>
F 3

$$$$
=
 OpenBabel11052413433D

 27 30  0  0  1  0  0  0  0  0999 V2000
  187.3000  178.2980  142.9020 C   0  0  2  0  0  3  0  0  0  0  0  0
  187.8510  178.2250  141.5060 C   0  0  0  0  0  0  0  0  0  0  0  0
  189.0610  177.3700  137.6320 C   0  0  0  0  0  3  0  0  0  0  0  0
  188.4070  176.5270  135.5200 O   0  0  0  0  0  1  0  0  0  0  0  0
  189.1520  178.0200  141.2680 C   0  0  0  0  0  3  0  0  0  0  0  0
  186.3630  178.2520  138.0630 C   0  0  0  0  0  2  0  0  0  0  0  0
  186.7620  177.7970  136.8680 C   0  0  0  0  0  3  0  0  0  0  0  0
  186.9240  178.2820  140.4080 N   0  0  0  0  0  0  0  0  0  0  0  0
  188.1260  177.2480  136.6740 C   0  0  0  0  0  0  0  0  0  0  0  0
  188.7880  178.2340  138.8290 C   0  0  0  0  0  0  0  0  0  0  0  0
  187.3240  178.2580  139.1730 C   0  0  0  0  0  0  0  0  0  0  0  0
  189.6270  177.9280  139.9510 O   0  0  0  0  0  0  0  0  0  0  0  0
  187.8290  177.2640  143.9350 C   0  0  2  0  0  0  0  0  0  0  0  0
  190.1610  177.9820  143.8650 O   0  0  0  0  0  1  0  0  0  0  0  0
  190.3710  177.8920  146.6630 O   0  0  0  0  0  1  0  0  0  0  0  0
  188.1330  177.1090  146.9450 C   0  0  0  0  0  2  0  0  0  0  0  0
  188.3060  176.0030  143.2190 C   0  0  0  0  0  1  0  0  0  0  0  0
  189.3510  177.2050  146.0110 C   0  0  1  0  0  3  0  0  0  0  0  0
  186.8180  177.5030  146.2720 C   0  0  0  0  0  2  0  0  0  0  0  0
  186.7010  176.8310  144.9020 C   0  0  0  0  0  2  0  0  0  0  0  0
  189.0260  177.9080  144.6840 C   0  0  2  0  0  3  0  0  0  0  0  0
  183.1180  179.1320  143.1010 N   0  0  0  0  0  0  0  0  0  0  0  0
  185.8220  178.5860  142.9560 C   0  0  0  0  0  0  0  0  0  0  0  0
  185.3370  179.4930  143.9040 C   0  0  0  0  0  3  0  0  0  0  0  0
  183.9680  179.7530  143.9670 C   0  0  0  0  0  3  0  0  0  0  0  0
  183.5650  178.2530  142.1680 C   0  0  0  0  0  3  0  0  0  0  0  0
  184.9270  177.9610  142.0800 C   0  0  0  0  0  3  0  0  0  0  0  0
  1  2  1  6  0  0  0
  1 23  1  0  0  0  0
  1 13  1  0  0  0  0
  3 10  2  0  0  0  0
  4  9  1  0  0  0  0
  5  2  2  0  0  0  0
  6 11  1  0  0  0  0
  7  6  1  0  0  0  0
  8  2  1  0  0  0  0
  9  7  2  0  0  0  0
  9  3  1  0  0  0  0
 10 11  1  0  0  0  0
 10 12  1  0  0  0  0
 11  8  2  0  0  0  0
 12  5  1  0  0  0  0
 13 17  1  6  0  0  0
 13 21  1  0  0  0  0
 13 20  1  0  0  0  0
 18 15  1  1  0  0  0
 18 16  1  0  0  0  0
 19 16  1  0  0  0  0
 20 19  1  0  0  0  0
 21 14  1  6  0  0  0
 21 18  1  0  0  0  0
 22 25  1  0  0  0  0
 23 24  1  0  0  0  0
 24 25  2  0  0  0  0
 26 22  2  0  0  0  0
 27 26  1  0  0  0  0
 27 23  2  0  0  0  0
M  END
>  <MODEL>
4

>  <REMARK>
 VINA RESULT:      -7.5      2.666      3.744
  Name = 
  3 active torsions:
  status: ('A' for Active; 'I' for Inactive)
    1  A    between atoms: C_1  and  C_15
    2  A    between atoms: C_2  and  C_15
    3  A    between atoms: C_9  and  C_15
                            x       y       z     vdW  Elec       q    Type
                         _______ _______ _______ _____ _____    ______ ____

>  <TORSDO>
F 3

$$$$
=
 OpenBabel11052413433D

 27 30  0  0  1  0  0  0  0  0999 V2000
  189.5240  177.2890  142.5160 C   0  0  2  0  0  3  0  0  0  0  0  0
  188.2040  177.9260  142.1830 C   0  0  0  0  0  0  0  0  0  0  0  0
  184.3150  179.0020  141.2220 C   0  0  0  0  0  3  0  0  0  0  0  0
  182.0190  178.6300  141.6570 O   0  0  0  0  0  1  0  0  0  0  0  0
  187.9650  178.4750  140.9860 C   0  0  0  0  0  3  0  0  0  0  0  0
  184.9010  178.2530  143.9310 C   0  0  0  0  0  3  0  0  0  0  0  0
  183.6410  178.4420  143.5210 C   0  0  0  0  0  3  0  0  0  0  0  0
  187.1480  177.8450  143.1560 N   0  0  0  0  0  0  0  0  0  0  0  0
  183.3330  178.7290  142.0990 C   0  0  0  0  0  0  0  0  0  0  0  0
  185.7170  179.2060  141.7200 C   0  0  1  0  0  3  0  0  0  0  0  0
  185.9900  178.3970  142.9570 C   0  0  0  0  0  0  0  0  0  0  0  0
  186.7110  179.0340  140.7000 O   0  0  0  0  0  0  0  0  0  0  0  0
  190.2160  177.7250  143.8380 C   0  0  2  0  0  0  0  0  0  0  0  0
  188.1770  177.8780  145.1730 O   0  0  0  0  0  1  0  0  0  0  0  0
  189.3760  176.5380  147.3290 O   0  0  0  0  0  1  0  0  0  0  0  0
  191.4840  176.3530  146.2230 C   0  0  0  0  0  2  0  0  0  0  0  0
  190.2620  179.2490  143.9280 C   0  0  0  0  0  1  0  0  0  0  0  0
  190.1600  177.1280  146.3420 C   0  0  1  0  0  3  0  0  0  0  0  0
  191.8570  176.0060  144.7810 C   0  0  0  0  0  2  0  0  0  0  0  0
  191.6800  177.2290  143.8780 C   0  0  0  0  0  2  0  0  0  0  0  0
  189.3780  177.1710  145.0210 C   0  0  2  0  0  3  0  0  0  0  0  0
  192.0620  176.7500  139.1280 N   0  0  0  0  0  0  0  0  0  0  0  0
  190.4300  177.1120  141.3260 C   0  0  0  0  0  0  0  0  0  0  0  0
  189.9510  176.4400  140.1970 C   0  0  0  0  0  3  0  0  0  0  0  0
  190.7900  176.2600  139.0970 C   0  0  0  0  0  3  0  0  0  0  0  0
  192.5490  177.4110  140.2090 C   0  0  0  0  0  3  0  0  0  0  0  0
  191.7410  177.6020  141.3310 C   0  0  0  0  0  3  0  0  0  0  0  0
  1 23  1  6  0  0  0
  1 13  1  0  0  0  0
  2  1  1  0  0  0  0
  2  8  1  0  0  0  0
  3  9  2  0  0  0  0
  4  9  1  0  0  0  0
  5  2  2  0  0  0  0
  7  6  2  0  0  0  0
  9  7  1  0  0  0  0
 10  3  1  6  0  0  0
 10 11  1  0  0  0  0
 11  8  2  0  0  0  0
 11  6  1  0  0  0  0
 12  5  1  0  0  0  0
 12 10  1  0  0  0  0
 13 20  1  0  0  0  0
 13 17  1  1  0  0  0
 13 21  1  0  0  0  0
 16 18  1  0  0  0  0
 18 15  1  1  0  0  0
 19 16  1  0  0  0  0
 20 19  1  0  0  0  0
 21 14  1  1  0  0  0
 21 18  1  0  0  0  0
 22 26  1  0  0  0  0
 23 27  1  0  0  0  0
 24 23  2  0  0  0  0
 25 22  2  0  0  0  0
 25 24  1  0  0  0  0
 26 27  2  0  0  0  0
M  END
>  <MODEL>
5

>  <REMARK>
 VINA RESULT:      -7.4      2.938      6.298
  Name = 
  3 active torsions:
  status: ('A' for Active; 'I' for Inactive)
    1  A    between atoms: C_1  and  C_15
    2  A    between atoms: C_2  and  C_15
    3  A    between atoms: C_9  and  C_15
                            x       y       z     vdW  Elec       q    Type
                         _______ _______ _______ _____ _____    ______ ____

>  <TORSDO>
F 3

$$$$
=
 OpenBabel11052413433D

 27 30  0  0  1  0  0  0  0  0999 V2000
  187.4000  178.2520  143.2870 C   0  0  2  0  0  3  0  0  0  0  0  0
  187.3920  178.1770  141.7860 C   0  0  0  0  0  0  0  0  0  0  0  0
  187.8790  178.4850  137.6790 C   0  0  0  0  0  3  0  0  0  0  0  0
  189.4310  178.6280  135.8980 O   0  0  0  0  0  1  0  0  0  0  0  0
  186.3950  178.6910  141.0560 C   0  0  0  0  0  3  0  0  0  0  0  0
  189.8090  176.9800  139.1790 C   0  0  0  0  0  3  0  0  0  0  0  0
  190.0030  177.2610  137.8840 C   0  0  0  0  0  3  0  0  0  0  0  0
  188.5450  177.6210  141.1300 N   0  0  0  0  0  0  0  0  0  0  0  0
  189.0540  178.1230  137.1370 C   0  0  0  0  0  0  0  0  0  0  0  0
  187.4330  177.8590  138.9680 C   0  0  1  0  0  3  0  0  0  0  0  0
  188.6020  177.4900  139.8390 C   0  0  0  0  0  0  0  0  0  0  0  0
  186.4360  178.6280  139.6560 O   0  0  0  0  0  0  0  0  0  0  0  0
  188.2970  177.2380  144.0510 C   0  0  2  0  0  0  0  0  0  0  0  0
  190.4160  177.9710  143.0870 O   0  0  0  0  0  1  0  0  0  0  0  0
  191.6800  177.9230  145.5940 O   0  0  0  0  0  1  0  0  0  0  0  0
  189.7290  177.1280  146.7170 C   0  0  0  0  0  2  0  0  0  0  0  0
  188.4800  175.9700  143.2180 C   0  0  0  0  0  1  0  0  0  0  0  0
  190.4970  177.2200  145.3870 C   0  0  1  0  0  3  0  0  0  0  0  0
  188.2520  177.5020  146.5930 C   0  0  0  0  0  2  0  0  0  0  0  0
  187.6290  176.8090  145.3780 C   0  0  0  0  0  2  0  0  0  0  0  0
  189.6810  177.9010  144.2790 C   0  0  2  0  0  3  0  0  0  0  0  0
  183.5400  179.0030  144.9460 N   0  0  0  0  0  0  0  0  0  0  0  0
  186.0440  178.5160  143.8890 C   0  0  0  0  0  0  0  0  0  0  0  0
  184.8990  178.2750  143.1240 C   0  0  0  0  0  3  0  0  0  0  0  0
  183.6410  178.5310  143.6710 C   0  0  0  0  0  3  0  0  0  0  0  0
  184.6360  179.2400  145.7110 C   0  0  0  0  0  3  0  0  0  0  0  0
  185.9110  179.0030  145.1950 C   0  0  0  0  0  3  0  0  0  0  0  0
  1  2  1  6  0  0  0
  1 23  1  0  0  0  0
  1 13  1  0  0  0  0
  4  9  1  0  0  0  0
  5  2  2  0  0  0  0
  6 11  1  0  0  0  0
  7  6  2  0  0  0  0
  8  2  1  0  0  0  0
  9  3  2  0  0  0  0
  9  7  1  0  0  0  0
 10  3  1  6  0  0  0
 10 12  1  0  0  0  0
 10 11  1  0  0  0  0
 11  8  2  0  0  0  0
 12  5  1  0  0  0  0
 13 17  1  6  0  0  0
 13 21  1  0  0  0  0
 13 20  1  0  0  0  0
 18 15  1  1  0  0  0
 18 16  1  0  0  0  0
 19 16  1  0  0  0  0
 20 19  1  0  0  0  0
 21 14  1  6  0  0  0
 21 18  1  0  0  0  0
 22 26  1  0  0  0  0
 23 27  1  0  0  0  0
 24 25  1  0  0  0  0
 24 23  2  0  0  0  0
 25 22  2  0  0  0  0
 27 26  2  0  0  0  0
M  END
>  <MODEL>
6

>  <REMARK>
 VINA RESULT:      -7.3      2.599      4.043
  Name = 
  3 active torsions:
  status: ('A' for Active; 'I' for Inactive)
    1  A    between atoms: C_1  and  C_15
    2  A    between atoms: C_2  and  C_15
    3  A    between atoms: C_9  and  C_15
                            x       y       z     vdW  Elec       q    Type
                         _______ _______ _______ _____ _____    ______ ____

>  <TORSDO>
F 3

$$$$
=
 OpenBabel11052413433D

 27 30  0  0  1  0  0  0  0  0999 V2000
  180.9320  178.6610  140.7160 C   0  0  2  0  0  3  0  0  0  0  0  0
  181.8310  178.7920  141.9130 C   0  0  0  0  0  0  0  0  0  0  0  0
  184.4090  178.4390  145.1420 C   0  0  0  0  0  3  0  0  0  0  0  0
  186.4360  177.5090  145.9350 O   0  0  0  0  0  1  0  0  0  0  0  0
  181.3460  178.9750  143.1470 C   0  0  0  0  0  3  0  0  0  0  0  0
  185.5250  178.4980  142.4980 C   0  0  0  0  0  2  0  0  0  0  0  0
  186.2830  178.2140  143.5640 C   0  0  0  0  0  3  0  0  0  0  0  0
  183.2450  178.6150  141.7190 N   0  0  0  0  0  0  0  0  0  0  0  0
  185.6860  178.0840  144.9160 C   0  0  0  0  0  0  0  0  0  0  0  0
  183.6360  179.1500  144.0700 C   0  0  0  0  0  0  0  0  0  0  0  0
  184.0910  178.7450  142.6960 C   0  0  0  0  0  0  0  0  0  0  0  0
  182.2150  179.0630  144.2440 O   0  0  0  0  0  0  0  0  0  0  0  0
  180.9550  177.3100  139.9480 C   0  0  2  0  0  0  0  0  0  0  0  0
  178.9310  177.7060  138.6420 O   0  0  0  0  0  1  0  0  0  0  0  0
  180.1500  176.7730  136.2920 O   0  0  0  0  0  1  0  0  0  0  0  0
  182.1970  176.2400  137.4000 C   0  0  0  0  0  2  0  0  0  0  0  0
  180.1360  176.2630  140.7010 C   0  0  0  0  0  1  0  0  0  0  0  0
  180.6790  176.4470  137.5380 C   0  0  1  0  0  3  0  0  0  0  0  0
  183.0100  176.9820  138.4620 C   0  0  0  0  0  2  0  0  0  0  0  0
  182.3980  176.7620  139.8480 C   0  0  0  0  0  2  0  0  0  0  0  0
  180.3200  177.5440  138.5510 C   0  0  2  0  0  3  0  0  0  0  0  0
  180.7080  182.1780  138.3080 N   0  0  0  0  0  0  0  0  0  0  0  0
  180.8700  179.9020  139.8640 C   0  0  0  0  0  0  0  0  0  0  0  0
  179.7430  180.7260  139.9380 C   0  0  0  0  0  3  0  0  0  0  0  0
  179.6740  181.8690  139.1410 C   0  0  0  0  0  3  0  0  0  0  0  0
  181.8160  181.3980  138.2230 C   0  0  0  0  0  3  0  0  0  0  0  0
  181.9170  180.2420  138.9990 C   0  0  0  0  0  3  0  0  0  0  0  0
  1 23  1  6  0  0  0
  1  2  1  0  0  0  0
  2  5  2  0  0  0  0
  5 12  1  0  0  0  0
  6 11  1  0  0  0  0
  6  7  1  0  0  0  0
  7  9  2  0  0  0  0
  8  2  1  0  0  0  0
  8 11  2  0  0  0  0
  9  3  1  0  0  0  0
  9  4  1  0  0  0  0
 10 12  1  0  0  0  0
 10  3  2  0  0  0  0
 11 10  1  0  0  0  0
 13 17  1  1  0  0  0
 13  1  1  0  0  0  0
 16 18  1  0  0  0  0
 16 19  1  0  0  0  0
 18 15  1  6  0  0  0
 18 21  1  0  0  0  0
 19 20  1  0  0  0  0
 20 13  1  0  0  0  0
 21 14  1  1  0  0  0
 21 13  1  0  0  0  0
 22 25  1  0  0  0  0
 23 24  1  0  0  0  0
 25 24  2  0  0  0  0
 26 22  2  0  0  0  0
 26 27  1  0  0  0  0
 27 23  2  0  0  0  0
M  END
>  <MODEL>
7

>  <REMARK>
 VINA RESULT:      -7.2      6.077      9.735
  Name = 
  3 active torsions:
  status: ('A' for Active; 'I' for Inactive)
    1  A    between atoms: C_1  and  C_15
    2  A    between atoms: C_2  and  C_15
    3  A    between atoms: C_9  and  C_15
                            x       y       z     vdW  Elec       q    Type
                         _______ _______ _______ _____ _____    ______ ____

>  <TORSDO>
F 3

$$$$
=
 OpenBabel11052413433D

 27 30  0  0  1  0  0  0  0  0999 V2000
  189.3280  177.0380  140.3300 C   0  0  2  0  0  3  0  0  0  0  0  0
  190.5920  176.6900  139.5940 C   0  0  0  0  0  0  0  0  0  0  0  0
  194.0670  175.1230  137.9620 C   0  0  0  0  0  3  0  0  0  0  0  0
  195.1130  173.1980  137.0650 O   0  0  0  0  0  1  0  0  0  0  0  0
  191.7580  177.2860  139.8690 C   0  0  0  0  0  3  0  0  0  0  0  0
  191.5430  174.1330  137.0200 C   0  0  0  0  0  2  0  0  0  0  0  0
  192.6940  173.5500  136.6610 C   0  0  0  0  0  3  0  0  0  0  0  0
  190.5460  175.6140  138.6410 N   0  0  0  0  0  0  0  0  0  0  0  0
  193.9890  173.9990  137.2280 C   0  0  0  0  0  0  0  0  0  0  0  0
  192.8790  176.0350  138.0510 C   0  0  0  0  0  0  0  0  0  0  0  0
  191.5860  175.2740  137.9420 C   0  0  0  0  0  0  0  0  0  0  0  0
  192.9240  176.9150  139.1820 O   0  0  0  0  0  0  0  0  0  0  0  0
  188.3840  178.0850  139.6760 C   0  0  2  0  0  0  0  0  0  0  0  0
  187.8360  176.7590  137.7010 O   0  0  0  0  0  1  0  0  0  0  0  0
  185.1090  177.3910  137.9170 O   0  0  0  0  0  1  0  0  0  0  0  0
  185.4440  178.7990  139.8170 C   0  0  0  0  0  2  0  0  0  0  0  0
  189.1740  178.9810  138.7240 C   0  0  0  0  0  1  0  0  0  0  0  0
  186.0670  178.1730  138.5580 C   0  0  1  0  0  3  0  0  0  0  0  0
  186.3120  178.6440  141.0660 C   0  0  0  0  0  2  0  0  0  0  0  0
  187.7650  179.0090  140.7500 C   0  0  0  0  0  2  0  0  0  0  0  0
  187.3020  177.3170  138.8720 C   0  0  2  0  0  3  0  0  0  0  0  0
  189.7890  177.3430  144.5620 N   0  0  0  0  0  0  0  0  0  0  0  0
  189.5070  177.1520  141.8220 C   0  0  0  0  0  0  0  0  0  0  0  0
  188.7040  176.3800  142.6670 C   0  0  0  0  0  3  0  0  0  0  0  0
  188.8550  176.4930  144.0490 C   0  0  0  0  0  3  0  0  0  0  0  0
  190.5850  178.0980  143.7630 C   0  0  0  0  0  3  0  0  0  0  0  0
  190.4570  178.0190  142.3750 C   0  0  0  0  0  3  0  0  0  0  0  0
  1  2  1  6  0  0  0
  1 23  1  0  0  0  0
  2  5  2  0  0  0  0
  3 10  2  0  0  0  0
  4  9  1  0  0  0  0
  6 11  1  0  0  0  0
  7  6  1  0  0  0  0
  7  9  2  0  0  0  0
  8  2  1  0  0  0  0
  9  3  1  0  0  0  0
 10 12  1  0  0  0  0
 11 10  1  0  0  0  0
 11  8  2  0  0  0  0
 12  5  1  0  0  0  0
 13 17  1  6  0  0  0
 13  1  1  0  0  0  0
 13 20  1  0  0  0  0
 16 19  1  0  0  0  0
 18 15  1  1  0  0  0
 18 21  1  0  0  0  0
 18 16  1  0  0  0  0
 20 19  1  0  0  0  0
 21 14  1  6  0  0  0
 21 13  1  0  0  0  0
 23 27  2  0  0  0  0
 23 24  1  0  0  0  0
 24 25  2  0  0  0  0
 25 22  1  0  0  0  0
 26 22  2  0  0  0  0
 27 26  1  0  0  0  0
M  END
>  <MODEL>
8

>  <REMARK>
 VINA RESULT:      -7.2      2.396      4.290
  Name = 
  3 active torsions:
  status: ('A' for Active; 'I' for Inactive)
    1  A    between atoms: C_1  and  C_15
    2  A    between atoms: C_2  and  C_15
    3  A    between atoms: C_9  and  C_15
                            x       y       z     vdW  Elec       q    Type
                         _______ _______ _______ _____ _____    ______ ____

>  <TORSDO>
F 3

$$$$
=
 OpenBabel11052413433D

 27 30  0  0  1  0  0  0  0  0999 V2000
  190.8080  176.2910  136.3640 C   0  0  2  0  0  3  0  0  0  0  0  0
  190.1660  177.0210  137.5100 C   0  0  0  0  0  0  0  0  0  0  0  0
  187.9890  178.4370  140.7440 C   0  0  0  0  0  3  0  0  0  0  0  0
  187.1250  177.9380  142.8910 O   0  0  0  0  0  1  0  0  0  0  0  0
  189.3030  178.0260  137.3160 C   0  0  0  0  0  3  0  0  0  0  0  0
  190.1470  176.6100  141.2390 C   0  0  0  0  0  3  0  0  0  0  0  0
  189.3020  176.9660  142.2150 C   0  0  0  0  0  3  0  0  0  0  0  0
  190.4210  176.5470  138.8440 N   0  0  0  0  0  0  0  0  0  0  0  0
  188.1290  177.8290  141.9350 C   0  0  0  0  0  0  0  0  0  0  0  0
  189.1180  178.4000  139.7560 C   0  0  1  0  0  3  0  0  0  0  0  0
  189.9310  177.1420  139.8880 C   0  0  0  0  0  0  0  0  0  0  0  0
  188.7000  178.6650  138.4090 O   0  0  0  0  0  0  0  0  0  0  0  0
  189.9740  175.1810  135.6650 C   0  0  2  0  0  0  0  0  0  0  0  0
  190.0330  173.5920  137.5180 O   0  0  0  0  0  1  0  0  0  0  0  0
  187.2960  173.0300  137.2470 O   0  0  0  0  0  1  0  0  0  0  0  0
  187.0430  174.4800  135.3670 C   0  0  0  0  0  2  0  0  0  0  0  0
  190.9010  174.2070  134.9400 C   0  0  0  0  0  1  0  0  0  0  0  0
  188.0030  173.6130  136.1990 C   0  0  1  0  0  3  0  0  0  0  0  0
  187.5870  175.8780  135.0700 C   0  0  0  0  0  2  0  0  0  0  0  0
  189.0400  175.7910  134.5950 C   0  0  0  0  0  2  0  0  0  0  0  0
  189.1870  174.4140  136.7610 C   0  0  2  0  0  3  0  0  0  0  0  0
  194.9460  175.4170  136.9390 N   0  0  0  0  0  0  0  0  0  0  0  0
  192.2660  175.9800  136.5840 C   0  0  0  0  0  0  0  0  0  0  0  0
  193.2020  176.3850  135.6280 C   0  0  0  0  0  3  0  0  0  0  0  0
  194.5520  176.0870  135.8190 C   0  0  0  0  0  3  0  0  0  0  0  0
  194.0580  175.0190  137.8850 C   0  0  0  0  0  3  0  0  0  0  0  0
  192.6990  175.2910  137.7230 C   0  0  0  0  0  3  0  0  0  0  0  0
  1 23  1  1  0  0  0
  1  2  1  0  0  0  0
  2  8  1  0  0  0  0
  3  9  2  0  0  0  0
  5  2  2  0  0  0  0
  5 12  1  0  0  0  0
  6  7  2  0  0  0  0
  8 11  2  0  0  0  0
  9  7  1  0  0  0  0
  9  4  1  0  0  0  0
 10 11  1  0  0  0  0
 10  3  1  1  0  0  0
 11  6  1  0  0  0  0
 12 10  1  0  0  0  0
 13 17  1  6  0  0  0
 13  1  1  0  0  0  0
 13 21  1  0  0  0  0
 16 18  1  0  0  0  0
 18 21  1  0  0  0  0
 18 15  1  1  0  0  0
 19 16  1  0  0  0  0
 20 19  1  0  0  0  0
 20 13  1  0  0  0  0
 21 14  1  6  0  0  0
 22 26  1  0  0  0  0
 23 27  1  0  0  0  0
 24 25  1  0  0  0  0
 24 23  2  0  0  0  0
 25 22  2  0  0  0  0
 27 26  2  0  0  0  0
M  END
>  <MODEL>
9

>  <REMARK>
 VINA RESULT:      -7.2      2.999      7.475
  Name = 
  3 active torsions:
  status: ('A' for Active; 'I' for Inactive)
    1  A    between atoms: C_1  and  C_15
    2  A    between atoms: C_2  and  C_15
    3  A    between atoms: C_9  and  C_15
                            x       y       z     vdW  Elec       q    Type
                         _______ _______ _______ _____ _____    ______ ____

>  <TORSDO>
F 3

$$$$
