=
 OpenBabel11052415323D

 37 40  0  0  1  0  0  0  0  0999 V2000
  185.7910  176.8510  136.8770 C   0  0  0  0  0  3  0  0  0  0  0  0
  183.0500  178.0670  139.5540 C   0  0  1  0  0  0  0  0  0  0  0  0
  182.1560  175.6420  139.4720 C   0  0  0  0  0  1  0  0  0  0  0  0
  182.2960  177.0420  138.8710 C   0  0  2  0  0  0  0  0  0  0  0  0
  183.7350  177.3090  138.4080 C   0  0  0  0  0  0  0  0  0  0  0  0
  184.7590  177.0750  137.6390 C   0  0  0  0  0  0  0  0  0  0  0  0
  180.5240  177.8070  134.8010 C   0  0  0  0  0  1  0  0  0  0  0  0
  178.9510  176.9220  137.9800 C   0  0  0  0  0  1  0  0  0  0  0  0
  180.3420  176.4040  137.6660 C   0  0  2  0  0  3  0  0  0  0  0  0
  181.2820  176.8640  135.7200 C   0  0  0  0  0  0  0  0  0  0  0  0
  181.3200  177.4620  137.8540 N   0  0  2  0  0  0  0  0  0  0  0  0
  182.2670  176.0640  134.8930 C   0  0  0  0  0  1  0  0  0  0  0  0
  180.3860  175.9880  136.3390 O   0  0  0  0  0  0  0  0  0  0  0  0
  181.9880  177.6090  136.6770 O   0  0  0  0  0  0  0  0  0  0  0  0
  182.7780  179.5180  139.2530 C   0  0  0  0  0  0  0  0  0  0  0  0
  183.7770  180.3300  138.9010 C   0  0  0  0  0  2  0  0  0  0  0  0
  181.4800  180.0070  139.4350 O   0  0  0  0  0  0  0  0  0  0  0  0
  180.9580  181.1180  138.7160 C   0  0  0  0  0  1  0  0  0  0  0  0
  186.8010  177.9230  136.6700 C   0  0  2  0  0  3  0  0  0  0  0  0
  188.3530  177.3960  134.7960 C   0  0  0  0  0  1  0  0  0  0  0  0
  187.0640  178.0920  135.1840 C   0  0  0  0  0  2  0  0  0  0  0  0
  187.9850  177.5800  137.3280 O   0  0  0  0  0  0  0  0  0  0  0  0
  188.1750  177.9080  139.5660 C   0  0  1  0  0  3  0  0  0  0  0  0
  188.1660  178.5620  138.2480 N   0  0  0  0  0  0  0  0  0  0  0  0
  189.4360  178.3650  138.9960 C   0  0  2  0  0  3  0  0  0  0  0  0
  187.7450  178.8160  140.5320 O   0  0  0  0  0  1  0  0  0  0  0  0
  190.2610  177.1680  138.5290 C   0  0  0  0  0  2  0  0  0  0  0  0
  190.3740  176.2470  139.5680 O   0  0  0  0  0  1  0  0  0  0  0  0
  183.6810  177.7410  140.9050 C   0  0  0  0  0  2  0  0  0  0  0  0
  183.0920  178.6180  141.9960 C   0  0  0  0  0  2  0  0  0  0  0  0
  183.4170  178.8980  144.4610 C   0  0  0  0  0  3  0  0  0  0  0  0
  183.9510  178.5670  143.2100 C   0  0  0  0  0  0  0  0  0  0  0  0
  185.2850  178.1580  143.1070 C   0  0  0  0  0  3  0  0  0  0  0  0
  187.3790  177.6990  144.1500 F   0  0  0  0  0  0  0  0  0  0  0  0
  185.5540  178.4270  145.4990 C   0  0  0  0  0  3  0  0  0  0  0  0
  186.0870  178.0910  144.2510 C   0  0  0  0  0  0  0  0  0  0  0  0
  184.2190  178.8310  145.6030 C   0  0  0  0  0  3  0  0  0  0  0  0
  1  6  2  0  0  0  0
  2 29  1  1  0  0  0
  4  3  1  1  0  0  0
  4  2  1  0  0  0  0
  5  4  1  0  0  0  0
  5  2  1  0  0  0  0
  6  5  2  0  0  0  0
  7 10  1  0  0  0  0
  9 11  1  0  0  0  0
  9  8  1  6  0  0  0
 10 13  1  0  0  0  0
 10 14  1  0  0  0  0
 11 14  1  6  0  0  0
 11  4  1  0  0  0  0
 12 10  1  0  0  0  0
 13  9  1  0  0  0  0
 15 17  1  0  0  0  0
 15  2  1  0  0  0  0
 16 15  2  0  0  0  0
 18 17  1  0  0  0  0
 19 21  1  6  0  0  0
 19  1  1  0  0  0  0
 19 22  1  0  0  0  0
 20 21  1  0  0  0  0
 22 24  1  0  0  0  0
 23 26  1  1  0  0  0
 24 25  1  0  0  0  0
 24 23  1  0  0  0  0
 25 27  1  6  0  0  0
 25 23  1  0  0  0  0
 27 28  1  0  0  0  0
 29 30  1  0  0  0  0
 30 32  1  0  0  0  0
 31 37  1  0  0  0  0
 32 31  2  0  0  0  0
 33 32  1  0  0  0  0
 33 36  2  0  0  0  0
 34 36  1  0  0  0  0
 35 37  2  0  0  0  0
 36 35  1  0  0  0  0
M  END
>  <MODEL>
1

>  <REMARK>
 VINA RESULT:      -6.6      0.000      0.000
  Name = 
  11 active torsions:
  status: ('A' for Active; 'I' for Inactive)
    1  A    between atoms: C_1  and  C_5
    2  A    between atoms: C_4  and  C_10
    3  A    between atoms: C_4  and  O_22
    4  A    between atoms: C_5  and  O_17
    5  A    between atoms: C_5  and  C_23
    6  A    between atoms: C_6  and  C_31
    7  A    between atoms: C_7  and  C_33
    8  A    between atoms: C_10  and  C_14
    9  A    between atoms: C_14  and  C_31
   10  A    between atoms: O_17  and  N_26
   11  A    between atoms: C_20  and  N_24
                            x       y       z     vdW  Elec       q    Type
                         _______ _______ _______ _____ _____    ______ ____

>  <TORSDO>
F 11

$$$$
=
 OpenBabel11052415323D

 37 40  0  0  1  0  0  0  0  0999 V2000
  181.3890  181.6060  137.9300 C   0  0  0  0  0  3  0  0  0  0  0  0
  182.8790  178.4500  139.9260 C   0  0  1  0  0  0  0  0  0  0  0  0
  184.6830  178.3590  138.0760 C   0  0  0  0  0  1  0  0  0  0  0  0
  183.2610  178.0980  138.5780 C   0  0  2  0  0  0  0  0  0  0  0  0
  182.4960  179.4110  138.7920 C   0  0  0  0  0  0  0  0  0  0  0  0
  181.9440  180.5060  138.3540 C   0  0  0  0  0  0  0  0  0  0  0  0
  180.5540  176.3760  135.4170 C   0  0  0  0  0  1  0  0  0  0  0  0
  183.1670  174.8250  137.4500 C   0  0  0  0  0  1  0  0  0  0  0  0
  183.3040  176.2790  137.0400 C   0  0  2  0  0  3  0  0  0  0  0  0
  181.7750  177.2160  135.7500 C   0  0  0  0  0  0  0  0  0  0  0  0
  182.4410  177.1110  137.8610 N   0  0  2  0  0  0  0  0  0  0  0  0
  181.9030  178.3200  134.7200 C   0  0  0  0  0  1  0  0  0  0  0  0
  182.9210  176.4180  135.7100 O   0  0  0  0  0  0  0  0  0  0  0  0
  181.6170  177.7920  137.0190 O   0  0  0  0  0  0  0  0  0  0  0  0
  181.7020  177.7630  140.5700 C   0  0  0  0  0  0  0  0  0  0  0  0
  181.4010  176.5030  140.2480 C   0  0  0  0  0  2  0  0  0  0  0  0
  180.8910  178.5000  141.4390 O   0  0  0  0  0  0  0  0  0  0  0  0
  179.6840  177.9930  141.9960 C   0  0  0  0  0  1  0  0  0  0  0  0
  180.3130  182.2460  138.7330 C   0  0  2  0  0  3  0  0  0  0  0  0
  179.0170  181.4010  140.6840 C   0  0  0  0  0  1  0  0  0  0  0  0
  179.3440  181.1840  139.2200 C   0  0  0  0  0  2  0  0  0  0  0  0
  179.6390  183.1820  137.9450 O   0  0  0  0  0  0  0  0  0  0  0  0
  179.9790  184.4750  136.1100 C   0  0  1  0  0  3  0  0  0  0  0  0
  180.6210  183.8340  137.2690 N   0  0  0  0  0  0  0  0  0  0  0  0
  180.3700  185.2990  137.2470 C   0  0  2  0  0  3  0  0  0  0  0  0
  180.9170  184.6180  135.0880 O   0  0  0  0  0  1  0  0  0  0  0  0
  179.1300  185.7370  138.0240 C   0  0  0  0  0  2  0  0  0  0  0  0
  179.5180  186.4440  139.1600 O   0  0  0  0  0  1  0  0  0  0  0  0
  183.9250  179.0580  140.8540 C   0  0  0  0  0  2  0  0  0  0  0  0
  184.6830  177.9690  141.5940 C   0  0  0  0  0  2  0  0  0  0  0  0
  183.5750  178.7410  143.7010 C   0  0  0  0  0  3  0  0  0  0  0  0
  184.7240  178.2760  143.0490 C   0  0  0  0  0  0  0  0  0  0  0  0
  185.9020  178.0710  143.7760 C   0  0  0  0  0  3  0  0  0  0  0  0
  187.0770  178.1460  145.8490 F   0  0  0  0  0  0  0  0  0  0  0  0
  184.7880  178.8090  145.7960 C   0  0  0  0  0  3  0  0  0  0  0  0
  185.9350  178.3410  145.1480 C   0  0  0  0  0  0  0  0  0  0  0  0
  183.6080  179.0100  145.0720 C   0  0  0  0  0  3  0  0  0  0  0  0
  1  6  2  0  0  0  0
  2 15  1  0  0  0  0
  2 29  1  1  0  0  0
  4  3  1  6  0  0  0
  4  5  1  0  0  0  0
  4  2  1  0  0  0  0
  5  2  1  0  0  0  0
  6  5  2  0  0  0  0
  7 10  1  0  0  0  0
  9  8  1  1  0  0  0
  9 11  1  0  0  0  0
 10 14  1  0  0  0  0
 11 14  1  6  0  0  0
 11  4  1  0  0  0  0
 12 10  1  0  0  0  0
 13 10  1  0  0  0  0
 13  9  1  0  0  0  0
 15 17  1  0  0  0  0
 16 15  2  0  0  0  0
 17 18  1  0  0  0  0
 19  1  1  6  0  0  0
 19 21  1  0  0  0  0
 21 20  1  0  0  0  0
 22 19  1  0  0  0  0
 23 26  1  6  0  0  0
 23 25  1  0  0  0  0
 23 24  1  0  0  0  0
 24 22  1  0  0  0  0
 25 24  1  0  0  0  0
 25 27  1  1  0  0  0
 27 28  1  0  0  0  0
 29 30  1  0  0  0  0
 30 32  1  0  0  0  0
 31 37  1  0  0  0  0
 32 31  2  0  0  0  0
 32 33  1  0  0  0  0
 33 36  2  0  0  0  0
 36 35  1  0  0  0  0
 36 34  1  0  0  0  0
 37 35  2  0  0  0  0
M  END
>  <MODEL>
2

>  <REMARK>
 VINA RESULT:      -6.3      3.108      6.294
  Name = 
  11 active torsions:
  status: ('A' for Active; 'I' for Inactive)
    1  A    between atoms: C_1  and  C_5
    2  A    between atoms: C_4  and  C_10
    3  A    between atoms: C_4  and  O_22
    4  A    between atoms: C_5  and  O_17
    5  A    between atoms: C_5  and  C_23
    6  A    between atoms: C_6  and  C_31
    7  A    between atoms: C_7  and  C_33
    8  A    between atoms: C_10  and  C_14
    9  A    between atoms: C_14  and  C_31
   10  A    between atoms: O_17  and  N_26
   11  A    between atoms: C_20  and  N_24
                            x       y       z     vdW  Elec       q    Type
                         _______ _______ _______ _____ _____    ______ ____

>  <TORSDO>
F 11

$$$$
=
 OpenBabel11052415323D

 37 40  0  0  1  0  0  0  0  0999 V2000
  182.7370  174.9670  138.2560 C   0  0  0  0  0  3  0  0  0  0  0  0
  183.3180  178.3420  140.3610 C   0  0  1  0  0  0  0  0  0  0  0  0
  180.9410  177.9520  141.3020 C   0  0  0  0  0  1  0  0  0  0  0  0
  181.8850  178.4000  140.1840 C   0  0  2  0  0  0  0  0  0  0  0  0
  182.6390  177.2080  139.5810 C   0  0  0  0  0  0  0  0  0  0  0  0
  182.6810  176.0880  138.9170 C   0  0  0  0  0  0  0  0  0  0  0  0
  179.7870  179.6480  136.4000 C   0  0  0  0  0  1  0  0  0  0  0  0
  180.1530  181.3450  139.6170 C   0  0  0  0  0  1  0  0  0  0  0  0
  180.0790  179.8300  139.5760 C   0  0  2  0  0  3  0  0  0  0  0  0
  179.7840  178.7870  137.6510 C   0  0  0  0  0  0  0  0  0  0  0  0
  181.3520  179.2820  139.1370 N   0  0  2  0  0  0  0  0  0  0  0  0
  179.0830  177.4790  137.3410 C   0  0  0  0  0  1  0  0  0  0  0  0
  179.0940  179.4440  138.6740 O   0  0  0  0  0  0  0  0  0  0  0  0
  181.1050  178.5170  138.0390 O   0  0  0  0  0  0  0  0  0  0  0  0
  184.2080  179.2190  139.5190 C   0  0  0  0  0  0  0  0  0  0  0  0
  183.7100  180.2990  138.9140 C   0  0  0  0  0  2  0  0  0  0  0  0
  185.5360  178.8260  139.3170 O   0  0  0  0  0  0  0  0  0  0  0  0
  185.9810  178.1620  138.1410 C   0  0  0  0  0  1  0  0  0  0  0  0
  184.0030  174.5690  137.5860 C   0  0  2  0  0  3  0  0  0  0  0  0
  185.4230  175.0130  135.5900 C   0  0  0  0  0  1  0  0  0  0  0  0
  184.3250  175.5590  136.4810 C   0  0  0  0  0  2  0  0  0  0  0  0
  183.8620  173.2850  137.0510 O   0  0  0  0  0  0  0  0  0  0  0  0
  182.2190  172.6280  135.6300 C   0  0  1  0  0  3  0  0  0  0  0  0
  182.5210  173.0790  136.9980 N   0  0  0  0  0  0  0  0  0  0  0  0
  182.2110  171.6530  136.7140 C   0  0  2  0  0  3  0  0  0  0  0  0
  180.9080  172.9780  135.3110 O   0  0  0  0  0  1  0  0  0  0  0  0
  183.4400  170.7510  136.6130 C   0  0  0  0  0  2  0  0  0  0  0  0
  183.5970  170.3260  135.2950 O   0  0  0  0  0  1  0  0  0  0  0  0
  183.8780  177.8560  141.6940 C   0  0  0  0  0  2  0  0  0  0  0  0
  184.2970  179.0320  142.5590 C   0  0  0  0  0  2  0  0  0  0  0  0
  186.3400  177.9170  143.4780 C   0  0  0  0  0  3  0  0  0  0  0  0
  185.1140  178.5540  143.7070 C   0  0  0  0  0  0  0  0  0  0  0  0
  184.6740  178.7680  145.0180 C   0  0  0  0  0  3  0  0  0  0  0  0
  185.0230  178.5400  147.3650 F   0  0  0  0  0  0  0  0  0  0  0  0
  186.6730  177.6960  145.8670 C   0  0  0  0  0  3  0  0  0  0  0  0
  185.4520  178.3360  146.0970 C   0  0  0  0  0  0  0  0  0  0  0  0
  187.1170  177.4860  144.5570 C   0  0  0  0  0  3  0  0  0  0  0  0
  1  6  2  0  0  0  0
  2 29  1  1  0  0  0
  4  2  1  0  0  0  0
  4  3  1  1  0  0  0
  5  4  1  0  0  0  0
  5  2  1  0  0  0  0
  6  5  2  0  0  0  0
  7 10  1  0  0  0  0
  9  8  1  6  0  0  0
 10 14  1  0  0  0  0
 10 13  1  0  0  0  0
 11 14  1  6  0  0  0
 11  9  1  0  0  0  0
 11  4  1  0  0  0  0
 12 10  1  0  0  0  0
 13  9  1  0  0  0  0
 15  2  1  0  0  0  0
 16 15  2  0  0  0  0
 17 15  1  0  0  0  0
 18 17  1  0  0  0  0
 19 21  1  6  0  0  0
 19  1  1  0  0  0  0
 20 21  1  0  0  0  0
 22 19  1  0  0  0  0
 23 26  1  1  0  0  0
 23 25  1  0  0  0  0
 23 24  1  0  0  0  0
 24 22  1  0  0  0  0
 25 27  1  6  0  0  0
 25 24  1  0  0  0  0
 28 27  1  0  0  0  0
 29 30  1  0  0  0  0
 30 32  1  0  0  0  0
 31 32  2  0  0  0  0
 31 37  1  0  0  0  0
 32 33  1  0  0  0  0
 33 36  2  0  0  0  0
 35 36  1  0  0  0  0
 36 34  1  0  0  0  0
 37 35  2  0  0  0  0
M  END
>  <MODEL>
3

>  <REMARK>
 VINA RESULT:      -5.9      2.633      4.867
  Name = 
  11 active torsions:
  status: ('A' for Active; 'I' for Inactive)
    1  A    between atoms: C_1  and  C_5
    2  A    between atoms: C_4  and  C_10
    3  A    between atoms: C_4  and  O_22
    4  A    between atoms: C_5  and  O_17
    5  A    between atoms: C_5  and  C_23
    6  A    between atoms: C_6  and  C_31
    7  A    between atoms: C_7  and  C_33
    8  A    between atoms: C_10  and  C_14
    9  A    between atoms: C_14  and  C_31
   10  A    between atoms: O_17  and  N_26
   11  A    between atoms: C_20  and  N_24
                            x       y       z     vdW  Elec       q    Type
                         _______ _______ _______ _____ _____    ______ ____

>  <TORSDO>
F 11

$$$$
=
 OpenBabel11052415323D

 37 40  0  0  1  0  0  0  0  0999 V2000
  184.4270  178.8950  141.4730 C   0  0  0  0  0  3  0  0  0  0  0  0
  181.8270  176.7460  139.2870 C   0  0  1  0  0  0  0  0  0  0  0  0
  182.7930  177.9940  137.2390 C   0  0  0  0  0  1  0  0  0  0  0  0
  181.9030  177.9430  138.4820 C   0  0  2  0  0  0  0  0  0  0  0  0
  182.7410  177.8830  139.7660 C   0  0  0  0  0  0  0  0  0  0  0  0
  183.5840  178.3950  140.6160 C   0  0  0  0  0  0  0  0  0  0  0  0
  179.8640  181.9060  139.1340 C   0  0  0  0  0  1  0  0  0  0  0  0
  178.9700  179.0630  137.0170 C   0  0  0  0  0  1  0  0  0  0  0  0
  180.4330  179.3750  137.2700 C   0  0  2  0  0  3  0  0  0  0  0  0
  180.9980  181.1320  138.4850 C   0  0  0  0  0  0  0  0  0  0  0  0
  180.8150  178.9260  138.5980 N   0  0  2  0  0  0  0  0  0  0  0  0
  182.2180  182.0270  138.4080 C   0  0  0  0  0  1  0  0  0  0  0  0
  180.6280  180.7500  137.1920 O   0  0  0  0  0  0  0  0  0  0  0  0
  181.3050  180.0070  139.2650 O   0  0  0  0  0  0  0  0  0  0  0  0
  180.6250  176.5150  140.1660 C   0  0  0  0  0  0  0  0  0  0  0  0
  179.6610  175.6760  139.7800 C   0  0  0  0  0  2  0  0  0  0  0  0
  180.5040  177.2600  141.3440 O   0  0  0  0  0  0  0  0  0  0  0  0
  179.3490  178.0270  141.6650 C   0  0  0  0  0  1  0  0  0  0  0  0
  184.4310  178.4020  142.8770 C   0  0  2  0  0  3  0  0  0  0  0  0
  183.5630  178.8660  145.1630 C   0  0  0  0  0  1  0  0  0  0  0  0
  183.4060  179.1740  143.6870 C   0  0  0  0  0  2  0  0  0  0  0  0
  185.7040  178.5760  143.4270 O   0  0  0  0  0  0  0  0  0  0  0  0
  187.7870  177.7450  143.0750 C   0  0  1  0  0  3  0  0  0  0  0  0
  186.3560  177.4140  143.1620 N   0  0  0  0  0  0  0  0  0  0  0  0
  187.2900  177.0650  144.2640 C   0  0  2  0  0  3  0  0  0  0  0  0
  188.4210  176.8240  142.2420 O   0  0  0  0  0  1  0  0  0  0  0  0
  187.2610  178.0330  145.4450 C   0  0  0  0  0  2  0  0  0  0  0  0
  187.9540  177.4790  146.5190 O   0  0  0  0  0  1  0  0  0  0  0  0
  182.6260  175.5190  138.8610 C   0  0  0  0  0  2  0  0  0  0  0  0
  182.0540  174.9240  137.5850 C   0  0  0  0  0  2  0  0  0  0  0  0
  182.3410  172.8030  136.2900 C   0  0  0  0  0  3  0  0  0  0  0  0
  182.8830  173.7690  137.1460 C   0  0  0  0  0  0  0  0  0  0  0  0
  184.2140  173.6640  137.5620 C   0  0  0  0  0  3  0  0  0  0  0  0
  186.2870  172.4860  137.5390 F   0  0  0  0  0  0  0  0  0  0  0  0
  184.4550  171.6220  136.2810 C   0  0  0  0  0  3  0  0  0  0  0  0
  185.0000  172.5890  137.1320 C   0  0  0  0  0  0  0  0  0  0  0  0
  183.1260  171.7290  135.8610 C   0  0  0  0  0  3  0  0  0  0  0  0
  2 29  1  6  0  0  0
  2  5  1  0  0  0  0
  2 15  1  0  0  0  0
  4  3  1  6  0  0  0
  4 11  1  0  0  0  0
  4  2  1  0  0  0  0
  4  5  1  0  0  0  0
  5  6  2  0  0  0  0
  6  1  2  0  0  0  0
  9  8  1  1  0  0  0
  9 11  1  0  0  0  0
 10  7  1  0  0  0  0
 10 14  1  0  0  0  0
 11 14  1  1  0  0  0
 12 10  1  0  0  0  0
 13  9  1  0  0  0  0
 13 10  1  0  0  0  0
 15 17  1  0  0  0  0
 16 15  2  0  0  0  0
 17 18  1  0  0  0  0
 19  1  1  6  0  0  0
 19 22  1  0  0  0  0
 19 21  1  0  0  0  0
 21 20  1  0  0  0  0
 23 26  1  6  0  0  0
 23 24  1  0  0  0  0
 23 25  1  0  0  0  0
 24 22  1  0  0  0  0
 24 25  1  0  0  0  0
 25 27  1  1  0  0  0
 27 28  1  0  0  0  0
 30 29  1  0  0  0  0
 31 32  1  0  0  0  0
 32 33  2  0  0  0  0
 32 30  1  0  0  0  0
 35 36  2  0  0  0  0
 36 34  1  0  0  0  0
 36 33  1  0  0  0  0
 37 35  1  0  0  0  0
 37 31  2  0  0  0  0
M  END
>  <MODEL>
4

>  <REMARK>
 VINA RESULT:      -5.7      3.246      6.382
  Name = 
  11 active torsions:
  status: ('A' for Active; 'I' for Inactive)
    1  A    between atoms: C_1  and  C_5
    2  A    between atoms: C_4  and  C_10
    3  A    between atoms: C_4  and  O_22
    4  A    between atoms: C_5  and  O_17
    5  A    between atoms: C_5  and  C_23
    6  A    between atoms: C_6  and  C_31
    7  A    between atoms: C_7  and  C_33
    8  A    between atoms: C_10  and  C_14
    9  A    between atoms: C_14  and  C_31
   10  A    between atoms: O_17  and  N_26
   11  A    between atoms: C_20  and  N_24
                            x       y       z     vdW  Elec       q    Type
                         _______ _______ _______ _____ _____    ______ ____

>  <TORSDO>
F 11

$$$$
=
 OpenBabel11052415323D

 37 40  0  0  1  0  0  0  0  0999 V2000
  185.3290  179.1270  141.9840 C   0  0  0  0  0  3  0  0  0  0  0  0
  182.8740  178.1960  138.9400 C   0  0  1  0  0  0  0  0  0  0  0  0
  182.2610  180.7080  138.9020 C   0  0  0  0  0  1  0  0  0  0  0  0
  182.1530  179.3090  139.5130 C   0  0  2  0  0  0  0  0  0  0  0  0
  183.4720  178.8860  140.1740 C   0  0  0  0  0  0  0  0  0  0  0  0
  184.3960  179.0120  141.0820 C   0  0  0  0  0  0  0  0  0  0  0  0
  179.8440  178.3060  143.2460 C   0  0  0  0  0  1  0  0  0  0  0  0
  178.9310  180.2920  140.3160 C   0  0  0  0  0  1  0  0  0  0  0  0
  180.3750  180.2640  140.7790 C   0  0  2  0  0  3  0  0  0  0  0  0
  180.9370  179.1310  142.5910 C   0  0  0  0  0  0  0  0  0  0  0  0
  181.0020  179.0160  140.3780 N   0  0  2  0  0  0  0  0  0  0  0  0
  182.0320  179.3850  143.6070 C   0  0  0  0  0  1  0  0  0  0  0  0
  180.4140  180.3550  142.1660 O   0  0  0  0  0  0  0  0  0  0  0  0
  181.4750  178.4200  141.5070 O   0  0  0  0  0  0  0  0  0  0  0  0
  182.3990  176.7900  139.1940 C   0  0  0  0  0  0  0  0  0  0  0  0
  183.0660  175.9960  140.0350 C   0  0  0  0  0  2  0  0  0  0  0  0
  181.3020  176.3130  138.4680 O   0  0  0  0  0  0  0  0  0  0  0  0
  181.1320  174.9430  138.1240 C   0  0  0  0  0  1  0  0  0  0  0  0
  186.1700  177.9500  142.3290 C   0  0  2  0  0  3  0  0  0  0  0  0
  185.6190  178.6480  144.6540 C   0  0  0  0  0  1  0  0  0  0  0  0
  185.8190  177.4680  143.7250 C   0  0  0  0  0  2  0  0  0  0  0  0
  187.5190  178.3110  142.2740 O   0  0  0  0  0  0  0  0  0  0  0  0
  189.5640  177.4970  141.7190 C   0  0  1  0  0  3  0  0  0  0  0  0
  188.1810  177.1420  142.0740 N   0  0  0  0  0  0  0  0  0  0  0  0
  189.2870  176.9820  143.0540 C   0  0  2  0  0  3  0  0  0  0  0  0
  190.1100  176.4830  140.9340 O   0  0  0  0  0  1  0  0  0  0  0  0
  189.3880  178.1100  144.0790 C   0  0  0  0  0  2  0  0  0  0  0  0
  189.0120  177.6340  145.3340 O   0  0  0  0  0  1  0  0  0  0  0  0
  183.7240  178.4300  137.6940 C   0  0  0  0  0  2  0  0  0  0  0  0
  184.3020  177.1210  137.1870 C   0  0  0  0  0  2  0  0  0  0  0  0
  186.3880  178.1070  138.1550 C   0  0  0  0  0  3  0  0  0  0  0  0
  185.7730  177.0930  137.4110 C   0  0  0  0  0  0  0  0  0  0  0  0
  186.5390  176.0370  136.9050 C   0  0  0  0  0  3  0  0  0  0  0  0
  188.6590  174.9800  136.6390 F   0  0  0  0  0  0  0  0  0  0  0  0
  188.5320  177.0160  137.8720 C   0  0  0  0  0  3  0  0  0  0  0  0
  187.9190  176.0000  137.1330 C   0  0  0  0  0  0  0  0  0  0  0  0
  187.7660  178.0690  138.3830 C   0  0  0  0  0  3  0  0  0  0  0  0
  2 29  1  6  0  0  0
  2 15  1  0  0  0  0
  2  4  1  0  0  0  0
  2  5  1  0  0  0  0
  4  3  1  6  0  0  0
  4  5  1  0  0  0  0
  4 11  1  0  0  0  0
  5  6  2  0  0  0  0
  6  1  2  0  0  0  0
  9  8  1  1  0  0  0
  9 13  1  0  0  0  0
 10  7  1  0  0  0  0
 10 12  1  0  0  0  0
 11  9  1  0  0  0  0
 11 14  1  1  0  0  0
 13 10  1  0  0  0  0
 14 10  1  0  0  0  0
 15 16  2  0  0  0  0
 17 15  1  0  0  0  0
 18 17  1  0  0  0  0
 19  1  1  1  0  0  0
 19 21  1  0  0  0  0
 21 20  1  0  0  0  0
 22 19  1  0  0  0  0
 23 26  1  6  0  0  0
 23 24  1  0  0  0  0
 23 25  1  0  0  0  0
 24 22  1  0  0  0  0
 24 25  1  0  0  0  0
 25 27  1  1  0  0  0
 27 28  1  0  0  0  0
 30 32  1  0  0  0  0
 30 29  1  0  0  0  0
 31 37  1  0  0  0  0
 32 31  2  0  0  0  0
 33 36  2  0  0  0  0
 33 32  1  0  0  0  0
 34 36  1  0  0  0  0
 35 37  2  0  0  0  0
 36 35  1  0  0  0  0
M  END
>  <MODEL>
5

>  <REMARK>
 VINA RESULT:      -5.5      2.541      5.916
  Name = 
  11 active torsions:
  status: ('A' for Active; 'I' for Inactive)
    1  A    between atoms: C_1  and  C_5
    2  A    between atoms: C_4  and  C_10
    3  A    between atoms: C_4  and  O_22
    4  A    between atoms: C_5  and  O_17
    5  A    between atoms: C_5  and  C_23
    6  A    between atoms: C_6  and  C_31
    7  A    between atoms: C_7  and  C_33
    8  A    between atoms: C_10  and  C_14
    9  A    between atoms: C_14  and  C_31
   10  A    between atoms: O_17  and  N_26
   11  A    between atoms: C_20  and  N_24
                            x       y       z     vdW  Elec       q    Type
                         _______ _______ _______ _____ _____    ______ ____

>  <TORSDO>
F 11

$$$$
=
 OpenBabel11052415323D

 37 40  0  0  1  0  0  0  0  0999 V2000
  189.1460  178.1370  139.0280 C   0  0  0  0  0  3  0  0  0  0  0  0
  188.4360  175.8810  135.7780 C   0  0  1  0  0  0  0  0  0  0  0  0
  187.2670  177.9710  134.8030 C   0  0  0  0  0  1  0  0  0  0  0  0
  187.2880  176.7560  135.7320 C   0  0  2  0  0  0  0  0  0  0  0  0
  188.2940  176.9450  136.8750 C   0  0  0  0  0  0  0  0  0  0  0  0
  188.7130  177.5450  137.9520 C   0  0  0  0  0  0  0  0  0  0  0  0
  183.6330  176.3630  138.3340 C   0  0  0  0  0  1  0  0  0  0  0  0
  184.1270  175.7130  134.7710 C   0  0  0  0  0  1  0  0  0  0  0  0
  184.9220  176.8140  135.4470 C   0  0  2  0  0  3  0  0  0  0  0  0
  184.5860  177.2740  137.5820 C   0  0  0  0  0  0  0  0  0  0  0  0
  186.0040  176.2380  136.2290 N   0  0  2  0  0  0  0  0  0  0  0  0
  184.7050  178.5840  138.3330 C   0  0  0  0  0  1  0  0  0  0  0  0
  184.0860  177.5250  136.3010 O   0  0  0  0  0  0  0  0  0  0  0  0
  185.8520  176.6720  137.5100 O   0  0  0  0  0  0  0  0  0  0  0  0
  188.2770  174.4660  136.2710 C   0  0  0  0  0  0  0  0  0  0  0  0
  188.8380  174.0880  137.4210 C   0  0  0  0  0  2  0  0  0  0  0  0
  187.6060  173.5460  135.4570 O   0  0  0  0  0  0  0  0  0  0  0  0
  187.2080  172.2560  135.9060 C   0  0  0  0  0  1  0  0  0  0  0  0
  190.0510  177.4090  139.9570 C   0  0  2  0  0  3  0  0  0  0  0  0
  192.2930  176.8800  139.0130 C   0  0  0  0  0  1  0  0  0  0  0  0
  190.8670  176.3940  139.1770 C   0  0  0  0  0  2  0  0  0  0  0  0
  189.2910  176.7620  140.9350 O   0  0  0  0  0  0  0  0  0  0  0  0
  190.4880  177.1660  142.8220 C   0  0  1  0  0  3  0  0  0  0  0  0
  190.2060  176.1880  141.7590 N   0  0  0  0  0  0  0  0  0  0  0  0
  189.6540  176.0100  143.1270 C   0  0  2  0  0  3  0  0  0  0  0  0
  191.7750  176.9540  143.3120 O   0  0  0  0  0  1  0  0  0  0  0  0
  188.1970  176.4440  143.2790 C   0  0  0  0  0  2  0  0  0  0  0  0
  188.1410  177.6540  143.9670 O   0  0  0  0  0  1  0  0  0  0  0  0
  189.6200  176.1700  134.8600 C   0  0  0  0  0  2  0  0  0  0  0  0
  190.4140  174.9030  134.5950 C   0  0  0  0  0  2  0  0  0  0  0  0
  192.0970  173.9490  136.1820 C   0  0  0  0  0  3  0  0  0  0  0  0
  191.7250  174.9670  135.2960 C   0  0  0  0  0  0  0  0  0  0  0  0
  192.6010  176.0300  135.0480 C   0  0  0  0  0  3  0  0  0  0  0  0
  194.6870  177.1100  135.4540 F   0  0  0  0  0  0  0  0  0  0  0  0
  194.2090  175.0640  136.5800 C   0  0  0  0  0  3  0  0  0  0  0  0
  193.8420  176.0800  135.6920 C   0  0  0  0  0  0  0  0  0  0  0  0
  193.3370  173.9990  136.8250 C   0  0  0  0  0  3  0  0  0  0  0  0
  2 29  1  6  0  0  0
  2 15  1  0  0  0  0
  2  5  1  0  0  0  0
  4  3  1  6  0  0  0
  4  2  1  0  0  0  0
  4 11  1  0  0  0  0
  4  5  1  0  0  0  0
  5  6  2  0  0  0  0
  6  1  2  0  0  0  0
  9  8  1  1  0  0  0
  9 11  1  0  0  0  0
  9 13  1  0  0  0  0
 10 12  1  0  0  0  0
 10  7  1  0  0  0  0
 11 14  1  1  0  0  0
 13 10  1  0  0  0  0
 14 10  1  0  0  0  0
 15 16  2  0  0  0  0
 17 18  1  0  0  0  0
 17 15  1  0  0  0  0
 19  1  1  6  0  0  0
 19 22  1  0  0  0  0
 20 21  1  0  0  0  0
 21 19  1  0  0  0  0
 22 24  1  0  0  0  0
 23 25  1  0  0  0  0
 23 26  1  1  0  0  0
 24 23  1  0  0  0  0
 24 25  1  0  0  0  0
 25 27  1  6  0  0  0
 27 28  1  0  0  0  0
 30 29  1  0  0  0  0
 30 32  1  0  0  0  0
 31 37  1  0  0  0  0
 32 31  2  0  0  0  0
 33 32  1  0  0  0  0
 33 36  2  0  0  0  0
 34 36  1  0  0  0  0
 35 37  2  0  0  0  0
 36 35  1  0  0  0  0
M  END
>  <MODEL>
6

>  <REMARK>
 VINA RESULT:      -5.5      3.623      7.742
  Name = 
  11 active torsions:
  status: ('A' for Active; 'I' for Inactive)
    1  A    between atoms: C_1  and  C_5
    2  A    between atoms: C_4  and  C_10
    3  A    between atoms: C_4  and  O_22
    4  A    between atoms: C_5  and  O_17
    5  A    between atoms: C_5  and  C_23
    6  A    between atoms: C_6  and  C_31
    7  A    between atoms: C_7  and  C_33
    8  A    between atoms: C_10  and  C_14
    9  A    between atoms: C_14  and  C_31
   10  A    between atoms: O_17  and  N_26
   11  A    between atoms: C_20  and  N_24
                            x       y       z     vdW  Elec       q    Type
                         _______ _______ _______ _____ _____    ______ ____

>  <TORSDO>
F 11

$$$$
=
 OpenBabel11052415323D

 37 40  0  0  1  0  0  0  0  0999 V2000
  185.3260  179.3600  141.6850 C   0  0  0  0  0  3  0  0  0  0  0  0
  189.0660  177.9120  141.9740 C   0  0  1  0  0  0  0  0  0  0  0  0
  189.6190  179.4350  139.9590 C   0  0  0  0  0  1  0  0  0  0  0  0
  189.0040  178.1670  140.5540 C   0  0  2  0  0  0  0  0  0  0  0  0
  187.7650  178.4910  141.4000 C   0  0  0  0  0  0  0  0  0  0  0  0
  186.5460  178.9260  141.5350 C   0  0  0  0  0  0  0  0  0  0  0  0
  187.1740  175.7600  137.2160 C   0  0  0  0  0  1  0  0  0  0  0  0
  190.5410  175.7230  138.6400 C   0  0  0  0  0  1  0  0  0  0  0  0
  189.7590  177.0220  138.6050 C   0  0  2  0  0  3  0  0  0  0  0  0
  187.7530  177.0850  137.6820 C   0  0  0  0  0  0  0  0  0  0  0  0
  188.7560  177.0280  139.6570 N   0  0  2  0  0  0  0  0  0  0  0  0
  187.0400  178.2100  136.9590 C   0  0  0  0  0  1  0  0  0  0  0  0
  189.1160  177.1370  137.3770 O   0  0  0  0  0  0  0  0  0  0  0  0
  187.5480  177.2260  139.0620 O   0  0  0  0  0  0  0  0  0  0  0  0
  188.9350  176.5010  142.4850 C   0  0  0  0  0  0  0  0  0  0  0  0
  187.8990  176.1570  143.2530 C   0  0  0  0  0  2  0  0  0  0  0  0
  189.9630  175.5920  142.2090 O   0  0  0  0  0  0  0  0  0  0  0  0
  190.6540  174.8690  143.2210 C   0  0  0  0  0  1  0  0  0  0  0  0
  184.5200  178.9040  142.8490 C   0  0  2  0  0  3  0  0  0  0  0  0
  185.5410  178.8290  145.1180 C   0  0  0  0  0  1  0  0  0  0  0  0
  185.4000  178.1060  143.7940 C   0  0  0  0  0  2  0  0  0  0  0  0
  183.4600  178.1110  142.3980 O   0  0  0  0  0  0  0  0  0  0  0  0
  182.1120  177.7380  140.6110 C   0  0  1  0  0  3  0  0  0  0  0  0
  183.1430  178.6210  141.1800 N   0  0  0  0  0  0  0  0  0  0  0  0
  181.7190  179.0410  141.1330 C   0  0  2  0  0  3  0  0  0  0  0  0
  182.1760  177.7950  139.2200 O   0  0  0  0  0  1  0  0  0  0  0  0
  180.9680  178.8700  142.4520 C   0  0  0  0  0  2  0  0  0  0  0  0
  180.4250  180.0930  142.8410 O   0  0  0  0  0  1  0  0  0  0  0  0
  189.7830  178.9150  142.8730 C   0  0  0  0  0  2  0  0  0  0  0  0
  190.9900  178.2730  143.5350 C   0  0  0  0  0  2  0  0  0  0  0  0
  189.4270  178.2540  145.4880 C   0  0  0  0  0  3  0  0  0  0  0  0
  190.6590  177.8870  144.9330 C   0  0  0  0  0  0  0  0  0  0  0  0
  191.5650  177.1310  145.6840 C   0  0  0  0  0  3  0  0  0  0  0  0
  192.1250  176.0220  147.7190 F   0  0  0  0  0  0  0  0  0  0  0  0
  190.0170  177.1220  147.5460 C   0  0  0  0  0  3  0  0  0  0  0  0
  191.2450  176.7510  146.9920 C   0  0  0  0  0  0  0  0  0  0  0  0
  189.1080  177.8740  146.7940 C   0  0  0  0  0  3  0  0  0  0  0  0
  2 15  1  0  0  0  0
  2 29  1  1  0  0  0
  4  3  1  6  0  0  0
  4  5  1  0  0  0  0
  4  2  1  0  0  0  0
  5  6  2  0  0  0  0
  5  2  1  0  0  0  0
  6  1  2  0  0  0  0
  7 10  1  0  0  0  0
  9  8  1  6  0  0  0
  9 11  1  0  0  0  0
 10 14  1  0  0  0  0
 11 14  1  6  0  0  0
 11  4  1  0  0  0  0
 12 10  1  0  0  0  0
 13 10  1  0  0  0  0
 13  9  1  0  0  0  0
 15 16  2  0  0  0  0
 17 15  1  0  0  0  0
 17 18  1  0  0  0  0
 19  1  1  6  0  0  0
 19 21  1  0  0  0  0
 21 20  1  0  0  0  0
 22 19  1  0  0  0  0
 23 26  1  6  0  0  0
 23 25  1  0  0  0  0
 23 24  1  0  0  0  0
 24 22  1  0  0  0  0
 25 24  1  0  0  0  0
 25 27  1  1  0  0  0
 27 28  1  0  0  0  0
 29 30  1  0  0  0  0
 30 32  1  0  0  0  0
 31 37  1  0  0  0  0
 32 31  2  0  0  0  0
 32 33  1  0  0  0  0
 33 36  2  0  0  0  0
 36 35  1  0  0  0  0
 36 34  1  0  0  0  0
 37 35  2  0  0  0  0
M  END
>  <MODEL>
7

>  <REMARK>
 VINA RESULT:      -5.4      3.183      7.684
  Name = 
  11 active torsions:
  status: ('A' for Active; 'I' for Inactive)
    1  A    between atoms: C_1  and  C_5
    2  A    between atoms: C_4  and  C_10
    3  A    between atoms: C_4  and  O_22
    4  A    between atoms: C_5  and  O_17
    5  A    between atoms: C_5  and  C_23
    6  A    between atoms: C_6  and  C_31
    7  A    between atoms: C_7  and  C_33
    8  A    between atoms: C_10  and  C_14
    9  A    between atoms: C_14  and  C_31
   10  A    between atoms: O_17  and  N_26
   11  A    between atoms: C_20  and  N_24
                            x       y       z     vdW  Elec       q    Type
                         _______ _______ _______ _____ _____    ______ ____

>  <TORSDO>
F 11

$$$$
=
 OpenBabel11052415323D

 37 40  0  0  1  0  0  0  0  0999 V2000
  178.9590  176.0330  139.4100 C   0  0  0  0  0  3  0  0  0  0  0  0
  182.3710  178.1400  139.6840 C   0  0  1  0  0  0  0  0  0  0  0  0
  180.8760  180.1300  140.3850 C   0  0  0  0  0  1  0  0  0  0  0  0
  181.4540  179.1940  139.3200 C   0  0  2  0  0  0  0  0  0  0  0  0
  180.8970  177.7720  139.4670 C   0  0  0  0  0  0  0  0  0  0  0  0
  179.9230  176.9080  139.4360 C   0  0  0  0  0  0  0  0  0  0  0  0
  180.5010  179.1790  134.9190 C   0  0  0  0  0  1  0  0  0  0  0  0
  181.0070  181.9410  137.2590 C   0  0  0  0  0  1  0  0  0  0  0  0
  180.3940  180.6450  137.7550 C   0  0  2  0  0  3  0  0  0  0  0  0
  180.0110  178.9890  136.3440 C   0  0  0  0  0  0  0  0  0  0  0  0
  181.4290  179.6370  137.9190 N   0  0  2  0  0  0  0  0  0  0  0  0
  178.9340  177.9230  136.3510 C   0  0  0  0  0  1  0  0  0  0  0  0
  179.4720  180.1870  136.8200 O   0  0  0  0  0  0  0  0  0  0  0  0
  181.0760  178.5680  137.1540 O   0  0  0  0  0  0  0  0  0  0  0  0
  183.3040  177.5730  138.6450 C   0  0  0  0  0  0  0  0  0  0  0  0
  183.3290  176.2590  138.4110 C   0  0  0  0  0  2  0  0  0  0  0  0
  184.1950  178.4380  138.0030 O   0  0  0  0  0  0  0  0  0  0  0  0
  185.6060  178.2510  138.0110 C   0  0  0  0  0  1  0  0  0  0  0  0
  179.2720  174.5970  139.1820 C   0  0  2  0  0  3  0  0  0  0  0  0
  178.9310  173.9730  141.5680 C   0  0  0  0  0  1  0  0  0  0  0  0
  179.9240  174.0170  140.4240 C   0  0  0  0  0  2  0  0  0  0  0  0
  180.1340  174.4770  138.0890 O   0  0  0  0  0  0  0  0  0  0  0  0
  179.8540  172.5380  136.9420 C   0  0  1  0  0  3  0  0  0  0  0  0
  180.5160  173.1730  138.0920 N   0  0  0  0  0  0  0  0  0  0  0  0
  181.2780  172.8380  136.8610 C   0  0  2  0  0  3  0  0  0  0  0  0
  179.6790  171.1810  137.2050 O   0  0  0  0  0  1  0  0  0  0  0  0
  181.5090  174.0210  135.9230 C   0  0  0  0  0  2  0  0  0  0  0  0
  180.7780  173.8350  134.7510 O   0  0  0  0  0  1  0  0  0  0  0  0
  182.7820  177.9910  141.1460 C   0  0  0  0  0  2  0  0  0  0  0  0
  184.2090  178.4690  141.3520 C   0  0  0  0  0  2  0  0  0  0  0  0
  183.5090  178.9180  143.7110 C   0  0  0  0  0  3  0  0  0  0  0  0
  184.5130  178.5550  142.8060 C   0  0  0  0  0  0  0  0  0  0  0  0
  185.7940  178.2420  143.2740 C   0  0  0  0  0  3  0  0  0  0  0  0
  187.3140  178.0050  145.0950 F   0  0  0  0  0  0  0  0  0  0  0  0
  185.0710  178.6720  145.5450 C   0  0  0  0  0  3  0  0  0  0  0  0
  186.0730  178.3040  144.6430 C   0  0  0  0  0  0  0  0  0  0  0  0
  183.7880  178.9790  145.0790 C   0  0  0  0  0  3  0  0  0  0  0  0
  1  6  2  0  0  0  0
  2 29  1  1  0  0  0
  4  5  1  0  0  0  0
  4  2  1  0  0  0  0
  4  3  1  1  0  0  0
  5  2  1  0  0  0  0
  6  5  2  0  0  0  0
  7 10  1  0  0  0  0
  9  8  1  6  0  0  0
  9 11  1  0  0  0  0
 10 12  1  0  0  0  0
 10 13  1  0  0  0  0
 10 14  1  0  0  0  0
 11 14  1  6  0  0  0
 11  4  1  0  0  0  0
 13  9  1  0  0  0  0
 15  2  1  0  0  0  0
 16 15  2  0  0  0  0
 17 18  1  0  0  0  0
 17 15  1  0  0  0  0
 19  1  1  1  0  0  0
 19 21  1  0  0  0  0
 21 20  1  0  0  0  0
 22 24  1  0  0  0  0
 22 19  1  0  0  0  0
 23 26  1  1  0  0  0
 23 24  1  0  0  0  0
 25 27  1  6  0  0  0
 25 23  1  0  0  0  0
 25 24  1  0  0  0  0
 28 27  1  0  0  0  0
 29 30  1  0  0  0  0
 30 32  1  0  0  0  0
 31 37  1  0  0  0  0
 32 33  1  0  0  0  0
 32 31  2  0  0  0  0
 33 36  2  0  0  0  0
 36 34  1  0  0  0  0
 36 35  1  0  0  0  0
 37 35  2  0  0  0  0
M  END
>  <MODEL>
8

>  <REMARK>
 VINA RESULT:      -5.4      2.717      5.966
  Name = 
  11 active torsions:
  status: ('A' for Active; 'I' for Inactive)
    1  A    between atoms: C_1  and  C_5
    2  A    between atoms: C_4  and  C_10
    3  A    between atoms: C_4  and  O_22
    4  A    between atoms: C_5  and  O_17
    5  A    between atoms: C_5  and  C_23
    6  A    between atoms: C_6  and  C_31
    7  A    between atoms: C_7  and  C_33
    8  A    between atoms: C_10  and  C_14
    9  A    between atoms: C_14  and  C_31
   10  A    between atoms: O_17  and  N_26
   11  A    between atoms: C_20  and  N_24
                            x       y       z     vdW  Elec       q    Type
                         _______ _______ _______ _____ _____    ______ ____

>  <TORSDO>
F 11

$$$$
=
 OpenBabel11052415323D

 37 40  0  0  1  0  0  0  0  0999 V2000
  185.2380  178.6860  140.8970 C   0  0  0  0  0  3  0  0  0  0  0  0
  189.0350  177.8160  141.8910 C   0  0  1  0  0  0  0  0  0  0  0  0
  189.7120  179.3500  139.9220 C   0  0  0  0  0  1  0  0  0  0  0  0
  189.1870  178.0200  140.4690 C   0  0  2  0  0  0  0  0  0  0  0  0
  187.7870  178.1810  141.0740 C   0  0  0  0  0  0  0  0  0  0  0  0
  186.5130  178.4340  140.9780 C   0  0  0  0  0  0  0  0  0  0  0  0
  188.1900  175.1910  137.1100 C   0  0  0  0  0  1  0  0  0  0  0  0
  191.3640  175.9310  138.7670 C   0  0  0  0  0  1  0  0  0  0  0  0
  190.3220  177.0250  138.6250 C   0  0  2  0  0  3  0  0  0  0  0  0
  188.4280  176.6210  137.5620 C   0  0  0  0  0  0  0  0  0  0  0  0
  189.2640  176.8340  139.6030 N   0  0  2  0  0  0  0  0  0  0  0  0
  187.5440  177.5430  136.7470 C   0  0  0  0  0  1  0  0  0  0  0  0
  189.7660  176.9650  137.3520 O   0  0  0  0  0  0  0  0  0  0  0  0
  188.0920  176.7470  138.9180 O   0  0  0  0  0  0  0  0  0  0  0  0
  189.0170  176.4150  142.4440 C   0  0  0  0  0  0  0  0  0  0  0  0
  188.0070  176.0110  143.2180 C   0  0  0  0  0  2  0  0  0  0  0  0
  190.1180  175.5860  142.2020 O   0  0  0  0  0  0  0  0  0  0  0  0
  190.7760  174.8470  143.2240 C   0  0  0  0  0  1  0  0  0  0  0  0
  184.3120  178.1470  141.9290 C   0  0  2  0  0  3  0  0  0  0  0  0
  181.9850  178.3860  141.0770 C   0  0  0  0  0  1  0  0  0  0  0  0
  183.0510  178.9910  141.9690 C   0  0  0  0  0  2  0  0  0  0  0  0
  184.9430  178.1700  143.1760 O   0  0  0  0  0  0  0  0  0  0  0  0
  183.7570  178.6050  145.0630 C   0  0  1  0  0  3  0  0  0  0  0  0
  184.3440  179.1890  143.8460 N   0  0  0  0  0  0  0  0  0  0  0  0
  184.9760  179.3970  145.1750 C   0  0  2  0  0  3  0  0  0  0  0  0
  182.6640  179.3740  145.4600 O   0  0  0  0  0  1  0  0  0  0  0  0
  186.1670  178.4830  145.4550 C   0  0  0  0  0  2  0  0  0  0  0  0
  185.9160  177.7270  146.5990 O   0  0  0  0  0  1  0  0  0  0  0  0
  189.4350  178.9380  142.8440 C   0  0  0  0  0  2  0  0  0  0  0  0
  190.8110  178.6750  143.4320 C   0  0  0  0  0  2  0  0  0  0  0  0
  189.5420  178.2540  145.5460 C   0  0  0  0  0  3  0  0  0  0  0  0
  190.6800  178.0270  144.7640 C   0  0  0  0  0  0  0  0  0  0  0  0
  191.6810  177.1640  145.2250 C   0  0  0  0  0  3  0  0  0  0  0  0
  192.5200  175.7060  146.9140 F   0  0  0  0  0  0  0  0  0  0  0  0
  190.4130  176.7710  147.2500 C   0  0  0  0  0  3  0  0  0  0  0  0
  191.5490  176.5380  146.4690 C   0  0  0  0  0  0  0  0  0  0  0  0
  189.4100  177.6290  146.7890 C   0  0  0  0  0  3  0  0  0  0  0  0
  1  6  2  0  0  0  0
  2 15  1  0  0  0  0
  2 29  1  1  0  0  0
  4  3  1  6  0  0  0
  4  5  1  0  0  0  0
  4  2  1  0  0  0  0
  5  2  1  0  0  0  0
  6  5  2  0  0  0  0
  7 10  1  0  0  0  0
  9  8  1  6  0  0  0
  9 11  1  0  0  0  0
 10 14  1  0  0  0  0
 11 14  1  6  0  0  0
 11  4  1  0  0  0  0
 12 10  1  0  0  0  0
 13 10  1  0  0  0  0
 13  9  1  0  0  0  0
 15 16  2  0  0  0  0
 17 15  1  0  0  0  0
 17 18  1  0  0  0  0
 19  1  1  6  0  0  0
 19 21  1  0  0  0  0
 19 22  1  0  0  0  0
 20 21  1  0  0  0  0
 22 24  1  0  0  0  0
 23 25  1  0  0  0  0
 23 26  1  1  0  0  0
 24 23  1  0  0  0  0
 24 25  1  0  0  0  0
 25 27  1  6  0  0  0
 27 28  1  0  0  0  0
 29 30  1  0  0  0  0
 30 32  1  0  0  0  0
 31 37  1  0  0  0  0
 32 33  1  0  0  0  0
 32 31  2  0  0  0  0
 33 36  2  0  0  0  0
 36 34  1  0  0  0  0
 36 35  1  0  0  0  0
 37 35  2  0  0  0  0
M  END
>  <MODEL>
9

>  <REMARK>
 VINA RESULT:      -5.3      3.623      7.612
  Name = 
  11 active torsions:
  status: ('A' for Active; 'I' for Inactive)
    1  A    between atoms: C_1  and  C_5
    2  A    between atoms: C_4  and  C_10
    3  A    between atoms: C_4  and  O_22
    4  A    between atoms: C_5  and  O_17
    5  A    between atoms: C_5  and  C_23
    6  A    between atoms: C_6  and  C_31
    7  A    between atoms: C_7  and  C_33
    8  A    between atoms: C_10  and  C_14
    9  A    between atoms: C_14  and  C_31
   10  A    between atoms: O_17  and  N_26
   11  A    between atoms: C_20  and  N_24
                            x       y       z     vdW  Elec       q    Type
                         _______ _______ _______ _____ _____    ______ ____

>  <TORSDO>
F 11

$$$$
