=
 OpenBabel11052412373D

 30 32  0  0  1  0  0  0  0  0999 V2000
  190.6250  176.3880  141.6960 C   0  0  0  0  0  2  0  0  0  0  0  0
  189.1680  176.8670  141.5050 C   0  0  2  0  0  3  0  0  0  0  0  0
  192.0980  178.7950  144.3150 C   0  0  0  0  0  1  0  0  0  0  0  0
  185.6530  178.4360  139.3680 C   0  0  0  0  0  2  0  0  0  0  0  0
  186.9270  177.4100  142.6020 C   0  0  0  0  0  2  0  0  0  0  0  0
  188.7330  178.7820  144.2210 O   0  0  0  0  0  0  0  0  0  0  0  0
  189.0400  178.1680  140.6510 C   0  0  2  0  0  3  0  0  0  0  0  0
  186.9200  178.7600  141.8890 C   0  0  2  0  0  3  0  0  0  0  0  0
  184.7590  178.5000  140.6050 C   0  0  0  0  0  2  0  0  0  0  0  0
  191.5260  177.4650  142.3120 C   0  0  0  0  0  2  0  0  0  0  0  0
  190.2910  177.0260  144.5210 C   0  0  2  0  0  3  0  0  0  0  0  0
  191.6090  177.4370  143.8430 C   0  0  2  0  0  3  0  0  0  0  0  0
  188.2080  175.5480  143.2500 O   0  0  0  0  0  1  0  0  0  0  0  0
  189.0630  177.6440  143.9160 C   0  0  0  0  0  0  0  0  0  0  0  0
  188.3460  176.8730  142.8270 C   0  0  1  0  0  0  0  0  0  0  0  0
  185.4870  179.2640  141.7130 C   0  0  0  0  0  2  0  0  0  0  0  0
  186.8520  177.7720  139.6810 O   0  0  0  0  0  0  0  0  0  0  0  0
  187.5890  178.6390  140.5140 C   0  0  2  0  0  3  0  0  0  0  0  0
  189.6580  178.1180  139.3120 N   0  0  0  0  0  0  0  0  0  0  0  0
  189.5540  176.7680  138.7800 C   0  0  0  0  0  1  0  0  0  0  0  0
  189.0370  179.0410  138.3660 C   0  0  0  0  0  2  0  0  0  0  0  0
  189.0950  178.4830  137.0280 N   0  0  0  0  0  2  0  0  0  0  0  0
  187.9200  178.3170  136.2870 C   0  0  0  0  0  0  0  0  0  0  0  0
  186.9070  178.1740  135.6500 C   0  0  0  0  0  3  0  0  0  0  0  0
  190.2710  176.8820  146.0530 C   0  0  1  0  0  3  0  0  0  0  0  0
  191.6590  177.1410  148.0230 C   0  0  0  0  0  1  0  0  0  0  0  0
  191.6310  176.7910  146.6070 N   0  0  0  0  0  0  0  0  0  0  0  0
  192.0810  175.4130  146.4900 C   0  0  0  0  0  1  0  0  0  0  0  0
  188.2080  177.1240  147.4380 C   0  0  0  0  0  1  0  0  0  0  0  0
  189.3500  177.8710  146.7790 C   0  0  0  0  0  2  0  0  0  0  0  0
  1 10  1  0  0  0  0
  2  1  1  1  0  0  0
  2 15  1  0  0  0  0
  4 17  1  0  0  0  0
  4  9  1  0  0  0  0
  5 15  1  0  0  0  0
  7 19  1  6  0  0  0
  7  2  1  0  0  0  0
  8 16  1  6  0  0  0
  8  5  1  0  0  0  0
  9 16  1  0  0  0  0
 10 12  1  0  0  0  0
 11 25  1  1  0  0  0
 12  3  1  1  0  0  0
 12 11  1  0  0  0  0
 14  6  2  0  0  0  0
 14 11  1  0  0  0  0
 15 13  1  1  0  0  0
 15 14  1  0  0  0  0
 18 17  1  6  0  0  0
 18  7  1  0  0  0  0
 18  8  1  0  0  0  0
 20 19  1  0  0  0  0
 21 19  1  0  0  0  0
 22 21  1  0  0  0  0
 23 22  1  0  0  0  0
 24 23  3  0  0  0  0
 25 27  1  0  0  0  0
 25 30  1  1  0  0  0
 27 26  1  0  0  0  0
 28 27  1  0  0  0  0
 30 29  1  0  0  0  0
M  END
>  <MODEL>
1

>  <REMARK>
 VINA RESULT:      -6.5      0.000      0.000
  Name = 
  7 active torsions:
  status: ('A' for Active; 'I' for Inactive)
    1  A    between atoms: C_6  and  N_8
    2  A    between atoms: C_6  and  N_21
    3  A    between atoms: N_8  and  C_13
    4  A    between atoms: C_9  and  N_21
    5  A    between atoms: N_14  and  C_28
    6  A    between atoms: C_19  and  C_28
    7  A    between atoms: C_28  and  C_29
                            x       y       z     vdW  Elec       q    Type
                         _______ _______ _______ _____ _____    ______ ____

>  <TORSDO>
F 7

$$$$
=
 OpenBabel11052412373D

 30 32  0  0  1  0  0  0  0  0999 V2000
  186.7620  176.8530  143.2750 C   0  0  0  0  0  2  0  0  0  0  0  0
  187.9950  176.6710  144.1910 C   0  0  2  0  0  3  0  0  0  0  0  0
  187.6800  179.8180  140.9970 C   0  0  0  0  0  1  0  0  0  0  0  0
  190.2690  176.5020  147.9570 C   0  0  0  0  0  2  0  0  0  0  0  0
  190.5170  176.3080  144.3470 C   0  0  0  0  0  2  0  0  0  0  0  0
  190.3270  178.4060  142.5230 O   0  0  0  0  0  0  0  0  0  0  0  0
  188.1020  177.7450  145.3210 C   0  0  2  0  0  3  0  0  0  0  0  0
  190.6140  177.4840  145.3150 C   0  0  2  0  0  3  0  0  0  0  0  0
  191.6230  176.2700  147.2880 C   0  0  0  0  0  2  0  0  0  0  0  0
  186.7020  178.2430  142.6330 C   0  0  0  0  0  2  0  0  0  0  0  0
  188.6470  177.4760  141.1400 C   0  0  2  0  0  3  0  0  0  0  0  0
  187.3880  178.3520  141.2660 C   0  0  2  0  0  3  0  0  0  0  0  0
  189.1960  175.1890  142.7550 O   0  0  0  0  0  1  0  0  0  0  0  0
  189.5350  177.4900  142.3510 C   0  0  0  0  0  0  0  0  0  0  0  0
  189.3130  176.4220  143.4020 C   0  0  1  0  0  0  0  0  0  0  0  0
  191.8420  177.3370  146.2130 C   0  0  0  0  0  2  0  0  0  0  0  0
  189.2430  176.4160  146.9990 O   0  0  0  0  0  0  0  0  0  0  0  0
  189.3540  177.5630  146.1850 C   0  0  2  0  0  3  0  0  0  0  0  0
  186.9240  177.8690  146.2000 N   0  0  0  0  0  0  0  0  0  0  0  0
  187.3610  178.0610  147.5740 C   0  0  0  0  0  1  0  0  0  0  0  0
  186.0530  178.9800  145.8290 C   0  0  0  0  0  2  0  0  0  0  0  0
  184.6720  178.6330  146.1040 N   0  0  0  0  0  2  0  0  0  0  0  0
  183.7000  178.7840  145.1090 C   0  0  0  0  0  0  0  0  0  0  0  0
  182.8630  178.9150  144.2500 C   0  0  0  0  0  3  0  0  0  0  0  0
  189.3770  177.4370  139.7870 C   0  0  1  0  0  3  0  0  0  0  0  0
  190.4420  175.6300  138.5710 C   0  0  0  0  0  1  0  0  0  0  0  0
  190.4610  176.4410  139.7840 N   0  0  0  0  0  0  0  0  0  0  0  0
  191.7320  177.1470  139.8160 C   0  0  0  0  0  1  0  0  0  0  0  0
  188.7240  178.5710  137.6620 C   0  0  0  0  0  1  0  0  0  0  0  0
  188.4560  177.3820  138.5610 C   0  0  0  0  0  2  0  0  0  0  0  0
  2  1  1  6  0  0  0
  2  7  1  0  0  0  0
  7 18  1  0  0  0  0
  7 19  1  1  0  0  0
  8  5  1  6  0  0  0
  8 18  1  0  0  0  0
  8 16  1  0  0  0  0
  9  4  1  0  0  0  0
 10  1  1  0  0  0  0
 11 25  1  6  0  0  0
 11 12  1  0  0  0  0
 11 14  1  0  0  0  0
 12  3  1  1  0  0  0
 12 10  1  0  0  0  0
 14  6  2  0  0  0  0
 14 15  1  0  0  0  0
 15 13  1  6  0  0  0
 15  2  1  0  0  0  0
 15  5  1  0  0  0  0
 16  9  1  0  0  0  0
 17  4  1  0  0  0  0
 18 17  1  6  0  0  0
 19 20  1  0  0  0  0
 21 22  1  0  0  0  0
 21 19  1  0  0  0  0
 23 22  1  0  0  0  0
 24 23  3  0  0  0  0
 25 30  1  6  0  0  0
 26 27  1  0  0  0  0
 27 25  1  0  0  0  0
 27 28  1  0  0  0  0
 29 30  1  0  0  0  0
M  END
>  <MODEL>
2

>  <REMARK>
 VINA RESULT:      -6.3      2.397      6.940
  Name = 
  7 active torsions:
  status: ('A' for Active; 'I' for Inactive)
    1  A    between atoms: C_6  and  N_8
    2  A    between atoms: C_6  and  N_21
    3  A    between atoms: N_8  and  C_13
    4  A    between atoms: C_9  and  N_21
    5  A    between atoms: N_14  and  C_28
    6  A    between atoms: C_19  and  C_28
    7  A    between atoms: C_28  and  C_29
                            x       y       z     vdW  Elec       q    Type
                         _______ _______ _______ _____ _____    ______ ____

>  <TORSDO>
F 7

$$$$
=
 OpenBabel11052412373D

 30 32  0  0  1  0  0  0  0  0999 V2000
  187.6680  179.2260  141.8380 C   0  0  0  0  0  2  0  0  0  0  0  0
  188.5940  178.5830  140.7800 C   0  0  2  0  0  3  0  0  0  0  0  0
  186.7510  176.3310  144.2050 C   0  0  0  0  0  1  0  0  0  0  0  0
  189.9260  177.3070  136.7820 C   0  0  0  0  0  2  0  0  0  0  0  0
  190.7100  177.2310  140.3190 C   0  0  0  0  0  2  0  0  0  0  0  0
  189.4560  175.7220  142.2970 O   0  0  0  0  0  0  0  0  0  0  0  0
  187.8370  177.7150  139.7250 C   0  0  2  0  0  3  0  0  0  0  0  0
  189.9000  176.2890  139.4320 C   0  0  2  0  0  3  0  0  0  0  0  0
  191.1830  176.5970  137.2770 C   0  0  0  0  0  2  0  0  0  0  0  0
  186.8120  178.1930  142.5810 C   0  0  0  0  0  2  0  0  0  0  0  0
  188.9680  177.4920  143.7890 C   0  0  2  0  0  3  0  0  0  0  0  0
  187.4390  177.6410  143.8670 C   0  0  2  0  0  3  0  0  0  0  0  0
  190.6420  178.9090  141.9640 O   0  0  0  0  0  1  0  0  0  0  0  0
  189.4700  176.9290  142.4900 C   0  0  0  0  0  0  0  0  0  0  0  0
  189.8530  177.9050  141.3970 C   0  0  1  0  0  0  0  0  0  0  0  0
  190.8040  175.6220  138.3940 C   0  0  0  0  0  2  0  0  0  0  0  0
  189.3330  178.0200  137.8400 O   0  0  0  0  0  0  0  0  0  0  0  0
  188.7850  177.0600  138.7150 C   0  0  2  0  0  3  0  0  0  0  0  0
  186.7530  178.4000  138.9930 N   0  0  0  0  0  0  0  0  0  0  0  0
  186.4710  177.6810  137.7610 C   0  0  0  0  0  1  0  0  0  0  0  0
  185.5200  178.4980  139.7690 C   0  0  0  0  0  2  0  0  0  0  0  0
  184.8450  179.7450  139.4580 N   0  0  0  0  0  2  0  0  0  0  0  0
  183.5080  179.7330  139.0480 C   0  0  0  0  0  0  0  0  0  0  0  0
  182.3550  179.7240  138.6960 C   0  0  0  0  0  3  0  0  0  0  0  0
  189.7220  177.0260  145.0460 C   0  0  1  0  0  3  0  0  0  0  0  0
  191.8320  178.1770  144.7350 C   0  0  0  0  0  1  0  0  0  0  0  0
  191.1640  176.8810  144.7930 N   0  0  0  0  0  0  0  0  0  0  0  0
  191.7510  176.1370  145.8950 C   0  0  0  0  0  1  0  0  0  0  0  0
  188.6680  176.8750  147.3040 C   0  0  0  0  0  1  0  0  0  0  0  0
  189.3720  177.7940  146.3270 C   0  0  0  0  0  2  0  0  0  0  0  0
  1 10  1  0  0  0  0
  2 15  1  0  0  0  0
  2  1  1  1  0  0  0
  4  9  1  0  0  0  0
  4 17  1  0  0  0  0
  5 15  1  0  0  0  0
  6 14  2  0  0  0  0
  7 19  1  6  0  0  0
  7  2  1  0  0  0  0
  8 16  1  6  0  0  0
  8  5  1  0  0  0  0
  9 16  1  0  0  0  0
 10 12  1  0  0  0  0
 11 12  1  0  0  0  0
 11 25  1  1  0  0  0
 12  3  1  6  0  0  0
 14 11  1  0  0  0  0
 15 13  1  1  0  0  0
 15 14  1  0  0  0  0
 18 17  1  1  0  0  0
 18  8  1  0  0  0  0
 18  7  1  0  0  0  0
 19 21  1  0  0  0  0
 20 19  1  0  0  0  0
 22 21  1  0  0  0  0
 23 22  1  0  0  0  0
 24 23  3  0  0  0  0
 25 30  1  1  0  0  0
 26 27  1  0  0  0  0
 27 25  1  0  0  0  0
 27 28  1  0  0  0  0
 30 29  1  0  0  0  0
M  END
>  <MODEL>
3

>  <REMARK>
 VINA RESULT:      -6.1      1.911      3.971
  Name = 
  7 active torsions:
  status: ('A' for Active; 'I' for Inactive)
    1  A    between atoms: C_6  and  N_8
    2  A    between atoms: C_6  and  N_21
    3  A    between atoms: N_8  and  C_13
    4  A    between atoms: C_9  and  N_21
    5  A    between atoms: N_14  and  C_28
    6  A    between atoms: C_19  and  C_28
    7  A    between atoms: C_28  and  C_29
                            x       y       z     vdW  Elec       q    Type
                         _______ _______ _______ _____ _____    ______ ____

>  <TORSDO>
F 7

$$$$
=
 OpenBabel11052412373D

 30 32  0  0  1  0  0  0  0  0999 V2000
  189.6340  176.7690  141.4890 C   0  0  0  0  0  2  0  0  0  0  0  0
  188.1650  177.1600  141.7730 C   0  0  2  0  0  3  0  0  0  0  0  0
  191.6880  178.8460  143.9970 C   0  0  0  0  0  1  0  0  0  0  0  0
  184.1550  178.7710  140.9340 C   0  0  0  0  0  2  0  0  0  0  0  0
  186.2920  177.3560  143.4960 C   0  0  0  0  0  2  0  0  0  0  0  0
  188.4270  178.5930  144.7910 O   0  0  0  0  0  0  0  0  0  0  0  0
  187.7700  178.5640  141.2160 C   0  0  2  0  0  3  0  0  0  0  0  0
  186.0490  178.7950  143.0500 C   0  0  2  0  0  3  0  0  0  0  0  0
  183.6300  178.5750  142.3550 C   0  0  0  0  0  2  0  0  0  0  0  0
  190.6350  177.8020  142.0200 C   0  0  0  0  0  2  0  0  0  0  0  0
  190.0610  176.9340  144.3690 C   0  0  2  0  0  3  0  0  0  0  0  0
  191.1310  177.5440  143.4470 C   0  0  2  0  0  3  0  0  0  0  0  0
  187.7580  175.5180  143.4590 O   0  0  0  0  0  1  0  0  0  0  0  0
  188.6960  177.5450  144.2220 C   0  0  0  0  0  0  0  0  0  0  0  0
  187.7350  176.8990  143.2460 C   0  0  1  0  0  0  0  0  0  0  0  0
  184.6080  179.2110  143.3450 C   0  0  0  0  0  2  0  0  0  0  0  0
  185.4140  178.1590  140.8030 O   0  0  0  0  0  0  0  0  0  0  0  0
  186.3220  178.9400  141.5480 C   0  0  2  0  0  3  0  0  0  0  0  0
  188.0010  178.7690  139.7730 N   0  0  0  0  0  0  0  0  0  0  0  0
  189.4290  178.8860  139.5220 C   0  0  0  0  0  1  0  0  0  0  0  0
  187.4720  177.6820  138.9540 C   0  0  0  0  0  2  0  0  0  0  0  0
  186.8240  178.2270  137.7770 N   0  0  0  0  0  2  0  0  0  0  0  0
  185.5630  177.7590  137.3910 C   0  0  0  0  0  0  0  0  0  0  0  0
  184.4770  177.3550  137.0580 C   0  0  0  0  0  3  0  0  0  0  0  0
  190.4630  176.5540  145.8040 C   0  0  1  0  0  3  0  0  0  0  0  0
  192.2630  175.8130  147.2490 C   0  0  0  0  0  1  0  0  0  0  0  0
  191.8790  176.1620  145.8850 N   0  0  0  0  0  0  0  0  0  0  0  0
  192.0750  174.9800  145.0610 C   0  0  0  0  0  1  0  0  0  0  0  0
  188.8790  176.9520  147.6920 C   0  0  0  0  0  1  0  0  0  0  0  0
  190.0120  177.5480  146.8820 C   0  0  0  0  0  2  0  0  0  0  0  0
  1 10  1  0  0  0  0
  2  1  1  1  0  0  0
  2 15  1  0  0  0  0
  4  9  1  0  0  0  0
  7 19  1  6  0  0  0
  7 18  1  0  0  0  0
  7  2  1  0  0  0  0
  8 16  1  6  0  0  0
  8  5  1  0  0  0  0
  9 16  1  0  0  0  0
 10 12  1  0  0  0  0
 11 25  1  1  0  0  0
 12  3  1  1  0  0  0
 12 11  1  0  0  0  0
 14 11  1  0  0  0  0
 14  6  2  0  0  0  0
 15 13  1  1  0  0  0
 15  5  1  0  0  0  0
 15 14  1  0  0  0  0
 17  4  1  0  0  0  0
 18 17  1  6  0  0  0
 18  8  1  0  0  0  0
 20 19  1  0  0  0  0
 21 19  1  0  0  0  0
 22 21  1  0  0  0  0
 23 22  1  0  0  0  0
 24 23  3  0  0  0  0
 25 27  1  0  0  0  0
 25 30  1  1  0  0  0
 27 26  1  0  0  0  0
 28 27  1  0  0  0  0
 30 29  1  0  0  0  0
M  END
>  <MODEL>
4

>  <REMARK>
 VINA RESULT:      -6.1      1.321      1.544
  Name = 
  7 active torsions:
  status: ('A' for Active; 'I' for Inactive)
    1  A    between atoms: C_6  and  N_8
    2  A    between atoms: C_6  and  N_21
    3  A    between atoms: N_8  and  C_13
    4  A    between atoms: C_9  and  N_21
    5  A    between atoms: N_14  and  C_28
    6  A    between atoms: C_19  and  C_28
    7  A    between atoms: C_28  and  C_29
                            x       y       z     vdW  Elec       q    Type
                         _______ _______ _______ _____ _____    ______ ____

>  <TORSDO>
F 7

$$$$
=
 OpenBabel11052412373D

 30 32  0  0  1  0  0  0  0  0999 V2000
  190.2940  176.1000  142.1030 C   0  0  0  0  0  2  0  0  0  0  0  0
  188.8930  176.7200  141.9020 C   0  0  2  0  0  3  0  0  0  0  0  0
  192.1340  178.5910  144.3900 C   0  0  0  0  0  1  0  0  0  0  0  0
  185.4880  178.4440  139.7050 C   0  0  0  0  0  2  0  0  0  0  0  0
  186.7740  177.6350  142.9950 C   0  0  0  0  0  2  0  0  0  0  0  0
  188.7880  178.9560  144.3960 O   0  0  0  0  0  0  0  0  0  0  0  0
  188.8750  177.9270  140.9100 C   0  0  2  0  0  3  0  0  0  0  0  0
  186.8880  178.8910  142.1350 C   0  0  2  0  0  3  0  0  0  0  0  0
  184.6600  178.7450  140.9530 C   0  0  0  0  0  2  0  0  0  0  0  0
  191.3350  177.1260  142.5670 C   0  0  0  0  0  2  0  0  0  0  0  0
  190.1510  177.0750  144.8460 C   0  0  2  0  0  3  0  0  0  0  0  0
  191.4780  177.2560  144.0880 C   0  0  2  0  0  3  0  0  0  0  0  0
  187.8660  175.7180  143.8110 O   0  0  0  0  0  1  0  0  0  0  0  0
  188.9760  177.7620  144.2120 C   0  0  0  0  0  0  0  0  0  0  0  0
  188.1330  176.9650  143.2380 C   0  0  1  0  0  0  0  0  0  0  0  0
  185.5140  179.5350  141.9460 C   0  0  0  0  0  2  0  0  0  0  0  0
  186.6180  177.6830  140.0560 O   0  0  0  0  0  0  0  0  0  0  0  0
  187.4810  178.5450  140.7640 C   0  0  2  0  0  3  0  0  0  0  0  0
  189.4270  177.6610  139.5680 N   0  0  0  0  0  0  0  0  0  0  0  0
  189.1340  178.7840  138.6910 C   0  0  0  0  0  1  0  0  0  0  0  0
  190.8710  177.4450  139.5820 C   0  0  0  0  0  2  0  0  0  0  0  0
  191.2070  176.3270  138.7200 N   0  0  0  0  0  2  0  0  0  0  0  0
  192.3760  176.3610  137.9520 C   0  0  0  0  0  0  0  0  0  0  0  0
  193.3830  176.3910  137.2900 C   0  0  0  0  0  3  0  0  0  0  0  0
  190.1800  177.1020  146.3840 C   0  0  1  0  0  3  0  0  0  0  0  0
  188.1290  176.3930  147.4650 C   0  0  0  0  0  1  0  0  0  0  0  0
  188.8870  177.5250  146.9440 N   0  0  0  0  0  0  0  0  0  0  0  0
  189.1420  178.4270  148.0560 C   0  0  0  0  0  1  0  0  0  0  0  0
  192.1340  176.1760  147.6320 C   0  0  0  0  0  1  0  0  0  0  0  0
  190.7790  175.8490  147.0370 C   0  0  0  0  0  2  0  0  0  0  0  0
  1 10  1  0  0  0  0
  2  1  1  1  0  0  0
  2 15  1  0  0  0  0
  4 17  1  0  0  0  0
  4  9  1  0  0  0  0
  5 15  1  0  0  0  0
  7 19  1  6  0  0  0
  7  2  1  0  0  0  0
  8 16  1  6  0  0  0
  8  5  1  0  0  0  0
  9 16  1  0  0  0  0
 10 12  1  0  0  0  0
 11 25  1  1  0  0  0
 12  3  1  6  0  0  0
 12 11  1  0  0  0  0
 14  6  2  0  0  0  0
 14 11  1  0  0  0  0
 15 13  1  1  0  0  0
 15 14  1  0  0  0  0
 18 17  1  1  0  0  0
 18  7  1  0  0  0  0
 18  8  1  0  0  0  0
 19 21  1  0  0  0  0
 20 19  1  0  0  0  0
 22 21  1  0  0  0  0
 23 22  1  0  0  0  0
 24 23  3  0  0  0  0
 25 27  1  0  0  0  0
 25 30  1  1  0  0  0
 27 26  1  0  0  0  0
 27 28  1  0  0  0  0
 30 29  1  0  0  0  0
M  END
>  <MODEL>
5

>  <REMARK>
 VINA RESULT:      -6.0      1.325      2.351
  Name = 
  7 active torsions:
  status: ('A' for Active; 'I' for Inactive)
    1  A    between atoms: C_6  and  N_8
    2  A    between atoms: C_6  and  N_21
    3  A    between atoms: N_8  and  C_13
    4  A    between atoms: C_9  and  N_21
    5  A    between atoms: N_14  and  C_28
    6  A    between atoms: C_19  and  C_28
    7  A    between atoms: C_28  and  C_29
                            x       y       z     vdW  Elec       q    Type
                         _______ _______ _______ _____ _____    ______ ____

>  <TORSDO>
F 7

$$$$
=
 OpenBabel11052412373D

 30 32  0  0  1  0  0  0  0  0999 V2000
  188.5330  176.5750  142.7390 C   0  0  0  0  0  2  0  0  0  0  0  0
  187.1220  177.1280  143.0400 C   0  0  2  0  0  3  0  0  0  0  0  0
  190.9300  179.0600  144.4430 C   0  0  0  0  0  1  0  0  0  0  0  0
  183.1260  178.7620  142.1730 C   0  0  0  0  0  2  0  0  0  0  0  0
  185.4470  177.8820  144.8130 C   0  0  0  0  0  2  0  0  0  0  0  0
  187.7590  179.2470  145.5570 O   0  0  0  0  0  0  0  0  0  0  0  0
  186.7380  178.3740  142.1790 C   0  0  2  0  0  3  0  0  0  0  0  0
  185.2270  179.1770  144.0370 C   0  0  2  0  0  3  0  0  0  0  0  0
  182.7410  178.9640  143.6370 C   0  0  0  0  0  2  0  0  0  0  0  0
  189.6310  177.6340  142.8970 C   0  0  0  0  0  2  0  0  0  0  0  0
  189.2620  177.4230  145.4310 C   0  0  2  0  0  3  0  0  0  0  0  0
  190.2590  177.7060  144.2940 C   0  0  2  0  0  3  0  0  0  0  0  0
  186.8130  175.9930  145.1180 O   0  0  0  0  0  1  0  0  0  0  0  0
  187.9190  178.0730  145.2540 C   0  0  0  0  0  0  0  0  0  0  0  0
  186.8330  177.2750  144.5630 C   0  0  1  0  0  0  0  0  0  0  0  0
  183.8450  179.7560  144.3420 C   0  0  0  0  0  2  0  0  0  0  0  0
  184.3350  178.0470  142.0930 O   0  0  0  0  0  0  0  0  0  0  0  0
  185.3510  178.9230  142.5300 C   0  0  2  0  0  3  0  0  0  0  0  0
  186.8290  178.1950  140.7180 N   0  0  0  0  0  0  0  0  0  0  0  0
  185.8070  178.9980  140.0660 C   0  0  0  0  0  1  0  0  0  0  0  0
  188.1320  178.5730  140.1810 C   0  0  0  0  0  2  0  0  0  0  0  0
  188.5810  177.5720  139.2320 N   0  0  0  0  0  2  0  0  0  0  0  0
  189.9080  177.1310  139.2540 C   0  0  0  0  0  0  0  0  0  0  0  0
  191.0520  176.7500  139.2730 C   0  0  0  0  0  3  0  0  0  0  0  0
  189.7910  177.3850  146.8750 C   0  0  1  0  0  3  0  0  0  0  0  0
  188.0460  176.8350  148.4650 C   0  0  0  0  0  1  0  0  0  0  0  0
  188.8010  177.9090  147.8300 N   0  0  0  0  0  0  0  0  0  0  0  0
  189.5110  178.6220  148.8800 C   0  0  0  0  0  1  0  0  0  0  0  0
  191.9390  176.1380  147.1180 C   0  0  0  0  0  1  0  0  0  0  0  0
  190.4360  176.0560  147.2880 C   0  0  0  0  0  2  0  0  0  0  0  0
  1 10  1  0  0  0  0
  2  1  1  1  0  0  0
  2 15  1  0  0  0  0
  4  9  1  0  0  0  0
  7 19  1  6  0  0  0
  7 18  1  0  0  0  0
  7  2  1  0  0  0  0
  8 16  1  6  0  0  0
  8  5  1  0  0  0  0
  9 16  1  0  0  0  0
 10 12  1  0  0  0  0
 11 25  1  1  0  0  0
 12  3  1  1  0  0  0
 12 11  1  0  0  0  0
 14 11  1  0  0  0  0
 14  6  2  0  0  0  0
 15  5  1  0  0  0  0
 15 13  1  1  0  0  0
 15 14  1  0  0  0  0
 17  4  1  0  0  0  0
 18 17  1  1  0  0  0
 18  8  1  0  0  0  0
 20 19  1  0  0  0  0
 21 19  1  0  0  0  0
 22 23  1  0  0  0  0
 22 21  1  0  0  0  0
 23 24  3  0  0  0  0
 25 30  1  1  0  0  0
 25 27  1  0  0  0  0
 27 26  1  0  0  0  0
 27 28  1  0  0  0  0
 29 30  1  0  0  0  0
M  END
>  <MODEL>
6

>  <REMARK>
 VINA RESULT:      -5.8      1.914      3.032
  Name = 
  7 active torsions:
  status: ('A' for Active; 'I' for Inactive)
    1  A    between atoms: C_6  and  N_8
    2  A    between atoms: C_6  and  N_21
    3  A    between atoms: N_8  and  C_13
    4  A    between atoms: C_9  and  N_21
    5  A    between atoms: N_14  and  C_28
    6  A    between atoms: C_19  and  C_28
    7  A    between atoms: C_28  and  C_29
                            x       y       z     vdW  Elec       q    Type
                         _______ _______ _______ _____ _____    ______ ____

>  <TORSDO>
F 7

$$$$
=
 OpenBabel11052412373D

 30 32  0  0  1  0  0  0  0  0999 V2000
  185.3310  178.6690  137.9450 C   0  0  0  0  0  2  0  0  0  0  0  0
  184.8560  178.9110  139.3970 C   0  0  2  0  0  3  0  0  0  0  0  0
  184.3550  175.0180  137.2060 C   0  0  0  0  0  1  0  0  0  0  0  0
  185.2050  179.8660  143.6800 C   0  0  0  0  0  2  0  0  0  0  0  0
  182.9190  178.8510  141.0580 C   0  0  0  0  0  2  0  0  0  0  0  0
  182.7420  176.3490  139.8430 O   0  0  0  0  0  0  0  0  0  0  0  0
  185.7740  178.2530  140.4760 C   0  0  2  0  0  3  0  0  0  0  0  0
  183.7880  178.0480  142.0230 C   0  0  2  0  0  3  0  0  0  0  0  0
  183.7290  179.6280  143.9940 C   0  0  0  0  0  2  0  0  0  0  0  0
  185.4830  177.1800  137.6130 C   0  0  0  0  0  2  0  0  0  0  0  0
  182.9160  177.0720  137.5970 C   0  0  2  0  0  3  0  0  0  0  0  0
  184.2320  176.5200  137.0210 C   0  0  2  0  0  3  0  0  0  0  0  0
  182.6410  179.6180  138.8530 O   0  0  0  0  0  1  0  0  0  0  0  0
  182.9340  177.2880  139.0830 C   0  0  0  0  0  0  0  0  0  0  0  0
  183.3330  178.6570  139.5940 C   0  0  1  0  0  0  0  0  0  0  0  0
  183.3180  178.2530  143.4630 C   0  0  0  0  0  2  0  0  0  0  0  0
  185.4100  179.8230  142.2890 O   0  0  0  0  0  0  0  0  0  0  0  0
  185.2550  178.4760  141.9010 C   0  0  2  0  0  3  0  0  0  0  0  0
  187.1990  178.6280  140.4190 N   0  0  0  0  0  0  0  0  0  0  0  0
  187.8080  178.4210  141.7240 C   0  0  0  0  0  1  0  0  0  0  0  0
  187.9480  177.8600  139.4280 C   0  0  0  0  0  2  0  0  0  0  0  0
  188.7620  178.7550  138.6280 N   0  0  0  0  0  2  0  0  0  0  0  0
  188.9730  178.4860  137.2710 C   0  0  0  0  0  0  0  0  0  0  0  0
  189.1540  178.2530  136.1020 C   0  0  0  0  0  3  0  0  0  0  0  0
  181.5900  176.5470  137.0220 C   0  0  1  0  0  3  0  0  0  0  0  0
  179.7720  178.1420  136.8560 C   0  0  0  0  0  1  0  0  0  0  0  0
  180.4290  177.1480  137.6980 N   0  0  0  0  0  0  0  0  0  0  0  0
  179.4610  176.0970  137.9680 C   0  0  0  0  0  1  0  0  0  0  0  0
  181.3650  175.1300  134.9790 C   0  0  0  0  0  1  0  0  0  0  0  0
  181.5090  176.5490  135.4900 C   0  0  0  0  0  2  0  0  0  0  0  0
  2  1  1  6  0  0  0
  2 15  1  0  0  0  0
  2  7  1  0  0  0  0
  4  9  1  0  0  0  0
  7 19  1  1  0  0  0
  7 18  1  0  0  0  0
  8  5  1  6  0  0  0
  8 16  1  0  0  0  0
 10  1  1  0  0  0  0
 11 25  1  1  0  0  0
 11 14  1  0  0  0  0
 12  3  1  1  0  0  0
 12 11  1  0  0  0  0
 12 10  1  0  0  0  0
 14 15  1  0  0  0  0
 14  6  2  0  0  0  0
 15 13  1  6  0  0  0
 15  5  1  0  0  0  0
 16  9  1  0  0  0  0
 17  4  1  0  0  0  0
 18  8  1  0  0  0  0
 18 17  1  6  0  0  0
 19 20  1  0  0  0  0
 21 19  1  0  0  0  0
 22 21  1  0  0  0  0
 23 22  1  0  0  0  0
 24 23  3  0  0  0  0
 25 30  1  6  0  0  0
 25 27  1  0  0  0  0
 26 27  1  0  0  0  0
 27 28  1  0  0  0  0
 29 30  1  0  0  0  0
M  END
>  <MODEL>
7

>  <REMARK>
 VINA RESULT:      -5.6      3.831      8.345
  Name = 
  7 active torsions:
  status: ('A' for Active; 'I' for Inactive)
    1  A    between atoms: C_6  and  N_8
    2  A    between atoms: C_6  and  N_21
    3  A    between atoms: N_8  and  C_13
    4  A    between atoms: C_9  and  N_21
    5  A    between atoms: N_14  and  C_28
    6  A    between atoms: C_19  and  C_28
    7  A    between atoms: C_28  and  C_29
                            x       y       z     vdW  Elec       q    Type
                         _______ _______ _______ _____ _____    ______ ____

>  <TORSDO>
F 7

$$$$
=
 OpenBabel11052412373D

 30 32  0  0  1  0  0  0  0  0999 V2000
  186.1710  179.2640  142.0630 C   0  0  0  0  0  2  0  0  0  0  0  0
  186.8610  178.9990  140.7050 C   0  0  2  0  0  3  0  0  0  0  0  0
  186.8060  176.0640  144.1090 C   0  0  0  0  0  1  0  0  0  0  0  0
  187.1840  178.4630  136.3470 C   0  0  0  0  0  2  0  0  0  0  0  0
  189.0070  178.3650  139.4770 C   0  0  0  0  0  2  0  0  0  0  0  0
  188.8560  176.4160  141.4630 O   0  0  0  0  0  0  0  0  0  0  0  0
  186.0680  178.0260  139.7760 C   0  0  2  0  0  3  0  0  0  0  0  0
  188.2370  177.2930  138.7110 C   0  0  2  0  0  3  0  0  0  0  0  0
  188.6720  178.1190  136.3620 C   0  0  0  0  0  2  0  0  0  0  0  0
  185.8820  177.9750  142.8410 C   0  0  0  0  0  2  0  0  0  0  0  0
  188.4080  177.8530  143.2880 C   0  0  2  0  0  3  0  0  0  0  0  0
  186.9930  177.5400  143.8040 C   0  0  2  0  0  3  0  0  0  0  0  0
  189.0150  179.8260  141.3200 O   0  0  0  0  0  1  0  0  0  0  0  0
  188.6160  177.5570  141.8300 C   0  0  0  0  0  0  0  0  0  0  0  0
  188.3780  178.6780  140.8410 C   0  0  1  0  0  0  0  0  0  0  0  0
  188.9190  176.9980  137.3740 C   0  0  0  0  0  2  0  0  0  0  0  0
  186.7810  178.8920  137.6250 O   0  0  0  0  0  0  0  0  0  0  0  0
  186.7960  177.7530  138.4560 C   0  0  2  0  0  3  0  0  0  0  0  0
  184.6740  178.4130  139.4840 N   0  0  0  0  0  0  0  0  0  0  0  0
  184.3030  177.9330  138.1630 C   0  0  0  0  0  1  0  0  0  0  0  0
  183.7230  177.8820  140.4570 C   0  0  0  0  0  2  0  0  0  0  0  0
  182.8130  178.9310  140.8750 N   0  0  0  0  0  2  0  0  0  0  0  0
  182.3470  178.9700  142.1940 C   0  0  0  0  0  0  0  0  0  0  0  0
  181.9450  179.0030  143.3300 C   0  0  0  0  0  3  0  0  0  0  0  0
  189.6050  177.5380  144.2020 C   0  0  1  0  0  3  0  0  0  0  0  0
  191.6570  178.8190  144.0470 C   0  0  0  0  0  1  0  0  0  0  0  0
  190.8860  177.7090  143.4980 N   0  0  0  0  0  0  0  0  0  0  0  0
  191.6730  176.5000  143.6790 C   0  0  0  0  0  1  0  0  0  0  0  0
  189.5260  177.1280  146.6630 C   0  0  0  0  0  1  0  0  0  0  0  0
  189.5450  178.1950  145.5880 C   0  0  0  0  0  2  0  0  0  0  0  0
  1 10  1  0  0  0  0
  2 15  1  0  0  0  0
  2  1  1  1  0  0  0
  4  9  1  0  0  0  0
  4 17  1  0  0  0  0
  5 15  1  0  0  0  0
  6 14  2  0  0  0  0
  7 19  1  6  0  0  0
  7  2  1  0  0  0  0
  8 16  1  6  0  0  0
  8  5  1  0  0  0  0
  9 16  1  0  0  0  0
 10 12  1  0  0  0  0
 11 12  1  0  0  0  0
 11 25  1  1  0  0  0
 12  3  1  6  0  0  0
 14 11  1  0  0  0  0
 15 13  1  1  0  0  0
 15 14  1  0  0  0  0
 18 17  1  6  0  0  0
 18  8  1  0  0  0  0
 18  7  1  0  0  0  0
 19 21  1  0  0  0  0
 20 19  1  0  0  0  0
 21 22  1  0  0  0  0
 22 23  1  0  0  0  0
 23 24  3  0  0  0  0
 25 30  1  1  0  0  0
 27 28  1  0  0  0  0
 27 26  1  0  0  0  0
 27 25  1  0  0  0  0
 30 29  1  0  0  0  0
M  END
>  <MODEL>
8

>  <REMARK>
 VINA RESULT:      -5.5      2.301      4.663
  Name = 
  7 active torsions:
  status: ('A' for Active; 'I' for Inactive)
    1  A    between atoms: C_6  and  N_8
    2  A    between atoms: C_6  and  N_21
    3  A    between atoms: N_8  and  C_13
    4  A    between atoms: C_9  and  N_21
    5  A    between atoms: N_14  and  C_28
    6  A    between atoms: C_19  and  C_28
    7  A    between atoms: C_28  and  C_29
                            x       y       z     vdW  Elec       q    Type
                         _______ _______ _______ _____ _____    ______ ____

>  <TORSDO>
F 7

$$$$
=
 OpenBabel11052412373D

 30 32  0  0  1  0  0  0  0  0999 V2000
  181.6130  180.4160  139.4140 C   0  0  0  0  0  2  0  0  0  0  0  0
  182.3020  179.4800  138.3950 C   0  0  2  0  0  3  0  0  0  0  0  0
  180.7840  178.1420  142.4090 C   0  0  0  0  0  1  0  0  0  0  0  0
  182.8850  177.3370  134.5940 C   0  0  0  0  0  2  0  0  0  0  0  0
  184.1820  177.8130  137.9440 C   0  0  0  0  0  2  0  0  0  0  0  0
  183.0990  176.8610  140.3280 O   0  0  0  0  0  0  0  0  0  0  0  0
  181.3130  178.5350  137.6410 C   0  0  2  0  0  3  0  0  0  0  0  0
  183.1600  176.8340  137.3750 C   0  0  2  0  0  3  0  0  0  0  0  0
  184.1280  176.5780  135.0550 C   0  0  0  0  0  2  0  0  0  0  0  0
  180.7810  179.6530  140.4520 C   0  0  0  0  0  2  0  0  0  0  0  0
  183.0160  178.9220  141.4870 C   0  0  2  0  0  3  0  0  0  0  0  0
  181.5380  179.2720  141.7300 C   0  0  2  0  0  3  0  0  0  0  0  0
  184.5270  179.7600  139.2170 O   0  0  0  0  0  1  0  0  0  0  0  0
  183.2600  178.0720  140.2740 C   0  0  0  0  0  0  0  0  0  0  0  0
  183.5660  178.7760  138.9680 C   0  0  1  0  0  0  0  0  0  0  0  0
  183.8280  175.8800  136.3830 C   0  0  0  0  0  2  0  0  0  0  0  0
  182.5310  178.3000  135.5560 O   0  0  0  0  0  0  0  0  0  0  0  0
  182.0300  177.5930  136.6690 C   0  0  2  0  0  3  0  0  0  0  0  0
  180.2040  179.2030  136.9330 N   0  0  0  0  0  0  0  0  0  0  0  0
  178.9370  178.7930  137.5200 C   0  0  0  0  0  1  0  0  0  0  0  0
  180.2930  180.6600  136.9870 C   0  0  0  0  0  2  0  0  0  0  0  0
  180.0120  181.2160  135.6770 N   0  0  0  0  0  2  0  0  0  0  0  0
  180.4420  182.5080  135.3580 C   0  0  0  0  0  0  0  0  0  0  0  0
  180.8120  183.6230  135.0840 C   0  0  0  0  0  3  0  0  0  0  0  0
  183.9010  178.6040  142.7050 C   0  0  1  0  0  3  0  0  0  0  0  0
  186.0730  179.3470  141.9260 C   0  0  0  0  0  1  0  0  0  0  0  0
  185.2560  178.1970  142.2990 N   0  0  0  0  0  0  0  0  0  0  0  0
  185.9000  177.5550  143.4340 C   0  0  0  0  0  1  0  0  0  0  0  0
  183.6330  178.9740  145.1590 C   0  0  0  0  0  1  0  0  0  0  0  0
  183.8560  179.6530  143.8230 C   0  0  0  0  0  2  0  0  0  0  0  0
  1 10  1  0  0  0  0
  2 15  1  0  0  0  0
  2  1  1  1  0  0  0
  4  9  1  0  0  0  0
  4 17  1  0  0  0  0
  5 15  1  0  0  0  0
  7 19  1  6  0  0  0
  7  2  1  0  0  0  0
  8 16  1  6  0  0  0
  8  5  1  0  0  0  0
  9 16  1  0  0  0  0
 10 12  1  0  0  0  0
 11 12  1  0  0  0  0
 11 25  1  1  0  0  0
 12  3  1  6  0  0  0
 14  6  2  0  0  0  0
 14 11  1  0  0  0  0
 15 13  1  1  0  0  0
 15 14  1  0  0  0  0
 18 17  1  6  0  0  0
 18  8  1  0  0  0  0
 18  7  1  0  0  0  0
 19 21  1  0  0  0  0
 19 20  1  0  0  0  0
 22 21  1  0  0  0  0
 23 22  1  0  0  0  0
 24 23  3  0  0  0  0
 25 30  1  1  0  0  0
 26 27  1  0  0  0  0
 27 25  1  0  0  0  0
 27 28  1  0  0  0  0
 30 29  1  0  0  0  0
M  END
>  <MODEL>
9

>  <REMARK>
 VINA RESULT:      -5.4      4.796      8.070
  Name = 
  7 active torsions:
  status: ('A' for Active; 'I' for Inactive)
    1  A    between atoms: C_6  and  N_8
    2  A    between atoms: C_6  and  N_21
    3  A    between atoms: N_8  and  C_13
    4  A    between atoms: C_9  and  N_21
    5  A    between atoms: N_14  and  C_28
    6  A    between atoms: C_19  and  C_28
    7  A    between atoms: C_28  and  C_29
                            x       y       z     vdW  Elec       q    Type
                         _______ _______ _______ _____ _____    ______ ____

>  <TORSDO>
F 7

$$$$
