=
 OpenBabel11052414283D

 32 36  0  0  1  0  0  0  0  0999 V2000
  181.4570  179.0530  141.9270 C   0  0  2  0  0  3  0  0  0  0  0  0
  181.1710  178.4570  139.4110 C   0  0  1  0  0  3  0  0  0  0  0  0
  181.0210  179.5060  140.5260 C   0  0  1  0  0  3  0  0  0  0  0  0
  181.7970  179.1110  138.1790 C   0  0  2  0  0  3  0  0  0  0  0  0
  181.9740  174.7120  136.9010 C   0  0  0  0  0  2  0  0  0  0  0  0
  181.9900  177.2250  139.8480 C   0  0  2  0  0  3  0  0  0  0  0  0
  183.2270  176.4510  136.2120 C   0  0  0  0  0  2  0  0  0  0  0  0
  182.9100  177.3140  137.4460 C   0  0  1  0  0  3  0  0  0  0  0  0
  181.1040  180.4120  137.7470 C   0  0  0  0  0  2  0  0  0  0  0  0
  179.8150  180.4640  140.3800 C   0  0  1  0  0  3  0  0  0  0  0  0
  181.8500  178.1840  137.1300 O   0  0  0  0  0  0  0  0  0  0  0  0
  178.9320  180.1310  139.1670 C   0  0  0  0  0  2  0  0  0  0  0  0
  179.0270  180.4710  141.5320 O   0  0  0  0  0  1  0  0  0  0  0  0
  183.0390  177.5810  140.8020 N   0  0  0  0  0  0  0  0  0  0  0  0
  179.0780  181.5820  137.2670 O   0  0  0  0  0  1  0  0  0  0  0  0
  182.8160  178.3940  141.7960 C   0  0  0  0  0  0  0  0  0  0  0  0
  182.5570  176.4250  138.6670 C   0  0  2  0  0  3  0  0  0  0  0  0
  179.5690  180.3830  137.7850 C   0  0  1  0  0  3  0  0  0  0  0  0
  183.2790  175.0790  136.5250 O   0  0  0  0  0  0  0  0  0  0  0  0
  181.6210  175.2760  138.2850 C   0  0  0  0  0  2  0  0  0  0  0  0
  186.0940  177.4780  143.1240 C   0  0  0  0  0  2  0  0  0  0  0  0
  186.5750  178.0030  144.4750 C   0  0  0  0  0  2  0  0  0  0  0  0
  184.6020  179.4870  145.0320 C   0  0  0  0  0  2  0  0  0  0  0  0
  183.9040  178.7040  142.7500 C   0  0  0  0  0  0  0  0  0  0  0  0
  185.4160  178.2590  145.4370 C   0  0  2  0  0  3  0  0  0  0  0  0
  183.5960  179.1400  143.9810 C   0  0  0  0  0  3  0  0  0  0  0  0
  185.3310  178.5180  142.2990 C   0  0  1  0  0  3  0  0  0  0  0  0
  186.0410  179.7870  142.2270 N   0  0  0  0  0  1  0  0  0  0  0  0
  187.2590  177.8870  146.9470 C   0  0  0  0  0  1  0  0  0  0  0  0
  185.8810  178.3560  146.8230 N   0  0  0  0  0  2  0  0  0  0  0  0
  180.4460  178.0800  142.5320 C   0  0  0  0  0  2  0  0  0  0  0  0
  180.1520  178.4430  143.9740 C   0  0  0  0  0  1  0  0  0  0  0  0
  1 31  1  6  0  0  0
  2  6  1  0  0  0  0
  2  3  1  0  0  0  0
  3  1  1  0  0  0  0
  4  2  1  0  0  0  0
  5 20  1  0  0  0  0
  6 14  1  0  0  0  0
  7 19  1  0  0  0  0
  7  8  1  0  0  0  0
  8 17  1  0  0  0  0
  9 18  1  0  0  0  0
  9  4  1  0  0  0  0
 10  3  1  0  0  0  0
 10 13  1  0  0  0  0
 11  8  1  0  0  0  0
 11  4  1  0  0  0  0
 12 10  1  0  0  0  0
 14 16  2  0  0  0  0
 15 18  1  0  0  0  0
 16  1  1  0  0  0  0
 16 24  1  0  0  0  0
 17  6  1  0  0  0  0
 18 12  1  0  0  0  0
 19  5  1  0  0  0  0
 20 17  1  0  0  0  0
 21 22  1  0  0  0  0
 22 25  1  0  0  0  0
 23 25  1  0  0  0  0
 24 26  2  0  0  0  0
 25 30  1  0  0  0  0
 26 23  1  0  0  0  0
 27 24  1  0  0  0  0
 27 21  1  0  0  0  0
 28 27  1  0  0  0  0
 30 29  1  0  0  0  0
 31 32  1  0  0  0  0
M  END
>  <MODEL>
1

>  <REMARK>
 VINA RESULT:      -7.0      0.000      0.000
  Name = 
  3 active torsions:
  status: ('A' for Active; 'I' for Inactive)
    1  A    between atoms: C_1  and  C_4
    2  A    between atoms: C_16  and  C_27
    3  A    between atoms: C_19  and  N_26
                            x       y       z     vdW  Elec       q    Type
                         _______ _______ _______ _____ _____    ______ ____

>  <TORSDO>
F 3

$$$$
=
 OpenBabel11052414283D

 32 36  0  0  1  0  0  0  0  0999 V2000
  185.4030  177.0640  137.5260 C   0  0  2  0  0  3  0  0  0  0  0  0
  182.8970  177.4740  138.0950 C   0  0  1  0  0  3  0  0  0  0  0  0
  184.0280  176.4590  137.8490 C   0  0  1  0  0  3  0  0  0  0  0  0
  182.0990  177.0540  139.3300 C   0  0  2  0  0  3  0  0  0  0  0  0
  180.3080  181.2140  138.6180 C   0  0  0  0  0  2  0  0  0  0  0  0
  183.4070  178.9220  138.2430 C   0  0  2  0  0  3  0  0  0  0  0  0
  180.4060  180.0070  140.5160 C   0  0  0  0  0  2  0  0  0  0  0  0
  181.5560  179.1110  140.0200 C   0  0  1  0  0  3  0  0  0  0  0  0
  181.6510  175.5850  139.3100 C   0  0  0  0  0  2  0  0  0  0  0  0
  183.6010  175.1390  137.1660 C   0  0  1  0  0  3  0  0  0  0  0  0
  181.0120  177.9210  139.5030 O   0  0  0  0  0  0  0  0  0  0  0  0
  182.1120  175.1200  136.7830 C   0  0  0  0  0  2  0  0  0  0  0  0
  184.3690  174.8810  136.0300 O   0  0  0  0  0  1  0  0  0  0  0  0
  184.7230  178.9710  138.8800 N   0  0  0  0  0  0  0  0  0  0  0  0
  180.6480  173.7740  138.1180 O   0  0  0  0  0  1  0  0  0  0  0  0
  185.6790  178.1510  138.5450 C   0  0  0  0  0  0  0  0  0  0  0  0
  182.4080  179.8460  138.9520 C   0  0  2  0  0  3  0  0  0  0  0  0
  181.1170  175.0780  137.9620 C   0  0  1  0  0  3  0  0  0  0  0  0
  180.4990  181.3170  140.0080 O   0  0  0  0  0  0  0  0  0  0  0  0
  181.5360  180.5900  137.9390 C   0  0  0  0  0  2  0  0  0  0  0  0
  189.0970  176.8830  138.8000 C   0  0  0  0  0  2  0  0  0  0  0  0
  189.9570  177.1690  140.0280 C   0  0  0  0  0  2  0  0  0  0  0  0
  188.3360  178.6450  141.2940 C   0  0  0  0  0  2  0  0  0  0  0  0
  187.0010  178.2580  139.2010 C   0  0  0  0  0  0  0  0  0  0  0  0
  189.1150  177.3310  141.2940 C   0  0  2  0  0  3  0  0  0  0  0  0
  187.0640  178.5130  140.5170 C   0  0  0  0  0  3  0  0  0  0  0  0
  188.2400  178.0740  138.3600 C   0  0  1  0  0  3  0  0  0  0  0  0
  189.0160  179.3020  138.2710 N   0  0  0  0  0  1  0  0  0  0  0  0
  190.1590  175.7830  142.8190 C   0  0  0  0  0  1  0  0  0  0  0  0
  189.9310  177.1900  142.5020 N   0  0  0  0  0  2  0  0  0  0  0  0
  185.4360  177.6350  136.1110 C   0  0  0  0  0  2  0  0  0  0  0  0
  186.7140  177.2340  135.4010 C   0  0  0  0  0  1  0  0  0  0  0  0
  1 31  1  6  0  0  0
  1  3  1  0  0  0  0
  1 16  1  0  0  0  0
  2  6  1  0  0  0  0
  2  4  1  0  0  0  0
  3  2  1  0  0  0  0
  4 11  1  0  0  0  0
  5 19  1  0  0  0  0
  6 14  1  0  0  0  0
  6 17  1  0  0  0  0
  8  7  1  0  0  0  0
  9  4  1  0  0  0  0
 10  3  1  0  0  0  0
 11  8  1  0  0  0  0
 12 10  1  0  0  0  0
 12 18  1  0  0  0  0
 13 10  1  0  0  0  0
 16 14  2  0  0  0  0
 16 24  1  0  0  0  0
 17  8  1  0  0  0  0
 18 15  1  0  0  0  0
 18  9  1  0  0  0  0
 19  7  1  0  0  0  0
 20  5  1  0  0  0  0
 20 17  1  0  0  0  0
 21 22  1  0  0  0  0
 22 25  1  0  0  0  0
 23 25  1  0  0  0  0
 24 26  2  0  0  0  0
 25 30  1  0  0  0  0
 26 23  1  0  0  0  0
 27 21  1  0  0  0  0
 27 24  1  0  0  0  0
 28 27  1  0  0  0  0
 30 29  1  0  0  0  0
 32 31  1  0  0  0  0
M  END
>  <MODEL>
2

>  <REMARK>
 VINA RESULT:      -6.6      2.913      5.826
  Name = 
  3 active torsions:
  status: ('A' for Active; 'I' for Inactive)
    1  A    between atoms: C_1  and  C_4
    2  A    between atoms: C_16  and  C_27
    3  A    between atoms: C_19  and  N_26
                            x       y       z     vdW  Elec       q    Type
                         _______ _______ _______ _____ _____    ______ ____

>  <TORSDO>
F 3

$$$$
=
 OpenBabel11052414283D

 32 36  0  0  1  0  0  0  0  0999 V2000
  191.5570  176.2750  139.6540 C   0  0  2  0  0  3  0  0  0  0  0  0
  190.0670  175.9410  137.5470 C   0  0  1  0  0  3  0  0  0  0  0  0
  191.2030  175.4070  138.4370 C   0  0  1  0  0  3  0  0  0  0  0  0
  189.1130  174.7980  137.2010 C   0  0  2  0  0  3  0  0  0  0  0  0
  186.6890  178.3470  135.6060 C   0  0  0  0  0  2  0  0  0  0  0  0
  189.3000  177.1160  138.1880 C   0  0  2  0  0  3  0  0  0  0  0  0
  185.9800  176.3150  136.2680 C   0  0  0  0  0  2  0  0  0  0  0  0
  187.2420  176.0200  137.0970 C   0  0  1  0  0  3  0  0  0  0  0  0
  189.8160  173.5430  136.6610 C   0  0  0  0  0  2  0  0  0  0  0  0
  192.3280  174.6470  137.6960 C   0  0  1  0  0  3  0  0  0  0  0  0
  188.1300  175.2580  136.3160 O   0  0  0  0  0  0  0  0  0  0  0  0
  192.1350  174.6360  136.1700 C   0  0  0  0  0  2  0  0  0  0  0  0
  193.5840  175.1770  137.9940 O   0  0  0  0  0  1  0  0  0  0  0  0
  189.2270  176.9860  139.6430 N   0  0  0  0  0  0  0  0  0  0  0  0
  191.4130  172.5850  135.1670 O   0  0  0  0  0  1  0  0  0  0  0  0
  190.2620  176.6370  140.3540 C   0  0  0  0  0  0  0  0  0  0  0  0
  187.9100  177.3360  137.5770 C   0  0  2  0  0  3  0  0  0  0  0  0
  190.9440  173.8050  135.6520 C   0  0  1  0  0  3  0  0  0  0  0  0
  185.6470  177.6840  136.2800 O   0  0  0  0  0  0  0  0  0  0  0  0
  187.9610  178.3870  136.4650 C   0  0  0  0  0  2  0  0  0  0  0  0
  189.0950  178.1900  143.4490 C   0  0  0  0  0  2  0  0  0  0  0  0
  189.6440  177.7570  144.8070 C   0  0  0  0  0  2  0  0  0  0  0  0
  191.1650  175.8900  144.0260 C   0  0  0  0  0  2  0  0  0  0  0  0
  190.1440  176.5440  141.8260 C   0  0  0  0  0  0  0  0  0  0  0  0
  191.0840  177.2540  144.7100 C   0  0  2  0  0  3  0  0  0  0  0  0
  191.1620  176.0370  142.5370 C   0  0  0  0  0  3  0  0  0  0  0  0
  188.8730  177.0260  142.4780 C   0  0  1  0  0  3  0  0  0  0  0  0
  188.1380  175.9320  143.0970 N   0  0  0  0  0  1  0  0  0  0  0  0
  190.7890  176.8550  147.0700 C   0  0  0  0  0  1  0  0  0  0  0  0
  191.7340  177.2350  146.0230 N   0  0  0  0  0  2  0  0  0  0  0  0
  192.3080  177.5360  139.2330 C   0  0  0  0  0  2  0  0  0  0  0  0
  193.5690  177.7090  140.0580 C   0  0  0  0  0  1  0  0  0  0  0  0
  1 31  1  6  0  0  0
  1 16  1  0  0  0  0
  2  6  1  0  0  0  0
  2  3  1  0  0  0  0
  3  1  1  0  0  0  0
  4  2  1  0  0  0  0
  5 19  1  0  0  0  0
  5 20  1  0  0  0  0
  6 14  1  0  0  0  0
  7 19  1  0  0  0  0
  7  8  1  0  0  0  0
  8 17  1  0  0  0  0
  9  4  1  0  0  0  0
 10 13  1  0  0  0  0
 10  3  1  0  0  0  0
 11  8  1  0  0  0  0
 11  4  1  0  0  0  0
 12 10  1  0  0  0  0
 14 16  2  0  0  0  0
 15 18  1  0  0  0  0
 16 24  1  0  0  0  0
 17  6  1  0  0  0  0
 18 12  1  0  0  0  0
 18  9  1  0  0  0  0
 20 17  1  0  0  0  0
 21 22  1  0  0  0  0
 23 25  1  0  0  0  0
 24 27  1  0  0  0  0
 24 26  2  0  0  0  0
 25 22  1  0  0  0  0
 25 30  1  0  0  0  0
 26 23  1  0  0  0  0
 27 28  1  0  0  0  0
 27 21  1  0  0  0  0
 30 29  1  0  0  0  0
 31 32  1  0  0  0  0
M  END
>  <MODEL>
3

>  <REMARK>
 VINA RESULT:      -6.5      6.028      9.061
  Name = 
  3 active torsions:
  status: ('A' for Active; 'I' for Inactive)
    1  A    between atoms: C_1  and  C_4
    2  A    between atoms: C_16  and  C_27
    3  A    between atoms: C_19  and  N_26
                            x       y       z     vdW  Elec       q    Type
                         _______ _______ _______ _____ _____    ______ ____

>  <TORSDO>
F 3

$$$$
=
 OpenBabel11052414283D

 32 36  0  0  1  0  0  0  0  0999 V2000
  190.5490  175.9810  138.6250 C   0  0  2  0  0  3  0  0  0  0  0  0
  188.7410  175.3660  136.8590 C   0  0  1  0  0  3  0  0  0  0  0  0
  189.8930  174.8930  137.7630 C   0  0  1  0  0  3  0  0  0  0  0  0
  187.5780  174.3790  136.9610 C   0  0  2  0  0  3  0  0  0  0  0  0
  185.5470  177.7390  134.5940 C   0  0  0  0  0  2  0  0  0  0  0  0
  188.2690  176.7980  137.1820 C   0  0  2  0  0  3  0  0  0  0  0  0
  184.6250  176.1510  135.8970 C   0  0  0  0  0  2  0  0  0  0  0  0
  185.9300  175.8620  136.6610 C   0  0  1  0  0  3  0  0  0  0  0  0
  187.9890  172.9120  136.7630 C   0  0  0  0  0  2  0  0  0  0  0  0
  190.7660  173.7530  137.1880 C   0  0  1  0  0  3  0  0  0  0  0  0
  186.5650  174.7540  136.0690 O   0  0  0  0  0  0  0  0  0  0  0  0
  190.3580  173.3520  135.7600 C   0  0  0  0  0  2  0  0  0  0  0  0
  192.1190  174.0910  137.1990 O   0  0  0  0  0  1  0  0  0  0  0  0
  188.3840  177.0980  138.6090 N   0  0  0  0  0  0  0  0  0  0  0  0
  189.1840  171.2830  135.4900 O   0  0  0  0  0  1  0  0  0  0  0  0
  189.4420  176.7680  139.2970 C   0  0  0  0  0  0  0  0  0  0  0  0
  186.8590  177.1040  136.6600 C   0  0  2  0  0  3  0  0  0  0  0  0
  188.9880  172.6570  135.6250 C   0  0  1  0  0  3  0  0  0  0  0  0
  184.5190  177.5060  135.5260 O   0  0  0  0  0  0  0  0  0  0  0  0
  186.9180  177.7700  135.2830 C   0  0  0  0  0  2  0  0  0  0  0  0
  190.2410  175.6660  142.6880 C   0  0  0  0  0  2  0  0  0  0  0  0
  189.7200  176.4220  143.9080 C   0  0  0  0  0  2  0  0  0  0  0  0
  188.5390  178.3130  142.7110 C   0  0  0  0  0  2  0  0  0  0  0  0
  189.5210  177.1160  140.7330 C   0  0  0  0  0  0  0  0  0  0  0  0
  188.3810  177.1050  143.6320 C   0  0  2  0  0  3  0  0  0  0  0  0
  188.5710  177.8920  141.2760 C   0  0  0  0  0  3  0  0  0  0  0  0
  190.6770  176.5820  141.5400 C   0  0  1  0  0  3  0  0  0  0  0  0
  191.5530  177.6510  141.9980 N   0  0  0  0  0  1  0  0  0  0  0  0
  188.6130  177.4120  146.0120 C   0  0  0  0  0  1  0  0  0  0  0  0
  187.6960  177.4650  144.8770 N   0  0  0  0  0  2  0  0  0  0  0  0
  191.4240  176.9030  137.7790 C   0  0  0  0  0  2  0  0  0  0  0  0
  192.7970  177.0600  138.4030 C   0  0  0  0  0  1  0  0  0  0  0  0
  1 31  1  6  0  0  0
  1 16  1  0  0  0  0
  2  4  1  0  0  0  0
  2  6  1  0  0  0  0
  2  3  1  0  0  0  0
  3  1  1  0  0  0  0
  5 20  1  0  0  0  0
  5 19  1  0  0  0  0
  6 14  1  0  0  0  0
  7  8  1  0  0  0  0
  9  4  1  0  0  0  0
 10 13  1  0  0  0  0
 10  3  1  0  0  0  0
 11  8  1  0  0  0  0
 11  4  1  0  0  0  0
 12 10  1  0  0  0  0
 14 16  2  0  0  0  0
 15 18  1  0  0  0  0
 16 24  1  0  0  0  0
 17  8  1  0  0  0  0
 17  6  1  0  0  0  0
 18 12  1  0  0  0  0
 18  9  1  0  0  0  0
 19  7  1  0  0  0  0
 20 17  1  0  0  0  0
 21 22  1  0  0  0  0
 23 25  1  0  0  0  0
 24 26  2  0  0  0  0
 24 27  1  0  0  0  0
 25 22  1  0  0  0  0
 25 30  1  0  0  0  0
 26 23  1  0  0  0  0
 27 28  1  0  0  0  0
 27 21  1  0  0  0  0
 30 29  1  0  0  0  0
 31 32  1  0  0  0  0
M  END
>  <MODEL>
4

>  <REMARK>
 VINA RESULT:      -6.4      5.308      8.377
  Name = 
  3 active torsions:
  status: ('A' for Active; 'I' for Inactive)
    1  A    between atoms: C_1  and  C_4
    2  A    between atoms: C_16  and  C_27
    3  A    between atoms: C_19  and  N_26
                            x       y       z     vdW  Elec       q    Type
                         _______ _______ _______ _____ _____    ______ ____

>  <TORSDO>
F 3

$$$$
=
 OpenBabel11052414283D

 32 36  0  0  1  0  0  0  0  0999 V2000
  181.5420  178.3970  136.9330 C   0  0  2  0  0  3  0  0  0  0  0  0
  183.6080  177.8000  138.3960 C   0  0  1  0  0  3  0  0  0  0  0  0
  182.9680  177.8290  136.9980 C   0  0  1  0  0  3  0  0  0  0  0  0
  185.0440  178.3150  138.3080 C   0  0  2  0  0  3  0  0  0  0  0  0
  184.5620  178.1220  142.8630 C   0  0  0  0  0  2  0  0  0  0  0  0
  182.8060  178.5980  139.4440 C   0  0  2  0  0  3  0  0  0  0  0  0
  185.9650  179.3770  141.6270 C   0  0  0  0  0  2  0  0  0  0  0  0
  185.1300  179.2450  140.3410 C   0  0  1  0  0  3  0  0  0  0  0  0
  185.8780  177.6460  137.2050 C   0  0  0  0  0  2  0  0  0  0  0  0
  183.3640  176.6660  136.0590 C   0  0  1  0  0  3  0  0  0  0  0  0
  185.6620  178.2020  139.5600 O   0  0  0  0  0  0  0  0  0  0  0  0
  184.2790  175.6350  136.7400 C   0  0  0  0  0  2  0  0  0  0  0  0
  182.2390  176.0130  135.5520 O   0  0  0  0  0  1  0  0  0  0  0  0
  182.1520  179.7650  138.8530 N   0  0  0  0  0  0  0  0  0  0  0  0
  186.5930  175.6410  136.1230 O   0  0  0  0  0  1  0  0  0  0  0  0
  181.5260  179.6970  137.7120 C   0  0  0  0  0  0  0  0  0  0  0  0
  183.6370  178.9870  140.6740 C   0  0  2  0  0  3  0  0  0  0  0  0
  185.7020  176.1250  137.0800 C   0  0  1  0  0  3  0  0  0  0  0  0
  185.1580  179.3940  142.7820 O   0  0  0  0  0  0  0  0  0  0  0  0
  183.4720  177.9570  141.7940 C   0  0  0  0  0  2  0  0  0  0  0  0
  181.0680  181.9330  134.8580 C   0  0  0  0  0  2  0  0  0  0  0  0
  180.4950  183.3360  135.0370 C   0  0  0  0  0  2  0  0  0  0  0  0
  180.0320  183.2450  137.5240 C   0  0  0  0  0  2  0  0  0  0  0  0
  180.8590  180.9000  137.1670 C   0  0  0  0  0  0  0  0  0  0  0  0
  180.8280  183.9220  136.4090 C   0  0  2  0  0  3  0  0  0  0  0  0
  180.6900  181.9720  137.9550 C   0  0  0  0  0  3  0  0  0  0  0  0
  180.3890  180.8760  135.7340 C   0  0  1  0  0  3  0  0  0  0  0  0
  178.9370  180.9430  135.6440 N   0  0  0  0  0  1  0  0  0  0  0  0
  179.3440  185.7350  136.9780 C   0  0  0  0  0  1  0  0  0  0  0  0
  180.6500  185.3760  136.4290 N   0  0  0  0  0  2  0  0  0  0  0  0
  180.5290  177.4120  137.5140 C   0  0  0  0  0  2  0  0  0  0  0  0
  179.2230  177.4710  136.7450 C   0  0  0  0  0  1  0  0  0  0  0  0
  1  3  1  0  0  0  0
  1 31  1  1  0  0  0
  1 16  1  0  0  0  0
  2  6  1  0  0  0  0
  3  2  1  0  0  0  0
  4  2  1  0  0  0  0
  4 11  1  0  0  0  0
  6 17  1  0  0  0  0
  7 19  1  0  0  0  0
  8 17  1  0  0  0  0
  8  7  1  0  0  0  0
  9  4  1  0  0  0  0
 10 12  1  0  0  0  0
 10  3  1  0  0  0  0
 11  8  1  0  0  0  0
 12 18  1  0  0  0  0
 13 10  1  0  0  0  0
 14  6  1  0  0  0  0
 15 18  1  0  0  0  0
 16 14  2  0  0  0  0
 17 20  1  0  0  0  0
 18  9  1  0  0  0  0
 19  5  1  0  0  0  0
 20  5  1  0  0  0  0
 21 22  1  0  0  0  0
 21 27  1  0  0  0  0
 22 25  1  0  0  0  0
 23 26  1  0  0  0  0
 24 16  1  0  0  0  0
 24 26  2  0  0  0  0
 25 30  1  0  0  0  0
 25 23  1  0  0  0  0
 27 24  1  0  0  0  0
 28 27  1  0  0  0  0
 30 29  1  0  0  0  0
 32 31  1  0  0  0  0
M  END
>  <MODEL>
5

>  <REMARK>
 VINA RESULT:      -6.1      3.391      7.751
  Name = 
  3 active torsions:
  status: ('A' for Active; 'I' for Inactive)
    1  A    between atoms: C_1  and  C_4
    2  A    between atoms: C_16  and  C_27
    3  A    between atoms: C_19  and  N_26
                            x       y       z     vdW  Elec       q    Type
                         _______ _______ _______ _____ _____    ______ ____

>  <TORSDO>
F 3

$$$$
=
 OpenBabel11052414283D

 32 36  0  0  1  0  0  0  0  0999 V2000
  184.0970  176.8030  137.1870 C   0  0  2  0  0  3  0  0  0  0  0  0
  181.8420  177.2960  138.3870 C   0  0  1  0  0  3  0  0  0  0  0  0
  182.8750  176.2490  137.9350 C   0  0  1  0  0  3  0  0  0  0  0  0
  181.4230  177.0060  139.8280 C   0  0  2  0  0  3  0  0  0  0  0  0
  179.4430  181.1000  139.2460 C   0  0  0  0  0  2  0  0  0  0  0  0
  182.3510  178.7450  138.2480 C   0  0  2  0  0  3  0  0  0  0  0  0
  180.0810  180.0790  141.1490 C   0  0  0  0  0  2  0  0  0  0  0  0
  181.0620  179.1270  140.4420 C   0  0  1  0  0  3  0  0  0  0  0  0
  181.0100  175.5470  140.0740 C   0  0  0  0  0  2  0  0  0  0  0  0
  182.2960  174.8750  137.5260 C   0  0  1  0  0  3  0  0  0  0  0  0
  180.4150  177.8990  140.2130 O   0  0  0  0  0  0  0  0  0  0  0  0
  180.7600  174.8370  137.5750 C   0  0  0  0  0  2  0  0  0  0  0  0
  182.7230  174.4990  136.2520 O   0  0  0  0  0  1  0  0  0  0  0  0
  183.7900  178.8400  138.4880 N   0  0  0  0  0  0  0  0  0  0  0  0
  179.7440  173.6430  139.3850 O   0  0  0  0  0  1  0  0  0  0  0  0
  184.6290  177.9800  137.9800 C   0  0  0  0  0  0  0  0  0  0  0  0
  181.5740  179.7450  139.1150 C   0  0  2  0  0  3  0  0  0  0  0  0
  180.1310  174.9200  138.9810 C   0  0  1  0  0  3  0  0  0  0  0  0
  180.0100  181.3330  140.5130 O   0  0  0  0  0  0  0  0  0  0  0  0
  180.4430  180.3980  138.3170 C   0  0  0  0  0  2  0  0  0  0  0  0
  188.0300  177.0470  137.0240 C   0  0  0  0  0  2  0  0  0  0  0  0
  189.2040  177.2540  137.9780 C   0  0  0  0  0  2  0  0  0  0  0  0
  187.9610  178.3740  139.8770 C   0  0  0  0  0  2  0  0  0  0  0  0
  186.0790  178.1340  138.2310 C   0  0  0  0  0  0  0  0  0  0  0  0
  188.7780  177.1580  139.4430 C   0  0  2  0  0  3  0  0  0  0  0  0
  186.5230  178.2170  139.4940 C   0  0  0  0  0  3  0  0  0  0  0  0
  187.0120  178.1910  137.0470 C   0  0  1  0  0  3  0  0  0  0  0  0
  187.6520  179.4930  136.9310 N   0  0  0  0  0  1  0  0  0  0  0  0
  191.1740  176.9150  139.5580 C   0  0  0  0  0  1  0  0  0  0  0  0
  189.9300  176.9430  140.3230 N   0  0  0  0  0  2  0  0  0  0  0  0
  183.7280  177.2360  135.7700 C   0  0  0  0  0  2  0  0  0  0  0  0
  184.7570  176.7390  134.7730 C   0  0  0  0  0  1  0  0  0  0  0  0
  1 31  1  6  0  0  0
  1  3  1  0  0  0  0
  1 16  1  0  0  0  0
  2  4  1  0  0  0  0
  3  2  1  0  0  0  0
  4  9  1  0  0  0  0
  4 11  1  0  0  0  0
  5 19  1  0  0  0  0
  6  2  1  0  0  0  0
  6 14  1  0  0  0  0
  6 17  1  0  0  0  0
  8  7  1  0  0  0  0
 10 12  1  0  0  0  0
 10  3  1  0  0  0  0
 11  8  1  0  0  0  0
 12 18  1  0  0  0  0
 13 10  1  0  0  0  0
 16 24  1  0  0  0  0
 16 14  2  0  0  0  0
 17  8  1  0  0  0  0
 18 15  1  0  0  0  0
 18  9  1  0  0  0  0
 19  7  1  0  0  0  0
 20 17  1  0  0  0  0
 20  5  1  0  0  0  0
 21 27  1  0  0  0  0
 21 22  1  0  0  0  0
 22 25  1  0  0  0  0
 24 26  2  0  0  0  0
 25 23  1  0  0  0  0
 25 30  1  0  0  0  0
 26 23  1  0  0  0  0
 27 24  1  0  0  0  0
 28 27  1  0  0  0  0
 29 30  1  0  0  0  0
 32 31  1  0  0  0  0
M  END
>  <MODEL>
6

>  <REMARK>
 VINA RESULT:      -5.9      3.308      6.140
  Name = 
  3 active torsions:
  status: ('A' for Active; 'I' for Inactive)
    1  A    between atoms: C_1  and  C_4
    2  A    between atoms: C_16  and  C_27
    3  A    between atoms: C_19  and  N_26
                            x       y       z     vdW  Elec       q    Type
                         _______ _______ _______ _____ _____    ______ ____

>  <TORSDO>
F 3

$$$$
=
 OpenBabel11052414283D

 32 36  0  0  1  0  0  0  0  0999 V2000
  186.4680  176.6550  136.5710 C   0  0  2  0  0  3  0  0  0  0  0  0
  183.9430  176.0970  136.8490 C   0  0  1  0  0  3  0  0  0  0  0  0
  185.3690  175.5820  136.5920 C   0  0  1  0  0  3  0  0  0  0  0  0
  183.2530  175.1920  137.8710 C   0  0  2  0  0  3  0  0  0  0  0  0
  180.1860  178.5920  137.6410 C   0  0  0  0  0  2  0  0  0  0  0  0
  183.9060  177.5680  137.3120 C   0  0  2  0  0  3  0  0  0  0  0  0
  180.5600  177.1160  139.2990 C   0  0  0  0  0  2  0  0  0  0  0  0
  181.9810  176.7690  138.8220 C   0  0  1  0  0  3  0  0  0  0  0  0
  183.3450  173.6950  137.5380 C   0  0  0  0  0  2  0  0  0  0  0  0
  185.4770  174.3670  135.6410 C   0  0  1  0  0  3  0  0  0  0  0  0
  181.9240  175.6010  138.0390 O   0  0  0  0  0  0  0  0  0  0  0  0
  184.1190  173.9440  135.0580 C   0  0  0  0  0  2  0  0  0  0  0  0
  186.3670  174.6160  134.5940 O   0  0  0  0  0  1  0  0  0  0  0  0
  185.0730  177.9100  138.1240 N   0  0  0  0  0  0  0  0  0  0  0  0
  183.1220  171.9470  135.9270 O   0  0  0  0  0  1  0  0  0  0  0  0
  186.2760  177.5360  137.7880 C   0  0  0  0  0  0  0  0  0  0  0  0
  182.6000  177.9460  138.0240 C   0  0  2  0  0  3  0  0  0  0  0  0
  183.1190  173.3350  136.0630 C   0  0  1  0  0  3  0  0  0  0  0  0
  180.2290  178.4600  139.0410 O   0  0  0  0  0  0  0  0  0  0  0  0
  181.5990  178.5580  137.0420 C   0  0  0  0  0  2  0  0  0  0  0  0
  189.8250  177.0980  138.5420 C   0  0  0  0  0  2  0  0  0  0  0  0
  190.4090  177.5390  139.8810 C   0  0  0  0  0  2  0  0  0  0  0  0
  188.3220  178.5530  140.8930 C   0  0  0  0  0  2  0  0  0  0  0  0
  187.4280  177.9290  138.6300 C   0  0  0  0  0  0  0  0  0  0  0  0
  189.3820  177.4590  141.0100 C   0  0  2  0  0  3  0  0  0  0  0  0
  187.2420  178.1510  139.9400 C   0  0  0  0  0  3  0  0  0  0  0  0
  188.7820  178.0680  137.9790 C   0  0  1  0  0  3  0  0  0  0  0  0
  189.2490  179.4460  138.0000 N   0  0  0  0  0  1  0  0  0  0  0  0
  191.4790  177.5880  142.1930 C   0  0  0  0  0  1  0  0  0  0  0  0
  190.0290  177.4760  142.3250 N   0  0  0  0  0  2  0  0  0  0  0  0
  186.4020  177.4870  135.2920 C   0  0  0  0  0  2  0  0  0  0  0  0
  187.7850  177.6640  134.6960 C   0  0  0  0  0  1  0  0  0  0  0  0
  1 31  1  6  0  0  0
  1  3  1  0  0  0  0
  1 16  1  0  0  0  0
  2  6  1  0  0  0  0
  2  4  1  0  0  0  0
  3  2  1  0  0  0  0
  4 11  1  0  0  0  0
  5 19  1  0  0  0  0
  6 17  1  0  0  0  0
  6 14  1  0  0  0  0
  8  7  1  0  0  0  0
  9  4  1  0  0  0  0
 10  3  1  0  0  0  0
 11  8  1  0  0  0  0
 12 10  1  0  0  0  0
 12 18  1  0  0  0  0
 13 10  1  0  0  0  0
 15 18  1  0  0  0  0
 16 14  2  0  0  0  0
 16 24  1  0  0  0  0
 17  8  1  0  0  0  0
 18  9  1  0  0  0  0
 19  7  1  0  0  0  0
 20  5  1  0  0  0  0
 20 17  1  0  0  0  0
 21 22  1  0  0  0  0
 22 25  1  0  0  0  0
 23 25  1  0  0  0  0
 24 26  2  0  0  0  0
 25 30  1  0  0  0  0
 26 23  1  0  0  0  0
 27 28  1  0  0  0  0
 27 21  1  0  0  0  0
 27 24  1  0  0  0  0
 29 30  1  0  0  0  0
 32 31  1  0  0  0  0
M  END
>  <MODEL>
7

>  <REMARK>
 VINA RESULT:      -5.8      3.525      6.597
  Name = 
  3 active torsions:
  status: ('A' for Active; 'I' for Inactive)
    1  A    between atoms: C_1  and  C_4
    2  A    between atoms: C_16  and  C_27
    3  A    between atoms: C_19  and  N_26
                            x       y       z     vdW  Elec       q    Type
                         _______ _______ _______ _____ _____    ______ ____

>  <TORSDO>
F 3

$$$$
=
 OpenBabel11052414283D

 32 36  0  0  1  0  0  0  0  0999 V2000
  188.1890  177.7950  139.1320 C   0  0  2  0  0  3  0  0  0  0  0  0
  188.2710  178.1000  141.7140 C   0  0  1  0  0  3  0  0  0  0  0  0
  187.4160  177.8640  140.4570 C   0  0  1  0  0  3  0  0  0  0  0  0
  187.8200  177.1470  142.8210 C   0  0  2  0  0  3  0  0  0  0  0  0
  191.6280  178.8290  144.7410 C   0  0  0  0  0  2  0  0  0  0  0  0
  189.7840  177.9520  141.4510 C   0  0  2  0  0  3  0  0  0  0  0  0
  190.5690  176.8820  145.1370 C   0  0  0  0  0  2  0  0  0  0  0  0
  189.8180  176.8880  143.7940 C   0  0  1  0  0  3  0  0  0  0  0  0
  186.3040  177.1520  143.0660 C   0  0  0  0  0  2  0  0  0  0  0  0
  186.0070  178.5040  140.4810 C   0  0  1  0  0  3  0  0  0  0  0  0
  188.5320  177.4210  143.9960 O   0  0  0  0  0  0  0  0  0  0  0  0
  185.7520  179.3360  141.7480 C   0  0  0  0  0  2  0  0  0  0  0  0
  185.7910  179.3020  139.3570 O   0  0  0  0  0  1  0  0  0  0  0  0
  190.0610  176.9390  140.4340 N   0  0  0  0  0  0  0  0  0  0  0  0
  184.2970  178.4020  143.4050 O   0  0  0  0  0  1  0  0  0  0  0  0
  189.3670  176.8630  139.3330 C   0  0  0  0  0  0  0  0  0  0  0  0
  190.5980  177.7000  142.7270 C   0  0  2  0  0  3  0  0  0  0  0  0
  185.6420  178.5380  143.0630 C   0  0  1  0  0  3  0  0  0  0  0  0
  191.8450  177.4700  145.0320 O   0  0  0  0  0  0  0  0  0  0  0  0
  191.1440  179.0120  143.2960 C   0  0  0  0  0  2  0  0  0  0  0  0
  190.9760  176.0980  136.1430 C   0  0  0  0  0  2  0  0  0  0  0  0
  190.6360  174.8250  135.3710 C   0  0  0  0  0  2  0  0  0  0  0  0
  189.0210  173.7950  137.0260 C   0  0  0  0  0  2  0  0  0  0  0  0
  189.7020  175.8350  138.3230 C   0  0  0  0  0  0  0  0  0  0  0  0
  189.1990  174.3680  135.6210 C   0  0  2  0  0  3  0  0  0  0  0  0
  188.8020  174.8860  138.0260 C   0  0  0  0  0  3  0  0  0  0  0  0
  191.0550  175.8930  137.6580 C   0  0  1  0  0  3  0  0  0  0  0  0
  191.8770  174.7450  138.0120 N   0  0  0  0  0  1  0  0  0  0  0  0
  187.4720  172.8200  134.9620 C   0  0  0  0  0  1  0  0  0  0  0  0
  188.7510  173.4230  134.5950 N   0  0  0  0  0  2  0  0  0  0  0  0
  188.6690  179.1790  138.7000 C   0  0  0  0  0  2  0  0  0  0  0  0
  189.0450  179.1810  137.2310 C   0  0  0  0  0  1  0  0  0  0  0  0
  1 31  1  1  0  0  0
  1 16  1  0  0  0  0
  1  3  1  0  0  0  0
  2  4  1  0  0  0  0
  3 10  1  0  0  0  0
  3  2  1  0  0  0  0
  4  9  1  0  0  0  0
  4 11  1  0  0  0  0
  5 19  1  0  0  0  0
  6  2  1  0  0  0  0
  6 17  1  0  0  0  0
  8 11  1  0  0  0  0
  8  7  1  0  0  0  0
 10 12  1  0  0  0  0
 12 18  1  0  0  0  0
 13 10  1  0  0  0  0
 14  6  1  0  0  0  0
 16 14  2  0  0  0  0
 17 20  1  0  0  0  0
 17  8  1  0  0  0  0
 18  9  1  0  0  0  0
 18 15  1  0  0  0  0
 19  7  1  0  0  0  0
 20  5  1  0  0  0  0
 21 27  1  0  0  0  0
 22 25  1  0  0  0  0
 22 21  1  0  0  0  0
 23 26  1  0  0  0  0
 24 16  1  0  0  0  0
 25 23  1  0  0  0  0
 26 24  2  0  0  0  0
 27 28  1  0  0  0  0
 27 24  1  0  0  0  0
 30 29  1  0  0  0  0
 30 25  1  0  0  0  0
 32 31  1  0  0  0  0
M  END
>  <MODEL>
8

>  <REMARK>
 VINA RESULT:      -5.7      5.865      9.444
  Name = 
  3 active torsions:
  status: ('A' for Active; 'I' for Inactive)
    1  A    between atoms: C_1  and  C_4
    2  A    between atoms: C_16  and  C_27
    3  A    between atoms: C_19  and  N_26
                            x       y       z     vdW  Elec       q    Type
                         _______ _______ _______ _____ _____    ______ ____

>  <TORSDO>
F 3

$$$$
=
 OpenBabel11052414283D

 32 36  0  0  1  0  0  0  0  0999 V2000
  187.1510  177.6440  137.8620 C   0  0  2  0  0  3  0  0  0  0  0  0
  184.5520  177.5320  137.8180 C   0  0  1  0  0  3  0  0  0  0  0  0
  185.8910  176.8450  137.4970 C   0  0  1  0  0  3  0  0  0  0  0  0
  183.6100  176.5250  138.4780 C   0  0  2  0  0  3  0  0  0  0  0  0
  181.2070  180.3770  139.1170 C   0  0  0  0  0  2  0  0  0  0  0  0
  184.7140  178.7870  138.7010 C   0  0  2  0  0  3  0  0  0  0  0  0
  181.1400  178.4440  140.2690 C   0  0  0  0  0  2  0  0  0  0  0  0
  182.5260  177.9790  139.7890 C   0  0  1  0  0  3  0  0  0  0  0  0
  183.4840  175.1980  137.7140 C   0  0  0  0  0  2  0  0  0  0  0  0
  185.8970  175.9580  136.2300 C   0  0  1  0  0  3  0  0  0  0  0  0
  182.3590  177.1190  138.6870 O   0  0  0  0  0  0  0  0  0  0  0  0
  184.5600  175.9920  135.4720 C   0  0  0  0  0  2  0  0  0  0  0  0
  186.9260  176.3190  135.3590 O   0  0  0  0  0  1  0  0  0  0  0  0
  185.8240  178.6480  139.6420 N   0  0  0  0  0  0  0  0  0  0  0  0
  183.1490  174.0640  135.6390 O   0  0  0  0  0  1  0  0  0  0  0  0
  186.9770  178.1590  139.2770 C   0  0  0  0  0  0  0  0  0  0  0  0
  183.4200  179.1920  139.4200 C   0  0  2  0  0  3  0  0  0  0  0  0
  183.3660  175.3280  136.1880 C   0  0  1  0  0  3  0  0  0  0  0  0
  181.0720  179.8430  140.4110 O   0  0  0  0  0  0  0  0  0  0  0  0
  182.6520  180.2420  138.6150 C   0  0  0  0  0  2  0  0  0  0  0  0
  189.5870  176.0880  140.7760 C   0  0  0  0  0  2  0  0  0  0  0  0
  190.2090  176.4510  142.1220 C   0  0  0  0  0  2  0  0  0  0  0  0
  188.9830  178.6260  142.5350 C   0  0  0  0  0  2  0  0  0  0  0  0
  188.0780  178.0620  140.2600 C   0  0  0  0  0  0  0  0  0  0  0  0
  189.2290  177.2000  143.0240 C   0  0  2  0  0  3  0  0  0  0  0  0
  187.9440  178.6510  141.4580 C   0  0  0  0  0  3  0  0  0  0  0  0
  189.3210  177.2990  139.8770 C   0  0  1  0  0  3  0  0  0  0  0  0
  190.4800  178.1740  139.7810 N   0  0  0  0  0  1  0  0  0  0  0  0
  188.5940  177.6260  145.3110 C   0  0  0  0  0  1  0  0  0  0  0  0
  189.6640  177.1790  144.4230 N   0  0  0  0  0  2  0  0  0  0  0  0
  187.3690  178.8050  136.8930 C   0  0  0  0  0  2  0  0  0  0  0  0
  188.8480  179.1010  136.7370 C   0  0  0  0  0  1  0  0  0  0  0  0
  1 31  1  6  0  0  0
  1 16  1  0  0  0  0
  2  4  1  0  0  0  0
  2  6  1  0  0  0  0
  3  2  1  0  0  0  0
  3  1  1  0  0  0  0
  4 11  1  0  0  0  0
  5 19  1  0  0  0  0
  6 17  1  0  0  0  0
  6 14  1  0  0  0  0
  7 19  1  0  0  0  0
  8  7  1  0  0  0  0
  9  4  1  0  0  0  0
 10  3  1  0  0  0  0
 11  8  1  0  0  0  0
 12 18  1  0  0  0  0
 12 10  1  0  0  0  0
 13 10  1  0  0  0  0
 15 18  1  0  0  0  0
 16 14  2  0  0  0  0
 16 24  1  0  0  0  0
 17  8  1  0  0  0  0
 18  9  1  0  0  0  0
 20  5  1  0  0  0  0
 20 17  1  0  0  0  0
 21 22  1  0  0  0  0
 22 25  1  0  0  0  0
 23 25  1  0  0  0  0
 24 26  2  0  0  0  0
 25 30  1  0  0  0  0
 26 23  1  0  0  0  0
 27 24  1  0  0  0  0
 27 21  1  0  0  0  0
 28 27  1  0  0  0  0
 30 29  1  0  0  0  0
 32 31  1  0  0  0  0
M  END
>  <MODEL>
9

>  <REMARK>
 VINA RESULT:      -5.7      3.185      5.971
  Name = 
  3 active torsions:
  status: ('A' for Active; 'I' for Inactive)
    1  A    between atoms: C_1  and  C_4
    2  A    between atoms: C_16  and  C_27
    3  A    between atoms: C_19  and  N_26
                            x       y       z     vdW  Elec       q    Type
                         _______ _______ _______ _____ _____    ______ ____

>  <TORSDO>
F 3

$$$$
