=
 OpenBabel11052416423D

 43 48  0  0  1  0  0  0  0  0999 V2000
  194.4180  174.2740  136.2040 C   0  0  0  0  0  2  0  0  0  0  0  0
  191.1700  176.0760  139.0540 C   0  0  1  0  0  3  0  0  0  0  0  0
  189.7980  177.0380  137.1400 C   0  0  0  0  0  2  0  0  0  0  0  0
  192.5960  176.0100  136.4550 C   0  0  2  0  0  3  0  0  0  0  0  0
  192.2530  172.8850  136.0230 C   0  0  0  0  0  2  0  0  0  0  0  0
  193.7790  172.9090  135.9420 C   0  0  0  0  0  2  0  0  0  0  0  0
  191.3650  175.1110  136.7230 C   0  0  1  0  0  3  0  0  0  0  0  0
  193.6650  175.4180  135.5320 C   0  0  0  0  0  2  0  0  0  0  0  0
  191.7200  173.6990  137.1910 C   0  0  0  0  0  2  0  0  0  0  0  0
  188.8990  177.7280  138.1620 C   0  0  1  0  0  3  0  0  0  0  0  0
  190.4260  175.7740  137.7370 C   0  0  1  0  0  3  0  0  0  0  0  0
  192.5080  176.7520  138.8390 C   0  0  0  0  0  3  0  0  0  0  0  0
  190.2610  176.8180  140.0470 C   0  0  2  0  0  3  0  0  0  0  0  0
  189.6850  178.0890  139.4230 C   0  0  0  0  0  2  0  0  0  0  0  0
  193.1770  176.6730  137.6800 C   0  0  0  0  0  3  0  0  0  0  0  0
  188.2470  178.9280  137.5450 C   0  0  0  0  0  0  0  0  0  0  0  0
  186.8480  178.9210  137.2450 N   0  0  0  0  0  2  0  0  0  0  0  0
  188.9390  179.9330  137.2310 O   0  0  0  0  0  0  0  0  0  0  0  0
  186.2140  176.6810  136.5350 C   0  0  0  0  0  2  0  0  0  0  0  0
  185.9600  175.3830  137.1460 N   0  0  0  0  0  2  0  0  0  0  0  0
  183.7520  175.3440  138.1770 C   0  0  0  0  0  2  0  0  0  0  0  0
  185.9870  177.7890  137.5540 C   0  0  2  0  0  3  0  0  0  0  0  0
  184.5660  175.0230  136.9270 C   0  0  2  0  0  3  0  0  0  0  0  0
  184.6510  178.1980  137.5170 O   0  0  0  0  0  0  0  0  0  0  0  0
  184.0220  177.5250  138.5710 C   0  0  2  0  0  3  0  0  0  0  0  0
  183.1220  176.5880  138.0520 O   0  0  0  0  0  0  0  0  0  0  0  0
  184.4820  173.5350  136.6580 C   0  0  0  0  0  1  0  0  0  0  0  0
  183.2970  178.5170  139.4820 C   0  0  0  0  0  2  0  0  0  0  0  0
  183.9670  178.6670  140.8090 C   0  0  0  0  0  0  0  0  0  0  0  0
  185.9780  179.0330  142.1120 C   0  0  0  0  0  3  0  0  0  0  0  0
  183.8640  178.6470  143.2310 C   0  0  0  0  0  3  0  0  0  0  0  0
  185.2380  178.8980  143.2910 C   0  0  0  0  0  3  0  0  0  0  0  0
  183.2290  178.5340  141.9920 C   0  0  0  0  0  3  0  0  0  0  0  0
  185.3440  178.9140  140.8720 C   0  0  0  0  0  3  0  0  0  0  0  0
  190.9830  177.1200  141.3560 C   0  0  0  0  0  2  0  0  0  0  0  0
  189.3940  178.0900  144.6530 C   0  0  0  0  0  3  0  0  0  0  0  0
  188.2540  177.2800  144.6680 C   0  0  0  0  0  0  0  0  0  0  0  0
  188.8840  176.3780  142.5040 C   0  0  0  0  0  3  0  0  0  0  0  0
  190.2780  178.0460  143.5710 C   0  0  0  0  0  3  0  0  0  0  0  0
  190.0250  177.1880  142.4960 C   0  0  0  0  0  0  0  0  0  0  0  0
  188.0000  176.4240  143.5840 C   0  0  0  0  0  3  0  0  0  0  0  0
  187.8020  177.7990  147.0440 C   0  0  0  0  0  1  0  0  0  0  0  0
  187.3850  177.3530  145.7610 O   0  0  0  0  0  0  0  0  0  0  0  0
  2 12  1  6  0  0  0
  2 13  1  0  0  0  0
  3 10  1  0  0  0  0
  4  8  1  1  0  0  0
  4  7  1  0  0  0  0
  4 15  1  0  0  0  0
  5  9  1  0  0  0  0
  6  5  1  0  0  0  0
  6  1  1  0  0  0  0
  7  9  1  1  0  0  0
  7 11  1  0  0  0  0
  8  1  1  0  0  0  0
 10 16  1  6  0  0  0
 10 14  1  0  0  0  0
 11  3  1  6  0  0  0
 11  2  1  0  0  0  0
 13 35  1  1  0  0  0
 14 13  1  0  0  0  0
 15 12  2  0  0  0  0
 17 16  1  0  0  0  0
 18 16  2  0  0  0  0
 19 20  1  0  0  0  0
 19 22  1  0  0  0  0
 22 17  1  6  0  0  0
 23 27  1  1  0  0  0
 23 20  1  0  0  0  0
 23 21  1  0  0  0  0
 24 22  1  0  0  0  0
 24 25  1  0  0  0  0
 25 28  1  1  0  0  0
 26 21  1  0  0  0  0
 26 25  1  0  0  0  0
 28 29  1  0  0  0  0
 29 34  2  0  0  0  0
 29 33  1  0  0  0  0
 30 32  2  0  0  0  0
 31 32  1  0  0  0  0
 33 31  2  0  0  0  0
 34 30  1  0  0  0  0
 35 40  1  0  0  0  0
 36 37  1  0  0  0  0
 37 43  1  0  0  0  0
 38 41  1  0  0  0  0
 39 36  2  0  0  0  0
 40 38  2  0  0  0  0
 40 39  1  0  0  0  0
 41 37  2  0  0  0  0
 43 42  1  0  0  0  0
M  END
>  <MODEL>
1

>  <REMARK>
 VINA RESULT:      -9.3      0.000      0.000
  Name = 
  7 active torsions:
  status: ('A' for Active; 'I' for Inactive)
    1  A    between atoms: C_1  and  C_34
    2  A    between atoms: C_1  and  C_35
    3  A    between atoms: C_2  and  C_27
    4  A    between atoms: N_6  and  C_12
    5  A    between atoms: C_11  and  C_14
    6  A    between atoms: C_14  and  C_22
    7  A    between atoms: C_19  and  O_37
                            x       y       z     vdW  Elec       q    Type
                         _______ _______ _______ _____ _____    ______ ____

>  <TORSDO>
F 7

$$$$
=
 OpenBabel11052416423D

 43 48  0  0  1  0  0  0  0  0999 V2000
  184.5180  173.0930  135.0450 C   0  0  0  0  0  2  0  0  0  0  0  0
  188.6620  174.7070  136.5090 C   0  0  1  0  0  3  0  0  0  0  0  0
  187.6370  176.6920  137.7240 C   0  0  0  0  0  2  0  0  0  0  0  0
  185.8000  175.1170  135.8540 C   0  0  2  0  0  3  0  0  0  0  0  0
  184.7590  172.6660  137.5770 C   0  0  0  0  0  2  0  0  0  0  0  0
  184.1650  172.2090  136.2440 C   0  0  0  0  0  2  0  0  0  0  0  0
  186.2460  174.6450  137.2580 C   0  0  1  0  0  3  0  0  0  0  0  0
  184.4490  174.5820  135.3680 C   0  0  0  0  0  2  0  0  0  0  0  0
  186.2010  173.1280  137.4430 C   0  0  0  0  0  2  0  0  0  0  0  0
  189.0420  177.2210  137.9980 C   0  0  1  0  0  3  0  0  0  0  0  0
  187.6510  175.1660  137.5790 C   0  0  1  0  0  3  0  0  0  0  0  0
  188.1720  174.9290  135.0940 C   0  0  0  0  0  3  0  0  0  0  0  0
  190.0570  175.2940  136.7750 C   0  0  2  0  0  3  0  0  0  0  0  0
  190.0030  176.8180  136.8780 C   0  0  0  0  0  2  0  0  0  0  0  0
  186.8720  175.0590  134.7930 C   0  0  0  0  0  3  0  0  0  0  0  0
  189.0020  178.7060  138.1950 C   0  0  0  0  0  0  0  0  0  0  0  0
  189.0140  179.2640  139.5120 N   0  0  0  0  0  2  0  0  0  0  0  0
  188.8990  179.4740  137.2020 O   0  0  0  0  0  0  0  0  0  0  0  0
  190.3680  177.5910  140.6500 C   0  0  0  0  0  2  0  0  0  0  0  0
  190.8530  177.3270  141.9980 N   0  0  0  0  0  2  0  0  0  0  0  0
  189.0800  176.3750  143.3720 C   0  0  0  0  0  2  0  0  0  0  0  0
  189.1060  178.4420  140.7090 C   0  0  2  0  0  3  0  0  0  0  0  0
  190.2740  176.0770  142.4720 C   0  0  2  0  0  3  0  0  0  0  0  0
  187.9820  177.6150  140.7940 O   0  0  0  0  0  0  0  0  0  0  0  0
  187.6460  177.5750  142.1530 C   0  0  2  0  0  3  0  0  0  0  0  0
  187.8830  176.2900  142.6520 O   0  0  0  0  0  0  0  0  0  0  0  0
  191.3180  175.3290  143.2750 C   0  0  0  0  0  1  0  0  0  0  0  0
  186.1800  177.9660  142.3520 C   0  0  0  0  0  2  0  0  0  0  0  0
  185.8370  178.1770  143.7910 C   0  0  0  0  0  0  0  0  0  0  0  0
  186.4340  178.0100  146.1330 C   0  0  0  0  0  3  0  0  0  0  0  0
  184.2560  178.8620  145.4960 C   0  0  0  0  0  3  0  0  0  0  0  0
  185.1820  178.5230  146.4890 C   0  0  0  0  0  3  0  0  0  0  0  0
  184.5840  178.6920  144.1490 C   0  0  0  0  0  3  0  0  0  0  0  0
  186.7600  177.8340  144.7860 C   0  0  0  0  0  3  0  0  0  0  0  0
  191.0680  174.8440  135.7260 C   0  0  0  0  0  2  0  0  0  0  0  0
  194.7710  175.5520  136.0840 C   0  0  0  0  0  3  0  0  0  0  0  0
  195.0780  174.8680  137.2650 C   0  0  0  0  0  0  0  0  0  0  0  0
  192.7560  174.1840  137.4560 C   0  0  0  0  0  3  0  0  0  0  0  0
  193.4640  175.5530  135.5870 C   0  0  0  0  0  3  0  0  0  0  0  0
  192.4560  174.8670  136.2710 C   0  0  0  0  0  0  0  0  0  0  0  0
  194.0610  174.1860  137.9520 C   0  0  0  0  0  3  0  0  0  0  0  0
  197.5210  174.8800  136.8760 C   0  0  0  0  0  1  0  0  0  0  0  0
  196.3930  174.8930  137.7390 O   0  0  0  0  0  0  0  0  0  0  0  0
  1  8  1  0  0  0  0
  1  6  1  0  0  0  0
  2 12  1  6  0  0  0
  2 13  1  0  0  0  0
  2 11  1  0  0  0  0
  3 10  1  0  0  0  0
  4 15  1  6  0  0  0
  4  7  1  0  0  0  0
  6  5  1  0  0  0  0
  7  9  1  6  0  0  0
  7 11  1  0  0  0  0
  8  4  1  0  0  0  0
  9  5  1  0  0  0  0
 10 16  1  6  0  0  0
 11  3  1  6  0  0  0
 13 35  1  6  0  0  0
 13 14  1  0  0  0  0
 14 10  1  0  0  0  0
 15 12  2  0  0  0  0
 16 17  1  0  0  0  0
 18 16  2  0  0  0  0
 19 22  1  0  0  0  0
 19 20  1  0  0  0  0
 20 23  1  0  0  0  0
 22 17  1  6  0  0  0
 22 24  1  0  0  0  0
 23 27  1  1  0  0  0
 23 21  1  0  0  0  0
 24 25  1  0  0  0  0
 25 28  1  6  0  0  0
 25 26  1  0  0  0  0
 26 21  1  0  0  0  0
 28 29  1  0  0  0  0
 29 33  2  0  0  0  0
 29 34  1  0  0  0  0
 30 32  1  0  0  0  0
 31 32  2  0  0  0  0
 33 31  1  0  0  0  0
 34 30  2  0  0  0  0
 35 40  1  0  0  0  0
 36 37  1  0  0  0  0
 37 43  1  0  0  0  0
 37 41  2  0  0  0  0
 38 41  1  0  0  0  0
 39 36  2  0  0  0  0
 39 40  1  0  0  0  0
 40 38  2  0  0  0  0
 42 43  1  0  0  0  0
M  END
>  <MODEL>
2

>  <REMARK>
 VINA RESULT:      -7.3      2.506      6.735
  Name = 
  7 active torsions:
  status: ('A' for Active; 'I' for Inactive)
    1  A    between atoms: C_1  and  C_34
    2  A    between atoms: C_1  and  C_35
    3  A    between atoms: C_2  and  C_27
    4  A    between atoms: N_6  and  C_12
    5  A    between atoms: C_11  and  C_14
    6  A    between atoms: C_14  and  C_22
    7  A    between atoms: C_19  and  O_37
                            x       y       z     vdW  Elec       q    Type
                         _______ _______ _______ _____ _____    ______ ____

>  <TORSDO>
F 7

$$$$
=
 OpenBabel11052416423D

 43 48  0  0  1  0  0  0  0  0999 V2000
  194.0600  174.2130  135.4660 C   0  0  0  0  0  2  0  0  0  0  0  0
  190.9840  175.9160  138.5580 C   0  0  1  0  0  3  0  0  0  0  0  0
  189.2450  176.4390  136.7770 C   0  0  0  0  0  2  0  0  0  0  0  0
  192.0500  175.7110  135.7980 C   0  0  2  0  0  3  0  0  0  0  0  0
  192.1200  172.5390  135.7560 C   0  0  0  0  0  2  0  0  0  0  0  0
  193.6030  172.7530  135.4480 C   0  0  0  0  0  2  0  0  0  0  0  0
  191.0120  174.6990  136.3390 C   0  0  1  0  0  3  0  0  0  0  0  0
  193.0640  175.1540  134.7950 C   0  0  0  0  0  2  0  0  0  0  0  0
  191.6310  173.4170  136.8970 C   0  0  0  0  0  2  0  0  0  0  0  0
  188.3950  177.1270  137.8410 C   0  0  1  0  0  3  0  0  0  0  0  0
  190.1260  175.3540  137.4050 C   0  0  1  0  0  3  0  0  0  0  0  0
  192.1670  176.7290  138.0760 C   0  0  0  0  0  3  0  0  0  0  0  0
  190.1140  176.6510  139.5900 C   0  0  2  0  0  3  0  0  0  0  0  0
  189.2780  177.7450  138.9270 C   0  0  0  0  0  2  0  0  0  0  0  0
  192.6820  176.5940  136.8460 C   0  0  0  0  0  3  0  0  0  0  0  0
  187.4970  178.1440  137.2040 C   0  0  0  0  0  0  0  0  0  0  0  0
  186.2360  177.7540  136.6530 N   0  0  0  0  0  2  0  0  0  0  0  0
  187.8730  179.3410  137.0950 O   0  0  0  0  0  0  0  0  0  0  0  0
  186.1870  175.6250  135.4740 C   0  0  0  0  0  2  0  0  0  0  0  0
  186.3440  174.2110  135.7870 N   0  0  0  0  0  2  0  0  0  0  0  0
  184.3150  173.3350  136.8140 C   0  0  0  0  0  2  0  0  0  0  0  0
  185.7430  176.3870  136.7150 C   0  0  2  0  0  3  0  0  0  0  0  0
  185.0890  173.5250  135.5140 C   0  0  2  0  0  3  0  0  0  0  0  0
  184.3470  176.3990  136.7880 O   0  0  0  0  0  0  0  0  0  0  0  0
  184.0080  175.3710  137.6770 C   0  0  2  0  0  3  0  0  0  0  0  0
  183.3620  174.3460  136.9760 O   0  0  0  0  0  0  0  0  0  0  0  0
  185.3950  172.1640  134.9230 C   0  0  0  0  0  1  0  0  0  0  0  0
  183.1100  175.9050  138.7940 C   0  0  0  0  0  2  0  0  0  0  0  0
  182.9830  177.3940  138.7600 C   0  0  0  0  0  0  0  0  0  0  0  0
  183.8050  179.5820  139.3980 C   0  0  0  0  0  3  0  0  0  0  0  0
  181.7680  179.3850  138.1010 C   0  0  0  0  0  3  0  0  0  0  0  0
  182.7220  180.1790  138.7460 C   0  0  0  0  0  3  0  0  0  0  0  0
  181.8990  177.9950  138.1060 C   0  0  0  0  0  3  0  0  0  0  0  0
  183.9330  178.1910  139.4090 C   0  0  0  0  0  3  0  0  0  0  0  0
  190.9490  177.2080  140.7380 C   0  0  0  0  0  2  0  0  0  0  0  0
  189.8530  178.2090  144.2210 C   0  0  0  0  0  3  0  0  0  0  0  0
  188.6460  177.5140  144.3500 C   0  0  0  0  0  0  0  0  0  0  0  0
  188.9300  176.6330  142.1050 C   0  0  0  0  0  3  0  0  0  0  0  0
  190.5980  178.1180  143.0420 C   0  0  0  0  0  3  0  0  0  0  0  0
  190.1390  177.3280  141.9830 C   0  0  0  0  0  0  0  0  0  0  0  0
  188.1850  176.7270  143.2820 C   0  0  0  0  0  3  0  0  0  0  0  0
  186.5030  177.5330  145.5870 C   0  0  0  0  0  1  0  0  0  0  0  0
  187.9200  177.6330  145.5390 O   0  0  0  0  0  0  0  0  0  0  0  0
  2 12  1  6  0  0  0
  2 13  1  0  0  0  0
  3 10  1  0  0  0  0
  4  8  1  1  0  0  0
  4  7  1  0  0  0  0
  4 15  1  0  0  0  0
  5  9  1  0  0  0  0
  6  1  1  0  0  0  0
  6  5  1  0  0  0  0
  7  9  1  1  0  0  0
  7 11  1  0  0  0  0
  8  1  1  0  0  0  0
 10 16  1  6  0  0  0
 10 14  1  0  0  0  0
 11  3  1  6  0  0  0
 11  2  1  0  0  0  0
 13 35  1  1  0  0  0
 14 13  1  0  0  0  0
 15 12  2  0  0  0  0
 17 16  1  0  0  0  0
 18 16  2  0  0  0  0
 19 20  1  0  0  0  0
 19 22  1  0  0  0  0
 21 26  1  0  0  0  0
 22 17  1  6  0  0  0
 22 24  1  0  0  0  0
 23 27  1  1  0  0  0
 23 20  1  0  0  0  0
 23 21  1  0  0  0  0
 24 25  1  0  0  0  0
 25 28  1  1  0  0  0
 26 25  1  0  0  0  0
 29 28  1  0  0  0  0
 29 34  1  0  0  0  0
 30 34  2  0  0  0  0
 31 33  1  0  0  0  0
 31 32  2  0  0  0  0
 32 30  1  0  0  0  0
 33 29  2  0  0  0  0
 35 40  1  0  0  0  0
 36 37  1  0  0  0  0
 37 43  1  0  0  0  0
 38 41  1  0  0  0  0
 39 36  2  0  0  0  0
 40 38  2  0  0  0  0
 40 39  1  0  0  0  0
 41 37  2  0  0  0  0
 43 42  1  0  0  0  0
M  END
>  <MODEL>
3

>  <REMARK>
 VINA RESULT:      -7.2      1.396      1.978
  Name = 
  7 active torsions:
  status: ('A' for Active; 'I' for Inactive)
    1  A    between atoms: C_1  and  C_34
    2  A    between atoms: C_1  and  C_35
    3  A    between atoms: C_2  and  C_27
    4  A    between atoms: N_6  and  C_12
    5  A    between atoms: C_11  and  C_14
    6  A    between atoms: C_14  and  C_22
    7  A    between atoms: C_19  and  O_37
                            x       y       z     vdW  Elec       q    Type
                         _______ _______ _______ _____ _____    ______ ____

>  <TORSDO>
F 7

$$$$
=
 OpenBabel11052416423D

 43 48  0  0  1  0  0  0  0  0999 V2000
  180.9210  174.7050  135.0080 C   0  0  0  0  0  2  0  0  0  0  0  0
  184.8500  176.3270  136.9730 C   0  0  1  0  0  3  0  0  0  0  0  0
  183.6150  177.4360  138.9000 C   0  0  0  0  0  2  0  0  0  0  0  0
  181.9140  176.4340  136.5640 C   0  0  2  0  0  3  0  0  0  0  0  0
  181.4340  173.3520  137.1440 C   0  0  0  0  0  2  0  0  0  0  0  0
  180.8170  173.3670  135.7450 C   0  0  0  0  0  2  0  0  0  0  0  0
  182.5450  175.5300  137.6490 C   0  0  1  0  0  3  0  0  0  0  0  0
  180.6350  175.9010  135.9110 C   0  0  0  0  0  2  0  0  0  0  0  0
  182.7650  174.0850  137.1990 C   0  0  0  0  0  2  0  0  0  0  0  0
  184.9310  178.0580  139.3550 C   0  0  1  0  0  3  0  0  0  0  0  0
  183.8670  176.1260  138.1450 C   0  0  1  0  0  3  0  0  0  0  0  0
  184.2160  177.0040  135.7750 C   0  0  0  0  0  3  0  0  0  0  0  0
  186.1460  177.0030  137.4450 C   0  0  2  0  0  3  0  0  0  0  0  0
  185.8510  178.3210  138.1610 C   0  0  0  0  0  2  0  0  0  0  0  0
  182.8920  177.0030  135.5640 C   0  0  0  0  0  3  0  0  0  0  0  0
  184.6650  179.3060  140.1420 C   0  0  0  0  0  0  0  0  0  0  0  0
  185.4970  179.6560  141.2510 N   0  0  0  0  0  2  0  0  0  0  0  0
  183.6680  180.0260  139.8690 O   0  0  0  0  0  0  0  0  0  0  0  0
  187.4940  178.5400  140.4180 C   0  0  0  0  0  2  0  0  0  0  0  0
  188.8930  178.4000  140.7980 N   0  0  0  0  0  2  0  0  0  0  0  0
  189.1270  176.7890  142.6120 C   0  0  0  0  0  2  0  0  0  0  0  0
  186.6510  178.8620  141.6450 C   0  0  2  0  0  3  0  0  0  0  0  0
  189.1620  177.0010  141.1020 C   0  0  2  0  0  3  0  0  0  0  0  0
  186.2170  177.6760  142.2460 O   0  0  0  0  0  0  0  0  0  0  0  0
  187.1070  177.4410  143.3010 C   0  0  2  0  0  3  0  0  0  0  0  0
  187.8770  176.3090  143.0160 O   0  0  0  0  0  0  0  0  0  0  0  0
  190.5430  176.6470  140.5900 C   0  0  0  0  0  1  0  0  0  0  0  0
  186.3420  177.2540  144.6130 C   0  0  0  0  0  2  0  0  0  0  0  0
  187.1610  177.6200  145.8080 C   0  0  0  0  0  0  0  0  0  0  0  0
  189.2750  177.5780  146.9910 C   0  0  0  0  0  3  0  0  0  0  0  0
  187.3370  178.6130  148.0120 C   0  0  0  0  0  3  0  0  0  0  0  0
  188.6880  178.2550  148.0640 C   0  0  0  0  0  3  0  0  0  0  0  0
  186.5750  178.2990  146.8840 C   0  0  0  0  0  3  0  0  0  0  0  0
  188.5120  177.2570  145.8650 C   0  0  0  0  0  3  0  0  0  0  0  0
  187.1290  177.2040  136.2960 C   0  0  0  0  0  2  0  0  0  0  0  0
  189.6770  174.4840  136.9610 C   0  0  0  0  0  3  0  0  0  0  0  0
  190.8480  175.2280  137.1360 C   0  0  0  0  0  0  0  0  0  0  0  0
  189.5930  177.2690  136.7390 C   0  0  0  0  0  3  0  0  0  0  0  0
  188.4670  175.1250  136.6780 C   0  0  0  0  0  3  0  0  0  0  0  0
  188.4240  176.5180  136.5690 C   0  0  0  0  0  0  0  0  0  0  0  0
  190.8010  176.6270  137.0190 C   0  0  0  0  0  3  0  0  0  0  0  0
  192.5970  173.5860  136.5320 C   0  0  0  0  0  1  0  0  0  0  0  0
  192.0430  174.5560  137.4100 O   0  0  0  0  0  0  0  0  0  0  0  0
  1  6  1  0  0  0  0
  1  8  1  0  0  0  0
  2 12  1  6  0  0  0
  2 13  1  0  0  0  0
  2 11  1  0  0  0  0
  3 10  1  0  0  0  0
  4 15  1  6  0  0  0
  4  7  1  0  0  0  0
  5  9  1  0  0  0  0
  6  5  1  0  0  0  0
  7  9  1  6  0  0  0
  7 11  1  0  0  0  0
  8  4  1  0  0  0  0
 10 16  1  6  0  0  0
 11  3  1  6  0  0  0
 13 35  1  6  0  0  0
 13 14  1  0  0  0  0
 14 10  1  0  0  0  0
 15 12  2  0  0  0  0
 16 17  1  0  0  0  0
 18 16  2  0  0  0  0
 19 20  1  0  0  0  0
 19 22  1  0  0  0  0
 20 23  1  0  0  0  0
 21 26  1  0  0  0  0
 22 17  1  6  0  0  0
 22 24  1  0  0  0  0
 23 27  1  1  0  0  0
 23 21  1  0  0  0  0
 24 25  1  0  0  0  0
 25 28  1  1  0  0  0
 26 25  1  0  0  0  0
 28 29  1  0  0  0  0
 29 34  2  0  0  0  0
 29 33  1  0  0  0  0
 30 32  2  0  0  0  0
 31 32  1  0  0  0  0
 33 31  2  0  0  0  0
 34 30  1  0  0  0  0
 35 40  1  0  0  0  0
 36 37  1  0  0  0  0
 37 43  1  0  0  0  0
 38 41  1  0  0  0  0
 39 36  2  0  0  0  0
 40 39  1  0  0  0  0
 40 38  2  0  0  0  0
 41 37  2  0  0  0  0
 42 43  1  0  0  0  0
M  END
>  <MODEL>
4

>  <REMARK>
 VINA RESULT:      -6.9      2.339      7.713
  Name = 
  7 active torsions:
  status: ('A' for Active; 'I' for Inactive)
    1  A    between atoms: C_1  and  C_34
    2  A    between atoms: C_1  and  C_35
    3  A    between atoms: C_2  and  C_27
    4  A    between atoms: N_6  and  C_12
    5  A    between atoms: C_11  and  C_14
    6  A    between atoms: C_14  and  C_22
    7  A    between atoms: C_19  and  O_37
                            x       y       z     vdW  Elec       q    Type
                         _______ _______ _______ _____ _____    ______ ____

>  <TORSDO>
F 7

$$$$
=
 OpenBabel11052416423D

 43 48  0  0  1  0  0  0  0  0999 V2000
  179.9120  177.5480  137.7720 C   0  0  0  0  0  2  0  0  0  0  0  0
  184.3080  176.1420  136.9840 C   0  0  1  0  0  3  0  0  0  0  0  0
  185.3280  178.2290  138.0220 C   0  0  0  0  0  2  0  0  0  0  0  0
  182.3160  178.2800  137.4910 C   0  0  2  0  0  3  0  0  0  0  0  0
  181.0030  176.8540  140.0030 C   0  0  0  0  0  2  0  0  0  0  0  0
  179.7220  176.9720  139.1770 C   0  0  0  0  0  2  0  0  0  0  0  0
  182.9960  177.5180  138.6540 C   0  0  1  0  0  3  0  0  0  0  0  0
  180.8740  178.7310  137.7420 C   0  0  0  0  0  2  0  0  0  0  0  0
  182.1770  176.3410  139.1850 C   0  0  0  0  0  2  0  0  0  0  0  0
  186.7040  177.7570  137.5620 C   0  0  1  0  0  3  0  0  0  0  0  0
  184.3900  177.0360  138.2390 C   0  0  1  0  0  3  0  0  0  0  0  0
  183.4490  176.7370  135.8870 C   0  0  0  0  0  3  0  0  0  0  0  0
  185.7080  175.7230  136.5080 C   0  0  2  0  0  3  0  0  0  0  0  0
  186.5980  176.9430  136.2710 C   0  0  0  0  0  2  0  0  0  0  0  0
  182.5110  177.6630  136.1280 C   0  0  0  0  0  3  0  0  0  0  0  0
  187.6250  178.9290  137.4110 C   0  0  0  0  0  0  0  0  0  0  0  0
  188.6950  179.1360  138.3380 N   0  0  0  0  0  2  0  0  0  0  0  0
  187.4280  179.7760  136.5000 O   0  0  0  0  0  0  0  0  0  0  0  0
  188.2960  178.7150  140.7020 C   0  0  0  0  0  2  0  0  0  0  0  0
  187.9500  177.5880  141.5570 N   0  0  0  0  0  2  0  0  0  0  0  0
  189.9070  176.1910  141.9590 C   0  0  0  0  0  2  0  0  0  0  0  0
  188.9720  178.2170  139.4320 C   0  0  2  0  0  3  0  0  0  0  0  0
  189.0500  177.3410  142.4800 C   0  0  2  0  0  3  0  0  0  0  0  0
  190.3530  178.1350  139.6320 O   0  0  0  0  0  0  0  0  0  0  0  0
  190.6110  176.7910  139.9270 C   0  0  2  0  0  3  0  0  0  0  0  0
  191.0180  176.6780  141.2610 O   0  0  0  0  0  0  0  0  0  0  0  0
  188.4790  176.9530  143.8280 C   0  0  0  0  0  1  0  0  0  0  0  0
  191.6860  176.2360  138.9900 C   0  0  0  0  0  2  0  0  0  0  0  0
  191.1310  175.2640  138.0000 C   0  0  0  0  0  0  0  0  0  0  0  0
  191.4700  173.4480  136.4310 C   0  0  0  0  0  3  0  0  0  0  0  0
  189.2590  174.3960  136.7270 C   0  0  0  0  0  3  0  0  0  0  0  0
  190.1100  173.4750  136.1070 C   0  0  0  0  0  3  0  0  0  0  0  0
  189.7690  175.2870  137.6740 C   0  0  0  0  0  3  0  0  0  0  0  0
  191.9810  174.3440  137.3730 C   0  0  0  0  0  3  0  0  0  0  0  0
  185.6410  174.8360  135.2700 C   0  0  0  0  0  2  0  0  0  0  0  0
  182.8450  172.3230  134.8170 C   0  0  0  0  0  3  0  0  0  0  0  0
  183.0160  171.5020  135.9360 C   0  0  0  0  0  0  0  0  0  0  0  0
  184.9210  172.8480  136.6130 C   0  0  0  0  0  3  0  0  0  0  0  0
  183.7050  173.4030  134.5940 C   0  0  0  0  0  3  0  0  0  0  0  0
  184.7420  173.6680  135.4930 C   0  0  0  0  0  0  0  0  0  0  0  0
  184.0630  171.7680  136.8340 C   0  0  0  0  0  3  0  0  0  0  0  0
  181.2510  169.9740  135.1180 C   0  0  0  0  0  1  0  0  0  0  0  0
  182.1440  170.4260  136.1260 O   0  0  0  0  0  0  0  0  0  0  0  0
  1  6  1  0  0  0  0
  2 12  1  6  0  0  0
  2 11  1  0  0  0  0
  4 15  1  6  0  0  0
  4  8  1  0  0  0  0
  4  7  1  0  0  0  0
  6  5  1  0  0  0  0
  7  9  1  6  0  0  0
  8  1  1  0  0  0  0
  9  5  1  0  0  0  0
 10 16  1  6  0  0  0
 10  3  1  0  0  0  0
 11  3  1  6  0  0  0
 11  7  1  0  0  0  0
 12 15  2  0  0  0  0
 13 35  1  6  0  0  0
 13  2  1  0  0  0  0
 14 13  1  0  0  0  0
 14 10  1  0  0  0  0
 16 17  1  0  0  0  0
 18 16  2  0  0  0  0
 19 20  1  0  0  0  0
 20 23  1  0  0  0  0
 21 23  1  0  0  0  0
 22 17  1  6  0  0  0
 22 24  1  0  0  0  0
 22 19  1  0  0  0  0
 23 27  1  1  0  0  0
 24 25  1  0  0  0  0
 25 28  1  6  0  0  0
 25 26  1  0  0  0  0
 26 21  1  0  0  0  0
 29 28  1  0  0  0  0
 30 34  1  0  0  0  0
 31 33  2  0  0  0  0
 32 30  2  0  0  0  0
 32 31  1  0  0  0  0
 33 29  1  0  0  0  0
 34 29  2  0  0  0  0
 35 40  1  0  0  0  0
 36 37  1  0  0  0  0
 37 43  1  0  0  0  0
 37 41  2  0  0  0  0
 38 41  1  0  0  0  0
 39 36  2  0  0  0  0
 39 40  1  0  0  0  0
 40 38  2  0  0  0  0
 42 43  1  0  0  0  0
M  END
>  <MODEL>
5

>  <REMARK>
 VINA RESULT:      -6.9      2.474      9.197
  Name = 
  7 active torsions:
  status: ('A' for Active; 'I' for Inactive)
    1  A    between atoms: C_1  and  C_34
    2  A    between atoms: C_1  and  C_35
    3  A    between atoms: C_2  and  C_27
    4  A    between atoms: N_6  and  C_12
    5  A    between atoms: C_11  and  C_14
    6  A    between atoms: C_14  and  C_22
    7  A    between atoms: C_19  and  O_37
                            x       y       z     vdW  Elec       q    Type
                         _______ _______ _______ _____ _____    ______ ____

>  <TORSDO>
F 7

$$$$
=
 OpenBabel11052416423D

 43 48  0  0  1  0  0  0  0  0999 V2000
  181.9820  174.1090  135.0090 C   0  0  0  0  0  2  0  0  0  0  0  0
  186.3110  174.4450  136.7610 C   0  0  1  0  0  3  0  0  0  0  0  0
  186.1270  176.9530  137.1510 C   0  0  0  0  0  2  0  0  0  0  0  0
  183.9330  175.6520  135.4630 C   0  0  2  0  0  3  0  0  0  0  0  0
  181.8480  174.4940  137.5550 C   0  0  0  0  0  2  0  0  0  0  0  0
  181.2110  173.8760  136.3100 C   0  0  0  0  0  2  0  0  0  0  0  0
  184.0440  175.5450  137.0020 C   0  0  1  0  0  3  0  0  0  0  0  0
  182.5200  175.5310  134.8860 C   0  0  0  0  0  2  0  0  0  0  0  0
  183.3570  174.3110  137.5880 C   0  0  0  0  0  2  0  0  0  0  0  0
  187.6020  176.9770  137.5400 C   0  0  1  0  0  3  0  0  0  0  0  0
  185.5130  175.5790  137.4390 C   0  0  1  0  0  3  0  0  0  0  0  0
  186.0560  174.3490  135.2710 C   0  0  0  0  0  3  0  0  0  0  0  0
  187.8020  174.5210  137.1260 C   0  0  2  0  0  3  0  0  0  0  0  0
  188.3820  175.8950  136.7900 C   0  0  0  0  0  2  0  0  0  0  0  0
  184.9530  174.8470  134.6950 C   0  0  0  0  0  3  0  0  0  0  0  0
  188.1730  178.3420  137.3070 C   0  0  0  0  0  0  0  0  0  0  0  0
  188.6680  179.1190  138.4010 N   0  0  0  0  0  2  0  0  0  0  0  0
  188.1680  178.8420  136.1500 O   0  0  0  0  0  0  0  0  0  0  0  0
  189.6730  177.4700  139.8830 C   0  0  0  0  0  2  0  0  0  0  0  0
  190.2270  177.4210  141.2290 N   0  0  0  0  0  2  0  0  0  0  0  0
  188.4390  177.3590  142.8840 C   0  0  0  0  0  2  0  0  0  0  0  0
  188.6850  178.6230  139.7690 C   0  0  2  0  0  3  0  0  0  0  0  0
  189.4070  176.5330  142.0440 C   0  0  2  0  0  3  0  0  0  0  0  0
  187.4040  178.1840  140.1200 O   0  0  0  0  0  0  0  0  0  0  0  0
  187.2270  178.5710  141.4540 C   0  0  2  0  0  3  0  0  0  0  0  0
  187.1850  177.4330  142.2670 O   0  0  0  0  0  0  0  0  0  0  0  0
  190.3110  175.7480  142.9710 C   0  0  0  0  0  1  0  0  0  0  0  0
  185.9410  179.3860  141.6070 C   0  0  0  0  0  2  0  0  0  0  0  0
  184.8250  178.8530  140.7690 C   0  0  0  0  0  0  0  0  0  0  0  0
  183.5240  178.9160  138.7260 C   0  0  0  0  0  3  0  0  0  0  0  0
  182.9430  177.3520  140.4830 C   0  0  0  0  0  3  0  0  0  0  0  0
  182.7050  177.8940  139.2160 C   0  0  0  0  0  3  0  0  0  0  0  0
  184.0030  177.8280  141.2570 C   0  0  0  0  0  3  0  0  0  0  0  0
  184.5810  179.3970  139.5030 C   0  0  0  0  0  3  0  0  0  0  0  0
  188.6020  173.4040  136.4650 C   0  0  0  0  0  2  0  0  0  0  0  0
  192.1130  174.5020  137.3590 C   0  0  0  0  0  3  0  0  0  0  0  0
  192.7340  174.5190  136.1050 C   0  0  0  0  0  0  0  0  0  0  0  0
  190.6570  173.7840  135.0840 C   0  0  0  0  0  3  0  0  0  0  0  0
  190.7710  174.1300  137.4780 C   0  0  0  0  0  3  0  0  0  0  0  0
  190.0400  173.7730  136.3410 C   0  0  0  0  0  0  0  0  0  0  0  0
  191.9980  174.1540  134.9660 C   0  0  0  0  0  3  0  0  0  0  0  0
  194.4940  176.2080  135.6970 C   0  0  0  0  0  1  0  0  0  0  0  0
  194.0790  174.8880  136.0200 O   0  0  0  0  0  0  0  0  0  0  0  0
  1  6  1  0  0  0  0
  2 12  1  6  0  0  0
  2 13  1  0  0  0  0
  2 11  1  0  0  0  0
  3 10  1  0  0  0  0
  4 15  1  6  0  0  0
  4  7  1  0  0  0  0
  5  9  1  0  0  0  0
  6  5  1  0  0  0  0
  7 11  1  0  0  0  0
  7  9  1  6  0  0  0
  8  1  1  0  0  0  0
  8  4  1  0  0  0  0
 10 16  1  6  0  0  0
 11  3  1  6  0  0  0
 13 35  1  6  0  0  0
 14 13  1  0  0  0  0
 14 10  1  0  0  0  0
 15 12  2  0  0  0  0
 16 17  1  0  0  0  0
 18 16  2  0  0  0  0
 19 20  1  0  0  0  0
 20 23  1  0  0  0  0
 22 17  1  6  0  0  0
 22 19  1  0  0  0  0
 22 24  1  0  0  0  0
 23 21  1  0  0  0  0
 23 27  1  1  0  0  0
 24 25  1  0  0  0  0
 25 28  1  6  0  0  0
 25 26  1  0  0  0  0
 26 21  1  0  0  0  0
 29 33  1  0  0  0  0
 29 28  1  0  0  0  0
 30 32  2  0  0  0  0
 30 34  1  0  0  0  0
 31 33  2  0  0  0  0
 32 31  1  0  0  0  0
 34 29  2  0  0  0  0
 36 39  1  0  0  0  0
 37 36  2  0  0  0  0
 38 40  1  0  0  0  0
 40 35  1  0  0  0  0
 40 39  2  0  0  0  0
 41 38  2  0  0  0  0
 41 37  1  0  0  0  0
 42 43  1  0  0  0  0
 43 37  1  0  0  0  0
M  END
>  <MODEL>
6

>  <REMARK>
 VINA RESULT:      -6.6      2.300      7.155
  Name = 
  7 active torsions:
  status: ('A' for Active; 'I' for Inactive)
    1  A    between atoms: C_1  and  C_34
    2  A    between atoms: C_1  and  C_35
    3  A    between atoms: C_2  and  C_27
    4  A    between atoms: N_6  and  C_12
    5  A    between atoms: C_11  and  C_14
    6  A    between atoms: C_14  and  C_22
    7  A    between atoms: C_19  and  O_37
                            x       y       z     vdW  Elec       q    Type
                         _______ _______ _______ _____ _____    ______ ____

>  <TORSDO>
F 7

$$$$
=
 OpenBabel11052416423D

 43 48  0  0  1  0  0  0  0  0999 V2000
  191.6580  177.4270  145.0460 C   0  0  0  0  0  2  0  0  0  0  0  0
  187.9500  177.6060  142.1930 C   0  0  1  0  0  3  0  0  0  0  0  0
  189.3730  177.5780  140.0850 C   0  0  0  0  0  2  0  0  0  0  0  0
  190.8350  178.0320  142.7330 C   0  0  2  0  0  3  0  0  0  0  0  0
  191.3340  175.1310  143.9170 C   0  0  0  0  0  2  0  0  0  0  0  0
  191.8160  175.9080  145.1420 C   0  0  0  0  0  2  0  0  0  0  0  0
  190.2990  176.6660  142.2420 C   0  0  1  0  0  3  0  0  0  0  0  0
  192.0410  177.9760  143.6750 C   0  0  0  0  0  2  0  0  0  0  0  0
  190.0220  175.6690  143.3680 C   0  0  0  0  0  2  0  0  0  0  0  0
  188.1120  177.8120  139.2580 C   0  0  1  0  0  3  0  0  0  0  0  0
  189.0360  176.8560  141.3940 C   0  0  1  0  0  3  0  0  0  0  0  0
  188.4760  178.8380  142.8990 C   0  0  0  0  0  3  0  0  0  0  0  0
  186.7110  177.8770  141.3250 C   0  0  2  0  0  3  0  0  0  0  0  0
  187.0870  178.6280  140.0480 C   0  0  0  0  0  2  0  0  0  0  0  0
  189.7740  179.0020  143.1920 C   0  0  0  0  0  3  0  0  0  0  0  0
  188.4650  178.4650  137.9570 C   0  0  0  0  0  0  0  0  0  0  0  0
  188.1120  177.8480  136.7160 N   0  0  0  0  0  2  0  0  0  0  0  0
  189.1290  179.5360  137.9450 O   0  0  0  0  0  0  0  0  0  0  0  0
  188.3090  175.4630  136.2720 C   0  0  0  0  0  2  0  0  0  0  0  0
  187.8330  174.2130  136.8470 N   0  0  0  0  0  2  0  0  0  0  0  0
  185.5100  173.8190  136.2260 C   0  0  0  0  0  2  0  0  0  0  0  0
  187.3680  176.6000  136.6460 C   0  0  2  0  0  3  0  0  0  0  0  0
  186.9700  173.5470  135.8810 C   0  0  2  0  0  3  0  0  0  0  0  0
  186.3580  176.7130  135.6850 O   0  0  0  0  0  0  0  0  0  0  0  0
  185.2540  176.0360  136.2180 C   0  0  2  0  0  3  0  0  0  0  0  0
  185.0100  174.8820  135.4660 O   0  0  0  0  0  0  0  0  0  0  0  0
  187.2190  172.0550  135.9500 C   0  0  0  0  0  1  0  0  0  0  0  0
  184.0230  176.9440  136.2220 C   0  0  0  0  0  2  0  0  0  0  0  0
  183.0100  176.5270  137.2390 C   0  0  0  0  0  0  0  0  0  0  0  0
  182.4860  175.6280  139.4270 C   0  0  0  0  0  3  0  0  0  0  0  0
  180.7000  176.1760  137.8840 C   0  0  0  0  0  3  0  0  0  0  0  0
  181.1220  175.6940  139.1270 C   0  0  0  0  0  3  0  0  0  0  0  0
  181.6430  176.5940  136.9420 C   0  0  0  0  0  3  0  0  0  0  0  0
  183.4300  176.0390  138.4820 C   0  0  0  0  0  3  0  0  0  0  0  0
  185.6270  178.6150  142.1040 C   0  0  0  0  0  2  0  0  0  0  0  0
  183.4230  179.6180  139.1940 C   0  0  0  0  0  3  0  0  0  0  0  0
  182.1470  179.3280  139.6900 C   0  0  0  0  0  0  0  0  0  0  0  0
  183.1470  178.5490  141.7610 C   0  0  0  0  0  3  0  0  0  0  0  0
  184.5570  179.3770  139.9750 C   0  0  0  0  0  3  0  0  0  0  0  0
  184.4200  178.8450  141.2610 C   0  0  0  0  0  0  0  0  0  0  0  0
  182.0150  178.7870  140.9790 C   0  0  0  0  0  3  0  0  0  0  0  0
  181.1300  180.2150  137.6170 C   0  0  0  0  0  1  0  0  0  0  0  0
  181.0340  179.5730  138.8810 O   0  0  0  0  0  0  0  0  0  0  0  0
  1  6  1  0  0  0  0
  2 12  1  6  0  0  0
  4 15  1  1  0  0  0
  4  8  1  0  0  0  0
  5  6  1  0  0  0  0
  7  4  1  0  0  0  0
  7  9  1  1  0  0  0
  8  1  1  0  0  0  0
  9  5  1  0  0  0  0
 10 16  1  6  0  0  0
 10 14  1  0  0  0  0
 10  3  1  0  0  0  0
 11  3  1  6  0  0  0
 11  2  1  0  0  0  0
 11  7  1  0  0  0  0
 12 15  2  0  0  0  0
 13 35  1  1  0  0  0
 13  2  1  0  0  0  0
 14 13  1  0  0  0  0
 17 16  1  0  0  0  0
 18 16  2  0  0  0  0
 19 22  1  0  0  0  0
 19 20  1  0  0  0  0
 22 17  1  6  0  0  0
 23 27  1  1  0  0  0
 23 21  1  0  0  0  0
 23 20  1  0  0  0  0
 24 25  1  0  0  0  0
 24 22  1  0  0  0  0
 25 28  1  6  0  0  0
 26 25  1  0  0  0  0
 26 21  1  0  0  0  0
 28 29  1  0  0  0  0
 29 34  1  0  0  0  0
 31 32  2  0  0  0  0
 32 30  1  0  0  0  0
 33 29  2  0  0  0  0
 33 31  1  0  0  0  0
 34 30  2  0  0  0  0
 36 37  2  0  0  0  0
 36 39  1  0  0  0  0
 37 41  1  0  0  0  0
 39 40  2  0  0  0  0
 40 38  1  0  0  0  0
 40 35  1  0  0  0  0
 41 38  2  0  0  0  0
 42 43  1  0  0  0  0
 43 37  1  0  0  0  0
M  END
>  <MODEL>
7

>  <REMARK>
 VINA RESULT:      -6.6      2.968      5.840
  Name = 
  7 active torsions:
  status: ('A' for Active; 'I' for Inactive)
    1  A    between atoms: C_1  and  C_34
    2  A    between atoms: C_1  and  C_35
    3  A    between atoms: C_2  and  C_27
    4  A    between atoms: N_6  and  C_12
    5  A    between atoms: C_11  and  C_14
    6  A    between atoms: C_14  and  C_22
    7  A    between atoms: C_19  and  O_37
                            x       y       z     vdW  Elec       q    Type
                         _______ _______ _______ _____ _____    ______ ____

>  <TORSDO>
F 7

$$$$
=
 OpenBabel11052416423D

 43 48  0  0  1  0  0  0  0  0999 V2000
  191.4590  177.4590  145.0180 C   0  0  0  0  0  2  0  0  0  0  0  0
  188.1170  177.5510  141.7400 C   0  0  1  0  0  3  0  0  0  0  0  0
  189.7820  177.7220  139.8240 C   0  0  0  0  0  2  0  0  0  0  0  0
  190.8800  178.1300  142.6490 C   0  0  2  0  0  3  0  0  0  0  0  0
  191.4320  175.2090  143.7580 C   0  0  0  0  0  2  0  0  0  0  0  0
  191.7090  175.9500  145.0670 C   0  0  0  0  0  2  0  0  0  0  0  0
  190.5030  176.7600  142.0370 C   0  0  1  0  0  3  0  0  0  0  0  0
  191.9650  178.1010  143.7300 C   0  0  0  0  0  2  0  0  0  0  0  0
  190.1620  175.6910  143.0760 C   0  0  0  0  0  2  0  0  0  0  0  0
  188.6160  177.9190  138.8600 C   0  0  1  0  0  3  0  0  0  0  0  0
  189.3410  176.9140  141.0490 C   0  0  1  0  0  3  0  0  0  0  0  0
  188.4690  178.7760  142.5590 C   0  0  0  0  0  3  0  0  0  0  0  0
  186.9760  177.7890  140.7390 C   0  0  2  0  0  3  0  0  0  0  0  0
  187.4500  178.6270  139.5520 C   0  0  0  0  0  2  0  0  0  0  0  0
  189.7070  179.0070  143.0160 C   0  0  0  0  0  3  0  0  0  0  0  0
  189.0770  178.6600  137.6410 C   0  0  0  0  0  0  0  0  0  0  0  0
  189.9040  178.0140  136.6690 N   0  0  0  0  0  2  0  0  0  0  0  0
  188.7880  179.8770  137.4930 O   0  0  0  0  0  0  0  0  0  0  0  0
  191.8050  176.5320  137.0030 C   0  0  0  0  0  2  0  0  0  0  0  0
  192.1250  175.3420  137.7790 N   0  0  0  0  0  2  0  0  0  0  0  0
  191.1620  173.3600  136.7380 C   0  0  0  0  0  2  0  0  0  0  0  0
  190.3010  176.6190  136.7810 C   0  0  2  0  0  3  0  0  0  0  0  0
  192.4000  174.2420  136.8640 C   0  0  2  0  0  3  0  0  0  0  0  0
  189.9570  175.9410  135.6080 O   0  0  0  0  0  0  0  0  0  0  0  0
  189.5100  174.6800  136.0200 C   0  0  2  0  0  3  0  0  0  0  0  0
  190.4220  173.7050  135.6010 O   0  0  0  0  0  0  0  0  0  0  0  0
  193.5360  173.4120  137.4250 C   0  0  0  0  0  1  0  0  0  0  0  0
  188.1200  174.3930  135.4510 C   0  0  0  0  0  2  0  0  0  0  0  0
  187.1240  175.4440  135.8220 C   0  0  0  0  0  0  0  0  0  0  0  0
  185.5200  176.3460  137.3980 C   0  0  0  0  0  3  0  0  0  0  0  0
  185.8720  177.4440  135.2670 C   0  0  0  0  0  3  0  0  0  0  0  0
  185.2210  177.3780  136.5030 C   0  0  0  0  0  3  0  0  0  0  0  0
  186.8240  176.4800  134.9280 C   0  0  0  0  0  3  0  0  0  0  0  0
  186.4670  175.3780  137.0570 C   0  0  0  0  0  3  0  0  0  0  0  0
  185.7580  178.4150  141.4100 C   0  0  0  0  0  2  0  0  0  0  0  0
  183.2500  179.5040  138.7910 C   0  0  0  0  0  3  0  0  0  0  0  0
  182.3380  178.4440  138.8120 C   0  0  0  0  0  0  0  0  0  0  0  0
  183.6730  177.3490  140.5190 C   0  0  0  0  0  3  0  0  0  0  0  0
  184.3690  179.4920  139.6290 C   0  0  0  0  0  3  0  0  0  0  0  0
  184.5810  178.4150  140.4960 C   0  0  0  0  0  0  0  0  0  0  0  0
  182.5580  177.3620  139.6800 C   0  0  0  0  0  3  0  0  0  0  0  0
  181.2990  179.0200  136.6420 C   0  0  0  0  0  1  0  0  0  0  0  0
  181.2330  178.4840  137.9560 O   0  0  0  0  0  0  0  0  0  0  0  0
  1  6  1  0  0  0  0
  2 12  1  6  0  0  0
  4 15  1  1  0  0  0
  4  8  1  0  0  0  0
  5  6  1  0  0  0  0
  7  4  1  0  0  0  0
  7  9  1  1  0  0  0
  8  1  1  0  0  0  0
  9  5  1  0  0  0  0
 10 16  1  6  0  0  0
 10 14  1  0  0  0  0
 10  3  1  0  0  0  0
 11  3  1  6  0  0  0
 11  2  1  0  0  0  0
 11  7  1  0  0  0  0
 12 15  2  0  0  0  0
 13 35  1  1  0  0  0
 13  2  1  0  0  0  0
 14 13  1  0  0  0  0
 17 16  1  0  0  0  0
 18 16  2  0  0  0  0
 19 20  1  0  0  0  0
 21 23  1  0  0  0  0
 22 17  1  6  0  0  0
 22 19  1  0  0  0  0
 23 27  1  1  0  0  0
 23 20  1  0  0  0  0
 24 25  1  0  0  0  0
 24 22  1  0  0  0  0
 25 28  1  6  0  0  0
 26 25  1  0  0  0  0
 26 21  1  0  0  0  0
 28 29  1  0  0  0  0
 29 34  1  0  0  0  0
 31 32  2  0  0  0  0
 32 30  1  0  0  0  0
 33 31  1  0  0  0  0
 33 29  2  0  0  0  0
 34 30  2  0  0  0  0
 36 37  2  0  0  0  0
 36 39  1  0  0  0  0
 37 41  1  0  0  0  0
 39 40  2  0  0  0  0
 40 38  1  0  0  0  0
 40 35  1  0  0  0  0
 41 38  2  0  0  0  0
 42 43  1  0  0  0  0
 43 37  1  0  0  0  0
M  END
>  <MODEL>
8

>  <REMARK>
 VINA RESULT:      -6.5      2.357      6.794
  Name = 
  7 active torsions:
  status: ('A' for Active; 'I' for Inactive)
    1  A    between atoms: C_1  and  C_34
    2  A    between atoms: C_1  and  C_35
    3  A    between atoms: C_2  and  C_27
    4  A    between atoms: N_6  and  C_12
    5  A    between atoms: C_11  and  C_14
    6  A    between atoms: C_14  and  C_22
    7  A    between atoms: C_19  and  O_37
                            x       y       z     vdW  Elec       q    Type
                         _______ _______ _______ _____ _____    ______ ____

>  <TORSDO>
F 7

$$$$
=
 OpenBabel11052416423D

 43 48  0  0  1  0  0  0  0  0999 V2000
  190.4380  176.5440  134.9690 C   0  0  0  0  0  2  0  0  0  0  0  0
  188.1340  177.4370  138.9460 C   0  0  1  0  0  3  0  0  0  0  0  0
  185.9330  177.8860  137.7540 C   0  0  0  0  0  2  0  0  0  0  0  0
  188.4350  177.6850  136.0060 C   0  0  2  0  0  3  0  0  0  0  0  0
  188.8510  174.5810  135.4990 C   0  0  0  0  0  2  0  0  0  0  0  0
  190.1610  175.0420  134.8610 C   0  0  0  0  0  2  0  0  0  0  0  0
  187.7030  176.4800  136.6430 C   0  0  1  0  0  3  0  0  0  0  0  0
  189.1980  177.3940  134.7110 C   0  0  0  0  0  2  0  0  0  0  0  0
  188.5910  175.2510  136.8390 C   0  0  0  0  0  2  0  0  0  0  0  0
  185.3280  178.3250  139.0850 C   0  0  1  0  0  3  0  0  0  0  0  0
  187.0680  176.8810  137.9790 C   0  0  1  0  0  3  0  0  0  0  0  0
  189.0440  178.4620  138.3010 C   0  0  0  0  0  3  0  0  0  0  0  0
  187.4960  177.9210  140.2580 C   0  0  2  0  0  3  0  0  0  0  0  0
  186.3950  178.9460  139.9880 C   0  0  0  0  0  2  0  0  0  0  0  0
  189.2210  178.5350  136.9750 C   0  0  0  0  0  3  0  0  0  0  0  0
  184.1830  179.2600  138.8450 C   0  0  0  0  0  0  0  0  0  0  0  0
  182.9620  178.7820  138.2740 N   0  0  0  0  0  2  0  0  0  0  0  0
  184.3070  180.4900  139.0900 O   0  0  0  0  0  0  0  0  0  0  0  0
  183.1370  177.1380  136.4870 C   0  0  0  0  0  2  0  0  0  0  0  0
  183.6020  175.7680  136.3200 N   0  0  0  0  0  2  0  0  0  0  0  0
  181.9520  174.1950  137.1820 C   0  0  0  0  0  2  0  0  0  0  0  0
  182.7500  177.3820  137.9400 C   0  0  2  0  0  3  0  0  0  0  0  0
  182.4720  174.9280  135.9490 C   0  0  2  0  0  3  0  0  0  0  0  0
  181.4030  177.0570  138.1310 O   0  0  0  0  0  0  0  0  0  0  0  0
  181.4010  175.7650  138.6710 C   0  0  2  0  0  3  0  0  0  0  0  0
  180.8610  174.8730  137.7380 O   0  0  0  0  0  0  0  0  0  0  0  0
  182.9360  173.9050  134.9320 C   0  0  0  0  0  1  0  0  0  0  0  0
  180.5970  175.7310  139.9720 C   0  0  0  0  0  2  0  0  0  0  0  0
  180.4060  177.0920  140.5590 C   0  0  0  0  0  0  0  0  0  0  0  0
  178.9920  179.0160  140.9690 C   0  0  0  0  0  3  0  0  0  0  0  0
  181.2940  179.0230  141.7250 C   0  0  0  0  0  3  0  0  0  0  0  0
  180.0540  179.6610  141.6100 C   0  0  0  0  0  3  0  0  0  0  0  0
  181.4680  177.7390  141.2030 C   0  0  0  0  0  3  0  0  0  0  0  0
  179.1680  177.7350  140.4400 C   0  0  0  0  0  3  0  0  0  0  0  0
  188.5400  178.4690  141.2240 C   0  0  0  0  0  2  0  0  0  0  0  0
  186.5770  177.5050  144.3150 C   0  0  0  0  0  3  0  0  0  0  0  0
  187.5770  177.4860  145.2930 C   0  0  0  0  0  0  0  0  0  0  0  0
  189.2170  178.0890  143.6060 C   0  0  0  0  0  3  0  0  0  0  0  0
  186.8910  177.8160  142.9880 C   0  0  0  0  0  3  0  0  0  0  0  0
  188.2110  178.1100  142.6330 C   0  0  0  0  0  0  0  0  0  0  0  0
  188.9030  177.7770  144.9300 C   0  0  0  0  0  3  0  0  0  0  0  0
  188.1470  177.2710  147.6900 C   0  0  0  0  0  1  0  0  0  0  0  0
  187.2320  177.1640  146.6090 O   0  0  0  0  0  0  0  0  0  0  0  0
  2 12  1  6  0  0  0
  2 13  1  0  0  0  0
  3 10  1  0  0  0  0
  4  8  1  6  0  0  0
  4  7  1  0  0  0  0
  4 15  1  0  0  0  0
  5  9  1  0  0  0  0
  6  1  1  0  0  0  0
  6  5  1  0  0  0  0
  7  9  1  1  0  0  0
  7 11  1  0  0  0  0
  8  1  1  0  0  0  0
 10 16  1  6  0  0  0
 10 14  1  0  0  0  0
 11  3  1  6  0  0  0
 11  2  1  0  0  0  0
 13 35  1  1  0  0  0
 14 13  1  0  0  0  0
 15 12  2  0  0  0  0
 16 18  2  0  0  0  0
 17 16  1  0  0  0  0
 19 22  1  0  0  0  0
 20 19  1  0  0  0  0
 21 26  1  0  0  0  0
 22 24  1  0  0  0  0
 22 17  1  6  0  0  0
 23 27  1  6  0  0  0
 23 20  1  0  0  0  0
 23 21  1  0  0  0  0
 24 25  1  0  0  0  0
 25 28  1  1  0  0  0
 26 25  1  0  0  0  0
 28 29  1  0  0  0  0
 29 33  1  0  0  0  0
 30 32  2  0  0  0  0
 32 31  1  0  0  0  0
 33 31  2  0  0  0  0
 34 29  2  0  0  0  0
 34 30  1  0  0  0  0
 35 40  1  0  0  0  0
 36 37  1  0  0  0  0
 37 43  1  0  0  0  0
 38 41  1  0  0  0  0
 39 36  2  0  0  0  0
 40 39  1  0  0  0  0
 40 38  2  0  0  0  0
 41 37  2  0  0  0  0
 43 42  1  0  0  0  0
M  END
>  <MODEL>
9

>  <REMARK>
 VINA RESULT:      -6.4      2.505      3.668
  Name = 
  7 active torsions:
  status: ('A' for Active; 'I' for Inactive)
    1  A    between atoms: C_1  and  C_34
    2  A    between atoms: C_1  and  C_35
    3  A    between atoms: C_2  and  C_27
    4  A    between atoms: N_6  and  C_12
    5  A    between atoms: C_11  and  C_14
    6  A    between atoms: C_14  and  C_22
    7  A    between atoms: C_19  and  O_37
                            x       y       z     vdW  Elec       q    Type
                         _______ _______ _______ _____ _____    ______ ____

>  <TORSDO>
F 7

$$$$
