=
 OpenBabel11052413263D

 28 33  0  0  1  0  0  0  0  0999 V2000
  187.7720  176.8950  144.0390 C   0  0  1  0  0  3  0  0  0  0  0  0
  189.3120  176.7720  144.0350 C   0  0  1  0  0  3  0  0  0  0  0  0
  188.9390  177.1400  141.5150 C   0  0  2  0  0  3  0  0  0  0  0  0
  186.2650  177.8750  138.5560 C   0  0  0  0  0  3  0  0  0  0  0  0
  183.9450  178.5890  144.5040 N   0  0  0  0  0  1  0  0  0  0  0  0
  191.1540  178.2550  144.0450 C   0  0  2  0  0  3  0  0  0  0  0  0
  189.9580  176.9470  142.6510 C   0  0  1  0  0  3  0  0  0  0  0  0
  190.4610  177.2150  146.1810 C   0  0  0  0  0  1  0  0  0  0  0  0
  189.2450  177.8970  137.8710 C   0  0  0  0  0  3  0  0  0  0  0  0
  186.9810  178.4820  140.7640 N   0  0  0  0  0  0  0  0  0  0  0  0
  189.9760  177.8240  144.8790 C   0  0  2  0  0  3  0  0  0  0  0  0
  187.2930  178.1360  136.3370 C   0  0  0  0  0  0  0  0  0  0  0  0
  187.2760  178.0510  139.4190 C   0  0  0  0  0  0  0  0  0  0  0  0
  189.6470  177.3860  140.1860 C   0  0  0  0  0  2  0  0  0  0  0  0
  188.5760  178.3340  136.6310 C   0  0  0  0  0  3  0  0  0  0  0  0
  186.1390  178.6990  143.4390 C   0  0  0  0  0  0  0  0  0  0  0  0
  187.9740  178.2900  141.8390 C   0  0  1  0  0  3  0  0  0  0  0  0
  188.6910  177.7090  139.0780 C   0  0  0  0  0  0  0  0  0  0  0  0
  185.6810  177.1280  145.3670 C   0  0  0  0  0  2  0  0  0  0  0  0
  185.6810  179.7530  142.4680 C   0  0  0  0  0  2  0  0  0  0  0  0
  185.3780  178.4820  144.7310 C   0  0  2  0  0  3  0  0  0  0  0  0
  191.4340  179.7290  144.2700 C   0  0  0  0  0  1  0  0  0  0  0  0
  186.8070  178.6100  135.1650 F   0  0  0  0  0  0  0  0  0  0  0  0
  186.4130  177.2920  137.1920 C   0  0  0  0  0  2  0  0  0  0  0  0
  185.7210  179.1970  141.0430 C   0  0  0  0  0  2  0  0  0  0  0  0
  187.1830  176.9200  145.4500 C   0  0  0  0  0  2  0  0  0  0  0  0
  187.2800  178.0300  143.1600 C   0  0  0  0  0  0  0  0  0  0  0  0
  190.8560  178.0340  142.6930 O   0  0  0  0  0  0  0  0  0  0  0  0
  1 26  1  1  0  0  0
  2  1  1  0  0  0  0
  2 11  1  0  0  0  0
  3 17  1  0  0  0  0
  3  7  1  0  0  0  0
  4 13  2  0  0  0  0
  5 21  1  0  0  0  0
  6 22  1  0  0  0  0
  6 11  1  0  0  0  0
  7 28  1  0  0  0  0
  7  2  1  0  0  0  0
  9 18  2  0  0  0  0
 10 25  1  0  0  0  0
 10 17  1  0  0  0  0
 11  8  1  0  0  0  0
 12 15  2  0  0  0  0
 12 24  1  0  0  0  0
 13 10  1  0  0  0  0
 14  3  1  0  0  0  0
 15  9  1  0  0  0  0
 16 21  1  0  0  0  0
 17 27  1  0  0  0  0
 18 13  1  0  0  0  0
 18 14  1  0  0  0  0
 19 26  1  0  0  0  0
 20 16  1  0  0  0  0
 21 19  1  0  0  0  0
 23 12  1  0  0  0  0
 24  4  1  0  0  0  0
 25 20  1  0  0  0  0
 27 16  2  0  0  0  0
 27  1  1  0  0  0  0
 28  6  1  0  0  0  0
M  END
>  <MODEL>
1

>  <REMARK>
 VINA RESULT:      -9.2      0.000      0.000
  Name = 
  0 active torsions:
  status: ('A' for Active; 'I' for Inactive)
                            x       y       z     vdW  Elec       q    Type
                         _______ _______ _______ _____ _____    ______ ____

>  <TORSDO>
F 0

$$$$
=
 OpenBabel11052413263D

 28 33  0  0  1  0  0  0  0  0999 V2000
  183.8890  177.2700  138.4720 C   0  0  1  0  0  3  0  0  0  0  0  0
  182.5080  177.9000  138.7550 C   0  0  1  0  0  3  0  0  0  0  0  0
  183.5240  178.1030  141.1110 C   0  0  2  0  0  3  0  0  0  0  0  0
  186.7830  177.5350  143.4560 C   0  0  0  0  0  3  0  0  0  0  0  0
  187.8730  176.9110  137.1560 N   0  0  0  0  0  1  0  0  0  0  0  0
  181.6100  180.0840  138.8840 C   0  0  2  0  0  3  0  0  0  0  0  0
  182.3210  178.3960  140.1980 C   0  0  1  0  0  3  0  0  0  0  0  0
  181.2770  178.7900  136.8010 C   0  0  0  0  0  1  0  0  0  0  0  0
  184.3710  178.9990  144.6360 C   0  0  0  0  0  3  0  0  0  0  0  0
  185.9900  178.3590  141.3480 N   0  0  0  0  0  0  0  0  0  0  0  0
  182.2500  179.1220  137.9180 C   0  0  2  0  0  3  0  0  0  0  0  0
  186.4820  178.3080  145.7720 C   0  0  0  0  0  0  0  0  0  0  0  0
  185.8150  178.1540  142.7660 C   0  0  0  0  0  0  0  0  0  0  0  0
  183.3060  178.6890  142.5020 C   0  0  0  0  0  2  0  0  0  0  0  0
  185.4080  179.0900  145.6810 C   0  0  0  0  0  3  0  0  0  0  0  0
  186.2580  178.0840  138.5610 C   0  0  0  0  0  0  0  0  0  0  0  0
  184.8210  178.6420  140.4900 C   0  0  1  0  0  3  0  0  0  0  0  0
  184.5100  178.5400  143.3830 C   0  0  0  0  0  0  0  0  0  0  0  0
  185.5210  176.4410  136.7850 C   0  0  0  0  0  2  0  0  0  0  0  0
  187.3440  178.8110  139.3050 C   0  0  0  0  0  2  0  0  0  0  0  0
  186.5430  177.4980  137.1930 C   0  0  2  0  0  3  0  0  0  0  0  0
  182.0070  181.5060  138.5360 C   0  0  0  0  0  1  0  0  0  0  0  0
  187.3650  178.5180  146.7770 F   0  0  0  0  0  0  0  0  0  0  0  0
  186.6690  177.1270  144.8860 C   0  0  0  0  0  2  0  0  0  0  0  0
  187.3480  178.3760  140.7730 C   0  0  0  0  0  2  0  0  0  0  0  0
  184.1130  176.9770  136.9880 C   0  0  0  0  0  2  0  0  0  0  0  0
  185.0240  178.0500  139.1100 C   0  0  0  0  0  0  0  0  0  0  0  0
  182.0450  179.7790  140.1810 O   0  0  0  0  0  0  0  0  0  0  0  0
  1 26  1  6  0  0  0
  1  2  1  0  0  0  0
  1 27  1  0  0  0  0
  2  7  1  0  0  0  0
  3 14  1  0  0  0  0
  4 24  1  0  0  0  0
  5 21  1  0  0  0  0
  6 28  1  0  0  0  0
  7  3  1  0  0  0  0
  8 11  1  0  0  0  0
  9 15  1  0  0  0  0
 10 13  1  0  0  0  0
 11  2  1  0  0  0  0
 11  6  1  0  0  0  0
 12 23  1  0  0  0  0
 13 18  1  0  0  0  0
 13  4  2  0  0  0  0
 14 18  1  0  0  0  0
 15 12  2  0  0  0  0
 16 27  2  0  0  0  0
 16 20  1  0  0  0  0
 17  3  1  0  0  0  0
 17 10  1  0  0  0  0
 18  9  2  0  0  0  0
 19 26  1  0  0  0  0
 19 21  1  0  0  0  0
 20 25  1  0  0  0  0
 21 16  1  0  0  0  0
 22  6  1  0  0  0  0
 24 12  1  0  0  0  0
 25 10  1  0  0  0  0
 27 17  1  0  0  0  0
 28  7  1  0  0  0  0
M  END
>  <MODEL>
2

>  <REMARK>
 VINA RESULT:      -8.0      3.791      7.946
  Name = 
  0 active torsions:
  status: ('A' for Active; 'I' for Inactive)
                            x       y       z     vdW  Elec       q    Type
                         _______ _______ _______ _____ _____    ______ ____

>  <TORSDO>
F 0

$$$$
=
 OpenBabel11052413263D

 28 33  0  0  1  0  0  0  0  0999 V2000
  185.6270  179.1460  143.0090 C   0  0  1  0  0  3  0  0  0  0  0  0
  184.7840  179.3260  141.7280 C   0  0  1  0  0  3  0  0  0  0  0  0
  187.0100  178.6280  140.6400 C   0  0  2  0  0  3  0  0  0  0  0  0
  190.8370  177.4230  141.2270 C   0  0  0  0  0  3  0  0  0  0  0  0
  187.1740  177.3780  146.5040 N   0  0  0  0  0  1  0  0  0  0  0  0
  183.5580  177.9290  140.2670 C   0  0  2  0  0  3  0  0  0  0  0  0
  185.5340  179.0030  140.4250 C   0  0  1  0  0  3  0  0  0  0  0  0
  182.3280  179.2030  141.9940 C   0  0  0  0  0  1  0  0  0  0  0  0
  189.7280  177.4290  138.3770 C   0  0  0  0  0  3  0  0  0  0  0  0
  188.5520  177.1280  141.8940 N   0  0  0  0  0  0  0  0  0  0  0  0
  183.5890  178.4160  141.6920 C   0  0  2  0  0  3  0  0  0  0  0  0
  192.0470  176.9230  139.1440 C   0  0  0  0  0  0  0  0  0  0  0  0
  189.5430  177.3970  140.8790 C   0  0  0  0  0  0  0  0  0  0  0  0
  187.6710  178.2440  139.3200 C   0  0  0  0  0  2  0  0  0  0  0  0
  191.0630  176.8130  138.2550 C   0  0  0  0  0  3  0  0  0  0  0  0
  186.8050  177.2190  144.0960 C   0  0  0  0  0  0  0  0  0  0  0  0
  187.1400  177.4930  141.6650 C   0  0  1  0  0  3  0  0  0  0  0  0
  189.0740  177.7470  139.5040 C   0  0  0  0  0  0  0  0  0  0  0  0
  185.6810  179.0030  145.4930 C   0  0  0  0  0  2  0  0  0  0  0  0
  187.7230  176.0340  143.9740 C   0  0  0  0  0  2  0  0  0  0  0  0
  186.2000  177.5680  145.4410 C   0  0  2  0  0  3  0  0  0  0  0  0
  183.0310  176.5070  140.2180 C   0  0  0  0  0  1  0  0  0  0  0  0
  193.2190  176.2860  138.9100 F   0  0  0  0  0  0  0  0  0  0  0  0
  191.9460  177.8330  140.3180 C   0  0  0  0  0  2  0  0  0  0  0  0
  188.9380  176.4060  143.1210 C   0  0  0  0  0  2  0  0  0  0  0  0
  184.7980  179.2770  144.2870 C   0  0  0  0  0  2  0  0  0  0  0  0
  186.4790  177.8900  142.9700 C   0  0  0  0  0  0  0  0  0  0  0  0
  184.8600  177.9650  139.7480 O   0  0  0  0  0  0  0  0  0  0  0  0
  1 26  1  1  0  0  0
  2  1  1  0  0  0  0
  3 17  1  0  0  0  0
  6 11  1  0  0  0  0
  7  3  1  0  0  0  0
  7  2  1  0  0  0  0
  9 18  2  0  0  0  0
 10 25  1  0  0  0  0
 11  2  1  0  0  0  0
 11  8  1  0  0  0  0
 12 24  1  0  0  0  0
 13  4  2  0  0  0  0
 13 10  1  0  0  0  0
 14 18  1  0  0  0  0
 14  3  1  0  0  0  0
 15  9  1  0  0  0  0
 15 12  2  0  0  0  0
 16 21  1  0  0  0  0
 17 10  1  0  0  0  0
 17 27  1  0  0  0  0
 18 13  1  0  0  0  0
 20 16  1  0  0  0  0
 21 19  1  0  0  0  0
 21  5  1  0  0  0  0
 22  6  1  0  0  0  0
 23 12  1  0  0  0  0
 24  4  1  0  0  0  0
 25 20  1  0  0  0  0
 26 19  1  0  0  0  0
 27  1  1  0  0  0  0
 27 16  2  0  0  0  0
 28  6  1  0  0  0  0
 28  7  1  0  0  0  0
M  END
>  <MODEL>
3

>  <REMARK>
 VINA RESULT:      -7.3      2.708      5.020
  Name = 
  0 active torsions:
  status: ('A' for Active; 'I' for Inactive)
                            x       y       z     vdW  Elec       q    Type
                         _______ _______ _______ _____ _____    ______ ____

>  <TORSDO>
F 0

$$$$
=
 OpenBabel11052413263D

 28 33  0  0  1  0  0  0  0  0999 V2000
  187.8380  176.9700  145.2090 C   0  0  1  0  0  3  0  0  0  0  0  0
  189.2260  176.8600  144.5400 C   0  0  1  0  0  3  0  0  0  0  0  0
  187.8130  177.3350  142.4420 C   0  0  2  0  0  3  0  0  0  0  0  0
  184.1360  178.1760  140.9510 C   0  0  0  0  0  3  0  0  0  0  0  0
  184.6010  178.6110  147.3430 N   0  0  0  0  0  1  0  0  0  0  0  0
  190.9110  178.3560  143.8230 C   0  0  2  0  0  3  0  0  0  0  0  0
  189.2180  177.1000  143.0210 C   0  0  1  0  0  3  0  0  0  0  0  0
  191.1900  177.2170  146.0020 C   0  0  0  0  0  1  0  0  0  0  0  0
  186.5350  178.2530  139.0550 C   0  0  0  0  0  3  0  0  0  0  0  0
  185.7370  178.6920  142.6620 N   0  0  0  0  0  0  0  0  0  0  0  0
  190.1990  177.8790  145.0620 C   0  0  2  0  0  3  0  0  0  0  0  0
  184.1160  178.5430  138.5190 C   0  0  0  0  0  0  0  0  0  0  0  0
  185.4220  178.3230  141.3030 C   0  0  0  0  0  0  0  0  0  0  0  0
  187.8850  177.6440  140.9500 C   0  0  0  0  0  2  0  0  0  0  0  0
  185.4040  178.7380  138.2420 C   0  0  0  0  0  3  0  0  0  0  0  0
  186.1260  178.7850  145.4460 C   0  0  0  0  0  0  0  0  0  0  0  0
  187.0930  178.4610  143.1980 C   0  0  1  0  0  3  0  0  0  0  0  0
  186.5490  178.0070  140.3740 C   0  0  0  0  0  0  0  0  0  0  0  0
  186.5210  177.1270  147.3150 C   0  0  0  0  0  2  0  0  0  0  0  0
  185.3080  179.8760  144.8120 C   0  0  0  0  0  2  0  0  0  0  0  0
  185.9900  178.5050  146.9290 C   0  0  2  0  0  3  0  0  0  0  0  0
  191.2770  179.8200  143.9690 C   0  0  0  0  0  1  0  0  0  0  0  0
  183.1800  179.0640  137.6900 F   0  0  0  0  0  0  0  0  0  0  0  0
  183.6780  177.6560  139.6310 C   0  0  0  0  0  2  0  0  0  0  0  0
  184.7270  179.3840  143.4850 C   0  0  0  0  0  2  0  0  0  0  0  0
  187.9120  176.9280  146.7360 C   0  0  0  0  0  2  0  0  0  0  0  0
  187.0290  178.1390  144.6760 C   0  0  0  0  0  0  0  0  0  0  0  0
  190.0590  178.1920  142.7210 O   0  0  0  0  0  0  0  0  0  0  0  0
  1 26  1  1  0  0  0
  2 11  1  0  0  0  0
  2  1  1  0  0  0  0
  3  7  1  0  0  0  0
  3 17  1  0  0  0  0
  4 13  2  0  0  0  0
  6 22  1  0  0  0  0
  6 11  1  0  0  0  0
  7  2  1  0  0  0  0
  9 18  2  0  0  0  0
 10 17  1  0  0  0  0
 10 25  1  0  0  0  0
 11  8  1  0  0  0  0
 12 24  1  0  0  0  0
 13 10  1  0  0  0  0
 14  3  1  0  0  0  0
 15 12  2  0  0  0  0
 15  9  1  0  0  0  0
 16 21  1  0  0  0  0
 17 27  1  0  0  0  0
 18 14  1  0  0  0  0
 18 13  1  0  0  0  0
 20 16  1  0  0  0  0
 21 19  1  0  0  0  0
 21  5  1  0  0  0  0
 23 12  1  0  0  0  0
 24  4  1  0  0  0  0
 25 20  1  0  0  0  0
 26 19  1  0  0  0  0
 27  1  1  0  0  0  0
 27 16  2  0  0  0  0
 28  7  1  0  0  0  0
 28  6  1  0  0  0  0
M  END
>  <MODEL>
4

>  <REMARK>
 VINA RESULT:      -6.9      1.763      2.321
  Name = 
  0 active torsions:
  status: ('A' for Active; 'I' for Inactive)
                            x       y       z     vdW  Elec       q    Type
                         _______ _______ _______ _____ _____    ______ ____

>  <TORSDO>
F 0

$$$$
=
 OpenBabel11052413263D

 28 33  0  0  1  0  0  0  0  0999 V2000
  190.8000  176.8550  138.0690 C   0  0  1  0  0  3  0  0  0  0  0  0
  190.4920  177.7160  139.3140 C   0  0  1  0  0  3  0  0  0  0  0  0
  188.1430  177.6910  138.2620 C   0  0  2  0  0  3  0  0  0  0  0  0
  185.7860  176.3060  135.2660 C   0  0  0  0  0  3  0  0  0  0  0  0
  191.5230  173.4480  135.7020 N   0  0  0  0  0  1  0  0  0  0  0  0
  189.5990  177.3560  141.4740 C   0  0  2  0  0  3  0  0  0  0  0  0
  189.0200  178.1430  139.4420 C   0  0  1  0  0  3  0  0  0  0  0  0
  192.0560  177.5030  141.2190 C   0  0  0  0  0  1  0  0  0  0  0  0
  184.4830  177.8780  137.5430 C   0  0  0  0  0  3  0  0  0  0  0  0
  187.4490  175.7280  136.8950 N   0  0  0  0  0  0  0  0  0  0  0  0
  190.7700  176.9890  140.6000 C   0  0  2  0  0  3  0  0  0  0  0  0
  183.4350  177.0030  135.4560 C   0  0  0  0  0  0  0  0  0  0  0  0
  186.2920  176.4920  136.4940 C   0  0  0  0  0  0  0  0  0  0  0  0
  186.6850  178.0770  138.4890 C   0  0  0  0  0  2  0  0  0  0  0  0
  183.3520  177.4090  136.7210 C   0  0  0  0  0  3  0  0  0  0  0  0
  190.0190  174.6300  137.2180 C   0  0  0  0  0  0  0  0  0  0  0  0
  188.2770  176.1780  138.0330 C   0  0  1  0  0  3  0  0  0  0  0  0
  185.7760  177.5400  137.4250 C   0  0  0  0  0  0  0  0  0  0  0  0
  192.4090  175.3830  136.8710 C   0  0  0  0  0  2  0  0  0  0  0  0
  188.8840  173.6900  136.9200 C   0  0  0  0  0  2  0  0  0  0  0  0
  191.4460  174.2000  136.9440 C   0  0  2  0  0  3  0  0  0  0  0  0
  189.2550  176.1980  142.3900 C   0  0  0  0  0  1  0  0  0  0  0  0
  182.3130  176.5800  134.8270 F   0  0  0  0  0  0  0  0  0  0  0  0
  184.6940  177.1290  134.6720 C   0  0  0  0  0  2  0  0  0  0  0  0
  187.7510  174.4500  136.2250 C   0  0  0  0  0  2  0  0  0  0  0  0
  192.2170  176.2820  138.0810 C   0  0  0  0  0  2  0  0  0  0  0  0
  189.7290  175.8110  137.8080 C   0  0  0  0  0  0  0  0  0  0  0  0
  188.4990  177.6510  140.6550 O   0  0  0  0  0  0  0  0  0  0  0  0
  1 26  1  1  0  0  0
  1  2  1  0  0  0  0
  2  7  1  0  0  0  0
  2 11  1  0  0  0  0
  3 14  1  0  0  0  0
  3  7  1  0  0  0  0
  4 13  2  0  0  0  0
  5 21  1  0  0  0  0
  6 22  1  0  0  0  0
  7 28  1  0  0  0  0
 10 17  1  0  0  0  0
 11  8  1  0  0  0  0
 11  6  1  0  0  0  0
 12 15  2  0  0  0  0
 13 10  1  0  0  0  0
 13 18  1  0  0  0  0
 15  9  1  0  0  0  0
 16 27  2  0  0  0  0
 17  3  1  0  0  0  0
 18  9  2  0  0  0  0
 18 14  1  0  0  0  0
 19 21  1  0  0  0  0
 19 26  1  0  0  0  0
 20 16  1  0  0  0  0
 21 16  1  0  0  0  0
 23 12  1  0  0  0  0
 24  4  1  0  0  0  0
 24 12  1  0  0  0  0
 25 10  1  0  0  0  0
 25 20  1  0  0  0  0
 27 17  1  0  0  0  0
 27  1  1  0  0  0  0
 28  6  1  0  0  0  0
M  END
>  <MODEL>
5

>  <REMARK>
 VINA RESULT:      -6.9      3.419      6.235
  Name = 
  0 active torsions:
  status: ('A' for Active; 'I' for Inactive)
                            x       y       z     vdW  Elec       q    Type
                         _______ _______ _______ _____ _____    ______ ____

>  <TORSDO>
F 0

$$$$
=
 OpenBabel11052413263D

 28 33  0  0  1  0  0  0  0  0999 V2000
  190.4800  175.8790  137.9330 C   0  0  1  0  0  3  0  0  0  0  0  0
  189.0800  176.5030  137.7440 C   0  0  1  0  0  3  0  0  0  0  0  0
  189.3130  176.8210  140.2880 C   0  0  2  0  0  3  0  0  0  0  0  0
  191.6800  176.3950  143.5530 C   0  0  0  0  0  3  0  0  0  0  0  0
  194.6750  175.5160  137.9380 N   0  0  0  0  0  1  0  0  0  0  0  0
  188.1890  178.6790  137.4900 C   0  0  2  0  0  3  0  0  0  0  0  0
  188.4540  177.0580  139.0340 C   0  0  1  0  0  3  0  0  0  0  0  0
  188.5190  177.2920  135.4670 C   0  0  0  0  0  1  0  0  0  0  0  0
  189.0230  177.8780  143.8580 C   0  0  0  0  0  3  0  0  0  0  0  0
  191.5830  177.1180  141.2680 N   0  0  0  0  0  0  0  0  0  0  0  0
  189.0970  177.6840  136.8140 C   0  0  2  0  0  3  0  0  0  0  0  0
  190.6740  177.2640  145.6230 C   0  0  0  0  0  0  0  0  0  0  0  0
  190.9760  176.9720  142.5690 C   0  0  0  0  0  0  0  0  0  0  0  0
  188.6740  177.4630  141.5150 C   0  0  0  0  0  2  0  0  0  0  0  0
  189.6840  178.0280  145.1680 C   0  0  0  0  0  3  0  0  0  0  0  0
  192.7050  176.7270  138.7180 C   0  0  0  0  0  0  0  0  0  0  0  0
  190.7400  177.3480  140.0780 C   0  0  1  0  0  3  0  0  0  0  0  0
  189.5440  177.3670  142.7320 C   0  0  0  0  0  0  0  0  0  0  0  0
  192.5550  174.9990  136.8770 C   0  0  0  0  0  2  0  0  0  0  0  0
  193.5060  177.4990  139.7290 C   0  0  0  0  0  2  0  0  0  0  0  0
  193.4010  176.0860  137.5340 C   0  0  2  0  0  3  0  0  0  0  0  0
  188.6760  180.0890  137.2190 C   0  0  0  0  0  1  0  0  0  0  0  0
  191.2010  177.5290  146.8420 F   0  0  0  0  0  0  0  0  0  0  0  0
  191.1270  176.0480  144.8940 C   0  0  0  0  0  2  0  0  0  0  0  0
  193.0530  177.1280  141.1430 C   0  0  0  0  0  2  0  0  0  0  0  0
  191.1550  175.5250  136.6070 C   0  0  0  0  0  2  0  0  0  0  0  0
  191.3610  176.7010  138.8570 C   0  0  0  0  0  0  0  0  0  0  0  0
  188.1990  178.4350  138.8700 O   0  0  0  0  0  0  0  0  0  0  0  0
  1 26  1  6  0  0  0
  1 27  1  0  0  0  0
  2  1  1  0  0  0  0
  2  7  1  0  0  0  0
  3 14  1  0  0  0  0
  4 24  1  0  0  0  0
  6 28  1  0  0  0  0
  7  3  1  0  0  0  0
  8 11  1  0  0  0  0
  9 15  1  0  0  0  0
 10 13  1  0  0  0  0
 11  6  1  0  0  0  0
 11  2  1  0  0  0  0
 12 23  1  0  0  0  0
 13 18  1  0  0  0  0
 13  4  2  0  0  0  0
 14 18  1  0  0  0  0
 15 12  2  0  0  0  0
 16 27  2  0  0  0  0
 16 20  1  0  0  0  0
 17  3  1  0  0  0  0
 17 10  1  0  0  0  0
 18  9  2  0  0  0  0
 19 21  1  0  0  0  0
 20 25  1  0  0  0  0
 21  5  1  0  0  0  0
 21 16  1  0  0  0  0
 22  6  1  0  0  0  0
 24 12  1  0  0  0  0
 25 10  1  0  0  0  0
 26 19  1  0  0  0  0
 27 17  1  0  0  0  0
 28  7  1  0  0  0  0
M  END
>  <MODEL>
6

>  <REMARK>
 VINA RESULT:      -6.8      3.790      7.899
  Name = 
  0 active torsions:
  status: ('A' for Active; 'I' for Inactive)
                            x       y       z     vdW  Elec       q    Type
                         _______ _______ _______ _____ _____    ______ ____

>  <TORSDO>
F 0

$$$$
=
 OpenBabel11052413263D

 28 33  0  0  1  0  0  0  0  0999 V2000
  188.4820  176.6850  145.9840 C   0  0  1  0  0  3  0  0  0  0  0  0
  189.2230  176.6310  144.6300 C   0  0  1  0  0  3  0  0  0  0  0  0
  186.9190  177.4120  143.7880 C   0  0  2  0  0  3  0  0  0  0  0  0
  183.1490  178.5300  144.7800 C   0  0  0  0  0  3  0  0  0  0  0  0
  187.2120  178.1080  149.7380 N   0  0  0  0  0  1  0  0  0  0  0  0
  190.3320  178.1680  143.2160 C   0  0  2  0  0  3  0  0  0  0  0  0
  188.3750  177.0700  143.4250 C   0  0  1  0  0  3  0  0  0  0  0  0
  191.6930  176.7460  144.7160 C   0  0  0  0  0  1  0  0  0  0  0  0
  184.0340  178.7980  141.8640 C   0  0  0  0  0  3  0  0  0  0  0  0
  185.4800  178.7780  145.2920 N   0  0  0  0  0  0  0  0  0  0  0  0
  190.4120  177.5490  144.5870 C   0  0  2  0  0  3  0  0  0  0  0  0
  181.7820  179.2140  142.8520 C   0  0  0  0  0  0  0  0  0  0  0  0
  184.4130  178.5980  144.3370 C   0  0  0  0  0  0  0  0  0  0  0  0
  186.1580  177.9140  142.5650 C   0  0  0  0  0  2  0  0  0  0  0  0
  182.6940  179.4130  141.9040 C   0  0  0  0  0  3  0  0  0  0  0  0
  187.3930  178.4940  147.3350 C   0  0  0  0  0  0  0  0  0  0  0  0
  186.8700  178.4460  144.9220 C   0  0  1  0  0  3  0  0  0  0  0  0
  184.7740  178.3810  142.9030 C   0  0  0  0  0  0  0  0  0  0  0  0
  188.6220  176.5950  148.4670 C   0  0  0  0  0  2  0  0  0  0  0  0
  186.4680  179.6790  147.3950 C   0  0  0  0  0  2  0  0  0  0  0  0
  188.1000  178.0250  148.5900 C   0  0  2  0  0  3  0  0  0  0  0  0
  190.8540  179.5910  143.2600 C   0  0  0  0  0  1  0  0  0  0  0  0
  180.5960  179.8620  142.7700 F   0  0  0  0  0  0  0  0  0  0  0  0
  181.9740  178.1990  143.9240 C   0  0  0  0  0  2  0  0  0  0  0  0
  185.1910  179.3790  146.6070 C   0  0  0  0  0  2  0  0  0  0  0  0
  189.4080  176.4410  147.1760 C   0  0  0  0  0  2  0  0  0  0  0  0
  187.6300  177.9330  146.1280 C   0  0  0  0  0  0  0  0  0  0  0  0
  188.9940  178.1710  142.7980 O   0  0  0  0  0  0  0  0  0  0  0  0
  1 27  1  0  0  0  0
  1 26  1  1  0  0  0
  2  1  1  0  0  0  0
  3 17  1  0  0  0  0
  6 22  1  0  0  0  0
  6 11  1  0  0  0  0
  7  3  1  0  0  0  0
  7  2  1  0  0  0  0
  9 15  1  0  0  0  0
  9 18  2  0  0  0  0
 10 25  1  0  0  0  0
 11  2  1  0  0  0  0
 11  8  1  0  0  0  0
 12 24  1  0  0  0  0
 13  4  2  0  0  0  0
 13 10  1  0  0  0  0
 14 18  1  0  0  0  0
 14  3  1  0  0  0  0
 15 12  2  0  0  0  0
 16 20  1  0  0  0  0
 16 21  1  0  0  0  0
 17 10  1  0  0  0  0
 17 27  1  0  0  0  0
 18 13  1  0  0  0  0
 19 21  1  0  0  0  0
 21  5  1  0  0  0  0
 23 12  1  0  0  0  0
 24  4  1  0  0  0  0
 25 20  1  0  0  0  0
 26 19  1  0  0  0  0
 27 16  2  0  0  0  0
 28  6  1  0  0  0  0
 28  7  1  0  0  0  0
M  END
>  <MODEL>
7

>  <REMARK>
 VINA RESULT:      -6.6      3.564      5.021
  Name = 
  0 active torsions:
  status: ('A' for Active; 'I' for Inactive)
                            x       y       z     vdW  Elec       q    Type
                         _______ _______ _______ _____ _____    ______ ____

>  <TORSDO>
F 0

$$$$
