=
 OpenBabel11052414353D

 32 36  0  0  1  0  0  0  0  0999 V2000
  182.5530  178.7950  140.1380 C   0  0  0  0  0  0  0  0  0  0  0  0
  181.7910  179.2180  142.5030 C   0  0  2  0  0  3  0  0  0  0  0  0
  183.5690  178.6960  139.1820 C   0  0  0  0  0  3  0  0  0  0  0  0
  182.8770  178.9720  141.4900 C   0  0  0  0  0  0  0  0  0  0  0  0
  182.1240  178.5830  143.8400 C   0  0  0  0  0  2  0  0  0  0  0  0
  180.3550  178.9190  142.0400 C   0  0  0  0  0  2  0  0  0  0  0  0
  184.2290  178.9880  141.8930 C   0  0  0  0  0  0  0  0  0  0  0  0
  184.6260  178.9660  143.3470 C   0  0  0  0  0  2  0  0  0  0  0  0
  185.2360  178.8820  140.9270 C   0  0  0  0  0  3  0  0  0  0  0  0
  180.2500  178.1100  140.8170 N   0  0  0  0  0  0  0  0  0  0  0  0
  181.1210  178.5900  139.7300 C   0  0  1  0  0  3  0  0  0  0  0  0
  183.4500  179.1800  144.3220 C   0  0  2  0  0  3  0  0  0  0  0  0
  184.9090  178.7550  139.5750 C   0  0  0  0  0  3  0  0  0  0  0  0
  180.7260  180.3650  136.5690 C   0  0  0  0  0  0  0  0  0  0  0  0
  179.5290  183.6990  137.3480 F   0  0  0  0  0  0  0  0  0  0  0  0
  181.4050  179.7760  135.5530 F   0  0  0  0  0  0  0  0  0  0  0  0
  179.9310  182.1030  138.9290 N   0  0  0  0  0  0  0  0  0  0  0  0
  180.4960  179.7050  138.9330 C   0  0  0  0  0  0  0  0  0  0  0  0
  180.6740  181.6930  136.6240 C   0  0  0  0  0  3  0  0  0  0  0  0
  180.4180  180.8930  139.5380 C   0  0  0  0  0  3  0  0  0  0  0  0
  179.9640  179.5230  137.5370 C   0  0  2  0  0  3  0  0  0  0  0  0
  179.9630  178.2020  137.1300 F   0  0  0  0  0  0  0  0  0  0  0  0
  179.9900  182.4680  137.6800 C   0  0  0  0  0  0  0  0  0  0  0  0
  183.7650  178.8320  145.6540 O   0  0  0  0  0  0  0  0  0  0  0  0
  185.1600  178.8640  145.8130 C   0  0  0  0  0  1  0  0  0  0  0  0
  180.5740  176.7220  141.1340 C   0  0  0  0  0  2  0  0  0  0  0  0
  178.9310  176.1900  139.3590 C   0  0  0  0  0  2  0  0  0  0  0  0
  179.4920  173.8860  139.4110 C   0  0  0  0  0  2  0  0  0  0  0  0
  179.8800  174.4200  140.7070 N   0  0  0  0  0  0  0  0  0  0  0  0
  179.1190  173.6950  141.7080 C   0  0  0  0  0  1  0  0  0  0  0  0
  179.3370  175.0510  138.4670 C   0  0  0  0  0  2  0  0  0  0  0  0
  179.4230  175.8080  140.7410 C   0  0  1  0  0  3  0  0  0  0  0  0
  1  4  1  0  0  0  0
  2  6  1  6  0  0  0
  2  5  1  0  0  0  0
  3 13  1  0  0  0  0
  3  1  2  0  0  0  0
  4  7  2  0  0  0  0
  4  2  1  0  0  0  0
  5 12  1  0  0  0  0
  7  8  1  0  0  0  0
  8 12  1  0  0  0  0
  9  7  1  0  0  0  0
 10 26  1  0  0  0  0
 10  6  1  0  0  0  0
 11 18  1  1  0  0  0
 11  1  1  0  0  0  0
 11 10  1  0  0  0  0
 12 24  1  1  0  0  0
 13  9  2  0  0  0  0
 14 19  2  0  0  0  0
 14 21  1  0  0  0  0
 15 23  1  0  0  0  0
 16 14  1  0  0  0  0
 17 20  1  0  0  0  0
 18 20  2  0  0  0  0
 19 23  1  0  0  0  0
 21 22  1  6  0  0  0
 21 18  1  0  0  0  0
 23 17  2  0  0  0  0
 24 25  1  0  0  0  0
 27 32  1  0  0  0  0
 28 29  1  0  0  0  0
 29 32  1  0  0  0  0
 29 30  1  0  0  0  0
 31 27  1  0  0  0  0
 31 28  1  0  0  0  0
 32 26  1  6  0  0  0
M  END
>  <MODEL>
1

>  <REMARK>
 VINA RESULT:      -6.6      0.000      0.000
  Name = 
  4 active torsions:
  status: ('A' for Active; 'I' for Inactive)
    1  A    between atoms: O_13  and  C_29
    2  A    between atoms: C_16  and  C_27
    3  A    between atoms: N_24  and  C_28
    4  A    between atoms: C_28  and  C_32
                            x       y       z     vdW  Elec       q    Type
                         _______ _______ _______ _____ _____    ______ ____

>  <TORSDO>
F 4

$$$$
=
 OpenBabel11052414353D

 32 36  0  0  1  0  0  0  0  0999 V2000
  182.7990  177.7050  139.7090 C   0  0  0  0  0  0  0  0  0  0  0  0
  181.9440  179.8210  138.6400 C   0  0  2  0  0  3  0  0  0  0  0  0
  182.6310  176.3630  140.0650 C   0  0  0  0  0  3  0  0  0  0  0  0
  181.8400  178.3440  138.9120 C   0  0  0  0  0  0  0  0  0  0  0  0
  181.4520  180.1660  137.2480 C   0  0  0  0  0  2  0  0  0  0  0  0
  183.2940  180.4770  138.9770 C   0  0  0  0  0  2  0  0  0  0  0  0
  180.7370  177.6150  138.4180 C   0  0  0  0  0  0  0  0  0  0  0  0
  179.7950  178.1950  137.3940 C   0  0  0  0  0  2  0  0  0  0  0  0
  180.5840  176.2720  138.7780 C   0  0  0  0  0  3  0  0  0  0  0  0
  184.4090  179.5400  139.1820 N   0  0  0  0  0  0  0  0  0  0  0  0
  184.0670  178.4230  140.0800 C   0  0  1  0  0  3  0  0  0  0  0  0
  179.9950  179.7040  137.1400 C   0  0  2  0  0  3  0  0  0  0  0  0
  181.5160  175.6520  139.6130 C   0  0  0  0  0  3  0  0  0  0  0  0
  185.9070  178.1300  143.2150 C   0  0  0  0  0  0  0  0  0  0  0  0
  183.6150  178.9850  145.8920 F   0  0  0  0  0  0  0  0  0  0  0  0
  187.0390  177.3960  143.0860 F   0  0  0  0  0  0  0  0  0  0  0  0
  183.0420  179.0220  143.6840 N   0  0  0  0  0  0  0  0  0  0  0  0
  184.2220  178.7780  141.5350 C   0  0  0  0  0  0  0  0  0  0  0  0
  185.1890  178.0170  144.3280 C   0  0  0  0  0  3  0  0  0  0  0  0
  183.1040  178.7870  142.2650 C   0  0  0  0  0  3  0  0  0  0  0  0
  185.5460  179.1250  142.1620 C   0  0  2  0  0  3  0  0  0  0  0  0
  186.5660  179.2380  141.2360 F   0  0  0  0  0  0  0  0  0  0  0  0
  183.9280  178.7390  144.5960 C   0  0  0  0  0  0  0  0  0  0  0  0
  179.3530  180.1570  135.9670 O   0  0  0  0  0  0  0  0  0  0  0  0
  180.2320  180.9980  135.2640 C   0  0  0  0  0  1  0  0  0  0  0  0
  184.8380  179.0200  137.8870 C   0  0  0  0  0  2  0  0  0  0  0  0
  185.4530  176.7100  137.2400 C   0  0  0  0  0  2  0  0  0  0  0  0
  187.6690  177.3590  136.7030 C   0  0  0  0  0  2  0  0  0  0  0  0
  187.1750  178.3610  137.6330 N   0  0  0  0  0  0  0  0  0  0  0  0
  188.0500  178.3290  138.7920 C   0  0  0  0  0  1  0  0  0  0  0  0
  186.4750  176.6300  136.1420 C   0  0  0  0  0  2  0  0  0  0  0  0
  185.8580  177.9080  138.0760 C   0  0  1  0  0  3  0  0  0  0  0  0
  1  3  1  0  0  0  0
  1 11  1  0  0  0  0
  2  5  1  6  0  0  0
  2  4  1  0  0  0  0
  2  6  1  0  0  0  0
  4  1  2  0  0  0  0
  6 10  1  0  0  0  0
  7  9  2  0  0  0  0
  7  4  1  0  0  0  0
  8  7  1  0  0  0  0
  9 13  1  0  0  0  0
 10 11  1  0  0  0  0
 11 18  1  1  0  0  0
 12 24  1  6  0  0  0
 12  5  1  0  0  0  0
 12  8  1  0  0  0  0
 13  3  2  0  0  0  0
 14 19  2  0  0  0  0
 16 14  1  0  0  0  0
 17 23  2  0  0  0  0
 18 21  1  0  0  0  0
 18 20  2  0  0  0  0
 19 23  1  0  0  0  0
 20 17  1  0  0  0  0
 21 22  1  6  0  0  0
 21 14  1  0  0  0  0
 23 15  1  0  0  0  0
 25 24  1  0  0  0  0
 26 10  1  0  0  0  0
 27 32  1  0  0  0  0
 28 29  1  0  0  0  0
 29 32  1  0  0  0  0
 29 30  1  0  0  0  0
 31 28  1  0  0  0  0
 31 27  1  0  0  0  0
 32 26  1  6  0  0  0
M  END
>  <MODEL>
2

>  <REMARK>
 VINA RESULT:      -6.6      4.146      7.299
  Name = 
  4 active torsions:
  status: ('A' for Active; 'I' for Inactive)
    1  A    between atoms: O_13  and  C_29
    2  A    between atoms: C_16  and  C_27
    3  A    between atoms: N_24  and  C_28
    4  A    between atoms: C_28  and  C_32
                            x       y       z     vdW  Elec       q    Type
                         _______ _______ _______ _____ _____    ______ ____

>  <TORSDO>
F 4

$$$$
=
 OpenBabel11052414353D

 32 36  0  0  1  0  0  0  0  0999 V2000
  182.9710  179.7350  139.2730 C   0  0  0  0  0  0  0  0  0  0  0  0
  181.9760  178.0990  140.9120 C   0  0  2  0  0  3  0  0  0  0  0  0
  182.8430  180.8250  138.4060 C   0  0  0  0  0  3  0  0  0  0  0  0
  181.8920  179.3510  140.0820 C   0  0  0  0  0  0  0  0  0  0  0  0
  181.2350  178.2540  142.2270 C   0  0  0  0  0  2  0  0  0  0  0  0
  183.3800  177.4950  141.0840 C   0  0  0  0  0  2  0  0  0  0  0  0
  180.6990  180.1050  140.0650 C   0  0  0  0  0  0  0  0  0  0  0  0
  179.5930  179.8630  141.0600 C   0  0  0  0  0  2  0  0  0  0  0  0
  180.5860  181.1960  139.1970 C   0  0  0  0  0  3  0  0  0  0  0  0
  184.4920  178.3890  140.7260 N   0  0  0  0  0  0  0  0  0  0  0  0
  184.3020  179.0530  139.4250 C   0  0  1  0  0  3  0  0  0  0  0  0
  179.7740  178.5840  141.9030 C   0  0  2  0  0  3  0  0  0  0  0  0
  181.6470  181.5450  138.3580 C   0  0  0  0  0  3  0  0  0  0  0  0
  184.1490  175.8960  137.6060 C   0  0  0  0  0  0  0  0  0  0  0  0
  187.1610  175.6620  135.6000 F   0  0  0  0  0  0  0  0  0  0  0  0
  183.2560  175.0290  138.1440 F   0  0  0  0  0  0  0  0  0  0  0  0
  186.6730  177.4460  136.9350 N   0  0  0  0  0  0  0  0  0  0  0  0
  184.7400  178.1970  138.2650 C   0  0  0  0  0  0  0  0  0  0  0  0
  185.2940  175.4230  137.1200 C   0  0  0  0  0  3  0  0  0  0  0  0
  186.0370  178.2420  137.9520 C   0  0  0  0  0  3  0  0  0  0  0  0
  183.7930  177.3390  137.4710 C   0  0  2  0  0  3  0  0  0  0  0  0
  182.4680  177.5420  137.8120 F   0  0  0  0  0  0  0  0  0  0  0  0
  186.3640  176.2490  136.5260 C   0  0  0  0  0  0  0  0  0  0  0  0
  178.9310  178.5420  143.0350 O   0  0  0  0  0  0  0  0  0  0  0  0
  179.7210  178.3710  144.1830 C   0  0  0  0  0  1  0  0  0  0  0  0
  184.6540  179.3910  141.7740 C   0  0  0  0  0  2  0  0  0  0  0  0
  185.7930  178.9580  143.9300 C   0  0  0  0  0  2  0  0  0  0  0  0
  187.1350  177.2510  142.9760 C   0  0  0  0  0  2  0  0  0  0  0  0
  186.7250  178.1010  141.8690 N   0  0  0  0  0  0  0  0  0  0  0  0
  187.9370  178.6300  141.2710 C   0  0  0  0  0  1  0  0  0  0  0  0
  186.2050  177.5270  144.1300 C   0  0  0  0  0  2  0  0  0  0  0  0
  186.0050  179.2310  142.4540 C   0  0  1  0  0  3  0  0  0  0  0  0
  1 11  1  0  0  0  0
  1  4  1  0  0  0  0
  2  6  1  1  0  0  0
  2  5  1  0  0  0  0
  3  1  2  0  0  0  0
  4  2  1  0  0  0  0
  7  4  2  0  0  0  0
  7  8  1  0  0  0  0
  8 12  1  0  0  0  0
  9  7  1  0  0  0  0
 10  6  1  0  0  0  0
 10 26  1  0  0  0  0
 11 18  1  6  0  0  0
 11 10  1  0  0  0  0
 12  5  1  0  0  0  0
 12 24  1  1  0  0  0
 13  3  1  0  0  0  0
 13  9  2  0  0  0  0
 14 16  1  0  0  0  0
 15 23  1  0  0  0  0
 17 20  1  0  0  0  0
 19 14  2  0  0  0  0
 20 18  2  0  0  0  0
 21 14  1  0  0  0  0
 21 22  1  1  0  0  0
 21 18  1  0  0  0  0
 23 17  2  0  0  0  0
 23 19  1  0  0  0  0
 24 25  1  0  0  0  0
 27 31  1  0  0  0  0
 28 31  1  0  0  0  0
 29 32  1  0  0  0  0
 29 28  1  0  0  0  0
 30 29  1  0  0  0  0
 32 26  1  6  0  0  0
 32 27  1  0  0  0  0
M  END
>  <MODEL>
3

>  <REMARK>
 VINA RESULT:      -5.9      3.246      6.178
  Name = 
  4 active torsions:
  status: ('A' for Active; 'I' for Inactive)
    1  A    between atoms: O_13  and  C_29
    2  A    between atoms: C_16  and  C_27
    3  A    between atoms: N_24  and  C_28
    4  A    between atoms: C_28  and  C_32
                            x       y       z     vdW  Elec       q    Type
                         _______ _______ _______ _____ _____    ______ ____

>  <TORSDO>
F 4

$$$$
=
 OpenBabel11052414353D

 32 36  0  0  1  0  0  0  0  0999 V2000
  183.0410  177.1570  138.8560 C   0  0  0  0  0  0  0  0  0  0  0  0
  185.1160  178.5690  138.6240 C   0  0  2  0  0  3  0  0  0  0  0  0
  182.2750  176.0450  138.4940 C   0  0  0  0  0  3  0  0  0  0  0  0
  184.3390  177.3100  138.3490 C   0  0  0  0  0  0  0  0  0  0  0  0
  186.5980  178.2860  138.7760 C   0  0  0  0  0  2  0  0  0  0  0  0
  184.5620  179.4750  139.7380 C   0  0  0  0  0  2  0  0  0  0  0  0
  184.8930  176.3090  137.5220 C   0  0  0  0  0  0  0  0  0  0  0  0
  186.3460  176.3230  137.1220 C   0  0  0  0  0  2  0  0  0  0  0  0
  184.1170  175.2000  137.1710 C   0  0  0  0  0  3  0  0  0  0  0  0
  183.5710  178.8430  140.6210 N   0  0  0  0  0  0  0  0  0  0  0  0
  182.5190  178.1210  139.8840 C   0  0  1  0  0  3  0  0  0  0  0  0
  187.0830  177.6300  137.4780 C   0  0  2  0  0  3  0  0  0  0  0  0
  182.8070  175.0750  137.6400 C   0  0  0  0  0  3  0  0  0  0  0  0
  179.4060  178.6040  138.0470 C   0  0  0  0  0  0  0  0  0  0  0  0
  179.1230  182.1450  137.3190 F   0  0  0  0  0  0  0  0  0  0  0  0
  178.9310  177.4500  137.5170 F   0  0  0  0  0  0  0  0  0  0  0  0
  180.8580  181.2350  138.4880 N   0  0  0  0  0  0  0  0  0  0  0  0
  181.4020  179.0250  139.4320 C   0  0  0  0  0  0  0  0  0  0  0  0
  179.2830  179.7310  137.3510 C   0  0  0  0  0  3  0  0  0  0  0  0
  181.7550  180.2480  139.0300 C   0  0  0  0  0  3  0  0  0  0  0  0
  179.9550  178.6110  139.4350 C   0  0  2  0  0  3  0  0  0  0  0  0
  179.7470  177.3860  140.0410 F   0  0  0  0  0  0  0  0  0  0  0  0
  179.7700  181.0540  137.7940 C   0  0  0  0  0  0  0  0  0  0  0  0
  188.4880  177.5110  137.4080 O   0  0  0  0  0  0  0  0  0  0  0  0
  189.0710  178.6020  138.0730 C   0  0  0  0  0  1  0  0  0  0  0  0
  184.2560  177.9270  141.5280 C   0  0  0  0  0  2  0  0  0  0  0  0
  184.5840  179.4340  143.4650 C   0  0  0  0  0  2  0  0  0  0  0  0
  186.2620  178.0320  144.3810 C   0  0  0  0  0  2  0  0  0  0  0  0
  186.2240  177.7310  142.9600 N   0  0  0  0  0  0  0  0  0  0  0  0
  187.5400  178.0360  142.4280 C   0  0  0  0  0  1  0  0  0  0  0  0
  184.9730  178.7300  144.7340 C   0  0  0  0  0  2  0  0  0  0  0  0
  185.2870  178.6770  142.3570 C   0  0  1  0  0  3  0  0  0  0  0  0
  1 11  1  0  0  0  0
  2  5  1  1  0  0  0
  2  6  1  0  0  0  0
  3  1  1  0  0  0  0
  4  2  1  0  0  0  0
  4  1  2  0  0  0  0
  6 10  1  0  0  0  0
  7  4  1  0  0  0  0
  8 12  1  0  0  0  0
  8  7  1  0  0  0  0
  9  7  2  0  0  0  0
  9 13  1  0  0  0  0
 10 26  1  0  0  0  0
 11 18  1  6  0  0  0
 11 10  1  0  0  0  0
 12 24  1  1  0  0  0
 12  5  1  0  0  0  0
 13  3  2  0  0  0  0
 14 21  1  0  0  0  0
 15 23  1  0  0  0  0
 16 14  1  0  0  0  0
 17 20  1  0  0  0  0
 18 21  1  0  0  0  0
 19 23  1  0  0  0  0
 19 14  2  0  0  0  0
 20 18  2  0  0  0  0
 21 22  1  6  0  0  0
 23 17  2  0  0  0  0
 24 25  1  0  0  0  0
 27 31  1  0  0  0  0
 28 31  1  0  0  0  0
 29 28  1  0  0  0  0
 30 29  1  0  0  0  0
 32 26  1  1  0  0  0
 32 29  1  0  0  0  0
 32 27  1  0  0  0  0
M  END
>  <MODEL>
4

>  <REMARK>
 VINA RESULT:      -5.9      3.000      5.548
  Name = 
  4 active torsions:
  status: ('A' for Active; 'I' for Inactive)
    1  A    between atoms: O_13  and  C_29
    2  A    between atoms: C_16  and  C_27
    3  A    between atoms: N_24  and  C_28
    4  A    between atoms: C_28  and  C_32
                            x       y       z     vdW  Elec       q    Type
                         _______ _______ _______ _____ _____    ______ ____

>  <TORSDO>
F 4

$$$$
=
 OpenBabel11052414353D

 32 36  0  0  1  0  0  0  0  0999 V2000
  182.5470  177.3410  139.2600 C   0  0  0  0  0  0  0  0  0  0  0  0
  181.6030  179.5470  138.4880 C   0  0  2  0  0  3  0  0  0  0  0  0
  182.5150  175.9430  139.2890 C   0  0  0  0  0  3  0  0  0  0  0  0
  181.6700  178.0450  138.4230 C   0  0  0  0  0  0  0  0  0  0  0  0
  181.3350  180.1510  137.1230 C   0  0  0  0  0  2  0  0  0  0  0  0
  182.7550  180.2430  139.2340 C   0  0  0  0  0  2  0  0  0  0  0  0
  180.7990  177.3390  137.5650 C   0  0  0  0  0  0  0  0  0  0  0  0
  179.9900  178.0400  136.5040 C   0  0  0  0  0  2  0  0  0  0  0  0
  180.7810  175.9410  137.6020 C   0  0  0  0  0  3  0  0  0  0  0  0
  183.9370  179.4030  139.4770 N   0  0  0  0  0  0  0  0  0  0  0  0
  183.6020  178.0810  140.0330 C   0  0  1  0  0  3  0  0  0  0  0  0
  180.0080  179.5790  136.6120 C   0  0  2  0  0  3  0  0  0  0  0  0
  181.6220  175.2450  138.4720 C   0  0  0  0  0  3  0  0  0  0  0  0
  181.8500  179.3240  142.9800 C   0  0  0  0  0  0  0  0  0  0  0  0
  184.0670  178.8860  145.8160 F   0  0  0  0  0  0  0  0  0  0  0  0
  180.8060  180.1280  142.6630 F   0  0  0  0  0  0  0  0  0  0  0  0
  184.6030  178.2540  143.6890 N   0  0  0  0  0  0  0  0  0  0  0  0
  183.4280  178.1050  141.5290 C   0  0  0  0  0  0  0  0  0  0  0  0
  182.5920  179.6190  144.0440 C   0  0  0  0  0  3  0  0  0  0  0  0
  184.5470  178.1460  142.2550 C   0  0  0  0  0  3  0  0  0  0  0  0
  182.0830  178.0700  142.2020 C   0  0  2  0  0  3  0  0  0  0  0  0
  181.0430  177.8530  141.3170 F   0  0  0  0  0  0  0  0  0  0  0  0
  183.7670  178.8460  144.4950 C   0  0  0  0  0  0  0  0  0  0  0  0
  179.5370  180.2210  135.4460 O   0  0  0  0  0  0  0  0  0  0  0  0
  180.4320  181.2490  135.1020 C   0  0  0  0  0  1  0  0  0  0  0  0
  184.6730  179.2430  138.2270 C   0  0  0  0  0  2  0  0  0  0  0  0
  185.5430  177.2010  137.1290 C   0  0  0  0  0  2  0  0  0  0  0  0
  187.7880  177.9240  137.3710 C   0  0  0  0  0  2  0  0  0  0  0  0
  187.0310  178.6290  138.3920 N   0  0  0  0  0  0  0  0  0  0  0  0
  187.5920  178.2460  139.6750 C   0  0  0  0  0  1  0  0  0  0  0  0
  186.8070  177.4150  136.3460 C   0  0  0  0  0  2  0  0  0  0  0  0
  185.6690  178.0990  138.3430 C   0  0  1  0  0  3  0  0  0  0  0  0
  1  3  1  0  0  0  0
  1 11  1  0  0  0  0
  2  5  1  6  0  0  0
  2  6  1  0  0  0  0
  4  2  1  0  0  0  0
  4  1  2  0  0  0  0
  6 10  1  0  0  0  0
  7  9  2  0  0  0  0
  7  4  1  0  0  0  0
  8 12  1  0  0  0  0
  8  7  1  0  0  0  0
  9 13  1  0  0  0  0
 10 11  1  0  0  0  0
 11 18  1  1  0  0  0
 12 24  1  6  0  0  0
 12  5  1  0  0  0  0
 13  3  2  0  0  0  0
 14 19  2  0  0  0  0
 16 14  1  0  0  0  0
 17 23  2  0  0  0  0
 18 21  1  0  0  0  0
 18 20  2  0  0  0  0
 19 23  1  0  0  0  0
 20 17  1  0  0  0  0
 21 22  1  6  0  0  0
 21 14  1  0  0  0  0
 23 15  1  0  0  0  0
 25 24  1  0  0  0  0
 26 10  1  0  0  0  0
 27 32  1  0  0  0  0
 28 29  1  0  0  0  0
 29 30  1  0  0  0  0
 31 27  1  0  0  0  0
 31 28  1  0  0  0  0
 32 26  1  6  0  0  0
 32 29  1  0  0  0  0
M  END
>  <MODEL>
5

>  <REMARK>
 VINA RESULT:      -5.7      3.803      7.053
  Name = 
  4 active torsions:
  status: ('A' for Active; 'I' for Inactive)
    1  A    between atoms: O_13  and  C_29
    2  A    between atoms: C_16  and  C_27
    3  A    between atoms: N_24  and  C_28
    4  A    between atoms: C_28  and  C_32
                            x       y       z     vdW  Elec       q    Type
                         _______ _______ _______ _____ _____    ______ ____

>  <TORSDO>
F 4

$$$$
=
 OpenBabel11052414353D

 32 36  0  0  1  0  0  0  0  0999 V2000
  187.9130  174.9680  136.8810 C   0  0  0  0  0  0  0  0  0  0  0  0
  189.8680  176.2220  135.9010 C   0  0  2  0  0  3  0  0  0  0  0  0
  187.1630  173.7970  137.0260 C   0  0  0  0  0  3  0  0  0  0  0  0
  189.1260  174.9430  136.1790 C   0  0  0  0  0  0  0  0  0  0  0  0
  191.3700  176.0120  135.9350 C   0  0  0  0  0  2  0  0  0  0  0  0
  189.4180  177.4530  136.7070 C   0  0  0  0  0  2  0  0  0  0  0  0
  189.6180  173.7210  135.6720 C   0  0  0  0  0  0  0  0  0  0  0  0
  191.0060  173.6020  135.0950 C   0  0  0  0  0  2  0  0  0  0  0  0
  188.8600  172.5560  135.8270 C   0  0  0  0  0  3  0  0  0  0  0  0
  188.5810  177.1580  137.8800 N   0  0  0  0  0  0  0  0  0  0  0  0
  187.4800  176.2250  137.5830 C   0  0  1  0  0  3  0  0  0  0  0  0
  191.7170  174.9540  134.8820 C   0  0  2  0  0  3  0  0  0  0  0  0
  187.6290  172.5950  136.4860 C   0  0  0  0  0  3  0  0  0  0  0  0
  184.0330  177.3590  137.9470 C   0  0  0  0  0  0  0  0  0  0  0  0
  182.6850  177.7960  134.6090 F   0  0  0  0  0  0  0  0  0  0  0  0
  183.5350  177.1200  139.1850 F   0  0  0  0  0  0  0  0  0  0  0  0
  184.8280  177.1310  135.0250 N   0  0  0  0  0  0  0  0  0  0  0  0
  186.2700  176.9160  137.0100 C   0  0  0  0  0  0  0  0  0  0  0  0
  183.2350  177.2150  136.8920 C   0  0  0  0  0  3  0  0  0  0  0  0
  185.9790  176.6410  135.7370 C   0  0  0  0  0  3  0  0  0  0  0  0
  185.4230  177.8810  137.7950 C   0  0  2  0  0  3  0  0  0  0  0  0
  185.9610  178.1850  139.0330 F   0  0  0  0  0  0  0  0  0  0  0  0
  183.6450  177.4220  135.4880 C   0  0  0  0  0  0  0  0  0  0  0  0
  193.1050  174.8210  134.6630 O   0  0  0  0  0  0  0  0  0  0  0  0
  193.7840  175.7260  135.4960 C   0  0  0  0  0  1  0  0  0  0  0  0
  189.4210  176.6110  138.9400 C   0  0  0  0  0  2  0  0  0  0  0  0
  188.6210  178.5790  140.2110 C   0  0  0  0  0  2  0  0  0  0  0  0
  189.5440  177.7560  142.2340 C   0  0  0  0  0  2  0  0  0  0  0  0
  190.2920  177.1140  141.1650 N   0  0  0  0  0  0  0  0  0  0  0  0
  191.6810  177.5020  141.3290 C   0  0  0  0  0  1  0  0  0  0  0  0
  188.2630  178.2850  141.6400 C   0  0  0  0  0  2  0  0  0  0  0  0
  189.8250  177.7070  139.9130 C   0  0  1  0  0  3  0  0  0  0  0  0
  1  3  1  0  0  0  0
  1 11  1  0  0  0  0
  2  5  1  1  0  0  0
  2  4  1  0  0  0  0
  2  6  1  0  0  0  0
  4  1  2  0  0  0  0
  6 10  1  0  0  0  0
  7  9  2  0  0  0  0
  7  4  1  0  0  0  0
  8  7  1  0  0  0  0
  9 13  1  0  0  0  0
 10 26  1  0  0  0  0
 11 18  1  6  0  0  0
 11 10  1  0  0  0  0
 12 24  1  1  0  0  0
 12  8  1  0  0  0  0
 12  5  1  0  0  0  0
 13  3  2  0  0  0  0
 14 16  1  0  0  0  0
 15 23  1  0  0  0  0
 17 23  2  0  0  0  0
 17 20  1  0  0  0  0
 18 21  1  0  0  0  0
 19 14  2  0  0  0  0
 20 18  2  0  0  0  0
 21 14  1  0  0  0  0
 21 22  1  1  0  0  0
 23 19  1  0  0  0  0
 24 25  1  0  0  0  0
 27 31  1  0  0  0  0
 29 30  1  0  0  0  0
 29 28  1  0  0  0  0
 31 28  1  0  0  0  0
 32 26  1  6  0  0  0
 32 27  1  0  0  0  0
 32 29  1  0  0  0  0
M  END
>  <MODEL>
6

>  <REMARK>
 VINA RESULT:      -5.7      6.711      9.475
  Name = 
  4 active torsions:
  status: ('A' for Active; 'I' for Inactive)
    1  A    between atoms: O_13  and  C_29
    2  A    between atoms: C_16  and  C_27
    3  A    between atoms: N_24  and  C_28
    4  A    between atoms: C_28  and  C_32
                            x       y       z     vdW  Elec       q    Type
                         _______ _______ _______ _____ _____    ______ ____

>  <TORSDO>
F 4

$$$$
=
 OpenBabel11052414353D

 32 36  0  0  1  0  0  0  0  0999 V2000
  180.7910  177.1910  139.3860 C   0  0  0  0  0  0  0  0  0  0  0  0
  182.8850  177.0950  137.9870 C   0  0  2  0  0  3  0  0  0  0  0  0
  179.5920  176.6230  139.8300 C   0  0  0  0  0  3  0  0  0  0  0  0
  181.6630  176.4470  138.5800 C   0  0  0  0  0  0  0  0  0  0  0  0
  184.0450  176.1220  137.9040 C   0  0  0  0  0  2  0  0  0  0  0  0
  183.2860  178.4550  138.5850 C   0  0  0  0  0  2  0  0  0  0  0  0
  181.3580  175.1040  138.2680 C   0  0  0  0  0  0  0  0  0  0  0  0
  182.3530  174.2020  137.5840 C   0  0  0  0  0  2  0  0  0  0  0  0
  180.1580  174.5480  138.7220 C   0  0  0  0  0  3  0  0  0  0  0  0
  182.6540  178.7800  139.8720 N   0  0  0  0  0  0  0  0  0  0  0  0
  181.1990  178.5520  139.8760 C   0  0  1  0  0  3  0  0  0  0  0  0
  183.5990  174.9350  137.0430 C   0  0  2  0  0  3  0  0  0  0  0  0
  179.2690  175.3080  139.4850 C   0  0  0  0  0  3  0  0  0  0  0  0
  180.5480  180.8640  137.1310 C   0  0  0  0  0  0  0  0  0  0  0  0
  178.9320  183.7860  138.5440 F   0  0  0  0  0  0  0  0  0  0  0  0
  181.2900  180.5850  136.0300 F   0  0  0  0  0  0  0  0  0  0  0  0
  179.5520  181.9700  139.7780 N   0  0  0  0  0  0  0  0  0  0  0  0
  180.4270  179.7150  139.3090 C   0  0  0  0  0  0  0  0  0  0  0  0
  180.3230  182.1350  137.4520 C   0  0  0  0  0  3  0  0  0  0  0  0
  180.1980  180.7350  140.1390 C   0  0  0  0  0  3  0  0  0  0  0  0
  179.9110  179.7510  137.8950 C   0  0  2  0  0  3  0  0  0  0  0  0
  180.0800  178.5510  137.2300 F   0  0  0  0  0  0  0  0  0  0  0  0
  179.5530  182.5840  138.6290 C   0  0  0  0  0  0  0  0  0  0  0  0
  184.6560  174.0600  136.7120 O   0  0  0  0  0  0  0  0  0  0  0  0
  184.9050  173.2140  137.8060 C   0  0  0  0  0  1  0  0  0  0  0  0
  183.2820  177.9880  140.9250 C   0  0  0  0  0  2  0  0  0  0  0  0
  183.5290  179.1290  143.1080 C   0  0  0  0  0  2  0  0  0  0  0  0
  185.6840  178.1990  143.4470 C   0  0  0  0  0  2  0  0  0  0  0  0
  185.4610  178.1740  142.0100 N   0  0  0  0  0  0  0  0  0  0  0  0
  186.5050  178.9820  141.4070 C   0  0  0  0  0  1  0  0  0  0  0  0
  184.3420  178.3630  144.1140 C   0  0  0  0  0  2  0  0  0  0  0  0
  184.1930  178.8620  141.7720 C   0  0  1  0  0  3  0  0  0  0  0  0
  1  3  1  0  0  0  0
  1 11  1  0  0  0  0
  2  5  1  1  0  0  0
  2  4  1  0  0  0  0
  2  6  1  0  0  0  0
  4  1  2  0  0  0  0
  6 10  1  0  0  0  0
  7  4  1  0  0  0  0
  7  9  2  0  0  0  0
  8  7  1  0  0  0  0
  9 13  1  0  0  0  0
 10 11  1  0  0  0  0
 10 26  1  0  0  0  0
 11 18  1  6  0  0  0
 12 24  1  1  0  0  0
 12  8  1  0  0  0  0
 12  5  1  0  0  0  0
 13  3  2  0  0  0  0
 14 19  2  0  0  0  0
 14 21  1  0  0  0  0
 15 23  1  0  0  0  0
 16 14  1  0  0  0  0
 17 20  1  0  0  0  0
 18 20  2  0  0  0  0
 19 23  1  0  0  0  0
 21 22  1  6  0  0  0
 21 18  1  0  0  0  0
 23 17  2  0  0  0  0
 24 25  1  0  0  0  0
 27 31  1  0  0  0  0
 28 31  1  0  0  0  0
 29 28  1  0  0  0  0
 30 29  1  0  0  0  0
 32 26  1  6  0  0  0
 32 29  1  0  0  0  0
 32 27  1  0  0  0  0
M  END
>  <MODEL>
7

>  <REMARK>
 VINA RESULT:      -5.6      2.758      5.498
  Name = 
  4 active torsions:
  status: ('A' for Active; 'I' for Inactive)
    1  A    between atoms: O_13  and  C_29
    2  A    between atoms: C_16  and  C_27
    3  A    between atoms: N_24  and  C_28
    4  A    between atoms: C_28  and  C_32
                            x       y       z     vdW  Elec       q    Type
                         _______ _______ _______ _____ _____    ______ ____

>  <TORSDO>
F 4

$$$$
=
 OpenBabel11052414353D

 32 36  0  0  1  0  0  0  0  0999 V2000
  182.9120  176.9720  138.2750 C   0  0  0  0  0  0  0  0  0  0  0  0
  180.8050  175.7810  138.9780 C   0  0  2  0  0  3  0  0  0  0  0  0
  184.1740  176.9660  137.6730 C   0  0  0  0  0  3  0  0  0  0  0  0
  182.1020  175.8300  138.2170 C   0  0  0  0  0  0  0  0  0  0  0  0
  179.7500  174.9900  138.2290 C   0  0  0  0  0  2  0  0  0  0  0  0
  180.2800  177.1290  139.5040 C   0  0  0  0  0  2  0  0  0  0  0  0
  182.5360  174.6960  137.4960 C   0  0  0  0  0  0  0  0  0  0  0  0
  181.6240  173.5270  137.2290 C   0  0  0  0  0  2  0  0  0  0  0  0
  183.7990  174.7060  136.8950 C   0  0  0  0  0  3  0  0  0  0  0  0
  180.9060  178.3180  138.9080 N   0  0  0  0  0  0  0  0  0  0  0  0
  182.3770  178.2410  138.8770 C   0  0  1  0  0  3  0  0  0  0  0  0
  180.2950  173.5740  138.0120 C   0  0  2  0  0  3  0  0  0  0  0  0
  184.6230  175.8290  136.9970 C   0  0  0  0  0  3  0  0  0  0  0  0
  185.3460  178.6210  140.9610 C   0  0  0  0  0  0  0  0  0  0  0  0
  184.2260  178.8250  144.4040 F   0  0  0  0  0  0  0  0  0  0  0  0
  186.4830  178.2600  140.3160 F   0  0  0  0  0  0  0  0  0  0  0  0
  182.8080  178.6160  142.6280 N   0  0  0  0  0  0  0  0  0  0  0  0
  183.0100  178.6730  140.1740 C   0  0  0  0  0  0  0  0  0  0  0  0
  185.2180  178.3310  142.2530 C   0  0  0  0  0  3  0  0  0  0  0  0
  182.3430  178.3670  141.2890 C   0  0  0  0  0  3  0  0  0  0  0  0
  184.3120  179.4250  140.2460 C   0  0  2  0  0  3  0  0  0  0  0  0
  184.7780  179.8130  139.0030 F   0  0  0  0  0  0  0  0  0  0  0  0
  184.0310  178.6440  143.0750 C   0  0  0  0  0  0  0  0  0  0  0  0
  179.3270  172.6750  137.5150 O   0  0  0  0  0  0  0  0  0  0  0  0
  179.9760  171.5130  137.0650 C   0  0  0  0  0  1  0  0  0  0  0  0
  180.3910  178.5000  137.5550 C   0  0  0  0  0  2  0  0  0  0  0  0
  181.1780  179.3990  135.3860 C   0  0  0  0  0  2  0  0  0  0  0  0
  180.1280  181.4900  135.7740 C   0  0  0  0  0  2  0  0  0  0  0  0
  180.3300  180.8950  137.0860 N   0  0  0  0  0  0  0  0  0  0  0  0
  181.1800  181.8030  137.8340 C   0  0  0  0  0  1  0  0  0  0  0  0
  180.2390  180.3860  134.7520 C   0  0  0  0  0  2  0  0  0  0  0  0
  181.0920  179.6660  136.8750 C   0  0  1  0  0  3  0  0  0  0  0  0
  1 11  1  0  0  0  0
  2  5  1  6  0  0  0
  2  6  1  0  0  0  0
  3  1  2  0  0  0  0
  4  1  1  0  0  0  0
  4  2  1  0  0  0  0
  7  4  2  0  0  0  0
  8  7  1  0  0  0  0
  8 12  1  0  0  0  0
  9 13  2  0  0  0  0
  9  7  1  0  0  0  0
 10  6  1  0  0  0  0
 11 10  1  0  0  0  0
 11 18  1  1  0  0  0
 12 24  1  6  0  0  0
 12  5  1  0  0  0  0
 13  3  1  0  0  0  0
 14 19  2  0  0  0  0
 16 14  1  0  0  0  0
 17 23  2  0  0  0  0
 18 21  1  0  0  0  0
 18 20  2  0  0  0  0
 19 23  1  0  0  0  0
 20 17  1  0  0  0  0
 21 22  1  6  0  0  0
 21 14  1  0  0  0  0
 23 15  1  0  0  0  0
 25 24  1  0  0  0  0
 26 10  1  0  0  0  0
 27 32  1  0  0  0  0
 28 29  1  0  0  0  0
 29 30  1  0  0  0  0
 31 27  1  0  0  0  0
 31 28  1  0  0  0  0
 32 29  1  0  0  0  0
 32 26  1  1  0  0  0
M  END
>  <MODEL>
8

>  <REMARK>
 VINA RESULT:      -5.5      3.532      6.651
  Name = 
  4 active torsions:
  status: ('A' for Active; 'I' for Inactive)
    1  A    between atoms: O_13  and  C_29
    2  A    between atoms: C_16  and  C_27
    3  A    between atoms: N_24  and  C_28
    4  A    between atoms: C_28  and  C_32
                            x       y       z     vdW  Elec       q    Type
                         _______ _______ _______ _____ _____    ______ ____

>  <TORSDO>
F 4

$$$$
=
 OpenBabel11052414353D

 32 36  0  0  1  0  0  0  0  0999 V2000
  191.0150  175.7360  137.5970 C   0  0  0  0  0  0  0  0  0  0  0  0
  189.8000  176.2780  135.4550 C   0  0  2  0  0  3  0  0  0  0  0  0
  191.3630  176.0480  138.9150 C   0  0  0  0  0  3  0  0  0  0  0  0
  190.0760  176.5230  136.9140 C   0  0  0  0  0  0  0  0  0  0  0  0
  188.3460  176.5390  135.1130 C   0  0  0  0  0  2  0  0  0  0  0  0
  190.3210  174.9480  134.8830 C   0  0  0  0  0  2  0  0  0  0  0  0
  189.4380  177.5910  137.5800 C   0  0  0  0  0  0  0  0  0  0  0  0
  188.2800  178.3330  136.9640 C   0  0  0  0  0  2  0  0  0  0  0  0
  189.7920  177.8890  138.9000 C   0  0  0  0  0  3  0  0  0  0  0  0
  190.6990  173.9430  135.8880 N   0  0  0  0  0  0  0  0  0  0  0  0
  191.5550  174.4880  136.9560 C   0  0  1  0  0  3  0  0  0  0  0  0
  188.0340  177.9940  135.4790 C   0  0  2  0  0  3  0  0  0  0  0  0
  190.7630  177.1330  139.5600 C   0  0  0  0  0  3  0  0  0  0  0  0
  194.9650  173.2930  137.4460 C   0  0  0  0  0  0  0  0  0  0  0  0
  197.1940  175.8110  136.0870 F   0  0  0  0  0  0  0  0  0  0  0  0
  195.0430  172.3090  138.3750 F   0  0  0  0  0  0  0  0  0  0  0  0
  194.9190  175.9830  136.0370 N   0  0  0  0  0  0  0  0  0  0  0  0
  193.0110  174.5200  136.5750 C   0  0  0  0  0  0  0  0  0  0  0  0
  195.9370  174.1990  137.3830 C   0  0  0  0  0  3  0  0  0  0  0  0
  193.5350  175.7250  136.3370 C   0  0  0  0  0  3  0  0  0  0  0  0
  193.8570  173.2820  136.4450 C   0  0  2  0  0  3  0  0  0  0  0  0
  193.1220  172.1160  136.5540 F   0  0  0  0  0  0  0  0  0  0  0  0
  195.9750  175.3330  136.4370 C   0  0  0  0  0  0  0  0  0  0  0  0
  186.7730  178.4260  135.0140 O   0  0  0  0  0  0  0  0  0  0  0  0
  186.0350  177.3060  134.5950 C   0  0  0  0  0  1  0  0  0  0  0  0
  189.4890  173.3690  136.4680 C   0  0  0  0  0  2  0  0  0  0  0  0
  189.1520  171.4560  134.9310 C   0  0  0  0  0  2  0  0  0  0  0  0
  186.8840  171.2220  135.5830 C   0  0  0  0  0  2  0  0  0  0  0  0
  187.2460  172.5960  135.8890 N   0  0  0  0  0  0  0  0  0  0  0  0
  186.3640  173.4480  135.1120 C   0  0  0  0  0  1  0  0  0  0  0  0
  188.1630  170.4390  135.4240 C   0  0  0  0  0  2  0  0  0  0  0  0
  188.6000  172.7960  135.3750 C   0  0  1  0  0  3  0  0  0  0  0  0
  1  3  1  0  0  0  0
  2  6  1  1  0  0  0
  2  4  1  0  0  0  0
  3 13  2  0  0  0  0
  4  7  1  0  0  0  0
  4  1  2  0  0  0  0
  5  2  1  0  0  0  0
  5 12  1  0  0  0  0
  6 10  1  0  0  0  0
  7  9  2  0  0  0  0
  8  7  1  0  0  0  0
  9 13  1  0  0  0  0
 10 26  1  0  0  0  0
 10 11  1  0  0  0  0
 11 18  1  6  0  0  0
 11  1  1  0  0  0  0
 12 24  1  1  0  0  0
 12  8  1  0  0  0  0
 14 16  1  0  0  0  0
 15 23  1  0  0  0  0
 17 20  1  0  0  0  0
 17 23  2  0  0  0  0
 19 14  2  0  0  0  0
 20 18  2  0  0  0  0
 21 22  1  1  0  0  0
 21 18  1  0  0  0  0
 21 14  1  0  0  0  0
 23 19  1  0  0  0  0
 25 24  1  0  0  0  0
 27 32  1  0  0  0  0
 27 31  1  0  0  0  0
 28 29  1  0  0  0  0
 30 29  1  0  0  0  0
 31 28  1  0  0  0  0
 32 29  1  0  0  0  0
 32 26  1  1  0  0  0
M  END
>  <MODEL>
9

>  <REMARK>
 VINA RESULT:      -5.4      9.669     12.215
  Name = 
  4 active torsions:
  status: ('A' for Active; 'I' for Inactive)
    1  A    between atoms: O_13  and  C_29
    2  A    between atoms: C_16  and  C_27
    3  A    between atoms: N_24  and  C_28
    4  A    between atoms: C_28  and  C_32
                            x       y       z     vdW  Elec       q    Type
                         _______ _______ _______ _____ _____    ______ ____

>  <TORSDO>
F 4

$$$$
