=
 OpenBabel11052413283D

 28 32  0  0  1  0  0  0  0  0999 V2000
  187.1140  178.2280  140.9790 N   0  0  0  0  0  0  0  0  0  0  0  0
  190.3460  177.0850  144.7520 C   0  0  0  0  0  3  0  0  0  0  0  0
  184.0760  178.8620  145.0200 S   0  0  0  0  0  0  0  0  0  0  0  0
  188.9660  177.1890  146.7520 C   0  0  0  0  0  0  0  0  0  0  0  0
  187.9710  177.8610  144.5610 C   0  0  0  0  0  0  0  0  0  0  0  0
  191.2660  176.4330  146.8950 C   0  0  0  0  0  0  0  0  0  0  0  0
  189.1190  177.3880  145.3630 C   0  0  0  0  0  0  0  0  0  0  0  0
  186.4800  177.4590  146.5040 C   0  0  0  0  0  2  0  0  0  0  0  0
  190.0460  176.7240  147.5100 C   0  0  0  0  0  3  0  0  0  0  0  0
  185.7300  178.4860  142.9200 C   0  0  0  0  0  0  0  0  0  0  0  0
  188.0340  177.8550  143.2610 N   0  0  0  0  0  0  0  0  0  0  0  0
  187.6780  177.5260  147.4530 C   0  0  0  0  0  2  0  0  0  0  0  0
  184.7610  178.8820  140.7570 C   0  0  0  0  0  3  0  0  0  0  0  0
  185.5320  178.4450  144.3830 C   0  0  0  0  0  0  0  0  0  0  0  0
  184.6230  178.7460  142.0420 N   0  0  0  0  0  0  0  0  0  0  0  0
  192.4070  175.9340  147.7060 C   0  0  0  0  0  1  0  0  0  0  0  0
  191.4150  176.6110  145.5160 C   0  0  0  0  0  3  0  0  0  0  0  0
  186.7350  178.3480  145.2860 C   0  0  2  0  0  3  0  0  0  0  0  0
  186.1140  178.8400  140.1040 C   0  0  0  0  0  2  0  0  0  0  0  0
  186.9400  178.2240  142.4060 C   0  0  0  0  0  0  0  0  0  0  0  0
  188.3770  177.8150  140.3850 C   0  0  0  0  0  2  0  0  0  0  0  0
  188.2380  177.7210  138.9420 N   0  0  0  0  0  0  0  0  0  0  0  0
  189.1760  177.1540  136.2950 C   0  0  0  0  0  0  0  0  0  0  0  0
  189.1560  178.6980  138.3570 C   0  0  0  0  0  2  0  0  0  0  0  0
  188.6840  176.3800  138.5640 C   0  0  0  0  0  2  0  0  0  0  0  0
  188.4340  176.1260  137.0780 C   0  0  0  0  0  2  0  0  0  0  0  0
  190.0910  176.8310  135.5550 O   0  0  0  0  0  0  0  0  0  0  0  0
  188.8010  178.8820  136.5790 S   0  0  0  0  0  0  0  0  0  0  0  0
  1 20  1  0  0  0  0
  2  7  2  0  0  0  0
  2 17  1  0  0  0  0
  4 12  1  0  0  0  0
  4  9  2  0  0  0  0
  5 18  1  0  0  0  0
  5  7  1  0  0  0  0
  6  9  1  0  0  0  0
  6 16  1  0  0  0  0
  7  4  1  0  0  0  0
  8 12  1  0  0  0  0
 10 14  1  0  0  0  0
 11  5  2  0  0  0  0
 13 15  2  0  0  0  0
 14  3  2  0  0  0  0
 14 18  1  0  0  0  0
 15 10  1  0  0  0  0
 17  6  2  0  0  0  0
 18  8  1  1  0  0  0
 19 13  1  0  0  0  0
 19  1  1  0  0  0  0
 20 10  2  0  0  0  0
 20 11  1  0  0  0  0
 21  1  1  0  0  0  0
 22 21  1  0  0  0  0
 23 28  1  0  0  0  0
 23 26  1  0  0  0  0
 24 22  1  0  0  0  0
 25 22  1  0  0  0  0
 26 25  1  0  0  0  0
 27 23  2  0  0  0  0
 28 24  1  0  0  0  0
M  END
>  <MODEL>
1

>  <REMARK>
 VINA RESULT:      -9.8      0.000      0.000
  Name = 
  2 active torsions:
  status: ('A' for Active; 'I' for Inactive)
    1  A    between atoms: N_1  and  C_2
    2  A    between atoms: C_2  and  N_3
                            x       y       z     vdW  Elec       q    Type
                         _______ _______ _______ _____ _____    ______ ____

>  <TORSDO>
F 2

$$$$
=
 OpenBabel11052413283D

 28 32  0  0  1  0  0  0  0  0999 V2000
  189.5590  177.5790  141.5670 N   0  0  0  0  0  0  0  0  0  0  0  0
  184.6030  178.4290  142.4070 C   0  0  0  0  0  3  0  0  0  0  0  0
  189.4150  177.2570  146.6500 S   0  0  0  0  0  0  0  0  0  0  0  0
  184.4210  178.4660  144.8310 C   0  0  0  0  0  0  0  0  0  0  0  0
  186.6170  177.8810  143.7930 C   0  0  0  0  0  0  0  0  0  0  0  0
  182.4980  179.0010  143.4560 C   0  0  0  0  0  0  0  0  0  0  0  0
  185.1910  178.2470  143.6670 C   0  0  0  0  0  0  0  0  0  0  0  0
  186.5210  178.4320  146.2110 C   0  0  0  0  0  2  0  0  0  0  0  0
  183.0760  178.8300  144.7150 C   0  0  0  0  0  3  0  0  0  0  0  0
  189.4290  177.4640  143.9590 C   0  0  0  0  0  0  0  0  0  0  0  0
  187.3860  177.8740  142.7430 N   0  0  0  0  0  0  0  0  0  0  0  0
  185.0030  178.2560  146.2030 C   0  0  0  0  0  2  0  0  0  0  0  0
  191.5670  177.1510  142.9080 C   0  0  0  0  0  3  0  0  0  0  0  0
  188.6590  177.5310  145.2180 C   0  0  0  0  0  0  0  0  0  0  0  0
  190.8570  177.3060  143.9850 N   0  0  0  0  0  0  0  0  0  0  0  0
  181.0690  179.3940  143.3410 C   0  0  0  0  0  1  0  0  0  0  0  0
  183.2610  178.8030  142.3020 C   0  0  0  0  0  3  0  0  0  0  0  0
  187.1530  177.5180  145.1610 C   0  0  2  0  0  3  0  0  0  0  0  0
  190.9270  177.0610  141.5510 C   0  0  0  0  0  2  0  0  0  0  0  0
  188.7960  177.6070  142.7850 C   0  0  0  0  0  0  0  0  0  0  0  0
  188.9250  177.8680  140.2890 C   0  0  0  0  0  2  0  0  0  0  0  0
  189.3880  176.9270  139.2830 N   0  0  0  0  0  0  0  0  0  0  0  0
  190.1480  176.1580  136.6300 C   0  0  0  0  0  0  0  0  0  0  0  0
  188.2990  176.7550  138.3220 C   0  0  0  0  0  2  0  0  0  0  0  0
  190.5150  177.5620  138.6000 C   0  0  0  0  0  2  0  0  0  0  0  0
  191.1730  176.5900  137.6230 C   0  0  0  0  0  2  0  0  0  0  0  0
  190.2660  176.4450  135.4500 O   0  0  0  0  0  0  0  0  0  0  0  0
  188.6680  175.3450  137.2260 S   0  0  0  0  0  0  0  0  0  0  0  0
  1 20  1  0  0  0  0
  2  7  1  0  0  0  0
  4 12  1  0  0  0  0
  5 18  1  0  0  0  0
  6  9  2  0  0  0  0
  7  5  1  0  0  0  0
  7  4  2  0  0  0  0
  9  4  1  0  0  0  0
 10 15  1  0  0  0  0
 10 14  1  0  0  0  0
 11 20  1  0  0  0  0
 11  5  2  0  0  0  0
 12  8  1  0  0  0  0
 13 15  2  0  0  0  0
 14  3  2  0  0  0  0
 16  6  1  0  0  0  0
 17  2  2  0  0  0  0
 17  6  1  0  0  0  0
 18 14  1  0  0  0  0
 18  8  1  1  0  0  0
 19  1  1  0  0  0  0
 19 13  1  0  0  0  0
 20 10  2  0  0  0  0
 21  1  1  0  0  0  0
 22 21  1  0  0  0  0
 23 28  1  0  0  0  0
 23 26  1  0  0  0  0
 24 22  1  0  0  0  0
 25 22  1  0  0  0  0
 26 25  1  0  0  0  0
 27 23  2  0  0  0  0
 28 24  1  0  0  0  0
M  END
>  <MODEL>
2

>  <REMARK>
 VINA RESULT:      -9.8      2.290      5.107
  Name = 
  2 active torsions:
  status: ('A' for Active; 'I' for Inactive)
    1  A    between atoms: N_1  and  C_2
    2  A    between atoms: C_2  and  N_3
                            x       y       z     vdW  Elec       q    Type
                         _______ _______ _______ _____ _____    ______ ____

>  <TORSDO>
F 2

$$$$
=
 OpenBabel11052413283D

 28 32  0  0  1  0  0  0  0  0999 V2000
  189.9040  177.6020  138.9910 N   0  0  0  0  0  0  0  0  0  0  0  0
  191.1030  176.9810  143.9080 C   0  0  0  0  0  3  0  0  0  0  0  0
  185.4990  178.9140  141.1890 S   0  0  0  0  0  0  0  0  0  0  0  0
  189.0170  177.4200  145.0760 C   0  0  0  0  0  0  0  0  0  0  0  0
  189.1140  177.7700  142.6040 C   0  0  0  0  0  0  0  0  0  0  0  0
  190.9600  176.6460  146.3010 C   0  0  0  0  0  0  0  0  0  0  0  0
  189.7650  177.4010  143.8790 C   0  0  0  0  0  0  0  0  0  0  0  0
  186.9080  177.7030  143.7390 C   0  0  0  0  0  2  0  0  0  0  0  0
  189.6250  177.0540  146.2810 C   0  0  0  0  0  3  0  0  0  0  0  0
  187.8510  178.1840  140.0860 C   0  0  0  0  0  0  0  0  0  0  0  0
  189.7250  177.5640  141.4740 N   0  0  0  0  0  0  0  0  0  0  0  0
  187.5860  177.8890  145.0960 C   0  0  0  0  0  2  0  0  0  0  0  0
  187.9370  178.2650  137.6860 C   0  0  0  0  0  3  0  0  0  0  0  0
  187.0450  178.3730  141.3090 C   0  0  0  0  0  0  0  0  0  0  0  0
  187.2520  178.3310  138.7880 N   0  0  0  0  0  0  0  0  0  0  0  0
  191.5980  176.2520  147.5840 C   0  0  0  0  0  1  0  0  0  0  0  0
  191.6990  176.6070  145.1140 C   0  0  0  0  0  3  0  0  0  0  0  0
  187.7340  178.3890  142.6500 C   0  0  2  0  0  3  0  0  0  0  0  0
  189.4300  178.0940  137.6980 C   0  0  0  0  0  2  0  0  0  0  0  0
  189.1380  177.8200  140.1880 C   0  0  0  0  0  0  0  0  0  0  0  0
  191.2590  177.0750  139.0650 C   0  0  0  0  0  2  0  0  0  0  0  0
  191.6020  176.4140  137.8170 N   0  0  0  0  0  0  0  0  0  0  0  0
  192.8200  174.3550  136.2430 C   0  0  0  0  0  0  0  0  0  0  0  0
  193.0570  176.4770  137.6840 C   0  0  0  0  0  2  0  0  0  0  0  0
  191.2080  175.0130  137.9630 C   0  0  0  0  0  2  0  0  0  0  0  0
  191.3880  174.2620  136.6450 C   0  0  0  0  0  2  0  0  0  0  0  0
  193.5160  173.3540  136.1860 O   0  0  0  0  0  0  0  0  0  0  0  0
  193.5370  175.9770  135.9970 S   0  0  0  0  0  0  0  0  0  0  0  0
  1 21  1  0  0  0  0
  1 20  1  0  0  0  0
  2 17  1  0  0  0  0
  3 14  2  0  0  0  0
  4 12  1  0  0  0  0
  4  9  2  0  0  0  0
  5 18  1  0  0  0  0
  5  7  1  0  0  0  0
  6 16  1  0  0  0  0
  7  2  2  0  0  0  0
  7  4  1  0  0  0  0
  8 12  1  0  0  0  0
  9  6  1  0  0  0  0
 10 20  2  0  0  0  0
 10 14  1  0  0  0  0
 11  5  2  0  0  0  0
 13 19  1  0  0  0  0
 13 15  2  0  0  0  0
 14 18  1  0  0  0  0
 15 10  1  0  0  0  0
 17  6  2  0  0  0  0
 18  8  1  1  0  0  0
 19  1  1  0  0  0  0
 20 11  1  0  0  0  0
 22 25  1  0  0  0  0
 22 21  1  0  0  0  0
 23 26  1  0  0  0  0
 24 22  1  0  0  0  0
 26 25  1  0  0  0  0
 27 23  2  0  0  0  0
 28 23  1  0  0  0  0
 28 24  1  0  0  0  0
M  END
>  <MODEL>
3

>  <REMARK>
 VINA RESULT:      -9.6      2.547      3.295
  Name = 
  2 active torsions:
  status: ('A' for Active; 'I' for Inactive)
    1  A    between atoms: N_1  and  C_2
    2  A    between atoms: C_2  and  N_3
                            x       y       z     vdW  Elec       q    Type
                         _______ _______ _______ _____ _____    ______ ____

>  <TORSDO>
F 2

$$$$
=
 OpenBabel11052413283D

 28 32  0  0  1  0  0  0  0  0999 V2000
  186.6680  178.4360  139.9710 N   0  0  0  0  0  0  0  0  0  0  0  0
  187.2280  177.8730  145.0070 C   0  0  0  0  0  3  0  0  0  0  0  0
  191.6010  177.1850  140.2180 S   0  0  0  0  0  0  0  0  0  0  0  0
  189.6020  177.4300  145.2830 C   0  0  0  0  0  0  0  0  0  0  0  0
  188.6660  177.6000  142.9730 C   0  0  0  0  0  0  0  0  0  0  0  0
  188.1800  177.7110  147.2270 C   0  0  0  0  0  0  0  0  0  0  0  0
  188.4850  177.6180  144.4400 C   0  0  0  0  0  0  0  0  0  0  0  0
  191.1250  177.6690  143.2980 C   0  0  0  0  0  2  0  0  0  0  0  0
  189.4380  177.4650  146.6710 C   0  0  0  0  0  3  0  0  0  0  0  0
  188.9900  177.8660  140.1570 C   0  0  0  0  0  0  0  0  0  0  0  0
  187.6950  177.9700  142.1900 N   0  0  0  0  0  0  0  0  0  0  0  0
  190.9650  177.1280  144.7190 C   0  0  0  0  0  2  0  0  0  0  0  0
  188.0810  178.2830  137.9720 C   0  0  0  0  0  3  0  0  0  0  0  0
  190.1760  177.5150  140.9640 C   0  0  0  0  0  0  0  0  0  0  0  0
  189.1070  178.0630  138.7380 N   0  0  0  0  0  0  0  0  0  0  0  0
  188.0140  177.7530  148.7030 C   0  0  0  0  0  1  0  0  0  0  0  0
  187.0760  177.9170  146.3950 C   0  0  0  0  0  3  0  0  0  0  0  0
  189.9950  177.1410  142.4140 C   0  0  2  0  0  3  0  0  0  0  0  0
  186.6800  178.2820  138.5160 C   0  0  0  0  0  2  0  0  0  0  0  0
  187.8080  178.0570  140.7610 C   0  0  0  0  0  0  0  0  0  0  0  0
  185.4070  178.7820  140.6090 C   0  0  0  0  0  2  0  0  0  0  0  0
  184.2960  178.3780  139.7630 N   0  0  0  0  0  0  0  0  0  0  0  0
  181.5340  178.2750  139.0140 C   0  0  0  0  0  0  0  0  0  0  0  0
  183.4400  177.5060  140.5660 C   0  0  0  0  0  2  0  0  0  0  0  0
  183.5500  179.5940  139.4410 C   0  0  0  0  0  2  0  0  0  0  0  0
  182.4460  179.2980  138.4280 C   0  0  0  0  0  2  0  0  0  0  0  0
  180.3710  178.5480  139.2620 O   0  0  0  0  0  0  0  0  0  0  0  0
  182.2180  176.6890  139.4880 S   0  0  0  0  0  0  0  0  0  0  0  0
  1 21  1  0  0  0  0
  1 20  1  0  0  0  0
  2 17  1  0  0  0  0
  3 14  2  0  0  0  0
  4  9  2  0  0  0  0
  5  7  1  0  0  0  0
  6 16  1  0  0  0  0
  7  2  2  0  0  0  0
  7  4  1  0  0  0  0
  8 12  1  0  0  0  0
  9  6  1  0  0  0  0
 10 20  2  0  0  0  0
 10 14  1  0  0  0  0
 11  5  2  0  0  0  0
 12  4  1  0  0  0  0
 13 19  1  0  0  0  0
 13 15  2  0  0  0  0
 14 18  1  0  0  0  0
 15 10  1  0  0  0  0
 17  6  2  0  0  0  0
 18  5  1  0  0  0  0
 18  8  1  1  0  0  0
 19  1  1  0  0  0  0
 20 11  1  0  0  0  0
 22 24  1  0  0  0  0
 22 21  1  0  0  0  0
 23 27  2  0  0  0  0
 23 28  1  0  0  0  0
 25 22  1  0  0  0  0
 26 23  1  0  0  0  0
 26 25  1  0  0  0  0
 28 24  1  0  0  0  0
M  END
>  <MODEL>
4

>  <REMARK>
 VINA RESULT:      -9.4      2.933      5.093
  Name = 
  2 active torsions:
  status: ('A' for Active; 'I' for Inactive)
    1  A    between atoms: N_1  and  C_2
    2  A    between atoms: C_2  and  N_3
                            x       y       z     vdW  Elec       q    Type
                         _______ _______ _______ _____ _____    ______ ____

>  <TORSDO>
F 2

$$$$
=
 OpenBabel11052413283D

 28 32  0  0  1  0  0  0  0  0999 V2000
  188.9500  178.0520  140.0940 N   0  0  0  0  0  0  0  0  0  0  0  0
  184.2120  178.6290  141.8860 C   0  0  0  0  0  3  0  0  0  0  0  0
  189.7340  177.2290  145.0610 S   0  0  0  0  0  0  0  0  0  0  0  0
  184.4710  178.4220  144.2940 C   0  0  0  0  0  0  0  0  0  0  0  0
  186.4540  178.0240  142.8280 C   0  0  0  0  0  0  0  0  0  0  0  0
  182.3200  179.0160  143.3450 C   0  0  0  0  0  0  0  0  0  0  0  0
  185.0210  178.3460  142.9960 C   0  0  0  0  0  0  0  0  0  0  0  0
  186.7860  178.3320  145.2680 C   0  0  0  0  0  2  0  0  0  0  0  0
  183.1200  178.7440  144.4580 C   0  0  0  0  0  3  0  0  0  0  0  0
  189.2570  177.6990  142.4460 C   0  0  0  0  0  0  0  0  0  0  0  0
  187.0200  178.1490  141.6620 N   0  0  0  0  0  0  0  0  0  0  0  0
  185.2950  178.1010  145.5120 C   0  0  0  0  0  2  0  0  0  0  0  0
  191.1750  177.5710  141.0050 C   0  0  0  0  0  3  0  0  0  0  0  0
  188.7270  177.6130  143.8220 C   0  0  0  0  0  0  0  0  0  0  0  0
  190.6690  177.5930  142.2020 N   0  0  0  0  0  0  0  0  0  0  0  0
  180.8870  179.3630  143.5280 C   0  0  0  0  0  1  0  0  0  0  0  0
  182.8670  178.9600  142.0600 C   0  0  0  0  0  3  0  0  0  0  0  0
  187.2350  177.5490  144.0330 C   0  0  2  0  0  3  0  0  0  0  0  0
  190.3030  177.5900  139.7820 C   0  0  0  0  0  2  0  0  0  0  0  0
  188.4200  177.9330  141.4250 C   0  0  0  0  0  0  0  0  0  0  0  0
  188.0900  178.4400  138.9860 C   0  0  0  0  0  2  0  0  0  0  0  0
  187.5210  177.2570  138.3630 N   0  0  0  0  0  0  0  0  0  0  0  0
  186.7580  175.6370  136.1280 C   0  0  0  0  0  0  0  0  0  0  0  0
  186.3340  177.6880  137.6270 C   0  0  0  0  0  2  0  0  0  0  0  0
  188.5120  176.7700  137.4040 C   0  0  0  0  0  2  0  0  0  0  0  0
  188.0720  175.4360  136.8030 C   0  0  0  0  0  2  0  0  0  0  0  0
  186.6530  175.5020  134.9200 O   0  0  0  0  0  0  0  0  0  0  0  0
  185.3770  176.2270  137.1020 S   0  0  0  0  0  0  0  0  0  0  0  0
  1 20  1  0  0  0  0
  2 17  2  0  0  0  0
  2  7  1  0  0  0  0
  4  9  1  0  0  0  0
  4 12  1  0  0  0  0
  5  7  1  0  0  0  0
  5 18  1  0  0  0  0
  6 16  1  0  0  0  0
  6  9  2  0  0  0  0
  7  4  2  0  0  0  0
  8 12  1  0  0  0  0
 10 14  1  0  0  0  0
 11  5  2  0  0  0  0
 13 15  2  0  0  0  0
 14 18  1  0  0  0  0
 14  3  2  0  0  0  0
 15 10  1  0  0  0  0
 17  6  1  0  0  0  0
 18  8  1  1  0  0  0
 19  1  1  0  0  0  0
 19 13  1  0  0  0  0
 20 11  1  0  0  0  0
 20 10  2  0  0  0  0
 21  1  1  0  0  0  0
 22 21  1  0  0  0  0
 23 26  1  0  0  0  0
 23 28  1  0  0  0  0
 24 22  1  0  0  0  0
 25 22  1  0  0  0  0
 26 25  1  0  0  0  0
 27 23  2  0  0  0  0
 28 24  1  0  0  0  0
M  END
>  <MODEL>
5

>  <REMARK>
 VINA RESULT:      -8.6      2.638      5.207
  Name = 
  2 active torsions:
  status: ('A' for Active; 'I' for Inactive)
    1  A    between atoms: N_1  and  C_2
    2  A    between atoms: C_2  and  N_3
                            x       y       z     vdW  Elec       q    Type
                         _______ _______ _______ _____ _____    ______ ____

>  <TORSDO>
F 2

$$$$
=
 OpenBabel11052413283D

 28 32  0  0  1  0  0  0  0  0999 V2000
  185.9510  178.6070  139.8250 N   0  0  0  0  0  0  0  0  0  0  0  0
  189.3610  177.5980  143.4780 C   0  0  0  0  0  3  0  0  0  0  0  0
  183.0080  178.9910  143.9670 S   0  0  0  0  0  0  0  0  0  0  0  0
  188.0410  177.5870  145.5200 C   0  0  0  0  0  0  0  0  0  0  0  0
  186.9390  178.2330  143.3730 C   0  0  0  0  0  0  0  0  0  0  0  0
  190.3850  176.9680  145.5790 C   0  0  0  0  0  0  0  0  0  0  0  0
  188.1390  177.8170  144.1300 C   0  0  0  0  0  0  0  0  0  0  0  0
  185.5370  177.7110  145.3520 C   0  0  0  0  0  2  0  0  0  0  0  0
  189.1700  177.1760  146.2360 C   0  0  0  0  0  3  0  0  0  0  0  0
  184.6150  178.7490  141.8120 C   0  0  0  0  0  0  0  0  0  0  0  0
  186.9620  178.2530  142.0720 N   0  0  0  0  0  0  0  0  0  0  0  0
  186.7570  177.8350  146.2650 C   0  0  0  0  0  2  0  0  0  0  0  0
  183.5570  179.1220  139.6870 C   0  0  0  0  0  3  0  0  0  0  0  0
  184.4650  178.6730  143.2790 C   0  0  0  0  0  0  0  0  0  0  0  0
  183.4670  178.9570  140.9720 N   0  0  0  0  0  0  0  0  0  0  0  0
  191.5780  176.5250  146.3460 C   0  0  0  0  0  1  0  0  0  0  0  0
  190.4800  177.1770  144.2000 C   0  0  0  0  0  3  0  0  0  0  0  0
  185.7000  178.6330  144.1430 C   0  0  2  0  0  3  0  0  0  0  0  0
  184.8890  179.1720  138.9920 C   0  0  0  0  0  2  0  0  0  0  0  0
  185.8220  178.5690  141.2570 C   0  0  0  0  0  0  0  0  0  0  0  0
  187.2170  178.2800  139.1860 C   0  0  0  0  0  2  0  0  0  0  0  0
  186.9770  177.5050  137.9810 N   0  0  0  0  0  0  0  0  0  0  0  0
  187.7780  176.1510  135.5870 C   0  0  0  0  0  0  0  0  0  0  0  0
  187.3340  178.3540  136.8450 C   0  0  0  0  0  2  0  0  0  0  0  0
  187.9010  176.3710  138.0210 C   0  0  0  0  0  2  0  0  0  0  0  0
  187.6230  175.4070  136.8690 C   0  0  0  0  0  2  0  0  0  0  0  0
  188.6600  175.8530  134.7980 O   0  0  0  0  0  0  0  0  0  0  0  0
  186.7460  177.5860  135.3000 S   0  0  0  0  0  0  0  0  0  0  0  0
  1 20  1  0  0  0  0
  2  7  2  0  0  0  0
  2 17  1  0  0  0  0
  4  9  2  0  0  0  0
  4 12  1  0  0  0  0
  5  7  1  0  0  0  0
  5 18  1  0  0  0  0
  6  9  1  0  0  0  0
  6 16  1  0  0  0  0
  7  4  1  0  0  0  0
  8 12  1  0  0  0  0
 10 14  1  0  0  0  0
 11  5  2  0  0  0  0
 13 15  2  0  0  0  0
 14  3  2  0  0  0  0
 14 18  1  0  0  0  0
 15 10  1  0  0  0  0
 17  6  2  0  0  0  0
 18  8  1  1  0  0  0
 19 13  1  0  0  0  0
 19  1  1  0  0  0  0
 20 10  2  0  0  0  0
 20 11  1  0  0  0  0
 21  1  1  0  0  0  0
 22 25  1  0  0  0  0
 22 21  1  0  0  0  0
 23 26  1  0  0  0  0
 24 22  1  0  0  0  0
 26 25  1  0  0  0  0
 27 23  2  0  0  0  0
 28 23  1  0  0  0  0
 28 24  1  0  0  0  0
M  END
>  <MODEL>
6

>  <REMARK>
 VINA RESULT:      -8.6      1.380      1.695
  Name = 
  2 active torsions:
  status: ('A' for Active; 'I' for Inactive)
    1  A    between atoms: N_1  and  C_2
    2  A    between atoms: C_2  and  N_3
                            x       y       z     vdW  Elec       q    Type
                         _______ _______ _______ _____ _____    ______ ____

>  <TORSDO>
F 2

$$$$
=
 OpenBabel11052413283D

 28 32  0  0  1  0  0  0  0  0999 V2000
  184.3680  178.8800  142.9600 N   0  0  0  0  0  0  0  0  0  0  0  0
  188.2390  177.8800  139.7960 C   0  0  0  0  0  3  0  0  0  0  0  0
  187.9500  177.4720  146.2990 S   0  0  0  0  0  0  0  0  0  0  0  0
  189.9840  177.0310  141.2610 C   0  0  0  0  0  0  0  0  0  0  0  0
  187.8700  177.8950  142.2750 C   0  0  0  0  0  0  0  0  0  0  0  0
  190.2990  177.0240  138.8570 C   0  0  0  0  0  0  0  0  0  0  0  0
  188.7100  177.6170  141.0910 C   0  0  0  0  0  0  0  0  0  0  0  0
  189.4330  176.5630  143.6680 C   0  0  0  0  0  2  0  0  0  0  0  0
  190.7740  176.7510  140.1420 C   0  0  0  0  0  3  0  0  0  0  0  0
  186.0890  178.1840  144.4780 C   0  0  0  0  0  0  0  0  0  0  0  0
  186.6240  178.2430  142.1260 N   0  0  0  0  0  0  0  0  0  0  0  0
  190.5410  176.7560  142.6320 C   0  0  0  0  0  2  0  0  0  0  0  0
  183.9460  178.7970  145.3740 C   0  0  0  0  0  3  0  0  0  0  0  0
  187.4620  177.7100  144.7490 C   0  0  0  0  0  0  0  0  0  0  0  0
  185.1340  178.3000  145.5450 N   0  0  0  0  0  0  0  0  0  0  0  0
  191.1420  176.7180  137.6720 C   0  0  0  0  0  1  0  0  0  0  0  0
  189.0310  177.5870  138.6840 C   0  0  0  0  0  3  0  0  0  0  0  0
  188.4900  177.7670  143.6490 C   0  0  2  0  0  3  0  0  0  0  0  0
  183.5090  179.3500  144.0470 C   0  0  0  0  0  2  0  0  0  0  0  0
  185.7170  178.4560  143.2190 C   0  0  0  0  0  0  0  0  0  0  0  0
  183.8940  179.0500  141.5950 C   0  0  0  0  0  2  0  0  0  0  0  0
  182.8360  178.0940  141.3150 N   0  0  0  0  0  0  0  0  0  0  0  0
  180.8780  176.8320  139.6480 C   0  0  0  0  0  0  0  0  0  0  0  0
  181.6210  178.8630  141.0480 C   0  0  0  0  0  2  0  0  0  0  0  0
  183.2190  177.3900  140.0920 C   0  0  0  0  0  2  0  0  0  0  0  0
  182.2430  176.2520  139.7940 C   0  0  0  0  0  2  0  0  0  0  0  0
  180.2910  176.7780  138.5800 O   0  0  0  0  0  0  0  0  0  0  0  0
  180.1820  177.7430  141.0240 S   0  0  0  0  0  0  0  0  0  0  0  0
  1 20  1  0  0  0  0
  1 19  1  0  0  0  0
  2  7  1  0  0  0  0
  4 12  1  0  0  0  0
  5 18  1  0  0  0  0
  6  9  2  0  0  0  0
  7  4  2  0  0  0  0
  7  5  1  0  0  0  0
  9  4  1  0  0  0  0
 10 14  1  0  0  0  0
 10 15  1  0  0  0  0
 11  5  2  0  0  0  0
 11 20  1  0  0  0  0
 12  8  1  0  0  0  0
 13 15  2  0  0  0  0
 14  3  2  0  0  0  0
 16  6  1  0  0  0  0
 17  6  1  0  0  0  0
 17  2  2  0  0  0  0
 18  8  1  6  0  0  0
 18 14  1  0  0  0  0
 19 13  1  0  0  0  0
 20 10  2  0  0  0  0
 21  1  1  0  0  0  0
 22 21  1  0  0  0  0
 23 26  1  0  0  0  0
 23 28  1  0  0  0  0
 24 22  1  0  0  0  0
 25 22  1  0  0  0  0
 26 25  1  0  0  0  0
 27 23  2  0  0  0  0
 28 24  1  0  0  0  0
M  END
>  <MODEL>
7

>  <REMARK>
 VINA RESULT:      -8.4      3.523      5.974
  Name = 
  2 active torsions:
  status: ('A' for Active; 'I' for Inactive)
    1  A    between atoms: N_1  and  C_2
    2  A    between atoms: C_2  and  N_3
                            x       y       z     vdW  Elec       q    Type
                         _______ _______ _______ _____ _____    ______ ____

>  <TORSDO>
F 2

$$$$
=
 OpenBabel11052413283D

 28 32  0  0  1  0  0  0  0  0999 V2000
  183.0350  178.2020  138.8940 N   0  0  0  0  0  0  0  0  0  0  0  0
  186.4530  177.8540  142.6600 C   0  0  0  0  0  3  0  0  0  0  0  0
  180.2040  179.7100  142.8530 S   0  0  0  0  0  0  0  0  0  0  0  0
  185.1760  178.3950  144.6580 C   0  0  0  0  0  0  0  0  0  0  0  0
  184.0710  178.5960  142.4260 C   0  0  0  0  0  0  0  0  0  0  0  0
  187.4810  177.6640  144.8440 C   0  0  0  0  0  0  0  0  0  0  0  0
  185.2590  178.2930  143.2520 C   0  0  0  0  0  0  0  0  0  0  0  0
  182.6810  178.6310  144.4810 C   0  0  0  0  0  2  0  0  0  0  0  0
  186.2930  178.0920  145.4420 C   0  0  0  0  0  3  0  0  0  0  0  0
  181.7500  178.8800  140.8020 C   0  0  0  0  0  0  0  0  0  0  0  0
  184.0680  178.3130  141.1550 N   0  0  0  0  0  0  0  0  0  0  0  0
  183.9240  178.8870  145.3330 C   0  0  0  0  0  2  0  0  0  0  0  0
  180.6730  178.8160  138.6550 C   0  0  0  0  0  3  0  0  0  0  0  0
  181.6260  179.1530  142.2480 C   0  0  0  0  0  0  0  0  0  0  0  0
  180.6000  178.9580  139.9440 N   0  0  0  0  0  0  0  0  0  0  0  0
  188.6610  177.3380  145.6850 C   0  0  0  0  0  1  0  0  0  0  0  0
  187.5600  177.5430  143.4540 C   0  0  0  0  0  3  0  0  0  0  0  0
  182.8730  179.2380  143.0900 C   0  0  2  0  0  3  0  0  0  0  0  0
  181.9910  178.6230  137.9600 C   0  0  0  0  0  2  0  0  0  0  0  0
  182.9330  178.5020  140.2960 C   0  0  0  0  0  0  0  0  0  0  0  0
  184.2670  177.6590  138.3400 C   0  0  0  0  0  2  0  0  0  0  0  0
  183.9650  176.5350  137.4700 N   0  0  0  0  0  0  0  0  0  0  0  0
  183.9990  173.7680  136.7300 C   0  0  0  0  0  0  0  0  0  0  0  0
  185.2420  176.0090  136.9900 C   0  0  0  0  0  2  0  0  0  0  0  0
  183.3270  175.5170  138.3040 C   0  0  0  0  0  2  0  0  0  0  0  0
  182.8310  174.3510  137.4500 C   0  0  0  0  0  2  0  0  0  0  0  0
  184.3640  172.6270  136.9610 O   0  0  0  0  0  0  0  0  0  0  0  0
  184.9450  174.8240  135.6360 S   0  0  0  0  0  0  0  0  0  0  0  0
  1 20  1  0  0  0  0
  2  7  2  0  0  0  0
  2 17  1  0  0  0  0
  4 12  1  0  0  0  0
  4  9  2  0  0  0  0
  5 18  1  0  0  0  0
  5  7  1  0  0  0  0
  6  9  1  0  0  0  0
  6 16  1  0  0  0  0
  7  4  1  0  0  0  0
  8 12  1  0  0  0  0
 10 14  1  0  0  0  0
 11  5  2  0  0  0  0
 13 15  2  0  0  0  0
 14  3  2  0  0  0  0
 14 18  1  0  0  0  0
 15 10  1  0  0  0  0
 17  6  2  0  0  0  0
 18  8  1  1  0  0  0
 19 13  1  0  0  0  0
 19  1  1  0  0  0  0
 20 10  2  0  0  0  0
 20 11  1  0  0  0  0
 21  1  1  0  0  0  0
 22 25  1  0  0  0  0
 22 21  1  0  0  0  0
 23 27  2  0  0  0  0
 23 26  1  0  0  0  0
 24 22  1  0  0  0  0
 26 25  1  0  0  0  0
 28 23  1  0  0  0  0
 28 24  1  0  0  0  0
M  END
>  <MODEL>
8

>  <REMARK>
 VINA RESULT:      -8.3      3.523      4.867
  Name = 
  2 active torsions:
  status: ('A' for Active; 'I' for Inactive)
    1  A    between atoms: N_1  and  C_2
    2  A    between atoms: C_2  and  N_3
                            x       y       z     vdW  Elec       q    Type
                         _______ _______ _______ _____ _____    ______ ____

>  <TORSDO>
F 2

$$$$
=
 OpenBabel11052413283D

 28 32  0  0  1  0  0  0  0  0999 V2000
  183.0640  178.6180  141.7670 N   0  0  0  0  0  0  0  0  0  0  0  0
  188.0220  177.9730  140.7660 C   0  0  0  0  0  3  0  0  0  0  0  0
  184.9590  178.5420  146.4960 S   0  0  0  0  0  0  0  0  0  0  0  0
  189.0360  177.7530  142.9650 C   0  0  0  0  0  0  0  0  0  0  0  0
  186.6030  178.2990  142.8060 C   0  0  0  0  0  0  0  0  0  0  0  0
  190.3730  177.4340  140.9680 C   0  0  0  0  0  0  0  0  0  0  0  0
  187.9050  178.0220  142.1630 C   0  0  0  0  0  0  0  0  0  0  0  0
  187.5460  177.5640  144.9800 C   0  0  0  0  0  2  0  0  0  0  0  0
  190.2650  177.4730  142.3600 C   0  0  0  0  0  3  0  0  0  0  0  0
  184.0160  178.5500  143.9670 C   0  0  0  0  0  0  0  0  0  0  0  0
  185.5180  178.3480  142.0890 N   0  0  0  0  0  0  0  0  0  0  0  0
  188.9630  177.8210  144.4670 C   0  0  0  0  0  2  0  0  0  0  0  0
  181.6390  178.8290  143.7510 C   0  0  0  0  0  3  0  0  0  0  0  0
  185.1760  178.4250  144.8720 C   0  0  0  0  0  0  0  0  0  0  0  0
  182.6830  178.6280  144.4980 N   0  0  0  0  0  0  0  0  0  0  0  0
  191.6810  177.1290  140.3320 C   0  0  0  0  0  1  0  0  0  0  0  0
  189.2510  177.6810  140.1710 C   0  0  0  0  0  3  0  0  0  0  0  0
  186.5680  178.5230  144.3010 C   0  0  2  0  0  3  0  0  0  0  0  0
  181.7650  179.0610  142.2710 C   0  0  0  0  0  2  0  0  0  0  0  0
  184.2040  178.5340  142.6400 C   0  0  0  0  0  0  0  0  0  0  0  0
  183.2210  178.4670  140.3270 C   0  0  0  0  0  2  0  0  0  0  0  0
  182.1780  179.2040  139.6360 N   0  0  0  0  0  0  0  0  0  0  0  0
  180.8430  180.2100  137.3090 C   0  0  0  0  0  0  0  0  0  0  0  0
  182.8240  180.3240  138.9520 C   0  0  0  0  0  2  0  0  0  0  0  0
  181.6230  178.3010  138.6280 C   0  0  0  0  0  2  0  0  0  0  0  0
  180.4110  178.9330  137.9450 C   0  0  0  0  0  2  0  0  0  0  0  0
  180.8100  180.3420  136.0970 O   0  0  0  0  0  0  0  0  0  0  0  0
  181.5550  181.4840  138.3450 S   0  0  0  0  0  0  0  0  0  0  0  0
  1 19  1  0  0  0  0
  1 20  1  0  0  0  0
  2  7  1  0  0  0  0
  4 12  1  0  0  0  0
  5 18  1  0  0  0  0
  6  9  2  0  0  0  0
  7  5  1  0  0  0  0
  7  4  2  0  0  0  0
  9  4  1  0  0  0  0
 10 15  1  0  0  0  0
 10 14  1  0  0  0  0
 11 20  1  0  0  0  0
 11  5  2  0  0  0  0
 12  8  1  0  0  0  0
 13 15  2  0  0  0  0
 14  3  2  0  0  0  0
 16  6  1  0  0  0  0
 17  2  2  0  0  0  0
 17  6  1  0  0  0  0
 18 14  1  0  0  0  0
 18  8  1  1  0  0  0
 19 13  1  0  0  0  0
 20 10  2  0  0  0  0
 21  1  1  0  0  0  0
 22 21  1  0  0  0  0
 23 26  1  0  0  0  0
 23 28  1  0  0  0  0
 24 22  1  0  0  0  0
 25 22  1  0  0  0  0
 26 25  1  0  0  0  0
 27 23  2  0  0  0  0
 28 24  1  0  0  0  0
M  END
>  <MODEL>
9

>  <REMARK>
 VINA RESULT:      -8.0      3.432      5.323
  Name = 
  2 active torsions:
  status: ('A' for Active; 'I' for Inactive)
    1  A    between atoms: N_1  and  C_2
    2  A    between atoms: C_2  and  N_3
                            x       y       z     vdW  Elec       q    Type
                         _______ _______ _______ _____ _____    ______ ____

>  <TORSDO>
F 2

$$$$
