=
 OpenBabel11052416573D

 32 36  0  0  1  0  0  0  0  0999 V2000
  188.7030  177.1520  147.0020 C   0  0  2  0  0  3  0  0  0  0  0  0
  189.3300  177.6760  142.7810 C   0  0  0  0  0  0  0  0  0  0  0  0
  184.6880  178.8920  142.0620 C   0  0  0  0  0  3  0  0  0  0  0  0
  184.9770  179.0160  140.7040 C   0  0  0  0  0  3  0  0  0  0  0  0
  190.1930  177.1640  144.9850 C   0  0  0  0  0  0  0  0  0  0  0  0
  187.8550  177.7500  144.7130 C   0  0  0  0  0  3  0  0  0  0  0  0
  188.0480  175.9470  147.1770 F   0  0  0  0  0  0  0  0  0  0  0  0
  185.7010  178.5220  142.9460 C   0  0  0  0  0  3  0  0  0  0  0  0
  188.0470  177.9040  143.3310 C   0  0  0  0  0  0  0  0  0  0  0  0
  186.9980  178.2760  142.4710 C   0  0  0  0  0  0  0  0  0  0  0  0
  188.5380  178.1700  140.5920 C   0  0  0  0  0  0  0  0  0  0  0  0
  191.1670  176.8040  147.1280 C   0  0  0  0  0  0  0  0  0  0  0  0
  188.9220  177.3880  145.5380 C   0  0  0  0  0  0  0  0  0  0  0  0
  191.2900  176.8170  145.8330 N   0  0  0  0  0  0  0  0  0  0  0  0
  189.9380  177.1260  147.7250 O   0  0  0  0  0  0  0  0  0  0  0  0
  186.2360  178.7770  140.2480 N   0  0  0  0  0  0  0  0  0  0  0  0
  187.2470  178.4130  141.0870 C   0  0  0  0  0  0  0  0  0  0  0  0
  190.3930  177.3090  143.6110 C   0  0  0  0  0  3  0  0  0  0  0  0
  189.5360  177.8170  141.4460 N   0  0  0  0  0  0  0  0  0  0  0  0
  192.3200  176.4850  147.9760 C   0  0  0  0  0  0  0  0  0  0  0  0
  192.9930  175.4380  147.7610 O   0  0  0  0  0  0  0  0  0  0  0  0
  192.6630  177.3450  149.0190 O   0  0  0  0  0  0  0  0  0  0  0  0
  193.6850  177.0260  149.9500 C   0  0  0  0  0  1  0  0  0  0  0  0
  188.8520  178.3380  139.1400 C   0  0  0  0  0  2  0  0  0  0  0  0
  186.5910  174.9730  137.3840 C   0  0  0  0  0  1  0  0  0  0  0  0
  187.8590  177.1220  137.4040 C   0  0  0  0  0  2  0  0  0  0  0  0
  190.1960  176.8300  137.9130 C   0  0  2  0  0  3  0  0  0  0  0  0
  190.2070  175.8650  136.7130 C   0  0  0  0  0  2  0  0  0  0  0  0
  188.9880  174.9480  136.7320 C   0  0  0  0  0  2  0  0  0  0  0  0
  187.6950  175.7650  136.7130 C   0  0  1  0  0  3  0  0  0  0  0  0
  191.1240  176.2840  138.9850 C   0  0  0  0  0  1  0  0  0  0  0  0
  188.8500  177.0400  138.4790 N   0  0  0  0  0  0  0  0  0  0  0  0
  1  7  1  6  0  0  0
  1 15  1  0  0  0  0
  2  9  2  0  0  0  0
  2 18  1  0  0  0  0
  3  8  1  0  0  0  0
  4  3  2  0  0  0  0
  5 13  1  0  0  0  0
  5 14  1  0  0  0  0
  6 13  2  0  0  0  0
  9  6  1  0  0  0  0
 10  8  2  0  0  0  0
 10  9  1  0  0  0  0
 11 17  1  0  0  0  0
 11 19  2  0  0  0  0
 12 15  1  0  0  0  0
 12 20  1  0  0  0  0
 13  1  1  0  0  0  0
 14 12  2  0  0  0  0
 16  4  1  0  0  0  0
 16 17  2  0  0  0  0
 17 10  1  0  0  0  0
 18  5  2  0  0  0  0
 19  2  1  0  0  0  0
 20 22  1  0  0  0  0
 21 20  2  0  0  0  0
 22 23  1  0  0  0  0
 24 11  1  0  0  0  0
 26 32  1  0  0  0  0
 27 32  1  0  0  0  0
 27 31  1  1  0  0  0
 28 29  1  0  0  0  0
 28 27  1  0  0  0  0
 30 29  1  0  0  0  0
 30 25  1  1  0  0  0
 30 26  1  0  0  0  0
 32 24  1  0  0  0  0
M  END
>  <MODEL>
1

>  <REMARK>
 VINA RESULT:      -9.2      0.000      0.000
  Name = 
  4 active torsions:
  status: ('A' for Active; 'I' for Inactive)
    1  A    between atoms: C_1  and  O_10
    2  A    between atoms: C_1  and  C_19
    3  A    between atoms: C_16  and  C_27
    4  A    between atoms: C_27  and  N_32
                            x       y       z     vdW  Elec       q    Type
                         _______ _______ _______ _____ _____    ______ ____

>  <TORSDO>
F 4

$$$$
=
 OpenBabel11052416573D

 32 36  0  0  1  0  0  0  0  0999 V2000
  183.6170  178.4050  144.7390 C   0  0  2  0  0  3  0  0  0  0  0  0
  186.1480  178.6050  141.2700 C   0  0  0  0  0  0  0  0  0  0  0  0
  189.9750  176.9400  143.7470 C   0  0  0  0  0  3  0  0  0  0  0  0
  190.7260  177.0590  142.5790 C   0  0  0  0  0  3  0  0  0  0  0  0
  183.9770  178.8830  142.3040 C   0  0  0  0  0  0  0  0  0  0  0  0
  185.8400  178.0560  143.6200 C   0  0  0  0  0  3  0  0  0  0  0  0
  183.9380  179.4780  145.5490 F   0  0  0  0  0  0  0  0  0  0  0  0
  188.6270  177.2970  143.7320 C   0  0  0  0  0  3  0  0  0  0  0  0
  186.6780  178.1380  142.4960 C   0  0  0  0  0  0  0  0  0  0  0  0
  188.0340  177.7710  142.5520 C   0  0  0  0  0  0  0  0  0  0  0  0
  188.2590  178.3500  140.2010 C   0  0  0  0  0  0  0  0  0  0  0  0
  181.7710  179.0350  143.1890 C   0  0  0  0  0  0  0  0  0  0  0  0
  184.4940  178.4210  143.5240 C   0  0  0  0  0  0  0  0  0  0  0  0
  182.5940  179.2330  142.2020 N   0  0  0  0  0  0  0  0  0  0  0  0
  182.2300  178.4760  144.3920 O   0  0  0  0  0  0  0  0  0  0  0  0
  190.1480  177.5200  141.4370 N   0  0  0  0  0  0  0  0  0  0  0  0
  188.8330  177.8760  141.3910 C   0  0  0  0  0  0  0  0  0  0  0  0
  184.8030  178.9730  141.1820 C   0  0  0  0  0  3  0  0  0  0  0  0
  186.9430  178.6930  140.1720 N   0  0  0  0  0  0  0  0  0  0  0  0
  180.3490  179.3650  143.0420 C   0  0  0  0  0  0  0  0  0  0  0  0
  179.4720  178.4730  143.2120 O   0  0  0  0  0  0  0  0  0  0  0  0
  179.9790  180.6690  142.7130 O   0  0  0  0  0  0  0  0  0  0  0  0
  179.2580  180.9670  141.5280 C   0  0  0  0  0  1  0  0  0  0  0  0
  189.0600  178.4440  138.9420 C   0  0  0  0  0  2  0  0  0  0  0  0
  185.6330  177.1620  136.4660 C   0  0  0  0  0  1  0  0  0  0  0  0
  187.7400  178.3820  137.0090 C   0  0  0  0  0  2  0  0  0  0  0  0
  189.6430  176.9220  137.2310 C   0  0  2  0  0  3  0  0  0  0  0  0
  189.2920  176.4550  135.8060 C   0  0  0  0  0  2  0  0  0  0  0  0
  187.7900  176.2360  135.6510 C   0  0  0  0  0  2  0  0  0  0  0  0
  187.0200  177.5190  135.9700 C   0  0  1  0  0  3  0  0  0  0  0  0
  190.1440  175.7260  138.0230 C   0  0  0  0  0  1  0  0  0  0  0  0
  188.5090  177.5480  137.9350 N   0  0  0  0  0  0  0  0  0  0  0  0
  1  7  1  1  0  0  0
  2  9  1  0  0  0  0
  4  3  2  0  0  0  0
  5 13  2  0  0  0  0
  8  3  1  0  0  0  0
  9 10  1  0  0  0  0
  9  6  2  0  0  0  0
 10  8  2  0  0  0  0
 11 17  1  0  0  0  0
 12 15  1  0  0  0  0
 13  6  1  0  0  0  0
 13  1  1  0  0  0  0
 14  5  1  0  0  0  0
 14 12  2  0  0  0  0
 15  1  1  0  0  0  0
 16  4  1  0  0  0  0
 17 16  2  0  0  0  0
 17 10  1  0  0  0  0
 18  2  2  0  0  0  0
 18  5  1  0  0  0  0
 19 11  2  0  0  0  0
 19  2  1  0  0  0  0
 20 12  1  0  0  0  0
 20 21  2  0  0  0  0
 22 20  1  0  0  0  0
 23 22  1  0  0  0  0
 24 11  1  0  0  0  0
 26 32  1  0  0  0  0
 27 32  1  0  0  0  0
 27 31  1  1  0  0  0
 28 27  1  0  0  0  0
 29 28  1  0  0  0  0
 29 30  1  0  0  0  0
 30 25  1  1  0  0  0
 30 26  1  0  0  0  0
 32 24  1  0  0  0  0
M  END
>  <MODEL>
2

>  <REMARK>
 VINA RESULT:      -9.1      4.047      6.869
  Name = 
  4 active torsions:
  status: ('A' for Active; 'I' for Inactive)
    1  A    between atoms: C_1  and  O_10
    2  A    between atoms: C_1  and  C_19
    3  A    between atoms: C_16  and  C_27
    4  A    between atoms: C_27  and  N_32
                            x       y       z     vdW  Elec       q    Type
                         _______ _______ _______ _____ _____    ______ ____

>  <TORSDO>
F 4

$$$$
=
 OpenBabel11052416573D

 32 36  0  0  1  0  0  0  0  0999 V2000
  184.5180  178.3610  145.1560 C   0  0  2  0  0  3  0  0  0  0  0  0
  187.1340  178.2240  141.7480 C   0  0  0  0  0  0  0  0  0  0  0  0
  190.8740  176.7290  144.4540 C   0  0  0  0  0  3  0  0  0  0  0  0
  191.6550  176.7370  143.2990 C   0  0  0  0  0  3  0  0  0  0  0  0
  184.9430  178.6200  142.6990 C   0  0  0  0  0  0  0  0  0  0  0  0
  186.7610  177.8860  144.1270 C   0  0  0  0  0  3  0  0  0  0  0  0
  184.8370  179.4960  145.8780 F   0  0  0  0  0  0  0  0  0  0  0  0
  189.5330  177.1020  144.3740 C   0  0  0  0  0  3  0  0  0  0  0  0
  187.6270  177.8580  143.0220 C   0  0  0  0  0  0  0  0  0  0  0  0
  188.9760  177.4800  143.1430 C   0  0  0  0  0  0  0  0  0  0  0  0
  189.2660  177.8500  140.7570 C   0  0  0  0  0  0  0  0  0  0  0  0
  182.7200  178.8780  143.5120 C   0  0  0  0  0  0  0  0  0  0  0  0
  185.4240  178.2590  143.9670 C   0  0  0  0  0  0  0  0  0  0  0  0
  183.5690  178.9780  142.5320 N   0  0  0  0  0  0  0  0  0  0  0  0
  183.1410  178.4200  144.7700 O   0  0  0  0  0  0  0  0  0  0  0  0
  191.1120  177.1040  142.1080 N   0  0  0  0  0  0  0  0  0  0  0  0
  189.8040  177.4730  141.9980 C   0  0  0  0  0  0  0  0  0  0  0  0
  185.7970  178.6010  141.5940 C   0  0  0  0  0  3  0  0  0  0  0  0
  187.9560  178.2060  140.6660 N   0  0  0  0  0  0  0  0  0  0  0  0
  181.3070  179.2130  143.3020 C   0  0  0  0  0  0  0  0  0  0  0  0
  180.9820  180.0560  142.4200 O   0  0  0  0  0  0  0  0  0  0  0  0
  180.3320  178.5940  144.0840 O   0  0  0  0  0  0  0  0  0  0  0  0
  179.0710  179.1970  144.3280 C   0  0  0  0  0  1  0  0  0  0  0  0
  190.0970  177.8230  139.5150 C   0  0  0  0  0  2  0  0  0  0  0  0
  186.3620  178.2540  137.1960 C   0  0  0  0  0  1  0  0  0  0  0  0
  188.7480  178.6660  137.7980 C   0  0  0  0  0  2  0  0  0  0  0  0
  190.1610  176.7540  137.4080 C   0  0  2  0  0  3  0  0  0  0  0  0
  189.6410  176.8240  135.9600 C   0  0  0  0  0  2  0  0  0  0  0  0
  188.1350  177.0630  135.9260 C   0  0  0  0  0  2  0  0  0  0  0  0
  187.7740  178.3570  136.6570 C   0  0  1  0  0  3  0  0  0  0  0  0
  190.3260  175.2940  137.7950 C   0  0  0  0  0  1  0  0  0  0  0  0
  189.2780  177.4300  138.3780 N   0  0  0  0  0  0  0  0  0  0  0  0
  1  7  1  6  0  0  0
  2  9  1  0  0  0  0
  4  3  2  0  0  0  0
  5 13  2  0  0  0  0
  8  3  1  0  0  0  0
  9 10  1  0  0  0  0
  9  6  2  0  0  0  0
 10  8  2  0  0  0  0
 11 17  1  0  0  0  0
 12 15  1  0  0  0  0
 13  6  1  0  0  0  0
 13  1  1  0  0  0  0
 14  5  1  0  0  0  0
 14 12  2  0  0  0  0
 15  1  1  0  0  0  0
 16  4  1  0  0  0  0
 17 16  2  0  0  0  0
 17 10  1  0  0  0  0
 18  2  2  0  0  0  0
 18  5  1  0  0  0  0
 19 11  2  0  0  0  0
 19  2  1  0  0  0  0
 20 12  1  0  0  0  0
 20 22  1  0  0  0  0
 21 20  2  0  0  0  0
 22 23  1  0  0  0  0
 24 11  1  0  0  0  0
 26 32  1  0  0  0  0
 27 31  1  1  0  0  0
 27 32  1  0  0  0  0
 28 27  1  0  0  0  0
 29 28  1  0  0  0  0
 29 30  1  0  0  0  0
 30 25  1  1  0  0  0
 30 26  1  0  0  0  0
 32 24  1  0  0  0  0
M  END
>  <MODEL>
3

>  <REMARK>
 VINA RESULT:      -9.0      3.658      6.448
  Name = 
  4 active torsions:
  status: ('A' for Active; 'I' for Inactive)
    1  A    between atoms: C_1  and  O_10
    2  A    between atoms: C_1  and  C_19
    3  A    between atoms: C_16  and  C_27
    4  A    between atoms: C_27  and  N_32
                            x       y       z     vdW  Elec       q    Type
                         _______ _______ _______ _____ _____    ______ ____

>  <TORSDO>
F 4

$$$$
=
 OpenBabel11052416573D

 32 36  0  0  1  0  0  0  0  0999 V2000
  187.3590  177.5740  146.6130 C   0  0  2  0  0  3  0  0  0  0  0  0
  186.3050  178.2990  142.5080 C   0  0  0  0  0  0  0  0  0  0  0  0
  181.6340  178.9640  143.6390 C   0  0  0  0  0  3  0  0  0  0  0  0
  181.3800  179.1630  142.2830 C   0  0  0  0  0  3  0  0  0  0  0  0
  187.9770  177.8280  144.1960 C   0  0  0  0  0  0  0  0  0  0  0  0
  185.6600  178.1350  144.8470 C   0  0  0  0  0  3  0  0  0  0  0  0
  186.9430  176.2940  146.9270 F   0  0  0  0  0  0  0  0  0  0  0  0
  182.9360  178.6920  144.0580 C   0  0  0  0  0  3  0  0  0  0  0  0
  185.3050  178.3530  143.5060 C   0  0  0  0  0  0  0  0  0  0  0  0
  183.9790  178.6210  143.1230 C   0  0  0  0  0  0  0  0  0  0  0  0
  184.7060  178.7600  140.8070 C   0  0  0  0  0  0  0  0  0  0  0  0
  189.7130  177.5250  145.7980 C   0  0  0  0  0  0  0  0  0  0  0  0
  186.9900  177.8800  145.1930 C   0  0  0  0  0  0  0  0  0  0  0  0
  189.3410  177.5920  144.5530 N   0  0  0  0  0  0  0  0  0  0  0  0
  188.7710  177.6770  146.8270 O   0  0  0  0  0  0  0  0  0  0  0  0
  182.3940  179.0920  141.3800 N   0  0  0  0  0  0  0  0  0  0  0  0
  183.6770  178.8290  141.7580 C   0  0  0  0  0  0  0  0  0  0  0  0
  187.6330  178.0380  142.8590 C   0  0  0  0  0  3  0  0  0  0  0  0
  185.9820  178.5050  141.2040 N   0  0  0  0  0  0  0  0  0  0  0  0
  191.1260  177.3220  146.1360 C   0  0  0  0  0  0  0  0  0  0  0  0
  192.0240  177.6040  145.2950 O   0  0  0  0  0  0  0  0  0  0  0  0
  191.4640  176.8150  147.3910 O   0  0  0  0  0  0  0  0  0  0  0  0
  192.3790  175.7410  147.5440 C   0  0  0  0  0  1  0  0  0  0  0  0
  184.4360  179.0090  139.3580 C   0  0  0  0  0  2  0  0  0  0  0  0
  183.0030  174.9620  138.3150 C   0  0  0  0  0  1  0  0  0  0  0  0
  183.2900  177.4280  138.0660 C   0  0  0  0  0  2  0  0  0  0  0  0
  185.5440  178.0600  137.4980 C   0  0  2  0  0  3  0  0  0  0  0  0
  185.3720  177.1140  136.2960 C   0  0  0  0  0  2  0  0  0  0  0  0
  184.7030  175.8080  136.7120 C   0  0  0  0  0  2  0  0  0  0  0  0
  183.3360  176.0770  137.3450 C   0  0  1  0  0  3  0  0  0  0  0  0
  186.9750  177.9540  137.9990 C   0  0  0  0  0  1  0  0  0  0  0  0
  184.6080  177.7760  138.6020 N   0  0  0  0  0  0  0  0  0  0  0  0
  1 15  1  0  0  0  0
  1  7  1  6  0  0  0
  2 18  2  0  0  0  0
  2  9  1  0  0  0  0
  3  8  1  0  0  0  0
  4  3  2  0  0  0  0
  5 14  1  0  0  0  0
  5 13  2  0  0  0  0
  6 13  1  0  0  0  0
  9  6  2  0  0  0  0
 10  9  1  0  0  0  0
 10  8  2  0  0  0  0
 11 19  2  0  0  0  0
 11 17  1  0  0  0  0
 12 20  1  0  0  0  0
 12 15  1  0  0  0  0
 13  1  1  0  0  0  0
 14 12  2  0  0  0  0
 16 17  2  0  0  0  0
 16  4  1  0  0  0  0
 17 10  1  0  0  0  0
 18  5  1  0  0  0  0
 19  2  1  0  0  0  0
 20 22  1  0  0  0  0
 21 20  2  0  0  0  0
 22 23  1  0  0  0  0
 24 11  1  0  0  0  0
 26 32  1  0  0  0  0
 27 31  1  1  0  0  0
 27 32  1  0  0  0  0
 28 29  1  0  0  0  0
 28 27  1  0  0  0  0
 29 30  1  0  0  0  0
 30 26  1  0  0  0  0
 30 25  1  1  0  0  0
 32 24  1  0  0  0  0
M  END
>  <MODEL>
4

>  <REMARK>
 VINA RESULT:      -8.9      2.269      3.417
  Name = 
  4 active torsions:
  status: ('A' for Active; 'I' for Inactive)
    1  A    between atoms: C_1  and  O_10
    2  A    between atoms: C_1  and  C_19
    3  A    between atoms: C_16  and  C_27
    4  A    between atoms: C_27  and  N_32
                            x       y       z     vdW  Elec       q    Type
                         _______ _______ _______ _____ _____    ______ ____

>  <TORSDO>
F 4

$$$$
=
 OpenBabel11052416573D

 32 36  0  0  1  0  0  0  0  0999 V2000
  190.5750  177.1170  142.7040 C   0  0  2  0  0  3  0  0  0  0  0  0
  186.7850  178.3380  141.0840 C   0  0  0  0  0  0  0  0  0  0  0  0
  184.7890  178.6250  145.4970 C   0  0  0  0  0  3  0  0  0  0  0  0
  183.5930  178.9930  144.8830 C   0  0  0  0  0  3  0  0  0  0  0  0
  189.1050  177.7240  140.7650 C   0  0  0  0  0  0  0  0  0  0  0  0
  188.1840  177.8300  143.0070 C   0  0  0  0  0  3  0  0  0  0  0  0
  190.4610  175.7880  143.0670 F   0  0  0  0  0  0  0  0  0  0  0  0
  185.9090  178.3610  144.7090 C   0  0  0  0  0  3  0  0  0  0  0  0
  186.9380  178.2100  142.4840 C   0  0  0  0  0  0  0  0  0  0  0  0
  185.8300  178.4650  143.3120 C   0  0  0  0  0  0  0  0  0  0  0  0
  184.4990  178.9490  141.3360 C   0  0  0  0  0  0  0  0  0  0  0  0
  191.4120  177.2880  140.3640 C   0  0  0  0  0  0  0  0  0  0  0  0
  189.2650  177.5940  142.1540 C   0  0  0  0  0  0  0  0  0  0  0  0
  190.2180  177.5050  139.8950 N   0  0  0  0  0  0  0  0  0  0  0  0
  191.6330  177.2560  141.7490 O   0  0  0  0  0  0  0  0  0  0  0  0
  183.5210  179.0930  143.5290 N   0  0  0  0  0  0  0  0  0  0  0  0
  184.5980  178.8410  142.7320 C   0  0  0  0  0  0  0  0  0  0  0  0
  187.8680  178.0960  140.2350 C   0  0  0  0  0  3  0  0  0  0  0  0
  185.5860  178.7030  140.5570 N   0  0  0  0  0  0  0  0  0  0  0  0
  192.5430  177.1080  139.4470 C   0  0  0  0  0  0  0  0  0  0  0  0
  193.7200  177.3340  139.8440 O   0  0  0  0  0  0  0  0  0  0  0  0
  192.3040  176.6870  138.1390 O   0  0  0  0  0  0  0  0  0  0  0  0
  193.3630  176.3780  137.2460 C   0  0  0  0  0  1  0  0  0  0  0  0
  183.2230  179.3780  140.6840 C   0  0  0  0  0  2  0  0  0  0  0  0
  180.0430  178.2530  143.5360 C   0  0  0  0  0  1  0  0  0  0  0  0
  181.0340  179.3220  141.5110 C   0  0  0  0  0  2  0  0  0  0  0  0
  181.7520  177.7220  139.8590 C   0  0  2  0  0  3  0  0  0  0  0  0
  180.3010  177.2100  139.9070 C   0  0  0  0  0  2  0  0  0  0  0  0
  179.7990  177.1080  141.3440 C   0  0  0  0  0  2  0  0  0  0  0  0
  179.8820  178.4660  142.0440 C   0  0  1  0  0  3  0  0  0  0  0  0
  182.6800  176.5340  139.6730 C   0  0  0  0  0  1  0  0  0  0  0  0
  182.1440  178.4770  141.0640 N   0  0  0  0  0  0  0  0  0  0  0  0
  1  7  1  6  0  0  0
  2  9  1  0  0  0  0
  4  3  1  0  0  0  0
  5 13  1  0  0  0  0
  8  3  2  0  0  0  0
  9  6  1  0  0  0  0
  9 10  2  0  0  0  0
 10  8  1  0  0  0  0
 11 17  2  0  0  0  0
 12 15  1  0  0  0  0
 13  1  1  0  0  0  0
 13  6  2  0  0  0  0
 14 12  2  0  0  0  0
 14  5  1  0  0  0  0
 15  1  1  0  0  0  0
 16  4  2  0  0  0  0
 17 10  1  0  0  0  0
 17 16  1  0  0  0  0
 18  5  2  0  0  0  0
 18  2  1  0  0  0  0
 19  2  2  0  0  0  0
 19 11  1  0  0  0  0
 20 21  2  0  0  0  0
 20 12  1  0  0  0  0
 22 20  1  0  0  0  0
 23 22  1  0  0  0  0
 24 32  1  0  0  0  0
 24 11  1  0  0  0  0
 26 30  1  0  0  0  0
 27 31  1  1  0  0  0
 27 28  1  0  0  0  0
 27 32  1  0  0  0  0
 28 29  1  0  0  0  0
 29 30  1  0  0  0  0
 30 25  1  1  0  0  0
 32 26  1  0  0  0  0
M  END
>  <MODEL>
5

>  <REMARK>
 VINA RESULT:      -8.6      3.716      6.765
  Name = 
  4 active torsions:
  status: ('A' for Active; 'I' for Inactive)
    1  A    between atoms: C_1  and  O_10
    2  A    between atoms: C_1  and  C_19
    3  A    between atoms: C_16  and  C_27
    4  A    between atoms: C_27  and  N_32
                            x       y       z     vdW  Elec       q    Type
                         _______ _______ _______ _____ _____    ______ ____

>  <TORSDO>
F 4

$$$$
=
 OpenBabel11052416573D

 32 36  0  0  1  0  0  0  0  0999 V2000
  182.1690  178.9810  139.2160 C   0  0  2  0  0  3  0  0  0  0  0  0
  185.9590  178.4530  141.1740 C   0  0  0  0  0  0  0  0  0  0  0  0
  188.3000  178.1030  136.9380 C   0  0  0  0  0  3  0  0  0  0  0  0
  189.4800  177.9150  137.6570 C   0  0  0  0  0  3  0  0  0  0  0  0
  183.5710  178.8340  141.2890 C   0  0  0  0  0  0  0  0  0  0  0  0
  184.6600  178.6590  139.1290 C   0  0  0  0  0  3  0  0  0  0  0  0
  181.7650  177.7430  138.7530 F   0  0  0  0  0  0  0  0  0  0  0  0
  187.1020  178.2860  137.6280 C   0  0  0  0  0  3  0  0  0  0  0  0
  185.8990  178.4660  139.7610 C   0  0  0  0  0  0  0  0  0  0  0  0
  187.0860  178.2810  139.0300 C   0  0  0  0  0  0  0  0  0  0  0  0
  188.3090  178.0780  141.1220 C   0  0  0  0  0  0  0  0  0  0  0  0
  181.2600  179.3700  141.5030 C   0  0  0  0  0  0  0  0  0  0  0  0
  183.5020  178.8490  139.8870 C   0  0  0  0  0  0  0  0  0  0  0  0
  182.3900  179.0530  142.0650 N   0  0  0  0  0  0  0  0  0  0  0  0
  181.1750  179.4980  140.1080 O   0  0  0  0  0  0  0  0  0  0  0  0
  189.4600  177.9110  139.0160 N   0  0  0  0  0  0  0  0  0  0  0  0
  188.3050  178.0880  139.7180 C   0  0  0  0  0  0  0  0  0  0  0  0
  184.7970  178.6380  141.9280 C   0  0  0  0  0  3  0  0  0  0  0  0
  187.1480  178.2650  141.8050 N   0  0  0  0  0  0  0  0  0  0  0  0
  180.0740  179.6280  142.3250 C   0  0  0  0  0  0  0  0  0  0  0  0
  179.6430  180.8070  142.4610 O   0  0  0  0  0  0  0  0  0  0  0  0
  179.4300  178.5620  142.9540 O   0  0  0  0  0  0  0  0  0  0  0  0
  179.6780  178.2310  144.3110 C   0  0  0  0  0  1  0  0  0  0  0  0
  189.5820  177.9120  141.8890 C   0  0  0  0  0  2  0  0  0  0  0  0
  186.7670  177.5640  145.2760 C   0  0  0  0  0  1  0  0  0  0  0  0
  188.5620  176.8390  143.7020 C   0  0  0  0  0  2  0  0  0  0  0  0
  190.6250  178.0460  144.0050 C   0  0  2  0  0  3  0  0  0  0  0  0
  190.5470  177.5610  145.4650 C   0  0  0  0  0  2  0  0  0  0  0  0
  189.1340  177.7050  146.0200 C   0  0  0  0  0  2  0  0  0  0  0  0
  188.1340  176.9190  145.1700 C   0  0  1  0  0  3  0  0  0  0  0  0
  191.1960  179.4540  143.9910 C   0  0  0  0  0  1  0  0  0  0  0  0
  189.3200  178.0310  143.3160 N   0  0  0  0  0  0  0  0  0  0  0  0
  1  7  1  1  0  0  0
  1 13  1  0  0  0  0
  1 15  1  0  0  0  0
  2 19  1  0  0  0  0
  2 18  2  0  0  0  0
  3  8  2  0  0  0  0
  3  4  1  0  0  0  0
  4 16  2  0  0  0  0
  5 18  1  0  0  0  0
  5 14  1  0  0  0  0
  6  9  2  0  0  0  0
  6 13  1  0  0  0  0
  8 10  1  0  0  0  0
  9  2  1  0  0  0  0
 10 17  2  0  0  0  0
 10  9  1  0  0  0  0
 11 19  2  0  0  0  0
 11 24  1  0  0  0  0
 12 14  2  0  0  0  0
 12 20  1  0  0  0  0
 13  5  2  0  0  0  0
 15 12  1  0  0  0  0
 16 17  1  0  0  0  0
 17 11  1  0  0  0  0
 20 21  2  0  0  0  0
 20 22  1  0  0  0  0
 22 23  1  0  0  0  0
 24 32  1  0  0  0  0
 26 30  1  0  0  0  0
 27 31  1  1  0  0  0
 27 28  1  0  0  0  0
 28 29  1  0  0  0  0
 30 25  1  6  0  0  0
 30 29  1  0  0  0  0
 32 26  1  0  0  0  0
 32 27  1  0  0  0  0
M  END
>  <MODEL>
6

>  <REMARK>
 VINA RESULT:      -8.4      4.999      8.472
  Name = 
  4 active torsions:
  status: ('A' for Active; 'I' for Inactive)
    1  A    between atoms: C_1  and  O_10
    2  A    between atoms: C_1  and  C_19
    3  A    between atoms: C_16  and  C_27
    4  A    between atoms: C_27  and  N_32
                            x       y       z     vdW  Elec       q    Type
                         _______ _______ _______ _____ _____    ______ ____

>  <TORSDO>
F 4

$$$$
=
 OpenBabel11052416573D

 32 36  0  0  1  0  0  0  0  0999 V2000
  191.1170  176.9180  144.3570 C   0  0  2  0  0  3  0  0  0  0  0  0
  188.5050  177.8020  141.0590 C   0  0  0  0  0  0  0  0  0  0  0  0
  191.8230  176.3770  137.8180 C   0  0  0  0  0  3  0  0  0  0  0  0
  190.9190  176.7140  136.8110 C   0  0  0  0  0  3  0  0  0  0  0  0
  188.9140  177.6930  143.4430 C   0  0  0  0  0  0  0  0  0  0  0  0
  190.6340  176.9720  141.8910 C   0  0  0  0  0  3  0  0  0  0  0  0
  192.0550  177.9310  144.4250 F   0  0  0  0  0  0  0  0  0  0  0  0
  191.4600  176.5620  139.1510 C   0  0  0  0  0  3  0  0  0  0  0  0
  189.7940  177.2770  140.8080 C   0  0  0  0  0  0  0  0  0  0  0  0
  190.1980  177.0810  139.4750 C   0  0  0  0  0  0  0  0  0  0  0  0
  188.0460  177.9300  138.7270 C   0  0  0  0  0  0  0  0  0  0  0  0
  189.1640  177.4710  145.8000 C   0  0  0  0  0  0  0  0  0  0  0  0
  190.1960  177.1730  143.2020 C   0  0  0  0  0  0  0  0  0  0  0  0
  188.4580  177.8750  144.7850 N   0  0  0  0  0  0  0  0  0  0  0  0
  190.4050  176.8500  145.5970 O   0  0  0  0  0  0  0  0  0  0  0  0
  189.6970  177.2170  137.1290 N   0  0  0  0  0  0  0  0  0  0  0  0
  189.3130  177.4080  138.4230 C   0  0  0  0  0  0  0  0  0  0  0  0
  188.0740  178.0050  142.3720 C   0  0  0  0  0  3  0  0  0  0  0  0
  187.6770  178.1060  140.0240 N   0  0  0  0  0  0  0  0  0  0  0  0
  188.6520  177.6340  147.1660 C   0  0  0  0  0  0  0  0  0  0  0  0
  189.4480  177.8800  148.1140 O   0  0  0  0  0  0  0  0  0  0  0  0
  187.2830  177.5120  147.4030 O   0  0  0  0  0  0  0  0  0  0  0  0
  186.4090  178.6280  147.3410 C   0  0  0  0  0  1  0  0  0  0  0  0
  187.0670  178.2570  137.6460 C   0  0  0  0  0  2  0  0  0  0  0  0
  183.4290  177.5190  140.0410 C   0  0  0  0  0  1  0  0  0  0  0  0
  184.8050  178.4930  138.2020 C   0  0  0  0  0  2  0  0  0  0  0  0
  185.4930  176.8570  136.5730 C   0  0  2  0  0  3  0  0  0  0  0  0
  183.9900  176.5590  136.4230 C   0  0  0  0  0  2  0  0  0  0  0  0
  183.3030  176.4880  137.7830 C   0  0  0  0  0  2  0  0  0  0  0  0
  183.4870  177.7980  138.5530 C   0  0  1  0  0  3  0  0  0  0  0  0
  186.2620  175.5530  136.4430 C   0  0  0  0  0  1  0  0  0  0  0  0
  185.8330  177.5110  137.8510 N   0  0  0  0  0  0  0  0  0  0  0  0
  1  7  1  1  0  0  0
  1 15  1  0  0  0  0
  2 18  1  0  0  0  0
  3  8  1  0  0  0  0
  4 16  1  0  0  0  0
  4  3  2  0  0  0  0
  5 14  1  0  0  0  0
  6 13  2  0  0  0  0
  8 10  2  0  0  0  0
  9  2  2  0  0  0  0
  9  6  1  0  0  0  0
 10  9  1  0  0  0  0
 11 19  2  0  0  0  0
 12 20  1  0  0  0  0
 13  5  1  0  0  0  0
 13  1  1  0  0  0  0
 14 12  2  0  0  0  0
 15 12  1  0  0  0  0
 16 17  2  0  0  0  0
 17 11  1  0  0  0  0
 17 10  1  0  0  0  0
 18  5  2  0  0  0  0
 19  2  1  0  0  0  0
 20 22  1  0  0  0  0
 20 21  2  0  0  0  0
 23 22  1  0  0  0  0
 24 32  1  0  0  0  0
 24 11  1  0  0  0  0
 26 30  1  0  0  0  0
 27 31  1  1  0  0  0
 27 32  1  0  0  0  0
 28 27  1  0  0  0  0
 28 29  1  0  0  0  0
 29 30  1  0  0  0  0
 30 25  1  1  0  0  0
 32 26  1  0  0  0  0
M  END
>  <MODEL>
7

>  <REMARK>
 VINA RESULT:      -8.4      2.327      4.652
  Name = 
  4 active torsions:
  status: ('A' for Active; 'I' for Inactive)
    1  A    between atoms: C_1  and  O_10
    2  A    between atoms: C_1  and  C_19
    3  A    between atoms: C_16  and  C_27
    4  A    between atoms: C_27  and  N_32
                            x       y       z     vdW  Elec       q    Type
                         _______ _______ _______ _____ _____    ______ ____

>  <TORSDO>
F 4

$$$$
=
 OpenBabel11052416573D

 32 36  0  0  1  0  0  0  0  0999 V2000
  185.1970  178.7040  146.5230 C   0  0  2  0  0  3  0  0  0  0  0  0
  184.1520  178.2570  142.3770 C   0  0  0  0  0  0  0  0  0  0  0  0
  179.7300  180.1170  143.1070 C   0  0  0  0  0  3  0  0  0  0  0  0
  179.4700  179.9140  141.7520 C   0  0  0  0  0  3  0  0  0  0  0  0
  185.7650  178.0480  144.1710 C   0  0  0  0  0  0  0  0  0  0  0  0
  183.5710  178.9770  144.6260 C   0  0  0  0  0  3  0  0  0  0  0  0
  184.5600  177.6950  147.2220 F   0  0  0  0  0  0  0  0  0  0  0  0
  180.9720  179.7540  143.6260 C   0  0  0  0  0  3  0  0  0  0  0  0
  183.2150  178.8160  143.2770 C   0  0  0  0  0  0  0  0  0  0  0  0
  181.9500  179.1910  142.7920 C   0  0  0  0  0  0  0  0  0  0  0  0
  182.6080  178.4400  140.5750 C   0  0  0  0  0  0  0  0  0  0  0  0
  187.4690  177.9540  145.8310 C   0  0  0  0  0  0  0  0  0  0  0  0
  184.8410  178.6020  145.0710 C   0  0  0  0  0  0  0  0  0  0  0  0
  187.0720  177.6860  144.6220 N   0  0  0  0  0  0  0  0  0  0  0  0
  186.6100  178.6020  146.7310 O   0  0  0  0  0  0  0  0  0  0  0  0
  180.4200  179.3670  140.9480 N   0  0  0  0  0  0  0  0  0  0  0  0
  181.6440  179.0030  141.4250 C   0  0  0  0  0  0  0  0  0  0  0  0
  185.4190  177.8780  142.8290 C   0  0  0  0  0  3  0  0  0  0  0  0
  183.8260  178.0900  141.0680 N   0  0  0  0  0  0  0  0  0  0  0  0
  188.8300  177.6080  146.2550 C   0  0  0  0  0  0  0  0  0  0  0  0
  189.1490  177.6720  147.4750 O   0  0  0  0  0  0  0  0  0  0  0  0
  189.7650  177.2100  145.2980 O   0  0  0  0  0  0  0  0  0  0  0  0
  191.0730  176.7930  145.6560 C   0  0  0  0  0  1  0  0  0  0  0  0
  182.3370  178.2560  139.1160 C   0  0  0  0  0  2  0  0  0  0  0  0
  180.0560  174.5660  139.9520 C   0  0  0  0  0  1  0  0  0  0  0  0
  180.6260  176.6940  138.7810 C   0  0  0  0  0  2  0  0  0  0  0  0
  182.6700  176.5520  137.5130 C   0  0  2  0  0  3  0  0  0  0  0  0
  181.9980  175.3620  136.8030 C   0  0  0  0  0  2  0  0  0  0  0  0
  181.2960  174.4480  137.8020 C   0  0  0  0  0  2  0  0  0  0  0  0
  180.2450  175.2220  138.5990 C   0  0  1  0  0  3  0  0  0  0  0  0
  184.1510  176.2520  137.6680 C   0  0  0  0  0  1  0  0  0  0  0  0
  182.0810  176.8510  138.8320 N   0  0  0  0  0  0  0  0  0  0  0  0
  1 15  1  0  0  0  0
  1  7  1  1  0  0  0
  2 18  2  0  0  0  0
  2  9  1  0  0  0  0
  3  8  1  0  0  0  0
  4  3  2  0  0  0  0
  5 14  1  0  0  0  0
  5 13  2  0  0  0  0
  6 13  1  0  0  0  0
  9  6  2  0  0  0  0
 10  9  1  0  0  0  0
 10  8  2  0  0  0  0
 11 19  2  0  0  0  0
 11 17  1  0  0  0  0
 12 20  1  0  0  0  0
 12 15  1  0  0  0  0
 13  1  1  0  0  0  0
 14 12  2  0  0  0  0
 16 17  2  0  0  0  0
 16  4  1  0  0  0  0
 17 10  1  0  0  0  0
 18  5  1  0  0  0  0
 19  2  1  0  0  0  0
 20 21  2  0  0  0  0
 22 23  1  0  0  0  0
 22 20  1  0  0  0  0
 24 11  1  0  0  0  0
 26 32  1  0  0  0  0
 27 31  1  1  0  0  0
 27 32  1  0  0  0  0
 28 27  1  0  0  0  0
 28 29  1  0  0  0  0
 29 30  1  0  0  0  0
 30 26  1  0  0  0  0
 30 25  1  1  0  0  0
 32 24  1  0  0  0  0
M  END
>  <MODEL>
8

>  <REMARK>
 VINA RESULT:      -8.3      3.738      5.682
  Name = 
  4 active torsions:
  status: ('A' for Active; 'I' for Inactive)
    1  A    between atoms: C_1  and  O_10
    2  A    between atoms: C_1  and  C_19
    3  A    between atoms: C_16  and  C_27
    4  A    between atoms: C_27  and  N_32
                            x       y       z     vdW  Elec       q    Type
                         _______ _______ _______ _____ _____    ______ ____

>  <TORSDO>
F 4

$$$$
=
 OpenBabel11052416573D

 32 36  0  0  1  0  0  0  0  0999 V2000
  186.6300  177.9280  146.1400 C   0  0  2  0  0  3  0  0  0  0  0  0
  185.2190  178.3380  142.1000 C   0  0  0  0  0  0  0  0  0  0  0  0
  180.6990  179.2890  143.5860 C   0  0  0  0  0  3  0  0  0  0  0  0
  180.3250  179.3800  142.2460 C   0  0  0  0  0  3  0  0  0  0  0  0
  187.0260  177.9470  143.6640 C   0  0  0  0  0  0  0  0  0  0  0  0
  184.7920  178.4030  144.4940 C   0  0  0  0  0  3  0  0  0  0  0  0
  186.2040  176.6980  146.6050 F   0  0  0  0  0  0  0  0  0  0  0  0
  182.0250  179.0010  143.9080 C   0  0  0  0  0  3  0  0  0  0  0  0
  184.3190  178.5190  143.1760 C   0  0  0  0  0  0  0  0  0  0  0  0
  182.9730  178.8070  142.8920 C   0  0  0  0  0  0  0  0  0  0  0  0
  183.4830  178.7150  140.5170 C   0  0  0  0  0  0  0  0  0  0  0  0
  188.8940  177.7120  145.1230 C   0  0  0  0  0  0  0  0  0  0  0  0
  186.1390  178.1250  144.7380 C   0  0  0  0  0  0  0  0  0  0  0  0
  188.4090  177.6860  143.9160 N   0  0  0  0  0  0  0  0  0  0  0  0
  188.0580  177.9900  146.2150 O   0  0  0  0  0  0  0  0  0  0  0  0
  181.2470  179.1900  141.2650 N   0  0  0  0  0  0  0  0  0  0  0  0
  182.5510  178.9090  141.5470 C   0  0  0  0  0  0  0  0  0  0  0  0
  186.5650  178.0550  142.3510 C   0  0  0  0  0  3  0  0  0  0  0  0
  184.7820  178.4440  140.8180 N   0  0  0  0  0  0  0  0  0  0  0  0
  190.3250  177.4810  145.3480 C   0  0  0  0  0  0  0  0  0  0  0  0
  190.7320  177.0890  146.4760 O   0  0  0  0  0  0  0  0  0  0  0  0
  191.2260  177.7010  144.3060 O   0  0  0  0  0  0  0  0  0  0  0  0
  191.6800  179.0020  143.9680 C   0  0  0  0  0  1  0  0  0  0  0  0
  183.0860  178.8490  139.0810 C   0  0  0  0  0  2  0  0  0  0  0  0
  180.8120  175.0660  138.8890 C   0  0  0  0  0  1  0  0  0  0  0  0
  181.4620  177.3870  138.2420 C   0  0  0  0  0  2  0  0  0  0  0  0
  183.6410  177.5030  137.2200 C   0  0  2  0  0  3  0  0  0  0  0  0
  183.0840  176.4800  136.2120 C   0  0  0  0  0  2  0  0  0  0  0  0
  182.2940  175.3830  136.9190 C   0  0  0  0  0  2  0  0  0  0  0  0
  181.1400  175.9810  137.7260 C   0  0  1  0  0  3  0  0  0  0  0  0
  185.1020  177.1780  137.4840 C   0  0  0  0  0  1  0  0  0  0  0  0
  182.8980  177.5300  138.4940 N   0  0  0  0  0  0  0  0  0  0  0  0
  1 15  1  0  0  0  0
  1  7  1  6  0  0  0
  2 18  2  0  0  0  0
  2  9  1  0  0  0  0
  3  8  1  0  0  0  0
  4  3  2  0  0  0  0
  5 14  1  0  0  0  0
  5 13  2  0  0  0  0
  6 13  1  0  0  0  0
  9  6  2  0  0  0  0
 10  9  1  0  0  0  0
 10  8  2  0  0  0  0
 11 19  2  0  0  0  0
 11 17  1  0  0  0  0
 12 20  1  0  0  0  0
 12 15  1  0  0  0  0
 13  1  1  0  0  0  0
 14 12  2  0  0  0  0
 16 17  2  0  0  0  0
 16  4  1  0  0  0  0
 17 10  1  0  0  0  0
 18  5  1  0  0  0  0
 19  2  1  0  0  0  0
 20 21  2  0  0  0  0
 22 20  1  0  0  0  0
 23 22  1  0  0  0  0
 24 11  1  0  0  0  0
 26 32  1  0  0  0  0
 27 31  1  1  0  0  0
 27 32  1  0  0  0  0
 28 29  1  0  0  0  0
 28 27  1  0  0  0  0
 29 30  1  0  0  0  0
 30 26  1  0  0  0  0
 30 25  1  1  0  0  0
 32 24  1  0  0  0  0
M  END
>  <MODEL>
9

>  <REMARK>
 VINA RESULT:      -8.3      3.097      4.844
  Name = 
  4 active torsions:
  status: ('A' for Active; 'I' for Inactive)
    1  A    between atoms: C_1  and  O_10
    2  A    between atoms: C_1  and  C_19
    3  A    between atoms: C_16  and  C_27
    4  A    between atoms: C_27  and  N_32
                            x       y       z     vdW  Elec       q    Type
                         _______ _______ _______ _____ _____    ______ ____

>  <TORSDO>
F 4

$$$$
