=
 OpenBabel11052415273D

 37 40  0  0  1  0  0  0  0  0999 V2000
  181.0180  176.6820  140.2120 C   0  0  0  0  0  2  0  0  0  0  0  0
  179.9810  181.1560  139.7300 C   0  0  0  0  0  3  0  0  0  0  0  0
  181.5850  177.0410  138.8330 C   0  0  2  0  0  3  0  0  0  0  0  0
  180.8170  180.0420  139.8680 C   0  0  0  0  0  0  0  0  0  0  0  0
  180.8460  179.1690  141.4370 S   0  0  0  0  0  0  0  0  0  0  0  0
  181.6110  179.6210  138.7860 C   0  0  0  0  0  0  0  0  0  0  0  0
  180.7180  181.4360  137.4430 C   0  0  0  0  0  3  0  0  0  0  0  0
  180.0050  177.7020  140.7450 C   0  0  2  0  0  3  0  0  0  0  0  0
  181.5450  180.3170  137.5730 C   0  0  0  0  0  3  0  0  0  0  0  0
  182.4000  178.3460  138.8980 C   0  0  2  0  0  3  0  0  0  0  0  0
  179.9300  181.8610  138.5240 C   0  0  0  0  0  0  0  0  0  0  0  0
  181.0340  176.8480  136.3780 C   0  0  0  0  0  2  0  0  0  0  0  0
  180.4720  177.0590  137.7700 C   0  0  1  0  0  3  0  0  0  0  0  0
  180.2570  175.7270  137.0360 C   0  0  2  0  0  3  0  0  0  0  0  0
  181.2220  174.6130  137.4190 C   0  0  0  0  0  2  0  0  0  0  0  0
  181.7980  174.0550  136.2500 O   0  0  0  0  0  0  0  0  0  0  0  0
  183.9540  173.5770  137.3260 C   0  0  0  0  0  3  0  0  0  0  0  0
  183.0670  173.4780  136.2620 C   0  0  0  0  0  0  0  0  0  0  0  0
  183.7550  172.5670  135.0170 S   0  0  0  0  0  0  0  0  0  0  0  0
  186.3430  171.5000  135.2800 C   0  0  0  0  0  1  0  0  0  0  0  0
  186.1980  172.8550  137.9780 O   0  0  0  0  0  1  0  0  0  0  0  0
  185.2020  172.2860  135.8230 C   0  0  0  0  0  0  0  0  0  0  0  0
  185.1520  172.9020  137.0650 C   0  0  0  0  0  0  0  0  0  0  0  0
  179.0900  182.9730  138.4260 O   0  0  0  0  0  0  0  0  0  0  0  0
  179.5720  184.2760  138.1260 C   0  0  0  0  0  1  0  0  0  0  0  0
  179.1260  177.0920  141.7400 N   0  0  0  0  0  2  0  0  0  0  0  0
  179.1140  175.7490  141.5460 O   0  0  0  0  0  1  0  0  0  0  0  0
  183.8120  178.3440  138.2940 C   0  0  1  0  0  3  0  0  0  0  0  0
  184.8050  178.8470  139.2990 C   0  0  0  0  0  0  0  0  0  0  0  0
  186.0390  178.7330  139.0720 O   0  0  0  0  0  0  0  0  0  0  0  0
  184.3870  179.4220  140.5010 O   0  0  0  0  0  0  0  0  0  0  0  0
  185.0310  179.1500  141.7370 C   0  0  0  0  0  1  0  0  0  0  0  0
  184.2460  176.9910  137.7430 C   0  0  0  0  0  2  0  0  0  0  0  0
  184.7240  177.1300  136.3130 C   0  0  0  0  0  2  0  0  0  0  0  0
  186.0970  176.5080  136.1790 C   0  0  0  0  0  2  0  0  0  0  0  0
  188.2140  177.7790  136.2810 C   0  0  0  0  0  1  0  0  0  0  0  0
  187.0070  177.4550  135.4270 C   0  0  0  0  0  2  0  0  0  0  0  0
  1  8  1  0  0  0  0
  2  4  1  0  0  0  0
  3 10  1  0  0  0  0
  3  1  1  1  0  0  0
  4  5  1  0  0  0  0
  6 10  1  0  0  0  0
  6  4  2  0  0  0  0
  7  9  2  0  0  0  0
  7 11  1  0  0  0  0
  8  5  1  0  0  0  0
  8 26  1  1  0  0  0
  9  6  1  0  0  0  0
 10 28  1  6  0  0  0
 11  2  2  0  0  0  0
 12 14  1  0  0  0  0
 13 12  1  6  0  0  0
 13  3  1  0  0  0  0
 14 15  1  1  0  0  0
 14 13  1  0  0  0  0
 16 18  1  0  0  0  0
 16 15  1  0  0  0  0
 18 17  2  0  0  0  0
 19 22  1  0  0  0  0
 19 18  1  0  0  0  0
 20 22  1  0  0  0  0
 22 23  2  0  0  0  0
 23 17  1  0  0  0  0
 23 21  1  0  0  0  0
 24 11  1  0  0  0  0
 25 24  1  0  0  0  0
 27 26  1  0  0  0  0
 28 33  1  1  0  0  0
 28 29  1  0  0  0  0
 29 31  1  0  0  0  0
 30 29  2  0  0  0  0
 31 32  1  0  0  0  0
 34 33  1  0  0  0  0
 35 34  1  0  0  0  0
 37 35  1  0  0  0  0
 37 36  1  0  0  0  0
M  END
>  <MODEL>
1

>  <REMARK>
 VINA RESULT:      -4.9      0.000      0.000
  Name = 
  13 active torsions:
  status: ('A' for Active; 'I' for Inactive)
    1  A    between atoms: C_1  and  O_12
    2  A    between atoms: C_1  and  C_36
    3  A    between atoms: O_3  and  C_32
    4  A    between atoms: C_6  and  O_31
    5  A    between atoms: C_10  and  C_14
    6  A    between atoms: C_17  and  C_26
    7  A    between atoms: C_17  and  C_33
    8  A    between atoms: N_22  and  C_24
    9  A    between atoms: C_26  and  C_34
   10  A    between atoms: C_27  and  C_37
   11  A    between atoms: C_29  and  C_36
   12  A    between atoms: O_31  and  C_37
   13  A    between atoms: C_33  and  C_36
                            x       y       z     vdW  Elec       q    Type
                         _______ _______ _______ _____ _____    ______ ____

>  <TORSDO>
F 13

$$$$
=
 OpenBabel11052415273D

 37 40  0  0  1  0  0  0  0  0999 V2000
  182.8670  177.4420  137.6570 C   0  0  0  0  0  2  0  0  0  0  0  0
  185.6000  178.3620  141.2630 C   0  0  0  0  0  3  0  0  0  0  0  0
  181.8820  177.7840  138.7820 C   0  0  2  0  0  3  0  0  0  0  0  0
  184.6670  178.6420  140.2590 C   0  0  0  0  0  0  0  0  0  0  0  0
  185.2080  178.6410  138.5470 S   0  0  0  0  0  0  0  0  0  0  0  0
  183.3290  178.9110  140.5990 C   0  0  0  0  0  0  0  0  0  0  0  0
  183.8790  178.6150  142.9440 C   0  0  0  0  0  3  0  0  0  0  0  0
  184.2800  177.1170  138.1530 C   0  0  2  0  0  3  0  0  0  0  0  0
  182.9420  178.8820  141.9440 C   0  0  0  0  0  3  0  0  0  0  0  0
  182.3060  179.0750  139.5080 C   0  0  2  0  0  3  0  0  0  0  0  0
  185.2160  178.3520  142.6070 C   0  0  0  0  0  0  0  0  0  0  0  0
  180.2820  176.5520  140.2960 C   0  0  0  0  0  2  0  0  0  0  0  0
  181.6850  176.5810  139.7230 C   0  0  1  0  0  3  0  0  0  0  0  0
  180.6660  175.5410  139.2370 C   0  0  2  0  0  3  0  0  0  0  0  0
  179.9540  175.8890  137.9360 C   0  0  0  0  0  2  0  0  0  0  0  0
  179.8040  174.7210  137.1460 O   0  0  0  0  0  0  0  0  0  0  0  0
  182.0120  174.3160  136.1490 C   0  0  0  0  0  3  0  0  0  0  0  0
  180.8860  173.8960  136.8450 C   0  0  0  0  0  0  0  0  0  0  0  0
  181.0360  172.2650  137.2600 S   0  0  0  0  0  0  0  0  0  0  0  0
  183.3300  170.8060  136.5400 C   0  0  0  0  0  1  0  0  0  0  0  0
  184.1480  173.4520  135.3290 O   0  0  0  0  0  1  0  0  0  0  0  0
  182.5480  172.0720  136.5530 C   0  0  0  0  0  0  0  0  0  0  0  0
  182.9390  173.2800  135.9910 C   0  0  0  0  0  0  0  0  0  0  0  0
  186.1770  178.0760  143.5830 O   0  0  0  0  0  0  0  0  0  0  0  0
  185.9040  178.1610  144.9750 C   0  0  0  0  0  1  0  0  0  0  0  0
  185.0030  176.3090  137.1740 N   0  0  0  0  0  2  0  0  0  0  0  0
  186.2750  176.7710  137.0810 O   0  0  0  0  0  1  0  0  0  0  0  0
  181.2490  180.1710  139.7020 C   0  0  1  0  0  3  0  0  0  0  0  0
  181.0580  180.9360  138.4260 C   0  0  0  0  0  0  0  0  0  0  0  0
  181.6280  182.0490  138.2700 O   0  0  0  0  0  0  0  0  0  0  0  0
  180.2350  180.4480  137.4080 O   0  0  0  0  0  0  0  0  0  0  0  0
  180.5680  180.5780  136.0340 C   0  0  0  0  0  1  0  0  0  0  0  0
  179.9130  179.6570  140.2220 C   0  0  0  0  0  2  0  0  0  0  0  0
  179.2680  180.6820  141.1320 C   0  0  0  0  0  2  0  0  0  0  0  0
  179.5930  180.3510  142.5720 C   0  0  0  0  0  2  0  0  0  0  0  0
  179.9960  178.4290  144.0740 C   0  0  0  0  0  1  0  0  0  0  0  0
  179.2470  178.9030  142.8460 C   0  0  0  0  0  2  0  0  0  0  0  0
  1  8  1  0  0  0  0
  2 11  1  0  0  0  0
  3  1  1  6  0  0  0
  3 10  1  0  0  0  0
  3 13  1  0  0  0  0
  4  6  1  0  0  0  0
  4  2  2  0  0  0  0
  5  4  1  0  0  0  0
  6  9  2  0  0  0  0
  8 26  1  6  0  0  0
  8  5  1  0  0  0  0
  9  7  1  0  0  0  0
 10 28  1  1  0  0  0
 10  6  1  0  0  0  0
 11  7  2  0  0  0  0
 11 24  1  0  0  0  0
 13 12  1  1  0  0  0
 14 15  1  6  0  0  0
 14 13  1  0  0  0  0
 14 12  1  0  0  0  0
 16 15  1  0  0  0  0
 17 18  2  0  0  0  0
 18 16  1  0  0  0  0
 18 19  1  0  0  0  0
 20 22  1  0  0  0  0
 21 23  1  0  0  0  0
 22 19  1  0  0  0  0
 23 17  1  0  0  0  0
 23 22  2  0  0  0  0
 24 25  1  0  0  0  0
 27 26  1  0  0  0  0
 28 33  1  6  0  0  0
 29 28  1  0  0  0  0
 30 29  2  0  0  0  0
 31 29  1  0  0  0  0
 32 31  1  0  0  0  0
 33 34  1  0  0  0  0
 34 35  1  0  0  0  0
 35 37  1  0  0  0  0
 37 36  1  0  0  0  0
M  END
>  <MODEL>
2

>  <REMARK>
 VINA RESULT:      -4.7      2.718      5.913
  Name = 
  13 active torsions:
  status: ('A' for Active; 'I' for Inactive)
    1  A    between atoms: C_1  and  O_12
    2  A    between atoms: C_1  and  C_36
    3  A    between atoms: O_3  and  C_32
    4  A    between atoms: C_6  and  O_31
    5  A    between atoms: C_10  and  C_14
    6  A    between atoms: C_17  and  C_26
    7  A    between atoms: C_17  and  C_33
    8  A    between atoms: N_22  and  C_24
    9  A    between atoms: C_26  and  C_34
   10  A    between atoms: C_27  and  C_37
   11  A    between atoms: C_29  and  C_36
   12  A    between atoms: O_31  and  C_37
   13  A    between atoms: C_33  and  C_36
                            x       y       z     vdW  Elec       q    Type
                         _______ _______ _______ _____ _____    ______ ____

>  <TORSDO>
F 13

$$$$
=
 OpenBabel11052415273D

 37 40  0  0  1  0  0  0  0  0999 V2000
  188.7510  176.9240  139.2380 C   0  0  0  0  0  2  0  0  0  0  0  0
  192.6000  176.2220  136.7870 C   0  0  0  0  0  3  0  0  0  0  0  0
  188.2350  176.6550  137.8190 C   0  0  2  0  0  3  0  0  0  0  0  0
  191.3780  175.8830  137.3770 C   0  0  0  0  0  0  0  0  0  0  0  0
  191.2780  175.7760  139.1670 S   0  0  0  0  0  0  0  0  0  0  0  0
  190.2520  175.6390  136.5700 C   0  0  0  0  0  0  0  0  0  0  0  0
  191.5910  176.0780  134.5940 C   0  0  0  0  0  3  0  0  0  0  0  0
  190.2420  177.2750  139.2950 C   0  0  2  0  0  3  0  0  0  0  0  0
  190.3660  175.7520  135.1790 C   0  0  0  0  0  3  0  0  0  0  0  0
  188.9130  175.4110  137.2150 C   0  0  2  0  0  3  0  0  0  0  0  0
  192.7170  176.3160  135.3970 C   0  0  0  0  0  0  0  0  0  0  0  0
  187.4670  177.8290  135.7210 C   0  0  0  0  0  2  0  0  0  0  0  0
  188.3610  177.9150  136.9420 C   0  0  1  0  0  3  0  0  0  0  0  0
  187.0860  178.7660  136.8470 C   0  0  2  0  0  3  0  0  0  0  0  0
  185.8730  178.2010  137.5750 C   0  0  0  0  0  2  0  0  0  0  0  0
  185.3100  179.1980  138.4110 O   0  0  0  0  0  0  0  0  0  0  0  0
  186.0930  178.6680  140.6780 C   0  0  0  0  0  3  0  0  0  0  0  0
  185.0890  178.9760  139.7700 C   0  0  0  0  0  0  0  0  0  0  0  0
  183.5960  179.0410  140.5560 S   0  0  0  0  0  0  0  0  0  0  0  0
  183.4070  178.5580  143.3200 C   0  0  0  0  0  1  0  0  0  0  0  0
  186.3960  178.1860  143.0570 O   0  0  0  0  0  1  0  0  0  0  0  0
  184.2140  178.6740  142.0750 C   0  0  0  0  0  0  0  0  0  0  0  0
  185.5870  178.4990  141.9720 C   0  0  0  0  0  0  0  0  0  0  0  0
  193.9560  176.6490  134.8440 O   0  0  0  0  0  0  0  0  0  0  0  0
  195.1130  175.8390  135.0090 C   0  0  0  0  0  1  0  0  0  0  0  0
  190.5560  178.0190  140.5120 N   0  0  0  0  0  2  0  0  0  0  0  0
  190.1500  177.2930  141.5840 O   0  0  0  0  0  1  0  0  0  0  0  0
  188.0140  174.3310  136.5960 C   0  0  1  0  0  3  0  0  0  0  0  0
  188.5620  172.9680  136.8960 C   0  0  0  0  0  0  0  0  0  0  0  0
  189.7740  172.8350  137.2150 O   0  0  0  0  0  0  0  0  0  0  0  0
  187.7570  171.8300  136.8050 O   0  0  0  0  0  0  0  0  0  0  0  0
  187.4690  171.2010  135.5650 C   0  0  0  0  0  1  0  0  0  0  0  0
  186.5540  174.4260  137.0180 C   0  0  0  0  0  2  0  0  0  0  0  0
  185.6730  174.7140  135.8200 C   0  0  0  0  0  2  0  0  0  0  0  0
  184.6520  173.6080  135.6690 C   0  0  0  0  0  2  0  0  0  0  0  0
  183.6400  171.7630  136.9670 C   0  0  0  0  0  1  0  0  0  0  0  0
  184.1680  173.1800  137.0390 C   0  0  0  0  0  2  0  0  0  0  0  0
  1  8  1  0  0  0  0
  2  4  1  0  0  0  0
  3  1  1  1  0  0  0
  4  5  1  0  0  0  0
  5  8  1  0  0  0  0
  6 10  1  0  0  0  0
  6  4  2  0  0  0  0
  7  9  2  0  0  0  0
  7 11  1  0  0  0  0
  8 26  1  1  0  0  0
  9  6  1  0  0  0  0
 10 28  1  6  0  0  0
 10  3  1  0  0  0  0
 11  2  2  0  0  0  0
 12 14  1  0  0  0  0
 13 12  1  6  0  0  0
 13  3  1  0  0  0  0
 14 13  1  0  0  0  0
 14 15  1  1  0  0  0
 15 16  1  0  0  0  0
 16 18  1  0  0  0  0
 17 23  1  0  0  0  0
 18 19  1  0  0  0  0
 18 17  2  0  0  0  0
 19 22  1  0  0  0  0
 22 20  1  0  0  0  0
 23 22  2  0  0  0  0
 23 21  1  0  0  0  0
 24 25  1  0  0  0  0
 24 11  1  0  0  0  0
 26 27  1  0  0  0  0
 28 29  1  0  0  0  0
 28 33  1  1  0  0  0
 29 30  2  0  0  0  0
 31 29  1  0  0  0  0
 32 31  1  0  0  0  0
 34 33  1  0  0  0  0
 35 34  1  0  0  0  0
 35 37  1  0  0  0  0
 36 37  1  0  0  0  0
M  END
>  <MODEL>
3

>  <REMARK>
 VINA RESULT:      -4.0      4.532      9.440
  Name = 
  13 active torsions:
  status: ('A' for Active; 'I' for Inactive)
    1  A    between atoms: C_1  and  O_12
    2  A    between atoms: C_1  and  C_36
    3  A    between atoms: O_3  and  C_32
    4  A    between atoms: C_6  and  O_31
    5  A    between atoms: C_10  and  C_14
    6  A    between atoms: C_17  and  C_26
    7  A    between atoms: C_17  and  C_33
    8  A    between atoms: N_22  and  C_24
    9  A    between atoms: C_26  and  C_34
   10  A    between atoms: C_27  and  C_37
   11  A    between atoms: C_29  and  C_36
   12  A    between atoms: O_31  and  C_37
   13  A    between atoms: C_33  and  C_36
                            x       y       z     vdW  Elec       q    Type
                         _______ _______ _______ _____ _____    ______ ____

>  <TORSDO>
F 13

$$$$
=
 OpenBabel11052415273D

 37 40  0  0  1  0  0  0  0  0999 V2000
  181.8010  179.1350  136.6450 C   0  0  0  0  0  2  0  0  0  0  0  0
  179.1600  179.4030  140.4230 C   0  0  0  0  0  3  0  0  0  0  0  0
  182.4240  178.1080  137.5990 C   0  0  2  0  0  3  0  0  0  0  0  0
  179.7160  178.8010  139.2900 C   0  0  0  0  0  0  0  0  0  0  0  0
  179.2310  179.3940  137.6660 S   0  0  0  0  0  0  0  0  0  0  0  0
  180.6440  177.7540  139.4340 C   0  0  0  0  0  0  0  0  0  0  0  0
  180.4440  177.9290  141.8470 C   0  0  0  0  0  3  0  0  0  0  0  0
  180.8690  180.1350  137.3410 C   0  0  2  0  0  3  0  0  0  0  0  0
  181.0120  177.3330  140.7180 C   0  0  0  0  0  3  0  0  0  0  0  0
  181.3400  177.2060  138.2180 C   0  0  2  0  0  3  0  0  0  0  0  0
  179.5140  178.9690  141.7040 C   0  0  0  0  0  0  0  0  0  0  0  0
  184.1540  177.7920  139.4090 C   0  0  0  0  0  2  0  0  0  0  0  0
  183.3220  178.8000  138.6400 C   0  0  1  0  0  3  0  0  0  0  0  0
  184.8300  178.6730  138.3800 C   0  0  2  0  0  3  0  0  0  0  0  0
  185.2110  177.8250  137.1740 C   0  0  0  0  0  2  0  0  0  0  0  0
  186.5420  178.1170  136.7840 O   0  0  0  0  0  0  0  0  0  0  0  0
  188.2130  176.3580  137.1690 C   0  0  0  0  0  3  0  0  0  0  0  0
  187.6380  177.5860  137.4640 C   0  0  0  0  0  0  0  0  0  0  0  0
  188.4590  178.3180  138.7460 S   0  0  0  0  0  0  0  0  0  0  0  0
  190.6540  177.0450  139.9580 C   0  0  0  0  0  1  0  0  0  0  0  0
  190.0390  174.9090  137.9090 O   0  0  0  0  0  1  0  0  0  0  0  0
  189.5660  177.0700  138.9430 C   0  0  0  0  0  0  0  0  0  0  0  0
  189.2970  176.0790  138.0090 C   0  0  0  0  0  0  0  0  0  0  0  0
  178.9310  179.5890  142.8120 O   0  0  0  0  0  0  0  0  0  0  0  0
  179.2590  179.2370  144.1500 C   0  0  0  0  0  1  0  0  0  0  0  0
  180.7380  181.3580  136.5530 N   0  0  0  0  0  2  0  0  0  0  0  0
  180.3440  182.3640  137.3740 O   0  0  0  0  0  1  0  0  0  0  0  0
  181.5470  175.6860  138.1580 C   0  0  1  0  0  3  0  0  0  0  0  0
  180.2380  174.9950  137.9170 C   0  0  0  0  0  0  0  0  0  0  0  0
  179.5080  175.3520  136.9540 O   0  0  0  0  0  0  0  0  0  0  0  0
  179.7950  173.9730  138.7600 O   0  0  0  0  0  0  0  0  0  0  0  0
  179.2970  174.2270  140.0640 C   0  0  0  0  0  1  0  0  0  0  0  0
  182.5820  175.2440  137.1320 C   0  0  0  0  0  2  0  0  0  0  0  0
  183.7120  174.4950  137.8070 C   0  0  0  0  0  2  0  0  0  0  0  0
  183.6410  173.0310  137.4310 C   0  0  0  0  0  2  0  0  0  0  0  0
  186.0880  172.8090  137.1610 C   0  0  0  0  0  1  0  0  0  0  0  0
  184.7520  172.7080  136.4550 C   0  0  0  0  0  2  0  0  0  0  0  0
  1  8  1  0  0  0  0
  2 11  1  0  0  0  0
  3  1  1  1  0  0  0
  3 10  1  0  0  0  0
  3 13  1  0  0  0  0
  4  6  1  0  0  0  0
  4  2  2  0  0  0  0
  5  4  1  0  0  0  0
  6  9  2  0  0  0  0
  8 26  1  6  0  0  0
  8  5  1  0  0  0  0
  9  7  1  0  0  0  0
 10 28  1  1  0  0  0
 10  6  1  0  0  0  0
 11  7  2  0  0  0  0
 11 24  1  0  0  0  0
 13 12  1  1  0  0  0
 14 15  1  6  0  0  0
 14 13  1  0  0  0  0
 14 12  1  0  0  0  0
 16 15  1  0  0  0  0
 16 18  1  0  0  0  0
 17 18  2  0  0  0  0
 17 23  1  0  0  0  0
 18 19  1  0  0  0  0
 19 22  1  0  0  0  0
 21 23  1  0  0  0  0
 22 20  1  0  0  0  0
 23 22  2  0  0  0  0
 24 25  1  0  0  0  0
 26 27  1  0  0  0  0
 28 33  1  6  0  0  0
 29 28  1  0  0  0  0
 29 31  1  0  0  0  0
 30 29  2  0  0  0  0
 31 32  1  0  0  0  0
 33 34  1  0  0  0  0
 35 34  1  0  0  0  0
 37 36  1  0  0  0  0
 37 35  1  0  0  0  0
M  END
>  <MODEL>
4

>  <REMARK>
 VINA RESULT:      -4.0      2.791      5.440
  Name = 
  13 active torsions:
  status: ('A' for Active; 'I' for Inactive)
    1  A    between atoms: C_1  and  O_12
    2  A    between atoms: C_1  and  C_36
    3  A    between atoms: O_3  and  C_32
    4  A    between atoms: C_6  and  O_31
    5  A    between atoms: C_10  and  C_14
    6  A    between atoms: C_17  and  C_26
    7  A    between atoms: C_17  and  C_33
    8  A    between atoms: N_22  and  C_24
    9  A    between atoms: C_26  and  C_34
   10  A    between atoms: C_27  and  C_37
   11  A    between atoms: C_29  and  C_36
   12  A    between atoms: O_31  and  C_37
   13  A    between atoms: C_33  and  C_36
                            x       y       z     vdW  Elec       q    Type
                         _______ _______ _______ _____ _____    ______ ____

>  <TORSDO>
F 13

$$$$
=
 OpenBabel11052415273D

 37 40  0  0  1  0  0  0  0  0999 V2000
  183.7610  175.2610  137.7900 C   0  0  0  0  0  2  0  0  0  0  0  0
  180.1660  177.9570  136.7280 C   0  0  0  0  0  3  0  0  0  0  0  0
  184.2310  176.6670  138.1840 C   0  0  2  0  0  3  0  0  0  0  0  0
  181.0920  177.3290  137.5680 C   0  0  0  0  0  0  0  0  0  0  0  0
  180.9990  175.5500  137.7870 S   0  0  0  0  0  0  0  0  0  0  0  0
  182.0790  178.0920  138.2190 C   0  0  0  0  0  0  0  0  0  0  0  0
  181.1960  180.0990  137.1770 C   0  0  0  0  0  3  0  0  0  0  0  0
  182.5440  175.2570  136.8580 C   0  0  2  0  0  3  0  0  0  0  0  0
  182.1310  179.4750  138.0060 C   0  0  0  0  0  3  0  0  0  0  0  0
  183.1530  177.3950  139.0090 C   0  0  2  0  0  3  0  0  0  0  0  0
  180.2070  179.3400  136.5320 C   0  0  0  0  0  0  0  0  0  0  0  0
  185.9560  178.2520  137.2440 C   0  0  0  0  0  2  0  0  0  0  0  0
  184.7010  177.4540  136.9470 C   0  0  1  0  0  3  0  0  0  0  0  0
  186.0570  177.0140  136.3770 C   0  0  2  0  0  3  0  0  0  0  0  0
  186.7640  175.9160  137.1610 C   0  0  0  0  0  2  0  0  0  0  0  0
  188.1080  175.8050  136.7230 O   0  0  0  0  0  0  0  0  0  0  0  0
  190.4840  175.6940  137.3310 C   0  0  0  0  0  3  0  0  0  0  0  0
  189.1790  176.1080  137.5610 C   0  0  0  0  0  0  0  0  0  0  0  0
  189.1010  177.0190  138.9810 S   0  0  0  0  0  0  0  0  0  0  0  0
  191.4140  177.5010  140.5070 C   0  0  0  0  0  1  0  0  0  0  0  0
  192.7130  175.8590  138.3260 O   0  0  0  0  0  1  0  0  0  0  0  0
  190.7410  176.8960  139.3250 C   0  0  0  0  0  0  0  0  0  0  0  0
  191.3530  176.1440  138.3330 C   0  0  0  0  0  0  0  0  0  0  0  0
  179.2600  179.9320  135.6920 O   0  0  0  0  0  0  0  0  0  0  0  0
  179.2050  181.3350  135.4660 C   0  0  0  0  0  1  0  0  0  0  0  0
  182.4680  174.0070  136.1060 N   0  0  0  0  0  2  0  0  0  0  0  0
  183.3290  173.1150  136.6570 O   0  0  0  0  0  1  0  0  0  0  0  0
  183.5770  178.0440  140.3340 C   0  0  1  0  0  3  0  0  0  0  0  0
  184.7100  179.0000  140.1020 C   0  0  0  0  0  0  0  0  0  0  0  0
  184.4950  180.0980  139.5250 O   0  0  0  0  0  0  0  0  0  0  0  0
  186.0120  178.6830  140.4950 O   0  0  0  0  0  0  0  0  0  0  0  0
  186.4020  178.6290  141.8590 C   0  0  0  0  0  1  0  0  0  0  0  0
  182.4390  178.7320  141.0770 C   0  0  0  0  0  2  0  0  0  0  0  0
  182.6510  178.6400  142.5730 C   0  0  0  0  0  2  0  0  0  0  0  0
  181.5300  179.3650  143.2860 C   0  0  0  0  0  2  0  0  0  0  0  0
  179.3060  179.0290  144.3110 C   0  0  0  0  0  1  0  0  0  0  0  0
  180.6070  178.3540  143.9310 C   0  0  0  0  0  2  0  0  0  0  0  0
  2  4  1  0  0  0  0
  3  1  1  6  0  0  0
  3 10  1  0  0  0  0
  4  5  1  0  0  0  0
  4  6  2  0  0  0  0
  6 10  1  0  0  0  0
  7  9  2  0  0  0  0
  8 26  1  1  0  0  0
  8  5  1  0  0  0  0
  8  1  1  0  0  0  0
  9  6  1  0  0  0  0
 10 28  1  6  0  0  0
 11  2  2  0  0  0  0
 11  7  1  0  0  0  0
 13 12  1  1  0  0  0
 13  3  1  0  0  0  0
 14 13  1  0  0  0  0
 14 15  1  1  0  0  0
 14 12  1  0  0  0  0
 16 15  1  0  0  0  0
 16 18  1  0  0  0  0
 17 18  2  0  0  0  0
 17 23  1  0  0  0  0
 18 19  1  0  0  0  0
 19 22  1  0  0  0  0
 21 23  1  0  0  0  0
 22 20  1  0  0  0  0
 23 22  2  0  0  0  0
 24 11  1  0  0  0  0
 25 24  1  0  0  0  0
 26 27  1  0  0  0  0
 28 33  1  6  0  0  0
 29 28  1  0  0  0  0
 29 31  1  0  0  0  0
 30 29  2  0  0  0  0
 31 32  1  0  0  0  0
 33 34  1  0  0  0  0
 34 35  1  0  0  0  0
 35 37  1  0  0  0  0
 37 36  1  0  0  0  0
M  END
>  <MODEL>
5

>  <REMARK>
 VINA RESULT:      -3.7      3.247      5.806
  Name = 
  13 active torsions:
  status: ('A' for Active; 'I' for Inactive)
    1  A    between atoms: C_1  and  O_12
    2  A    between atoms: C_1  and  C_36
    3  A    between atoms: O_3  and  C_32
    4  A    between atoms: C_6  and  O_31
    5  A    between atoms: C_10  and  C_14
    6  A    between atoms: C_17  and  C_26
    7  A    between atoms: C_17  and  C_33
    8  A    between atoms: N_22  and  C_24
    9  A    between atoms: C_26  and  C_34
   10  A    between atoms: C_27  and  C_37
   11  A    between atoms: C_29  and  C_36
   12  A    between atoms: O_31  and  C_37
   13  A    between atoms: C_33  and  C_36
                            x       y       z     vdW  Elec       q    Type
                         _______ _______ _______ _____ _____    ______ ____

>  <TORSDO>
F 13

$$$$
=
 OpenBabel11052415273D

 37 40  0  0  1  0  0  0  0  0999 V2000
  186.7470  175.2080  137.1340 C   0  0  0  0  0  2  0  0  0  0  0  0
  183.0740  172.6200  136.0680 C   0  0  0  0  0  3  0  0  0  0  0  0
  185.6710  176.2370  136.7630 C   0  0  2  0  0  3  0  0  0  0  0  0
  183.8150  173.5490  136.8060 C   0  0  0  0  0  0  0  0  0  0  0  0
  185.2220  172.9730  137.7610 S   0  0  0  0  0  0  0  0  0  0  0  0
  183.4580  174.9090  136.7860 C   0  0  0  0  0  0  0  0  0  0  0  0
  181.6210  174.3890  135.2870 C   0  0  0  0  0  3  0  0  0  0  0  0
  186.4290  173.7860  136.6560 C   0  0  2  0  0  3  0  0  0  0  0  0
  182.3660  175.3210  136.0120 C   0  0  0  0  0  3  0  0  0  0  0  0
  184.3400  175.9180  137.4690 C   0  0  2  0  0  3  0  0  0  0  0  0
  181.9730  173.0310  135.3110 C   0  0  0  0  0  0  0  0  0  0  0  0
  184.9330  177.7030  134.8460 C   0  0  0  0  0  2  0  0  0  0  0  0
  185.5440  176.3710  135.2350 C   0  0  1  0  0  3  0  0  0  0  0  0
  186.4100  177.4740  134.6080 C   0  0  2  0  0  3  0  0  0  0  0  0
  187.2090  178.3120  135.5980 C   0  0  0  0  0  2  0  0  0  0  0  0
  188.5650  177.8980  135.5910 O   0  0  0  0  0  0  0  0  0  0  0  0
  190.4420  176.9120  136.8310 C   0  0  0  0  0  3  0  0  0  0  0  0
  189.2570  177.6340  136.7720 C   0  0  0  0  0  0  0  0  0  0  0  0
  188.8020  178.1310  138.3210 S   0  0  0  0  0  0  0  0  0  0  0  0
  190.3740  177.4740  140.5590 C   0  0  0  0  0  1  0  0  0  0  0  0
  192.0860  176.1260  138.4630 O   0  0  0  0  0  1  0  0  0  0  0  0
  190.1180  177.4270  139.0930 C   0  0  0  0  0  0  0  0  0  0  0  0
  190.9150  176.8020  138.1440 C   0  0  0  0  0  0  0  0  0  0  0  0
  181.2510  172.0730  134.5940 O   0  0  0  0  0  0  0  0  0  0  0  0
  180.8950  170.8110  135.1410 C   0  0  0  0  0  1  0  0  0  0  0  0
  187.6480  172.9900  136.5450 N   0  0  0  0  0  2  0  0  0  0  0  0
  187.4850  171.8420  137.2500 O   0  0  0  0  0  1  0  0  0  0  0  0
  183.6420  177.0510  138.2340 C   0  0  1  0  0  3  0  0  0  0  0  0
  182.4900  176.5070  139.0270 C   0  0  0  0  0  0  0  0  0  0  0  0
  182.6960  175.6430  139.9200 O   0  0  0  0  0  0  0  0  0  0  0  0
  181.1810  176.9230  138.7760 O   0  0  0  0  0  0  0  0  0  0  0  0
  180.8860  178.1470  138.1200 C   0  0  0  0  0  1  0  0  0  0  0  0
  184.5730  177.8580  139.1290 C   0  0  0  0  0  2  0  0  0  0  0  0
  183.7910  178.8870  139.9180 C   0  0  0  0  0  2  0  0  0  0  0  0
  184.4760  179.1300  141.2450 C   0  0  0  0  0  2  0  0  0  0  0  0
  186.4090  178.0230  142.3170 C   0  0  0  0  0  1  0  0  0  0  0  0
  185.9520  178.8210  141.1140 C   0  0  0  0  0  2  0  0  0  0  0  0
  2  4  1  0  0  0  0
  3  1  1  6  0  0  0
  3 10  1  0  0  0  0
  4  5  1  0  0  0  0
  6  4  2  0  0  0  0
  6 10  1  0  0  0  0
  7 11  1  0  0  0  0
  7  9  2  0  0  0  0
  8 26  1  1  0  0  0
  8  1  1  0  0  0  0
  8  5  1  0  0  0  0
  9  6  1  0  0  0  0
 10 28  1  6  0  0  0
 11  2  2  0  0  0  0
 13 12  1  1  0  0  0
 13  3  1  0  0  0  0
 14 12  1  0  0  0  0
 14 13  1  0  0  0  0
 14 15  1  1  0  0  0
 16 15  1  0  0  0  0
 16 18  1  0  0  0  0
 17 23  1  0  0  0  0
 18 17  2  0  0  0  0
 18 19  1  0  0  0  0
 19 22  1  0  0  0  0
 22 20  1  0  0  0  0
 23 21  1  0  0  0  0
 23 22  2  0  0  0  0
 24 25  1  0  0  0  0
 24 11  1  0  0  0  0
 26 27  1  0  0  0  0
 28 29  1  0  0  0  0
 28 33  1  1  0  0  0
 29 30  2  0  0  0  0
 31 29  1  0  0  0  0
 32 31  1  0  0  0  0
 33 34  1  0  0  0  0
 34 35  1  0  0  0  0
 37 35  1  0  0  0  0
 37 36  1  0  0  0  0
M  END
>  <MODEL>
6

>  <REMARK>
 VINA RESULT:      -3.7      3.471      7.303
  Name = 
  13 active torsions:
  status: ('A' for Active; 'I' for Inactive)
    1  A    between atoms: C_1  and  O_12
    2  A    between atoms: C_1  and  C_36
    3  A    between atoms: O_3  and  C_32
    4  A    between atoms: C_6  and  O_31
    5  A    between atoms: C_10  and  C_14
    6  A    between atoms: C_17  and  C_26
    7  A    between atoms: C_17  and  C_33
    8  A    between atoms: N_22  and  C_24
    9  A    between atoms: C_26  and  C_34
   10  A    between atoms: C_27  and  C_37
   11  A    between atoms: C_29  and  C_36
   12  A    between atoms: O_31  and  C_37
   13  A    between atoms: C_33  and  C_36
                            x       y       z     vdW  Elec       q    Type
                         _______ _______ _______ _____ _____    ______ ____

>  <TORSDO>
F 13

$$$$
=
 OpenBabel11052415273D

 37 40  0  0  1  0  0  0  0  0999 V2000
  181.5790  177.9780  135.3740 C   0  0  0  0  0  2  0  0  0  0  0  0
  179.1270  178.6620  139.2270 C   0  0  0  0  0  3  0  0  0  0  0  0
  182.1020  176.9020  136.3340 C   0  0  2  0  0  3  0  0  0  0  0  0
  179.5630  177.9690  138.0920 C   0  0  0  0  0  0  0  0  0  0  0  0
  179.0990  178.5820  136.4690 S   0  0  0  0  0  0  0  0  0  0  0  0
  180.3580  176.8170  138.2350 C   0  0  0  0  0  0  0  0  0  0  0  0
  180.2670  177.0710  140.6480 C   0  0  0  0  0  3  0  0  0  0  0  0
  180.8050  179.1030  136.0720 C   0  0  2  0  0  3  0  0  0  0  0  0
  180.7150  176.3830  139.5180 C   0  0  0  0  0  3  0  0  0  0  0  0
  180.9360  176.1590  137.0130 C   0  0  2  0  0  3  0  0  0  0  0  0
  179.4690  178.2170  140.5070 C   0  0  0  0  0  0  0  0  0  0  0  0
  183.9350  176.4150  138.0000 C   0  0  0  0  0  2  0  0  0  0  0  0
  183.1150  177.5000  137.3270 C   0  0  1  0  0  3  0  0  0  0  0  0
  184.5890  177.2890  136.9510 C   0  0  2  0  0  3  0  0  0  0  0  0
  184.8260  176.4630  135.6940 C   0  0  0  0  0  2  0  0  0  0  0  0
  186.1980  176.5130  135.3400 O   0  0  0  0  0  0  0  0  0  0  0  0
  187.5310  178.3210  136.3340 C   0  0  0  0  0  3  0  0  0  0  0  0
  187.1670  176.9860  136.2250 C   0  0  0  0  0  0  0  0  0  0  0  0
  188.0600  176.0500  137.3110 S   0  0  0  0  0  0  0  0  0  0  0  0
  189.9640  177.2420  139.0040 C   0  0  0  0  0  1  0  0  0  0  0  0
  189.0550  179.7580  137.5960 O   0  0  0  0  0  1  0  0  0  0  0  0
  188.9300  177.3430  137.9380 C   0  0  0  0  0  0  0  0  0  0  0  0
  188.5250  178.5080  137.3010 C   0  0  0  0  0  0  0  0  0  0  0  0
  179.0080  178.9300  141.6160 O   0  0  0  0  0  0  0  0  0  0  0  0
  179.4250  180.2590  141.9030 C   0  0  0  0  0  1  0  0  0  0  0  0
  180.7990  180.3150  135.2570 N   0  0  0  0  0  2  0  0  0  0  0  0
  180.7990  181.3940  136.0790 O   0  0  0  0  0  1  0  0  0  0  0  0
  180.9490  174.6240  136.9870 C   0  0  1  0  0  3  0  0  0  0  0  0
  179.5900  174.1010  136.6240 C   0  0  0  0  0  0  0  0  0  0  0  0
  178.9310  174.6530  135.7040 O   0  0  0  0  0  0  0  0  0  0  0  0
  179.0270  173.0220  137.3090 O   0  0  0  0  0  0  0  0  0  0  0  0
  179.2690  171.6750  136.9330 C   0  0  0  0  0  1  0  0  0  0  0  0
  182.0130  174.0310  136.0720 C   0  0  0  0  0  2  0  0  0  0  0  0
  182.8900  173.0620  136.8370 C   0  0  0  0  0  2  0  0  0  0  0  0
  184.1130  172.7300  136.0100 C   0  0  0  0  0  2  0  0  0  0  0  0
  185.4720  170.7750  135.3440 C   0  0  0  0  0  1  0  0  0  0  0  0
  184.0650  171.2720  135.6050 C   0  0  0  0  0  2  0  0  0  0  0  0
  1  8  1  0  0  0  0
  2 11  1  0  0  0  0
  3  1  1  1  0  0  0
  3 10  1  0  0  0  0
  3 13  1  0  0  0  0
  4  6  1  0  0  0  0
  4  2  2  0  0  0  0
  5  4  1  0  0  0  0
  6  9  2  0  0  0  0
  8 26  1  6  0  0  0
  8  5  1  0  0  0  0
  9  7  1  0  0  0  0
 10 28  1  1  0  0  0
 10  6  1  0  0  0  0
 11  7  2  0  0  0  0
 11 24  1  0  0  0  0
 13 12  1  1  0  0  0
 14 15  1  6  0  0  0
 14 13  1  0  0  0  0
 14 12  1  0  0  0  0
 16 15  1  0  0  0  0
 16 18  1  0  0  0  0
 17 23  1  0  0  0  0
 18 17  2  0  0  0  0
 18 19  1  0  0  0  0
 19 22  1  0  0  0  0
 22 20  1  0  0  0  0
 23 21  1  0  0  0  0
 23 22  2  0  0  0  0
 24 25  1  0  0  0  0
 26 27  1  0  0  0  0
 28 33  1  6  0  0  0
 29 28  1  0  0  0  0
 29 31  1  0  0  0  0
 30 29  2  0  0  0  0
 32 31  1  0  0  0  0
 33 34  1  0  0  0  0
 35 34  1  0  0  0  0
 36 37  1  0  0  0  0
 37 35  1  0  0  0  0
M  END
>  <MODEL>
7

>  <REMARK>
 VINA RESULT:      -3.6      3.015      5.846
  Name = 
  13 active torsions:
  status: ('A' for Active; 'I' for Inactive)
    1  A    between atoms: C_1  and  O_12
    2  A    between atoms: C_1  and  C_36
    3  A    between atoms: O_3  and  C_32
    4  A    between atoms: C_6  and  O_31
    5  A    between atoms: C_10  and  C_14
    6  A    between atoms: C_17  and  C_26
    7  A    between atoms: C_17  and  C_33
    8  A    between atoms: N_22  and  C_24
    9  A    between atoms: C_26  and  C_34
   10  A    between atoms: C_27  and  C_37
   11  A    between atoms: C_29  and  C_36
   12  A    between atoms: O_31  and  C_37
   13  A    between atoms: C_33  and  C_36
                            x       y       z     vdW  Elec       q    Type
                         _______ _______ _______ _____ _____    ______ ____

>  <TORSDO>
F 13

$$$$
=
 OpenBabel11052415273D

 37 40  0  0  1  0  0  0  0  0999 V2000
  182.9370  178.2520  138.7560 C   0  0  0  0  0  2  0  0  0  0  0  0
  186.9290  177.3450  136.6210 C   0  0  0  0  0  3  0  0  0  0  0  0
  182.5430  177.2630  137.6510 C   0  0  2  0  0  3  0  0  0  0  0  0
  185.7920  177.0610  137.3850 C   0  0  0  0  0  0  0  0  0  0  0  0
  185.6560  177.7630  139.0320 S   0  0  0  0  0  0  0  0  0  0  0  0
  184.7770  176.2440  136.8570 C   0  0  0  0  0  0  0  0  0  0  0  0
  186.0540  176.0070  134.8060 C   0  0  0  0  0  3  0  0  0  0  0  0
  184.3110  178.8980  138.5420 C   0  0  2  0  0  3  0  0  0  0  0  0
  184.9110  175.7320  135.5610 C   0  0  0  0  0  3  0  0  0  0  0  0
  183.5000  176.0560  137.6280 C   0  0  2  0  0  3  0  0  0  0  0  0
  187.0700  176.8180  135.3340 C   0  0  0  0  0  0  0  0  0  0  0  0
  181.5520  177.1890  135.3310 C   0  0  0  0  0  2  0  0  0  0  0  0
  182.4170  177.9790  136.2940 C   0  0  1  0  0  3  0  0  0  0  0  0
  181.0010  178.4590  135.9450 C   0  0  2  0  0  3  0  0  0  0  0  0
  179.9250  178.0940  136.9580 C   0  0  0  0  0  2  0  0  0  0  0  0
  179.5300  179.2530  137.6750 O   0  0  0  0  0  0  0  0  0  0  0  0
  179.4130  178.1560  139.8690 C   0  0  0  0  0  3  0  0  0  0  0  0
  179.5210  179.2850  139.0690 C   0  0  0  0  0  0  0  0  0  0  0  0
  179.6410  180.6690  140.0300 S   0  0  0  0  0  0  0  0  0  0  0  0
  179.6030  180.4750  142.8350 C   0  0  0  0  0  1  0  0  0  0  0  0
  179.3390  177.5250  142.2310 O   0  0  0  0  0  1  0  0  0  0  0  0
  179.5540  179.8410  141.4900 C   0  0  0  0  0  0  0  0  0  0  0  0
  179.4320  178.4830  141.2300 C   0  0  0  0  0  0  0  0  0  0  0  0
  188.2240  177.1160  134.6040 O   0  0  0  0  0  0  0  0  0  0  0  0
  189.5300  177.0200  135.1580 C   0  0  0  0  0  1  0  0  0  0  0  0
  184.4090  180.1620  139.2670 N   0  0  0  0  0  2  0  0  0  0  0  0
  183.5600  181.0570  138.7010 O   0  0  0  0  0  1  0  0  0  0  0  0
  182.8840  174.6500  137.6280 C   0  0  1  0  0  3  0  0  0  0  0  0
  181.4610  174.7080  138.1000 C   0  0  0  0  0  0  0  0  0  0  0  0
  181.2110  174.9860  139.3040 O   0  0  0  0  0  0  0  0  0  0  0  0
  180.4010  174.4350  137.2330 O   0  0  0  0  0  0  0  0  0  0  0  0
  179.3180  173.5940  137.6000 C   0  0  0  0  0  1  0  0  0  0  0  0
  182.9730  173.9360  136.2860 C   0  0  0  0  0  2  0  0  0  0  0  0
  183.3140  172.4740  136.4840 C   0  0  0  0  0  2  0  0  0  0  0  0
  184.6090  172.3600  137.2590 C   0  0  0  0  0  2  0  0  0  0  0  0
  187.0150  172.8390  136.9560 C   0  0  0  0  0  1  0  0  0  0  0  0
  185.7700  172.2930  136.2900 C   0  0  0  0  0  2  0  0  0  0  0  0
  2  4  1  0  0  0  0
  3  1  1  1  0  0  0
  4  5  1  0  0  0  0
  6  4  2  0  0  0  0
  6 10  1  0  0  0  0
  7 11  1  0  0  0  0
  7  9  2  0  0  0  0
  8  1  1  0  0  0  0
  8  5  1  0  0  0  0
  8 26  1  1  0  0  0
  9  6  1  0  0  0  0
 10 28  1  6  0  0  0
 10  3  1  0  0  0  0
 11  2  2  0  0  0  0
 12 14  1  0  0  0  0
 13 12  1  6  0  0  0
 13  3  1  0  0  0  0
 14 13  1  0  0  0  0
 14 15  1  1  0  0  0
 15 16  1  0  0  0  0
 16 18  1  0  0  0  0
 17 23  1  0  0  0  0
 18 17  2  0  0  0  0
 18 19  1  0  0  0  0
 19 22  1  0  0  0  0
 22 20  1  0  0  0  0
 23 22  2  0  0  0  0
 23 21  1  0  0  0  0
 24 25  1  0  0  0  0
 24 11  1  0  0  0  0
 27 26  1  0  0  0  0
 28 33  1  6  0  0  0
 28 29  1  0  0  0  0
 29 30  2  0  0  0  0
 31 32  1  0  0  0  0
 31 29  1  0  0  0  0
 33 34  1  0  0  0  0
 34 35  1  0  0  0  0
 37 36  1  0  0  0  0
 37 35  1  0  0  0  0
M  END
>  <MODEL>
8

>  <REMARK>
 VINA RESULT:      -3.6      2.680      7.103
  Name = 
  13 active torsions:
  status: ('A' for Active; 'I' for Inactive)
    1  A    between atoms: C_1  and  O_12
    2  A    between atoms: C_1  and  C_36
    3  A    between atoms: O_3  and  C_32
    4  A    between atoms: C_6  and  O_31
    5  A    between atoms: C_10  and  C_14
    6  A    between atoms: C_17  and  C_26
    7  A    between atoms: C_17  and  C_33
    8  A    between atoms: N_22  and  C_24
    9  A    between atoms: C_26  and  C_34
   10  A    between atoms: C_27  and  C_37
   11  A    between atoms: C_29  and  C_36
   12  A    between atoms: O_31  and  C_37
   13  A    between atoms: C_33  and  C_36
                            x       y       z     vdW  Elec       q    Type
                         _______ _______ _______ _____ _____    ______ ____

>  <TORSDO>
F 13

$$$$
=
 OpenBabel11052415273D

 37 40  0  0  1  0  0  0  0  0999 V2000
  182.5510  175.7220  138.8160 C   0  0  0  0  0  2  0  0  0  0  0  0
  180.0160  179.4880  139.6630 C   0  0  0  0  0  3  0  0  0  0  0  0
  183.3400  176.8520  138.1430 C   0  0  2  0  0  3  0  0  0  0  0  0
  181.1350  178.6520  139.7450 C   0  0  0  0  0  0  0  0  0  0  0  0
  181.0020  177.1110  140.6570 S   0  0  0  0  0  0  0  0  0  0  0  0
  182.3360  179.0230  139.1140 C   0  0  0  0  0  0  0  0  0  0  0  0
  181.2780  181.0610  138.3270 C   0  0  0  0  0  3  0  0  0  0  0  0
  181.0990  176.0950  139.1410 C   0  0  2  0  0  3  0  0  0  0  0  0
  182.3940  180.2230  138.3960 C   0  0  0  0  0  3  0  0  0  0  0  0
  183.4900  178.0570  139.0900 C   0  0  2  0  0  3  0  0  0  0  0  0
  180.0810  180.6950  138.9620 C   0  0  0  0  0  0  0  0  0  0  0  0
  183.7440  177.8800  135.8730 C   0  0  0  0  0  2  0  0  0  0  0  0
  182.7270  177.2110  136.7770 C   0  0  1  0  0  3  0  0  0  0  0  0
  183.3250  176.4550  135.5810 C   0  0  2  0  0  3  0  0  0  0  0  0
  184.4790  175.5190  135.9170 C   0  0  0  0  0  2  0  0  0  0  0  0
  184.7610  174.6890  134.8030 O   0  0  0  0  0  0  0  0  0  0  0  0
  184.4660  172.2690  135.0970 C   0  0  0  0  0  3  0  0  0  0  0  0
  185.2620  173.3970  134.9590 C   0  0  0  0  0  0  0  0  0  0  0  0
  186.8950  172.9660  135.0090 S   0  0  0  0  0  0  0  0  0  0  0  0
  187.6590  170.2780  135.3310 C   0  0  0  0  0  1  0  0  0  0  0  0
  184.6670  169.8480  135.3880 O   0  0  0  0  0  1  0  0  0  0  0  0
  186.6060  171.3220  135.2070 C   0  0  0  0  0  0  0  0  0  0  0  0
  185.2350  171.1070  135.2360 C   0  0  0  0  0  0  0  0  0  0  0  0
  178.9460  181.5080  138.9090 O   0  0  0  0  0  0  0  0  0  0  0  0
  178.9560  182.8060  138.3290 C   0  0  0  0  0  1  0  0  0  0  0  0
  180.2710  174.8980  139.2660 N   0  0  0  0  0  2  0  0  0  0  0  0
  179.8820  174.5060  138.0260 O   0  0  0  0  0  1  0  0  0  0  0  0
  184.8940  178.6430  139.2930 C   0  0  1  0  0  3  0  0  0  0  0  0
  185.1560  178.8630  140.7540 C   0  0  0  0  0  0  0  0  0  0  0  0
  186.0040  179.7220  141.1160 O   0  0  0  0  0  0  0  0  0  0  0  0
  184.4920  178.1130  141.7270 O   0  0  0  0  0  0  0  0  0  0  0  0
  184.1790  178.6390  143.0080 C   0  0  0  0  0  1  0  0  0  0  0  0
  186.0070  177.8100  138.6700 C   0  0  0  0  0  2  0  0  0  0  0  0
  186.6970  178.5860  137.5680 C   0  0  0  0  0  2  0  0  0  0  0  0
  187.7400  177.7090  136.9110 C   0  0  0  0  0  2  0  0  0  0  0  0
  188.9680  175.5800  137.1760 C   0  0  0  0  0  1  0  0  0  0  0  0
  187.7030  176.3310  137.5360 C   0  0  0  0  0  2  0  0  0  0  0  0
  1  8  1  0  0  0  0
  2  4  1  0  0  0  0
  3  1  1  1  0  0  0
  3 10  1  0  0  0  0
  4  5  1  0  0  0  0
  6  4  2  0  0  0  0
  7  9  2  0  0  0  0
  7 11  1  0  0  0  0
  8 26  1  1  0  0  0
  8  5  1  0  0  0  0
  9  6  1  0  0  0  0
 10  6  1  0  0  0  0
 10 28  1  6  0  0  0
 11  2  2  0  0  0  0
 13 12  1  6  0  0  0
 13  3  1  0  0  0  0
 14 12  1  0  0  0  0
 14 15  1  1  0  0  0
 14 13  1  0  0  0  0
 16 18  1  0  0  0  0
 16 15  1  0  0  0  0
 17 23  1  0  0  0  0
 18 19  1  0  0  0  0
 18 17  2  0  0  0  0
 19 22  1  0  0  0  0
 22 23  2  0  0  0  0
 22 20  1  0  0  0  0
 23 21  1  0  0  0  0
 24 11  1  0  0  0  0
 25 24  1  0  0  0  0
 27 26  1  0  0  0  0
 28 33  1  1  0  0  0
 28 29  1  0  0  0  0
 29 30  2  0  0  0  0
 29 31  1  0  0  0  0
 31 32  1  0  0  0  0
 34 33  1  0  0  0  0
 35 37  1  0  0  0  0
 35 34  1  0  0  0  0
 36 37  1  0  0  0  0
M  END
>  <MODEL>
9

>  <REMARK>
 VINA RESULT:      -3.6      1.915      2.407
  Name = 
  13 active torsions:
  status: ('A' for Active; 'I' for Inactive)
    1  A    between atoms: C_1  and  O_12
    2  A    between atoms: C_1  and  C_36
    3  A    between atoms: O_3  and  C_32
    4  A    between atoms: C_6  and  O_31
    5  A    between atoms: C_10  and  C_14
    6  A    between atoms: C_17  and  C_26
    7  A    between atoms: C_17  and  C_33
    8  A    between atoms: N_22  and  C_24
    9  A    between atoms: C_26  and  C_34
   10  A    between atoms: C_27  and  C_37
   11  A    between atoms: C_29  and  C_36
   12  A    between atoms: O_31  and  C_37
   13  A    between atoms: C_33  and  C_36
                            x       y       z     vdW  Elec       q    Type
                         _______ _______ _______ _____ _____    ______ ____

>  <TORSDO>
F 13

$$$$
