=
 OpenBabel11052415393D

 34 38  0  0  1  0  0  0  0  0999 V2000
  182.8700  177.2260  138.5050 C   0  0  1  0  0  3  0  0  0  0  0  0
  185.0700  174.3410  137.5340 C   0  0  0  0  0  3  0  0  0  0  0  0
  185.5360  176.6320  137.6040 O   0  0  0  0  0  0  0  0  0  0  0  0
  183.2650  178.4280  140.7070 C   0  0  1  0  0  3  0  0  0  0  0  0
  182.9310  177.0950  140.0340 C   0  0  0  0  0  2  0  0  0  0  0  0
  183.4240  179.6890  138.6650 C   0  0  2  0  0  3  0  0  0  0  0  0
  184.5200  180.5390  138.8320 O   0  0  0  0  0  1  0  0  0  0  0  0
  182.7020  179.5370  139.9370 N   0  0  0  0  0  2  0  0  0  0  0  0
  185.2740  177.9420  138.1160 C   0  0  2  0  0  3  0  0  0  0  0  0
  183.7880  178.3420  137.9740 C   0  0  1  0  0  3  0  0  0  0  0  0
  186.0900  178.8530  137.4450 O   0  0  0  0  0  1  0  0  0  0  0  0
  184.2130  173.1290  137.6790 C   0  0  0  0  0  2  0  0  0  0  0  0
  183.1670  173.0600  136.6150 C   0  0  0  0  0  0  0  0  0  0  0  0
  182.2150  173.9980  136.5310 C   0  0  0  0  0  3  0  0  0  0  0  0
  184.6100  175.5860  137.6550 C   0  0  0  0  0  0  0  0  0  0  0  0
  182.1510  175.2430  137.3210 C   0  0  0  0  0  3  0  0  0  0  0  0
  183.1770  175.9210  137.8540 C   0  0  0  0  0  0  0  0  0  0  0  0
  183.1410  171.8730  135.7310 C   0  0  0  0  0  0  0  0  0  0  0  0
  182.3420  171.8810  134.5940 O   0  0  0  0  0  1  0  0  0  0  0  0
  183.8600  170.7860  135.9960 C   0  0  0  0  0  2  0  0  0  0  0  0
  182.7180  178.4330  142.1240 C   0  0  0  0  0  2  0  0  0  0  0  0
  184.3730  178.9570  145.5530 C   0  0  0  0  0  2  0  0  0  0  0  0
  184.9890  177.7770  142.8810 C   0  0  0  0  0  2  0  0  0  0  0  0
  187.9770  177.8570  145.9820 C   0  0  0  0  0  0  0  0  0  0  0  0
  186.6960  178.3550  146.2470 C   0  0  0  0  0  3  0  0  0  0  0  0
  185.7140  178.3460  145.2510 C   0  0  0  0  0  0  0  0  0  0  0  0
  187.3080  177.3570  143.7080 C   0  0  0  0  0  3  0  0  0  0  0  0
  186.0300  177.8630  143.9620 C   0  0  0  0  0  0  0  0  0  0  0  0
  188.2800  177.3580  144.7120 C   0  0  0  0  0  3  0  0  0  0  0  0
  183.8170  178.7200  143.1340 C   0  0  2  0  0  3  0  0  0  0  0  0
  183.3050  178.5190  144.5550 C   0  0  0  0  0  2  0  0  0  0  0  0
  189.0310  177.8550  147.0390 C   0  0  0  0  0  3  0  0  0  0  0  0
  188.4450  177.9500  148.3030 O   0  0  0  0  0  1  0  0  0  0  0  0
  189.7910  176.6880  146.9610 O   0  0  0  0  0  1  0  0  0  0  0  0
  1  5  1  1  0  0  0
  2 15  2  0  0  0  0
  2 12  1  0  0  0  0
  3 15  1  0  0  0  0
  3  9  1  0  0  0  0
  4 21  1  1  0  0  0
  5  4  1  0  0  0  0
  6  7  1  1  0  0  0
  6  8  1  0  0  0  0
  8  4  1  0  0  0  0
  9 11  1  6  0  0  0
 10  9  1  0  0  0  0
 10  1  1  0  0  0  0
 10  6  1  0  0  0  0
 13 12  1  0  0  0  0
 14 13  2  0  0  0  0
 14 16  1  0  0  0  0
 15 17  1  0  0  0  0
 16 17  2  0  0  0  0
 17  1  1  0  0  0  0
 18 20  2  0  0  0  0
 18 13  1  0  0  0  0
 19 18  1  0  0  0  0
 21 30  1  0  0  0  0
 23 30  1  0  0  0  0
 23 28  1  0  0  0  0
 24 25  1  0  0  0  0
 24 32  1  0  0  0  0
 26 22  1  0  0  0  0
 26 25  2  0  0  0  0
 27 28  2  0  0  0  0
 27 29  1  0  0  0  0
 28 26  1  0  0  0  0
 29 24  2  0  0  0  0
 30 31  1  0  0  0  0
 31 22  1  0  0  0  0
 32 33  1  0  0  0  0
 34 32  1  0  0  0  0
M  END
>  <MODEL>
1

>  <REMARK>
 VINA RESULT:      -9.3      0.000      0.000
  Name = 
  4 active torsions:
  status: ('A' for Active; 'I' for Inactive)
    1  A    between atoms: C_3  and  C_25
    2  A    between atoms: C_7  and  C_11
    3  A    between atoms: C_8  and  C_18
    4  A    between atoms: C_18  and  C_30
                            x       y       z     vdW  Elec       q    Type
                         _______ _______ _______ _____ _____    ______ ____

>  <TORSDO>
F 4

$$$$
=
 OpenBabel11052415393D

 34 38  0  0  1  0  0  0  0  0999 V2000
  180.6370  177.7980  139.9650 C   0  0  1  0  0  3  0  0  0  0  0  0
  183.2480  176.4490  137.6270 C   0  0  0  0  0  3  0  0  0  0  0  0
  182.3630  178.6060  137.8120 O   0  0  0  0  0  0  0  0  0  0  0  0
  181.3190  179.3490  141.8560 C   0  0  1  0  0  3  0  0  0  0  0  0
  181.4860  177.9620  141.2350 C   0  0  0  0  0  2  0  0  0  0  0  0
  179.7620  180.1580  140.2110 C   0  0  2  0  0  3  0  0  0  0  0  0
  180.1380  181.4800  139.9550 O   0  0  0  0  0  1  0  0  0  0  0  0
  179.9600  179.8420  141.6340 N   0  0  0  0  0  2  0  0  0  0  0  0
  181.7190  179.6270  138.5780 C   0  0  2  0  0  3  0  0  0  0  0  0
  180.4100  179.1340  139.2350 C   0  0  1  0  0  3  0  0  0  0  0  0
  181.4650  180.7170  137.7450 O   0  0  0  0  0  1  0  0  0  0  0  0
  183.3840  175.0060  137.9820 C   0  0  0  0  0  2  0  0  0  0  0  0
  182.1880  174.2180  137.5580 C   0  0  0  0  0  0  0  0  0  0  0  0
  180.9840  174.4660  138.0880 C   0  0  0  0  0  3  0  0  0  0  0  0
  182.3150  177.2490  138.1420 C   0  0  0  0  0  0  0  0  0  0  0  0
  180.6450  175.5840  138.9900 C   0  0  0  0  0  3  0  0  0  0  0  0
  181.2420  176.7830  139.0570 C   0  0  0  0  0  0  0  0  0  0  0  0
  182.3870  173.0840  136.6280 C   0  0  0  0  0  0  0  0  0  0  0  0
  181.4790  172.8740  135.5960 O   0  0  0  0  0  1  0  0  0  0  0  0
  183.4140  172.2480  136.7510 C   0  0  0  0  0  2  0  0  0  0  0  0
  181.6210  179.2800  143.3440 C   0  0  0  0  0  2  0  0  0  0  0  0
  185.2560  178.1920  142.7350 C   0  0  0  0  0  2  0  0  0  0  0  0
  183.4600  178.9820  144.9840 C   0  0  0  0  0  2  0  0  0  0  0  0
  187.5200  177.7620  145.7470 C   0  0  0  0  0  0  0  0  0  0  0  0
  187.0550  177.8240  144.4280 C   0  0  0  0  0  3  0  0  0  0  0  0
  185.7380  178.2090  144.1590 C   0  0  0  0  0  0  0  0  0  0  0  0
  185.3380  178.4520  146.5430 C   0  0  0  0  0  3  0  0  0  0  0  0
  184.8640  178.5040  145.2290 C   0  0  0  0  0  0  0  0  0  0  0  0
  186.6590  178.0770  146.8020 C   0  0  0  0  0  3  0  0  0  0  0  0
  182.9520  178.5930  143.6000 C   0  0  2  0  0  3  0  0  0  0  0  0
  183.9780  179.0050  142.5510 C   0  0  0  0  0  2  0  0  0  0  0  0
  188.9260  177.3580  146.0450 C   0  0  0  0  0  3  0  0  0  0  0  0
  189.8190  178.1820  145.3580 O   0  0  0  0  0  1  0  0  0  0  0  0
  189.1720  177.4410  147.4160 O   0  0  0  0  0  1  0  0  0  0  0  0
  1  5  1  1  0  0  0
  2 12  1  0  0  0  0
  2 15  2  0  0  0  0
  3 15  1  0  0  0  0
  3  9  1  0  0  0  0
  4 21  1  1  0  0  0
  5  4  1  0  0  0  0
  6  7  1  1  0  0  0
  6  8  1  0  0  0  0
  8  4  1  0  0  0  0
  9 11  1  6  0  0  0
  9 10  1  0  0  0  0
 10  1  1  0  0  0  0
 10  6  1  0  0  0  0
 13 12  1  0  0  0  0
 13 14  2  0  0  0  0
 14 16  1  0  0  0  0
 15 17  1  0  0  0  0
 16 17  2  0  0  0  0
 17  1  1  0  0  0  0
 18 20  2  0  0  0  0
 18 13  1  0  0  0  0
 19 18  1  0  0  0  0
 21 30  1  0  0  0  0
 22 26  1  0  0  0  0
 23 28  1  0  0  0  0
 24 32  1  0  0  0  0
 24 29  1  0  0  0  0
 25 24  2  0  0  0  0
 26 25  1  0  0  0  0
 26 28  2  0  0  0  0
 27 29  2  0  0  0  0
 28 27  1  0  0  0  0
 30 23  1  0  0  0  0
 31 22  1  0  0  0  0
 31 30  1  0  0  0  0
 32 34  1  0  0  0  0
 33 32  1  0  0  0  0
M  END
>  <MODEL>
2

>  <REMARK>
 VINA RESULT:      -9.1      1.921      2.711
  Name = 
  4 active torsions:
  status: ('A' for Active; 'I' for Inactive)
    1  A    between atoms: C_3  and  C_25
    2  A    between atoms: C_7  and  C_11
    3  A    between atoms: C_8  and  C_18
    4  A    between atoms: C_18  and  C_30
                            x       y       z     vdW  Elec       q    Type
                         _______ _______ _______ _____ _____    ______ ____

>  <TORSDO>
F 4

$$$$
=
 OpenBabel11052415393D

 34 38  0  0  1  0  0  0  0  0999 V2000
  182.1090  177.5530  140.5880 C   0  0  1  0  0  3  0  0  0  0  0  0
  184.2170  177.7810  137.4890 C   0  0  0  0  0  3  0  0  0  0  0  0
  182.6450  179.2820  138.3540 O   0  0  0  0  0  0  0  0  0  0  0  0
  182.6450  179.0210  142.5890 C   0  0  1  0  0  3  0  0  0  0  0  0
  183.1580  177.9330  141.6440 C   0  0  0  0  0  2  0  0  0  0  0  0
  180.4830  179.2320  141.5560 C   0  0  2  0  0  3  0  0  0  0  0  0
  180.2080  180.6020  141.5350 O   0  0  0  0  0  1  0  0  0  0  0  0
  181.2030  178.8790  142.7890 N   0  0  0  0  0  2  0  0  0  0  0  0
  181.9090  179.8160  139.4570 C   0  0  2  0  0  3  0  0  0  0  0  0
  181.1630  178.7200  140.2520 C   0  0  1  0  0  3  0  0  0  0  0  0
  181.0070  180.7650  138.9730 O   0  0  0  0  0  1  0  0  0  0  0  0
  185.0140  176.5200  137.4630 C   0  0  0  0  0  2  0  0  0  0  0  0
  184.1640  175.3350  137.1420 C   0  0  0  0  0  0  0  0  0  0  0  0
  183.1760  174.9590  137.9650 C   0  0  0  0  0  3  0  0  0  0  0  0
  183.2420  178.0180  138.3660 C   0  0  0  0  0  0  0  0  0  0  0  0
  182.7060  175.7000  139.1520 C   0  0  0  0  0  3  0  0  0  0  0  0
  182.7680  177.0230  139.3600 C   0  0  0  0  0  0  0  0  0  0  0  0
  184.5110  174.5220  135.9550 C   0  0  0  0  0  0  0  0  0  0  0  0
  184.1400  173.1830  135.9070 O   0  0  0  0  0  1  0  0  0  0  0  0
  185.1790  175.0340  134.9250 C   0  0  0  0  0  2  0  0  0  0  0  0
  183.3770  178.9260  143.9170 C   0  0  0  0  0  2  0  0  0  0  0  0
  186.8420  178.2260  142.4080 C   0  0  0  0  0  2  0  0  0  0  0  0
  185.4930  178.3300  145.0700 C   0  0  0  0  0  2  0  0  0  0  0  0
  189.6330  177.1840  144.7550 C   0  0  0  0  0  0  0  0  0  0  0  0
  188.9280  177.5470  143.6000 C   0  0  0  0  0  3  0  0  0  0  0  0
  187.5810  177.9140  143.6790 C   0  0  0  0  0  0  0  0  0  0  0  0
  187.6340  177.5320  146.0780 C   0  0  0  0  0  3  0  0  0  0  0  0
  186.9220  177.8850  144.9280 C   0  0  0  0  0  0  0  0  0  0  0  0
  188.9830  177.1780  145.9920 C   0  0  0  0  0  3  0  0  0  0  0  0
  184.7380  178.2710  143.7460 C   0  0  2  0  0  3  0  0  0  0  0  0
  185.5450  178.9880  142.6710 C   0  0  0  0  0  2  0  0  0  0  0  0
  191.0730  176.7970  144.6820 C   0  0  0  0  0  3  0  0  0  0  0  0
  191.6820  177.4110  143.5860 O   0  0  0  0  0  1  0  0  0  0  0  0
  191.7320  177.1680  145.8540 O   0  0  0  0  0  1  0  0  0  0  0  0
  1  5  1  1  0  0  0
  2 15  2  0  0  0  0
  3 15  1  0  0  0  0
  3  9  1  0  0  0  0
  4  8  1  0  0  0  0
  4 21  1  1  0  0  0
  5  4  1  0  0  0  0
  6  7  1  6  0  0  0
  6  8  1  0  0  0  0
  9 11  1  6  0  0  0
  9 10  1  0  0  0  0
 10  1  1  0  0  0  0
 10  6  1  0  0  0  0
 12  2  1  0  0  0  0
 13 12  1  0  0  0  0
 13 14  2  0  0  0  0
 14 16  1  0  0  0  0
 15 17  1  0  0  0  0
 16 17  2  0  0  0  0
 17  1  1  0  0  0  0
 18 13  1  0  0  0  0
 19 18  1  0  0  0  0
 20 18  2  0  0  0  0
 22 31  1  0  0  0  0
 22 26  1  0  0  0  0
 24 29  1  0  0  0  0
 25 26  1  0  0  0  0
 25 24  2  0  0  0  0
 26 28  2  0  0  0  0
 28 23  1  0  0  0  0
 28 27  1  0  0  0  0
 29 27  2  0  0  0  0
 30 21  1  0  0  0  0
 30 23  1  0  0  0  0
 31 30  1  0  0  0  0
 32 24  1  0  0  0  0
 32 34  1  0  0  0  0
 33 32  1  0  0  0  0
M  END
>  <MODEL>
3

>  <REMARK>
 VINA RESULT:      -9.0      2.000      3.203
  Name = 
  4 active torsions:
  status: ('A' for Active; 'I' for Inactive)
    1  A    between atoms: C_3  and  C_25
    2  A    between atoms: C_7  and  C_11
    3  A    between atoms: C_8  and  C_18
    4  A    between atoms: C_18  and  C_30
                            x       y       z     vdW  Elec       q    Type
                         _______ _______ _______ _____ _____    ______ ____

>  <TORSDO>
F 4

$$$$
=
 OpenBabel11052415393D

 34 38  0  0  1  0  0  0  0  0999 V2000
  185.4650  176.6720  136.7730 C   0  0  1  0  0  3  0  0  0  0  0  0
  185.9040  172.9950  137.3980 C   0  0  0  0  0  3  0  0  0  0  0  0
  187.4760  174.7270  137.4390 O   0  0  0  0  0  0  0  0  0  0  0  0
  185.5830  178.3040  138.7140 C   0  0  1  0  0  3  0  0  0  0  0  0
  184.8610  177.0940  138.1210 C   0  0  0  0  0  2  0  0  0  0  0  0
  187.1620  178.5430  136.9160 C   0  0  2  0  0  3  0  0  0  0  0  0
  188.3820  178.8470  137.5250 O   0  0  0  0  0  1  0  0  0  0  0  0
  186.0580  179.1830  137.6470 N   0  0  0  0  0  2  0  0  0  0  0  0
  187.8010  176.1110  137.5930 C   0  0  2  0  0  3  0  0  0  0  0  0
  186.9610  177.0190  136.6660 C   0  0  1  0  0  3  0  0  0  0  0  0
  189.1620  176.2800  137.3380 O   0  0  0  0  0  1  0  0  0  0  0  0
  184.5470  172.4020  137.2190 C   0  0  0  0  0  2  0  0  0  0  0  0
  184.1300  172.3990  135.7840 C   0  0  0  0  0  0  0  0  0  0  0  0
  183.9610  173.5490  135.1190 C   0  0  0  0  0  3  0  0  0  0  0  0
  186.1940  174.2670  137.1250 C   0  0  0  0  0  0  0  0  0  0  0  0
  184.2940  174.8980  135.6190 C   0  0  0  0  0  3  0  0  0  0  0  0
  185.2290  175.2210  136.5230 C   0  0  0  0  0  0  0  0  0  0  0  0
  183.7980  171.1030  135.1520 C   0  0  0  0  0  0  0  0  0  0  0  0
  184.7450  170.0860  135.1300 O   0  0  0  0  0  1  0  0  0  0  0  0
  182.6120  170.8790  134.5940 C   0  0  0  0  0  2  0  0  0  0  0  0
  184.6400  179.0550  139.6400 C   0  0  0  0  0  2  0  0  0  0  0  0
  184.6230  178.3600  143.4200 C   0  0  0  0  0  2  0  0  0  0  0  0
  186.5150  178.3590  141.1110 C   0  0  0  0  0  2  0  0  0  0  0  0
  187.9160  177.4980  145.0920 C   0  0  0  0  0  0  0  0  0  0  0  0
  186.5530  177.7420  144.8780 C   0  0  0  0  0  3  0  0  0  0  0  0
  186.0800  178.0320  143.5950 C   0  0  0  0  0  0  0  0  0  0  0  0
  188.3450  177.8560  142.7340 C   0  0  0  0  0  3  0  0  0  0  0  0
  186.9880  178.1120  142.5160 C   0  0  0  0  0  0  0  0  0  0  0  0
  188.8090  177.5560  144.0180 C   0  0  0  0  0  3  0  0  0  0  0  0
  185.1430  179.0250  141.0740 C   0  0  2  0  0  3  0  0  0  0  0  0
  184.1800  178.2480  141.9630 C   0  0  0  0  0  2  0  0  0  0  0  0
  188.4320  177.1810  146.4560 C   0  0  0  0  0  3  0  0  0  0  0  0
  189.7870  177.5070  146.5470 O   0  0  0  0  0  1  0  0  0  0  0  0
  187.7140  177.8880  147.4210 O   0  0  0  0  0  1  0  0  0  0  0  0
  1  5  1  1  0  0  0
  3  9  1  0  0  0  0
  4 21  1  1  0  0  0
  5  4  1  0  0  0  0
  6  7  1  1  0  0  0
  6  8  1  0  0  0  0
  8  4  1  0  0  0  0
  9 11  1  6  0  0  0
 10  1  1  0  0  0  0
 10  6  1  0  0  0  0
 10  9  1  0  0  0  0
 12  2  1  0  0  0  0
 13 12  1  0  0  0  0
 14 16  1  0  0  0  0
 14 13  2  0  0  0  0
 15  2  2  0  0  0  0
 15  3  1  0  0  0  0
 16 17  2  0  0  0  0
 17  1  1  0  0  0  0
 17 15  1  0  0  0  0
 18 13  1  0  0  0  0
 19 18  1  0  0  0  0
 20 18  2  0  0  0  0
 21 30  1  0  0  0  0
 22 26  1  0  0  0  0
 23 28  1  0  0  0  0
 24 32  1  0  0  0  0
 25 24  1  0  0  0  0
 26 25  2  0  0  0  0
 27 29  1  0  0  0  0
 28 27  2  0  0  0  0
 28 26  1  0  0  0  0
 29 24  2  0  0  0  0
 30 23  1  0  0  0  0
 30 31  1  0  0  0  0
 31 22  1  0  0  0  0
 32 33  1  0  0  0  0
 32 34  1  0  0  0  0
M  END
>  <MODEL>
4

>  <REMARK>
 VINA RESULT:      -8.8      1.915      2.606
  Name = 
  4 active torsions:
  status: ('A' for Active; 'I' for Inactive)
    1  A    between atoms: C_3  and  C_25
    2  A    between atoms: C_7  and  C_11
    3  A    between atoms: C_8  and  C_18
    4  A    between atoms: C_18  and  C_30
                            x       y       z     vdW  Elec       q    Type
                         _______ _______ _______ _____ _____    ______ ____

>  <TORSDO>
F 4

$$$$
=
 OpenBabel11052415393D

 34 38  0  0  1  0  0  0  0  0999 V2000
  187.9220  175.8560  136.5380 C   0  0  1  0  0  3  0  0  0  0  0  0
  186.2520  172.6290  137.4840 C   0  0  0  0  0  3  0  0  0  0  0  0
  188.5080  173.0940  137.0790 O   0  0  0  0  0  0  0  0  0  0  0  0
  189.3460  177.0870  138.2430 C   0  0  1  0  0  3  0  0  0  0  0  0
  187.9550  176.5440  137.9120 C   0  0  0  0  0  2  0  0  0  0  0  0
  190.3780  176.3580  136.1970 C   0  0  2  0  0  3  0  0  0  0  0  0
  191.6380  175.8760  136.5610 O   0  0  0  0  0  1  0  0  0  0  0  0
  190.0230  177.5220  137.0220 N   0  0  0  0  0  2  0  0  0  0  0  0
  189.6000  174.0150  137.0250 C   0  0  2  0  0  3  0  0  0  0  0  0
  189.2840  175.2510  136.1520 C   0  0  1  0  0  3  0  0  0  0  0  0
  190.7230  173.3470  136.5350 O   0  0  0  0  0  1  0  0  0  0  0  0
  184.8010  172.9560  137.5950 C   0  0  0  0  0  2  0  0  0  0  0  0
  184.1880  173.2120  136.2570 C   0  0  0  0  0  0  0  0  0  0  0  0
  184.5940  174.2430  135.5050 C   0  0  0  0  0  3  0  0  0  0  0  0
  187.1670  173.4840  137.0300 C   0  0  0  0  0  0  0  0  0  0  0  0
  185.7390  175.1300  135.7930 C   0  0  0  0  0  3  0  0  0  0  0  0
  186.8430  174.8290  136.4910 C   0  0  0  0  0  0  0  0  0  0  0  0
  183.0470  172.3690  135.8330 C   0  0  0  0  0  0  0  0  0  0  0  0
  182.4380  172.6030  134.6060 O   0  0  0  0  0  1  0  0  0  0  0  0
  182.5780  171.3890  136.6000 C   0  0  0  0  0  2  0  0  0  0  0  0
  189.2200  178.2430  139.2210 C   0  0  0  0  0  2  0  0  0  0  0  0
  189.2440  177.2580  142.9360 C   0  0  0  0  0  2  0  0  0  0  0  0
  187.4830  178.6280  140.9520 C   0  0  0  0  0  2  0  0  0  0  0  0
  186.1490  178.0020  144.9990 C   0  0  0  0  0  0  0  0  0  0  0  0
  187.4350  177.5920  144.6260 C   0  0  0  0  0  3  0  0  0  0  0  0
  187.8840  177.7780  143.3150 C   0  0  0  0  0  0  0  0  0  0  0  0
  185.7430  178.7690  142.7380 C   0  0  0  0  0  3  0  0  0  0  0  0
  187.0210  178.3530  142.3560 C   0  0  0  0  0  0  0  0  0  0  0  0
  185.3060  178.5900  144.0530 C   0  0  0  0  0  3  0  0  0  0  0  0
  188.6810  177.7690  140.5610 C   0  0  2  0  0  3  0  0  0  0  0  0
  189.7540  177.8780  141.6380 C   0  0  0  0  0  2  0  0  0  0  0  0
  185.6620  177.8140  146.3980 C   0  0  0  0  0  3  0  0  0  0  0  0
  186.6760  178.1230  147.3070 O   0  0  0  0  0  1  0  0  0  0  0  0
  184.5540  178.6280  146.6370 O   0  0  0  0  0  1  0  0  0  0  0  0
  1  5  1  1  0  0  0
  2 12  1  0  0  0  0
  4 21  1  1  0  0  0
  5  4  1  0  0  0  0
  6  7  1  1  0  0  0
  6  8  1  0  0  0  0
  8  4  1  0  0  0  0
  9 11  1  6  0  0  0
  9  3  1  0  0  0  0
 10  6  1  0  0  0  0
 10  1  1  0  0  0  0
 10  9  1  0  0  0  0
 13 12  1  0  0  0  0
 14 16  1  0  0  0  0
 14 13  2  0  0  0  0
 15  3  1  0  0  0  0
 15  2  2  0  0  0  0
 16 17  2  0  0  0  0
 17  1  1  0  0  0  0
 17 15  1  0  0  0  0
 18 13  1  0  0  0  0
 18 20  2  0  0  0  0
 19 18  1  0  0  0  0
 21 30  1  0  0  0  0
 22 26  1  0  0  0  0
 23 28  1  0  0  0  0
 24 32  1  0  0  0  0
 25 24  1  0  0  0  0
 26 25  2  0  0  0  0
 27 29  1  0  0  0  0
 28 27  2  0  0  0  0
 28 26  1  0  0  0  0
 29 24  2  0  0  0  0
 30 23  1  0  0  0  0
 30 31  1  0  0  0  0
 31 22  1  0  0  0  0
 32 34  1  0  0  0  0
 32 33  1  0  0  0  0
M  END
>  <MODEL>
5

>  <REMARK>
 VINA RESULT:      -8.7      3.375      4.813
  Name = 
  4 active torsions:
  status: ('A' for Active; 'I' for Inactive)
    1  A    between atoms: C_3  and  C_25
    2  A    between atoms: C_7  and  C_11
    3  A    between atoms: C_8  and  C_18
    4  A    between atoms: C_18  and  C_30
                            x       y       z     vdW  Elec       q    Type
                         _______ _______ _______ _____ _____    ______ ____

>  <TORSDO>
F 4

$$$$
=
 OpenBabel11052415393D

 34 38  0  0  1  0  0  0  0  0999 V2000
  190.1100  177.7600  139.7310 C   0  0  1  0  0  3  0  0  0  0  0  0
  188.5270  176.5900  142.9290 C   0  0  0  0  0  3  0  0  0  0  0  0
  187.5800  177.6890  141.0940 O   0  0  0  0  0  0  0  0  0  0  0  0
  189.6250  176.5350  137.5610 C   0  0  1  0  0  3  0  0  0  0  0  0
  190.1910  176.4240  138.9770 C   0  0  0  0  0  2  0  0  0  0  0  0
  189.0470  178.8640  137.7180 C   0  0  2  0  0  3  0  0  0  0  0  0
  187.8070  178.9880  137.0860 O   0  0  0  0  0  1  0  0  0  0  0  0
  189.8750  177.8700  137.0190 N   0  0  0  0  0  2  0  0  0  0  0  0
  187.5870  178.0280  139.7050 C   0  0  2  0  0  3  0  0  0  0  0  0
  188.9350  178.6330  139.2540 C   0  0  1  0  0  3  0  0  0  0  0  0
  186.5450  178.9230  139.4600 O   0  0  0  0  0  1  0  0  0  0  0  0
  189.6360  175.9700  143.7110 C   0  0  0  0  0  2  0  0  0  0  0  0
  190.5910  176.9960  144.2260 C   0  0  0  0  0  0  0  0  0  0  0  0
  191.3070  177.7480  143.3800 C   0  0  0  0  0  3  0  0  0  0  0  0
  188.7120  177.2500  141.7860 C   0  0  0  0  0  0  0  0  0  0  0  0
  191.1560  177.7870  141.9120 C   0  0  0  0  0  3  0  0  0  0  0  0
  190.0480  177.5300  141.2020 C   0  0  0  0  0  0  0  0  0  0  0  0
  190.8100  177.0820  145.6870 C   0  0  0  0  0  0  0  0  0  0  0  0
  192.0550  176.7600  146.2150 O   0  0  0  0  0  1  0  0  0  0  0  0
  189.8430  177.4540  146.5200 C   0  0  0  0  0  2  0  0  0  0  0  0
  190.2600  175.4750  136.6760 C   0  0  0  0  0  2  0  0  0  0  0  0
  193.5470  173.7070  137.5940 C   0  0  0  0  0  2  0  0  0  0  0  0
  192.5610  175.9330  135.8650 C   0  0  0  0  0  2  0  0  0  0  0  0
  196.7690  175.0440  136.1060 C   0  0  0  0  0  0  0  0  0  0  0  0
  195.8560  174.2550  136.8160 C   0  0  0  0  0  3  0  0  0  0  0  0
  194.4860  174.5320  136.7580 C   0  0  0  0  0  0  0  0  0  0  0  0
  194.9430  176.4120  135.2890 C   0  0  0  0  0  3  0  0  0  0  0  0
  194.0280  175.6350  136.0050 C   0  0  0  0  0  0  0  0  0  0  0  0
  196.3090  176.1220  135.3430 C   0  0  0  0  0  3  0  0  0  0  0  0
  191.7380  175.3150  136.9910 C   0  0  2  0  0  3  0  0  0  0  0  0
  192.0990  173.8400  137.1300 C   0  0  0  0  0  2  0  0  0  0  0  0
  198.2330  174.7540  136.1540 C   0  0  0  0  0  3  0  0  0  0  0  0
  198.9250  175.6280  135.3140 O   0  0  0  0  0  1  0  0  0  0  0  0
  198.7070  174.8820  137.4600 O   0  0  0  0  0  1  0  0  0  0  0  0
  1  5  1  6  0  0  0
  1 17  1  0  0  0  0
  2 12  1  0  0  0  0
  3 15  1  0  0  0  0
  4 21  1  6  0  0  0
  4  5  1  0  0  0  0
  6  7  1  6  0  0  0
  6 10  1  0  0  0  0
  8  4  1  0  0  0  0
  8  6  1  0  0  0  0
  9 11  1  1  0  0  0
  9  3  1  0  0  0  0
 10  9  1  0  0  0  0
 10  1  1  0  0  0  0
 12 13  1  0  0  0  0
 13 18  1  0  0  0  0
 14 13  2  0  0  0  0
 15  2  2  0  0  0  0
 16 14  1  0  0  0  0
 17 15  1  0  0  0  0
 17 16  2  0  0  0  0
 18 19  1  0  0  0  0
 18 20  2  0  0  0  0
 21 30  1  0  0  0  0
 23 28  1  0  0  0  0
 23 30  1  0  0  0  0
 24 32  1  0  0  0  0
 24 25  1  0  0  0  0
 26 25  2  0  0  0  0
 26 22  1  0  0  0  0
 27 29  1  0  0  0  0
 27 28  2  0  0  0  0
 28 26  1  0  0  0  0
 29 24  2  0  0  0  0
 30 31  1  0  0  0  0
 31 22  1  0  0  0  0
 32 34  1  0  0  0  0
 33 32  1  0  0  0  0
M  END
>  <MODEL>
6

>  <REMARK>
 VINA RESULT:      -8.6      7.118     10.612
  Name = 
  4 active torsions:
  status: ('A' for Active; 'I' for Inactive)
    1  A    between atoms: C_3  and  C_25
    2  A    between atoms: C_7  and  C_11
    3  A    between atoms: C_8  and  C_18
    4  A    between atoms: C_18  and  C_30
                            x       y       z     vdW  Elec       q    Type
                         _______ _______ _______ _____ _____    ______ ____

>  <TORSDO>
F 4

$$$$
=
 OpenBabel11052415393D

 34 38  0  0  1  0  0  0  0  0999 V2000
  187.8630  175.9120  136.6580 C   0  0  1  0  0  3  0  0  0  0  0  0
  186.1710  172.6570  137.4600 C   0  0  0  0  0  3  0  0  0  0  0  0
  188.4060  173.1020  136.9340 O   0  0  0  0  0  0  0  0  0  0  0  0
  189.4360  176.9670  138.3500 C   0  0  1  0  0  3  0  0  0  0  0  0
  188.0100  176.4850  138.0760 C   0  0  0  0  0  2  0  0  0  0  0  0
  190.3030  176.3830  136.1840 C   0  0  2  0  0  3  0  0  0  0  0  0
  191.5710  175.8440  136.4190 O   0  0  0  0  0  1  0  0  0  0  0  0
  190.0390  177.4840  137.1220 N   0  0  0  0  0  2  0  0  0  0  0  0
  189.5180  173.9990  136.8760 C   0  0  2  0  0  3  0  0  0  0  0  0
  189.1780  175.3090  136.1290 C   0  0  1  0  0  3  0  0  0  0  0  0
  190.5840  173.3480  136.2560 O   0  0  0  0  0  1  0  0  0  0  0  0
  184.7410  173.0080  137.6990 C   0  0  0  0  0  2  0  0  0  0  0  0
  184.0450  173.3850  136.4320 C   0  0  0  0  0  0  0  0  0  0  0  0
  184.4270  174.4650  135.7380 C   0  0  0  0  0  3  0  0  0  0  0  0
  187.0770  173.5260  137.0120 C   0  0  0  0  0  0  0  0  0  0  0  0
  185.6140  175.2980  136.0130 C   0  0  0  0  0  3  0  0  0  0  0  0
  186.7550  174.9170  136.6060 C   0  0  0  0  0  0  0  0  0  0  0  0
  182.8540  172.6060  136.0250 C   0  0  0  0  0  0  0  0  0  0  0  0
  182.1460  172.9770  134.8880 O   0  0  0  0  0  1  0  0  0  0  0  0
  182.4320  171.5550  136.7230 C   0  0  0  0  0  2  0  0  0  0  0  0
  189.4100  178.0420  139.4230 C   0  0  0  0  0  2  0  0  0  0  0  0
  191.3300  176.9880  142.5820 C   0  0  0  0  0  2  0  0  0  0  0  0
  188.6590  178.0590  141.7890 C   0  0  0  0  0  2  0  0  0  0  0  0
  189.5010  177.0990  145.9020 C   0  0  0  0  0  0  0  0  0  0  0  0
  190.5050  176.9420  144.9390 C   0  0  0  0  0  3  0  0  0  0  0  0
  190.2490  177.2400  143.5960 C   0  0  0  0  0  0  0  0  0  0  0  0
  187.9660  177.8340  144.1780 C   0  0  0  0  0  3  0  0  0  0  0  0
  188.9600  177.6690  143.2090 C   0  0  0  0  0  0  0  0  0  0  0  0
  188.2330  177.5460  145.5190 C   0  0  0  0  0  3  0  0  0  0  0  0
  189.6450  177.4450  140.8010 C   0  0  2  0  0  3  0  0  0  0  0  0
  191.0690  177.7230  141.2700 C   0  0  0  0  0  2  0  0  0  0  0  0
  189.7650  176.7910  147.3390 C   0  0  0  0  0  3  0  0  0  0  0  0
  191.1400  176.7070  147.5690 O   0  0  0  0  0  1  0  0  0  0  0  0
  189.2120  177.7790  148.1540 O   0  0  0  0  0  1  0  0  0  0  0  0
  1  5  1  1  0  0  0
  2 12  1  0  0  0  0
  3 15  1  0  0  0  0
  4 21  1  1  0  0  0
  5  4  1  0  0  0  0
  6  7  1  1  0  0  0
  6  8  1  0  0  0  0
  8  4  1  0  0  0  0
  9 11  1  6  0  0  0
  9  3  1  0  0  0  0
 10  6  1  0  0  0  0
 10  1  1  0  0  0  0
 10  9  1  0  0  0  0
 13 12  1  0  0  0  0
 14 16  1  0  0  0  0
 14 13  2  0  0  0  0
 15  2  2  0  0  0  0
 16 17  2  0  0  0  0
 17  1  1  0  0  0  0
 17 15  1  0  0  0  0
 18 13  1  0  0  0  0
 18 20  2  0  0  0  0
 19 18  1  0  0  0  0
 21 30  1  0  0  0  0
 22 26  1  0  0  0  0
 23 28  1  0  0  0  0
 24 32  1  0  0  0  0
 25 24  2  0  0  0  0
 26 25  1  0  0  0  0
 27 29  2  0  0  0  0
 28 26  2  0  0  0  0
 28 27  1  0  0  0  0
 29 24  1  0  0  0  0
 30 31  1  0  0  0  0
 30 23  1  0  0  0  0
 31 22  1  0  0  0  0
 32 33  1  0  0  0  0
 32 34  1  0  0  0  0
M  END
>  <MODEL>
7

>  <REMARK>
 VINA RESULT:      -8.6      3.762      4.943
  Name = 
  4 active torsions:
  status: ('A' for Active; 'I' for Inactive)
    1  A    between atoms: C_3  and  C_25
    2  A    between atoms: C_7  and  C_11
    3  A    between atoms: C_8  and  C_18
    4  A    between atoms: C_18  and  C_30
                            x       y       z     vdW  Elec       q    Type
                         _______ _______ _______ _____ _____    ______ ____

>  <TORSDO>
F 4

$$$$
=
 OpenBabel11052415393D

 34 38  0  0  1  0  0  0  0  0999 V2000
  189.1510  176.8710  137.6660 C   0  0  1  0  0  3  0  0  0  0  0  0
  186.3190  174.5150  136.9410 C   0  0  0  0  0  3  0  0  0  0  0  0
  188.6300  174.1660  136.8430 O   0  0  0  0  0  0  0  0  0  0  0  0
  190.5340  176.5700  139.7750 C   0  0  1  0  0  3  0  0  0  0  0  0
  189.1390  176.8270  139.2020 C   0  0  0  0  0  2  0  0  0  0  0  0
  191.6450  176.4450  137.6460 C   0  0  2  0  0  3  0  0  0  0  0  0
  192.5600  175.3960  137.7600 O   0  0  0  0  0  1  0  0  0  0  0  0
  191.5510  177.1770  138.9180 N   0  0  0  0  0  2  0  0  0  0  0  0
  189.9590  174.5010  137.2510 C   0  0  2  0  0  3  0  0  0  0  0  0
  190.2710  176.0030  137.0630 C   0  0  1  0  0  3  0  0  0  0  0  0
  190.8580  173.7220  136.5220 O   0  0  0  0  0  1  0  0  0  0  0  0
  185.0790  175.3110  137.1680 C   0  0  0  0  0  2  0  0  0  0  0  0
  184.8760  176.3360  136.1000 C   0  0  0  0  0  0  0  0  0  0  0  0
  185.7550  177.3330  135.9350 C   0  0  0  0  0  3  0  0  0  0  0  0
  187.5450  175.0380  136.9620 C   0  0  0  0  0  0  0  0  0  0  0  0
  187.0510  177.4720  136.6280 C   0  0  0  0  0  3  0  0  0  0  0  0
  187.8190  176.4890  137.1190 C   0  0  0  0  0  0  0  0  0  0  0  0
  183.6270  176.2890  135.3080 C   0  0  0  0  0  0  0  0  0  0  0  0
  183.0190  177.4750  134.9120 O   0  0  0  0  0  1  0  0  0  0  0  0
  183.0570  175.1370  134.9660 C   0  0  0  0  0  2  0  0  0  0  0  0
  190.6170  177.1380  141.1820 C   0  0  0  0  0  2  0  0  0  0  0  0
  188.1260  176.8800  144.0980 C   0  0  0  0  0  2  0  0  0  0  0  0
  188.3770  178.1820  141.4230 C   0  0  0  0  0  2  0  0  0  0  0  0
  184.7680  178.6040  143.7340 C   0  0  0  0  0  0  0  0  0  0  0  0
  185.8440  177.8810  144.2630 C   0  0  0  0  0  3  0  0  0  0  0  0
  187.0220  177.7250  143.5260 C   0  0  0  0  0  0  0  0  0  0  0  0
  186.0360  179.0020  141.7090 C   0  0  0  0  0  3  0  0  0  0  0  0
  187.1100  178.2720  142.2260 C   0  0  0  0  0  0  0  0  0  0  0  0
  184.8670  179.1630  142.4580 C   0  0  0  0  0  3  0  0  0  0  0  0
  189.2760  177.0410  141.8910 C   0  0  2  0  0  3  0  0  0  0  0  0
  189.4610  177.1310  143.4010 C   0  0  0  0  0  2  0  0  0  0  0  0
  183.5080  178.7820  144.5160 C   0  0  0  0  0  3  0  0  0  0  0  0
  183.8050  179.0020  145.8630 O   0  0  0  0  0  1  0  0  0  0  0  0
  182.7770  179.8590  144.0150 O   0  0  0  0  0  1  0  0  0  0  0  0
  1  5  1  1  0  0  0
  2 15  2  0  0  0  0
  2 12  1  0  0  0  0
  3 15  1  0  0  0  0
  3  9  1  0  0  0  0
  4 21  1  1  0  0  0
  5  4  1  0  0  0  0
  6  7  1  1  0  0  0
  6  8  1  0  0  0  0
  8  4  1  0  0  0  0
  9 11  1  6  0  0  0
 10  9  1  0  0  0  0
 10  6  1  0  0  0  0
 10  1  1  0  0  0  0
 13 12  1  0  0  0  0
 14 13  2  0  0  0  0
 14 16  1  0  0  0  0
 15 17  1  0  0  0  0
 16 17  2  0  0  0  0
 17  1  1  0  0  0  0
 18 13  1  0  0  0  0
 19 18  1  0  0  0  0
 20 18  2  0  0  0  0
 21 30  1  0  0  0  0
 23 30  1  0  0  0  0
 23 28  1  0  0  0  0
 24 25  1  0  0  0  0
 24 32  1  0  0  0  0
 26 22  1  0  0  0  0
 26 25  2  0  0  0  0
 27 28  2  0  0  0  0
 27 29  1  0  0  0  0
 28 26  1  0  0  0  0
 29 24  2  0  0  0  0
 30 31  1  0  0  0  0
 31 22  1  0  0  0  0
 32 33  1  0  0  0  0
 34 32  1  0  0  0  0
M  END
>  <MODEL>
8

>  <REMARK>
 VINA RESULT:      -8.3      3.876      5.659
  Name = 
  4 active torsions:
  status: ('A' for Active; 'I' for Inactive)
    1  A    between atoms: C_3  and  C_25
    2  A    between atoms: C_7  and  C_11
    3  A    between atoms: C_8  and  C_18
    4  A    between atoms: C_18  and  C_30
                            x       y       z     vdW  Elec       q    Type
                         _______ _______ _______ _____ _____    ______ ____

>  <TORSDO>
F 4

$$$$
=
 OpenBabel11052415393D

 34 38  0  0  1  0  0  0  0  0999 V2000
  190.0620  177.7200  139.8910 C   0  0  1  0  0  3  0  0  0  0  0  0
  188.4770  176.6530  143.1240 C   0  0  0  0  0  3  0  0  0  0  0  0
  187.5480  177.7620  141.2850 O   0  0  0  0  0  0  0  0  0  0  0  0
  189.5040  176.4830  137.7440 C   0  0  1  0  0  3  0  0  0  0  0  0
  190.0840  176.3720  139.1550 C   0  0  0  0  0  2  0  0  0  0  0  0
  189.0150  178.8350  137.8750 C   0  0  2  0  0  3  0  0  0  0  0  0
  187.7720  178.9950  137.2570 O   0  0  0  0  0  1  0  0  0  0  0  0
  189.7960  177.8010  137.1810 N   0  0  0  0  0  2  0  0  0  0  0  0
  187.5500  178.0810  139.8910 C   0  0  2  0  0  3  0  0  0  0  0  0
  188.9140  178.6290  139.4150 C   0  0  1  0  0  3  0  0  0  0  0  0
  186.5380  179.0100  139.6460 O   0  0  0  0  0  1  0  0  0  0  0  0
  189.5720  176.0030  143.9010 C   0  0  0  0  0  2  0  0  0  0  0  0
  190.5710  177.0000  144.3900 C   0  0  0  0  0  0  0  0  0  0  0  0
  191.3030  177.7130  143.5250 C   0  0  0  0  0  3  0  0  0  0  0  0
  188.6710  177.2900  141.9690 C   0  0  0  0  0  0  0  0  0  0  0  0
  191.1350  177.7380  142.0580 C   0  0  0  0  0  3  0  0  0  0  0  0
  190.0100  177.5130  141.3660 C   0  0  0  0  0  0  0  0  0  0  0  0
  190.8110  177.0980  145.8460 C   0  0  0  0  0  0  0  0  0  0  0  0
  192.0560  176.7540  146.3620 O   0  0  0  0  0  1  0  0  0  0  0  0
  189.8640  177.5020  146.6880 C   0  0  0  0  0  2  0  0  0  0  0  0
  190.0880  175.3890  136.8660 C   0  0  0  0  0  2  0  0  0  0  0  0
  188.3590  172.0900  135.9190 C   0  0  0  0  0  2  0  0  0  0  0  0
  187.6990  174.7550  137.0930 C   0  0  0  0  0  2  0  0  0  0  0  0
  184.6010  171.8510  136.3720 C   0  0  0  0  0  0  0  0  0  0  0  0
  185.9320  171.5230  136.0870 C   0  0  0  0  0  3  0  0  0  0  0  0
  186.9520  172.4550  136.3060 C   0  0  0  0  0  0  0  0  0  0  0  0
  185.3000  174.0610  137.0780 C   0  0  0  0  0  3  0  0  0  0  0  0
  186.6300  173.7440  136.7850 C   0  0  0  0  0  0  0  0  0  0  0  0
  184.2880  173.1200  136.8670 C   0  0  0  0  0  3  0  0  0  0  0  0
  189.0000  174.4610  136.3530 C   0  0  2  0  0  3  0  0  0  0  0  0
  189.3900  173.0040  136.5760 C   0  0  0  0  0  2  0  0  0  0  0  0
  183.5050  170.8620  136.1490 C   0  0  0  0  0  3  0  0  0  0  0  0
  182.5400  171.3980  135.2930 O   0  0  0  0  0  1  0  0  0  0  0  0
  184.0190  169.6880  135.6000 O   0  0  0  0  0  1  0  0  0  0  0  0
  1  5  1  6  0  0  0
  1 17  1  0  0  0  0
  2 12  1  0  0  0  0
  3 15  1  0  0  0  0
  4 21  1  6  0  0  0
  4  5  1  0  0  0  0
  6  7  1  6  0  0  0
  6 10  1  0  0  0  0
  8  4  1  0  0  0  0
  8  6  1  0  0  0  0
  9 11  1  1  0  0  0
  9  3  1  0  0  0  0
 10  1  1  0  0  0  0
 10  9  1  0  0  0  0
 12 13  1  0  0  0  0
 13 18  1  0  0  0  0
 14 13  2  0  0  0  0
 15  2  2  0  0  0  0
 16 14  1  0  0  0  0
 17 15  1  0  0  0  0
 17 16  2  0  0  0  0
 18 19  1  0  0  0  0
 18 20  2  0  0  0  0
 22 26  1  0  0  0  0
 22 31  1  0  0  0  0
 24 29  1  0  0  0  0
 25 26  1  0  0  0  0
 25 24  2  0  0  0  0
 26 28  2  0  0  0  0
 28 27  1  0  0  0  0
 28 23  1  0  0  0  0
 29 27  2  0  0  0  0
 30 31  1  0  0  0  0
 30 21  1  0  0  0  0
 30 23  1  0  0  0  0
 32 24  1  0  0  0  0
 33 32  1  0  0  0  0
 34 32  1  0  0  0  0
M  END
>  <MODEL>
9

>  <REMARK>
 VINA RESULT:      -8.1      3.492      9.974
  Name = 
  4 active torsions:
  status: ('A' for Active; 'I' for Inactive)
    1  A    between atoms: C_3  and  C_25
    2  A    between atoms: C_7  and  C_11
    3  A    between atoms: C_8  and  C_18
    4  A    between atoms: C_18  and  C_30
                            x       y       z     vdW  Elec       q    Type
                         _______ _______ _______ _____ _____    ______ ____

>  <TORSDO>
F 4

$$$$
