=
 OpenBabel11052415103D

 55 61  0  0  1  0  0  0  0  0999 V2000
  183.8450  178.9220  145.0460 C   0  0  0  0  0  3  0  0  0  0  0  0
  184.0060  178.5080  142.2830 C   0  0  0  0  0  0  0  0  0  0  0  0
  185.1470  178.3740  143.0810 C   0  0  0  0  0  3  0  0  0  0  0  0
  182.7020  179.0550  144.2510 C   0  0  0  0  0  3  0  0  0  0  0  0
  185.0720  178.5740  144.4610 C   0  0  0  0  0  0  0  0  0  0  0  0
  182.7830  178.8490  142.8700 C   0  0  0  0  0  3  0  0  0  0  0  0
  186.3160  178.4480  145.2780 C   0  0  1  0  0  3  0  0  0  0  0  0
  187.3620  179.3040  147.3570 C   0  0  0  0  0  2  0  0  0  0  0  0
  187.5790  177.9830  149.4480 C   0  0  0  0  0  1  0  0  0  0  0  0
  188.1900  176.8420  147.3030 C   0  0  1  0  0  3  0  0  0  0  0  0
  186.0580  178.8330  146.7280 C   0  0  0  0  0  2  0  0  0  0  0  0
  189.2570  175.9290  147.8830 C   0  0  0  0  0  1  0  0  0  0  0  0
  188.1390  178.1840  148.0540 C   0  0  1  0  0  3  0  0  0  0  0  0
  188.3160  176.9250  145.7730 C   0  0  1  0  0  3  0  0  0  0  0  0
  186.9270  177.0530  145.1380 C   0  0  0  0  0  2  0  0  0  0  0  0
  190.5050  178.0580  146.2580 C   0  0  0  0  0  2  0  0  0  0  0  0
  191.8350  175.9570  146.3660 C   0  0  0  0  0  1  0  0  0  0  0  0
  190.0780  177.4100  144.0550 C   0  0  0  0  0  0  0  0  0  0  0  0
  191.2970  177.0530  144.2690 N   0  0  0  0  0  0  0  0  0  0  0  0
  191.6720  177.2850  145.6500 C   0  0  1  0  0  3  0  0  0  0  0  0
  189.3640  177.9360  145.2510 C   0  0  1  0  0  3  0  0  0  0  0  0
  189.4910  177.3730  142.7550 N   0  0  0  0  0  2  0  0  0  0  0  0
  190.0420  176.5780  141.6710 C   0  0  0  0  0  2  0  0  0  0  0  0
  188.4760  177.9690  140.3170 C   0  0  0  0  0  3  0  0  0  0  0  0
  188.6930  178.1330  137.9070 C   0  0  0  0  0  0  0  0  0  0  0  0
  190.2810  176.8190  139.1920 C   0  0  0  0  0  3  0  0  0  0  0  0
  189.8270  177.3120  137.9650 C   0  0  0  0  0  3  0  0  0  0  0  0
  188.0210  178.4580  139.0900 C   0  0  0  0  0  3  0  0  0  0  0  0
  189.6080  177.1530  140.3690 C   0  0  0  0  0  0  0  0  0  0  0  0
  188.2070  178.6490  136.6190 C   0  0  0  0  0  0  0  0  0  0  0  0
  188.5230  178.0800  135.5430 O   0  0  0  0  0  0  0  0  0  0  0  0
  187.3910  179.7740  136.5770 O   0  0  0  0  0  1  0  0  0  0  0  0
  184.0940  178.3100  140.8060 C   0  0  0  0  0  2  0  0  0  0  0  0
  182.7110  178.3230  140.1720 C   0  0  0  0  0  2  0  0  0  0  0  0
  182.7950  178.7990  138.7300 C   0  0  0  0  0  2  0  0  0  0  0  0
  181.6310  178.2630  137.9170 C   0  0  0  0  0  2  0  0  0  0  0  0
  181.8980  178.4170  136.4310 C   0  0  0  0  0  2  0  0  0  0  0  0
  184.6810  178.0270  135.9760 O   0  0  0  0  0  0  0  0  0  0  0  0
  183.9050  177.0740  135.7010 C   0  0  0  0  0  0  0  0  0  0  0  0
  182.5000  177.1960  135.9280 N   0  0  0  0  0  2  0  0  0  0  0  0
  185.7350  176.0680  134.6250 O   0  0  0  0  0  1  0  0  0  0  0  0
  184.4580  175.8110  135.1240 C   0  0  1  0  0  3  0  0  0  0  0  0
  183.3400  173.6490  136.0670 C   0  0  0  0  0  0  0  0  0  0  0  0
  185.4500  172.5450  136.9350 C   0  0  2  0  0  3  0  0  0  0  0  0
  183.7670  171.0670  135.7310 C   0  0  0  0  0  2  0  0  0  0  0  0
  185.4820  172.6470  138.3280 O   0  0  0  0  0  1  0  0  0  0  0  0
  182.7770  173.5410  134.6450 C   0  0  0  0  0  1  0  0  0  0  0  0
  182.2160  174.0320  137.0190 C   0  0  0  0  0  1  0  0  0  0  0  0
  185.7890  173.8890  136.2670 C   0  0  1  0  0  3  0  0  0  0  0  0
  184.4790  174.6920  136.1910 C   0  0  1  0  0  3  0  0  0  0  0  0
  183.2100  171.2230  137.1390 C   0  0  0  0  0  2  0  0  0  0  0  0
  184.0190  172.3450  136.5110 C   0  0  0  0  0  0  0  0  0  0  0  0
  186.9990  174.7100  136.7690 C   0  0  2  0  0  3  0  0  0  0  0  0
  188.0840  174.7820  135.7660 C   0  0  0  0  0  2  0  0  0  0  0  0
  188.1650  173.9360  136.8920 O   0  0  0  0  0  0  0  0  0  0  0  0
  2  6  2  0  0  0  0
  2  3  1  0  0  0  0
  3  5  2  0  0  0  0
  4  1  2  0  0  0  0
  5  1  1  0  0  0  0
  6  4  1  0  0  0  0
  7  5  1  6  0  0  0
  7 11  1  0  0  0  0
  8 13  1  0  0  0  0
 10 12  1  1  0  0  0
 10 13  1  0  0  0  0
 11  8  1  0  0  0  0
 13  9  1  1  0  0  0
 14 15  1  6  0  0  0
 14 10  1  0  0  0  0
 15  7  1  0  0  0  0
 18 19  2  0  0  0  0
 18 21  1  0  0  0  0
 19 20  1  0  0  0  0
 20 16  1  0  0  0  0
 20 17  1  1  0  0  0
 21 14  1  0  0  0  0
 21 16  1  1  0  0  0
 22 18  1  0  0  0  0
 23 22  1  0  0  0  0
 24 29  1  0  0  0  0
 25 27  2  0  0  0  0
 25 28  1  0  0  0  0
 26 29  2  0  0  0  0
 27 26  1  0  0  0  0
 28 24  2  0  0  0  0
 29 23  1  0  0  0  0
 30 25  1  0  0  0  0
 31 30  2  0  0  0  0
 32 30  1  0  0  0  0
 33  2  1  0  0  0  0
 34 33  1  0  0  0  0
 35 34  1  0  0  0  0
 36 35  1  0  0  0  0
 37 36  1  0  0  0  0
 39 40  1  0  0  0  0
 39 38  2  0  0  0  0
 40 37  1  0  0  0  0
 42 41  1  1  0  0  0
 42 39  1  0  0  0  0
 43 50  1  0  0  0  0
 43 52  1  0  0  0  0
 43 48  1  0  0  0  0
 44 46  1  1  0  0  0
 45 52  1  0  0  0  0
 45 51  1  0  0  0  0
 47 43  1  0  0  0  0
 49 53  1  1  0  0  0
 49 44  1  0  0  0  0
 50 42  1  6  0  0  0
 50 49  1  0  0  0  0
 52 44  1  0  0  0  0
 52 51  1  0  0  0  0
 53 54  1  6  0  0  0
 53 55  1  0  0  0  0
 54 55  1  0  0  0  0
M  END
>  <MODEL>
1

>  <REMARK>
 VINA RESULT:      -8.3      0.000      0.000
  Name = 
  14 active torsions:
  status: ('A' for Active; 'I' for Inactive)
    1  A    between atoms: C_2  and  C_44
    2  A    between atoms: C_8  and  N_22
    3  A    between atoms: C_8  and  C_35
    4  A    between atoms: C_10  and  C_32
    5  A    between atoms: C_11  and  C_38
    6  A    between atoms: C_20  and  C_50
    7  A    between atoms: C_26  and  C_45
    8  A    between atoms: C_27  and  C_54
    9  A    between atoms: C_33  and  N_36
   10  A    between atoms: C_33  and  C_52
   11  A    between atoms: C_35  and  C_43
   12  A    between atoms: C_42  and  C_50
   13  A    between atoms: C_43  and  C_51
   14  A    between atoms: C_51  and  C_54
                            x       y       z     vdW  Elec       q    Type
                         _______ _______ _______ _____ _____    ______ ____

>  <TORSDO>
F 14

$$$$
=
 OpenBabel11052415103D

 55 61  0  0  1  0  0  0  0  0999 V2000
  184.5010  178.2540  144.0080 C   0  0  0  0  0  3  0  0  0  0  0  0
  186.7010  178.2790  142.2790 C   0  0  0  0  0  0  0  0  0  0  0  0
  185.4020  178.3470  141.7640 C   0  0  0  0  0  3  0  0  0  0  0  0
  185.7980  178.1880  144.5250 C   0  0  0  0  0  3  0  0  0  0  0  0
  184.3000  178.3410  142.6220 C   0  0  0  0  0  0  0  0  0  0  0  0
  186.8970  178.1990  143.6610 C   0  0  0  0  0  3  0  0  0  0  0  0
  182.9270  178.3890  142.0360 C   0  0  1  0  0  3  0  0  0  0  0  0
  180.5540  178.6930  142.6860 C   0  0  0  0  0  2  0  0  0  0  0  0
  179.2490  180.7600  142.2510 C   0  0  0  0  0  1  0  0  0  0  0  0
  180.6400  179.8670  140.3690 C   0  0  1  0  0  3  0  0  0  0  0  0
  181.9780  179.1720  142.9320 C   0  0  0  0  0  2  0  0  0  0  0  0
  179.7420  180.3440  139.2400 C   0  0  0  0  0  1  0  0  0  0  0  0
  179.8170  179.5060  141.6180 C   0  0  1  0  0  3  0  0  0  0  0  0
  181.6200  178.7920  139.8700 C   0  0  1  0  0  3  0  0  0  0  0  0
  182.9590  178.9220  140.6030 C   0  0  0  0  0  2  0  0  0  0  0  0
  179.6030  177.3980  139.3230 C   0  0  0  0  0  2  0  0  0  0  0  0
  179.4760  178.0960  136.9380 C   0  0  0  0  0  1  0  0  0  0  0  0
  181.7000  176.5570  138.7330 C   0  0  0  0  0  0  0  0  0  0  0  0
  180.9590  176.3350  137.7040 N   0  0  0  0  0  0  0  0  0  0  0  0
  179.6420  176.9160  137.8760 C   0  0  1  0  0  3  0  0  0  0  0  0
  181.0490  177.3550  139.8090 C   0  0  1  0  0  3  0  0  0  0  0  0
  183.0130  176.0130  138.8580 N   0  0  0  0  0  2  0  0  0  0  0  0
  183.7680  175.5250  137.7170 C   0  0  0  0  0  2  0  0  0  0  0  0
  186.2100  175.6780  137.2270 C   0  0  0  0  0  3  0  0  0  0  0  0
  187.4160  177.7690  137.4550 C   0  0  0  0  0  0  0  0  0  0  0  0
  185.0260  177.6830  137.8790 C   0  0  0  0  0  3  0  0  0  0  0  0
  186.2200  178.4070  137.8120 C   0  0  0  0  0  3  0  0  0  0  0  0
  187.4030  176.4010  137.1640 C   0  0  0  0  0  3  0  0  0  0  0  0
  185.0210  176.3180  137.5810 C   0  0  0  0  0  0  0  0  0  0  0  0
  188.6760  178.5230  137.3890 C   0  0  0  0  0  0  0  0  0  0  0  0
  189.4320  178.4180  136.3890 O   0  0  0  0  0  0  0  0  0  0  0  0
  189.0480  179.3630  138.4340 O   0  0  0  0  0  1  0  0  0  0  0  0
  187.8750  178.2690  141.3570 C   0  0  0  0  0  2  0  0  0  0  0  0
  188.7180  177.0200  141.5630 C   0  0  0  0  0  2  0  0  0  0  0  0
  190.1360  177.3990  141.9620 C   0  0  0  0  0  2  0  0  0  0  0  0
  191.0150  177.5610  140.7360 C   0  0  0  0  0  2  0  0  0  0  0  0
  190.6880  176.5040  139.6970 C   0  0  0  0  0  2  0  0  0  0  0  0
  191.1000  174.3430  137.8890 O   0  0  0  0  0  0  0  0  0  0  0  0
  191.9610  175.2620  137.9070 C   0  0  0  0  0  0  0  0  0  0  0  0
  191.8020  176.3860  138.7740 N   0  0  0  0  0  2  0  0  0  0  0  0
  194.0430  176.1980  137.3540 O   0  0  0  0  0  1  0  0  0  0  0  0
  193.1630  175.1690  137.0220 C   0  0  1  0  0  3  0  0  0  0  0  0
  193.9490  172.9770  135.8420 C   0  0  0  0  0  0  0  0  0  0  0  0
  195.9320  172.4940  137.3450 C   0  0  2  0  0  3  0  0  0  0  0  0
  196.2490  172.1560  134.8450 C   0  0  0  0  0  2  0  0  0  0  0  0
  195.6120  171.4360  138.2010 O   0  0  0  0  0  1  0  0  0  0  0  0
  193.9510  173.8680  134.5940 C   0  0  0  0  0  1  0  0  0  0  0  0
  192.7850  172.0010  135.7560 C   0  0  0  0  0  1  0  0  0  0  0  0
  195.2380  173.7970  137.7820 C   0  0  1  0  0  3  0  0  0  0  0  0
  193.8310  173.7810  137.1620 C   0  0  1  0  0  3  0  0  0  0  0  0
  195.5230  170.9040  135.3180 C   0  0  0  0  0  2  0  0  0  0  0  0
  195.2810  172.2340  136.0130 C   0  0  0  0  0  0  0  0  0  0  0  0
  195.2630  174.2150  139.2700 C   0  0  2  0  0  3  0  0  0  0  0  0
  196.0920  175.4190  139.5010 C   0  0  0  0  0  2  0  0  0  0  0  0
  196.5460  174.1260  139.8370 O   0  0  0  0  0  0  0  0  0  0  0  0
  1  4  1  0  0  0  0
  2  6  1  0  0  0  0
  3  2  2  0  0  0  0
  3  5  1  0  0  0  0
  5  1  2  0  0  0  0
  6  4  2  0  0  0  0
  7  5  1  1  0  0  0
  7 11  1  0  0  0  0
  8 11  1  0  0  0  0
 10 12  1  6  0  0  0
 10 13  1  0  0  0  0
 13  9  1  1  0  0  0
 13  8  1  0  0  0  0
 14 10  1  0  0  0  0
 14 15  1  1  0  0  0
 15  7  1  0  0  0  0
 18 22  1  0  0  0  0
 18 21  1  0  0  0  0
 19 20  1  0  0  0  0
 19 18  2  0  0  0  0
 20 17  1  6  0  0  0
 20 16  1  0  0  0  0
 21 16  1  6  0  0  0
 21 14  1  0  0  0  0
 23 22  1  0  0  0  0
 24 29  1  0  0  0  0
 25 27  2  0  0  0  0
 27 26  1  0  0  0  0
 28 24  2  0  0  0  0
 28 25  1  0  0  0  0
 29 23  1  0  0  0  0
 29 26  2  0  0  0  0
 30 25  1  0  0  0  0
 30 32  1  0  0  0  0
 31 30  2  0  0  0  0
 33 34  1  0  0  0  0
 33  2  1  0  0  0  0
 34 35  1  0  0  0  0
 36 35  1  0  0  0  0
 37 36  1  0  0  0  0
 38 39  2  0  0  0  0
 39 40  1  0  0  0  0
 40 37  1  0  0  0  0
 42 41  1  1  0  0  0
 42 39  1  0  0  0  0
 43 52  1  0  0  0  0
 43 50  1  0  0  0  0
 44 49  1  0  0  0  0
 44 46  1  1  0  0  0
 45 51  1  0  0  0  0
 45 52  1  0  0  0  0
 47 43  1  0  0  0  0
 48 43  1  0  0  0  0
 49 53  1  1  0  0  0
 50 42  1  6  0  0  0
 50 49  1  0  0  0  0
 51 52  1  0  0  0  0
 52 44  1  0  0  0  0
 53 54  1  6  0  0  0
 53 55  1  0  0  0  0
 54 55  1  0  0  0  0
M  END
>  <MODEL>
2

>  <REMARK>
 VINA RESULT:      -8.1      3.974      8.674
  Name = 
  14 active torsions:
  status: ('A' for Active; 'I' for Inactive)
    1  A    between atoms: C_2  and  C_44
    2  A    between atoms: C_8  and  N_22
    3  A    between atoms: C_8  and  C_35
    4  A    between atoms: C_10  and  C_32
    5  A    between atoms: C_11  and  C_38
    6  A    between atoms: C_20  and  C_50
    7  A    between atoms: C_26  and  C_45
    8  A    between atoms: C_27  and  C_54
    9  A    between atoms: C_33  and  N_36
   10  A    between atoms: C_33  and  C_52
   11  A    between atoms: C_35  and  C_43
   12  A    between atoms: C_42  and  C_50
   13  A    between atoms: C_43  and  C_51
   14  A    between atoms: C_51  and  C_54
                            x       y       z     vdW  Elec       q    Type
                         _______ _______ _______ _____ _____    ______ ____

>  <TORSDO>
F 14

$$$$
=
 OpenBabel11052415103D

 55 61  0  0  1  0  0  0  0  0999 V2000
  188.9560  176.6910  138.3410 C   0  0  0  0  0  3  0  0  0  0  0  0
  186.7140  178.1890  139.0910 C   0  0  0  0  0  0  0  0  0  0  0  0
  186.5790  177.1200  138.1980 C   0  0  0  0  0  3  0  0  0  0  0  0
  189.0940  177.7570  139.2360 C   0  0  0  0  0  3  0  0  0  0  0  0
  187.6930  176.3660  137.8250 C   0  0  0  0  0  0  0  0  0  0  0  0
  187.9740  178.5070  139.6090 C   0  0  0  0  0  3  0  0  0  0  0  0
  187.5150  175.2490  136.8500 C   0  0  1  0  0  3  0  0  0  0  0  0
  188.4540  174.3570  134.7350 C   0  0  0  0  0  2  0  0  0  0  0  0
  189.8820  172.3310  134.5950 C   0  0  0  0  0  1  0  0  0  0  0  0
  187.8210  172.1830  136.0110 C   0  0  1  0  0  3  0  0  0  0  0  0
  188.8000  174.9900  136.0750 C   0  0  0  0  0  2  0  0  0  0  0  0
  187.5560  170.7040  135.7880 C   0  0  0  0  0  1  0  0  0  0  0  0
  188.4600  172.8260  134.7680 C   0  0  1  0  0  3  0  0  0  0  0  0
  186.5710  172.8830  136.5690 C   0  0  1  0  0  3  0  0  0  0  0  0
  186.9810  173.9930  137.5420 C   0  0  0  0  0  2  0  0  0  0  0  0
  185.2170  172.1200  134.5950 C   0  0  0  0  0  2  0  0  0  0  0  0
  184.0140  170.3190  135.8200 C   0  0  0  0  0  1  0  0  0  0  0  0
  184.1910  173.5450  136.1330 C   0  0  0  0  0  0  0  0  0  0  0  0
  183.3080  172.6400  135.8900 N   0  0  0  0  0  0  0  0  0  0  0  0
  183.8490  171.6050  135.0310 C   0  0  1  0  0  3  0  0  0  0  0  0
  185.5210  173.3020  135.5110 C   0  0  1  0  0  3  0  0  0  0  0  0
  183.8860  174.7250  136.8780 N   0  0  0  0  0  2  0  0  0  0  0  0
  182.7270  174.8220  137.7470 C   0  0  0  0  0  2  0  0  0  0  0  0
  181.6580  176.6020  139.1300 C   0  0  0  0  0  3  0  0  0  0  0  0
  181.7740  178.9380  138.4900 C   0  0  0  0  0  0  0  0  0  0  0  0
  182.8860  177.2460  137.1480 C   0  0  0  0  0  3  0  0  0  0  0  0
  182.5560  178.5850  137.3830 C   0  0  0  0  0  3  0  0  0  0  0  0
  181.3270  177.9390  139.3610 C   0  0  0  0  0  3  0  0  0  0  0  0
  182.4400  176.2560  138.0260 C   0  0  0  0  0  0  0  0  0  0  0  0
  181.4190  180.3440  138.7380 C   0  0  0  0  0  0  0  0  0  0  0  0
  180.2570  180.6530  139.1080 O   0  0  0  0  0  1  0  0  0  0  0  0
  182.3660  181.3480  138.5660 O   0  0  0  0  0  0  0  0  0  0  0  0
  185.5240  179.0030  139.4750 C   0  0  0  0  0  2  0  0  0  0  0  0
  184.7070  178.3010  140.5490 C   0  0  0  0  0  2  0  0  0  0  0  0
  184.9730  178.9280  141.9090 C   0  0  0  0  0  2  0  0  0  0  0  0
  184.7150  177.9280  143.0220 C   0  0  0  0  0  2  0  0  0  0  0  0
  184.9420  178.5660  144.3800 C   0  0  0  0  0  2  0  0  0  0  0  0
  186.4750  176.9680  146.1700 O   0  0  0  0  0  0  0  0  0  0  0  0
  187.0750  177.8780  145.5390 C   0  0  0  0  0  0  0  0  0  0  0  0
  186.3690  178.7000  144.6080 N   0  0  0  0  0  2  0  0  0  0  0  0
  188.7840  178.0240  147.1450 O   0  0  0  0  0  1  0  0  0  0  0  0
  188.5340  178.1050  145.7760 C   0  0  1  0  0  3  0  0  0  0  0  0
  189.5320  177.3900  143.4720 C   0  0  0  0  0  0  0  0  0  0  0  0
  191.6280  176.2770  144.3590 C   0  0  2  0  0  3  0  0  0  0  0  0
  191.8660  177.7440  142.2950 C   0  0  0  0  0  2  0  0  0  0  0  0
  191.4850  174.8890  144.2680 O   0  0  0  0  0  1  0  0  0  0  0  0
  189.3620  178.8790  143.1440 C   0  0  0  0  0  1  0  0  0  0  0  0
  188.4960  176.5890  142.6970 C   0  0  0  0  0  1  0  0  0  0  0  0
  190.7980  176.8510  145.5210 C   0  0  1  0  0  3  0  0  0  0  0  0
  189.3770  177.0800  144.9820 C   0  0  1  0  0  3  0  0  0  0  0  0
  191.3260  176.4200  141.7720 C   0  0  0  0  0  2  0  0  0  0  0  0
  190.9530  176.8980  143.1650 C   0  0  0  0  0  0  0  0  0  0  0  0
  190.8420  176.1630  146.9050 C   0  0  2  0  0  3  0  0  0  0  0  0
  191.9220  176.6960  147.7630 C   0  0  0  0  0  2  0  0  0  0  0  0
  192.0310  175.4470  147.1170 O   0  0  0  0  0  0  0  0  0  0  0  0
  1  4  1  0  0  0  0
  2 33  1  0  0  0  0
  2  6  1  0  0  0  0
  3  2  2  0  0  0  0
  4  6  2  0  0  0  0
  5  3  1  0  0  0  0
  5  1  2  0  0  0  0
  7 15  1  0  0  0  0
  7  5  1  1  0  0  0
  8 13  1  0  0  0  0
  8 11  1  0  0  0  0
 10 12  1  6  0  0  0
 10 14  1  0  0  0  0
 11  7  1  0  0  0  0
 13  9  1  1  0  0  0
 13 10  1  0  0  0  0
 14 15  1  6  0  0  0
 16 20  1  0  0  0  0
 18 22  1  0  0  0  0
 19 18  2  0  0  0  0
 20 17  1  1  0  0  0
 20 19  1  0  0  0  0
 21 16  1  6  0  0  0
 21 18  1  0  0  0  0
 21 14  1  0  0  0  0
 22 23  1  0  0  0  0
 23 29  1  0  0  0  0
 24 28  1  0  0  0  0
 25 30  1  0  0  0  0
 25 28  2  0  0  0  0
 26 27  2  0  0  0  0
 26 29  1  0  0  0  0
 27 25  1  0  0  0  0
 29 24  2  0  0  0  0
 30 31  1  0  0  0  0
 32 30  2  0  0  0  0
 33 34  1  0  0  0  0
 34 35  1  0  0  0  0
 35 36  1  0  0  0  0
 36 37  1  0  0  0  0
 37 40  1  0  0  0  0
 39 42  1  0  0  0  0
 39 38  2  0  0  0  0
 40 39  1  0  0  0  0
 42 41  1  1  0  0  0
 43 50  1  0  0  0  0
 44 46  1  6  0  0  0
 44 49  1  0  0  0  0
 45 52  1  0  0  0  0
 47 43  1  0  0  0  0
 48 43  1  0  0  0  0
 49 53  1  1  0  0  0
 50 49  1  0  0  0  0
 50 42  1  1  0  0  0
 51 45  1  0  0  0  0
 51 52  1  0  0  0  0
 52 43  1  0  0  0  0
 52 44  1  0  0  0  0
 53 55  1  0  0  0  0
 53 54  1  1  0  0  0
 55 54  1  0  0  0  0
M  END
>  <MODEL>
3

>  <REMARK>
 VINA RESULT:      -7.4      3.311     10.050
  Name = 
  14 active torsions:
  status: ('A' for Active; 'I' for Inactive)
    1  A    between atoms: C_2  and  C_44
    2  A    between atoms: C_8  and  N_22
    3  A    between atoms: C_8  and  C_35
    4  A    between atoms: C_10  and  C_32
    5  A    between atoms: C_11  and  C_38
    6  A    between atoms: C_20  and  C_50
    7  A    between atoms: C_26  and  C_45
    8  A    between atoms: C_27  and  C_54
    9  A    between atoms: C_33  and  N_36
   10  A    between atoms: C_33  and  C_52
   11  A    between atoms: C_35  and  C_43
   12  A    between atoms: C_42  and  C_50
   13  A    between atoms: C_43  and  C_51
   14  A    between atoms: C_51  and  C_54
                            x       y       z     vdW  Elec       q    Type
                         _______ _______ _______ _____ _____    ______ ____

>  <TORSDO>
F 14

$$$$
=
 OpenBabel11052415103D

 55 61  0  0  1  0  0  0  0  0999 V2000
  183.7560  178.9160  145.1640 C   0  0  0  0  0  3  0  0  0  0  0  0
  186.1990  177.8790  144.2770 C   0  0  0  0  0  0  0  0  0  0  0  0
  185.0930  177.9000  143.4210 C   0  0  0  0  0  3  0  0  0  0  0  0
  184.8620  178.8980  146.0210 C   0  0  0  0  0  3  0  0  0  0  0  0
  183.8720  178.4210  143.8570 C   0  0  0  0  0  0  0  0  0  0  0  0
  186.0820  178.3790  145.5770 C   0  0  0  0  0  3  0  0  0  0  0  0
  182.7050  178.4030  142.9240 C   0  0  1  0  0  3  0  0  0  0  0  0
  180.2280  178.5170  142.9210 C   0  0  0  0  0  2  0  0  0  0  0  0
  178.9310  180.5090  142.2060 C   0  0  0  0  0  1  0  0  0  0  0  0
  180.8360  179.7990  140.7440 C   0  0  1  0  0  3  0  0  0  0  0  0
  181.4940  179.0780  143.5530 C   0  0  0  0  0  2  0  0  0  0  0  0
  180.2370  180.2670  139.4280 C   0  0  0  0  0  1  0  0  0  0  0  0
  179.7410  179.3260  141.7160 C   0  0  1  0  0  3  0  0  0  0  0  0
  181.9940  178.8170  140.4980 C   0  0  1  0  0  3  0  0  0  0  0  0
  183.0760  179.0030  141.5670 C   0  0  0  0  0  2  0  0  0  0  0  0
  180.0560  177.2700  140.0940 C   0  0  0  0  0  2  0  0  0  0  0  0
  179.3080  178.3780  137.9950 C   0  0  0  0  0  1  0  0  0  0  0  0
  182.0320  176.8720  138.9150 C   0  0  0  0  0  0  0  0  0  0  0  0
  181.0980  176.7410  138.0380 N   0  0  0  0  0  0  0  0  0  0  0  0
  179.8060  177.0790  138.6010 C   0  0  1  0  0  3  0  0  0  0  0  0
  181.5730  177.3490  140.2480 C   0  0  1  0  0  3  0  0  0  0  0  0
  183.3870  176.5120  138.6440 N   0  0  0  0  0  2  0  0  0  0  0  0
  183.9000  176.3630  137.2940 C   0  0  0  0  0  2  0  0  0  0  0  0
  183.3320  174.4550  135.7910 C   0  0  0  0  0  3  0  0  0  0  0  0
  183.9480  172.1780  136.3520 C   0  0  0  0  0  0  0  0  0  0  0  0
  184.5810  174.0110  137.8130 C   0  0  0  0  0  3  0  0  0  0  0  0
  184.5770  172.6460  137.5130 C   0  0  0  0  0  3  0  0  0  0  0  0
  183.3260  173.0900  135.4930 C   0  0  0  0  0  3  0  0  0  0  0  0
  183.9620  174.9160  136.9480 C   0  0  0  0  0  0  0  0  0  0  0  0
  183.9360  170.7420  136.0330 C   0  0  0  0  0  0  0  0  0  0  0  0
  183.1750  169.9570  136.6550 O   0  0  0  0  0  1  0  0  0  0  0  0
  184.7660  170.2360  135.0390 O   0  0  0  0  0  0  0  0  0  0  0  0
  187.4970  177.3050  143.8130 C   0  0  0  0  0  2  0  0  0  0  0  0
  188.5820  177.4960  144.8620 C   0  0  0  0  0  2  0  0  0  0  0  0
  189.9510  177.5550  144.2010 C   0  0  0  0  0  2  0  0  0  0  0  0
  189.8160  177.6610  142.6930 C   0  0  0  0  0  2  0  0  0  0  0  0
  190.3800  176.4260  142.0150 C   0  0  0  0  0  2  0  0  0  0  0  0
  192.4320  177.4160  140.3070 O   0  0  0  0  0  0  0  0  0  0  0  0
  191.3310  177.1070  139.7800 C   0  0  0  0  0  0  0  0  0  0  0  0
  190.2680  176.5820  140.5770 N   0  0  0  0  0  2  0  0  0  0  0  0
  192.2220  176.7540  137.6350 O   0  0  0  0  0  1  0  0  0  0  0  0
  191.1320  177.3020  138.3100 C   0  0  1  0  0  3  0  0  0  0  0  0
  188.7160  177.6680  137.3930 C   0  0  0  0  0  0  0  0  0  0  0  0
  188.5490  175.5220  136.0550 C   0  0  2  0  0  3  0  0  0  0  0  0
  187.6470  177.6430  134.9810 C   0  0  0  0  0  2  0  0  0  0  0  0
  187.7190  174.6230  136.7310 O   0  0  0  0  0  1  0  0  0  0  0  0
  189.3000  178.9990  136.9060 C   0  0  0  0  0  1  0  0  0  0  0  0
  187.7670  177.9350  138.5520 C   0  0  0  0  0  1  0  0  0  0  0  0
  189.9300  175.6240  136.7280 C   0  0  1  0  0  3  0  0  0  0  0  0
  189.8000  176.6620  137.8550 C   0  0  1  0  0  3  0  0  0  0  0  0
  186.5490  177.1910  135.9340 C   0  0  0  0  0  2  0  0  0  0  0  0
  188.0050  176.9100  136.2620 C   0  0  0  0  0  0  0  0  0  0  0  0
  190.6740  174.3340  137.1460 C   0  0  2  0  0  3  0  0  0  0  0  0
  191.3130  173.6570  135.9960 C   0  0  0  0  0  2  0  0  0  0  0  0
  190.1180  173.1780  136.5730 O   0  0  0  0  0  0  0  0  0  0  0  0
  1  4  1  0  0  0  0
  2  6  1  0  0  0  0
  3  5  1  0  0  0  0
  3  2  2  0  0  0  0
  5  1  2  0  0  0  0
  6  4  2  0  0  0  0
  7 11  1  0  0  0  0
  7  5  1  1  0  0  0
  8 11  1  0  0  0  0
 10 12  1  6  0  0  0
 10 13  1  0  0  0  0
 13  9  1  1  0  0  0
 13  8  1  0  0  0  0
 14 10  1  0  0  0  0
 14 15  1  1  0  0  0
 15  7  1  0  0  0  0
 18 21  1  0  0  0  0
 19 20  1  0  0  0  0
 19 18  2  0  0  0  0
 20 17  1  6  0  0  0
 20 16  1  0  0  0  0
 21 16  1  6  0  0  0
 21 14  1  0  0  0  0
 22 18  1  0  0  0  0
 23 22  1  0  0  0  0
 24 29  1  0  0  0  0
 25 27  2  0  0  0  0
 27 26  1  0  0  0  0
 28 24  2  0  0  0  0
 28 25  1  0  0  0  0
 29 23  1  0  0  0  0
 29 26  2  0  0  0  0
 30 25  1  0  0  0  0
 30 31  1  0  0  0  0
 32 30  2  0  0  0  0
 33  2  1  0  0  0  0
 33 34  1  0  0  0  0
 35 34  1  0  0  0  0
 36 35  1  0  0  0  0
 37 36  1  0  0  0  0
 39 38  2  0  0  0  0
 39 40  1  0  0  0  0
 40 37  1  0  0  0  0
 42 41  1  6  0  0  0
 42 39  1  0  0  0  0
 43 50  1  0  0  0  0
 43 48  1  0  0  0  0
 44 52  1  0  0  0  0
 44 49  1  0  0  0  0
 44 46  1  1  0  0  0
 45 51  1  0  0  0  0
 45 52  1  0  0  0  0
 47 43  1  0  0  0  0
 49 53  1  1  0  0  0
 49 50  1  0  0  0  0
 50 42  1  6  0  0  0
 51 52  1  0  0  0  0
 52 43  1  0  0  0  0
 53 54  1  6  0  0  0
 54 55  1  0  0  0  0
 55 53  1  0  0  0  0
M  END
>  <MODEL>
4

>  <REMARK>
 VINA RESULT:      -7.2      2.178      8.002
  Name = 
  14 active torsions:
  status: ('A' for Active; 'I' for Inactive)
    1  A    between atoms: C_2  and  C_44
    2  A    between atoms: C_8  and  N_22
    3  A    between atoms: C_8  and  C_35
    4  A    between atoms: C_10  and  C_32
    5  A    between atoms: C_11  and  C_38
    6  A    between atoms: C_20  and  C_50
    7  A    between atoms: C_26  and  C_45
    8  A    between atoms: C_27  and  C_54
    9  A    between atoms: C_33  and  N_36
   10  A    between atoms: C_33  and  C_52
   11  A    between atoms: C_35  and  C_43
   12  A    between atoms: C_42  and  C_50
   13  A    between atoms: C_43  and  C_51
   14  A    between atoms: C_51  and  C_54
                            x       y       z     vdW  Elec       q    Type
                         _______ _______ _______ _____ _____    ______ ____

>  <TORSDO>
F 14

$$$$
=
 OpenBabel11052415103D

 55 61  0  0  1  0  0  0  0  0999 V2000
  185.6250  178.5670  140.4240 C   0  0  0  0  0  3  0  0  0  0  0  0
  187.6490  178.2480  138.5190 C   0  0  0  0  0  0  0  0  0  0  0  0
  186.3050  178.2040  138.1300 C   0  0  0  0  0  3  0  0  0  0  0  0
  186.9670  178.6130  140.8150 C   0  0  0  0  0  3  0  0  0  0  0  0
  185.2910  178.3680  139.0770 C   0  0  0  0  0  0  0  0  0  0  0  0
  187.9780  178.4530  139.8620 C   0  0  0  0  0  3  0  0  0  0  0  0
  183.8680  178.2900  138.6300 C   0  0  1  0  0  3  0  0  0  0  0  0
  181.6770  179.4110  138.9380 C   0  0  0  0  0  2  0  0  0  0  0  0
  180.6210  180.8840  137.2430 C   0  0  0  0  0  1  0  0  0  0  0  0
  181.5900  178.7200  136.4350 C   0  0  1  0  0  3  0  0  0  0  0  0
  183.1740  179.6370  138.7780 C   0  0  0  0  0  2  0  0  0  0  0  0
  180.6130  178.5010  135.2910 C   0  0  0  0  0  1  0  0  0  0  0  0
  180.9130  179.4440  137.6120 C   0  0  1  0  0  3  0  0  0  0  0  0
  182.3300  177.4160  136.7760 C   0  0  1  0  0  3  0  0  0  0  0  0
  183.7660  177.7270  137.2110 C   0  0  0  0  0  2  0  0  0  0  0  0
  180.1070  176.3530  137.2640 C   0  0  0  0  0  2  0  0  0  0  0  0
  179.9080  175.2080  135.0640 C   0  0  0  0  0  1  0  0  0  0  0  0
  182.0210  175.0410  137.5220 C   0  0  0  0  0  0  0  0  0  0  0  0
  181.1850  174.2800  136.9060 N   0  0  0  0  0  0  0  0  0  0  0  0
  179.9760  175.0030  136.5660 C   0  0  1  0  0  3  0  0  0  0  0  0
  181.5640  176.4460  137.7080 C   0  0  1  0  0  3  0  0  0  0  0  0
  183.2530  174.5500  138.0510 N   0  0  0  0  0  2  0  0  0  0  0  0
  183.8510  173.3030  137.6070 C   0  0  0  0  0  2  0  0  0  0  0  0
  186.0870  172.4810  136.8690 C   0  0  0  0  0  3  0  0  0  0  0  0
  187.9270  174.0090  136.4730 C   0  0  0  0  0  0  0  0  0  0  0  0
  185.7490  174.8610  137.1270 C   0  0  0  0  0  3  0  0  0  0  0  0
  187.0830  175.0860  136.7760 C   0  0  0  0  0  3  0  0  0  0  0  0
  187.4210  172.7060  136.5210 C   0  0  0  0  0  3  0  0  0  0  0  0
  185.2500  173.5570  137.1680 C   0  0  0  0  0  0  0  0  0  0  0  0
  189.3340  174.2390  136.1090 C   0  0  0  0  0  0  0  0  0  0  0  0
  189.6550  175.2180  135.3890 O   0  0  0  0  0  0  0  0  0  0  0  0
  190.3250  173.3730  136.5580 O   0  0  0  0  0  1  0  0  0  0  0  0
  188.7300  178.0560  137.5070 C   0  0  0  0  0  2  0  0  0  0  0  0
  190.1010  178.0830  138.1640 C   0  0  0  0  0  2  0  0  0  0  0  0
  190.5260  176.6770  138.5600 C   0  0  0  0  0  2  0  0  0  0  0  0
  191.7820  176.7140  139.4120 C   0  0  0  0  0  2  0  0  0  0  0  0
  191.7110  177.8430  140.4240 C   0  0  0  0  0  2  0  0  0  0  0  0
  189.6980  176.0880  141.4110 O   0  0  0  0  0  0  0  0  0  0  0  0
  190.6210  176.4210  142.2000 C   0  0  0  0  0  0  0  0  0  0  0  0
  191.6750  177.2800  141.7610 N   0  0  0  0  0  2  0  0  0  0  0  0
  191.9030  175.5470  143.9640 O   0  0  0  0  0  1  0  0  0  0  0  0
  190.6080  175.9210  143.6090 C   0  0  1  0  0  3  0  0  0  0  0  0
  188.5500  177.3460  144.3520 C   0  0  0  0  0  0  0  0  0  0  0  0
  189.1620  177.5430  146.8030 C   0  0  2  0  0  3  0  0  0  0  0  0
  186.7250  177.0860  146.2380 C   0  0  0  0  0  2  0  0  0  0  0  0
  189.6330  178.8340  147.0570 O   0  0  0  0  0  1  0  0  0  0  0  0
  187.7580  176.2050  143.7020 C   0  0  0  0  0  1  0  0  0  0  0  0
  188.4480  178.5860  143.4760 C   0  0  0  0  0  1  0  0  0  0  0  0
  190.2110  176.6990  146.0600 C   0  0  1  0  0  3  0  0  0  0  0  0
  190.0470  177.0030  144.5620 C   0  0  1  0  0  3  0  0  0  0  0  0
  186.9000  178.5830  146.0240 C   0  0  0  0  0  2  0  0  0  0  0  0
  188.0630  177.6370  145.7780 C   0  0  0  0  0  0  0  0  0  0  0  0
  191.6800  176.7040  146.5430 C   0  0  2  0  0  3  0  0  0  0  0  0
  192.0120  175.5060  147.3440 C   0  0  0  0  0  2  0  0  0  0  0  0
  191.7900  176.7640  147.9430 O   0  0  0  0  0  0  0  0  0  0  0  0
  1  4  1  0  0  0  0
  2  6  1  0  0  0  0
  3  2  2  0  0  0  0
  3  5  1  0  0  0  0
  5  1  2  0  0  0  0
  6  4  2  0  0  0  0
  7 11  1  0  0  0  0
  7  5  1  6  0  0  0
 10 12  1  6  0  0  0
 10 14  1  0  0  0  0
 10 13  1  0  0  0  0
 11  8  1  0  0  0  0
 13  9  1  6  0  0  0
 13  8  1  0  0  0  0
 14 15  1  1  0  0  0
 14 21  1  0  0  0  0
 15  7  1  0  0  0  0
 18 21  1  0  0  0  0
 18 22  1  0  0  0  0
 19 18  2  0  0  0  0
 20 17  1  6  0  0  0
 20 19  1  0  0  0  0
 20 16  1  0  0  0  0
 21 16  1  6  0  0  0
 23 22  1  0  0  0  0
 24 29  1  0  0  0  0
 25 28  1  0  0  0  0
 25 27  2  0  0  0  0
 26 29  2  0  0  0  0
 27 26  1  0  0  0  0
 28 24  2  0  0  0  0
 29 23  1  0  0  0  0
 30 25  1  0  0  0  0
 30 32  1  0  0  0  0
 31 30  2  0  0  0  0
 33 34  1  0  0  0  0
 33  2  1  0  0  0  0
 34 35  1  0  0  0  0
 35 36  1  0  0  0  0
 36 37  1  0  0  0  0
 37 40  1  0  0  0  0
 38 39  2  0  0  0  0
 39 42  1  0  0  0  0
 40 39  1  0  0  0  0
 42 41  1  1  0  0  0
 43 50  1  0  0  0  0
 43 52  1  0  0  0  0
 44 46  1  6  0  0  0
 47 43  1  0  0  0  0
 48 43  1  0  0  0  0
 49 53  1  1  0  0  0
 49 44  1  0  0  0  0
 50 42  1  6  0  0  0
 50 49  1  0  0  0  0
 51 45  1  0  0  0  0
 52 51  1  0  0  0  0
 52 45  1  0  0  0  0
 52 44  1  0  0  0  0
 53 54  1  1  0  0  0
 53 55  1  0  0  0  0
 54 55  1  0  0  0  0
M  END
>  <MODEL>
5

>  <REMARK>
 VINA RESULT:      -7.1      3.015      9.908
  Name = 
  14 active torsions:
  status: ('A' for Active; 'I' for Inactive)
    1  A    between atoms: C_2  and  C_44
    2  A    between atoms: C_8  and  N_22
    3  A    between atoms: C_8  and  C_35
    4  A    between atoms: C_10  and  C_32
    5  A    between atoms: C_11  and  C_38
    6  A    between atoms: C_20  and  C_50
    7  A    between atoms: C_26  and  C_45
    8  A    between atoms: C_27  and  C_54
    9  A    between atoms: C_33  and  N_36
   10  A    between atoms: C_33  and  C_52
   11  A    between atoms: C_35  and  C_43
   12  A    between atoms: C_42  and  C_50
   13  A    between atoms: C_43  and  C_51
   14  A    between atoms: C_51  and  C_54
                            x       y       z     vdW  Elec       q    Type
                         _______ _______ _______ _____ _____    ______ ____

>  <TORSDO>
F 14

$$$$
=
 OpenBabel11052415103D

 55 61  0  0  1  0  0  0  0  0999 V2000
  184.8050  178.6430  139.7110 C   0  0  0  0  0  3  0  0  0  0  0  0
  184.8100  178.3510  142.4940 C   0  0  0  0  0  0  0  0  0  0  0  0
  183.6110  178.2560  141.7800 C   0  0  0  0  0  3  0  0  0  0  0  0
  186.0060  178.7360  140.4220 C   0  0  0  0  0  3  0  0  0  0  0  0
  183.6030  178.3950  140.3900 C   0  0  0  0  0  0  0  0  0  0  0  0
  186.0080  178.5920  141.8130 C   0  0  0  0  0  3  0  0  0  0  0  0
  182.3010  178.3130  139.6630 C   0  0  1  0  0  3  0  0  0  0  0  0
  179.9400  179.0530  139.8310 C   0  0  0  0  0  2  0  0  0  0  0  0
  178.9510  180.8620  138.4480 C   0  0  0  0  0  1  0  0  0  0  0  0
  180.3670  179.1640  137.2700 C   0  0  1  0  0  3  0  0  0  0  0  0
  181.3890  179.4700  140.0460 C   0  0  0  0  0  2  0  0  0  0  0  0
  179.6340  179.2110  135.9400 C   0  0  0  0  0  1  0  0  0  0  0  0
  179.4040  179.4160  138.4440 C   0  0  1  0  0  3  0  0  0  0  0  0
  181.2390  177.9020  137.3680 C   0  0  1  0  0  3  0  0  0  0  0  0
  182.5190  178.2080  138.1530 C   0  0  0  0  0  2  0  0  0  0  0  0
  179.1610  176.5200  137.0790 C   0  0  0  0  0  2  0  0  0  0  0  0
  179.4980  176.0980  134.6490 C   0  0  0  0  0  1  0  0  0  0  0  0
  181.1920  175.3940  137.3270 C   0  0  0  0  0  0  0  0  0  0  0  0
  180.5950  174.7800  136.3660 N   0  0  0  0  0  0  0  0  0  0  0  0
  179.3570  175.4470  136.0120 C   0  0  1  0  0  3  0  0  0  0  0  0
  180.4960  176.6190  137.8110 C   0  0  1  0  0  3  0  0  0  0  0  0
  182.3850  174.8910  137.9280 N   0  0  0  0  0  2  0  0  0  0  0  0
  183.2340  173.9100  137.2750 C   0  0  0  0  0  2  0  0  0  0  0  0
  184.8380  175.8190  137.1840 C   0  0  0  0  0  3  0  0  0  0  0  0
  187.2180  175.4560  136.8960 C   0  0  0  0  0  0  0  0  0  0  0  0
  185.7020  173.5650  137.0460 C   0  0  0  0  0  3  0  0  0  0  0  0
  186.9970  174.0730  136.9030 C   0  0  0  0  0  3  0  0  0  0  0  0
  186.1310  176.3250  137.0370 C   0  0  0  0  0  3  0  0  0  0  0  0
  184.6230  174.4390  137.1920 C   0  0  0  0  0  0  0  0  0  0  0  0
  188.5770  175.9970  136.7400 C   0  0  0  0  0  0  0  0  0  0  0  0
  189.5720  175.2280  136.7230 O   0  0  0  0  0  1  0  0  0  0  0  0
  188.7760  177.3670  136.6090 O   0  0  0  0  0  0  0  0  0  0  0  0
  184.8120  178.2190  143.9800 C   0  0  0  0  0  2  0  0  0  0  0  0
  185.1710  179.5400  144.6440 C   0  0  0  0  0  2  0  0  0  0  0  0
  185.7960  179.2940  146.0080 C   0  0  0  0  0  2  0  0  0  0  0  0
  185.0170  178.2400  146.7750 C   0  0  0  0  0  2  0  0  0  0  0  0
  185.8830  177.0230  147.0460 C   0  0  0  0  0  2  0  0  0  0  0  0
  188.0210  177.8640  148.7270 O   0  0  0  0  0  0  0  0  0  0  0  0
  188.2600  177.7390  147.4970 C   0  0  0  0  0  0  0  0  0  0  0  0
  187.2380  177.2980  146.6020 N   0  0  0  0  0  2  0  0  0  0  0  0
  190.5270  178.0510  148.0290 O   0  0  0  0  0  1  0  0  0  0  0  0
  189.6210  178.0660  146.9690 C   0  0  1  0  0  3  0  0  0  0  0  0
  189.8880  177.6040  144.4140 C   0  0  0  0  0  0  0  0  0  0  0  0
  191.8530  176.0130  144.5760 C   0  0  2  0  0  3  0  0  0  0  0  0
  191.9080  177.7550  142.7250 C   0  0  0  0  0  2  0  0  0  0  0  0
  191.4070  174.7080  144.3510 O   0  0  0  0  0  1  0  0  0  0  0  0
  189.9610  179.1340  144.3330 C   0  0  0  0  0  1  0  0  0  0  0  0
  188.5580  177.1390  143.8400 C   0  0  0  0  0  1  0  0  0  0  0  0
  191.4530  176.5080  145.9770 C   0  0  1  0  0  3  0  0  0  0  0  0
  190.0250  177.0660  145.8610 C   0  0  1  0  0  3  0  0  0  0  0  0
  190.9980  176.6550  142.1970 C   0  0  0  0  0  2  0  0  0  0  0  0
  191.0650  176.9380  143.6880 C   0  0  0  0  0  0  0  0  0  0  0  0
  191.6700  175.5930  147.2040 C   0  0  2  0  0  3  0  0  0  0  0  0
  192.7650  176.0720  148.0750 C   0  0  0  0  0  2  0  0  0  0  0  0
  192.9330  174.9760  147.2030 O   0  0  0  0  0  0  0  0  0  0  0  0
  1  5  2  0  0  0  0
  1  4  1  0  0  0  0
  2 33  1  0  0  0  0
  3  2  2  0  0  0  0
  4  6  2  0  0  0  0
  5  3  1  0  0  0  0
  6  2  1  0  0  0  0
  7 11  1  0  0  0  0
  7  5  1  1  0  0  0
  8 11  1  0  0  0  0
 10 12  1  6  0  0  0
 10 14  1  0  0  0  0
 10 13  1  0  0  0  0
 13  9  1  1  0  0  0
 13  8  1  0  0  0  0
 14 21  1  0  0  0  0
 14 15  1  1  0  0  0
 15  7  1  0  0  0  0
 18 21  1  0  0  0  0
 18 22  1  0  0  0  0
 19 18  2  0  0  0  0
 20 17  1  6  0  0  0
 20 19  1  0  0  0  0
 20 16  1  0  0  0  0
 21 16  1  6  0  0  0
 23 22  1  0  0  0  0
 24 29  1  0  0  0  0
 25 27  2  0  0  0  0
 25 28  1  0  0  0  0
 26 29  2  0  0  0  0
 27 26  1  0  0  0  0
 28 24  2  0  0  0  0
 29 23  1  0  0  0  0
 30 25  1  0  0  0  0
 31 30  1  0  0  0  0
 32 30  2  0  0  0  0
 33 34  1  0  0  0  0
 34 35  1  0  0  0  0
 35 36  1  0  0  0  0
 36 37  1  0  0  0  0
 39 38  2  0  0  0  0
 40 37  1  0  0  0  0
 40 39  1  0  0  0  0
 42 39  1  0  0  0  0
 42 41  1  1  0  0  0
 43 50  1  0  0  0  0
 44 46  1  1  0  0  0
 44 49  1  0  0  0  0
 45 52  1  0  0  0  0
 47 43  1  0  0  0  0
 48 43  1  0  0  0  0
 49 53  1  1  0  0  0
 50 49  1  0  0  0  0
 50 42  1  1  0  0  0
 51 45  1  0  0  0  0
 51 52  1  0  0  0  0
 52 43  1  0  0  0  0
 52 44  1  0  0  0  0
 53 54  1  1  0  0  0
 55 53  1  0  0  0  0
 55 54  1  0  0  0  0
M  END
>  <MODEL>
6

>  <REMARK>
 VINA RESULT:      -7.1      3.475     10.158
  Name = 
  14 active torsions:
  status: ('A' for Active; 'I' for Inactive)
    1  A    between atoms: C_2  and  C_44
    2  A    between atoms: C_8  and  N_22
    3  A    between atoms: C_8  and  C_35
    4  A    between atoms: C_10  and  C_32
    5  A    between atoms: C_11  and  C_38
    6  A    between atoms: C_20  and  C_50
    7  A    between atoms: C_26  and  C_45
    8  A    between atoms: C_27  and  C_54
    9  A    between atoms: C_33  and  N_36
   10  A    between atoms: C_33  and  C_52
   11  A    between atoms: C_35  and  C_43
   12  A    between atoms: C_42  and  C_50
   13  A    between atoms: C_43  and  C_51
   14  A    between atoms: C_51  and  C_54
                            x       y       z     vdW  Elec       q    Type
                         _______ _______ _______ _____ _____    ______ ____

>  <TORSDO>
F 14

$$$$
=
 OpenBabel11052415103D

 55 61  0  0  1  0  0  0  0  0999 V2000
  191.2280  177.7200  141.9170 C   0  0  0  0  0  3  0  0  0  0  0  0
  189.4550  177.4280  144.0620 C   0  0  0  0  0  0  0  0  0  0  0  0
  189.0040  177.2540  142.7490 C   0  0  0  0  0  3  0  0  0  0  0  0
  191.6820  177.8920  143.2290 C   0  0  0  0  0  3  0  0  0  0  0  0
  189.8860  177.3930  141.6740 C   0  0  0  0  0  0  0  0  0  0  0  0
  190.7950  177.7470  144.3000 C   0  0  0  0  0  3  0  0  0  0  0  0
  189.3640  177.2260  140.2850 C   0  0  1  0  0  3  0  0  0  0  0  0
  187.4090  177.7980  138.8700 C   0  0  0  0  0  2  0  0  0  0  0  0
  187.4360  179.5440  137.1060 C   0  0  0  0  0  1  0  0  0  0  0  0
  189.3750  177.9610  137.1780 C   0  0  1  0  0  3  0  0  0  0  0  0
  188.3530  178.3130  139.9480 C   0  0  0  0  0  2  0  0  0  0  0  0
  189.6680  177.9670  135.6870 C   0  0  0  0  0  1  0  0  0  0  0  0
  187.8700  178.1340  137.4490 C   0  0  1  0  0  3  0  0  0  0  0  0
  190.0540  176.7620  137.8610 C   0  0  1  0  0  3  0  0  0  0  0  0
  190.5080  177.1500  139.2720 C   0  0  0  0  0  2  0  0  0  0  0  0
  187.9830  175.6350  136.9920 C   0  0  0  0  0  2  0  0  0  0  0  0
  188.4490  176.1110  134.5940 C   0  0  0  0  0  1  0  0  0  0  0  0
  189.9880  174.4410  136.9130 C   0  0  0  0  0  0  0  0  0  0  0  0
  189.4400  174.2320  135.7670 N   0  0  0  0  0  0  0  0  0  0  0  0
  188.2290  175.0150  135.6200 C   0  0  1  0  0  3  0  0  0  0  0  0
  189.2780  175.4260  137.7740 C   0  0  1  0  0  3  0  0  0  0  0  0
  191.1430  173.7220  137.3470 N   0  0  0  0  0  2  0  0  0  0  0  0
  192.0180  173.0200  136.4240 C   0  0  0  0  0  2  0  0  0  0  0  0
  194.1620  173.6310  135.3050 C   0  0  0  0  0  3  0  0  0  0  0  0
  195.9640  174.7020  136.5250 C   0  0  0  0  0  0  0  0  0  0  0  0
  193.8690  174.1860  137.6400 C   0  0  0  0  0  3  0  0  0  0  0  0
  195.1630  174.7150  137.6740 C   0  0  0  0  0  3  0  0  0  0  0  0
  195.4560  174.1570  135.3410 C   0  0  0  0  0  3  0  0  0  0  0  0
  193.3680  173.6490  136.4520 C   0  0  0  0  0  0  0  0  0  0  0  0
  197.3280  175.2510  136.5560 C   0  0  0  0  0  0  0  0  0  0  0  0
  197.8490  175.7240  135.5130 O   0  0  0  0  0  0  0  0  0  0  0  0
  198.0570  175.2540  137.7400 O   0  0  0  0  0  1  0  0  0  0  0  0
  188.5060  177.2960  145.2060 C   0  0  0  0  0  2  0  0  0  0  0  0
  187.0650  177.2690  144.7170 C   0  0  0  0  0  2  0  0  0  0  0  0
  186.1630  178.0150  145.6890 C   0  0  0  0  0  2  0  0  0  0  0  0
  185.1970  178.9160  144.9420 C   0  0  0  0  0  2  0  0  0  0  0  0
  185.4120  178.8100  143.4430 C   0  0  0  0  0  2  0  0  0  0  0  0
  184.5780  179.3760  140.7810 O   0  0  0  0  0  0  0  0  0  0  0  0
  183.8260  178.6540  141.4880 C   0  0  0  0  0  0  0  0  0  0  0  0
  184.1970  178.3130  142.8240 N   0  0  0  0  0  2  0  0  0  0  0  0
  181.4950  178.5690  141.7650 O   0  0  0  0  0  1  0  0  0  0  0  0
  182.5310  178.1590  140.9270 C   0  0  1  0  0  3  0  0  0  0  0  0
  182.4990  177.6060  138.3760 C   0  0  0  0  0  0  0  0  0  0  0  0
  180.7460  179.3060  137.6980 C   0  0  2  0  0  3  0  0  0  0  0  0
  180.5940  176.9910  136.6570 C   0  0  0  0  0  2  0  0  0  0  0  0
  181.3690  180.3720  137.0440 O   0  0  0  0  0  1  0  0  0  0  0  0
  182.2360  176.1800  138.8770 C   0  0  0  0  0  1  0  0  0  0  0  0
  183.9130  177.6860  137.8210 C   0  0  0  0  0  1  0  0  0  0  0  0
  180.9840  179.3640  139.2180 C   0  0  1  0  0  3  0  0  0  0  0  0
  182.3340  178.6770  139.4830 C   0  0  1  0  0  3  0  0  0  0  0  0
  181.6710  177.7080  135.8550 C   0  0  0  0  0  2  0  0  0  0  0  0
  181.4680  178.0390  137.3240 C   0  0  0  0  0  0  0  0  0  0  0  0
  180.8020  180.7030  139.9700 C   0  0  2  0  0  3  0  0  0  0  0  0
  179.5180  180.7660  140.7020 C   0  0  0  0  0  2  0  0  0  0  0  0
  179.7180  181.4540  139.4860 O   0  0  0  0  0  0  0  0  0  0  0  0
  1  4  1  0  0  0  0
  2  6  1  0  0  0  0
  2 33  1  0  0  0  0
  3  2  2  0  0  0  0
  4  6  2  0  0  0  0
  5  1  2  0  0  0  0
  5  3  1  0  0  0  0
  7  5  1  1  0  0  0
  8 11  1  0  0  0  0
 10 12  1  6  0  0  0
 10 13  1  0  0  0  0
 10 14  1  0  0  0  0
 11  7  1  0  0  0  0
 13  9  1  1  0  0  0
 13  8  1  0  0  0  0
 14 15  1  1  0  0  0
 15  7  1  0  0  0  0
 18 22  1  0  0  0  0
 18 21  1  0  0  0  0
 19 18  2  0  0  0  0
 20 17  1  6  0  0  0
 20 19  1  0  0  0  0
 20 16  1  0  0  0  0
 21 16  1  6  0  0  0
 21 14  1  0  0  0  0
 23 29  1  0  0  0  0
 23 22  1  0  0  0  0
 24 28  2  0  0  0  0
 24 29  1  0  0  0  0
 25 30  1  0  0  0  0
 25 27  2  0  0  0  0
 26 27  1  0  0  0  0
 28 25  1  0  0  0  0
 29 26  2  0  0  0  0
 30 32  1  0  0  0  0
 31 30  2  0  0  0  0
 34 33  1  0  0  0  0
 34 35  1  0  0  0  0
 36 35  1  0  0  0  0
 37 36  1  0  0  0  0
 38 39  2  0  0  0  0
 39 40  1  0  0  0  0
 40 37  1  0  0  0  0
 42 39  1  0  0  0  0
 42 41  1  1  0  0  0
 43 47  1  0  0  0  0
 43 50  1  0  0  0  0
 44 46  1  6  0  0  0
 44 49  1  0  0  0  0
 45 52  1  0  0  0  0
 48 43  1  0  0  0  0
 49 50  1  0  0  0  0
 49 53  1  6  0  0  0
 50 42  1  1  0  0  0
 51 45  1  0  0  0  0
 51 52  1  0  0  0  0
 52 44  1  0  0  0  0
 52 43  1  0  0  0  0
 53 54  1  1  0  0  0
 55 53  1  0  0  0  0
 55 54  1  0  0  0  0
M  END
>  <MODEL>
7

>  <REMARK>
 VINA RESULT:      -7.0      3.889      8.198
  Name = 
  14 active torsions:
  status: ('A' for Active; 'I' for Inactive)
    1  A    between atoms: C_2  and  C_44
    2  A    between atoms: C_8  and  N_22
    3  A    between atoms: C_8  and  C_35
    4  A    between atoms: C_10  and  C_32
    5  A    between atoms: C_11  and  C_38
    6  A    between atoms: C_20  and  C_50
    7  A    between atoms: C_26  and  C_45
    8  A    between atoms: C_27  and  C_54
    9  A    between atoms: C_33  and  N_36
   10  A    between atoms: C_33  and  C_52
   11  A    between atoms: C_35  and  C_43
   12  A    between atoms: C_42  and  C_50
   13  A    between atoms: C_43  and  C_51
   14  A    between atoms: C_51  and  C_54
                            x       y       z     vdW  Elec       q    Type
                         _______ _______ _______ _____ _____    ______ ____

>  <TORSDO>
F 14

$$$$
=
 OpenBabel11052415103D

 55 61  0  0  1  0  0  0  0  0999 V2000
  191.1620  177.4990  142.0220 C   0  0  0  0  0  3  0  0  0  0  0  0
  189.2430  177.5780  144.0570 C   0  0  0  0  0  0  0  0  0  0  0  0
  188.8510  177.3780  142.7280 C   0  0  0  0  0  3  0  0  0  0  0  0
  191.5570  177.6970  143.3500 C   0  0  0  0  0  3  0  0  0  0  0  0
  189.8060  177.3320  141.7100 C   0  0  0  0  0  0  0  0  0  0  0  0
  190.5970  177.7380  144.3660 C   0  0  0  0  0  3  0  0  0  0  0  0
  189.3490  177.1420  140.3000 C   0  0  1  0  0  3  0  0  0  0  0  0
  187.4270  177.6190  138.8070 C   0  0  0  0  0  2  0  0  0  0  0  0
  187.4390  179.3680  137.0460 C   0  0  0  0  0  1  0  0  0  0  0  0
  189.4500  177.8820  137.1960 C   0  0  1  0  0  3  0  0  0  0  0  0
  188.3000  178.1780  139.9230 C   0  0  0  0  0  2  0  0  0  0  0  0
  189.8020  177.9070  135.7180 C   0  0  0  0  0  1  0  0  0  0  0  0
  187.9280  177.9800  137.4060 C   0  0  1  0  0  3  0  0  0  0  0  0
  190.1580  176.7170  137.9060 C   0  0  1  0  0  3  0  0  0  0  0  0
  190.5350  177.1250  139.3350 C   0  0  0  0  0  2  0  0  0  0  0  0
  188.1660  175.4980  136.9820 C   0  0  0  0  0  2  0  0  0  0  0  0
  188.6530  176.0280  134.6000 C   0  0  0  0  0  1  0  0  0  0  0  0
  190.2300  174.4080  136.9290 C   0  0  0  0  0  0  0  0  0  0  0  0
  189.7160  174.1870  135.7700 N   0  0  0  0  0  0  0  0  0  0  0  0
  188.4690  174.9080  135.6080 C   0  0  1  0  0  3  0  0  0  0  0  0
  189.4540  175.3450  137.7870 C   0  0  1  0  0  3  0  0  0  0  0  0
  191.4120  173.7440  137.3780 N   0  0  0  0  0  2  0  0  0  0  0  0
  192.3400  173.1000  136.4650 C   0  0  0  0  0  2  0  0  0  0  0  0
  194.1490  174.7740  136.8450 C   0  0  0  0  0  3  0  0  0  0  0  0
  196.3930  174.0910  137.4620 C   0  0  0  0  0  0  0  0  0  0  0  0
  194.6460  172.4300  137.1670 C   0  0  0  0  0  3  0  0  0  0  0  0
  195.9710  172.7550  137.4720 C   0  0  0  0  0  3  0  0  0  0  0  0
  195.4740  175.0980  137.1470 C   0  0  0  0  0  3  0  0  0  0  0  0
  193.7340  173.4410  136.8590 C   0  0  0  0  0  0  0  0  0  0  0  0
  197.7860  174.4400  137.7760 C   0  0  0  0  0  0  0  0  0  0  0  0
  198.0810  175.5960  138.1740 O   0  0  0  0  0  1  0  0  0  0  0  0
  198.7960  173.4930  137.6360 O   0  0  0  0  0  0  0  0  0  0  0  0
  188.2180  177.6430  145.1400 C   0  0  0  0  0  2  0  0  0  0  0  0
  186.8230  177.3950  144.5860 C   0  0  0  0  0  2  0  0  0  0  0  0
  185.8090  178.2820  145.2910 C   0  0  0  0  0  2  0  0  0  0  0  0
  184.6550  178.6220  144.3640 C   0  0  0  0  0  2  0  0  0  0  0  0
  185.0850  178.5200  142.9120 C   0  0  0  0  0  2  0  0  0  0  0  0
  185.0590  179.4150  140.2090 O   0  0  0  0  0  0  0  0  0  0  0  0
  183.9620  179.0670  140.7200 C   0  0  0  0  0  0  0  0  0  0  0  0
  183.9090  178.5850  142.0640 N   0  0  0  0  0  2  0  0  0  0  0  0
  182.9910  179.8220  138.7190 O   0  0  0  0  0  1  0  0  0  0  0  0
  182.7050  179.1680  139.9170 C   0  0  1  0  0  3  0  0  0  0  0  0
  180.5680  177.6720  139.8330 C   0  0  0  0  0  0  0  0  0  0  0  0
  181.3540  176.0860  138.0200 C   0  0  2  0  0  3  0  0  0  0  0  0
  178.9460  176.8960  137.9030 C   0  0  0  0  0  2  0  0  0  0  0  0
  181.6950  174.8600  138.5990 O   0  0  0  0  0  1  0  0  0  0  0  0
  179.8590  179.0150  139.6210 C   0  0  0  0  0  1  0  0  0  0  0  0
  180.2520  177.1580  141.2310 C   0  0  0  0  0  1  0  0  0  0  0  0
  182.4280  177.1530  138.2960 C   0  0  1  0  0  3  0  0  0  0  0  0
  182.1060  177.7640  139.6690 C   0  0  1  0  0  3  0  0  0  0  0  0
  178.9320  175.7820  138.9390 C   0  0  0  0  0  2  0  0  0  0  0  0
  180.1700  176.6440  138.7650 C   0  0  0  0  0  0  0  0  0  0  0  0
  183.9210  176.8040  138.0990 C   0  0  2  0  0  3  0  0  0  0  0  0
  184.4160  177.1890  136.7590 C   0  0  0  0  0  2  0  0  0  0  0  0
  184.1260  175.8490  137.0890 O   0  0  0  0  0  0  0  0  0  0  0  0
  1  4  1  0  0  0  0
  2  6  1  0  0  0  0
  2 33  1  0  0  0  0
  3  2  2  0  0  0  0
  4  6  2  0  0  0  0
  5  1  2  0  0  0  0
  5  3  1  0  0  0  0
  7  5  1  1  0  0  0
  8 11  1  0  0  0  0
 10 12  1  6  0  0  0
 10 13  1  0  0  0  0
 10 14  1  0  0  0  0
 11  7  1  0  0  0  0
 13  9  1  1  0  0  0
 13  8  1  0  0  0  0
 14 15  1  1  0  0  0
 15  7  1  0  0  0  0
 18 22  1  0  0  0  0
 18 21  1  0  0  0  0
 19 18  2  0  0  0  0
 20 17  1  6  0  0  0
 20 19  1  0  0  0  0
 20 16  1  0  0  0  0
 21 16  1  6  0  0  0
 21 14  1  0  0  0  0
 23 29  1  0  0  0  0
 23 22  1  0  0  0  0
 24 29  2  0  0  0  0
 24 28  1  0  0  0  0
 25 27  1  0  0  0  0
 25 30  1  0  0  0  0
 26 27  2  0  0  0  0
 28 25  2  0  0  0  0
 29 26  1  0  0  0  0
 30 31  1  0  0  0  0
 32 30  2  0  0  0  0
 34 33  1  0  0  0  0
 34 35  1  0  0  0  0
 36 35  1  0  0  0  0
 37 36  1  0  0  0  0
 38 39  2  0  0  0  0
 39 40  1  0  0  0  0
 40 37  1  0  0  0  0
 42 41  1  6  0  0  0
 42 39  1  0  0  0  0
 43 48  1  0  0  0  0
 44 49  1  0  0  0  0
 44 46  1  1  0  0  0
 44 52  1  0  0  0  0
 45 52  1  0  0  0  0
 45 51  1  0  0  0  0
 47 43  1  0  0  0  0
 49 53  1  1  0  0  0
 49 50  1  0  0  0  0
 50 43  1  0  0  0  0
 50 42  1  6  0  0  0
 52 51  1  0  0  0  0
 52 43  1  0  0  0  0
 53 54  1  6  0  0  0
 54 55  1  0  0  0  0
 55 53  1  0  0  0  0
M  END
>  <MODEL>
8

>  <REMARK>
 VINA RESULT:      -6.8      3.883      7.757
  Name = 
  14 active torsions:
  status: ('A' for Active; 'I' for Inactive)
    1  A    between atoms: C_2  and  C_44
    2  A    between atoms: C_8  and  N_22
    3  A    between atoms: C_8  and  C_35
    4  A    between atoms: C_10  and  C_32
    5  A    between atoms: C_11  and  C_38
    6  A    between atoms: C_20  and  C_50
    7  A    between atoms: C_26  and  C_45
    8  A    between atoms: C_27  and  C_54
    9  A    between atoms: C_33  and  N_36
   10  A    between atoms: C_33  and  C_52
   11  A    between atoms: C_35  and  C_43
   12  A    between atoms: C_42  and  C_50
   13  A    between atoms: C_43  and  C_51
   14  A    between atoms: C_51  and  C_54
                            x       y       z     vdW  Elec       q    Type
                         _______ _______ _______ _____ _____    ______ ____

>  <TORSDO>
F 14

$$$$
=
 OpenBabel11052415103D

 55 61  0  0  1  0  0  0  0  0999 V2000
  182.5260  178.6890  142.5780 C   0  0  0  0  0  3  0  0  0  0  0  0
  185.1760  178.7540  141.6840 C   0  0  0  0  0  0  0  0  0  0  0  0
  184.1230  178.8280  140.7660 C   0  0  0  0  0  3  0  0  0  0  0  0
  183.5760  178.6170  143.4980 C   0  0  0  0  0  3  0  0  0  0  0  0
  182.7980  178.8020  141.2070 C   0  0  0  0  0  0  0  0  0  0  0  0
  184.9010  178.6480  143.0510 C   0  0  0  0  0  3  0  0  0  0  0  0
  181.7000  178.8570  140.1970 C   0  0  1  0  0  3  0  0  0  0  0  0
  179.4360  179.8080  139.8480 C   0  0  0  0  0  2  0  0  0  0  0  0
  178.9530  181.7320  138.3550 C   0  0  0  0  0  1  0  0  0  0  0  0
  180.4570  179.9390  137.4620 C   0  0  1  0  0  3  0  0  0  0  0  0
  180.8240  180.0850  140.4090 C   0  0  0  0  0  2  0  0  0  0  0  0
  180.0620  180.0850  136.0020 C   0  0  0  0  0  1  0  0  0  0  0  0
  179.2710  180.2510  138.3920 C   0  0  1  0  0  3  0  0  0  0  0  0
  181.1730  178.6000  137.7020 C   0  0  1  0  0  3  0  0  0  0  0  0
  182.2550  178.7690  138.7740 C   0  0  0  0  0  2  0  0  0  0  0  0
  179.0310  177.5020  136.9840 C   0  0  0  0  0  2  0  0  0  0  0  0
  179.6880  177.2480  134.5970 C   0  0  0  0  0  1  0  0  0  0  0  0
  180.8710  176.1280  137.4050 C   0  0  0  0  0  0  0  0  0  0  0  0
  180.3670  175.6710  136.3110 N   0  0  0  0  0  0  0  0  0  0  0  0
  179.2740  176.5060  135.8540 C   0  0  1  0  0  3  0  0  0  0  0  0
  180.2420  177.3810  137.9050 C   0  0  1  0  0  3  0  0  0  0  0  0
  181.9000  175.4390  138.1150 N   0  0  0  0  0  2  0  0  0  0  0  0
  182.7320  174.4230  137.4940 C   0  0  0  0  0  2  0  0  0  0  0  0
  185.2070  174.3340  137.2000 C   0  0  0  0  0  3  0  0  0  0  0  0
  186.4470  176.2360  136.3480 C   0  0  0  0  0  0  0  0  0  0  0  0
  184.0300  176.3450  136.5550 C   0  0  0  0  0  3  0  0  0  0  0  0
  185.2450  176.9400  136.2010 C   0  0  0  0  0  3  0  0  0  0  0  0
  186.4210  174.9300  136.8490 C   0  0  0  0  0  3  0  0  0  0  0  0
  184.0120  175.0390  137.0500 C   0  0  0  0  0  0  0  0  0  0  0  0
  187.7290  176.8580  135.9830 C   0  0  0  0  0  0  0  0  0  0  0  0
  187.8000  178.0950  135.7680 O   0  0  0  0  0  0  0  0  0  0  0  0
  188.8790  176.0830  135.8720 O   0  0  0  0  0  1  0  0  0  0  0  0
  186.5910  178.7660  141.2070 C   0  0  0  0  0  2  0  0  0  0  0  0
  186.6860  178.2690  139.7720 C   0  0  0  0  0  2  0  0  0  0  0  0
  188.1410  178.1790  139.3390 C   0  0  0  0  0  2  0  0  0  0  0  0
  189.0660  178.5840  140.4730 C   0  0  0  0  0  2  0  0  0  0  0  0
  190.4000  177.8690  140.3590 C   0  0  0  0  0  2  0  0  0  0  0  0
  189.1320  175.8090  141.8600 O   0  0  0  0  0  0  0  0  0  0  0  0
  190.1150  176.3950  142.3860 C   0  0  0  0  0  0  0  0  0  0  0  0
  190.8110  177.4210  141.6770 N   0  0  0  0  0  2  0  0  0  0  0  0
  191.9420  175.9410  143.7920 O   0  0  0  0  0  1  0  0  0  0  0  0
  190.5500  176.0190  143.7670 C   0  0  1  0  0  3  0  0  0  0  0  0
  188.5160  177.3930  144.6560 C   0  0  0  0  0  0  0  0  0  0  0  0
  189.2040  177.4470  147.0940 C   0  0  2  0  0  3  0  0  0  0  0  0
  186.7510  177.0180  146.5800 C   0  0  0  0  0  2  0  0  0  0  0  0
  189.6820  178.7220  147.4090 O   0  0  0  0  0  1  0  0  0  0  0  0
  187.7050  176.2900  143.9650 C   0  0  0  0  0  1  0  0  0  0  0  0
  188.3860  178.6820  143.8580 C   0  0  0  0  0  1  0  0  0  0  0  0
  190.2300  176.6500  146.2700 C   0  0  1  0  0  3  0  0  0  0  0  0
  190.0190  177.0420  144.7980 C   0  0  1  0  0  3  0  0  0  0  0  0
  186.9180  178.5250  146.4490 C   0  0  0  0  0  2  0  0  0  0  0  0
  188.0730  177.5980  146.1110 C   0  0  0  0  0  0  0  0  0  0  0  0
  191.7140  176.6310  146.7070 C   0  0  2  0  0  3  0  0  0  0  0  0
  191.9940  175.5670  147.6960 C   0  0  0  0  0  2  0  0  0  0  0  0
  191.8810  176.9230  148.0710 O   0  0  0  0  0  0  0  0  0  0  0  0
  1  4  1  0  0  0  0
  2  6  1  0  0  0  0
  3  5  1  0  0  0  0
  3  2  2  0  0  0  0
  5  1  2  0  0  0  0
  6  4  2  0  0  0  0
  7 11  1  0  0  0  0
  7  5  1  1  0  0  0
  8 11  1  0  0  0  0
 10 12  1  6  0  0  0
 10 14  1  0  0  0  0
 10 13  1  0  0  0  0
 13  9  1  1  0  0  0
 13  8  1  0  0  0  0
 14 21  1  0  0  0  0
 14 15  1  1  0  0  0
 15  7  1  0  0  0  0
 18 21  1  0  0  0  0
 18 22  1  0  0  0  0
 19 18  2  0  0  0  0
 20 17  1  6  0  0  0
 20 19  1  0  0  0  0
 20 16  1  0  0  0  0
 21 16  1  6  0  0  0
 23 22  1  0  0  0  0
 25 28  1  0  0  0  0
 26 29  2  0  0  0  0
 27 25  2  0  0  0  0
 27 26  1  0  0  0  0
 28 24  2  0  0  0  0
 29 24  1  0  0  0  0
 29 23  1  0  0  0  0
 30 25  1  0  0  0  0
 31 30  2  0  0  0  0
 32 30  1  0  0  0  0
 33  2  1  0  0  0  0
 34 33  1  0  0  0  0
 35 34  1  0  0  0  0
 35 36  1  0  0  0  0
 37 36  1  0  0  0  0
 37 40  1  0  0  0  0
 38 39  2  0  0  0  0
 39 42  1  0  0  0  0
 40 39  1  0  0  0  0
 42 41  1  6  0  0  0
 43 50  1  0  0  0  0
 43 52  1  0  0  0  0
 44 46  1  6  0  0  0
 47 43  1  0  0  0  0
 48 43  1  0  0  0  0
 49 53  1  1  0  0  0
 49 44  1  0  0  0  0
 50 42  1  6  0  0  0
 50 49  1  0  0  0  0
 51 45  1  0  0  0  0
 52 51  1  0  0  0  0
 52 45  1  0  0  0  0
 52 44  1  0  0  0  0
 53 54  1  1  0  0  0
 53 55  1  0  0  0  0
 54 55  1  0  0  0  0
M  END
>  <MODEL>
9

>  <REMARK>
 VINA RESULT:      -6.7      3.115      9.765
  Name = 
  14 active torsions:
  status: ('A' for Active; 'I' for Inactive)
    1  A    between atoms: C_2  and  C_44
    2  A    between atoms: C_8  and  N_22
    3  A    between atoms: C_8  and  C_35
    4  A    between atoms: C_10  and  C_32
    5  A    between atoms: C_11  and  C_38
    6  A    between atoms: C_20  and  C_50
    7  A    between atoms: C_26  and  C_45
    8  A    between atoms: C_27  and  C_54
    9  A    between atoms: C_33  and  N_36
   10  A    between atoms: C_33  and  C_52
   11  A    between atoms: C_35  and  C_43
   12  A    between atoms: C_42  and  C_50
   13  A    between atoms: C_43  and  C_51
   14  A    between atoms: C_51  and  C_54
                            x       y       z     vdW  Elec       q    Type
                         _______ _______ _______ _____ _____    ______ ____

>  <TORSDO>
F 14

$$$$
