=
 OpenBabel11052413423D

 27 30  0  0  1  0  0  0  0  0999 V2000
  182.8530  180.2020  138.3480 C   0  0  0  0  0  2  0  0  0  0  0  0
  184.0050  178.9760  140.3190 C   0  0  0  0  0  0  0  0  0  0  0  0
  181.6460  178.9920  140.9820 N   0  0  0  0  0  2  0  0  0  0  0  0
  185.3320  178.8170  144.2820 C   0  0  0  0  0  3  0  0  0  0  0  0
  184.8950  178.7120  146.6500 O   0  0  0  0  0  1  0  0  0  0  0  0
  185.3610  178.9570  140.6500 C   0  0  0  0  0  3  0  0  0  0  0  0
  182.5850  178.8320  143.7800 C   0  0  0  0  0  3  0  0  0  0  0  0
  179.7360  181.2510  140.6930 C   0  0  0  0  0  2  0  0  0  0  0  0
  183.0560  178.7740  145.0930 C   0  0  0  0  0  3  0  0  0  0  0  0
  178.9310  181.7450  139.4970 C   0  0  0  0  0  2  0  0  0  0  0  0
  183.0360  178.9450  141.3490 C   0  0  0  0  0  0  0  0  0  0  0  0
  183.6680  178.9990  138.8500 C   0  0  1  0  0  3  0  0  0  0  0  0
  184.4280  178.7680  145.3450 C   0  0  0  0  0  0  0  0  0  0  0  0
  184.8660  178.8750  142.9640 C   0  0  0  0  0  0  0  0  0  0  0  0
  181.4290  179.9140  138.3360 N   0  0  0  0  0  2  0  0  0  0  0  0
  183.4760  178.8890  142.6960 C   0  0  0  0  0  0  0  0  0  0  0  0
  179.3700  179.8210  141.0610 C   0  0  0  0  0  2  0  0  0  0  0  0
  185.7590  178.9110  141.9450 N   0  0  0  0  0  0  0  0  0  0  0  0
  179.2660  180.9970  138.2070 C   0  0  0  0  0  2  0  0  0  0  0  0
  180.7430  181.1010  137.8570 C   0  0  0  0  0  2  0  0  0  0  0  0
  180.5040  179.2050  141.8580 C   0  0  0  0  0  2  0  0  0  0  0  0
  183.8780  174.7610  137.8050 C   0  0  0  0  0  2  0  0  0  0  0  0
  183.4030  177.6240  138.2220 C   0  0  0  0  0  3  0  0  0  0  0  0
  183.0350  176.5920  139.2900 C   0  0  0  0  0  2  0  0  0  0  0  0
  182.6990  175.2530  138.6390 C   0  0  0  0  0  2  0  0  0  0  0  0
  184.2200  175.7840  136.7250 C   0  0  0  0  0  2  0  0  0  0  0  0
  184.5670  177.1250  137.3630 C   0  0  0  0  0  2  0  0  0  0  0  0
  1 12  1  0  0  0  0
  2  6  2  0  0  0  0
  2 11  1  0  0  0  0
  3 11  1  0  0  0  0
  3 21  1  0  0  0  0
  4 13  2  0  0  0  0
  6 18  1  0  0  0  0
  7  9  2  0  0  0  0
  8 17  1  0  0  0  0
  9 13  1  0  0  0  0
 10  8  1  0  0  0  0
 11 16  2  0  0  0  0
 12 23  1  1  0  0  0
 12  2  1  0  0  0  0
 13  5  1  0  0  0  0
 14  4  1  0  0  0  0
 15  1  1  0  0  0  0
 16 14  1  0  0  0  0
 16  7  1  0  0  0  0
 17 21  1  0  0  0  0
 18 14  2  0  0  0  0
 19 10  1  0  0  0  0
 20 19  1  0  0  0  0
 20 15  1  0  0  0  0
 22 25  1  0  0  0  0
 23 24  1  0  0  0  0
 25 24  1  0  0  0  0
 26 27  1  0  0  0  0
 26 22  1  0  0  0  0
 27 23  1  0  0  0  0
M  END
>  <MODEL>
1

>  <REMARK>
 VINA RESULT:      -7.3      0.000      0.000
  Name = 
  1 active torsions:
  status: ('A' for Active; 'I' for Inactive)
    1  A    between atoms: C_9  and  C_15
                            x       y       z     vdW  Elec       q    Type
                         _______ _______ _______ _____ _____    ______ ____

>  <TORSDO>
F 1

$$$$
=
 OpenBabel11052413423D

 27 30  0  0  1  0  0  0  0  0999 V2000
  191.8610  177.3380  138.8910 C   0  0  0  0  0  2  0  0  0  0  0  0
  189.2710  177.3950  138.9330 C   0  0  0  0  0  0  0  0  0  0  0  0
  189.7590  175.1870  137.9890 N   0  0  0  0  0  2  0  0  0  0  0  0
  185.5640  177.6260  137.0100 C   0  0  0  0  0  3  0  0  0  0  0  0
  183.8620  176.6810  135.5890 O   0  0  0  0  0  1  0  0  0  0  0  0
  188.4330  178.5050  139.0600 C   0  0  0  0  0  3  0  0  0  0  0  0
  187.1180  175.3320  136.6690 C   0  0  0  0  0  3  0  0  0  0  0  0
  191.8500  174.5390  135.9790 C   0  0  0  0  0  2  0  0  0  0  0  0
  185.8740  175.4330  136.0430 C   0  0  0  0  0  3  0  0  0  0  0  0
  193.3490  174.3030  136.1220 C   0  0  0  0  0  2  0  0  0  0  0  0
  188.8660  176.3070  138.1250 C   0  0  0  0  0  0  0  0  0  0  0  0
  190.5620  177.4300  139.7080 C   0  0  1  0  0  3  0  0  0  0  0  0
  185.0970  176.5810  136.2120 C   0  0  0  0  0  0  0  0  0  0  0  0
  186.8090  177.5300  137.6400 C   0  0  0  0  0  0  0  0  0  0  0  0
  192.3350  175.9680  138.7950 N   0  0  0  0  0  2  0  0  0  0  0  0
  187.6090  176.3740  137.4710 C   0  0  0  0  0  0  0  0  0  0  0  0
  191.0470  173.5260  136.7810 C   0  0  0  0  0  2  0  0  0  0  0  0
  187.2390  178.5520  138.4200 N   0  0  0  0  0  0  0  0  0  0  0  0
  193.8570  174.5610  137.5410 C   0  0  0  0  0  2  0  0  0  0  0  0
  193.5540  175.9770  138.0050 C   0  0  0  0  0  2  0  0  0  0  0  0
  189.6610  174.0840  137.0450 C   0  0  0  0  0  2  0  0  0  0  0  0
  190.1530  176.6600  143.9910 C   0  0  0  0  0  2  0  0  0  0  0  0
  190.5150  176.7480  141.0820 C   0  0  0  0  0  3  0  0  0  0  0  0
  189.1290  176.8820  141.7170 C   0  0  0  0  0  2  0  0  0  0  0  0
  189.0790  176.1320  143.0440 C   0  0  0  0  0  2  0  0  0  0  0  0
  191.5330  176.4960  143.3600 C   0  0  0  0  0  2  0  0  0  0  0  0
  191.6000  177.2510  142.0370 C   0  0  0  0  0  2  0  0  0  0  0  0
  1 12  1  0  0  0  0
  2  6  1  0  0  0  0
  2 12  1  0  0  0  0
  3 11  1  0  0  0  0
  4 14  1  0  0  0  0
  5 13  1  0  0  0  0
  7 16  1  0  0  0  0
  8 10  1  0  0  0  0
  8 17  1  0  0  0  0
  9 13  1  0  0  0  0
  9  7  2  0  0  0  0
 10 19  1  0  0  0  0
 11  2  2  0  0  0  0
 12 23  1  1  0  0  0
 13  4  2  0  0  0  0
 14 18  1  0  0  0  0
 15  1  1  0  0  0  0
 16 14  2  0  0  0  0
 16 11  1  0  0  0  0
 17 21  1  0  0  0  0
 18  6  2  0  0  0  0
 19 20  1  0  0  0  0
 20 15  1  0  0  0  0
 21  3  1  0  0  0  0
 23 24  1  0  0  0  0
 23 27  1  0  0  0  0
 24 25  1  0  0  0  0
 25 22  1  0  0  0  0
 26 22  1  0  0  0  0
 27 26  1  0  0  0  0
M  END
>  <MODEL>
2

>  <REMARK>
 VINA RESULT:      -7.0      6.107      9.981
  Name = 
  1 active torsions:
  status: ('A' for Active; 'I' for Inactive)
    1  A    between atoms: C_9  and  C_15
                            x       y       z     vdW  Elec       q    Type
                         _______ _______ _______ _____ _____    ______ ____

>  <TORSDO>
F 1

$$$$
=
 OpenBabel11052413423D

 27 30  0  0  1  0  0  0  0  0999 V2000
  181.7510  177.6060  137.2260 C   0  0  0  0  0  2  0  0  0  0  0  0
  182.0860  178.7440  139.5290 C   0  0  0  0  0  0  0  0  0  0  0  0
  184.3690  178.5880  138.6550 N   0  0  0  0  0  2  0  0  0  0  0  0
  183.3840  178.6940  143.5050 C   0  0  0  0  0  3  0  0  0  0  0  0
  185.1460  178.6240  145.1480 O   0  0  0  0  0  1  0  0  0  0  0  0
  181.1960  178.7970  140.6040 C   0  0  0  0  0  3  0  0  0  0  0  0
  185.2870  178.6000  141.4640 C   0  0  0  0  0  3  0  0  0  0  0  0
  185.5650  176.2770  137.2190 C   0  0  0  0  0  2  0  0  0  0  0  0
  185.6930  178.5910  142.8000 C   0  0  0  0  0  3  0  0  0  0  0  0
  185.4660  175.8310  135.7650 C   0  0  0  0  0  2  0  0  0  0  0  0
  183.4750  178.6670  139.7800 C   0  0  0  0  0  0  0  0  0  0  0  0
  181.4830  178.8050  138.1490 C   0  0  1  0  0  3  0  0  0  0  0  0
  184.7420  178.6360  143.8210 C   0  0  0  0  0  0  0  0  0  0  0  0
  182.9710  178.7050  142.1680 C   0  0  0  0  0  0  0  0  0  0  0  0
  182.9070  177.8350  136.3750 N   0  0  0  0  0  2  0  0  0  0  0  0
  183.9270  178.6520  141.1240 C   0  0  0  0  0  0  0  0  0  0  0  0
  186.1820  177.6620  137.3370 C   0  0  0  0  0  2  0  0  0  0  0  0
  181.6480  178.7730  141.8820 N   0  0  0  0  0  0  0  0  0  0  0  0
  184.4860  176.6750  134.9510 C   0  0  0  0  0  2  0  0  0  0  0  0
  183.0870  176.6550  135.5480 C   0  0  0  0  0  2  0  0  0  0  0  0
  185.7890  178.2710  138.6710 C   0  0  0  0  0  2  0  0  0  0  0  0
  180.1440  182.7580  136.8530 C   0  0  0  0  0  2  0  0  0  0  0  0
  181.4220  180.2070  137.5270 C   0  0  0  0  0  3  0  0  0  0  0  0
  181.1590  181.2720  138.5930 C   0  0  0  0  0  2  0  0  0  0  0  0
  181.1810  182.6640  137.9680 C   0  0  0  0  0  2  0  0  0  0  0  0
  180.4310  181.7090  135.7810 C   0  0  0  0  0  2  0  0  0  0  0  0
  180.4030  180.3120  136.3910 C   0  0  0  0  0  2  0  0  0  0  0  0
  1 12  1  0  0  0  0
  2 11  2  0  0  0  0
  2  6  1  0  0  0  0
  3 21  1  0  0  0  0
  3 11  1  0  0  0  0
  4 13  1  0  0  0  0
  6 18  2  0  0  0  0
  7  9  1  0  0  0  0
  8 17  1  0  0  0  0
  9 13  2  0  0  0  0
 10  8  1  0  0  0  0
 11 16  1  0  0  0  0
 12 23  1  6  0  0  0
 12  2  1  0  0  0  0
 13  5  1  0  0  0  0
 14  4  2  0  0  0  0
 15  1  1  0  0  0  0
 16  7  2  0  0  0  0
 16 14  1  0  0  0  0
 17 21  1  0  0  0  0
 18 14  1  0  0  0  0
 19 20  1  0  0  0  0
 19 10  1  0  0  0  0
 20 15  1  0  0  0  0
 22 25  1  0  0  0  0
 23 24  1  0  0  0  0
 25 24  1  0  0  0  0
 26 27  1  0  0  0  0
 26 22  1  0  0  0  0
 27 23  1  0  0  0  0
M  END
>  <MODEL>
3

>  <REMARK>
 VINA RESULT:      -6.9      1.827      5.186
  Name = 
  1 active torsions:
  status: ('A' for Active; 'I' for Inactive)
    1  A    between atoms: C_9  and  C_15
                            x       y       z     vdW  Elec       q    Type
                         _______ _______ _______ _____ _____    ______ ____

>  <TORSDO>
F 1

$$$$
=
 OpenBabel11052413423D

 27 30  0  0  1  0  0  0  0  0999 V2000
  179.6580  177.6380  139.3080 C   0  0  0  0  0  2  0  0  0  0  0  0
  180.9470  178.9210  141.1520 C   0  0  0  0  0  0  0  0  0  0  0  0
  182.7330  178.1650  139.6550 N   0  0  0  0  0  2  0  0  0  0  0  0
  183.4910  179.0240  144.4710 C   0  0  0  0  0  3  0  0  0  0  0  0
  185.6660  178.7460  145.4710 O   0  0  0  0  0  1  0  0  0  0  0  0
  180.5000  179.2880  142.4230 C   0  0  0  0  0  3  0  0  0  0  0  0
  184.5400  178.2840  141.9920 C   0  0  0  0  0  3  0  0  0  0  0  0
  182.9510  175.5020  138.3540 C   0  0  0  0  0  2  0  0  0  0  0  0
  185.3680  178.3320  143.1150 C   0  0  0  0  0  3  0  0  0  0  0  0
  182.2870  174.9310  137.1070 C   0  0  0  0  0  2  0  0  0  0  0  0
  182.3040  178.5650  140.9690 C   0  0  0  0  0  0  0  0  0  0  0  0
  179.9320  178.9610  140.0400 C   0  0  1  0  0  3  0  0  0  0  0  0
  184.8430  178.7000  144.3550 C   0  0  0  0  0  0  0  0  0  0  0  0
  182.6570  178.9780  143.3490 C   0  0  0  0  0  0  0  0  0  0  0  0
  180.4770  177.5090  138.1140 N   0  0  0  0  0  2  0  0  0  0  0  0
  183.1750  178.5990  142.0870 C   0  0  0  0  0  0  0  0  0  0  0  0
  183.8000  176.7200  138.0270 C   0  0  0  0  0  2  0  0  0  0  0  0
  181.3480  179.3070  143.4800 N   0  0  0  0  0  0  0  0  0  0  0  0
  181.2510  175.8760  136.5010 C   0  0  0  0  0  2  0  0  0  0  0  0
  180.1580  176.2350  137.4960 C   0  0  0  0  0  2  0  0  0  0  0  0
  183.9970  177.5440  139.2860 C   0  0  0  0  0  2  0  0  0  0  0  0
  180.3320  181.9110  136.8410 C   0  0  0  0  0  2  0  0  0  0  0  0
  179.9070  180.2640  139.2290 C   0  0  0  0  0  3  0  0  0  0  0  0
  179.0080  180.1290  137.9980 C   0  0  0  0  0  2  0  0  0  0  0  0
  178.9330  181.4560  137.2480 C   0  0  0  0  0  2  0  0  0  0  0  0
  181.2130  182.0690  138.0770 C   0  0  0  0  0  2  0  0  0  0  0  0
  181.3030  180.7460  138.8310 C   0  0  0  0  0  2  0  0  0  0  0  0
  1 12  1  0  0  0  0
  2  6  1  0  0  0  0
  3 11  1  0  0  0  0
  6 18  2  0  0  0  0
  7 16  2  0  0  0  0
  7  9  1  0  0  0  0
  9 13  2  0  0  0  0
 10  8  1  0  0  0  0
 11  2  2  0  0  0  0
 11 16  1  0  0  0  0
 12 23  1  6  0  0  0
 12  2  1  0  0  0  0
 13  4  1  0  0  0  0
 13  5  1  0  0  0  0
 14 18  1  0  0  0  0
 14  4  2  0  0  0  0
 15  1  1  0  0  0  0
 16 14  1  0  0  0  0
 17  8  1  0  0  0  0
 17 21  1  0  0  0  0
 19 10  1  0  0  0  0
 19 20  1  0  0  0  0
 20 15  1  0  0  0  0
 21  3  1  0  0  0  0
 22 25  1  0  0  0  0
 22 26  1  0  0  0  0
 24 23  1  0  0  0  0
 25 24  1  0  0  0  0
 26 27  1  0  0  0  0
 27 23  1  0  0  0  0
M  END
>  <MODEL>
4

>  <REMARK>
 VINA RESULT:      -6.1      1.540      4.744
  Name = 
  1 active torsions:
  status: ('A' for Active; 'I' for Inactive)
    1  A    between atoms: C_9  and  C_15
                            x       y       z     vdW  Elec       q    Type
                         _______ _______ _______ _____ _____    ______ ____

>  <TORSDO>
F 1

$$$$
=
 OpenBabel11052413423D

 27 30  0  0  1  0  0  0  0  0999 V2000
  179.6150  180.1040  140.7630 C   0  0  0  0  0  2  0  0  0  0  0  0
  180.2030  177.5830  140.6520 C   0  0  0  0  0  0  0  0  0  0  0  0
  181.0680  178.4450  138.5280 N   0  0  0  0  0  2  0  0  0  0  0  0
  179.6450  173.7390  139.1040 C   0  0  0  0  0  3  0  0  0  0  0  0
  179.7950  172.1490  137.2980 O   0  0  0  0  0  1  0  0  0  0  0  0
  179.6800  176.5400  141.4190 C   0  0  0  0  0  3  0  0  0  0  0  0
  180.7170  175.7150  137.4490 C   0  0  0  0  0  3  0  0  0  0  0  0
  179.7400  180.4090  136.7370 C   0  0  0  0  0  2  0  0  0  0  0  0
  180.5250  174.4220  136.9590 C   0  0  0  0  0  3  0  0  0  0  0  0
  179.6550  181.9300  136.7940 C   0  0  0  0  0  2  0  0  0  0  0  0
  180.5560  177.3460  139.3040 C   0  0  0  0  0  0  0  0  0  0  0  0
  180.3840  178.9080  141.3470 C   0  0  1  0  0  3  0  0  0  0  0  0
  179.9870  173.4340  137.7850 C   0  0  0  0  0  0  0  0  0  0  0  0
  179.8360  175.0320  139.6000 C   0  0  0  0  0  0  0  0  0  0  0  0
  180.4320  180.8560  139.8240 N   0  0  0  0  0  2  0  0  0  0  0  0
  180.3730  176.0450  138.7690 C   0  0  0  0  0  0  0  0  0  0  0  0
  181.1810  179.9350  136.6200 C   0  0  0  0  0  2  0  0  0  0  0  0
  179.5060  175.3060  140.8860 N   0  0  0  0  0  0  0  0  0  0  0  0
  180.2760  182.5120  138.0630 C   0  0  0  0  0  2  0  0  0  0  0  0
  179.6260  181.9540  139.3210 C   0  0  0  0  0  2  0  0  0  0  0  0
  181.2710  178.4950  137.0880 C   0  0  0  0  0  2  0  0  0  0  0  0
  184.2540  178.3890  143.3100 C   0  0  0  0  0  2  0  0  0  0  0  0
  181.7830  179.1530  141.9290 C   0  0  0  0  0  3  0  0  0  0  0  0
  182.8230  178.2510  141.2600 C   0  0  0  0  0  2  0  0  0  0  0  0
  184.2170  178.5640  141.7950 C   0  0  0  0  0  2  0  0  0  0  0  0
  183.2320  179.3120  143.9690 C   0  0  0  0  0  2  0  0  0  0  0  0
  181.8320  179.0030  143.4510 C   0  0  0  0  0  2  0  0  0  0  0  0
  1 12  1  0  0  0  0
  2 12  1  0  0  0  0
  2  6  1  0  0  0  0
  3 11  1  0  0  0  0
  4 14  1  0  0  0  0
  5 13  1  0  0  0  0
  7 16  1  0  0  0  0
  8 10  1  0  0  0  0
  9  7  2  0  0  0  0
  9 13  1  0  0  0  0
 10 19  1  0  0  0  0
 11  2  2  0  0  0  0
 12 23  1  6  0  0  0
 13  4  2  0  0  0  0
 14 18  1  0  0  0  0
 15  1  1  0  0  0  0
 16 11  1  0  0  0  0
 16 14  2  0  0  0  0
 17  8  1  0  0  0  0
 17 21  1  0  0  0  0
 18  6  2  0  0  0  0
 19 20  1  0  0  0  0
 20 15  1  0  0  0  0
 21  3  1  0  0  0  0
 22 26  1  0  0  0  0
 23 27  1  0  0  0  0
 24 25  1  0  0  0  0
 24 23  1  0  0  0  0
 25 22  1  0  0  0  0
 27 26  1  0  0  0  0
M  END
>  <MODEL>
5

>  <REMARK>
 VINA RESULT:      -6.0      3.279      6.165
  Name = 
  1 active torsions:
  status: ('A' for Active; 'I' for Inactive)
    1  A    between atoms: C_9  and  C_15
                            x       y       z     vdW  Elec       q    Type
                         _______ _______ _______ _____ _____    ______ ____

>  <TORSDO>
F 1

$$$$
=
 OpenBabel11052413423D

 27 30  0  0  1  0  0  0  0  0999 V2000
  184.8600  179.7500  143.0850 C   0  0  0  0  0  2  0  0  0  0  0  0
  186.2490  178.6820  141.1770 C   0  0  0  0  0  0  0  0  0  0  0  0
  186.8000  177.2820  143.1100 N   0  0  0  0  0  2  0  0  0  0  0  0
  189.8890  177.8660  139.2860 C   0  0  0  0  0  3  0  0  0  0  0  0
  192.0260  176.7530  139.2150 O   0  0  0  0  0  1  0  0  0  0  0  0
  186.5870  179.2340  139.9400 C   0  0  0  0  0  3  0  0  0  0  0  0
  189.3530  176.6690  141.7510 C   0  0  0  0  0  3  0  0  0  0  0  0
  187.3380  178.2140  145.8810 C   0  0  0  0  0  2  0  0  0  0  0  0
  190.5580  176.4100  141.0960 C   0  0  0  0  0  3  0  0  0  0  0  0
  186.3980  178.6110  147.0130 C   0  0  0  0  0  2  0  0  0  0  0  0
  187.1620  177.8180  141.8250 C   0  0  0  0  0  0  0  0  0  0  0  0
  184.8900  179.0330  141.7260 C   0  0  1  0  0  3  0  0  0  0  0  0
  190.8280  177.0090  139.8640 C   0  0  0  0  0  0  0  0  0  0  0  0
  188.6800  178.1280  139.9380 C   0  0  0  0  0  0  0  0  0  0  0  0
  184.6990  178.8100  144.1810 N   0  0  0  0  0  2  0  0  0  0  0  0
  188.3980  177.5330  141.1910 C   0  0  0  0  0  0  0  0  0  0  0  0
  187.1250  176.7690  145.4570 C   0  0  0  0  0  2  0  0  0  0  0  0
  187.7770  178.9550  139.3550 N   0  0  0  0  0  0  0  0  0  0  0  0
  184.9310  178.6280  146.5860 C   0  0  0  0  0  2  0  0  0  0  0  0
  184.6890  179.5710  145.4180 C   0  0  0  0  0  2  0  0  0  0  0  0
  187.6590  176.5770  144.0510 C   0  0  0  0  0  2  0  0  0  0  0  0
  181.4450  177.0180  139.9460 C   0  0  0  0  0  2  0  0  0  0  0  0
  183.7790  178.0230  141.4080 C   0  0  0  0  0  3  0  0  0  0  0  0
  183.9020  177.5010  139.9760 C   0  0  0  0  0  2  0  0  0  0  0  0
  182.8370  176.4410  139.7050 C   0  0  0  0  0  2  0  0  0  0  0  0
  181.3240  177.5100  141.3850 C   0  0  0  0  0  2  0  0  0  0  0  0
  182.3760  178.5780  141.6660 C   0  0  0  0  0  2  0  0  0  0  0  0
  1 15  1  0  0  0  0
  2 12  1  0  0  0  0
  2 11  1  0  0  0  0
  3 21  1  0  0  0  0
  4 13  2  0  0  0  0
  4 14  1  0  0  0  0
  5 13  1  0  0  0  0
  6  2  2  0  0  0  0
  8 10  1  0  0  0  0
  9  7  2  0  0  0  0
 11  3  1  0  0  0  0
 12 23  1  1  0  0  0
 12  1  1  0  0  0  0
 13  9  1  0  0  0  0
 14 16  1  0  0  0  0
 15 20  1  0  0  0  0
 16  7  1  0  0  0  0
 16 11  2  0  0  0  0
 17  8  1  0  0  0  0
 18 14  2  0  0  0  0
 18  6  1  0  0  0  0
 19 10  1  0  0  0  0
 20 19  1  0  0  0  0
 21 17  1  0  0  0  0
 22 26  1  0  0  0  0
 23 27  1  0  0  0  0
 24 23  1  0  0  0  0
 25 22  1  0  0  0  0
 25 24  1  0  0  0  0
 26 27  1  0  0  0  0
M  END
>  <MODEL>
6

>  <REMARK>
 VINA RESULT:      -6.0      3.558      6.693
  Name = 
  1 active torsions:
  status: ('A' for Active; 'I' for Inactive)
    1  A    between atoms: C_9  and  C_15
                            x       y       z     vdW  Elec       q    Type
                         _______ _______ _______ _____ _____    ______ ____

>  <TORSDO>
F 1

$$$$
=
 OpenBabel11052413423D

 27 30  0  0  1  0  0  0  0  0999 V2000
  181.8310  176.6300  139.8430 C   0  0  0  0  0  2  0  0  0  0  0  0
  183.8480  177.9390  138.8790 C   0  0  0  0  0  0  0  0  0  0  0  0
  183.0770  176.6240  136.9610 N   0  0  0  0  0  2  0  0  0  0  0  0
  187.7710  178.1190  137.4410 C   0  0  0  0  0  3  0  0  0  0  0  0
  189.4310  177.6100  135.7680 O   0  0  0  0  0  1  0  0  0  0  0  0
  184.8680  178.5920  139.5750 C   0  0  0  0  0  3  0  0  0  0  0  0
  185.8400  176.7910  135.9240 C   0  0  0  0  0  3  0  0  0  0  0  0
  182.1900  173.7870  136.9970 C   0  0  0  0  0  2  0  0  0  0  0  0
  187.1560  176.8710  135.4650 C   0  0  0  0  0  3  0  0  0  0  0  0
  180.8620  173.1500  137.3870 C   0  0  0  0  0  2  0  0  0  0  0  0
  184.1400  177.3110  137.6460 C   0  0  0  0  0  0  0  0  0  0  0  0
  182.4740  177.9830  139.4950 C   0  0  1  0  0  3  0  0  0  0  0  0
  188.1230  177.5330  136.2240 C   0  0  0  0  0  0  0  0  0  0  0  0
  186.4540  178.0430  137.9050 C   0  0  0  0  0  0  0  0  0  0  0  0
  180.9770  176.1530  138.7690 N   0  0  0  0  0  2  0  0  0  0  0  0
  185.4660  177.3680  137.1480 C   0  0  0  0  0  0  0  0  0  0  0  0
  182.0260  174.7530  135.8330 C   0  0  0  0  0  2  0  0  0  0  0  0
  186.1310  178.6280  139.0850 N   0  0  0  0  0  0  0  0  0  0  0  0
  179.8660  174.1580  137.9600 C   0  0  0  0  0  2  0  0  0  0  0  0
  180.4230  174.8750  139.1800 C   0  0  0  0  0  2  0  0  0  0  0  0
  183.1910  175.7240  135.8230 C   0  0  0  0  0  2  0  0  0  0  0  0
  180.3140  181.7610  139.0940 C   0  0  0  0  0  2  0  0  0  0  0  0
  181.5680  179.1120  138.9870 C   0  0  0  0  0  3  0  0  0  0  0  0
  182.3720  180.3860  138.7180 C   0  0  0  0  0  2  0  0  0  0  0  0
  181.4690  181.4710  138.1400 C   0  0  0  0  0  2  0  0  0  0  0  0
  179.5010  180.4910  139.3340 C   0  0  0  0  0  2  0  0  0  0  0  0
  180.3910  179.4000  139.9220 C   0  0  0  0  0  2  0  0  0  0  0  0
  2 12  1  0  0  0  0
  2  6  1  0  0  0  0
  3 11  1  0  0  0  0
  4 14  1  0  0  0  0
  5 13  1  0  0  0  0
  7 16  1  0  0  0  0
  8 10  1  0  0  0  0
  9  7  2  0  0  0  0
  9 13  1  0  0  0  0
 10 19  1  0  0  0  0
 11  2  2  0  0  0  0
 12 23  1  6  0  0  0
 12  1  1  0  0  0  0
 13  4  2  0  0  0  0
 14 18  1  0  0  0  0
 15 20  1  0  0  0  0
 15  1  1  0  0  0  0
 16 11  1  0  0  0  0
 16 14  2  0  0  0  0
 17  8  1  0  0  0  0
 18  6  2  0  0  0  0
 19 20  1  0  0  0  0
 21 17  1  0  0  0  0
 21  3  1  0  0  0  0
 22 26  1  0  0  0  0
 23 27  1  0  0  0  0
 24 23  1  0  0  0  0
 25 24  1  0  0  0  0
 25 22  1  0  0  0  0
 26 27  1  0  0  0  0
M  END
>  <MODEL>
7

>  <REMARK>
 VINA RESULT:      -5.7      3.563      6.672
  Name = 
  1 active torsions:
  status: ('A' for Active; 'I' for Inactive)
    1  A    between atoms: C_9  and  C_15
                            x       y       z     vdW  Elec       q    Type
                         _______ _______ _______ _____ _____    ______ ____

>  <TORSDO>
F 1

$$$$
=
 OpenBabel11052413423D

 27 30  0  0  1  0  0  0  0  0999 V2000
  182.0720  179.9520  138.9540 C   0  0  0  0  0  2  0  0  0  0  0  0
  184.1780  178.6840  139.7720 C   0  0  0  0  0  0  0  0  0  0  0  0
  182.5560  178.2690  141.5600 N   0  0  0  0  0  2  0  0  0  0  0  0
  187.4430  178.2490  142.3510 C   0  0  0  0  0  3  0  0  0  0  0  0
  188.3620  177.7970  144.5330 O   0  0  0  0  0  1  0  0  0  0  0  0
  185.4970  178.8270  139.3360 C   0  0  0  0  0  3  0  0  0  0  0  0
  184.8650  177.9160  143.3710 C   0  0  0  0  0  3  0  0  0  0  0  0
  180.6590  180.2370  142.7270 C   0  0  0  0  0  2  0  0  0  0  0  0
  185.9730  177.7710  144.2090 C   0  0  0  0  0  3  0  0  0  0  0  0
  179.3060  180.7450  142.2410 C   0  0  0  0  0  2  0  0  0  0  0  0
  183.9240  178.3860  141.1310 C   0  0  0  0  0  0  0  0  0  0  0  0
  183.1010  178.8320  138.7290 C   0  0  1  0  0  3  0  0  0  0  0  0
  187.2620  177.9390  143.6990 C   0  0  0  0  0  0  0  0  0  0  0  0
  186.3370  178.3950  141.5070 C   0  0  0  0  0  0  0  0  0  0  0  0
  180.8880  179.4590  139.6370 N   0  0  0  0  0  2  0  0  0  0  0  0
  185.0240  178.2340  142.0130 C   0  0  0  0  0  0  0  0  0  0  0  0
  180.6370  178.7350  142.9670 C   0  0  0  0  0  2  0  0  0  0  0  0
  186.5340  178.6850  140.1970 N   0  0  0  0  0  0  0  0  0  0  0  0
  178.9370  180.2170  140.8560 C   0  0  0  0  0  2  0  0  0  0  0  0
  179.9810  180.5800  139.8120 C   0  0  0  0  0  2  0  0  0  0  0  0
  182.0570  178.2030  142.9260 C   0  0  0  0  0  2  0  0  0  0  0  0
  182.9830  174.8920  136.8420 C   0  0  0  0  0  2  0  0  0  0  0  0
  182.6240  177.5190  138.0950 C   0  0  0  0  0  3  0  0  0  0  0  0
  183.1050  176.3110  138.9020 C   0  0  0  0  0  2  0  0  0  0  0  0
  182.5550  175.0200  138.3020 C   0  0  0  0  0  2  0  0  0  0  0  0
  182.4750  176.0870  136.0410 C   0  0  0  0  0  2  0  0  0  0  0  0
  183.0250  177.3840  136.6240 C   0  0  0  0  0  2  0  0  0  0  0  0
  1 15  1  0  0  0  0
  2 11  1  0  0  0  0
  3 21  1  0  0  0  0
  4 13  2  0  0  0  0
  6  2  2  0  0  0  0
  6 18  1  0  0  0  0
  7  9  2  0  0  0  0
  8 17  1  0  0  0  0
 10  8  1  0  0  0  0
 11  3  1  0  0  0  0
 11 16  2  0  0  0  0
 12 23  1  1  0  0  0
 12  1  1  0  0  0  0
 12  2  1  0  0  0  0
 13  9  1  0  0  0  0
 13  5  1  0  0  0  0
 14 16  1  0  0  0  0
 14  4  1  0  0  0  0
 15 20  1  0  0  0  0
 16  7  1  0  0  0  0
 18 14  2  0  0  0  0
 19 10  1  0  0  0  0
 20 19  1  0  0  0  0
 21 17  1  0  0  0  0
 22 25  1  0  0  0  0
 23 24  1  0  0  0  0
 25 24  1  0  0  0  0
 26 27  1  0  0  0  0
 26 22  1  0  0  0  0
 27 23  1  0  0  0  0
M  END
>  <MODEL>
8

>  <REMARK>
 VINA RESULT:      -5.6      1.590      2.120
  Name = 
  1 active torsions:
  status: ('A' for Active; 'I' for Inactive)
    1  A    between atoms: C_9  and  C_15
                            x       y       z     vdW  Elec       q    Type
                         _______ _______ _______ _____ _____    ______ ____

>  <TORSDO>
F 1

$$$$
=
 OpenBabel11052413423D

 27 30  0  0  1  0  0  0  0  0999 V2000
  183.2310  177.4060  135.6170 C   0  0  0  0  0  2  0  0  0  0  0  0
  184.5670  177.4680  137.8360 C   0  0  0  0  0  0  0  0  0  0  0  0
  182.3120  176.8500  138.5670 N   0  0  0  0  0  2  0  0  0  0  0  0
  185.5060  179.2150  141.5180 C   0  0  0  0  0  3  0  0  0  0  0  0
  184.9290  179.7990  143.7840 O   0  0  0  0  0  1  0  0  0  0  0  0
  185.8040  178.0660  138.0830 C   0  0  0  0  0  3  0  0  0  0  0  0
  182.9940  178.0430  141.1840 C   0  0  0  0  0  3  0  0  0  0  0  0
  179.7510  177.9920  137.5820 C   0  0  0  0  0  2  0  0  0  0  0  0
  183.3360  178.6280  142.4050 C   0  0  0  0  0  3  0  0  0  0  0  0
  178.9310  177.7000  136.3310 C   0  0  0  0  0  2  0  0  0  0  0  0
  183.5870  177.4490  138.8560 C   0  0  0  0  0  0  0  0  0  0  0  0
  184.3760  176.8460  136.4770 C   0  0  1  0  0  3  0  0  0  0  0  0
  184.5910  179.2160  142.5720 C   0  0  0  0  0  0  0  0  0  0  0  0
  185.1690  178.6290  140.2940 C   0  0  0  0  0  0  0  0  0  0  0  0
  182.0120  176.6310  135.7820 N   0  0  0  0  0  2  0  0  0  0  0  0
  183.8960  178.0360  140.1090 C   0  0  0  0  0  0  0  0  0  0  0  0
  179.8920  176.7570  138.4580 C   0  0  0  0  0  2  0  0  0  0  0  0
  186.0760  178.6280  139.2860 N   0  0  0  0  0  0  0  0  0  0  0  0
  179.6250  176.7250  135.3810 C   0  0  0  0  0  2  0  0  0  0  0  0
  180.9910  177.2330  134.9430 C   0  0  0  0  0  2  0  0  0  0  0  0
  181.0970  176.9230  139.3650 C   0  0  0  0  0  2  0  0  0  0  0  0
  186.0160  172.8620  137.2070 C   0  0  0  0  0  2  0  0  0  0  0  0
  184.6800  175.3440  136.4000 C   0  0  0  0  0  3  0  0  0  0  0  0
  184.3310  174.6430  137.7140 C   0  0  0  0  0  2  0  0  0  0  0  0
  184.5660  173.1400  137.5910 C   0  0  0  0  0  2  0  0  0  0  0  0
  186.3460  173.5420  135.8810 C   0  0  0  0  0  2  0  0  0  0  0  0
  186.1250  175.0470  135.9930 C   0  0  0  0  0  2  0  0  0  0  0  0
  1 15  1  0  0  0  0
  1 12  1  0  0  0  0
  2  6  2  0  0  0  0
  2 11  1  0  0  0  0
  3 11  1  0  0  0  0
  3 21  1  0  0  0  0
  4 13  2  0  0  0  0
  6 18  1  0  0  0  0
  7  9  2  0  0  0  0
  8 17  1  0  0  0  0
  9 13  1  0  0  0  0
 10  8  1  0  0  0  0
 11 16  2  0  0  0  0
 12 23  1  1  0  0  0
 12  2  1  0  0  0  0
 13  5  1  0  0  0  0
 14  4  1  0  0  0  0
 16 14  1  0  0  0  0
 16  7  1  0  0  0  0
 17 21  1  0  0  0  0
 18 14  2  0  0  0  0
 19 10  1  0  0  0  0
 20 19  1  0  0  0  0
 20 15  1  0  0  0  0
 22 25  1  0  0  0  0
 23 24  1  0  0  0  0
 25 24  1  0  0  0  0
 26 27  1  0  0  0  0
 26 22  1  0  0  0  0
 27 23  1  0  0  0  0
M  END
>  <MODEL>
9

>  <REMARK>
 VINA RESULT:      -5.4      2.441      3.449
  Name = 
  1 active torsions:
  status: ('A' for Active; 'I' for Inactive)
    1  A    between atoms: C_9  and  C_15
                            x       y       z     vdW  Elec       q    Type
                         _______ _______ _______ _____ _____    ______ ____

>  <TORSDO>
F 1

$$$$
