=
 OpenBabel11052416523D

 32 38  0  0  1  0  0  0  0  0999 V2000
  187.8000  178.5730  137.0000 C   0  0  1  0  0  3  0  0  0  0  0  0
  187.3350  178.0170  142.1410 C   0  0  0  0  0  0  0  0  0  0  0  0
  182.7300  179.1240  143.0820 C   0  0  0  0  0  3  0  0  0  0  0  0
  182.9420  178.9400  144.5100 C   0  0  0  0  0  3  0  0  0  0  0  0
  188.9170  177.6020  144.0260 C   0  0  0  0  0  0  0  0  0  0  0  0
  189.1540  177.5110  145.4110 C   0  0  0  0  0  0  0  0  0  0  0  0
  188.2280  177.7810  139.8060 C   0  0  1  0  0  3  0  0  0  0  0  0
  185.7460  178.0060  140.2660 C   0  0  0  0  0  2  0  0  0  0  0  0
  188.7410  177.5220  147.5150 C   0  0  0  0  0  0  0  0  0  0  0  0
  186.6920  177.8990  137.7190 C   0  0  2  0  0  3  0  0  0  0  0  0
  183.7840  178.8370  142.1610 C   0  0  0  0  0  3  0  0  0  0  0  0
  186.0380  178.1700  141.7470 N   0  0  0  0  0  0  0  0  0  0  0  0
  185.0480  178.4500  142.5960 C   0  0  0  0  0  0  0  0  0  0  0  0
  186.5830  178.0140  144.4880 C   0  0  0  0  0  0  0  0  0  0  0  0
  190.0190  177.2720  147.3340 N   0  0  0  0  0  0  0  0  0  0  0  0
  189.0170  179.1380  137.7220 C   0  0  0  0  0  2  0  0  0  0  0  0
  186.8910  178.3440  139.2890 C   0  0  2  0  0  3  0  0  0  0  0  0
  190.2980  177.2510  146.0170 N   0  0  0  0  0  0  0  0  0  0  0  0
  189.4610  178.3270  139.0410 C   0  0  0  0  0  2  0  0  0  0  0  0
  187.7850  177.0500  137.2200 C   0  0  1  0  0  3  0  0  0  0  0  0
  184.2390  178.5830  144.9100 C   0  0  0  0  0  3  0  0  0  0  0  0
  185.2940  178.3250  144.0200 C   0  0  0  0  0  0  0  0  0  0  0  0
  186.8430  177.9630  145.8910 C   0  0  0  0  0  3  0  0  0  0  0  0
  188.4580  178.0490  141.2110 C   0  0  0  0  0  2  0  0  0  0  0  0
  190.1110  177.5080  143.2100 O   0  0  0  0  0  1  0  0  0  0  0  0
  188.0710  177.6440  148.8380 C   0  0  0  0  0  1  0  0  0  0  0  0
  187.6010  177.8790  143.5520 C   0  0  0  0  0  0  0  0  0  0  0  0
  188.1230  177.6730  146.2900 C   0  0  0  0  0  0  0  0  0  0  0  0
  188.0820  176.7320  135.9060 O   0  0  0  0  0  0  0  0  0  0  0  0
  189.0960  175.8800  135.3910 C   0  0  0  0  0  0  0  0  0  0  0  0
  190.4910  176.1560  135.6560 C   0  0  0  0  0  1  0  0  0  0  0  0
  188.7270  174.9370  134.6740 O   0  0  0  0  0  0  0  0  0  0  0  0
  1 20  1  0  0  0  0
  1 10  1  0  0  0  0
  1 16  1  1  0  0  0
  2 27  2  0  0  0  0
  3  4  1  0  0  0  0
  4 21  2  0  0  0  0
  5  6  2  0  0  0  0
  6 18  1  0  0  0  0
  6 28  1  0  0  0  0
  7 19  1  6  0  0  0
  7 24  1  0  0  0  0
  8 12  1  0  0  0  0
  9 26  1  0  0  0  0
 10 17  1  0  0  0  0
 11 13  1  0  0  0  0
 11  3  2  0  0  0  0
 12  2  1  0  0  0  0
 12 13  1  0  0  0  0
 13 22  2  0  0  0  0
 14 23  2  0  0  0  0
 15  9  1  0  0  0  0
 16 19  1  0  0  0  0
 17  7  1  0  0  0  0
 17  8  1  0  0  0  0
 18 15  2  0  0  0  0
 20 10  1  0  0  0  0
 22 14  1  0  0  0  0
 22 21  1  0  0  0  0
 23 28  1  0  0  0  0
 24  2  1  0  0  0  0
 25  5  1  0  0  0  0
 27  5  1  0  0  0  0
 27 14  1  0  0  0  0
 28  9  2  0  0  0  0
 29 20  1  0  0  0  0
 30 31  1  0  0  0  0
 30 29  1  0  0  0  0
 32 30  2  0  0  0  0
M  END
>  <MODEL>
1

>  <REMARK>
 VINA RESULT:     -10.5      0.000      0.000
  Name = 
  2 active torsions:
  status: ('A' for Active; 'I' for Inactive)
    1  A    between atoms: C_1  and  O_10
    2  A    between atoms: O_10  and  C_24
                            x       y       z     vdW  Elec       q    Type
                         _______ _______ _______ _____ _____    ______ ____

>  <TORSDO>
F 2

$$$$
=
 OpenBabel11052416523D

 32 38  0  0  1  0  0  0  0  0999 V2000
  187.4990  178.6280  136.7680 C   0  0  1  0  0  3  0  0  0  0  0  0
  187.9340  177.9660  141.9000 C   0  0  0  0  0  0  0  0  0  0  0  0
  183.6160  179.2140  143.6650 C   0  0  0  0  0  3  0  0  0  0  0  0
  184.0720  178.9890  145.0290 C   0  0  0  0  0  3  0  0  0  0  0  0
  189.8080  177.4500  143.4640 C   0  0  0  0  0  0  0  0  0  0  0  0
  190.2830  177.3180  144.7840 C   0  0  0  0  0  0  0  0  0  0  0  0
  188.3880  177.7540  139.4390 C   0  0  1  0  0  3  0  0  0  0  0  0
  186.0370  178.0570  140.3380 C   0  0  0  0  0  2  0  0  0  0  0  0
  190.2510  177.2930  146.9270 C   0  0  0  0  0  0  0  0  0  0  0  0
  186.5110  177.9770  137.6610 C   0  0  2  0  0  3  0  0  0  0  0  0
  184.4780  178.9120  142.5660 C   0  0  0  0  0  3  0  0  0  0  0  0
  186.5940  178.1740  141.7460 N   0  0  0  0  0  0  0  0  0  0  0  0
  185.7830  178.4690  142.7620 C   0  0  0  0  0  0  0  0  0  0  0  0
  187.6110  177.9340  144.3420 C   0  0  0  0  0  0  0  0  0  0  0  0
  191.4660  177.0020  146.5170 N   0  0  0  0  0  0  0  0  0  0  0  0
  188.8470  179.1310  137.2710 C   0  0  0  0  0  2  0  0  0  0  0  0
  187.0030  178.3770  139.1780 C   0  0  2  0  0  3  0  0  0  0  0  0
  191.5060  177.0030  145.1710 N   0  0  0  0  0  0  0  0  0  0  0  0
  189.4850  178.2730  138.4750 C   0  0  0  0  0  2  0  0  0  0  0  0
  187.4640  177.1010  136.9610 C   0  0  1  0  0  3  0  0  0  0  0  0
  185.4040  178.5770  145.1850 C   0  0  0  0  0  3  0  0  0  0  0  0
  186.2730  178.3030  144.1170 C   0  0  0  0  0  0  0  0  0  0  0  0
  188.1140  177.8400  145.6750 C   0  0  0  0  0  3  0  0  0  0  0  0
  188.8740  177.9800  140.7840 C   0  0  0  0  0  2  0  0  0  0  0  0
  190.8330  177.3330  142.4470 O   0  0  0  0  0  1  0  0  0  0  0  0
  189.8320  177.4080  148.3500 C   0  0  0  0  0  1  0  0  0  0  0  0
  188.4400  177.7850  143.2370 C   0  0  0  0  0  0  0  0  0  0  0  0
  189.4320  177.4960  145.8350 C   0  0  0  0  0  0  0  0  0  0  0  0
  187.5100  176.8040  135.6100 O   0  0  0  0  0  0  0  0  0  0  0  0
  187.0420  175.6510  134.9230 C   0  0  0  0  0  0  0  0  0  0  0  0
  185.6280  175.4650  134.6820 C   0  0  0  0  0  1  0  0  0  0  0  0
  187.8920  174.8090  134.5940 O   0  0  0  0  0  0  0  0  0  0  0  0
  1 20  1  0  0  0  0
  1 16  1  1  0  0  0
  1 10  1  0  0  0  0
  2 27  2  0  0  0  0
  3  4  1  0  0  0  0
  4 21  2  0  0  0  0
  5  6  2  0  0  0  0
  6 18  1  0  0  0  0
  6 28  1  0  0  0  0
  7 19  1  6  0  0  0
  7 24  1  0  0  0  0
  8 12  1  0  0  0  0
  9 26  1  0  0  0  0
 10 17  1  0  0  0  0
 11 13  1  0  0  0  0
 11  3  2  0  0  0  0
 12  2  1  0  0  0  0
 12 13  1  0  0  0  0
 13 22  2  0  0  0  0
 14 23  2  0  0  0  0
 15  9  1  0  0  0  0
 16 19  1  0  0  0  0
 17  7  1  0  0  0  0
 17  8  1  0  0  0  0
 18 15  2  0  0  0  0
 20 10  1  0  0  0  0
 22 14  1  0  0  0  0
 22 21  1  0  0  0  0
 23 28  1  0  0  0  0
 24  2  1  0  0  0  0
 25  5  1  0  0  0  0
 27  5  1  0  0  0  0
 27 14  1  0  0  0  0
 28  9  2  0  0  0  0
 29 20  1  0  0  0  0
 30 29  1  0  0  0  0
 31 30  1  0  0  0  0
 32 30  2  0  0  0  0
M  END
>  <MODEL>
2

>  <REMARK>
 VINA RESULT:     -10.1      1.111      1.369
  Name = 
  2 active torsions:
  status: ('A' for Active; 'I' for Inactive)
    1  A    between atoms: C_1  and  O_10
    2  A    between atoms: O_10  and  C_24
                            x       y       z     vdW  Elec       q    Type
                         _______ _______ _______ _____ _____    ______ ____

>  <TORSDO>
F 2

$$$$
=
 OpenBabel11052416523D

 32 38  0  0  1  0  0  0  0  0999 V2000
  180.8240  180.1270  139.5690 C   0  0  1  0  0  3  0  0  0  0  0  0
  185.3320  178.5950  141.6390 C   0  0  0  0  0  0  0  0  0  0  0  0
  184.5640  178.6260  146.4060 C   0  0  0  0  0  3  0  0  0  0  0  0
  185.9420  178.2370  146.6650 C   0  0  0  0  0  3  0  0  0  0  0  0
  187.6260  178.1610  140.7580 C   0  0  0  0  0  0  0  0  0  0  0  0
  188.9830  177.8730  141.0030 C   0  0  0  0  0  0  0  0  0  0  0  0
  183.4950  178.9480  139.9630 C   0  0  1  0  0  3  0  0  0  0  0  0
  183.0030  178.6150  142.4270 C   0  0  0  0  0  2  0  0  0  0  0  0
  190.7660  177.4350  142.1090 C   0  0  0  0  0  0  0  0  0  0  0  0
  181.0040  179.1400  140.6600 C   0  0  2  0  0  3  0  0  0  0  0  0
  184.0860  178.7110  145.0620 C   0  0  0  0  0  3  0  0  0  0  0  0
  184.4930  178.5660  142.7150 N   0  0  0  0  0  0  0  0  0  0  0  0
  184.9280  178.5000  143.9730 C   0  0  0  0  0  0  0  0  0  0  0  0
  187.2090  178.0360  143.1340 C   0  0  0  0  0  0  0  0  0  0  0  0
  191.0580  177.4670  140.8280 N   0  0  0  0  0  0  0  0  0  0  0  0
  182.0020  180.7760  138.8520 C   0  0  0  0  0  2  0  0  0  0  0  0
  182.5670  179.3300  141.1310 C   0  0  2  0  0  3  0  0  0  0  0  0
  189.9490  177.7320  140.1130 N   0  0  0  0  0  0  0  0  0  0  0  0
  183.3070  179.8430  138.7110 C   0  0  0  0  0  2  0  0  0  0  0  0
  180.8770  178.6150  139.2910 C   0  0  1  0  0  3  0  0  0  0  0  0
  186.7660  178.0670  145.5420 C   0  0  0  0  0  3  0  0  0  0  0  0
  186.3200  178.1750  144.2150 C   0  0  0  0  0  0  0  0  0  0  0  0
  188.5950  177.7880  143.3720 C   0  0  0  0  0  3  0  0  0  0  0  0
  184.9020  179.0030  140.3060 C   0  0  0  0  0  2  0  0  0  0  0  0
  187.3170  178.4400  139.3710 O   0  0  0  0  0  1  0  0  0  0  0  0
  191.7430  177.1930  143.2050 C   0  0  0  0  0  1  0  0  0  0  0  0
  186.7180  178.2630  141.8540 C   0  0  0  0  0  0  0  0  0  0  0  0
  189.4180  177.6800  142.2810 C   0  0  0  0  0  0  0  0  0  0  0  0
  179.7490  178.5950  138.4890 O   0  0  0  0  0  0  0  0  0  0  0  0
  179.5850  178.0850  137.1730 C   0  0  0  0  0  0  0  0  0  0  0  0
  180.1180  178.8040  136.0360 C   0  0  0  0  0  1  0  0  0  0  0  0
  178.9310  177.0380  137.0540 O   0  0  0  0  0  0  0  0  0  0  0  0
  1 16  1  6  0  0  0
  1 10  1  0  0  0  0
  2 27  2  0  0  0  0
  2 12  1  0  0  0  0
  3  4  1  0  0  0  0
  5  6  2  0  0  0  0
  5 27  1  0  0  0  0
  6 28  1  0  0  0  0
  7 19  1  6  0  0  0
  7 24  1  0  0  0  0
  7 17  1  0  0  0  0
  8 12  1  0  0  0  0
  9 28  2  0  0  0  0
  9 26  1  0  0  0  0
 10 17  1  0  0  0  0
 11  3  2  0  0  0  0
 12 13  1  0  0  0  0
 13 22  2  0  0  0  0
 13 11  1  0  0  0  0
 14 23  2  0  0  0  0
 14 22  1  0  0  0  0
 15  9  1  0  0  0  0
 17  8  1  0  0  0  0
 18 15  2  0  0  0  0
 18  6  1  0  0  0  0
 19 16  1  0  0  0  0
 20  1  1  0  0  0  0
 20 10  1  0  0  0  0
 21  4  2  0  0  0  0
 22 21  1  0  0  0  0
 24  2  1  0  0  0  0
 25  5  1  0  0  0  0
 27 14  1  0  0  0  0
 28 23  1  0  0  0  0
 29 20  1  0  0  0  0
 30 29  1  0  0  0  0
 31 30  1  0  0  0  0
 32 30  2  0  0  0  0
M  END
>  <MODEL>
3

>  <REMARK>
 VINA RESULT:      -9.4      3.650      5.653
  Name = 
  2 active torsions:
  status: ('A' for Active; 'I' for Inactive)
    1  A    between atoms: C_1  and  O_10
    2  A    between atoms: O_10  and  C_24
                            x       y       z     vdW  Elec       q    Type
                         _______ _______ _______ _____ _____    ______ ____

>  <TORSDO>
F 2

$$$$
=
 OpenBabel11052416523D

 32 38  0  0  1  0  0  0  0  0999 V2000
  191.7480  177.8690  144.2700 C   0  0  1  0  0  3  0  0  0  0  0  0
  187.4510  178.1160  141.3660 C   0  0  0  0  0  0  0  0  0  0  0  0
  189.0560  178.2470  136.8130 C   0  0  0  0  0  3  0  0  0  0  0  0
  187.6980  178.3690  136.3020 C   0  0  0  0  0  3  0  0  0  0  0  0
  185.0180  178.4200  141.8290 C   0  0  0  0  0  0  0  0  0  0  0  0
  183.7100  178.6280  141.3490 C   0  0  0  0  0  0  0  0  0  0  0  0
  188.9600  177.6970  143.3290 C   0  0  1  0  0  3  0  0  0  0  0  0
  189.7660  177.4060  140.9430 C   0  0  0  0  0  2  0  0  0  0  0  0
  182.1180  178.9040  139.9410 C   0  0  0  0  0  0  0  0  0  0  0  0
  191.4660  177.0870  143.0430 C   0  0  2  0  0  3  0  0  0  0  0  0
  189.2790  178.0630  138.2120 C   0  0  0  0  0  3  0  0  0  0  0  0
  188.4200  177.8870  140.4330 N   0  0  0  0  0  0  0  0  0  0  0  0
  188.2280  178.0670  139.1260 C   0  0  0  0  0  0  0  0  0  0  0  0
  185.8040  178.3410  139.5470 C   0  0  0  0  0  0  0  0  0  0  0  0
  181.6200  178.9360  141.1570 N   0  0  0  0  0  0  0  0  0  0  0  0
  190.7290  178.8220  144.8830 C   0  0  0  0  0  2  0  0  0  0  0  0
  190.1610  177.8310  142.3730 C   0  0  2  0  0  3  0  0  0  0  0  0
  182.6040  178.7550  142.0580 N   0  0  0  0  0  0  0  0  0  0  0  0
  189.1910  178.3790  144.7020 C   0  0  0  0  0  2  0  0  0  0  0  0
  191.1620  176.4470  144.3320 C   0  0  1  0  0  3  0  0  0  0  0  0
  186.6700  178.4040  137.2580 C   0  0  0  0  0  3  0  0  0  0  0  0
  186.8740  178.2530  138.6390 C   0  0  0  0  0  0  0  0  0  0  0  0
  184.4810  178.5960  139.0740 C   0  0  0  0  0  3  0  0  0  0  0  0
  187.7350  178.2520  142.7900 C   0  0  0  0  0  2  0  0  0  0  0  0
  185.1390  178.4710  143.2710 O   0  0  0  0  0  1  0  0  0  0  0  0
  181.3350  179.0920  138.6900 C   0  0  0  0  0  1  0  0  0  0  0  0
  186.0960  178.2900  140.9040 C   0  0  0  0  0  0  0  0  0  0  0  0
  183.4800  178.6910  140.0060 C   0  0  0  0  0  0  0  0  0  0  0  0
  192.0560  175.9860  145.2830 O   0  0  0  0  0  0  0  0  0  0  0  0
  191.8860  175.8420  146.6870 C   0  0  0  0  0  0  0  0  0  0  0  0
  190.7130  176.3780  147.3430 C   0  0  0  0  0  1  0  0  0  0  0  0
  192.8050  175.2880  147.3100 O   0  0  0  0  0  0  0  0  0  0  0  0
  1 20  1  0  0  0  0
  1 16  1  6  0  0  0
  2 24  1  0  0  0  0
  3 11  1  0  0  0  0
  4  3  2  0  0  0  0
  4 21  1  0  0  0  0
  5 25  1  0  0  0  0
  6  5  2  0  0  0  0
  6 18  1  0  0  0  0
  7 24  1  6  0  0  0
  7 19  1  0  0  0  0
  8 17  1  0  0  0  0
  9 28  2  0  0  0  0
  9 15  1  0  0  0  0
 10  1  1  0  0  0  0
 10 20  1  0  0  0  0
 11 13  2  0  0  0  0
 12  8  1  0  0  0  0
 12  2  1  0  0  0  0
 13 12  1  0  0  0  0
 14 27  1  0  0  0  0
 15 18  2  0  0  0  0
 17 10  1  0  0  0  0
 17  7  1  0  0  0  0
 19 16  1  0  0  0  0
 20 29  1  0  0  0  0
 21 22  2  0  0  0  0
 22 13  1  0  0  0  0
 22 14  1  0  0  0  0
 23 14  2  0  0  0  0
 23 28  1  0  0  0  0
 26  9  1  0  0  0  0
 27  2  2  0  0  0  0
 27  5  1  0  0  0  0
 28  6  1  0  0  0  0
 29 30  1  0  0  0  0
 30 32  2  0  0  0  0
 30 31  1  0  0  0  0
M  END
>  <MODEL>
4

>  <REMARK>
 VINA RESULT:      -8.8      3.347      7.713
  Name = 
  2 active torsions:
  status: ('A' for Active; 'I' for Inactive)
    1  A    between atoms: C_1  and  O_10
    2  A    between atoms: O_10  and  C_24
                            x       y       z     vdW  Elec       q    Type
                         _______ _______ _______ _____ _____    ______ ____

>  <TORSDO>
F 2

$$$$
=
 OpenBabel11052416523D

 32 38  0  0  1  0  0  0  0  0999 V2000
  191.3180  176.7170  137.2180 C   0  0  1  0  0  3  0  0  0  0  0  0
  189.4410  177.2000  142.0350 C   0  0  0  0  0  0  0  0  0  0  0  0
  185.0610  179.1470  141.4530 C   0  0  0  0  0  3  0  0  0  0  0  0
  184.8560  179.2010  142.8930 C   0  0  0  0  0  3  0  0  0  0  0  0
  190.3690  176.9080  144.3330 C   0  0  0  0  0  0  0  0  0  0  0  0
  190.2170  177.0410  145.7260 C   0  0  0  0  0  0  0  0  0  0  0  0
  190.8420  176.4030  140.1090 C   0  0  1  0  0  3  0  0  0  0  0  0
  188.4200  177.0830  139.8020 C   0  0  0  0  0  2  0  0  0  0  0  0
  189.2850  177.5040  147.6000 C   0  0  0  0  0  0  0  0  0  0  0  0
  189.9520  176.3640  137.6730 C   0  0  2  0  0  3  0  0  0  0  0  0
  186.2390  178.5380  140.9210 C   0  0  0  0  0  3  0  0  0  0  0  0
  188.3460  177.4720  141.2670 N   0  0  0  0  0  0  0  0  0  0  0  0
  187.2460  178.0510  141.7490 C   0  0  0  0  0  0  0  0  0  0  0  0
  188.1230  177.7470  144.0440 C   0  0  0  0  0  0  0  0  0  0  0  0
  190.4920  177.0340  147.8300 N   0  0  0  0  0  0  0  0  0  0  0  0
  192.3940  177.2150  138.1750 C   0  0  0  0  0  2  0  0  0  0  0  0
  189.8220  177.0570  139.1580 C   0  0  2  0  0  3  0  0  0  0  0  0
  191.0920  176.7270  146.6650 N   0  0  0  0  0  0  0  0  0  0  0  0
  192.3130  176.6040  139.6630 C   0  0  0  0  0  2  0  0  0  0  0  0
  190.9470  175.2810  137.6300 C   0  0  1  0  0  3  0  0  0  0  0  0
  185.9090  178.7330  143.6930 C   0  0  0  0  0  3  0  0  0  0  0  0
  187.0860  178.1580  143.1870 C   0  0  0  0  0  0  0  0  0  0  0  0
  187.9970  177.9180  145.4550 C   0  0  0  0  0  3  0  0  0  0  0  0
  190.7500  176.8890  141.4710 C   0  0  0  0  0  2  0  0  0  0  0  0
  191.6900  176.4850  143.9150 O   0  0  0  0  0  1  0  0  0  0  0  0
  188.3340  177.9700  148.6450 C   0  0  0  0  0  1  0  0  0  0  0  0
  189.3010  177.2880  143.4670 C   0  0  0  0  0  0  0  0  0  0  0  0
  189.0470  177.5170  146.2410 C   0  0  0  0  0  0  0  0  0  0  0  0
  191.5050  174.6840  136.5130 O   0  0  0  0  0  0  0  0  0  0  0  0
  191.2780  173.3880  135.9740 C   0  0  0  0  0  0  0  0  0  0  0  0
  192.3870  172.4960  135.7170 C   0  0  0  0  0  1  0  0  0  0  0  0
  190.1050  173.0930  135.6950 O   0  0  0  0  0  0  0  0  0  0  0  0
  1 20  1  0  0  0  0
  1 10  1  0  0  0  0
  1 16  1  1  0  0  0
  2 27  2  0  0  0  0
  3  4  1  0  0  0  0
  4 21  2  0  0  0  0
  5  6  2  0  0  0  0
  6 28  1  0  0  0  0
  6 18  1  0  0  0  0
  7 19  1  6  0  0  0
  7 24  1  0  0  0  0
  8 12  1  0  0  0  0
  9 15  1  0  0  0  0
  9 26  1  0  0  0  0
 10 17  1  0  0  0  0
 11  3  2  0  0  0  0
 11 13  1  0  0  0  0
 12 13  1  0  0  0  0
 12  2  1  0  0  0  0
 13 22  2  0  0  0  0
 14 23  2  0  0  0  0
 16 19  1  0  0  0  0
 17  8  1  0  0  0  0
 17  7  1  0  0  0  0
 18 15  2  0  0  0  0
 20 10  1  0  0  0  0
 22 21  1  0  0  0  0
 22 14  1  0  0  0  0
 23 28  1  0  0  0  0
 24  2  1  0  0  0  0
 25  5  1  0  0  0  0
 27 14  1  0  0  0  0
 27  5  1  0  0  0  0
 28  9  2  0  0  0  0
 29 20  1  0  0  0  0
 30 29  1  0  0  0  0
 31 30  1  0  0  0  0
 32 30  2  0  0  0  0
M  END
>  <MODEL>
5

>  <REMARK>
 VINA RESULT:      -8.7      1.933      2.621
  Name = 
  2 active torsions:
  status: ('A' for Active; 'I' for Inactive)
    1  A    between atoms: C_1  and  O_10
    2  A    between atoms: O_10  and  C_24
                            x       y       z     vdW  Elec       q    Type
                         _______ _______ _______ _____ _____    ______ ____

>  <TORSDO>
F 2

$$$$
=
 OpenBabel11052416523D

 32 38  0  0  1  0  0  0  0  0999 V2000
  193.2750  175.2310  136.6400 C   0  0  1  0  0  3  0  0  0  0  0  0
  189.7830  177.2440  139.9140 C   0  0  0  0  0  0  0  0  0  0  0  0
  191.6810  176.5600  144.3010 C   0  0  0  0  0  3  0  0  0  0  0  0
  190.5060  177.1390  144.9360 C   0  0  0  0  0  3  0  0  0  0  0  0
  187.4650  178.1420  139.6950 C   0  0  0  0  0  0  0  0  0  0  0  0
  186.2890  178.6200  140.3040 C   0  0  0  0  0  0  0  0  0  0  0  0
  191.0510  176.7820  137.7960 C   0  0  1  0  0  3  0  0  0  0  0  0
  192.1880  176.7550  140.0610 C   0  0  0  0  0  2  0  0  0  0  0  0
  184.9480  179.2200  141.8650 C   0  0  0  0  0  0  0  0  0  0  0  0
  193.5560  176.1080  137.8020 C   0  0  2  0  0  3  0  0  0  0  0  0
  191.7880  176.5460  142.8760 C   0  0  0  0  0  3  0  0  0  0  0  0
  190.8510  177.0150  140.7320 N   0  0  0  0  0  0  0  0  0  0  0  0
  190.7600  177.0120  142.0620 C   0  0  0  0  0  0  0  0  0  0  0  0
  188.4700  177.9340  141.8810 C   0  0  0  0  0  0  0  0  0  0  0  0
  184.3480  179.3780  140.7050 N   0  0  0  0  0  0  0  0  0  0  0  0
  191.8570  174.8670  136.2170 C   0  0  0  0  0  2  0  0  0  0  0  0
  192.1500  176.1250  138.6530 C   0  0  2  0  0  3  0  0  0  0  0  0
  185.1780  179.0150  139.7090 N   0  0  0  0  0  0  0  0  0  0  0  0
  190.7550  176.0110  136.4840 C   0  0  0  0  0  2  0  0  0  0  0  0
  193.4380  176.7530  136.4850 C   0  0  1  0  0  3  0  0  0  0  0  0
  189.4770  177.5640  144.0820 C   0  0  0  0  0  3  0  0  0  0  0  0
  189.5550  177.5320  142.6800 C   0  0  0  0  0  0  0  0  0  0  0  0
  187.2570  178.3780  142.4890 C   0  0  0  0  0  3  0  0  0  0  0  0
  189.7880  176.9200  138.4910 C   0  0  0  0  0  2  0  0  0  0  0  0
  187.3660  177.9710  138.2600 O   0  0  0  0  0  1  0  0  0  0  0  0
  184.3330  179.4960  143.1910 C   0  0  0  0  0  1  0  0  0  0  0  0
  188.5790  177.7730  140.5050 C   0  0  0  0  0  0  0  0  0  0  0  0
  186.2250  178.7390  141.6610 C   0  0  0  0  0  0  0  0  0  0  0  0
  194.3170  176.6750  135.4190 O   0  0  0  0  0  0  0  0  0  0  0  0
  195.5640  177.3310  135.2270 C   0  0  0  0  0  0  0  0  0  0  0  0
  196.7630  176.5650  134.9670 C   0  0  0  0  0  1  0  0  0  0  0  0
  195.5730  178.5660  135.3440 O   0  0  0  0  0  0  0  0  0  0  0  0
  1 16  1  1  0  0  0
  1 10  1  0  0  0  0
  2 27  2  0  0  0  0
  2 12  1  0  0  0  0
  3  4  1  0  0  0  0
  5  6  2  0  0  0  0
  5 27  1  0  0  0  0
  6 28  1  0  0  0  0
  7 19  1  6  0  0  0
  7 24  1  0  0  0  0
  7 17  1  0  0  0  0
  8 12  1  0  0  0  0
  9 26  1  0  0  0  0
 10 17  1  0  0  0  0
 11  3  2  0  0  0  0
 12 13  1  0  0  0  0
 13 22  2  0  0  0  0
 13 11  1  0  0  0  0
 14 23  2  0  0  0  0
 14 22  1  0  0  0  0
 15  9  1  0  0  0  0
 16 19  1  0  0  0  0
 17  8  1  0  0  0  0
 18  6  1  0  0  0  0
 18 15  2  0  0  0  0
 20  1  1  0  0  0  0
 20 10  1  0  0  0  0
 21  4  2  0  0  0  0
 22 21  1  0  0  0  0
 24  2  1  0  0  0  0
 25  5  1  0  0  0  0
 27 14  1  0  0  0  0
 28  9  2  0  0  0  0
 28 23  1  0  0  0  0
 29 20  1  0  0  0  0
 30 32  2  0  0  0  0
 30 29  1  0  0  0  0
 31 30  1  0  0  0  0
M  END
>  <MODEL>
6

>  <REMARK>
 VINA RESULT:      -8.7      3.136      6.087
  Name = 
  2 active torsions:
  status: ('A' for Active; 'I' for Inactive)
    1  A    between atoms: C_1  and  O_10
    2  A    between atoms: O_10  and  C_24
                            x       y       z     vdW  Elec       q    Type
                         _______ _______ _______ _____ _____    ______ ____

>  <TORSDO>
F 2

$$$$
=
 OpenBabel11052416523D

 32 38  0  0  1  0  0  0  0  0999 V2000
  186.2500  178.8080  136.9980 C   0  0  1  0  0  3  0  0  0  0  0  0
  187.7310  177.6950  141.8480 C   0  0  0  0  0  0  0  0  0  0  0  0
  184.1020  179.2530  144.6260 C   0  0  0  0  0  3  0  0  0  0  0  0
  184.8180  178.8720  145.8340 C   0  0  0  0  0  3  0  0  0  0  0  0
  189.8290  176.8570  142.9090 C   0  0  0  0  0  0  0  0  0  0  0  0
  190.5660  176.5690  144.0740 C   0  0  0  0  0  0  0  0  0  0  0  0
  187.5960  177.6330  139.3420 C   0  0  1  0  0  3  0  0  0  0  0  0
  185.5610  178.1130  140.7730 C   0  0  0  0  0  2  0  0  0  0  0  0
  191.0090  176.3770  146.1630 C   0  0  0  0  0  0  0  0  0  0  0  0
  185.4130  178.1980  138.0590 C   0  0  2  0  0  3  0  0  0  0  0  0
  184.6530  178.9500  143.3430 C   0  0  0  0  0  3  0  0  0  0  0  0
  186.4270  178.0570  142.0190 N   0  0  0  0  0  0  0  0  0  0  0  0
  185.9050  178.3550  143.2090 C   0  0  0  0  0  0  0  0  0  0  0  0
  187.9590  177.5020  144.2940 C   0  0  0  0  0  0  0  0  0  0  0  0
  192.0570  175.9910  145.4690 N   0  0  0  0  0  0  0  0  0  0  0  0
  187.7270  179.1220  137.2030 C   0  0  0  0  0  2  0  0  0  0  0  0
  186.2760  178.4200  139.4400 C   0  0  2  0  0  3  0  0  0  0  0  0
  191.7960  176.0950  144.1520 N   0  0  0  0  0  0  0  0  0  0  0  0
  188.5070  178.1070  138.1800 C   0  0  0  0  0  2  0  0  0  0  0  0
  186.0720  177.2840  137.1120 C   0  0  1  0  0  3  0  0  0  0  0  0
  186.0910  178.3080  145.6560 C   0  0  0  0  0  3  0  0  0  0  0  0
  186.6600  178.0290  144.4030 C   0  0  0  0  0  0  0  0  0  0  0  0
  188.7310  177.2480  145.4680 C   0  0  0  0  0  3  0  0  0  0  0  0
  188.3940  177.6970  140.5490 C   0  0  0  0  0  2  0  0  0  0  0  0
  190.5800  176.7130  141.6780 O   0  0  0  0  0  1  0  0  0  0  0  0
  190.9350  176.4220  147.6480 C   0  0  0  0  0  1  0  0  0  0  0  0
  188.4970  177.3540  143.0220 C   0  0  0  0  0  0  0  0  0  0  0  0
  189.9990  176.7530  145.3010 C   0  0  0  0  0  0  0  0  0  0  0  0
  185.7790  177.0930  135.7730 O   0  0  0  0  0  0  0  0  0  0  0  0
  184.7530  176.3110  135.1760 C   0  0  0  0  0  0  0  0  0  0  0  0
  183.5300  176.9320  134.7180 C   0  0  0  0  0  1  0  0  0  0  0  0
  184.9420  175.0860  135.1170 O   0  0  0  0  0  0  0  0  0  0  0  0
  1 20  1  0  0  0  0
  1 16  1  1  0  0  0
  1 10  1  0  0  0  0
  2 12  1  0  0  0  0
  2 27  2  0  0  0  0
  3  4  1  0  0  0  0
  5 27  1  0  0  0  0
  5  6  2  0  0  0  0
  6 18  1  0  0  0  0
  6 28  1  0  0  0  0
  7 19  1  6  0  0  0
  7 17  1  0  0  0  0
  7 24  1  0  0  0  0
  8 12  1  0  0  0  0
  9 26  1  0  0  0  0
 10 17  1  0  0  0  0
 11  3  2  0  0  0  0
 12 13  1  0  0  0  0
 13 11  1  0  0  0  0
 13 22  2  0  0  0  0
 14 22  1  0  0  0  0
 14 23  2  0  0  0  0
 15  9  1  0  0  0  0
 16 19  1  0  0  0  0
 17  8  1  0  0  0  0
 18 15  2  0  0  0  0
 20 10  1  0  0  0  0
 21  4  2  0  0  0  0
 22 21  1  0  0  0  0
 24  2  1  0  0  0  0
 25  5  1  0  0  0  0
 27 14  1  0  0  0  0
 28 23  1  0  0  0  0
 28  9  2  0  0  0  0
 29 20  1  0  0  0  0
 30 29  1  0  0  0  0
 31 30  1  0  0  0  0
 32 30  2  0  0  0  0
M  END
>  <MODEL>
7

>  <REMARK>
 VINA RESULT:      -8.6      1.801      2.377
  Name = 
  2 active torsions:
  status: ('A' for Active; 'I' for Inactive)
    1  A    between atoms: C_1  and  O_10
    2  A    between atoms: O_10  and  C_24
                            x       y       z     vdW  Elec       q    Type
                         _______ _______ _______ _____ _____    ______ ____

>  <TORSDO>
F 2

$$$$
=
 OpenBabel11052416523D

 32 38  0  0  1  0  0  0  0  0999 V2000
  183.4060  179.5650  144.8140 C   0  0  1  0  0  3  0  0  0  0  0  0
  187.7250  177.7890  142.5440 C   0  0  0  0  0  0  0  0  0  0  0  0
  190.6860  176.7270  146.2070 C   0  0  0  0  0  3  0  0  0  0  0  0
  191.7450  176.3450  145.2840 C   0  0  0  0  0  3  0  0  0  0  0  0
  188.5620  177.6540  140.1970 C   0  0  0  0  0  0  0  0  0  0  0  0
  189.6100  177.3730  139.2990 C   0  0  0  0  0  0  0  0  0  0  0  0
  185.3210  178.4340  142.8810 C   0  0  1  0  0  3  0  0  0  0  0  0
  186.7390  177.5410  144.7820 C   0  0  0  0  0  2  0  0  0  0  0  0
  191.5510  176.7700  138.6180 C   0  0  0  0  0  0  0  0  0  0  0  0
  184.1840  178.3670  145.2110 C   0  0  2  0  0  3  0  0  0  0  0  0
  189.3990  177.0910  145.7050 C   0  0  0  0  0  3  0  0  0  0  0  0
  187.9420  177.4880  143.8570 N   0  0  0  0  0  0  0  0  0  0  0  0
  189.1410  177.1610  144.3390 C   0  0  0  0  0  0  0  0  0  0  0  0
  189.9950  176.9860  142.0220 C   0  0  0  0  0  0  0  0  0  0  0  0
  190.8190  177.0980  137.5770 N   0  0  0  0  0  0  0  0  0  0  0  0
  183.7650  180.4030  143.5930 C   0  0  0  0  0  2  0  0  0  0  0  0
  185.6030  178.5090  144.3930 C   0  0  2  0  0  3  0  0  0  0  0  0
  189.5900  177.4720  137.9820 N   0  0  0  0  0  0  0  0  0  0  0  0
  184.4080  179.5780  142.3690 C   0  0  0  0  0  2  0  0  0  0  0  0
  183.0290  178.1550  144.3250 C   0  0  1  0  0  3  0  0  0  0  0  0
  191.4570  176.4630  143.9160 C   0  0  0  0  0  3  0  0  0  0  0  0
  190.2060  176.8460  143.4060 C   0  0  0  0  0  0  0  0  0  0  0  0
  191.0640  176.7460  141.1070 C   0  0  0  0  0  3  0  0  0  0  0  0
  186.5220  178.4670  142.0710 C   0  0  0  0  0  2  0  0  0  0  0  0
  187.3830  178.2230  139.5770 O   0  0  0  0  0  1  0  0  0  0  0  0
  192.9710  176.3290  138.5610 C   0  0  0  0  0  1  0  0  0  0  0  0
  188.7650  177.4730  141.5970 C   0  0  0  0  0  0  0  0  0  0  0  0
  190.8070  176.9170  139.7710 C   0  0  0  0  0  0  0  0  0  0  0  0
  181.6860  178.2700  144.6370 O   0  0  0  0  0  0  0  0  0  0  0  0
  180.5590  178.3300  143.7720 C   0  0  0  0  0  0  0  0  0  0  0  0
  180.7290  178.6220  142.3660 C   0  0  0  0  0  1  0  0  0  0  0  0
  179.4430  178.1720  144.2910 O   0  0  0  0  0  0  0  0  0  0  0  0
  1 16  1  6  0  0  0
  1 10  1  0  0  0  0
  2 12  1  0  0  0  0
  4  3  2  0  0  0  0
  5 27  1  0  0  0  0
  6 28  1  0  0  0  0
  6  5  2  0  0  0  0
  7 24  1  6  0  0  0
  7 17  1  0  0  0  0
  9 28  2  0  0  0  0
 11  3  1  0  0  0  0
 12 13  1  0  0  0  0
 12  8  1  0  0  0  0
 13 11  2  0  0  0  0
 14 22  1  0  0  0  0
 15 18  2  0  0  0  0
 15  9  1  0  0  0  0
 17  8  1  0  0  0  0
 17 10  1  0  0  0  0
 18  6  1  0  0  0  0
 19  7  1  0  0  0  0
 19 16  1  0  0  0  0
 20 29  1  0  0  0  0
 20  1  1  0  0  0  0
 20 10  1  0  0  0  0
 21  4  1  0  0  0  0
 22 21  2  0  0  0  0
 22 13  1  0  0  0  0
 23 14  2  0  0  0  0
 24  2  1  0  0  0  0
 25  5  1  0  0  0  0
 26  9  1  0  0  0  0
 27 14  1  0  0  0  0
 27  2  2  0  0  0  0
 28 23  1  0  0  0  0
 30 32  2  0  0  0  0
 30 29  1  0  0  0  0
 31 30  1  0  0  0  0
M  END
>  <MODEL>
8

>  <REMARK>
 VINA RESULT:      -8.4      3.371      7.689
  Name = 
  2 active torsions:
  status: ('A' for Active; 'I' for Inactive)
    1  A    between atoms: C_1  and  O_10
    2  A    between atoms: O_10  and  C_24
                            x       y       z     vdW  Elec       q    Type
                         _______ _______ _______ _____ _____    ______ ____

>  <TORSDO>
F 2

$$$$
=
 OpenBabel11052416523D

 32 38  0  0  1  0  0  0  0  0999 V2000
  192.5160  176.8890  137.8940 C   0  0  1  0  0  3  0  0  0  0  0  0
  188.7740  177.4710  141.4460 C   0  0  0  0  0  0  0  0  0  0  0  0
  184.9550  179.0580  138.9530 C   0  0  0  0  0  3  0  0  0  0  0  0
  184.1640  179.1690  140.1700 C   0  0  0  0  0  3  0  0  0  0  0  0
  188.6670  177.3630  143.9370 C   0  0  0  0  0  0  0  0  0  0  0  0
  187.9390  177.5530  145.1270 C   0  0  0  0  0  0  0  0  0  0  0  0
  190.8880  176.6850  140.3420 C   0  0  1  0  0  3  0  0  0  0  0  0
  188.7880  177.1680  139.0070 C   0  0  0  0  0  2  0  0  0  0  0  0
  186.2880  178.0390  146.4050 C   0  0  0  0  0  0  0  0  0  0  0  0
  191.1030  176.4590  137.7660 C   0  0  2  0  0  3  0  0  0  0  0  0
  186.2740  178.5130  139.0060 C   0  0  0  0  0  3  0  0  0  0  0  0
  188.0900  177.6230  140.2750 N   0  0  0  0  0  0  0  0  0  0  0  0
  186.8640  178.1430  140.2120 C   0  0  0  0  0  0  0  0  0  0  0  0
  186.7120  178.0180  142.6790 C   0  0  0  0  0  0  0  0  0  0  0  0
  187.3070  177.6710  147.1490 N   0  0  0  0  0  0  0  0  0  0  0  0
  193.0680  177.5120  139.1700 C   0  0  0  0  0  2  0  0  0  0  0  0
  190.3310  177.2130  139.0060 C   0  0  2  0  0  3  0  0  0  0  0  0
  188.3540  177.3520  146.3650 N   0  0  0  0  0  0  0  0  0  0  0  0
  192.4000  176.9720  140.5320 C   0  0  0  0  0  2  0  0  0  0  0  0
  192.0740  175.4520  138.2230 C   0  0  1  0  0  3  0  0  0  0  0  0
  184.8060  178.8200  141.3680 C   0  0  0  0  0  3  0  0  0  0  0  0
  186.1120  178.3080  141.4410 C   0  0  0  0  0  0  0  0  0  0  0  0
  185.9980  178.2500  143.8940 C   0  0  0  0  0  3  0  0  0  0  0  0
  190.2120  177.2300  141.5010 C   0  0  0  0  0  2  0  0  0  0  0  0
  190.0590  177.0180  144.1380 O   0  0  0  0  0  1  0  0  0  0  0  0
  184.9660  178.4850  146.9220 C   0  0  0  0  0  1  0  0  0  0  0  0
  188.0430  177.6190  142.6800 C   0  0  0  0  0  0  0  0  0  0  0  0
  186.6400  177.9670  145.0720 C   0  0  0  0  0  0  0  0  0  0  0  0
  193.0750  174.8420  137.4870 O   0  0  0  0  0  0  0  0  0  0  0  0
  193.0620  173.5950  136.8040 C   0  0  0  0  0  0  0  0  0  0  0  0
  194.2960  172.8810  136.5570 C   0  0  0  0  0  1  0  0  0  0  0  0
  191.9630  173.1900  136.3960 O   0  0  0  0  0  0  0  0  0  0  0  0
  1 20  1  0  0  0  0
  1 16  1  1  0  0  0
  2 24  1  0  0  0  0
  2 27  2  0  0  0  0
  3 11  2  0  0  0  0
  3  4  1  0  0  0  0
  4 21  2  0  0  0  0
  5 25  1  0  0  0  0
  5  6  2  0  0  0  0
  6 18  1  0  0  0  0
  7 19  1  1  0  0  0
  7 24  1  0  0  0  0
  8 12  1  0  0  0  0
  9 26  1  0  0  0  0
  9 15  1  0  0  0  0
 10  1  1  0  0  0  0
 10 20  1  0  0  0  0
 10 17  1  0  0  0  0
 11 13  1  0  0  0  0
 12  2  1  0  0  0  0
 13 12  1  0  0  0  0
 13 22  2  0  0  0  0
 14 27  1  0  0  0  0
 14 23  2  0  0  0  0
 16 19  1  0  0  0  0
 17  8  1  0  0  0  0
 17  7  1  0  0  0  0
 18 15  2  0  0  0  0
 21 22  1  0  0  0  0
 22 14  1  0  0  0  0
 23 28  1  0  0  0  0
 27  5  1  0  0  0  0
 28  6  1  0  0  0  0
 28  9  2  0  0  0  0
 29 20  1  0  0  0  0
 30 29  1  0  0  0  0
 31 30  1  0  0  0  0
 32 30  2  0  0  0  0
M  END
>  <MODEL>
9

>  <REMARK>
 VINA RESULT:      -8.4      2.428      3.459
  Name = 
  2 active torsions:
  status: ('A' for Active; 'I' for Inactive)
    1  A    between atoms: C_1  and  O_10
    2  A    between atoms: O_10  and  C_24
                            x       y       z     vdW  Elec       q    Type
                         _______ _______ _______ _____ _____    ______ ____

>  <TORSDO>
F 2

$$$$
