=
 OpenBabel11052413183D

 31 34  0  0  1  0  0  0  0  0999 V2000
  188.3520  176.5970  143.2770 C   0  0  0  0  0  2  0  0  0  0  0  0
  187.1660  177.3410  143.8870 C   0  0  1  0  0  3  0  0  0  0  0  0
  187.6520  177.0300  146.2630 N   0  0  0  0  0  2  0  0  0  0  0  0
  187.5410  178.0330  145.1920 C   0  0  2  0  0  3  0  0  0  0  0  0
  186.4640  177.8890  146.1670 C   0  0  0  0  0  2  0  0  0  0  0  0
  186.5290  178.3190  142.8930 C   0  0  0  0  0  2  0  0  0  0  0  0
  184.9850  178.4060  142.9460 C   0  0  1  0  0  3  0  0  0  0  0  0
  184.4130  179.4250  143.9480 C   0  0  1  0  0  3  0  0  0  0  0  0
  183.0460  179.6580  143.7110 O   0  0  0  0  0  0  0  0  0  0  0  0
  183.3630  178.8590  144.8270 C   0  0  0  0  0  2  0  0  0  0  0  0
  185.2640  178.9340  140.4730 C   0  0  0  0  0  1  0  0  0  0  0  0
  184.2940  178.5550  141.5840 C   0  0  1  0  0  3  0  0  0  0  0  0
  183.6020  177.3920  141.2430 O   0  0  0  0  0  0  0  0  0  0  0  0
  183.0800  177.6380  139.9720 C   0  0  0  0  0  2  0  0  0  0  0  0
  181.1250  178.9830  140.0700 O   0  0  0  0  0  1  0  0  0  0  0  0
  181.5680  177.6620  140.0470 C   0  0  0  0  0  2  0  0  0  0  0  0
  189.1810  177.5050  142.3700 C   0  0  1  0  0  3  0  0  0  0  0  0
  191.9500  176.2060  146.3470 C   0  0  0  0  0  1  0  0  0  0  0  0
  190.6600  177.5390  142.7760 C   0  0  2  0  0  3  0  0  0  0  0  0
  191.7280  178.5910  144.6700 O   0  0  0  0  0  0  0  0  0  0  0  0
  191.1470  176.0360  143.7100 S   0  0  0  0  0  0  0  0  0  0  0  0
  190.8730  176.7050  145.4040 C   0  0  2  0  0  3  0  0  0  0  0  0
  190.7780  178.1110  145.4550 O   0  0  0  0  0  0  0  0  0  0  0  0
  191.0920  178.8480  143.4470 C   0  0  0  0  0  2  0  0  0  0  0  0
  188.9390  177.2440  140.8780 C   0  0  1  0  0  3  0  0  0  0  0  0
  189.0950  178.6740  138.8280 C   0  0  0  0  0  3  0  0  0  0  0  0
  188.6590  178.5040  140.0860 C   0  0  0  0  0  3  0  0  0  0  0  0
  189.9860  177.6710  138.1410 C   0  0  0  0  0  2  0  0  0  0  0  0
  190.8880  175.4660  138.2560 O   0  0  0  0  0  1  0  0  0  0  0  0
  190.0810  176.4170  140.2880 C   0  0  0  0  0  2  0  0  0  0  0  0
  189.8940  176.2880  138.7810 C   0  0  1  0  0  3  0  0  0  0  0  0
  1  2  1  0  0  0  0
  2  6  1  6  0  0  0
  4  2  1  6  0  0  0
  4  5  1  0  0  0  0
  4  3  1  0  0  0  0
  5  3  1  0  0  0  0
  7  6  1  6  0  0  0
  8  7  1  6  0  0  0
  8 10  1  0  0  0  0
  9  8  1  0  0  0  0
  9 10  1  0  0  0  0
 12 11  1  6  0  0  0
 12  7  1  0  0  0  0
 13 12  1  0  0  0  0
 14 16  1  0  0  0  0
 14 13  1  0  0  0  0
 16 15  1  0  0  0  0
 17  1  1  1  0  0  0
 19 17  1  1  0  0  0
 19 24  1  0  0  0  0
 19 21  1  0  0  0  0
 20 23  1  0  0  0  0
 21 22  1  0  0  0  0
 22 23  1  0  0  0  0
 22 18  1  1  0  0  0
 24 20  1  0  0  0  0
 25 17  1  1  0  0  0
 26 27  2  0  0  0  0
 27 25  1  0  0  0  0
 28 31  1  0  0  0  0
 28 26  1  0  0  0  0
 30 25  1  0  0  0  0
 31 29  1  6  0  0  0
 31 30  1  0  0  0  0
M  END
>  <MODEL>
1

>  <REMARK>
 VINA RESULT:      -6.8      0.000      0.000
  Name = 
  12 active torsions:
  status: ('A' for Active; 'I' for Inactive)
    1  A    between atoms: C_1  and  C_24
    2  A    between atoms: C_3  and  C_15
    3  A    between atoms: C_3  and  C_24
    4  A    between atoms: C_4  and  C_27
    5  A    between atoms: C_5  and  C_27
    6  A    between atoms: C_9  and  C_23
    7  A    between atoms: C_15  and  C_20
    8  A    between atoms: C_15  and  C_21
    9  A    between atoms: C_19  and  O_22
   10  A    between atoms: C_19  and  C_24
   11  A    between atoms: C_20  and  C_27
   12  A    between atoms: O_22  and  C_23
                            x       y       z     vdW  Elec       q    Type
                         _______ _______ _______ _____ _____    ______ ____

>  <TORSDO>
F 12

$$$$
=
 OpenBabel11052413183D

 31 34  0  0  1  0  0  0  0  0999 V2000
  187.7450  179.1450  141.1640 C   0  0  0  0  0  2  0  0  0  0  0  0
  186.2660  178.9060  141.4610 C   0  0  1  0  0  3  0  0  0  0  0  0
  184.7860  179.6550  139.6650 N   0  0  0  0  0  2  0  0  0  0  0  0
  185.4980  178.4900  140.2120 C   0  0  2  0  0  3  0  0  0  0  0  0
  184.0620  178.6330  140.4330 C   0  0  0  0  0  2  0  0  0  0  0  0
  186.0650  177.9070  142.6070 C   0  0  0  0  0  2  0  0  0  0  0  0
  185.4630  178.5000  143.9030 C   0  0  1  0  0  3  0  0  0  0  0  0
  183.9260  178.5470  143.9590 C   0  0  1  0  0  3  0  0  0  0  0  0
  183.4780  179.0640  145.1890 O   0  0  0  0  0  0  0  0  0  0  0  0
  183.3840  179.9230  144.0750 C   0  0  0  0  0  2  0  0  0  0  0  0
  187.0510  176.8190  144.9630 C   0  0  0  0  0  1  0  0  0  0  0  0
  186.0240  177.9150  145.2070 C   0  0  1  0  0  3  0  0  0  0  0  0
  186.5710  178.9170  146.0110 O   0  0  0  0  0  0  0  0  0  0  0  0
  186.4180  178.4570  147.3200 C   0  0  0  0  0  2  0  0  0  0  0  0
  188.0720  177.2220  148.4940 O   0  0  0  0  0  1  0  0  0  0  0  0
  187.7570  178.4960  148.0250 C   0  0  0  0  0  2  0  0  0  0  0  0
  188.5280  177.8340  141.1100 C   0  0  1  0  0  3  0  0  0  0  0  0
  188.2320  177.8730  136.1020 C   0  0  0  0  0  1  0  0  0  0  0  0
  189.4970  177.7830  139.9210 C   0  0  2  0  0  3  0  0  0  0  0  0
  189.6170  176.2240  138.0810 O   0  0  0  0  0  0  0  0  0  0  0  0
  188.9660  178.8950  138.5610 S   0  0  0  0  0  0  0  0  0  0  0  0
  188.0200  177.6500  137.5870 C   0  0  2  0  0  3  0  0  0  0  0  0
  188.3050  176.3140  137.9360 O   0  0  0  0  0  0  0  0  0  0  0  0
  189.8400  176.3630  139.4580 C   0  0  0  0  0  2  0  0  0  0  0  0
  189.1580  177.4570  142.4580 C   0  0  1  0  0  3  0  0  0  0  0  0
  190.6100  175.5620  143.2130 C   0  0  0  0  0  3  0  0  0  0  0  0
  189.5170  175.9900  142.5620 C   0  0  0  0  0  3  0  0  0  0  0  0
  191.6210  176.5110  143.8020 C   0  0  0  0  0  2  0  0  0  0  0  0
  192.0550  178.7860  144.3740 O   0  0  0  0  0  1  0  0  0  0  0  0
  190.3370  178.3780  142.7720 C   0  0  0  0  0  2  0  0  0  0  0  0
  191.0330  177.9000  144.0410 C   0  0  1  0  0  3  0  0  0  0  0  0
  2  1  1  6  0  0  0
  2  6  1  0  0  0  0
  3  4  1  0  0  0  0
  3  5  1  0  0  0  0
  4  5  1  0  0  0  0
  4  2  1  1  0  0  0
  7  6  1  6  0  0  0
  7 12  1  0  0  0  0
  8  7  1  1  0  0  0
  8 10  1  0  0  0  0
  8  9  1  0  0  0  0
 10  9  1  0  0  0  0
 12 11  1  6  0  0  0
 12 13  1  0  0  0  0
 13 14  1  0  0  0  0
 14 16  1  0  0  0  0
 16 15  1  0  0  0  0
 17  1  1  1  0  0  0
 19 17  1  1  0  0  0
 20 24  1  0  0  0  0
 21 19  1  0  0  0  0
 22 18  1  6  0  0  0
 22 23  1  0  0  0  0
 22 21  1  0  0  0  0
 23 20  1  0  0  0  0
 24 19  1  0  0  0  0
 25 17  1  6  0  0  0
 25 27  1  0  0  0  0
 25 30  1  0  0  0  0
 26 28  1  0  0  0  0
 27 26  2  0  0  0  0
 28 31  1  0  0  0  0
 30 31  1  0  0  0  0
 31 29  1  6  0  0  0
M  END
>  <MODEL>
2

>  <REMARK>
 VINA RESULT:      -6.7      2.531      5.913
  Name = 
  12 active torsions:
  status: ('A' for Active; 'I' for Inactive)
    1  A    between atoms: C_1  and  C_24
    2  A    between atoms: C_3  and  C_15
    3  A    between atoms: C_3  and  C_24
    4  A    between atoms: C_4  and  C_27
    5  A    between atoms: C_5  and  C_27
    6  A    between atoms: C_9  and  C_23
    7  A    between atoms: C_15  and  C_20
    8  A    between atoms: C_15  and  C_21
    9  A    between atoms: C_19  and  O_22
   10  A    between atoms: C_19  and  C_24
   11  A    between atoms: C_20  and  C_27
   12  A    between atoms: O_22  and  C_23
                            x       y       z     vdW  Elec       q    Type
                         _______ _______ _______ _____ _____    ______ ____

>  <TORSDO>
F 12

$$$$
=
 OpenBabel11052413183D

 31 34  0  0  1  0  0  0  0  0999 V2000
  188.6970  176.9080  140.7050 C   0  0  0  0  0  2  0  0  0  0  0  0
  189.8500  177.5490  139.9360 C   0  0  1  0  0  3  0  0  0  0  0  0
  192.2760  177.2430  139.9530 N   0  0  0  0  0  2  0  0  0  0  0  0
  190.9930  176.5660  139.7070 C   0  0  2  0  0  3  0  0  0  0  0  0
  191.8130  177.0010  138.5800 C   0  0  0  0  0  2  0  0  0  0  0  0
  189.3810  178.1840  138.6220 C   0  0  0  0  0  2  0  0  0  0  0  0
  188.1520  177.5110  137.9640 C   0  0  1  0  0  3  0  0  0  0  0  0
  187.0140  178.4650  137.5580 C   0  0  1  0  0  3  0  0  0  0  0  0
  185.9750  177.7690  136.9120 O   0  0  0  0  0  0  0  0  0  0  0  0
  185.7300  178.1720  138.2390 C   0  0  0  0  0  2  0  0  0  0  0  0
  189.5280  177.1030  135.8640 C   0  0  0  0  0  1  0  0  0  0  0  0
  188.4750  176.5490  136.8130 C   0  0  1  0  0  3  0  0  0  0  0  0
  188.8730  175.3020  137.3000 O   0  0  0  0  0  0  0  0  0  0  0  0
  189.2250  174.5650  136.1680 C   0  0  0  0  0  2  0  0  0  0  0  0
  191.3060  173.9320  137.1220 O   0  0  0  0  0  1  0  0  0  0  0  0
  190.1300  173.4210  136.5760 C   0  0  0  0  0  2  0  0  0  0  0  0
  188.8360  177.1250  142.2120 C   0  0  1  0  0  3  0  0  0  0  0  0
  191.7720  176.5120  146.2330 C   0  0  0  0  0  1  0  0  0  0  0  0
  190.2750  177.4630  142.6210 C   0  0  2  0  0  3  0  0  0  0  0  0
  191.0970  178.7580  144.4860 O   0  0  0  0  0  0  0  0  0  0  0  0
  191.0410  176.1130  143.5990 S   0  0  0  0  0  0  0  0  0  0  0  0
  190.6260  176.7610  145.2720 C   0  0  2  0  0  3  0  0  0  0  0  0
  190.2540  178.1220  145.2820 O   0  0  0  0  0  0  0  0  0  0  0  0
  190.4340  178.8490  143.2550 C   0  0  0  0  0  2  0  0  0  0  0  0
  187.7750  178.0770  142.7800 C   0  0  1  0  0  3  0  0  0  0  0  0
  185.4790  178.7440  142.0340 C   0  0  0  0  0  3  0  0  0  0  0  0
  186.7740  178.5460  141.7440 C   0  0  0  0  0  3  0  0  0  0  0  0
  184.8950  178.4150  143.3840 C   0  0  0  0  0  2  0  0  0  0  0  0
  185.4100  177.8370  145.6410 O   0  0  0  0  0  1  0  0  0  0  0  0
  187.1070  177.4600  144.0090 C   0  0  0  0  0  2  0  0  0  0  0  0
  185.9650  178.3560  144.4730 C   0  0  1  0  0  3  0  0  0  0  0  0
  2  6  1  6  0  0  0
  2  1  1  0  0  0  0
  4  2  1  1  0  0  0
  4  3  1  0  0  0  0
  5  4  1  0  0  0  0
  5  3  1  0  0  0  0
  7  6  1  6  0  0  0
  8  7  1  1  0  0  0
  8 10  1  0  0  0  0
  9  8  1  0  0  0  0
  9 10  1  0  0  0  0
 12 11  1  1  0  0  0
 12 13  1  0  0  0  0
 12  7  1  0  0  0  0
 14 16  1  0  0  0  0
 14 13  1  0  0  0  0
 16 15  1  0  0  0  0
 17  1  1  6  0  0  0
 19 17  1  1  0  0  0
 19 24  1  0  0  0  0
 19 21  1  0  0  0  0
 20 23  1  0  0  0  0
 21 22  1  0  0  0  0
 22 23  1  0  0  0  0
 22 18  1  1  0  0  0
 24 20  1  0  0  0  0
 25 17  1  6  0  0  0
 25 30  1  0  0  0  0
 26 28  1  0  0  0  0
 27 26  2  0  0  0  0
 27 25  1  0  0  0  0
 28 31  1  0  0  0  0
 30 31  1  0  0  0  0
 31 29  1  1  0  0  0
M  END
>  <MODEL>
3

>  <REMARK>
 VINA RESULT:      -6.4      2.503      6.052
  Name = 
  12 active torsions:
  status: ('A' for Active; 'I' for Inactive)
    1  A    between atoms: C_1  and  C_24
    2  A    between atoms: C_3  and  C_15
    3  A    between atoms: C_3  and  C_24
    4  A    between atoms: C_4  and  C_27
    5  A    between atoms: C_5  and  C_27
    6  A    between atoms: C_9  and  C_23
    7  A    between atoms: C_15  and  C_20
    8  A    between atoms: C_15  and  C_21
    9  A    between atoms: C_19  and  O_22
   10  A    between atoms: C_19  and  C_24
   11  A    between atoms: C_20  and  C_27
   12  A    between atoms: O_22  and  C_23
                            x       y       z     vdW  Elec       q    Type
                         _______ _______ _______ _____ _____    ______ ____

>  <TORSDO>
F 12

$$$$
=
 OpenBabel11052413183D

 31 34  0  0  1  0  0  0  0  0999 V2000
  188.2780  177.0980  143.0580 C   0  0  0  0  0  2  0  0  0  0  0  0
  189.5270  177.5530  143.8090 C   0  0  1  0  0  3  0  0  0  0  0  0
  191.6980  178.3710  143.0340 N   0  0  0  0  0  2  0  0  0  0  0  0
  190.2580  178.6680  143.0690 C   0  0  2  0  0  3  0  0  0  0  0  0
  191.1660  179.3630  143.9760 C   0  0  0  0  0  2  0  0  0  0  0  0
  189.2160  177.9460  145.2570 C   0  0  0  0  0  2  0  0  0  0  0  0
  189.7620  176.9810  146.3370 C   0  0  1  0  0  3  0  0  0  0  0  0
  191.2900  176.9960  146.5270 C   0  0  1  0  0  3  0  0  0  0  0  0
  191.7050  175.9560  147.3800 O   0  0  0  0  0  0  0  0  0  0  0  0
  191.9590  175.7800  146.0050 C   0  0  0  0  0  2  0  0  0  0  0  0
  189.3720  178.3470  148.4470 C   0  0  0  0  0  1  0  0  0  0  0  0
  189.0560  177.0600  147.6970 C   0  0  1  0  0  3  0  0  0  0  0  0
  187.6750  176.9120  147.5550 O   0  0  0  0  0  0  0  0  0  0  0  0
  187.1330  178.1280  147.9730 C   0  0  0  0  0  2  0  0  0  0  0  0
  185.6380  179.8380  147.2810 O   0  0  0  0  0  1  0  0  0  0  0  0
  185.9890  178.5090  147.0580 C   0  0  0  0  0  2  0  0  0  0  0  0
  187.9550  178.0260  141.8870 C   0  0  1  0  0  3  0  0  0  0  0  0
  191.5930  176.8380  138.6420 C   0  0  0  0  0  1  0  0  0  0  0  0
  188.0720  177.3150  140.5320 C   0  0  2  0  0  3  0  0  0  0  0  0
  188.9660  178.1080  138.4340 O   0  0  0  0  0  0  0  0  0  0  0  0
  189.5750  176.2660  140.4400 S   0  0  0  0  0  0  0  0  0  0  0  0
  190.6890  177.5070  139.6590 C   0  0  2  0  0  3  0  0  0  0  0  0
  190.0100  178.6000  139.0790 O   0  0  0  0  0  0  0  0  0  0  0  0
  187.8930  178.2420  139.3250 C   0  0  0  0  0  2  0  0  0  0  0  0
  186.6490  178.8060  142.0830 C   0  0  1  0  0  3  0  0  0  0  0  0
  184.4530  178.8250  140.8790 C   0  0  0  0  0  3  0  0  0  0  0  0
  185.7940  178.8680  140.8350 C   0  0  0  0  0  3  0  0  0  0  0  0
  183.6950  178.6060  142.1620 C   0  0  0  0  0  2  0  0  0  0  0  0
  183.8690  178.5390  144.5410 O   0  0  0  0  0  1  0  0  0  0  0  0
  185.8850  178.2730  143.2960 C   0  0  0  0  0  2  0  0  0  0  0  0
  184.5300  178.9630  143.3900 C   0  0  1  0  0  3  0  0  0  0  0  0
  2  1  1  6  0  0  0
  2  6  1  0  0  0  0
  3  4  1  0  0  0  0
  3  5  1  0  0  0  0
  4  2  1  1  0  0  0
  4  5  1  0  0  0  0
  7  6  1  6  0  0  0
  7 12  1  0  0  0  0
  8  7  1  6  0  0  0
  8  9  1  0  0  0  0
 10  8  1  0  0  0  0
 10  9  1  0  0  0  0
 12 11  1  6  0  0  0
 13 12  1  0  0  0  0
 13 14  1  0  0  0  0
 16 15  1  0  0  0  0
 16 14  1  0  0  0  0
 17  1  1  1  0  0  0
 19 17  1  1  0  0  0
 20 23  1  0  0  0  0
 20 24  1  0  0  0  0
 21 19  1  0  0  0  0
 22 18  1  6  0  0  0
 22 21  1  0  0  0  0
 23 22  1  0  0  0  0
 24 19  1  0  0  0  0
 25 17  1  6  0  0  0
 25 30  1  0  0  0  0
 26 28  1  0  0  0  0
 27 26  2  0  0  0  0
 27 25  1  0  0  0  0
 28 31  1  0  0  0  0
 30 31  1  0  0  0  0
 31 29  1  1  0  0  0
M  END
>  <MODEL>
4

>  <REMARK>
 VINA RESULT:      -6.3      2.289      6.518
  Name = 
  12 active torsions:
  status: ('A' for Active; 'I' for Inactive)
    1  A    between atoms: C_1  and  C_24
    2  A    between atoms: C_3  and  C_15
    3  A    between atoms: C_3  and  C_24
    4  A    between atoms: C_4  and  C_27
    5  A    between atoms: C_5  and  C_27
    6  A    between atoms: C_9  and  C_23
    7  A    between atoms: C_15  and  C_20
    8  A    between atoms: C_15  and  C_21
    9  A    between atoms: C_19  and  O_22
   10  A    between atoms: C_19  and  C_24
   11  A    between atoms: C_20  and  C_27
   12  A    between atoms: O_22  and  C_23
                            x       y       z     vdW  Elec       q    Type
                         _______ _______ _______ _____ _____    ______ ____

>  <TORSDO>
F 12

$$$$
=
 OpenBabel11052413183D

 31 34  0  0  1  0  0  0  0  0999 V2000
  188.2490  177.0940  142.6510 C   0  0  0  0  0  2  0  0  0  0  0  0
  187.0130  177.9800  142.7780 C   0  0  1  0  0  3  0  0  0  0  0  0
  186.0530  179.6110  141.2290 N   0  0  0  0  0  2  0  0  0  0  0  0
  186.3190  178.1790  141.4350 C   0  0  2  0  0  3  0  0  0  0  0  0
  184.9720  178.7040  141.6370 C   0  0  0  0  0  2  0  0  0  0  0  0
  186.0410  177.4610  143.8430 C   0  0  0  0  0  2  0  0  0  0  0  0
  185.5610  178.5140  144.8710 C   0  0  1  0  0  3  0  0  0  0  0  0
  184.1220  178.3300  145.3860 C   0  0  1  0  0  3  0  0  0  0  0  0
  183.4340  179.5570  145.4210 O   0  0  0  0  0  0  0  0  0  0  0  0
  183.0890  178.6730  144.3800 C   0  0  0  0  0  2  0  0  0  0  0  0
  185.7870  179.1070  147.3340 C   0  0  0  0  0  1  0  0  0  0  0  0
  186.5180  178.7610  146.0440 C   0  0  1  0  0  3  0  0  0  0  0  0
  187.3580  177.6640  146.2460 O   0  0  0  0  0  0  0  0  0  0  0  0
  187.3120  177.4170  147.6190 C   0  0  0  0  0  2  0  0  0  0  0  0
  189.2690  178.5110  148.4030 O   0  0  0  0  0  1  0  0  0  0  0  0
  188.7220  177.2560  148.1460 C   0  0  0  0  0  2  0  0  0  0  0  0
  189.2950  177.7140  141.7250 C   0  0  1  0  0  3  0  0  0  0  0  0
  191.4290  176.3860  146.0680 C   0  0  0  0  0  1  0  0  0  0  0  0
  190.7120  177.6270  142.3070 C   0  0  2  0  0  3  0  0  0  0  0  0
  191.6550  178.6790  144.2660 O   0  0  0  0  0  0  0  0  0  0  0  0
  190.9270  176.1410  143.3620 S   0  0  0  0  0  0  0  0  0  0  0  0
  190.5280  176.9320  144.9770 C   0  0  2  0  0  3  0  0  0  0  0  0
  190.5760  178.3410  144.9510 O   0  0  0  0  0  0  0  0  0  0  0  0
  191.1970  178.9240  142.9640 C   0  0  0  0  0  2  0  0  0  0  0  0
  189.1740  177.2290  140.2750 C   0  0  1  0  0  3  0  0  0  0  0  0
  189.4730  178.3430  138.0520 C   0  0  0  0  0  3  0  0  0  0  0  0
  188.9420  178.3500  139.2850 C   0  0  0  0  0  3  0  0  0  0  0  0
  190.4270  177.2710  137.5920 C   0  0  0  0  0  2  0  0  0  0  0  0
  191.3450  175.1290  138.1040 O   0  0  0  0  0  1  0  0  0  0  0  0
  190.3690  176.3510  139.9040 C   0  0  0  0  0  2  0  0  0  0  0  0
  190.3020  175.9960  138.4230 C   0  0  1  0  0  3  0  0  0  0  0  0
  2  1  1  6  0  0  0
  2  6  1  0  0  0  0
  3  4  1  0  0  0  0
  3  5  1  0  0  0  0
  4  5  1  0  0  0  0
  4  2  1  1  0  0  0
  7  6  1  1  0  0  0
  7 12  1  0  0  0  0
  8  7  1  6  0  0  0
  8  9  1  0  0  0  0
 10  8  1  0  0  0  0
 10  9  1  0  0  0  0
 12 13  1  0  0  0  0
 12 11  1  1  0  0  0
 13 14  1  0  0  0  0
 14 16  1  0  0  0  0
 16 15  1  0  0  0  0
 17  1  1  1  0  0  0
 19 17  1  1  0  0  0
 19 24  1  0  0  0  0
 19 21  1  0  0  0  0
 20 23  1  0  0  0  0
 21 22  1  0  0  0  0
 22 18  1  1  0  0  0
 23 22  1  0  0  0  0
 24 20  1  0  0  0  0
 25 17  1  1  0  0  0
 26 27  2  0  0  0  0
 27 25  1  0  0  0  0
 28 26  1  0  0  0  0
 28 31  1  0  0  0  0
 30 25  1  0  0  0  0
 31 29  1  6  0  0  0
 31 30  1  0  0  0  0
M  END
>  <MODEL>
5

>  <REMARK>
 VINA RESULT:      -6.2      2.081      4.156
  Name = 
  12 active torsions:
  status: ('A' for Active; 'I' for Inactive)
    1  A    between atoms: C_1  and  C_24
    2  A    between atoms: C_3  and  C_15
    3  A    between atoms: C_3  and  C_24
    4  A    between atoms: C_4  and  C_27
    5  A    between atoms: C_5  and  C_27
    6  A    between atoms: C_9  and  C_23
    7  A    between atoms: C_15  and  C_20
    8  A    between atoms: C_15  and  C_21
    9  A    between atoms: C_19  and  O_22
   10  A    between atoms: C_19  and  C_24
   11  A    between atoms: C_20  and  C_27
   12  A    between atoms: O_22  and  C_23
                            x       y       z     vdW  Elec       q    Type
                         _______ _______ _______ _____ _____    ______ ____

>  <TORSDO>
F 12

$$$$
=
 OpenBabel11052413183D

 31 34  0  0  1  0  0  0  0  0999 V2000
  189.2270  177.7530  140.0690 C   0  0  0  0  0  2  0  0  0  0  0  0
  189.2700  177.1700  141.4790 C   0  0  1  0  0  3  0  0  0  0  0  0
  190.3370  175.4430  142.8420 N   0  0  0  0  0  2  0  0  0  0  0  0
  190.5480  176.3770  141.7260 C   0  0  2  0  0  3  0  0  0  0  0  0
  191.0870  176.6890  143.0460 C   0  0  0  0  0  2  0  0  0  0  0  0
  189.0560  178.2440  142.5520 C   0  0  0  0  0  2  0  0  0  0  0  0
  187.7160  178.1560  143.3200 C   0  0  1  0  0  3  0  0  0  0  0  0
  186.4740  177.8770  142.4540 C   0  0  1  0  0  3  0  0  0  0  0  0
  185.3180  178.4410  143.0270 O   0  0  0  0  0  0  0  0  0  0  0  0
  185.8520  179.1060  141.9050 C   0  0  0  0  0  2  0  0  0  0  0  0
  188.9030  177.5050  145.4730 C   0  0  0  0  0  1  0  0  0  0  0  0
  187.7280  177.2320  144.5450 C   0  0  1  0  0  3  0  0  0  0  0  0
  186.5260  177.3200  145.2510 O   0  0  0  0  0  0  0  0  0  0  0  0
  186.8460  177.9910  146.4320 C   0  0  0  0  0  2  0  0  0  0  0  0
  184.5110  178.3930  146.5930 O   0  0  0  0  0  1  0  0  0  0  0  0
  185.7580  178.9950  146.7490 C   0  0  0  0  0  2  0  0  0  0  0  0
  188.9240  176.6800  139.0240 C   0  0  1  0  0  3  0  0  0  0  0  0
  187.0970  178.2890  134.6370 C   0  0  0  0  0  1  0  0  0  0  0  0
  187.5460  176.8720  138.3760 C   0  0  2  0  0  3  0  0  0  0  0  0
  186.5280  178.8550  137.4490 O   0  0  0  0  0  0  0  0  0  0  0  0
  187.5550  176.4030  136.6020 S   0  0  0  0  0  0  0  0  0  0  0  0
  187.8910  178.0770  135.9120 C   0  0  2  0  0  3  0  0  0  0  0  0
  187.6600  179.1280  136.8230 O   0  0  0  0  0  0  0  0  0  0  0  0
  186.9150  178.2420  138.6480 C   0  0  0  0  0  2  0  0  0  0  0  0
  190.0710  176.4740  138.0260 C   0  0  1  0  0  3  0  0  0  0  0  0
  192.5650  176.5750  138.2200 C   0  0  0  0  0  3  0  0  0  0  0  0
  191.3660  177.1290  138.4580 C   0  0  0  0  0  3  0  0  0  0  0  0
  192.7150  175.2110  137.5990 C   0  0  0  0  0  2  0  0  0  0  0  0
  191.5720  173.4520  136.4610 O   0  0  0  0  0  1  0  0  0  0  0  0
  190.2380  174.9890  137.7030 C   0  0  0  0  0  2  0  0  0  0  0  0
  191.4670  174.7930  136.8240 C   0  0  1  0  0  3  0  0  0  0  0  0
  2  1  1  6  0  0  0
  2  6  1  0  0  0  0
  3  5  1  0  0  0  0
  4  2  1  1  0  0  0
  4  3  1  0  0  0  0
  4  5  1  0  0  0  0
  7  6  1  6  0  0  0
  7 12  1  0  0  0  0
  8  9  1  0  0  0  0
  8  7  1  1  0  0  0
 10  8  1  0  0  0  0
 10  9  1  0  0  0  0
 12 13  1  0  0  0  0
 12 11  1  1  0  0  0
 13 14  1  0  0  0  0
 14 16  1  0  0  0  0
 15 16  1  0  0  0  0
 17  1  1  6  0  0  0
 19 24  1  0  0  0  0
 19 17  1  6  0  0  0
 20 24  1  0  0  0  0
 21 19  1  0  0  0  0
 22 18  1  6  0  0  0
 22 21  1  0  0  0  0
 22 23  1  0  0  0  0
 23 20  1  0  0  0  0
 25 27  1  0  0  0  0
 25 17  1  1  0  0  0
 26 27  2  0  0  0  0
 28 26  1  0  0  0  0
 30 25  1  0  0  0  0
 31 29  1  1  0  0  0
 31 28  1  0  0  0  0
 31 30  1  0  0  0  0
M  END
>  <MODEL>
6

>  <REMARK>
 VINA RESULT:      -6.0      2.994      5.850
  Name = 
  12 active torsions:
  status: ('A' for Active; 'I' for Inactive)
    1  A    between atoms: C_1  and  C_24
    2  A    between atoms: C_3  and  C_15
    3  A    between atoms: C_3  and  C_24
    4  A    between atoms: C_4  and  C_27
    5  A    between atoms: C_5  and  C_27
    6  A    between atoms: C_9  and  C_23
    7  A    between atoms: C_15  and  C_20
    8  A    between atoms: C_15  and  C_21
    9  A    between atoms: C_19  and  O_22
   10  A    between atoms: C_19  and  C_24
   11  A    between atoms: C_20  and  C_27
   12  A    between atoms: O_22  and  C_23
                            x       y       z     vdW  Elec       q    Type
                         _______ _______ _______ _____ _____    ______ ____

>  <TORSDO>
F 12

$$$$
=
 OpenBabel11052413183D

 31 34  0  0  1  0  0  0  0  0999 V2000
  188.0160  178.4130  141.2550 C   0  0  0  0  0  2  0  0  0  0  0  0
  188.7430  177.1060  141.5610 C   0  0  1  0  0  3  0  0  0  0  0  0
  190.7270  176.2760  140.3980 N   0  0  0  0  0  2  0  0  0  0  0  0
  190.2520  177.2460  141.3960 C   0  0  2  0  0  3  0  0  0  0  0  0
  190.9220  176.0230  141.8320 C   0  0  0  0  0  2  0  0  0  0  0  0
  188.3750  176.5550  142.9440 C   0  0  0  0  0  2  0  0  0  0  0  0
  188.6630  177.5040  144.1320 C   0  0  1  0  0  3  0  0  0  0  0  0
  187.8410  177.2380  145.4060 C   0  0  1  0  0  3  0  0  0  0  0  0
  187.4040  178.4420  145.9890 O   0  0  0  0  0  0  0  0  0  0  0  0
  186.4320  177.6890  145.3010 C   0  0  0  0  0  2  0  0  0  0  0  0
  190.6040  179.1250  144.4070 C   0  0  0  0  0  1  0  0  0  0  0  0
  190.1470  177.6750  144.4830 C   0  0  1  0  0  3  0  0  0  0  0  0
  190.4280  177.1480  145.7450 O   0  0  0  0  0  0  0  0  0  0  0  0
  191.6590  176.5060  145.6070 C   0  0  0  0  0  2  0  0  0  0  0  0
  191.8780  176.9460  147.9300 O   0  0  0  0  0  1  0  0  0  0  0  0
  192.1050  175.9780  146.9540 C   0  0  0  0  0  2  0  0  0  0  0  0
  186.9090  178.2130  140.2210 C   0  0  1  0  0  3  0  0  0  0  0  0
  183.1020  178.6640  143.4580 C   0  0  0  0  0  1  0  0  0  0  0  0
  185.7240  179.1620  140.4460 C   0  0  2  0  0  3  0  0  0  0  0  0
  183.3570  178.6950  140.5440 O   0  0  0  0  0  0  0  0  0  0  0  0
  185.4360  179.4830  142.2290 S   0  0  0  0  0  0  0  0  0  0  0  0
  184.1790  178.1680  142.5120 C   0  0  2  0  0  3  0  0  0  0  0  0
  183.6070  177.6590  141.3280 O   0  0  0  0  0  0  0  0  0  0  0  0
  184.4570  178.7690  139.6790 C   0  0  0  0  0  2  0  0  0  0  0  0
  187.4330  178.1840  138.7790 C   0  0  1  0  0  3  0  0  0  0  0  0
  189.7150  178.3960  137.7690 C   0  0  0  0  0  3  0  0  0  0  0  0
  188.7820  178.8540  138.6180 C   0  0  0  0  0  3  0  0  0  0  0  0
  189.5370  177.1210  136.9860 C   0  0  0  0  0  2  0  0  0  0  0  0
  187.9740  175.4450  136.3210 O   0  0  0  0  0  1  0  0  0  0  0  0
  187.4130  176.7570  138.2320 C   0  0  0  0  0  2  0  0  0  0  0  0
  188.0670  176.7290  136.8550 C   0  0  1  0  0  3  0  0  0  0  0  0
  2  1  1  1  0  0  0
  2  6  1  0  0  0  0
  3  4  1  0  0  0  0
  3  5  1  0  0  0  0
  4  2  1  1  0  0  0
  4  5  1  0  0  0  0
  7  6  1  6  0  0  0
  7 12  1  0  0  0  0
  8  7  1  6  0  0  0
  8  9  1  0  0  0  0
 10  8  1  0  0  0  0
 10  9  1  0  0  0  0
 12 11  1  1  0  0  0
 12 13  1  0  0  0  0
 14 13  1  0  0  0  0
 14 16  1  0  0  0  0
 16 15  1  0  0  0  0
 17  1  1  1  0  0  0
 19 17  1  1  0  0  0
 19 21  1  0  0  0  0
 20 23  1  0  0  0  0
 21 22  1  0  0  0  0
 22 18  1  1  0  0  0
 23 22  1  0  0  0  0
 24 19  1  0  0  0  0
 24 20  1  0  0  0  0
 25 17  1  1  0  0  0
 26 27  2  0  0  0  0
 27 25  1  0  0  0  0
 28 26  1  0  0  0  0
 30 25  1  0  0  0  0
 31 29  1  1  0  0  0
 31 28  1  0  0  0  0
 31 30  1  0  0  0  0
M  END
>  <MODEL>
7

>  <REMARK>
 VINA RESULT:      -5.9      2.335      6.480
  Name = 
  12 active torsions:
  status: ('A' for Active; 'I' for Inactive)
    1  A    between atoms: C_1  and  C_24
    2  A    between atoms: C_3  and  C_15
    3  A    between atoms: C_3  and  C_24
    4  A    between atoms: C_4  and  C_27
    5  A    between atoms: C_5  and  C_27
    6  A    between atoms: C_9  and  C_23
    7  A    between atoms: C_15  and  C_20
    8  A    between atoms: C_15  and  C_21
    9  A    between atoms: C_19  and  O_22
   10  A    between atoms: C_19  and  C_24
   11  A    between atoms: C_20  and  C_27
   12  A    between atoms: O_22  and  C_23
                            x       y       z     vdW  Elec       q    Type
                         _______ _______ _______ _____ _____    ______ ____

>  <TORSDO>
F 12

$$$$
=
 OpenBabel11052413183D

 31 34  0  0  1  0  0  0  0  0999 V2000
  185.4820  178.8410  142.9380 C   0  0  0  0  0  2  0  0  0  0  0  0
  184.0690  178.2730  142.8290 C   0  0  1  0  0  3  0  0  0  0  0  0
  182.8390  178.9850  144.8180 N   0  0  0  0  0  2  0  0  0  0  0  0
  183.0260  179.2380  143.3810 C   0  0  2  0  0  3  0  0  0  0  0  0
  181.8530  178.5020  143.8420 C   0  0  0  0  0  2  0  0  0  0  0  0
  183.7340  177.8400  141.3970 C   0  0  0  0  0  2  0  0  0  0  0  0
  183.0840  178.9300  140.5110 C   0  0  1  0  0  3  0  0  0  0  0  0
  183.9860  179.5090  139.4050 C   0  0  1  0  0  3  0  0  0  0  0  0
  185.3310  179.1490  139.6070 O   0  0  0  0  0  0  0  0  0  0  0  0
  184.6460  178.4690  138.5810 C   0  0  0  0  0  2  0  0  0  0  0  0
  181.4810  177.0650  139.8630 C   0  0  0  0  0  1  0  0  0  0  0  0
  181.7070  178.5680  139.9390 C   0  0  1  0  0  3  0  0  0  0  0  0
  180.6850  179.1730  140.6720 O   0  0  0  0  0  0  0  0  0  0  0  0
  180.3320  180.3070  139.9400 C   0  0  0  0  0  2  0  0  0  0  0  0
  179.7160  180.9630  142.1380 O   0  0  0  0  0  1  0  0  0  0  0  0
  179.4530  181.2000  140.7900 C   0  0  0  0  0  2  0  0  0  0  0  0
  186.4520  177.8270  143.5450 C   0  0  1  0  0  3  0  0  0  0  0  0
  191.3450  176.7180  143.4950 C   0  0  0  0  0  1  0  0  0  0  0  0
  187.4870  177.3310  142.5270 C   0  0  2  0  0  3  0  0  0  0  0  0
  189.5700  178.3270  141.8180 O   0  0  0  0  0  0  0  0  0  0  0  0
  188.6550  176.1280  143.2720 S   0  0  0  0  0  0  0  0  0  0  0  0
  189.9760  177.3270  143.7320 C   0  0  2  0  0  3  0  0  0  0  0  0
  189.8670  178.5740  143.0830 O   0  0  0  0  0  0  0  0  0  0  0  0
  188.1760  178.4530  141.7420 C   0  0  0  0  0  2  0  0  0  0  0  0
  187.0480  178.2930  144.8800 C   0  0  1  0  0  3  0  0  0  0  0  0
  186.0490  179.1680  147.0030 C   0  0  0  0  0  3  0  0  0  0  0  0
  186.1250  179.2020  145.6640 C   0  0  0  0  0  3  0  0  0  0  0  0
  186.7960  178.1510  147.8280 C   0  0  0  0  0  2  0  0  0  0  0  0
  188.5030  176.4850  147.7870 O   0  0  0  0  0  1  0  0  0  0  0  0
  187.5290  177.0940  145.6970 C   0  0  0  0  0  2  0  0  0  0  0  0
  187.9870  177.5640  147.0720 C   0  0  1  0  0  3  0  0  0  0  0  0
  2  6  1  6  0  0  0
  2  1  1  0  0  0  0
  4  2  1  6  0  0  0
  4  5  1  0  0  0  0
  4  3  1  0  0  0  0
  5  3  1  0  0  0  0
  7  6  1  6  0  0  0
  8  9  1  0  0  0  0
  8  7  1  1  0  0  0
 10  8  1  0  0  0  0
 10  9  1  0  0  0  0
 12 11  1  1  0  0  0
 12  7  1  0  0  0  0
 12 13  1  0  0  0  0
 14 13  1  0  0  0  0
 14 16  1  0  0  0  0
 16 15  1  0  0  0  0
 17  1  1  6  0  0  0
 19 21  1  0  0  0  0
 19 17  1  1  0  0  0
 20 23  1  0  0  0  0
 21 22  1  0  0  0  0
 22 18  1  6  0  0  0
 23 22  1  0  0  0  0
 24 20  1  0  0  0  0
 24 19  1  0  0  0  0
 25 17  1  6  0  0  0
 25 27  1  0  0  0  0
 25 30  1  0  0  0  0
 26 28  1  0  0  0  0
 27 26  2  0  0  0  0
 30 31  1  0  0  0  0
 31 29  1  1  0  0  0
 31 28  1  0  0  0  0
M  END
>  <MODEL>
8

>  <REMARK>
 VINA RESULT:      -5.8      2.480      5.108
  Name = 
  12 active torsions:
  status: ('A' for Active; 'I' for Inactive)
    1  A    between atoms: C_1  and  C_24
    2  A    between atoms: C_3  and  C_15
    3  A    between atoms: C_3  and  C_24
    4  A    between atoms: C_4  and  C_27
    5  A    between atoms: C_5  and  C_27
    6  A    between atoms: C_9  and  C_23
    7  A    between atoms: C_15  and  C_20
    8  A    between atoms: C_15  and  C_21
    9  A    between atoms: C_19  and  O_22
   10  A    between atoms: C_19  and  C_24
   11  A    between atoms: C_20  and  C_27
   12  A    between atoms: O_22  and  C_23
                            x       y       z     vdW  Elec       q    Type
                         _______ _______ _______ _____ _____    ______ ____

>  <TORSDO>
F 12

$$$$
=
 OpenBabel11052413183D

 31 34  0  0  1  0  0  0  0  0999 V2000
  188.1230  178.6230  143.0250 C   0  0  0  0  0  2  0  0  0  0  0  0
  189.2220  177.6960  143.5390 C   0  0  1  0  0  3  0  0  0  0  0  0
  191.4920  178.1550  142.7540 N   0  0  0  0  0  2  0  0  0  0  0  0
  190.5170  178.4520  143.8150 C   0  0  2  0  0  3  0  0  0  0  0  0
  191.6040  177.5110  144.0690 C   0  0  0  0  0  2  0  0  0  0  0  0
  188.7680  176.8890  144.7610 C   0  0  0  0  0  2  0  0  0  0  0  0
  188.3870  177.7290  146.0040 C   0  0  1  0  0  3  0  0  0  0  0  0
  186.9890  177.4530  146.5860 C   0  0  1  0  0  3  0  0  0  0  0  0
  186.4490  178.6090  147.1800 O   0  0  0  0  0  0  0  0  0  0  0  0
  185.9140  178.2360  145.9310 C   0  0  0  0  0  2  0  0  0  0  0  0
  188.8340  178.0700  148.4840 C   0  0  0  0  0  1  0  0  0  0  0  0
  189.4360  177.7470  147.1240 C   0  0  1  0  0  3  0  0  0  0  0  0
  190.1300  176.5370  147.1790 O   0  0  0  0  0  0  0  0  0  0  0  0
  191.3780  176.8580  147.7160 C   0  0  0  0  0  2  0  0  0  0  0  0
  192.4300  175.1690  146.4190 O   0  0  0  0  0  1  0  0  0  0  0  0
  192.2530  175.6220  147.7250 C   0  0  0  0  0  2  0  0  0  0  0  0
  187.6640  178.2290  141.6220 C   0  0  1  0  0  3  0  0  0  0  0  0
  182.9570  178.9400  143.2070 C   0  0  0  0  0  1  0  0  0  0  0  0
  186.4270  179.0180  141.1710 C   0  0  2  0  0  3  0  0  0  0  0  0
  184.1990  178.2490  140.6500 O   0  0  0  0  0  0  0  0  0  0  0  0
  185.5270  179.7470  142.5940 S   0  0  0  0  0  0  0  0  0  0  0  0
  184.3180  178.3800  142.8400 C   0  0  2  0  0  3  0  0  0  0  0  0
  184.2160  177.5020  141.7410 O   0  0  0  0  0  0  0  0  0  0  0  0
  185.5240  178.2570  140.1950 C   0  0  0  0  0  2  0  0  0  0  0  0
  188.8090  178.2080  140.6010 C   0  0  1  0  0  3  0  0  0  0  0  0
  189.9690  176.3760  139.3480 C   0  0  0  0  0  3  0  0  0  0  0  0
  189.5040  176.8650  140.5070 C   0  0  0  0  0  3  0  0  0  0  0  0
  189.7440  177.0720  138.0300 C   0  0  0  0  0  2  0  0  0  0  0  0
  189.0230  179.0970  136.9950 O   0  0  0  0  0  1  0  0  0  0  0  0
  188.3250  178.7170  139.2440 C   0  0  0  0  0  2  0  0  0  0  0  0
  189.4340  178.5570  138.2120 C   0  0  1  0  0  3  0  0  0  0  0  0
  2  1  1  1  0  0  0
  2  6  1  0  0  0  0
  3  4  1  0  0  0  0
  3  5  1  0  0  0  0
  4  2  1  6  0  0  0
  4  5  1  0  0  0  0
  7  6  1  6  0  0  0
  7 12  1  0  0  0  0
  8  7  1  6  0  0  0
  8  9  1  0  0  0  0
 10  8  1  0  0  0  0
 10  9  1  0  0  0  0
 12 13  1  0  0  0  0
 12 11  1  1  0  0  0
 13 14  1  0  0  0  0
 14 16  1  0  0  0  0
 15 16  1  0  0  0  0
 17  1  1  1  0  0  0
 19 17  1  1  0  0  0
 19 21  1  0  0  0  0
 20 23  1  0  0  0  0
 21 22  1  0  0  0  0
 22 18  1  6  0  0  0
 23 22  1  0  0  0  0
 24 20  1  0  0  0  0
 24 19  1  0  0  0  0
 25 17  1  1  0  0  0
 26 27  2  0  0  0  0
 27 25  1  0  0  0  0
 28 31  1  0  0  0  0
 28 26  1  0  0  0  0
 30 25  1  0  0  0  0
 31 29  1  6  0  0  0
 31 30  1  0  0  0  0
M  END
>  <MODEL>
9

>  <REMARK>
 VINA RESULT:      -5.8      2.428      6.487
  Name = 
  12 active torsions:
  status: ('A' for Active; 'I' for Inactive)
    1  A    between atoms: C_1  and  C_24
    2  A    between atoms: C_3  and  C_15
    3  A    between atoms: C_3  and  C_24
    4  A    between atoms: C_4  and  C_27
    5  A    between atoms: C_5  and  C_27
    6  A    between atoms: C_9  and  C_23
    7  A    between atoms: C_15  and  C_20
    8  A    between atoms: C_15  and  C_21
    9  A    between atoms: C_19  and  O_22
   10  A    between atoms: C_19  and  C_24
   11  A    between atoms: C_20  and  C_27
   12  A    between atoms: O_22  and  C_23
                            x       y       z     vdW  Elec       q    Type
                         _______ _______ _______ _____ _____    ______ ____

>  <TORSDO>
F 12

$$$$
