=
 OpenBabel11052413053D

 31 35  0  0  1  0  0  0  0  0999 V2000
  184.9990  178.6280  144.3630 C   0  0  0  0  0  0  0  0  0  0  0  0
  188.7380  178.1050  143.7440 C   0  0  2  0  0  3  0  0  0  0  0  0
  189.2770  177.7180  145.1010 C   0  0  0  0  0  0  0  0  0  0  0  0
  188.0740  177.5210  138.5000 O   0  0  0  0  0  0  0  0  0  0  0  0
  189.2400  177.1370  138.7850 C   0  0  0  0  0  0  0  0  0  0  0  0
  189.1070  176.6210  147.2610 C   0  0  0  0  0  0  0  0  0  0  0  0
  187.2370  178.1210  143.5600 C   0  0  0  0  0  0  0  0  0  0  0  0
  184.4810  178.3810  143.0890 C   0  0  0  0  0  3  0  0  0  0  0  0
  188.5060  177.0810  146.0850 C   0  0  0  0  0  3  0  0  0  0  0  0
  188.8550  177.3820  141.3040 C   0  0  0  0  0  0  0  0  0  0  0  0
  184.0900  179.0220  145.4710 C   0  0  0  0  0  1  0  0  0  0  0  0
  191.6570  178.5480  143.9690 S   0  0  0  0  0  0  0  0  0  0  0  0
  188.3550  176.0230  148.2160 F   0  0  0  0  0  0  0  0  0  0  0  0
  187.5840  177.6270  141.1680 N   0  0  0  0  0  0  0  0  0  0  0  0
  189.4580  177.2480  142.6820 C   0  0  1  0  0  3  0  0  0  0  0  0
  189.6600  177.0740  140.1560 N   0  0  0  0  0  2  0  0  0  0  0  0
  186.3730  178.5190  144.5920 C   0  0  0  0  0  3  0  0  0  0  0  0
  190.4880  176.7530  147.4390 C   0  0  0  0  0  3  0  0  0  0  0  0
  186.7120  177.9120  142.2690 C   0  0  0  0  0  0  0  0  0  0  0  0
  185.3390  178.0330  142.0420 C   0  0  0  0  0  3  0  0  0  0  0  0
  190.9970  177.4060  142.6860 C   0  0  0  0  0  2  0  0  0  0  0  0
  190.6610  177.8420  145.2860 C   0  0  0  0  0  0  0  0  0  0  0  0
  191.2670  177.3540  146.4470 C   0  0  0  0  0  3  0  0  0  0  0  0
  192.1120  176.0050  135.7900 C   0  0  0  0  0  0  0  0  0  0  0  0
  191.4940  176.3740  138.0940 C   0  0  0  0  0  3  0  0  0  0  0  0
  188.5200  177.1360  135.8180 C   0  0  0  0  0  1  0  0  0  0  0  0
  193.3030  175.5390  134.5950 Cl  0  0  0  0  0  0  0  0  0  0  0  0
  192.4440  176.0030  137.1430 C   0  0  0  0  0  3  0  0  0  0  0  0
  189.8670  176.7520  136.3320 C   0  0  0  0  0  0  0  0  0  0  0  0
  190.1960  176.7540  137.7130 C   0  0  0  0  0  0  0  0  0  0  0  0
  190.8290  176.3780  135.3880 C   0  0  0  0  0  3  0  0  0  0  0  0
  1 17  1  0  0  0  0
  1 11  1  0  0  0  0
  2  7  1  1  0  0  0
  2  3  1  0  0  0  0
  3 22  2  0  0  0  0
  3  9  1  0  0  0  0
  4  5  2  0  0  0  0
  5 16  1  0  0  0  0
  6 18  1  0  0  0  0
  6 13  1  0  0  0  0
  7 17  2  0  0  0  0
  8  1  2  0  0  0  0
  9  6  2  0  0  0  0
 10 15  1  0  0  0  0
 12 22  1  0  0  0  0
 14 10  2  0  0  0  0
 14 19  1  0  0  0  0
 15 21  1  6  0  0  0
 15  2  1  0  0  0  0
 16 10  1  0  0  0  0
 19  7  1  0  0  0  0
 20 19  2  0  0  0  0
 20  8  1  0  0  0  0
 21 12  1  0  0  0  0
 22 23  1  0  0  0  0
 23 18  2  0  0  0  0
 24 28  1  0  0  0  0
 26 29  1  0  0  0  0
 27 24  1  0  0  0  0
 28 25  2  0  0  0  0
 29 30  2  0  0  0  0
 30 25  1  0  0  0  0
 30  5  1  0  0  0  0
 31 24  2  0  0  0  0
 31 29  1  0  0  0  0
M  END
>  <MODEL>
1

>  <REMARK>
 VINA RESULT:     -10.0      0.000      0.000
  Name = 
  1 active torsions:
  status: ('A' for Active; 'I' for Inactive)
    1  A    between atoms: C_9  and  C_22
                            x       y       z     vdW  Elec       q    Type
                         _______ _______ _______ _____ _____    ______ ____

>  <TORSDO>
F 1

$$$$
=
 OpenBabel11052413053D

 31 35  0  0  1  0  0  0  0  0999 V2000
  191.2610  176.9050  139.0970 C   0  0  0  0  0  0  0  0  0  0  0  0
  188.5050  177.4960  141.6850 C   0  0  2  0  0  3  0  0  0  0  0  0
  189.2600  177.6660  142.9820 C   0  0  0  0  0  0  0  0  0  0  0  0
  184.9440  178.8850  137.9870 O   0  0  0  0  0  0  0  0  0  0  0  0
  184.4790  179.2140  139.1120 C   0  0  0  0  0  0  0  0  0  0  0  0
  191.1610  178.4190  144.2940 C   0  0  0  0  0  0  0  0  0  0  0  0
  189.3010  177.5180  140.3990 C   0  0  0  0  0  0  0  0  0  0  0  0
  190.6310  177.3490  137.9320 C   0  0  0  0  0  3  0  0  0  0  0  0
  190.5750  178.1490  143.0530 C   0  0  0  0  0  3  0  0  0  0  0  0
  186.6340  178.5860  140.3420 C   0  0  0  0  0  0  0  0  0  0  0  0
  192.6380  176.3510  139.0330 C   0  0  0  0  0  1  0  0  0  0  0  0
  186.8010  177.0080  144.0560 S   0  0  0  0  0  0  0  0  0  0  0  0
  192.4370  178.8660  144.3570 F   0  0  0  0  0  0  0  0  0  0  0  0
  187.2960  178.3720  139.2420 N   0  0  0  0  0  0  0  0  0  0  0  0
  187.3360  178.5030  141.6770 C   0  0  1  0  0  3  0  0  0  0  0  0
  185.2810  179.0620  140.2920 N   0  0  0  0  0  2  0  0  0  0  0  0
  190.5910  176.9700  140.3220 C   0  0  0  0  0  3  0  0  0  0  0  0
  190.4190  178.2540  145.4680 C   0  0  0  0  0  3  0  0  0  0  0  0
  188.6580  177.9260  139.2130 C   0  0  0  0  0  0  0  0  0  0  0  0
  189.3280  177.8480  137.9900 C   0  0  0  0  0  3  0  0  0  0  0  0
  186.3570  178.3380  142.8640 C   0  0  0  0  0  2  0  0  0  0  0  0
  188.5220  177.5090  144.1640 C   0  0  0  0  0  0  0  0  0  0  0  0
  189.0950  177.8080  145.4020 C   0  0  0  0  0  3  0  0  0  0  0  0
  180.5290  180.8940  139.3900 C   0  0  0  0  0  0  0  0  0  0  0  0
  182.8240  180.9980  138.6460 C   0  0  0  0  0  3  0  0  0  0  0  0
  182.2330  177.7500  140.5710 C   0  0  0  0  0  1  0  0  0  0  0  0
  178.9320  181.6030  139.4860 Cl  0  0  0  0  0  0  0  0  0  0  0  0
  181.5520  181.5650  138.7220 C   0  0  0  0  0  3  0  0  0  0  0  0
  182.0510  179.0760  139.9120 C   0  0  0  0  0  0  0  0  0  0  0  0
  183.0990  179.7520  139.2340 C   0  0  0  0  0  0  0  0  0  0  0  0
  180.7790  179.6550  139.9810 C   0  0  0  0  0  3  0  0  0  0  0  0
  1 17  1  0  0  0  0
  2  7  1  6  0  0  0
  2  3  1  0  0  0  0
  3  9  2  0  0  0  0
  3 22  1  0  0  0  0
  4  5  2  0  0  0  0
  5 30  1  0  0  0  0
  5 16  1  0  0  0  0
  6 13  1  0  0  0  0
  6 18  2  0  0  0  0
  8 20  1  0  0  0  0
  8  1  2  0  0  0  0
  9  6  1  0  0  0  0
 10 15  1  0  0  0  0
 11  1  1  0  0  0  0
 12 22  1  0  0  0  0
 14 10  2  0  0  0  0
 15  2  1  0  0  0  0
 15 21  1  1  0  0  0
 16 10  1  0  0  0  0
 17  7  2  0  0  0  0
 19 14  1  0  0  0  0
 19  7  1  0  0  0  0
 20 19  2  0  0  0  0
 21 12  1  0  0  0  0
 22 23  2  0  0  0  0
 23 18  1  0  0  0  0
 24 27  1  0  0  0  0
 24 31  1  0  0  0  0
 25 28  1  0  0  0  0
 25 30  2  0  0  0  0
 28 24  2  0  0  0  0
 29 31  2  0  0  0  0
 29 26  1  0  0  0  0
 30 29  1  0  0  0  0
M  END
>  <MODEL>
2

>  <REMARK>
 VINA RESULT:      -9.6      4.245      7.198
  Name = 
  1 active torsions:
  status: ('A' for Active; 'I' for Inactive)
    1  A    between atoms: C_9  and  C_22
                            x       y       z     vdW  Elec       q    Type
                         _______ _______ _______ _____ _____    ______ ____

>  <TORSDO>
F 1

$$$$
=
 OpenBabel11052413053D

 31 35  0  0  1  0  0  0  0  0999 V2000
  188.8020  178.2070  147.8740 C   0  0  0  0  0  0  0  0  0  0  0  0
  188.2310  178.2600  144.0910 C   0  0  2  0  0  3  0  0  0  0  0  0
  189.4710  177.6050  143.5310 C   0  0  0  0  0  0  0  0  0  0  0  0
  182.9820  178.9420  144.6120 O   0  0  0  0  0  0  0  0  0  0  0  0
  183.2120  178.6250  143.4130 C   0  0  0  0  0  0  0  0  0  0  0  0
  191.2830  175.9890  143.6040 C   0  0  0  0  0  0  0  0  0  0  0  0
  187.9940  178.1600  145.5820 C   0  0  0  0  0  0  0  0  0  0  0  0
  187.4870  178.2330  148.3430 C   0  0  0  0  0  3  0  0  0  0  0  0
  190.2340  176.6620  144.2370 C   0  0  0  0  0  3  0  0  0  0  0  0
  185.6950  178.1880  143.8580 C   0  0  0  0  0  0  0  0  0  0  0  0
  189.9350  178.2110  148.8370 C   0  0  0  0  0  1  0  0  0  0  0  0
  188.6800  178.9420  141.2460 S   0  0  0  0  0  0  0  0  0  0  0  0
  192.0280  175.0950  144.2960 F   0  0  0  0  0  0  0  0  0  0  0  0
  185.5710  178.3220  145.1470 N   0  0  0  0  0  0  0  0  0  0  0  0
  187.0210  177.7780  143.2640 C   0  0  1  0  0  3  0  0  0  0  0  0
  184.5410  178.2660  143.0080 N   0  0  0  0  0  2  0  0  0  0  0  0
  189.0550  178.1920  146.5000 C   0  0  0  0  0  3  0  0  0  0  0  0
  191.5470  176.2190  142.2500 C   0  0  0  0  0  3  0  0  0  0  0  0
  186.6710  178.2270  146.0610 C   0  0  0  0  0  0  0  0  0  0  0  0
  186.4230  178.2530  147.4360 C   0  0  0  0  0  3  0  0  0  0  0  0
  187.1280  178.0940  141.7530 C   0  0  0  0  0  2  0  0  0  0  0  0
  189.7390  177.8260  142.1720 C   0  0  0  0  0  0  0  0  0  0  0  0
  190.7670  177.1300  141.5310 C   0  0  0  0  0  3  0  0  0  0  0  0
  180.1560  178.6340  140.3860 C   0  0  0  0  0  0  0  0  0  0  0  0
  182.4790  178.6280  141.0470 C   0  0  0  0  0  3  0  0  0  0  0  0
  180.2500  178.6280  144.1510 C   0  0  0  0  0  1  0  0  0  0  0  0
  178.9360  178.6370  139.1320 Cl  0  0  0  0  0  0  0  0  0  0  0  0
  181.5080  178.6320  140.0460 C   0  0  0  0  0  3  0  0  0  0  0  0
  180.7410  178.6290  142.7430 C   0  0  0  0  0  0  0  0  0  0  0  0
  182.1200  178.6280  142.4050 C   0  0  0  0  0  0  0  0  0  0  0  0
  179.7770  178.6330  141.7290 C   0  0  0  0  0  3  0  0  0  0  0  0
  1  8  1  0  0  0  0
  1 11  1  0  0  0  0
  2  3  1  6  0  0  0
  2  7  1  0  0  0  0
  3  9  1  0  0  0  0
  5  4  2  0  0  0  0
  6  9  2  0  0  0  0
  6 13  1  0  0  0  0
  7 19  2  0  0  0  0
  7 17  1  0  0  0  0
 10 14  2  0  0  0  0
 12 21  1  0  0  0  0
 12 22  1  0  0  0  0
 14 19  1  0  0  0  0
 15 21  1  6  0  0  0
 15 10  1  0  0  0  0
 15  2  1  0  0  0  0
 16  5  1  0  0  0  0
 16 10  1  0  0  0  0
 17  1  2  0  0  0  0
 18  6  1  0  0  0  0
 19 20  1  0  0  0  0
 20  8  2  0  0  0  0
 22  3  2  0  0  0  0
 23 22  1  0  0  0  0
 23 18  2  0  0  0  0
 24 31  1  0  0  0  0
 25 30  2  0  0  0  0
 27 24  1  0  0  0  0
 28 24  2  0  0  0  0
 28 25  1  0  0  0  0
 29 26  1  0  0  0  0
 30 29  1  0  0  0  0
 30  5  1  0  0  0  0
 31 29  2  0  0  0  0
M  END
>  <MODEL>
3

>  <REMARK>
 VINA RESULT:      -9.6      4.525      7.390
  Name = 
  1 active torsions:
  status: ('A' for Active; 'I' for Inactive)
    1  A    between atoms: C_9  and  C_22
                            x       y       z     vdW  Elec       q    Type
                         _______ _______ _______ _____ _____    ______ ____

>  <TORSDO>
F 1

$$$$
=
 OpenBabel11052413053D

 31 35  0  0  1  0  0  0  0  0999 V2000
  185.8220  178.7100  139.9080 C   0  0  0  0  0  0  0  0  0  0  0  0
  189.2180  178.0330  141.5370 C   0  0  2  0  0  3  0  0  0  0  0  0
  188.8890  177.8810  143.0030 C   0  0  0  0  0  0  0  0  0  0  0  0
  191.4430  176.5560  136.9390 O   0  0  0  0  0  0  0  0  0  0  0  0
  192.2190  176.2100  137.8700 C   0  0  0  0  0  0  0  0  0  0  0  0
  187.4580  177.1780  144.8360 C   0  0  0  0  0  0  0  0  0  0  0  0
  188.0680  178.0390  140.5550 C   0  0  0  0  0  0  0  0  0  0  0  0
  186.0540  178.2530  138.6090 C   0  0  0  0  0  3  0  0  0  0  0  0
  187.6440  177.4350  143.4740 C   0  0  0  0  0  3  0  0  0  0  0  0
  190.5600  176.8950  139.6950 C   0  0  0  0  0  0  0  0  0  0  0  0
  184.5070  179.3040  140.2630 C   0  0  0  0  0  1  0  0  0  0  0  0
  191.5760  178.4660  143.2740 S   0  0  0  0  0  0  0  0  0  0  0  0
  186.2490  176.7670  145.2870 F   0  0  0  0  0  0  0  0  0  0  0  0
  189.6000  177.1310  138.8470 N   0  0  0  0  0  0  0  0  0  0  0  0
  190.3000  176.9940  141.1790 C   0  0  1  0  0  3  0  0  0  0  0  0
  191.8190  176.3810  139.2380 N   0  0  0  0  0  2  0  0  0  0  0  0
  186.8310  178.6220  140.8710 C   0  0  0  0  0  3  0  0  0  0  0  0
  188.5260  177.3190  145.7280 C   0  0  0  0  0  3  0  0  0  0  0  0
  188.3080  177.6160  139.2320 C   0  0  0  0  0  0  0  0  0  0  0  0
  187.2990  177.7160  138.2700 C   0  0  0  0  0  3  0  0  0  0  0  0
  191.5980  177.1280  142.0110 C   0  0  0  0  0  2  0  0  0  0  0  0
  189.9560  178.0140  143.9040 C   0  0  0  0  0  0  0  0  0  0  0  0
  189.7790  177.7270  145.2600 C   0  0  0  0  0  3  0  0  0  0  0  0
  196.1010  174.5030  137.1470 C   0  0  0  0  0  0  0  0  0  0  0  0
  194.2790  175.0630  138.6300 C   0  0  0  0  0  3  0  0  0  0  0  0
  193.4540  176.2040  135.0780 C   0  0  0  0  0  1  0  0  0  0  0  0
  197.6820  173.8010  136.8850 Cl  0  0  0  0  0  0  0  0  0  0  0  0
  195.5400  174.5030  138.4240 C   0  0  0  0  0  3  0  0  0  0  0  0
  194.1340  175.6280  136.2740 C   0  0  0  0  0  0  0  0  0  0  0  0
  193.5560  175.6330  137.5700 C   0  0  0  0  0  0  0  0  0  0  0  0
  195.4000  175.0630  136.0790 C   0  0  0  0  0  3  0  0  0  0  0  0
  1 11  1  0  0  0  0
  1 17  1  0  0  0  0
  2  7  1  6  0  0  0
  2  3  1  0  0  0  0
  3  9  2  0  0  0  0
  3 22  1  0  0  0  0
  4  5  2  0  0  0  0
  5 16  1  0  0  0  0
  6 13  1  0  0  0  0
  6 18  2  0  0  0  0
  7 17  2  0  0  0  0
  8  1  2  0  0  0  0
  9  6  1  0  0  0  0
 10 15  1  0  0  0  0
 12 22  1  0  0  0  0
 14 19  1  0  0  0  0
 14 10  2  0  0  0  0
 15  2  1  0  0  0  0
 15 21  1  1  0  0  0
 16 10  1  0  0  0  0
 19  7  1  0  0  0  0
 20  8  1  0  0  0  0
 20 19  2  0  0  0  0
 21 12  1  0  0  0  0
 22 23  2  0  0  0  0
 23 18  1  0  0  0  0
 24 28  1  0  0  0  0
 26 29  1  0  0  0  0
 27 24  1  0  0  0  0
 28 25  2  0  0  0  0
 29 30  2  0  0  0  0
 30  5  1  0  0  0  0
 30 25  1  0  0  0  0
 31 29  1  0  0  0  0
 31 24  2  0  0  0  0
M  END
>  <MODEL>
4

>  <REMARK>
 VINA RESULT:      -9.1      2.290      3.502
  Name = 
  1 active torsions:
  status: ('A' for Active; 'I' for Inactive)
    1  A    between atoms: C_9  and  C_22
                            x       y       z     vdW  Elec       q    Type
                         _______ _______ _______ _____ _____    ______ ____

>  <TORSDO>
F 1

$$$$
=
 OpenBabel11052413053D

 31 35  0  0  1  0  0  0  0  0999 V2000
  180.7410  178.9060  143.6020 C   0  0  0  0  0  0  0  0  0  0  0  0
  182.8940  178.4580  140.4700 C   0  0  2  0  0  3  0  0  0  0  0  0
  182.0650  179.0820  139.3730 C   0  0  0  0  0  0  0  0  0  0  0  0
  187.3380  177.7050  143.2930 O   0  0  0  0  0  0  0  0  0  0  0  0
  187.6730  177.9040  142.0940 C   0  0  0  0  0  0  0  0  0  0  0  0
  180.5120  180.7410  138.5140 C   0  0  0  0  0  0  0  0  0  0  0  0
  182.4660  178.7020  141.9010 C   0  0  0  0  0  0  0  0  0  0  0  0
  181.7180  178.8950  144.6000 C   0  0  0  0  0  3  0  0  0  0  0  0
  181.1360  180.1100  139.5950 C   0  0  0  0  0  3  0  0  0  0  0  0
  185.2770  178.4440  141.3680 C   0  0  0  0  0  0  0  0  0  0  0  0
  179.3060  179.0270  143.9680 C   0  0  0  0  0  1  0  0  0  0  0  0
  183.6800  177.5030  137.7810 S   0  0  0  0  0  0  0  0  0  0  0  0
  179.6020  181.7190  138.7350 F   0  0  0  0  0  0  0  0  0  0  0  0
  184.8210  178.4380  142.5870 N   0  0  0  0  0  0  0  0  0  0  0  0
  184.3710  178.8240  140.2220 C   0  0  1  0  0  3  0  0  0  0  0  0
  186.6780  178.2530  141.1190 N   0  0  0  0  0  2  0  0  0  0  0  0
  181.1120  178.7890  142.2600 C   0  0  0  0  0  3  0  0  0  0  0  0
  180.8480  180.3820  137.2050 C   0  0  0  0  0  3  0  0  0  0  0  0
  183.4420  178.6520  142.9150 C   0  0  0  0  0  0  0  0  0  0  0  0
  183.0650  178.7580  144.2570 C   0  0  0  0  0  3  0  0  0  0  0  0
  184.9100  178.3600  138.8470 C   0  0  0  0  0  2  0  0  0  0  0  0
  182.4000  178.7330  138.0570 C   0  0  0  0  0  0  0  0  0  0  0  0
  181.8010  179.3850  136.9760 C   0  0  0  0  0  3  0  0  0  0  0  0
  191.7310  177.5030  140.7260 C   0  0  0  0  0  0  0  0  0  0  0  0
  189.3520  177.5320  140.3110 C   0  0  0  0  0  3  0  0  0  0  0  0
  190.0260  178.1360  144.0240 C   0  0  0  0  0  1  0  0  0  0  0  0
  193.3710  177.3350  140.1390 Cl  0  0  0  0  0  0  0  0  0  0  0  0
  190.6590  177.3970  139.8410 C   0  0  0  0  0  3  0  0  0  0  0  0
  190.1890  177.8800  142.5640 C   0  0  0  0  0  0  0  0  0  0  0  0
  189.0910  177.7740  141.6700 C   0  0  0  0  0  0  0  0  0  0  0  0
  191.4950  177.7430  142.0800 C   0  0  0  0  0  3  0  0  0  0  0  0
  1 11  1  0  0  0  0
  1  8  1  0  0  0  0
  2  3  1  6  0  0  0
  2  7  1  0  0  0  0
  3  9  1  0  0  0  0
  5  4  2  0  0  0  0
  6 13  1  0  0  0  0
  6  9  2  0  0  0  0
  7 17  1  0  0  0  0
  7 19  2  0  0  0  0
 10 14  2  0  0  0  0
 12 22  1  0  0  0  0
 12 21  1  0  0  0  0
 14 19  1  0  0  0  0
 15 21  1  6  0  0  0
 15  2  1  0  0  0  0
 15 10  1  0  0  0  0
 16 10  1  0  0  0  0
 16  5  1  0  0  0  0
 17  1  2  0  0  0  0
 18  6  1  0  0  0  0
 19 20  1  0  0  0  0
 20  8  2  0  0  0  0
 22  3  2  0  0  0  0
 23 18  2  0  0  0  0
 23 22  1  0  0  0  0
 24 31  1  0  0  0  0
 25 30  2  0  0  0  0
 27 24  1  0  0  0  0
 28 25  1  0  0  0  0
 28 24  2  0  0  0  0
 29 26  1  0  0  0  0
 30  5  1  0  0  0  0
 30 29  1  0  0  0  0
 31 29  2  0  0  0  0
M  END
>  <MODEL>
5

>  <REMARK>
 VINA RESULT:      -8.8      4.678      7.572
  Name = 
  1 active torsions:
  status: ('A' for Active; 'I' for Inactive)
    1  A    between atoms: C_9  and  C_22
                            x       y       z     vdW  Elec       q    Type
                         _______ _______ _______ _____ _____    ______ ____

>  <TORSDO>
F 1

$$$$
=
 OpenBabel11052413053D

 31 35  0  0  1  0  0  0  0  0999 V2000
  186.8000  178.1960  146.8440 C   0  0  0  0  0  0  0  0  0  0  0  0
  187.1240  178.3160  143.0330 C   0  0  2  0  0  3  0  0  0  0  0  0
  188.4560  177.6560  142.7650 C   0  0  0  0  0  0  0  0  0  0  0  0
  181.9040  179.0530  142.3320 O   0  0  0  0  0  0  0  0  0  0  0  0
  182.4040  178.7530  141.2140 C   0  0  0  0  0  0  0  0  0  0  0  0
  190.1880  176.0170  143.2280 C   0  0  0  0  0  0  0  0  0  0  0  0
  186.5470  178.1960  144.4260 C   0  0  0  0  0  0  0  0  0  0  0  0
  185.4120  178.2310  146.9940 C   0  0  0  0  0  3  0  0  0  0  0  0
  189.0260  176.6930  143.6120 C   0  0  0  0  0  3  0  0  0  0  0  0
  184.7120  178.2790  142.2160 C   0  0  0  0  0  0  0  0  0  0  0  0
  187.6770  178.1710  148.0430 C   0  0  0  0  0  1  0  0  0  0  0  0
  188.2290  179.0390  140.3840 S   0  0  0  0  0  0  0  0  0  0  0  0
  190.7440  175.1030  144.0580 F   0  0  0  0  0  0  0  0  0  0  0  0
  184.2920  178.3930  143.4430 N   0  0  0  0  0  0  0  0  0  0  0  0
  186.1370  177.8630  141.9390 C   0  0  1  0  0  3  0  0  0  0  0  0
  183.7890  178.3840  141.1220 N   0  0  0  0  0  2  0  0  0  0  0  0
  187.3650  178.2000  145.5660 C   0  0  0  0  0  3  0  0  0  0  0  0
  190.7610  176.2660  141.9770 C   0  0  0  0  0  3  0  0  0  0  0  0
  185.1490  178.2700  144.5860 C   0  0  0  0  0  0  0  0  0  0  0  0
  184.5880  178.2780  145.8660 C   0  0  0  0  0  3  0  0  0  0  0  0
  186.5950  178.2010  140.5000 C   0  0  0  0  0  2  0  0  0  0  0  0
  189.0340  177.8950  141.5100 C   0  0  0  0  0  0  0  0  0  0  0  0
  190.1780  177.1970  141.1130 C   0  0  0  0  0  3  0  0  0  0  0  0
  180.0320  178.9940  137.6340 C   0  0  0  0  0  0  0  0  0  0  0  0
  181.3790  180.0250  139.3520 C   0  0  0  0  0  3  0  0  0  0  0  0
  181.1270  176.2660  139.9880 C   0  0  0  0  0  1  0  0  0  0  0  0
  179.0710  179.1240  136.1770 Cl  0  0  0  0  0  0  0  0  0  0  0  0
  180.6140  180.1310  138.1910 C   0  0  0  0  0  3  0  0  0  0  0  0
  180.9810  177.6310  139.4060 C   0  0  0  0  0  0  0  0  0  0  0  0
  181.5770  178.7850  139.9800 C   0  0  0  0  0  0  0  0  0  0  0  0
  180.2150  177.7510  138.2400 C   0  0  0  0  0  3  0  0  0  0  0  0
  1  8  1  0  0  0  0
  1 11  1  0  0  0  0
  2  3  1  1  0  0  0
  2  7  1  0  0  0  0
  3  9  1  0  0  0  0
  5  4  2  0  0  0  0
  6  9  2  0  0  0  0
  6 13  1  0  0  0  0
  7 19  2  0  0  0  0
  7 17  1  0  0  0  0
 10 14  2  0  0  0  0
 12 21  1  0  0  0  0
 12 22  1  0  0  0  0
 14 19  1  0  0  0  0
 15 21  1  6  0  0  0
 15 10  1  0  0  0  0
 15  2  1  0  0  0  0
 16  5  1  0  0  0  0
 16 10  1  0  0  0  0
 17  1  2  0  0  0  0
 18  6  1  0  0  0  0
 19 20  1  0  0  0  0
 20  8  2  0  0  0  0
 22  3  2  0  0  0  0
 23 22  1  0  0  0  0
 23 18  2  0  0  0  0
 24 28  2  0  0  0  0
 24 31  1  0  0  0  0
 25 30  2  0  0  0  0
 27 24  1  0  0  0  0
 28 25  1  0  0  0  0
 29 30  1  0  0  0  0
 29 26  1  0  0  0  0
 30  5  1  0  0  0  0
 31 29  2  0  0  0  0
M  END
>  <MODEL>
6

>  <REMARK>
 VINA RESULT:      -8.5      4.469      6.888
  Name = 
  1 active torsions:
  status: ('A' for Active; 'I' for Inactive)
    1  A    between atoms: C_9  and  C_22
                            x       y       z     vdW  Elec       q    Type
                         _______ _______ _______ _____ _____    ______ ____

>  <TORSDO>
F 1

$$$$
=
 OpenBabel11052413053D

 31 35  0  0  1  0  0  0  0  0999 V2000
  186.7840  178.3500  137.5940 C   0  0  0  0  0  0  0  0  0  0  0  0
  185.9970  178.6160  141.3290 C   0  0  2  0  0  3  0  0  0  0  0  0
  184.4880  178.5850  141.3820 C   0  0  0  0  0  0  0  0  0  0  0  0
  190.8820  177.0710  142.7540 O   0  0  0  0  0  0  0  0  0  0  0  0
  190.1480  177.0170  143.7780 C   0  0  0  0  0  0  0  0  0  0  0  0
  182.3130  177.8340  140.6020 C   0  0  0  0  0  0  0  0  0  0  0  0
  186.6640  178.2550  140.0210 C   0  0  0  0  0  0  0  0  0  0  0  0
  188.0630  177.7920  137.6310 C   0  0  0  0  0  3  0  0  0  0  0  0
  183.6940  177.9500  140.4140 C   0  0  0  0  0  3  0  0  0  0  0  0
  188.0250  177.5630  142.4550 C   0  0  0  0  0  0  0  0  0  0  0  0
  186.1600  178.6940  136.2900 C   0  0  0  0  0  1  0  0  0  0  0  0
  184.9310  179.7530  143.8460 S   0  0  0  0  0  0  0  0  0  0  0  0
  181.5490  177.2380  139.6560 F   0  0  0  0  0  0  0  0  0  0  0  0
  188.6250  177.4820  141.3020 N   0  0  0  0  0  0  0  0  0  0  0  0
  186.5330  177.7920  142.5170 C   0  0  1  0  0  3  0  0  0  0  0  0
  188.7390  177.2720  143.6650 N   0  0  0  0  0  2  0  0  0  0  0  0
  186.0960  178.6000  138.7850 C   0  0  0  0  0  3  0  0  0  0  0  0
  181.7250  178.3090  141.7790 C   0  0  0  0  0  3  0  0  0  0  0  0
  187.9700  177.7280  140.0510 C   0  0  0  0  0  0  0  0  0  0  0  0
  188.6590  177.4910  138.8590 C   0  0  0  0  0  3  0  0  0  0  0  0
  186.0590  178.3000  143.9000 C   0  0  0  0  0  2  0  0  0  0  0  0
  183.8900  179.0530  142.5610 C   0  0  0  0  0  0  0  0  0  0  0  0
  182.5150  178.9090  142.7640 C   0  0  0  0  0  3  0  0  0  0  0  0
  191.9200  176.0150  147.5670 C   0  0  0  0  0  0  0  0  0  0  0  0
  191.8370  175.8450  145.1600 C   0  0  0  0  0  3  0  0  0  0  0  0
  189.0370  178.1340  146.3930 C   0  0  0  0  0  1  0  0  0  0  0  0
  192.6630  175.5890  149.0930 Cl  0  0  0  0  0  0  0  0  0  0  0  0
  192.4310  175.5040  146.3750 C   0  0  0  0  0  3  0  0  0  0  0  0
  190.2120  177.2180  146.3290 C   0  0  0  0  0  0  0  0  0  0  0  0
  190.7250  176.7010  145.1100 C   0  0  0  0  0  0  0  0  0  0  0  0
  190.8160  176.8680  147.5420 C   0  0  0  0  0  3  0  0  0  0  0  0
  1  8  2  0  0  0  0
  1 17  1  0  0  0  0
  2  7  1  6  0  0  0
  2  3  1  0  0  0  0
  2 15  1  0  0  0  0
  3 22  1  0  0  0  0
  4  5  2  0  0  0  0
  5 30  1  0  0  0  0
  6 18  2  0  0  0  0
  7 19  1  0  0  0  0
  8 20  1  0  0  0  0
  9  6  1  0  0  0  0
  9  3  2  0  0  0  0
 10 15  1  0  0  0  0
 10 16  1  0  0  0  0
 11  1  1  0  0  0  0
 12 21  1  0  0  0  0
 13  6  1  0  0  0  0
 14 10  2  0  0  0  0
 15 21  1  1  0  0  0
 16  5  1  0  0  0  0
 17  7  2  0  0  0  0
 18 23  1  0  0  0  0
 19 14  1  0  0  0  0
 20 19  2  0  0  0  0
 22 23  2  0  0  0  0
 22 12  1  0  0  0  0
 24 27  1  0  0  0  0
 25 28  1  0  0  0  0
 28 24  2  0  0  0  0
 29 26  1  0  0  0  0
 29 31  2  0  0  0  0
 30 25  2  0  0  0  0
 30 29  1  0  0  0  0
 31 24  1  0  0  0  0
M  END
>  <MODEL>
7

>  <REMARK>
 VINA RESULT:      -8.1      4.094      7.800
  Name = 
  1 active torsions:
  status: ('A' for Active; 'I' for Inactive)
    1  A    between atoms: C_9  and  C_22
                            x       y       z     vdW  Elec       q    Type
                         _______ _______ _______ _____ _____    ______ ____

>  <TORSDO>
F 1

$$$$
=
 OpenBabel11052413053D

 31 35  0  0  1  0  0  0  0  0999 V2000
  189.4470  177.4750  136.0710 C   0  0  0  0  0  0  0  0  0  0  0  0
  186.7810  178.2510  138.7040 C   0  0  2  0  0  3  0  0  0  0  0  0
  185.4790  178.0150  137.9770 C   0  0  0  0  0  0  0  0  0  0  0  0
  190.1990  177.6780  142.7380 O   0  0  0  0  0  0  0  0  0  0  0  0
  189.0340  177.6930  143.2200 C   0  0  0  0  0  0  0  0  0  0  0  0
  184.0790  176.8420  136.3750 C   0  0  0  0  0  0  0  0  0  0  0  0
  188.0540  177.7730  138.0410 C   0  0  0  0  0  0  0  0  0  0  0  0
  190.5260  177.1180  136.8820 C   0  0  0  0  0  3  0  0  0  0  0  0
  185.3430  177.1200  136.9050 C   0  0  0  0  0  3  0  0  0  0  0  0
  187.9280  177.7010  140.9110 C   0  0  0  0  0  0  0  0  0  0  0  0
  189.6040  177.5020  134.5940 C   0  0  0  0  0  1  0  0  0  0  0  0
  184.5030  179.6320  139.9940 S   0  0  0  0  0  0  0  0  0  0  0  0
  183.9570  175.9930  135.3270 F   0  0  0  0  0  0  0  0  0  0  0  0
  189.0530  177.5140  140.2820 N   0  0  0  0  0  0  0  0  0  0  0  0
  186.6270  177.7230  140.1450 C   0  0  1  0  0  3  0  0  0  0  0  0
  187.8960  177.7220  142.3460 N   0  0  0  0  0  2  0  0  0  0  0  0
  188.2230  177.8210  136.6490 C   0  0  0  0  0  3  0  0  0  0  0  0
  182.9400  177.4200  136.9440 C   0  0  0  0  0  3  0  0  0  0  0  0
  189.1590  177.4500  138.8550 C   0  0  0  0  0  0  0  0  0  0  0  0
  190.3840  177.1160  138.2720 C   0  0  0  0  0  3  0  0  0  0  0  0
  185.4730  178.3850  140.9360 C   0  0  0  0  0  2  0  0  0  0  0  0
  184.3300  178.5850  138.5450 C   0  0  0  0  0  0  0  0  0  0  0  0
  183.0640  178.2830  138.0360 C   0  0  0  0  0  3  0  0  0  0  0  0
  188.2710  177.7120  147.4530 C   0  0  0  0  0  0  0  0  0  0  0  0
  187.5130  177.8790  145.1670 C   0  0  0  0  0  3  0  0  0  0  0  0
  191.2900  177.3010  145.2390 C   0  0  0  0  0  1  0  0  0  0  0  0
  187.9290  177.7240  149.1690 Cl  0  0  0  0  0  0  0  0  0  0  0  0
  187.2380  177.8900  146.5340 C   0  0  0  0  0  3  0  0  0  0  0  0
  189.8670  177.5100  145.6340 C   0  0  0  0  0  0  0  0  0  0  0  0
  188.8210  177.6910  144.6910 C   0  0  0  0  0  0  0  0  0  0  0  0
  189.5780  177.5230  147.0040 C   0  0  0  0  0  3  0  0  0  0  0  0
  1 17  2  0  0  0  0
  1  8  1  0  0  0  0
  2  3  1  6  0  0  0
  2 15  1  0  0  0  0
  3 22  1  0  0  0  0
  4  5  2  0  0  0  0
  5 30  1  0  0  0  0
  6  9  1  0  0  0  0
  6 18  2  0  0  0  0
  7  2  1  0  0  0  0
  7 19  2  0  0  0  0
  8 20  2  0  0  0  0
  9  3  2  0  0  0  0
 10 16  1  0  0  0  0
 11  1  1  0  0  0  0
 12 21  1  0  0  0  0
 13  6  1  0  0  0  0
 14 10  2  0  0  0  0
 15 10  1  0  0  0  0
 15 21  1  1  0  0  0
 16  5  1  0  0  0  0
 17  7  1  0  0  0  0
 18 23  1  0  0  0  0
 19 14  1  0  0  0  0
 20 19  1  0  0  0  0
 22 12  1  0  0  0  0
 23 22  2  0  0  0  0
 24 27  1  0  0  0  0
 25 28  1  0  0  0  0
 26 29  1  0  0  0  0
 28 24  2  0  0  0  0
 29 31  2  0  0  0  0
 30 25  2  0  0  0  0
 30 29  1  0  0  0  0
 31 24  1  0  0  0  0
M  END
>  <MODEL>
8

>  <REMARK>
 VINA RESULT:      -8.1      4.649      9.010
  Name = 
  1 active torsions:
  status: ('A' for Active; 'I' for Inactive)
    1  A    between atoms: C_9  and  C_22
                            x       y       z     vdW  Elec       q    Type
                         _______ _______ _______ _____ _____    ______ ____

>  <TORSDO>
F 1

$$$$
=
 OpenBabel11052413053D

 31 35  0  0  1  0  0  0  0  0999 V2000
  190.7080  177.4400  142.4300 C   0  0  0  0  0  0  0  0  0  0  0  0
  189.0690  177.8890  139.0010 C   0  0  2  0  0  3  0  0  0  0  0  0
  189.9480  177.0820  138.0750 C   0  0  0  0  0  0  0  0  0  0  0  0
  184.4250  179.3990  141.1080 O   0  0  0  0  0  0  0  0  0  0  0  0
  184.2300  179.1450  139.8880 C   0  0  0  0  0  0  0  0  0  0  0  0
  191.3710  175.1840  137.5530 C   0  0  0  0  0  0  0  0  0  0  0  0
  189.2670  177.7120  140.4910 C   0  0  0  0  0  0  0  0  0  0  0  0
  189.6170  177.6490  143.2760 C   0  0  0  0  0  3  0  0  0  0  0  0
  190.6970  175.9720  138.4920 C   0  0  0  0  0  3  0  0  0  0  0  0
  186.6090  178.2630  139.5470 C   0  0  0  0  0  0  0  0  0  0  0  0
  192.0530  177.1770  143.0030 C   0  0  0  0  0  1  0  0  0  0  0  0
  188.7800  178.7110  136.1720 S   0  0  0  0  0  0  0  0  0  0  0  0
  192.1090  174.1250  137.9640 F   0  0  0  0  0  0  0  0  0  0  0  0
  186.8960  178.3130  140.8160 N   0  0  0  0  0  0  0  0  0  0  0  0
  187.6030  177.6850  138.5680 C   0  0  1  0  0  3  0  0  0  0  0  0
  185.2920  178.6010  139.0900 N   0  0  0  0  0  2  0  0  0  0  0  0
  190.5380  177.4920  141.0440 C   0  0  0  0  0  3  0  0  0  0  0  0
  191.2630  175.4740  136.1890 C   0  0  0  0  0  3  0  0  0  0  0  0
  188.1790  177.9610  141.3500 C   0  0  0  0  0  0  0  0  0  0  0  0
  188.3560  177.9200  142.7360 C   0  0  0  0  0  3  0  0  0  0  0  0
  187.3170  178.0980  137.1040 C   0  0  0  0  0  2  0  0  0  0  0  0
  189.8400  177.3620  136.7050 C   0  0  0  0  0  0  0  0  0  0  0  0
  190.4880  176.5570  135.7640 C   0  0  0  0  0  3  0  0  0  0  0  0
  180.4560  180.0550  138.0380 C   0  0  0  0  0  0  0  0  0  0  0  0
  182.6850  180.6870  138.7180 C   0  0  0  0  0  3  0  0  0  0  0  0
  182.0040  177.0620  139.7190 C   0  0  0  0  0  1  0  0  0  0  0  0
  178.9310  180.4560  137.2790 Cl  0  0  0  0  0  0  0  0  0  0  0  0
  181.4700  181.0090  138.1130 C   0  0  0  0  0  3  0  0  0  0  0  0
  181.8720  178.4460  139.1780 C   0  0  0  0  0  0  0  0  0  0  0  0
  182.9100  179.4110  139.2590 C   0  0  0  0  0  0  0  0  0  0  0  0
  180.6570  178.7810  138.5680 C   0  0  0  0  0  3  0  0  0  0  0  0
  1 11  1  0  0  0  0
  1  8  1  0  0  0  0
  2  3  1  6  0  0  0
  2  7  1  0  0  0  0
  3  9  1  0  0  0  0
  5  4  2  0  0  0  0
  6 13  1  0  0  0  0
  6  9  2  0  0  0  0
  7 17  1  0  0  0  0
  7 19  2  0  0  0  0
 10 14  2  0  0  0  0
 12 22  1  0  0  0  0
 12 21  1  0  0  0  0
 14 19  1  0  0  0  0
 15 21  1  6  0  0  0
 15  2  1  0  0  0  0
 15 10  1  0  0  0  0
 16 10  1  0  0  0  0
 16  5  1  0  0  0  0
 17  1  2  0  0  0  0
 18  6  1  0  0  0  0
 19 20  1  0  0  0  0
 20  8  2  0  0  0  0
 22  3  2  0  0  0  0
 23 18  2  0  0  0  0
 23 22  1  0  0  0  0
 24 28  2  0  0  0  0
 24 31  1  0  0  0  0
 25 30  2  0  0  0  0
 27 24  1  0  0  0  0
 28 25  1  0  0  0  0
 29 30  1  0  0  0  0
 29 26  1  0  0  0  0
 30  5  1  0  0  0  0
 31 29  2  0  0  0  0
M  END
>  <MODEL>
9

>  <REMARK>
 VINA RESULT:      -8.0      4.740      8.129
  Name = 
  1 active torsions:
  status: ('A' for Active; 'I' for Inactive)
    1  A    between atoms: C_9  and  C_22
                            x       y       z     vdW  Elec       q    Type
                         _______ _______ _______ _____ _____    ______ ____

>  <TORSDO>
F 1

$$$$
