=
 OpenBabel11052413443D

 27 31  0  0  1  0  0  0  0  0999 V2000
  186.8220  177.9790  141.7740 N   0  0  0  0  0  0  0  0  0  0  0  0
  187.4860  177.6770  144.2540 C   0  0  1  0  0  3  0  0  0  0  0  0
  189.8140  176.5780  142.8200 S   0  0  0  0  0  0  0  0  0  0  0  0
  189.7070  176.9270  147.6110 N   0  0  0  0  0  0  0  0  0  0  0  0
  192.0010  175.9400  147.7580 C   0  0  0  0  0  1  0  0  0  0  0  0
  186.9100  177.9320  145.6250 C   0  0  0  0  0  3  0  0  0  0  0  0
  190.8430  176.4930  145.5880 N   0  0  0  0  0  0  0  0  0  0  0  0
  190.7150  177.3900  139.1230 C   0  0  0  0  0  3  0  0  0  0  0  0
  191.9630  176.9520  144.9170 C   0  0  0  0  0  1  0  0  0  0  0  0
  189.8660  178.0160  138.2880 C   0  0  0  0  0  3  0  0  0  0  0  0
  189.7380  177.4480  145.3800 C   0  0  2  0  0  3  0  0  0  0  0  0
  186.5270  177.9450  143.0700 C   0  0  0  0  0  0  0  0  0  0  0  0
  191.0360  176.8400  146.9570 C   0  0  1  0  0  3  0  0  0  0  0  0
  188.9770  177.3800  146.6140 C   0  0  0  0  0  0  0  0  0  0  0  0
  188.0040  177.8360  140.9810 C   0  0  0  0  0  0  0  0  0  0  0  0
  188.7890  177.2380  144.1420 C   0  0  1  0  0  3  0  0  0  0  0  0
  190.2560  176.6220  140.3330 C   0  0  0  0  0  2  0  0  0  0  0  0
  187.5840  177.7340  146.7500 N   0  0  0  0  0  0  0  0  0  0  0  0
  188.4670  178.3450  138.4490 C   0  0  0  0  0  3  0  0  0  0  0  0
  187.6860  178.3240  139.5680 C   0  0  0  0  0  3  0  0  0  0  0  0
  189.1810  177.2470  141.2420 C   0  0  0  0  0  0  0  0  0  0  0  0
  182.4710  179.0380  143.8680 C   0  0  0  0  0  3  0  0  0  0  0  0
  185.1030  178.3110  143.3710 C   0  0  0  0  0  0  0  0  0  0  0  0
  184.1720  178.3530  142.3120 C   0  0  0  0  0  3  0  0  0  0  0  0
  182.8640  178.6930  142.5700 C   0  0  0  0  0  3  0  0  0  0  0  0
  183.4080  179.0670  144.9150 C   0  0  0  0  0  3  0  0  0  0  0  0
  184.7150  178.7030  144.6650 C   0  0  0  0  0  3  0  0  0  0  0  0
  1 12  2  0  0  0  0
  2  6  1  6  0  0  0
  6 18  2  0  0  0  0
  7 13  1  0  0  0  0
  8 17  1  0  0  0  0
  9  7  1  0  0  0  0
 10 19  1  0  0  0  0
 10  8  2  0  0  0  0
 11  7  1  0  0  0  0
 11 14  1  1  0  0  0
 12 23  1  0  0  0  0
 12  2  1  0  0  0  0
 13  4  1  0  0  0  0
 13  5  1  1  0  0  0
 14 18  1  0  0  0  0
 14  4  2  0  0  0  0
 15 21  2  0  0  0  0
 15  1  1  0  0  0  0
 16  3  1  6  0  0  0
 16  2  1  0  0  0  0
 16 11  1  0  0  0  0
 17 21  1  0  0  0  0
 19 20  2  0  0  0  0
 20 15  1  0  0  0  0
 21  3  1  0  0  0  0
 22 26  1  0  0  0  0
 23 27  1  0  0  0  0
 24 25  1  0  0  0  0
 24 23  2  0  0  0  0
 25 22  2  0  0  0  0
 27 26  2  0  0  0  0
M  END
>  <MODEL>
1

>  <REMARK>
 VINA RESULT:     -10.6      0.000      0.000
  Name = 
  1 active torsions:
  status: ('A' for Active; 'I' for Inactive)
    1  A    between atoms: C_9  and  C_15
                            x       y       z     vdW  Elec       q    Type
                         _______ _______ _______ _____ _____    ______ ____

>  <TORSDO>
F 1

$$$$
=
 OpenBabel11052413443D

 27 31  0  0  1  0  0  0  0  0999 V2000
  189.6220  177.3640  142.8540 N   0  0  0  0  0  0  0  0  0  0  0  0
  187.4220  177.8490  144.1220 C   0  0  1  0  0  3  0  0  0  0  0  0
  186.7680  178.6420  141.3610 S   0  0  0  0  0  0  0  0  0  0  0  0
  183.5000  178.7500  144.8830 N   0  0  0  0  0  0  0  0  0  0  0  0
  181.7680  179.5810  143.2820 C   0  0  0  0  0  1  0  0  0  0  0  0
  186.8760  177.7640  145.5270 C   0  0  0  0  0  3  0  0  0  0  0  0
  184.1020  178.9120  142.6050 N   0  0  0  0  0  0  0  0  0  0  0  0
  188.6860  177.4270  138.2010 C   0  0  0  0  0  3  0  0  0  0  0  0
  183.7600  178.3150  141.4060 C   0  0  0  0  0  1  0  0  0  0  0  0
  189.8670  176.7880  138.2690 C   0  0  0  0  0  3  0  0  0  0  0  0
  185.0250  178.0220  143.3350 C   0  0  2  0  0  3  0  0  0  0  0  0
  188.9310  177.5400  143.9770 C   0  0  0  0  0  0  0  0  0  0  0  0
  183.0050  178.6810  143.4860 C   0  0  1  0  0  3  0  0  0  0  0  0
  184.7130  178.2580  144.7320 C   0  0  0  0  0  0  0  0  0  0  0  0
  189.3290  177.3490  141.4540 C   0  0  0  0  0  0  0  0  0  0  0  0
  186.5720  178.1820  143.0880 C   0  0  1  0  0  3  0  0  0  0  0  0
  188.1830  178.3350  139.2910 C   0  0  0  0  0  2  0  0  0  0  0  0
  185.6120  178.0180  145.8360 N   0  0  0  0  0  0  0  0  0  0  0  0
  190.7540  176.5750  139.3920 C   0  0  0  0  0  3  0  0  0  0  0  0
  190.5340  176.7550  140.7260 C   0  0  0  0  0  3  0  0  0  0  0  0
  188.3120  177.8750  140.7550 C   0  0  0  0  0  0  0  0  0  0  0  0
  191.2410  176.7980  147.4970 C   0  0  0  0  0  3  0  0  0  0  0  0
  189.7370  177.3050  145.2200 C   0  0  0  0  0  0  0  0  0  0  0  0
  191.0010  176.6890  145.1070 C   0  0  0  0  0  3  0  0  0  0  0  0
  191.7500  176.4610  146.2380 C   0  0  0  0  0  3  0  0  0  0  0  0
  189.9530  177.3470  147.6250 C   0  0  0  0  0  3  0  0  0  0  0  0
  189.2090  177.6000  146.4910 C   0  0  0  0  0  3  0  0  0  0  0  0
  1 12  2  0  0  0  0
  2  6  1  6  0  0  0
  6 18  2  0  0  0  0
  7 11  1  0  0  0  0
  7 13  1  0  0  0  0
  8 10  2  0  0  0  0
  8 17  1  0  0  0  0
  9  7  1  0  0  0  0
 10 19  1  0  0  0  0
 11 14  1  1  0  0  0
 12  2  1  0  0  0  0
 12 23  1  0  0  0  0
 13  5  1  1  0  0  0
 13  4  1  0  0  0  0
 14  4  2  0  0  0  0
 14 18  1  0  0  0  0
 15  1  1  0  0  0  0
 16  3  1  6  0  0  0
 16 11  1  0  0  0  0
 16  2  1  0  0  0  0
 17 21  1  0  0  0  0
 19 20  2  0  0  0  0
 20 15  1  0  0  0  0
 21  3  1  0  0  0  0
 21 15  2  0  0  0  0
 22 26  1  0  0  0  0
 23 27  1  0  0  0  0
 24 23  2  0  0  0  0
 24 25  1  0  0  0  0
 25 22  2  0  0  0  0
 27 26  2  0  0  0  0
M  END
>  <MODEL>
2

>  <REMARK>
 VINA RESULT:     -10.3      1.637      5.757
  Name = 
  1 active torsions:
  status: ('A' for Active; 'I' for Inactive)
    1  A    between atoms: C_9  and  C_15
                            x       y       z     vdW  Elec       q    Type
                         _______ _______ _______ _____ _____    ______ ____

>  <TORSDO>
F 1

$$$$
=
 OpenBabel11052413443D

 27 31  0  0  1  0  0  0  0  0999 V2000
  190.4630  177.0250  143.0070 N   0  0  0  0  0  0  0  0  0  0  0  0
  188.5060  177.6810  141.4500 C   0  0  1  0  0  3  0  0  0  0  0  0
  187.1570  177.2150  144.0270 S   0  0  0  0  0  0  0  0  0  0  0  0
  184.7800  178.7770  140.1540 N   0  0  0  0  0  0  0  0  0  0  0  0
  182.6440  178.8240  141.4540 C   0  0  0  0  0  1  0  0  0  0  0  0
  188.2790  178.0570  140.0060 C   0  0  0  0  0  3  0  0  0  0  0  0
  184.8910  178.2820  142.4600 N   0  0  0  0  0  0  0  0  0  0  0  0
  188.9280  177.2800  147.4910 C   0  0  0  0  0  3  0  0  0  0  0  0
  184.6940  178.9360  143.6630 C   0  0  0  0  0  1  0  0  0  0  0  0
  190.2670  177.2820  147.6240 C   0  0  0  0  0  2  0  0  0  0  0  0
  186.2190  178.6470  141.9320 C   0  0  2  0  0  3  0  0  0  0  0  0
  189.9450  177.2310  141.8000 C   0  0  0  0  0  0  0  0  0  0  0  0
  184.1730  179.0330  141.4830 C   0  0  1  0  0  3  0  0  0  0  0  0
  186.0440  178.6280  140.4910 C   0  0  0  0  0  0  0  0  0  0  0  0
  190.0070  177.1360  144.3580 C   0  0  0  0  0  0  0  0  0  0  0  0
  187.4570  177.7630  142.3410 C   0  0  1  0  0  3  0  0  0  0  0  0
  188.2270  176.7530  146.2680 C   0  0  0  0  0  3  0  0  0  0  0  0
  187.1040  178.4430  139.5280 N   0  0  0  0  0  0  0  0  0  0  0  0
  191.3050  177.0800  146.6370 C   0  0  0  0  0  3  0  0  0  0  0  0
  191.2270  177.0650  145.2750 C   0  0  0  0  0  3  0  0  0  0  0  0
  188.7710  177.1380  144.8800 C   0  0  0  0  0  0  0  0  0  0  0  0
  192.7660  176.7530  138.6230 C   0  0  0  0  0  3  0  0  0  0  0  0
  190.9420  177.0900  140.6870 C   0  0  0  0  0  0  0  0  0  0  0  0
  190.5480  176.4390  139.4980 C   0  0  0  0  0  3  0  0  0  0  0  0
  191.4520  176.2950  138.4720 C   0  0  0  0  0  3  0  0  0  0  0  0
  193.1850  177.3380  139.8300 C   0  0  0  0  0  3  0  0  0  0  0  0
  192.2750  177.5060  140.8530 C   0  0  0  0  0  3  0  0  0  0  0  0
  1 15  1  0  0  0  0
  2  6  1  1  0  0  0
  2 12  1  0  0  0  0
  2 16  1  0  0  0  0
  3 21  1  0  0  0  0
  4 14  2  0  0  0  0
  4 13  1  0  0  0  0
  7  9  1  0  0  0  0
  8 10  1  0  0  0  0
 11 14  1  6  0  0  0
 11 16  1  0  0  0  0
 11  7  1  0  0  0  0
 12  1  2  0  0  0  0
 13  5  1  6  0  0  0
 13  7  1  0  0  0  0
 15 21  2  0  0  0  0
 15 20  1  0  0  0  0
 16  3  1  1  0  0  0
 17  8  2  0  0  0  0
 18  6  2  0  0  0  0
 18 14  1  0  0  0  0
 19 10  1  0  0  0  0
 20 19  2  0  0  0  0
 21 17  1  0  0  0  0
 22 26  1  0  0  0  0
 23 27  1  0  0  0  0
 23 12  1  0  0  0  0
 24 23  2  0  0  0  0
 25 22  2  0  0  0  0
 25 24  1  0  0  0  0
 26 27  2  0  0  0  0
M  END
>  <MODEL>
3

>  <REMARK>
 VINA RESULT:     -10.1      1.941      7.455
  Name = 
  1 active torsions:
  status: ('A' for Active; 'I' for Inactive)
    1  A    between atoms: C_9  and  C_15
                            x       y       z     vdW  Elec       q    Type
                         _______ _______ _______ _____ _____    ______ ____

>  <TORSDO>
F 1

$$$$
=
 OpenBabel11052413443D

 27 31  0  0  1  0  0  0  0  0999 V2000
  188.5240  177.7330  143.5250 N   0  0  0  0  0  0  0  0  0  0  0  0
  186.0520  178.2450  144.0860 C   0  0  1  0  0  3  0  0  0  0  0  0
  186.1810  178.7600  141.1870 S   0  0  0  0  0  0  0  0  0  0  0  0
  182.0630  179.0580  143.6460 N   0  0  0  0  0  0  0  0  0  0  0  0
  180.8330  179.6740  141.5570 C   0  0  0  0  0  1  0  0  0  0  0  0
  185.1390  178.2660  145.2870 C   0  0  0  0  0  3  0  0  0  0  0  0
  183.2710  179.0370  141.6180 N   0  0  0  0  0  0  0  0  0  0  0  0
  188.9150  177.3400  138.8120 C   0  0  0  0  0  3  0  0  0  0  0  0
  183.2820  178.3210  140.4340 C   0  0  0  0  0  1  0  0  0  0  0  0
  190.0390  176.7550  139.2630 C   0  0  0  0  0  3  0  0  0  0  0  0
  183.9660  178.2530  142.6560 C   0  0  2  0  0  3  0  0  0  0  0  0
  187.5460  177.9820  144.3920 C   0  0  0  0  0  0  0  0  0  0  0  0
  181.9750  178.8440  142.1810 C   0  0  1  0  0  3  0  0  0  0  0  0
  183.2750  178.6020  143.8840 C   0  0  0  0  0  0  0  0  0  0  0  0
  188.6310  177.5810  142.1070 C   0  0  0  0  0  0  0  0  0  0  0  0
  185.5190  178.4500  142.8310 C   0  0  1  0  0  3  0  0  0  0  0  0
  188.1180  178.3220  139.6270 C   0  0  0  0  0  2  0  0  0  0  0  0
  183.8360  178.4980  145.2100 N   0  0  0  0  0  0  0  0  0  0  0  0
  190.5820  176.6790  140.6020 C   0  0  0  0  0  3  0  0  0  0  0  0
  189.9980  176.9700  141.8010 C   0  0  0  0  0  3  0  0  0  0  0  0
  187.8410  178.0010  141.1080 C   0  0  0  0  0  0  0  0  0  0  0  0
  188.7900  177.6500  148.4680 C   0  0  0  0  0  3  0  0  0  0  0  0
  187.9780  177.8930  145.8260 C   0  0  0  0  0  0  0  0  0  0  0  0
  189.1820  177.2260  146.1350 C   0  0  0  0  0  3  0  0  0  0  0  0
  189.5890  177.1290  147.4450 C   0  0  0  0  0  3  0  0  0  0  0  0
  187.5550  178.2530  148.1750 C   0  0  0  0  0  3  0  0  0  0  0  0
  187.1550  178.3740  146.8610 C   0  0  0  0  0  3  0  0  0  0  0  0
  1 12  2  0  0  0  0
  2 12  1  0  0  0  0
  2  6  1  6  0  0  0
  4 14  2  0  0  0  0
  7 13  1  0  0  0  0
  7 11  1  0  0  0  0
  8 10  2  0  0  0  0
  8 17  1  0  0  0  0
  9  7  1  0  0  0  0
 10 19  1  0  0  0  0
 11 16  1  0  0  0  0
 11 14  1  1  0  0  0
 12 23  1  0  0  0  0
 13  5  1  6  0  0  0
 13  4  1  0  0  0  0
 14 18  1  0  0  0  0
 15  1  1  0  0  0  0
 16  3  1  6  0  0  0
 16  2  1  0  0  0  0
 17 21  1  0  0  0  0
 18  6  2  0  0  0  0
 19 20  2  0  0  0  0
 20 15  1  0  0  0  0
 21  3  1  0  0  0  0
 21 15  2  0  0  0  0
 23 24  2  0  0  0  0
 23 27  1  0  0  0  0
 24 25  1  0  0  0  0
 25 22  2  0  0  0  0
 26 22  1  0  0  0  0
 27 26  2  0  0  0  0
M  END
>  <MODEL>
4

>  <REMARK>
 VINA RESULT:     -10.0      2.090      5.969
  Name = 
  1 active torsions:
  status: ('A' for Active; 'I' for Inactive)
    1  A    between atoms: C_9  and  C_15
                            x       y       z     vdW  Elec       q    Type
                         _______ _______ _______ _____ _____    ______ ____

>  <TORSDO>
F 1

$$$$
=
 OpenBabel11052413443D

 27 31  0  0  1  0  0  0  0  0999 V2000
  188.4000  177.3800  145.7530 N   0  0  0  0  0  0  0  0  0  0  0  0
  189.9980  177.2110  143.7280 C   0  0  1  0  0  3  0  0  0  0  0  0
  187.3510  177.4280  142.4500 S   0  0  0  0  0  0  0  0  0  0  0  0
  191.4130  177.2900  139.8860 N   0  0  0  0  0  0  0  0  0  0  0  0
  190.1050  177.4590  137.7610 C   0  0  0  0  0  1  0  0  0  0  0  0
  191.4740  177.0580  143.4540 C   0  0  0  0  0  3  0  0  0  0  0  0
  189.0780  177.5960  140.0590 N   0  0  0  0  0  0  0  0  0  0  0  0
  184.1770  178.8680  144.1790 C   0  0  0  0  0  3  0  0  0  0  0  0
  188.1440  178.5720  139.7630 C   0  0  0  0  0  1  0  0  0  0  0  0
  184.1110  179.1010  145.5020 C   0  0  0  0  0  2  0  0  0  0  0  0
  189.7540  177.9500  141.3220 C   0  0  2  0  0  3  0  0  0  0  0  0
  189.5850  177.1060  145.2150 C   0  0  0  0  0  0  0  0  0  0  0  0
  190.2130  177.8780  139.2430 C   0  0  1  0  0  3  0  0  0  0  0  0
  191.1020  177.4380  141.1570 C   0  0  0  0  0  0  0  0  0  0  0  0
  187.1390  177.8620  145.2800 C   0  0  0  0  0  0  0  0  0  0  0  0
  189.1360  177.4310  142.6740 C   0  0  1  0  0  3  0  0  0  0  0  0
  185.1310  177.8780  143.5680 C   0  0  0  0  0  3  0  0  0  0  0  0
  191.9990  177.0990  142.2370 N   0  0  0  0  0  0  0  0  0  0  0  0
  185.0240  178.7350  146.5630 C   0  0  0  0  0  3  0  0  0  0  0  0
  186.3020  178.2650  146.4940 C   0  0  0  0  0  3  0  0  0  0  0  0
  186.5920  177.8610  144.0560 C   0  0  0  0  0  0  0  0  0  0  0  0
  192.5530  176.0170  148.0930 C   0  0  0  0  0  3  0  0  0  0  0  0
  190.6350  176.7500  146.2270 C   0  0  0  0  0  0  0  0  0  0  0  0
  191.4680  175.6380  145.9810 C   0  0  0  0  0  3  0  0  0  0  0  0
  192.4310  175.2940  146.9010 C   0  0  0  0  0  3  0  0  0  0  0  0
  191.6800  177.0810  148.3770 C   0  0  0  0  0  3  0  0  0  0  0  0
  190.7290  177.4450  147.4460 C   0  0  0  0  0  3  0  0  0  0  0  0
  2  6  1  1  0  0  0
  2 12  1  0  0  0  0
  3 21  1  0  0  0  0
  4 14  2  0  0  0  0
  7 11  1  0  0  0  0
  8 10  1  0  0  0  0
  9  7  1  0  0  0  0
 10 19  1  0  0  0  0
 11 14  1  6  0  0  0
 11 16  1  0  0  0  0
 12  1  2  0  0  0  0
 12 23  1  0  0  0  0
 13  5  1  6  0  0  0
 13  4  1  0  0  0  0
 13  7  1  0  0  0  0
 14 18  1  0  0  0  0
 15  1  1  0  0  0  0
 15 20  1  0  0  0  0
 16  3  1  1  0  0  0
 16  2  1  0  0  0  0
 17 21  1  0  0  0  0
 17  8  2  0  0  0  0
 18  6  2  0  0  0  0
 20 19  2  0  0  0  0
 21 15  2  0  0  0  0
 22 26  1  0  0  0  0
 23 27  1  0  0  0  0
 24 23  2  0  0  0  0
 24 25  1  0  0  0  0
 25 22  2  0  0  0  0
 27 26  2  0  0  0  0
M  END
>  <MODEL>
5

>  <REMARK>
 VINA RESULT:      -9.9      1.729      7.014
  Name = 
  1 active torsions:
  status: ('A' for Active; 'I' for Inactive)
    1  A    between atoms: C_9  and  C_15
                            x       y       z     vdW  Elec       q    Type
                         _______ _______ _______ _____ _____    ______ ____

>  <TORSDO>
F 1

$$$$
=
 OpenBabel11052413443D

 27 31  0  0  1  0  0  0  0  0999 V2000
  189.1450  177.7250  141.3300 N   0  0  0  0  0  0  0  0  0  0  0  0
  186.6300  178.2290  141.0020 C   0  0  1  0  0  3  0  0  0  0  0  0
  186.7860  177.5380  143.8620 S   0  0  0  0  0  0  0  0  0  0  0  0
  182.6860  178.9770  141.8100 N   0  0  0  0  0  0  0  0  0  0  0  0
  181.4880  178.7580  143.9940 C   0  0  0  0  0  1  0  0  0  0  0  0
  185.6850  178.6280  139.8950 C   0  0  0  0  0  3  0  0  0  0  0  0
  183.9690  178.4180  143.7110 N   0  0  0  0  0  0  0  0  0  0  0  0
  190.0400  177.6660  145.9910 C   0  0  0  0  0  3  0  0  0  0  0  0
  184.3520  179.0060  144.9030 C   0  0  0  0  0  1  0  0  0  0  0  0
  191.2620  177.8030  145.4450 C   0  0  0  0  0  2  0  0  0  0  0  0
  184.8260  178.9350  142.6270 C   0  0  2  0  0  3  0  0  0  0  0  0
  188.0790  177.9180  140.5580 C   0  0  0  0  0  0  0  0  0  0  0  0
  182.8070  179.1230  143.2810 C   0  0  1  0  0  3  0  0  0  0  0  0
  183.9570  178.9480  141.4650 C   0  0  0  0  0  0  0  0  0  0  0  0
  189.4180  177.7430  142.7340 C   0  0  0  0  0  0  0  0  0  0  0  0
  186.1630  178.1710  142.2980 C   0  0  1  0  0  3  0  0  0  0  0  0
  188.8630  177.1120  145.2350 C   0  0  0  0  0  3  0  0  0  0  0  0
  184.4040  178.9070  140.0930 N   0  0  0  0  0  0  0  0  0  0  0  0
  191.6810  177.7430  144.0610 C   0  0  0  0  0  3  0  0  0  0  0  0
  190.9340  177.7660  142.9200 C   0  0  0  0  0  3  0  0  0  0  0  0
  188.6110  177.5990  143.7960 C   0  0  0  0  0  0  0  0  0  0  0  0
  189.0120  177.8500  136.3860 C   0  0  0  0  0  3  0  0  0  0  0  0
  188.3940  177.9190  139.0910 C   0  0  0  0  0  0  0  0  0  0  0  0
  188.1070  176.7650  138.3310 C   0  0  0  0  0  3  0  0  0  0  0  0
  188.3960  176.7470  136.9870 C   0  0  0  0  0  3  0  0  0  0  0  0
  189.3660  178.9760  137.1490 C   0  0  0  0  0  3  0  0  0  0  0  0
  189.0550  179.0080  138.4930 C   0  0  0  0  0  3  0  0  0  0  0  0
  1 15  1  0  0  0  0
  2  6  1  1  0  0  0
  2 16  1  0  0  0  0
  4 13  1  0  0  0  0
  6 18  2  0  0  0  0
  7  9  1  0  0  0  0
 10  8  1  0  0  0  0
 11 14  1  6  0  0  0
 11  7  1  0  0  0  0
 12  2  1  0  0  0  0
 12  1  2  0  0  0  0
 13  7  1  0  0  0  0
 13  5  1  1  0  0  0
 14  4  2  0  0  0  0
 15 20  1  0  0  0  0
 15 21  2  0  0  0  0
 16 11  1  0  0  0  0
 16  3  1  1  0  0  0
 17  8  2  0  0  0  0
 18 14  1  0  0  0  0
 19 10  1  0  0  0  0
 20 19  2  0  0  0  0
 21  3  1  0  0  0  0
 21 17  1  0  0  0  0
 22 25  2  0  0  0  0
 22 26  1  0  0  0  0
 23 12  1  0  0  0  0
 24 23  2  0  0  0  0
 25 24  1  0  0  0  0
 26 27  2  0  0  0  0
 27 23  1  0  0  0  0
M  END
>  <MODEL>
6

>  <REMARK>
 VINA RESULT:      -9.7      2.334      6.763
  Name = 
  1 active torsions:
  status: ('A' for Active; 'I' for Inactive)
    1  A    between atoms: C_9  and  C_15
                            x       y       z     vdW  Elec       q    Type
                         _______ _______ _______ _____ _____    ______ ____

>  <TORSDO>
F 1

$$$$
=
 OpenBabel11052413443D

 27 31  0  0  1  0  0  0  0  0999 V2000
  187.1330  178.1280  141.7080 N   0  0  0  0  0  0  0  0  0  0  0  0
  189.3330  177.4050  142.8600 C   0  0  1  0  0  3  0  0  0  0  0  0
  187.6980  178.3540  145.1200 S   0  0  0  0  0  0  0  0  0  0  0  0
  192.0550  176.4300  145.7590 N   0  0  0  0  0  0  0  0  0  0  0  0
  191.8580  176.7470  148.2320 C   0  0  0  0  0  1  0  0  0  0  0  0
  190.6800  176.8390  142.4840 C   0  0  0  0  0  3  0  0  0  0  0  0
  190.0060  177.2510  146.5980 N   0  0  0  0  0  0  0  0  0  0  0  0
  183.8200  178.6640  145.0640 C   0  0  0  0  0  3  0  0  0  0  0  0
  188.9640  176.8010  147.3880 C   0  0  0  0  0  1  0  0  0  0  0  0
  183.0990  178.5740  143.9320 C   0  0  0  0  0  3  0  0  0  0  0  0
  189.8420  176.7080  145.2360 C   0  0  2  0  0  3  0  0  0  0  0  0
  188.4180  177.7860  141.6710 C   0  0  0  0  0  0  0  0  0  0  0  0
  191.1240  176.4240  146.9140 C   0  0  1  0  0  3  0  0  0  0  0  0
  191.2010  176.5260  144.7610 C   0  0  0  0  0  0  0  0  0  0  0  0
  186.1280  178.2540  142.7180 C   0  0  0  0  0  0  0  0  0  0  0  0
  189.0070  177.5410  144.1920 C   0  0  1  0  0  3  0  0  0  0  0  0
  185.2720  179.0570  145.0810 C   0  0  0  0  0  2  0  0  0  0  0  0
  191.5960  176.4810  143.3730 N   0  0  0  0  0  0  0  0  0  0  0  0
  183.5270  178.5440  142.5500 C   0  0  0  0  0  3  0  0  0  0  0  0
  184.7720  178.3640  142.0230 C   0  0  0  0  0  3  0  0  0  0  0  0
  186.2220  178.4280  144.0450 C   0  0  0  0  0  0  0  0  0  0  0  0
  189.9200  177.4930  137.6790 C   0  0  0  0  0  3  0  0  0  0  0  0
  188.9710  177.6810  140.2800 C   0  0  0  0  0  0  0  0  0  0  0  0
  188.5600  178.6200  139.3100 C   0  0  0  0  0  3  0  0  0  0  0  0
  189.0510  178.5330  138.0290 C   0  0  0  0  0  3  0  0  0  0  0  0
  190.2780  176.5130  138.6200 C   0  0  0  0  0  3  0  0  0  0  0  0
  189.8070  176.6100  139.9120 C   0  0  0  0  0  3  0  0  0  0  0  0
  1 15  1  0  0  0  0
  2  6  1  1  0  0  0
  2 16  1  0  0  0  0
  4 13  1  0  0  0  0
  6 18  2  0  0  0  0
  7 13  1  0  0  0  0
  7  9  1  0  0  0  0
  8 17  1  0  0  0  0
 10  8  2  0  0  0  0
 11 14  1  6  0  0  0
 11  7  1  0  0  0  0
 12  1  2  0  0  0  0
 12  2  1  0  0  0  0
 13  5  1  1  0  0  0
 14  4  2  0  0  0  0
 15 21  2  0  0  0  0
 16  3  1  6  0  0  0
 16 11  1  0  0  0  0
 18 14  1  0  0  0  0
 19 10  1  0  0  0  0
 20 19  2  0  0  0  0
 20 15  1  0  0  0  0
 21 17  1  0  0  0  0
 21  3  1  0  0  0  0
 22 25  2  0  0  0  0
 22 26  1  0  0  0  0
 23 12  1  0  0  0  0
 24 23  2  0  0  0  0
 25 24  1  0  0  0  0
 26 27  2  0  0  0  0
 27 23  1  0  0  0  0
M  END
>  <MODEL>
7

>  <REMARK>
 VINA RESULT:      -9.7      1.226      5.329
  Name = 
  1 active torsions:
  status: ('A' for Active; 'I' for Inactive)
    1  A    between atoms: C_9  and  C_15
                            x       y       z     vdW  Elec       q    Type
                         _______ _______ _______ _____ _____    ______ ____

>  <TORSDO>
F 1

$$$$
=
 OpenBabel11052413443D

 27 31  0  0  1  0  0  0  0  0999 V2000
  187.2060  178.0900  144.4940 N   0  0  0  0  0  0  0  0  0  0  0  0
  186.7940  178.3470  141.9540 C   0  0  1  0  0  3  0  0  0  0  0  0
  189.7350  178.2950  142.1340 S   0  0  0  0  0  0  0  0  0  0  0  0
  187.4440  178.4840  137.9140 N   0  0  0  0  0  0  0  0  0  0  0  0
  189.6300  178.4970  136.7000 C   0  0  0  0  0  1  0  0  0  0  0  0
  185.6340  178.4730  140.9980 C   0  0  0  0  0  3  0  0  0  0  0  0
  189.4090  178.2370  139.1980 N   0  0  0  0  0  0  0  0  0  0  0  0
  191.7390  176.8380  145.1330 C   0  0  0  0  0  3  0  0  0  0  0  0
  190.4250  177.3110  139.3560 C   0  0  0  0  0  1  0  0  0  0  0  0
  191.1630  176.5180  146.3060 C   0  0  0  0  0  2  0  0  0  0  0  0
  188.2250  177.7790  139.9490 C   0  0  2  0  0  3  0  0  0  0  0  0
  186.4200  178.3640  143.4560 C   0  0  0  0  0  0  0  0  0  0  0  0
  188.8370  177.9770  137.9180 C   0  0  1  0  0  3  0  0  0  0  0  0
  187.1020  178.2610  139.1660 C   0  0  0  0  0  0  0  0  0  0  0  0
  188.5630  177.6790  144.6810 C   0  0  0  0  0  0  0  0  0  0  0  0
  188.0720  178.2240  141.4520 C   0  0  1  0  0  3  0  0  0  0  0  0
  191.1480  177.8380  144.1770 C   0  0  0  0  0  3  0  0  0  0  0  0
  185.7740  178.4990  139.6790 N   0  0  0  0  0  0  0  0  0  0  0  0
  189.8290  176.7840  146.7970 C   0  0  0  0  0  3  0  0  0  0  0  0
  188.7220  177.2200  146.1300 C   0  0  0  0  0  3  0  0  0  0  0  0
  189.6370  177.7790  143.8840 C   0  0  0  0  0  0  0  0  0  0  0  0
  182.3530  179.0340  144.5900 C   0  0  0  0  0  3  0  0  0  0  0  0
  184.9910  178.6190  143.8350 C   0  0  0  0  0  0  0  0  0  0  0  0
  184.6570  178.7220  145.2020 C   0  0  0  0  0  3  0  0  0  0  0  0
  183.3510  178.9490  145.5670 C   0  0  0  0  0  3  0  0  0  0  0  0
  182.6670  178.8630  143.2300 C   0  0  0  0  0  3  0  0  0  0  0  0
  183.9800  178.6590  142.8590 C   0  0  0  0  0  3  0  0  0  0  0  0
  1 15  1  0  0  0  0
  2  6  1  6  0  0  0
  2 12  1  0  0  0  0
  3 21  1  0  0  0  0
  4 13  1  0  0  0  0
  4 14  2  0  0  0  0
  7  9  1  0  0  0  0
  7 11  1  0  0  0  0
  8 10  1  0  0  0  0
 10 19  1  0  0  0  0
 11 14  1  6  0  0  0
 11 16  1  0  0  0  0
 12 23  1  0  0  0  0
 12  1  2  0  0  0  0
 13  5  1  6  0  0  0
 13  7  1  0  0  0  0
 14 18  1  0  0  0  0
 15 20  1  0  0  0  0
 16  2  1  0  0  0  0
 16  3  1  1  0  0  0
 17  8  2  0  0  0  0
 18  6  2  0  0  0  0
 20 19  2  0  0  0  0
 21 17  1  0  0  0  0
 21 15  2  0  0  0  0
 22 25  1  0  0  0  0
 23 24  1  0  0  0  0
 24 25  2  0  0  0  0
 26 22  2  0  0  0  0
 27 26  1  0  0  0  0
 27 23  2  0  0  0  0
M  END
>  <MODEL>
8

>  <REMARK>
 VINA RESULT:      -9.6      1.604      5.735
  Name = 
  1 active torsions:
  status: ('A' for Active; 'I' for Inactive)
    1  A    between atoms: C_9  and  C_15
                            x       y       z     vdW  Elec       q    Type
                         _______ _______ _______ _____ _____    ______ ____

>  <TORSDO>
F 1

$$$$
=
 OpenBabel11052413443D

 27 31  0  0  1  0  0  0  0  0999 V2000
  187.4890  177.7360  144.8430 N   0  0  0  0  0  0  0  0  0  0  0  0
  189.2560  177.4310  142.9800 C   0  0  1  0  0  3  0  0  0  0  0  0
  186.7280  177.5150  141.4690 S   0  0  0  0  0  0  0  0  0  0  0  0
  190.9950  177.2300  139.2790 N   0  0  0  0  0  0  0  0  0  0  0  0
  189.8740  177.2170  137.0430 C   0  0  0  0  0  1  0  0  0  0  0  0
  190.7510  177.2770  142.8460 C   0  0  0  0  0  3  0  0  0  0  0  0
  188.6530  177.5190  139.2280 N   0  0  0  0  0  0  0  0  0  0  0  0
  183.4080  179.0430  142.8030 C   0  0  0  0  0  3  0  0  0  0  0  0
  187.7410  178.4570  138.7780 C   0  0  0  0  0  1  0  0  0  0  0  0
  183.2270  179.3780  144.0930 C   0  0  0  0  0  2  0  0  0  0  0  0
  189.2150  177.9780  140.5120 C   0  0  2  0  0  3  0  0  0  0  0  0
  188.7180  177.4370  144.4310 C   0  0  0  0  0  0  0  0  0  0  0  0
  189.8510  177.7510  138.4910 C   0  0  1  0  0  3  0  0  0  0  0  0
  190.5750  177.4720  140.5030 C   0  0  0  0  0  0  0  0  0  0  0  0
  186.2700  178.1640  144.2280 C   0  0  0  0  0  0  0  0  0  0  0  0
  188.4870  177.5580  141.8430 C   0  0  1  0  0  3  0  0  0  0  0  0
  184.4170  178.0210  142.3550 C   0  0  0  0  0  3  0  0  0  0  0  0
  191.3780  177.2290  141.6780 N   0  0  0  0  0  0  0  0  0  0  0  0
  184.0480  179.1070  145.2540 C   0  0  0  0  0  3  0  0  0  0  0  0
  185.3310  178.6490  145.3310 C   0  0  0  0  0  3  0  0  0  0  0  0
  185.8310  178.0610  142.9650 C   0  0  0  0  0  0  0  0  0  0  0  0
  191.4500  176.7620  147.6490 C   0  0  0  0  0  3  0  0  0  0  0  0
  189.6790  177.1740  145.5530 C   0  0  0  0  0  0  0  0  0  0  0  0
  189.3450  177.6090  146.8520 C   0  0  0  0  0  3  0  0  0  0  0  0
  190.2190  177.3820  147.8900 C   0  0  0  0  0  3  0  0  0  0  0  0
  191.8200  176.3900  146.3460 C   0  0  0  0  0  3  0  0  0  0  0  0
  190.9370  176.5940  145.3060 C   0  0  0  0  0  3  0  0  0  0  0  0
  2  6  1  1  0  0  0
  2 12  1  0  0  0  0
  3 21  1  0  0  0  0
  4 14  2  0  0  0  0
  7 11  1  0  0  0  0
  8 10  1  0  0  0  0
  9  7  1  0  0  0  0
 10 19  1  0  0  0  0
 11 14  1  1  0  0  0
 11 16  1  0  0  0  0
 12  1  2  0  0  0  0
 12 23  1  0  0  0  0
 13  5  1  6  0  0  0
 13  7  1  0  0  0  0
 13  4  1  0  0  0  0
 14 18  1  0  0  0  0
 15  1  1  0  0  0  0
 15 20  1  0  0  0  0
 16  3  1  1  0  0  0
 16  2  1  0  0  0  0
 17  8  2  0  0  0  0
 17 21  1  0  0  0  0
 18  6  2  0  0  0  0
 19 20  2  0  0  0  0
 21 15  2  0  0  0  0
 22 25  1  0  0  0  0
 23 24  1  0  0  0  0
 24 25  2  0  0  0  0
 26 22  2  0  0  0  0
 27 23  2  0  0  0  0
 27 26  1  0  0  0  0
M  END
>  <MODEL>
9

>  <REMARK>
 VINA RESULT:      -9.4      1.814      6.785
  Name = 
  1 active torsions:
  status: ('A' for Active; 'I' for Inactive)
    1  A    between atoms: C_9  and  C_15
                            x       y       z     vdW  Elec       q    Type
                         _______ _______ _______ _____ _____    ______ ____

>  <TORSDO>
F 1

$$$$
