=
 OpenBabel11052413033D

 31 35  0  0  1  0  0  0  0  0999 V2000
  186.7360  178.2920  138.7040 C   0  0  2  0  0  3  0  0  0  0  0  0
  184.1500  178.8730  141.5090 C   0  0  2  0  0  3  0  0  0  0  0  0
  182.7990  178.2730  141.0300 C   0  0  1  0  0  3  0  0  0  0  0  0
  181.9200  176.3820  139.5580 C   0  0  0  0  0  2  0  0  0  0  0  0
  185.3900  178.3190  140.7940 C   0  0  1  0  0  3  0  0  0  0  0  0
  187.8110  178.9030  139.3800 O   0  0  0  0  0  0  0  0  0  0  0  0
  182.8800  176.7880  140.6870 C   0  0  0  0  0  2  0  0  0  0  0  0
  185.5840  178.7490  143.7590 C   0  0  1  0  0  3  0  0  0  0  0  0
  186.7700  178.6520  137.3010 N   0  0  0  0  0  1  0  0  0  0  0  0
  181.8890  179.6120  143.0100 C   0  0  0  0  0  2  0  0  0  0  0  0
  180.6260  177.1920  139.4570 C   0  0  0  0  0  2  0  0  0  0  0  0
  186.7020  178.1820  142.8700 C   0  0  0  0  0  2  0  0  0  0  0  0
  184.2710  178.9600  143.0250 C   0  0  0  0  0  0  0  0  0  0  0  0
  185.4050  178.7320  139.3230 C   0  0  0  0  0  2  0  0  0  0  0  0
  179.9550  177.2850  140.7490 N   0  0  0  0  0  2  0  0  0  0  0  0
  186.6660  178.7910  141.4830 C   0  0  1  0  0  3  0  0  0  0  0  0
  187.8680  178.3230  140.6630 C   0  0  0  0  0  2  0  0  0  0  0  0
  183.1930  179.3660  143.7150 C   0  0  0  0  0  3  0  0  0  0  0  0
  181.6530  178.4490  142.0500 C   0  0  1  0  0  3  0  0  0  0  0  0
  180.3130  178.5660  141.3460 C   0  0  0  0  0  2  0  0  0  0  0  0
  185.3850  177.8240  144.9580 C   0  0  0  0  0  2  0  0  0  0  0  0
  189.8670  177.0490  147.3860 C   0  0  2  0  0  3  0  0  0  0  0  0
  188.0310  176.8230  145.7440 C   0  0  0  0  0  2  0  0  0  0  0  0
  187.4580  177.2090  148.8330 O   0  0  0  0  0  1  0  0  0  0  0  0
  185.5130  179.2130  146.8840 O   0  0  0  0  0  0  0  0  0  0  0  0
  191.3710  177.0830  147.5560 C   0  0  0  0  0  1  0  0  0  0  0  0
  186.0820  178.3430  146.1770 C   0  0  0  0  0  0  0  0  0  0  0  0
  189.5410  176.9070  145.9060 C   0  0  0  0  0  2  0  0  0  0  0  0
  187.9010  178.1480  147.8930 C   0  0  2  0  0  3  0  0  0  0  0  0
  187.3720  177.8420  146.5570 N   0  0  0  0  0  0  0  0  0  0  0  0
  189.3140  178.2480  147.8880 O   0  0  0  0  0  0  0  0  0  0  0  0
  1  9  1  6  0  0  0
  1 14  1  0  0  0  0
  1  6  1  0  0  0  0
  2 13  1  1  0  0  0
  3  7  1  1  0  0  0
  3  2  1  0  0  0  0
  3 19  1  0  0  0  0
  4  7  1  0  0  0  0
  5 14  1  6  0  0  0
  5 16  1  0  0  0  0
  5  2  1  0  0  0  0
  6 17  1  0  0  0  0
  8 21  1  1  0  0  0
 10 18  1  0  0  0  0
 11  4  1  0  0  0  0
 11 15  1  0  0  0  0
 12  8  1  0  0  0  0
 13 18  2  0  0  0  0
 13  8  1  0  0  0  0
 15 20  1  0  0  0  0
 16 17  1  6  0  0  0
 16 12  1  0  0  0  0
 19 20  1  6  0  0  0
 19 10  1  0  0  0  0
 21 27  1  0  0  0  0
 22 26  1  6  0  0  0
 22 31  1  0  0  0  0
 23 28  1  0  0  0  0
 23 30  1  0  0  0  0
 27 30  1  0  0  0  0
 27 25  2  0  0  0  0
 28 22  1  0  0  0  0
 29 24  1  1  0  0  0
 30 29  1  0  0  0  0
 31 29  1  0  0  0  0
M  END
>  <MODEL>
1

>  <REMARK>
 VINA RESULT:      -8.9      0.000      0.000
  Name = 
  2 active torsions:
  status: ('A' for Active; 'I' for Inactive)
    1  A    between atoms: C_9  and  C_23
    2  A    between atoms: C_15  and  C_23
                            x       y       z     vdW  Elec       q    Type
                         _______ _______ _______ _____ _____    ______ ____

>  <TORSDO>
F 2

$$$$
=
 OpenBabel11052413033D

 31 35  0  0  1  0  0  0  0  0999 V2000
  188.8000  177.7620  137.4370 C   0  0  2  0  0  3  0  0  0  0  0  0
  185.2860  178.6320  138.7770 C   0  0  2  0  0  3  0  0  0  0  0  0
  184.2490  177.9450  137.8470 C   0  0  1  0  0  3  0  0  0  0  0  0
  184.0180  175.8630  136.3880 C   0  0  0  0  0  2  0  0  0  0  0  0
  186.6940  178.0220  138.7330 C   0  0  1  0  0  3  0  0  0  0  0  0
  189.5050  178.4790  138.4250 O   0  0  0  0  0  0  0  0  0  0  0  0
  184.4190  176.4310  137.7590 C   0  0  0  0  0  2  0  0  0  0  0  0
  185.6220  178.8270  141.4200 C   0  0  1  0  0  3  0  0  0  0  0  0
  189.4390  177.9420  136.1500 N   0  0  0  0  0  1  0  0  0  0  0  0
  182.6270  179.5020  139.0670 C   0  0  0  0  0  2  0  0  0  0  0  0
  182.9170  176.6240  135.6460 C   0  0  0  0  0  2  0  0  0  0  0  0
  186.9930  178.1800  141.1700 C   0  0  0  0  0  2  0  0  0  0  0  0
  184.7540  178.9130  140.1760 C   0  0  0  0  0  0  0  0  0  0  0  0
  187.3470  178.2450  137.3700 C   0  0  0  0  0  2  0  0  0  0  0  0
  181.7640  176.8630  136.5070 N   0  0  0  0  0  2  0  0  0  0  0  0
  187.5710  178.6070  139.8360 C   0  0  1  0  0  3  0  0  0  0  0  0
  188.9910  178.0680  139.6710 C   0  0  0  0  0  2  0  0  0  0  0  0
  183.4990  179.3780  140.2850 C   0  0  0  0  0  3  0  0  0  0  0  0
  182.7840  178.2220  138.2510 C   0  0  1  0  0  3  0  0  0  0  0  0
  181.8750  178.2180  137.0340 C   0  0  0  0  0  2  0  0  0  0  0  0
  184.9010  178.0580  142.5240 C   0  0  0  0  0  2  0  0  0  0  0  0
  187.2690  177.9110  147.1030 C   0  0  2  0  0  3  0  0  0  0  0  0
  186.6020  177.3080  144.7990 C   0  0  0  0  0  2  0  0  0  0  0  0
  184.4850  178.2940  146.9360 O   0  0  0  0  0  1  0  0  0  0  0  0
  184.0890  179.8090  143.9120 O   0  0  0  0  0  0  0  0  0  0  0  0
  188.4370  178.0200  148.0590 C   0  0  0  0  0  1  0  0  0  0  0  0
  184.8710  178.8310  143.8060 C   0  0  0  0  0  0  0  0  0  0  0  0
  187.7840  177.4640  145.7430 C   0  0  0  0  0  2  0  0  0  0  0  0
  185.4460  179.0350  146.2390 C   0  0  2  0  0  3  0  0  0  0  0  0
  185.7000  178.4520  144.9150 N   0  0  0  0  0  0  0  0  0  0  0  0
  186.6390  179.1710  146.9900 O   0  0  0  0  0  0  0  0  0  0  0  0
  1  9  1  6  0  0  0
  1  6  1  0  0  0  0
  2 13  1  1  0  0  0
  3  7  1  1  0  0  0
  3 19  1  0  0  0  0
  3  2  1  0  0  0  0
  4  7  1  0  0  0  0
  5 14  1  6  0  0  0
  5  2  1  0  0  0  0
  5 16  1  0  0  0  0
  6 17  1  0  0  0  0
  8 21  1  1  0  0  0
 10 18  1  0  0  0  0
 11  4  1  0  0  0  0
 11 15  1  0  0  0  0
 12  8  1  0  0  0  0
 13 18  2  0  0  0  0
 13  8  1  0  0  0  0
 14  1  1  0  0  0  0
 15 20  1  0  0  0  0
 16 17  1  6  0  0  0
 16 12  1  0  0  0  0
 19 20  1  6  0  0  0
 19 10  1  0  0  0  0
 21 27  1  0  0  0  0
 22 26  1  1  0  0  0
 23 30  1  0  0  0  0
 23 28  1  0  0  0  0
 27 25  2  0  0  0  0
 27 30  1  0  0  0  0
 28 22  1  0  0  0  0
 29 24  1  1  0  0  0
 29 31  1  0  0  0  0
 30 29  1  0  0  0  0
 31 22  1  0  0  0  0
M  END
>  <MODEL>
2

>  <REMARK>
 VINA RESULT:      -8.7      2.140      3.087
  Name = 
  2 active torsions:
  status: ('A' for Active; 'I' for Inactive)
    1  A    between atoms: C_9  and  C_23
    2  A    between atoms: C_15  and  C_23
                            x       y       z     vdW  Elec       q    Type
                         _______ _______ _______ _____ _____    ______ ____

>  <TORSDO>
F 2

$$$$
=
 OpenBabel11052413033D

 31 35  0  0  1  0  0  0  0  0999 V2000
  189.7760  177.4080  139.5200 C   0  0  2  0  0  3  0  0  0  0  0  0
  188.0110  177.2880  142.9500 C   0  0  2  0  0  3  0  0  0  0  0  0
  189.1070  177.4130  144.0440 C   0  0  1  0  0  3  0  0  0  0  0  0
  191.3930  178.4940  144.3970 C   0  0  0  0  0  2  0  0  0  0  0  0
  188.4200  177.8080  141.5650 C   0  0  1  0  0  3  0  0  0  0  0  0
  188.5990  177.2830  138.7550 O   0  0  0  0  0  0  0  0  0  0  0  0
  189.9420  178.6850  143.9250 C   0  0  0  0  0  2  0  0  0  0  0  0
  185.6390  178.4340  142.5070 C   0  0  1  0  0  3  0  0  0  0  0  0
  190.8350  176.6180  138.9250 N   0  0  0  0  0  1  0  0  0  0  0  0
  187.1970  176.6540  145.5670 C   0  0  0  0  0  2  0  0  0  0  0  0
  191.6050  177.4560  145.5010 C   0  0  0  0  0  2  0  0  0  0  0  0
  186.2440  178.8840  141.1680 C   0  0  0  0  0  2  0  0  0  0  0  0
  186.6320  177.7350  143.4190 C   0  0  0  0  0  0  0  0  0  0  0  0
  189.5240  176.9430  140.9580 C   0  0  0  0  0  2  0  0  0  0  0  0
  190.6830  177.6650  146.6120 N   0  0  0  0  0  2  0  0  0  0  0  0
  187.2180  177.8560  140.6290 C   0  0  1  0  0  3  0  0  0  0  0  0
  187.6980  178.2540  139.2340 C   0  0  0  0  0  2  0  0  0  0  0  0
  186.2460  177.3740  144.6530 C   0  0  0  0  0  3  0  0  0  0  0  0
  188.5470  177.3610  145.4820 C   0  0  1  0  0  3  0  0  0  0  0  0
  189.5600  176.7520  146.4360 C   0  0  0  0  0  2  0  0  0  0  0  0
  185.0270  179.6440  143.2090 C   0  0  0  0  0  2  0  0  0  0  0  0
  180.4450  178.2800  141.2780 C   0  0  2  0  0  3  0  0  0  0  0  0
  182.8260  178.9400  141.3970 C   0  0  0  0  0  2  0  0  0  0  0  0
  180.6360  180.2810  143.2480 O   0  0  0  0  0  1  0  0  0  0  0  0
  183.4440  179.4130  144.9680 O   0  0  0  0  0  0  0  0  0  0  0  0
  179.4520  177.3710  140.5870 C   0  0  0  0  0  1  0  0  0  0  0  0
  183.6570  179.3450  143.7310 C   0  0  0  0  0  0  0  0  0  0  0  0
  181.8380  177.9900  140.7370 C   0  0  0  0  0  2  0  0  0  0  0  0
  181.2030  179.0040  143.3350 C   0  0  2  0  0  3  0  0  0  0  0  0
  182.5850  179.0090  142.8370 N   0  0  0  0  0  0  0  0  0  0  0  0
  180.4080  178.0390  142.6690 O   0  0  0  0  0  0  0  0  0  0  0  0
  1  9  1  6  0  0  0
  1 14  1  0  0  0  0
  2 13  1  1  0  0  0
  2  3  1  0  0  0  0
  3  7  1  6  0  0  0
  3 19  1  0  0  0  0
  4 11  1  0  0  0  0
  5 14  1  6  0  0  0
  5  2  1  0  0  0  0
  6 17  1  0  0  0  0
  6  1  1  0  0  0  0
  7  4  1  0  0  0  0
  8 21  1  1  0  0  0
  8 13  1  0  0  0  0
 11 15  1  0  0  0  0
 12  8  1  0  0  0  0
 13 18  2  0  0  0  0
 16 17  1  6  0  0  0
 16 12  1  0  0  0  0
 16  5  1  0  0  0  0
 18 10  1  0  0  0  0
 19 10  1  6  0  0  0
 19 20  1  0  0  0  0
 20 15  1  0  0  0  0
 21 27  1  0  0  0  0
 22 26  1  6  0  0  0
 22 31  1  0  0  0  0
 23 30  1  0  0  0  0
 27 25  2  0  0  0  0
 28 22  1  0  0  0  0
 28 23  1  0  0  0  0
 29 24  1  6  0  0  0
 30 29  1  0  0  0  0
 30 27  1  0  0  0  0
 31 29  1  0  0  0  0
M  END
>  <MODEL>
3

>  <REMARK>
 VINA RESULT:      -8.6      2.509      7.315
  Name = 
  2 active torsions:
  status: ('A' for Active; 'I' for Inactive)
    1  A    between atoms: C_9  and  C_23
    2  A    between atoms: C_15  and  C_23
                            x       y       z     vdW  Elec       q    Type
                         _______ _______ _______ _____ _____    ______ ____

>  <TORSDO>
F 2

$$$$
=
 OpenBabel11052413033D

 31 35  0  0  1  0  0  0  0  0999 V2000
  187.0520  177.9360  147.2480 C   0  0  2  0  0  3  0  0  0  0  0  0
  187.1640  178.4300  143.4220 C   0  0  2  0  0  3  0  0  0  0  0  0
  188.3710  177.6170  142.8810 C   0  0  1  0  0  3  0  0  0  0  0  0
  189.6900  175.4980  143.4180 C   0  0  0  0  0  2  0  0  0  0  0  0
  186.6470  177.9800  144.7950 C   0  0  1  0  0  3  0  0  0  0  0  0
  185.9160  178.7430  147.4580 O   0  0  0  0  0  0  0  0  0  0  0  0
  188.3030  176.1300  143.2190 C   0  0  0  0  0  2  0  0  0  0  0  0
  184.6000  178.7050  142.7220 C   0  0  1  0  0  3  0  0  0  0  0  0
  188.0190  178.1650  148.3020 N   0  0  0  0  0  1  0  0  0  0  0  0
  187.9300  179.0030  140.7760 C   0  0  0  0  0  2  0  0  0  0  0  0
  190.8300  176.1180  142.6060 C   0  0  0  0  0  2  0  0  0  0  0  0
  184.2860  178.2100  144.1420 C   0  0  0  0  0  2  0  0  0  0  0  0
  186.0800  178.6730  142.3790 C   0  0  0  0  0  0  0  0  0  0  0  0
  187.6810  178.2530  145.8860 C   0  0  0  0  0  2  0  0  0  0  0  0
  190.4730  176.2410  141.1970 N   0  0  0  0  0  2  0  0  0  0  0  0
  185.3330  178.6770  145.1330 C   0  0  1  0  0  3  0  0  0  0  0  0
  184.9290  178.2980  146.5570 C   0  0  0  0  0  2  0  0  0  0  0  0
  186.4710  178.9960  141.1360 C   0  0  0  0  0  3  0  0  0  0  0  0
  188.5550  177.7350  141.3520 C   0  0  1  0  0  3  0  0  0  0  0  0
  190.0200  177.6090  140.9710 C   0  0  0  0  0  2  0  0  0  0  0  0
  183.8000  177.8780  141.7180 C   0  0  0  0  0  2  0  0  0  0  0  0
  181.6490  178.9270  137.1500 C   0  0  2  0  0  3  0  0  0  0  0  0
  183.2300  178.0570  138.8420 C   0  0  0  0  0  2  0  0  0  0  0  0
  181.9470  180.9400  139.0950 O   0  0  0  0  0  1  0  0  0  0  0  0
  181.8540  179.2090  142.0260 O   0  0  0  0  0  0  0  0  0  0  0  0
  180.9360  178.6110  135.8530 C   0  0  0  0  0  1  0  0  0  0  0  0
  182.6110  178.6300  141.2060 C   0  0  0  0  0  0  0  0  0  0  0  0
  182.4760  177.7190  137.5660 C   0  0  0  0  0  2  0  0  0  0  0  0
  181.3560  179.6890  139.3090 C   0  0  2  0  0  3  0  0  0  0  0  0
  182.3450  178.7190  139.7980 N   0  0  0  0  0  0  0  0  0  0  0  0
  180.6940  179.2230  138.1470 O   0  0  0  0  0  0  0  0  0  0  0  0
  1  6  1  0  0  0  0
  1  9  1  1  0  0  0
  2 13  1  6  0  0  0
  2  5  1  0  0  0  0
  3  7  1  6  0  0  0
  3  2  1  0  0  0  0
  5 16  1  0  0  0  0
  5 14  1  1  0  0  0
  7  4  1  0  0  0  0
  8 21  1  6  0  0  0
  8 12  1  0  0  0  0
 10 18  1  0  0  0  0
 11  4  1  0  0  0  0
 13  8  1  0  0  0  0
 14  1  1  0  0  0  0
 15 11  1  0  0  0  0
 16 12  1  6  0  0  0
 16 17  1  0  0  0  0
 17  6  1  0  0  0  0
 18 13  2  0  0  0  0
 19 10  1  1  0  0  0
 19  3  1  0  0  0  0
 20 15  1  0  0  0  0
 20 19  1  0  0  0  0
 22 26  1  6  0  0  0
 22 28  1  0  0  0  0
 22 31  1  0  0  0  0
 23 30  1  0  0  0  0
 27 21  1  0  0  0  0
 27 25  2  0  0  0  0
 28 23  1  0  0  0  0
 29 24  1  6  0  0  0
 29 30  1  0  0  0  0
 30 27  1  0  0  0  0
 31 29  1  0  0  0  0
M  END
>  <MODEL>
4

>  <REMARK>
 VINA RESULT:      -8.6      2.942      8.418
  Name = 
  2 active torsions:
  status: ('A' for Active; 'I' for Inactive)
    1  A    between atoms: C_9  and  C_23
    2  A    between atoms: C_15  and  C_23
                            x       y       z     vdW  Elec       q    Type
                         _______ _______ _______ _____ _____    ______ ____

>  <TORSDO>
F 2

$$$$
=
 OpenBabel11052413033D

 31 35  0  0  1  0  0  0  0  0999 V2000
  191.4530  177.1660  139.2730 C   0  0  2  0  0  3  0  0  0  0  0  0
  188.8670  177.1520  142.1370 C   0  0  2  0  0  3  0  0  0  0  0  0
  189.6400  177.3840  143.4650 C   0  0  1  0  0  3  0  0  0  0  0  0
  191.7250  178.5820  144.3220 C   0  0  0  0  0  2  0  0  0  0  0  0
  189.6050  177.6150  140.8730 C   0  0  1  0  0  3  0  0  0  0  0  0
  190.5180  176.9480  138.2410 O   0  0  0  0  0  0  0  0  0  0  0  0
  190.4410  178.6830  143.4840 C   0  0  0  0  0  2  0  0  0  0  0  0
  186.6580  178.1670  141.0300 C   0  0  1  0  0  3  0  0  0  0  0  0
  192.6520  176.3930  139.0200 N   0  0  0  0  0  1  0  0  0  0  0  0
  187.4250  176.6240  144.4940 C   0  0  0  0  0  2  0  0  0  0  0  0
  191.6750  177.6150  145.5070 C   0  0  0  0  0  2  0  0  0  0  0  0
  187.5750  178.5710  139.8650 C   0  0  0  0  0  2  0  0  0  0  0  0
  187.4020  177.5620  142.2090 C   0  0  0  0  0  0  0  0  0  0  0  0
  190.8520  176.7680  140.6250 C   0  0  0  0  0  2  0  0  0  0  0  0
  190.4920  177.8430  146.3290 N   0  0  0  0  0  2  0  0  0  0  0  0
  188.6840  177.5590  139.6590 C   0  0  1  0  0  3  0  0  0  0  0  0
  189.4960  177.9030  138.4110 C   0  0  0  0  0  2  0  0  0  0  0  0
  186.7210  177.2520  143.3230 C   0  0  0  0  0  3  0  0  0  0  0  0
  188.7300  177.3840  144.7120 C   0  0  1  0  0  3  0  0  0  0  0  0
  189.4790  176.8730  145.9310 C   0  0  0  0  0  2  0  0  0  0  0  0
  185.8510  179.3850  141.4750 C   0  0  0  0  0  2  0  0  0  0  0  0
  180.9760  178.5110  142.9100 C   0  0  2  0  0  3  0  0  0  0  0  0
  183.4400  178.7010  143.0070 C   0  0  0  0  0  2  0  0  0  0  0  0
  181.9670  177.4810  140.4850 O   0  0  0  0  0  1  0  0  0  0  0  0
  184.3920  179.7120  139.6270 O   0  0  0  0  0  0  0  0  0  0  0  0
  179.6900  178.7700  143.6640 C   0  0  0  0  0  1  0  0  0  0  0  0
  184.4950  179.4090  140.8420 C   0  0  0  0  0  0  0  0  0  0  0  0
  182.1470  179.0080  143.7450 C   0  0  0  0  0  2  0  0  0  0  0  0
  182.0580  178.8170  140.8930 C   0  0  2  0  0  3  0  0  0  0  0  0
  183.3230  179.0660  141.5970 N   0  0  0  0  0  0  0  0  0  0  0  0
  180.9390  179.1960  141.6750 O   0  0  0  0  0  0  0  0  0  0  0  0
  1  9  1  6  0  0  0
  1 14  1  0  0  0  0
  2 13  1  1  0  0  0
  2  3  1  0  0  0  0
  3  7  1  6  0  0  0
  3 19  1  0  0  0  0
  4 11  1  0  0  0  0
  5 14  1  6  0  0  0
  5  2  1  0  0  0  0
  6 17  1  0  0  0  0
  6  1  1  0  0  0  0
  7  4  1  0  0  0  0
  8 21  1  1  0  0  0
  8 13  1  0  0  0  0
 11 15  1  0  0  0  0
 12  8  1  0  0  0  0
 13 18  2  0  0  0  0
 16 17  1  6  0  0  0
 16 12  1  0  0  0  0
 16  5  1  0  0  0  0
 18 10  1  0  0  0  0
 19 10  1  6  0  0  0
 19 20  1  0  0  0  0
 20 15  1  0  0  0  0
 22 26  1  1  0  0  0
 22 28  1  0  0  0  0
 23 28  1  0  0  0  0
 25 27  2  0  0  0  0
 27 21  1  0  0  0  0
 27 30  1  0  0  0  0
 29 24  1  1  0  0  0
 29 30  1  0  0  0  0
 29 31  1  0  0  0  0
 30 23  1  0  0  0  0
 31 22  1  0  0  0  0
M  END
>  <MODEL>
5

>  <REMARK>
 VINA RESULT:      -8.4      3.496      7.549
  Name = 
  2 active torsions:
  status: ('A' for Active; 'I' for Inactive)
    1  A    between atoms: C_9  and  C_23
    2  A    between atoms: C_15  and  C_23
                            x       y       z     vdW  Elec       q    Type
                         _______ _______ _______ _____ _____    ______ ____

>  <TORSDO>
F 2

$$$$
=
 OpenBabel11052413033D

 31 35  0  0  1  0  0  0  0  0999 V2000
  185.9620  178.5500  139.8320 C   0  0  2  0  0  3  0  0  0  0  0  0
  189.7000  177.8210  140.4610 C   0  0  2  0  0  3  0  0  0  0  0  0
  189.8600  177.4700  141.9660 C   0  0  1  0  0  3  0  0  0  0  0  0
  188.5400  176.3940  143.8670 C   0  0  0  0  0  2  0  0  0  0  0  0
  188.2790  177.6500  139.9080 C   0  0  1  0  0  3  0  0  0  0  0  0
  186.1050  178.8220  138.4570 O   0  0  0  0  0  0  0  0  0  0  0  0
  189.0100  176.2830  142.4080 C   0  0  0  0  0  2  0  0  0  0  0  0
  190.5540  176.7520  138.1660 C   0  0  1  0  0  3  0  0  0  0  0  0
  185.0250  179.4840  140.4230 N   0  0  0  0  0  1  0  0  0  0  0  0
  192.3400  177.8050  141.4320 C   0  0  0  0  0  2  0  0  0  0  0  0
  189.4740  177.1500  144.8140 C   0  0  0  0  0  2  0  0  0  0  0  0
  189.0650  176.6430  137.8050 C   0  0  0  0  0  2  0  0  0  0  0  0
  190.8020  177.2430  139.5830 C   0  0  0  0  0  0  0  0  0  0  0  0
  187.3190  178.6600  140.5360 C   0  0  0  0  0  2  0  0  0  0  0  0
  190.8450  176.6630  144.7080 N   0  0  0  0  0  2  0  0  0  0  0  0
  188.2690  177.7930  138.3890 C   0  0  1  0  0  3  0  0  0  0  0  0
  186.8220  177.7440  137.9010 C   0  0  0  0  0  2  0  0  0  0  0  0
  192.0610  177.2950  140.0460 C   0  0  0  0  0  3  0  0  0  0  0  0
  191.3190  177.1710  142.3740 C   0  0  1  0  0  3  0  0  0  0  0  0
  191.5700  177.5640  143.8200 C   0  0  0  0  0  2  0  0  0  0  0  0
  191.2210  175.3970  137.9450 C   0  0  0  0  0  2  0  0  0  0  0  0
  196.2220  174.5420  137.0240 C   0  0  2  0  0  3  0  0  0  0  0  0
  194.0810  174.7970  138.2360 C   0  0  0  0  0  2  0  0  0  0  0  0
  194.9150  176.7700  135.9060 O   0  0  0  0  0  1  0  0  0  0  0  0
  191.6860  175.7230  135.6360 O   0  0  0  0  0  0  0  0  0  0  0  0
  197.4860  173.7170  136.9160 C   0  0  0  0  0  1  0  0  0  0  0  0
  192.1440  175.4220  136.7670 C   0  0  0  0  0  0  0  0  0  0  0  0
  195.3280  173.9370  138.0960 C   0  0  0  0  0  2  0  0  0  0  0  0
  194.4690  175.4460  135.8240 C   0  0  2  0  0  3  0  0  0  0  0  0
  193.5430  175.1350  136.9210 N   0  0  0  0  0  0  0  0  0  0  0  0
  195.5540  174.5370  135.7790 O   0  0  0  0  0  0  0  0  0  0  0  0
  1  9  1  1  0  0  0
  1 14  1  0  0  0  0
  2 13  1  6  0  0  0
  2  3  1  0  0  0  0
  3 19  1  0  0  0  0
  3  7  1  6  0  0  0
  4 11  1  0  0  0  0
  5  2  1  0  0  0  0
  5 14  1  1  0  0  0
  6  1  1  0  0  0  0
  7  4  1  0  0  0  0
  8 21  1  1  0  0  0
  8 13  1  0  0  0  0
 12  8  1  0  0  0  0
 13 18  2  0  0  0  0
 15 11  1  0  0  0  0
 16 12  1  6  0  0  0
 16  5  1  0  0  0  0
 17 16  1  0  0  0  0
 17  6  1  0  0  0  0
 18 10  1  0  0  0  0
 19 10  1  6  0  0  0
 19 20  1  0  0  0  0
 20 15  1  0  0  0  0
 22 26  1  6  0  0  0
 22 28  1  0  0  0  0
 25 27  2  0  0  0  0
 27 30  1  0  0  0  0
 27 21  1  0  0  0  0
 28 23  1  0  0  0  0
 29 24  1  1  0  0  0
 29 30  1  0  0  0  0
 30 23  1  0  0  0  0
 31 29  1  0  0  0  0
 31 22  1  0  0  0  0
M  END
>  <MODEL>
6

>  <REMARK>
 VINA RESULT:      -8.3      5.471      9.418
  Name = 
  2 active torsions:
  status: ('A' for Active; 'I' for Inactive)
    1  A    between atoms: C_9  and  C_23
    2  A    between atoms: C_15  and  C_23
                            x       y       z     vdW  Elec       q    Type
                         _______ _______ _______ _____ _____    ______ ____

>  <TORSDO>
F 2

$$$$
=
 OpenBabel11052413033D

 31 35  0  0  1  0  0  0  0  0999 V2000
  193.3800  176.2950  137.9240 C   0  0  2  0  0  3  0  0  0  0  0  0
  189.6560  177.1730  138.4320 C   0  0  2  0  0  3  0  0  0  0  0  0
  188.8390  176.3660  137.3860 C   0  0  1  0  0  3  0  0  0  0  0  0
  188.9380  174.1460  136.1280 C   0  0  0  0  0  2  0  0  0  0  0  0
  191.0500  176.6080  138.7350 C   0  0  1  0  0  3  0  0  0  0  0  0
  193.8590  177.1260  138.9560 O   0  0  0  0  0  0  0  0  0  0  0  0
  189.0440  174.8570  137.4870 C   0  0  0  0  0  2  0  0  0  0  0  0
  189.4430  177.6320  141.0560 C   0  0  1  0  0  3  0  0  0  0  0  0
  194.2660  176.3720  136.7800 N   0  0  0  0  0  1  0  0  0  0  0  0
  186.9830  177.9780  138.0910 C   0  0  0  0  0  2  0  0  0  0  0  0
  188.0010  174.7960  135.1060 C   0  0  0  0  0  2  0  0  0  0  0  0
  190.8440  177.0090  141.1540 C   0  0  0  0  0  2  0  0  0  0  0  0
  188.8460  177.5690  139.6600 C   0  0  0  0  0  0  0  0  0  0  0  0
  191.9650  176.7210  137.5160 C   0  0  0  0  0  2  0  0  0  0  0  0
  186.6940  175.0780  135.6880 N   0  0  0  0  0  2  0  0  0  0  0  0
  191.6760  177.3240  139.9270 C   0  0  1  0  0  3  0  0  0  0  0  0
  193.1070  176.8190  140.1080 C   0  0  0  0  0  2  0  0  0  0  0  0
  187.5890  178.0000  139.4660 C   0  0  0  0  0  3  0  0  0  0  0  0
  187.3200  176.6320  137.4560 C   0  0  1  0  0  3  0  0  0  0  0  0
  186.6780  176.4810  136.0880 C   0  0  0  0  0  2  0  0  0  0  0  0
  188.5220  176.9480  142.0640 C   0  0  0  0  0  2  0  0  0  0  0  0
  188.6900  177.8040  147.1450 C   0  0  2  0  0  3  0  0  0  0  0  0
  188.0560  178.0060  144.7630 C   0  0  0  0  0  2  0  0  0  0  0  0
  191.0620  177.5610  145.6490 O   0  0  0  0  0  1  0  0  0  0  0  0
  190.1490  175.5360  143.0690 O   0  0  0  0  0  0  0  0  0  0  0  0
  188.1650  177.8060  148.5650 C   0  0  0  0  0  1  0  0  0  0  0  0
  189.2830  176.4300  143.2430 C   0  0  0  0  0  0  0  0  0  0  0  0
  187.5190  177.9590  146.1860 C   0  0  0  0  0  2  0  0  0  0  0  0
  190.0010  176.6480  145.6370 C   0  0  2  0  0  3  0  0  0  0  0  0
  189.0540  176.9590  144.5580 N   0  0  0  0  0  0  0  0  0  0  0  0
  189.3590  176.5850  146.8980 O   0  0  0  0  0  0  0  0  0  0  0  0
  1  9  1  6  0  0  0
  1  6  1  0  0  0  0
  2  5  1  0  0  0  0
  2 13  1  1  0  0  0
  3 19  1  0  0  0  0
  3  7  1  1  0  0  0
  3  2  1  0  0  0  0
  4  7  1  0  0  0  0
  5 14  1  6  0  0  0
  5 16  1  0  0  0  0
  6 17  1  0  0  0  0
  8 12  1  0  0  0  0
  8 21  1  1  0  0  0
 10 18  1  0  0  0  0
 11 15  1  0  0  0  0
 11  4  1  0  0  0  0
 13  8  1  0  0  0  0
 14  1  1  0  0  0  0
 15 20  1  0  0  0  0
 16 17  1  1  0  0  0
 16 12  1  0  0  0  0
 18 13  2  0  0  0  0
 19 20  1  6  0  0  0
 19 10  1  0  0  0  0
 21 27  1  0  0  0  0
 22 26  1  1  0  0  0
 23 28  1  0  0  0  0
 25 27  2  0  0  0  0
 27 30  1  0  0  0  0
 28 22  1  0  0  0  0
 29 24  1  1  0  0  0
 29 31  1  0  0  0  0
 30 23  1  0  0  0  0
 30 29  1  0  0  0  0
 31 22  1  0  0  0  0
M  END
>  <MODEL>
7

>  <REMARK>
 VINA RESULT:      -7.9      4.173      6.031
  Name = 
  2 active torsions:
  status: ('A' for Active; 'I' for Inactive)
    1  A    between atoms: C_9  and  C_23
    2  A    between atoms: C_15  and  C_23
                            x       y       z     vdW  Elec       q    Type
                         _______ _______ _______ _____ _____    ______ ____

>  <TORSDO>
F 2

$$$$
=
 OpenBabel11052413033D

 31 35  0  0  1  0  0  0  0  0999 V2000
  191.4730  176.7330  139.2150 C   0  0  2  0  0  3  0  0  0  0  0  0
  187.8050  177.9240  139.0640 C   0  0  2  0  0  3  0  0  0  0  0  0
  187.1280  177.2010  137.8680 C   0  0  1  0  0  3  0  0  0  0  0  0
  187.2680  174.9920  136.5940 C   0  0  0  0  0  2  0  0  0  0  0  0
  189.0690  177.2380  139.6000 C   0  0  1  0  0  3  0  0  0  0  0  0
  191.8240  177.5090  140.3370 O   0  0  0  0  0  0  0  0  0  0  0  0
  187.1840  175.6780  137.9670 C   0  0  0  0  0  2  0  0  0  0  0  0
  187.1570  178.3760  141.6170 C   0  0  1  0  0  3  0  0  0  0  0  0
  192.5550  176.7430  138.2520 N   0  0  0  0  0  1  0  0  0  0  0  0
  185.3150  178.9610  138.2660 C   0  0  0  0  0  2  0  0  0  0  0  0
  186.5910  175.7300  135.4370 C   0  0  0  0  0  2  0  0  0  0  0  0
  188.4600  177.6330  141.9500 C   0  0  0  0  0  2  0  0  0  0  0  0
  186.8210  178.3780  140.1350 C   0  0  0  0  0  0  0  0  0  0  0  0
  190.1960  177.2830  138.5690 C   0  0  0  0  0  2  0  0  0  0  0  0
  185.2280  176.1190  135.7800 N   0  0  0  0  0  2  0  0  0  0  0  0
  189.5250  177.8870  140.9030 C   0  0  1  0  0  3  0  0  0  0  0  0
  190.8520  177.2590  141.3260 C   0  0  0  0  0  2  0  0  0  0  0  0
  185.6600  178.9180  139.7280 C   0  0  0  0  0  3  0  0  0  0  0  0
  185.6480  177.5960  137.6690 C   0  0  1  0  0  3  0  0  0  0  0  0
  185.2560  177.5130  136.2040 C   0  0  0  0  0  2  0  0  0  0  0  0
  186.0140  177.7650  142.4240 C   0  0  0  0  0  2  0  0  0  0  0  0
  187.2390  178.0060  147.4270 C   0  0  2  0  0  3  0  0  0  0  0  0
  187.1520  177.2340  145.0790 C   0  0  0  0  0  2  0  0  0  0  0  0
  184.5630  178.2510  146.5890 O   0  0  0  0  0  1  0  0  0  0  0  0
  184.8460  179.5600  143.4580 O   0  0  0  0  0  0  0  0  0  0  0  0
  188.1460  178.2250  148.6190 C   0  0  0  0  0  1  0  0  0  0  0  0
  185.6600  178.6130  143.6060 C   0  0  0  0  0  0  0  0  0  0  0  0
  188.0740  177.5000  146.2590 C   0  0  0  0  0  2  0  0  0  0  0  0
  185.6390  178.9910  146.0860 C   0  0  2  0  0  3  0  0  0  0  0  0
  186.2150  178.3400  144.9010 N   0  0  0  0  0  0  0  0  0  0  0  0
  186.6170  179.2260  147.0830 O   0  0  0  0  0  0  0  0  0  0  0  0
  1  9  1  6  0  0  0
  1  6  1  0  0  0  0
  2  5  1  0  0  0  0
  2 13  1  1  0  0  0
  3  7  1  1  0  0  0
  3  2  1  0  0  0  0
  4  7  1  0  0  0  0
  5 14  1  6  0  0  0
  5 16  1  0  0  0  0
  6 17  1  0  0  0  0
  8 12  1  0  0  0  0
  8 21  1  1  0  0  0
 10 18  1  0  0  0  0
 11 15  1  0  0  0  0
 11  4  1  0  0  0  0
 13  8  1  0  0  0  0
 14  1  1  0  0  0  0
 15 20  1  0  0  0  0
 16 17  1  1  0  0  0
 16 12  1  0  0  0  0
 18 13  2  0  0  0  0
 19 20  1  6  0  0  0
 19  3  1  0  0  0  0
 19 10  1  0  0  0  0
 21 27  1  0  0  0  0
 22 26  1  1  0  0  0
 23 28  1  0  0  0  0
 25 27  2  0  0  0  0
 27 30  1  0  0  0  0
 28 22  1  0  0  0  0
 29 24  1  1  0  0  0
 29 31  1  0  0  0  0
 30 23  1  0  0  0  0
 30 29  1  0  0  0  0
 31 22  1  0  0  0  0
M  END
>  <MODEL>
8

>  <REMARK>
 VINA RESULT:      -7.9      3.035      4.497
  Name = 
  2 active torsions:
  status: ('A' for Active; 'I' for Inactive)
    1  A    between atoms: C_9  and  C_23
    2  A    between atoms: C_15  and  C_23
                            x       y       z     vdW  Elec       q    Type
                         _______ _______ _______ _____ _____    ______ ____

>  <TORSDO>
F 2

$$$$
=
 OpenBabel11052413033D

 31 35  0  0  1  0  0  0  0  0999 V2000
  186.5040  178.3640  146.9130 C   0  0  2  0  0  3  0  0  0  0  0  0
  186.9730  178.4260  143.0820 C   0  0  2  0  0  3  0  0  0  0  0  0
  188.2280  177.5720  142.7520 C   0  0  1  0  0  3  0  0  0  0  0  0
  189.4960  175.5440  143.6460 C   0  0  0  0  0  2  0  0  0  0  0  0
  186.3310  178.1270  144.4440 C   0  0  1  0  0  3  0  0  0  0  0  0
  185.3510  179.1740  146.9240 O   0  0  0  0  0  0  0  0  0  0  0  0
  188.1320  176.1320  143.2480 C   0  0  0  0  0  2  0  0  0  0  0  0
  184.4850  178.5860  142.1210 C   0  0  1  0  0  3  0  0  0  0  0  0
  187.3670  178.7230  148.0200 N   0  0  0  0  0  1  0  0  0  0  0  0
  187.9830  178.7060  140.4720 C   0  0  0  0  0  2  0  0  0  0  0  0
  190.7050  176.0850  142.8790 C   0  0  0  0  0  2  0  0  0  0  0  0
  184.0410  178.2510  143.5520 C   0  0  0  0  0  2  0  0  0  0  0  0
  185.9910  178.5350  141.9230 C   0  0  0  0  0  0  0  0  0  0  0  0
  187.2570  178.5340  145.5890 C   0  0  0  0  0  2  0  0  0  0  0  0
  190.4820  176.0440  141.4380 N   0  0  0  0  0  2  0  0  0  0  0  0
  184.9890  178.8400  144.5770 C   0  0  1  0  0  3  0  0  0  0  0  0
  184.4540  178.6180  145.9910 C   0  0  0  0  0  2  0  0  0  0  0  0
  186.4960  178.7210  140.6930 C   0  0  0  0  0  3  0  0  0  0  0  0
  188.5540  177.5200  141.2430 C   0  0  1  0  0  3  0  0  0  0  0  0
  190.0490  177.3710  141.0170 C   0  0  0  0  0  2  0  0  0  0  0  0
  183.7850  177.6410  141.1470 C   0  0  0  0  0  2  0  0  0  0  0  0
  180.2730  176.5370  137.5370 C   0  0  2  0  0  3  0  0  0  0  0  0
  181.9540  176.2410  139.3260 C   0  0  0  0  0  2  0  0  0  0  0  0
  182.3500  178.3630  137.0110 O   0  0  0  0  0  1  0  0  0  0  0  0
  183.0580  179.6410  140.0860 O   0  0  0  0  0  0  0  0  0  0  0  0
  178.9390  176.0550  137.0070 C   0  0  0  0  0  1  0  0  0  0  0  0
  182.9550  178.3900  140.1520 C   0  0  0  0  0  0  0  0  0  0  0  0
  180.5910  175.7910  138.8240 C   0  0  0  0  0  2  0  0  0  0  0  0
  181.4900  178.4110  138.1150 C   0  0  2  0  0  3  0  0  0  0  0  0
  182.0680  177.6960  139.2610 N   0  0  0  0  0  0  0  0  0  0  0  0
  180.2010  177.9250  137.7890 O   0  0  0  0  0  0  0  0  0  0  0  0
  1  6  1  0  0  0  0
  1  9  1  1  0  0  0
  2 13  1  6  0  0  0
  2  5  1  0  0  0  0
  3  2  1  0  0  0  0
  3  7  1  6  0  0  0
  5 16  1  0  0  0  0
  5 14  1  1  0  0  0
  7  4  1  0  0  0  0
  8 21  1  6  0  0  0
  8 12  1  0  0  0  0
 10 18  1  0  0  0  0
 11  4  1  0  0  0  0
 13  8  1  0  0  0  0
 14  1  1  0  0  0  0
 15 11  1  0  0  0  0
 16 12  1  6  0  0  0
 16 17  1  0  0  0  0
 17  6  1  0  0  0  0
 18 13  2  0  0  0  0
 19 10  1  6  0  0  0
 19  3  1  0  0  0  0
 20 19  1  0  0  0  0
 20 15  1  0  0  0  0
 22 26  1  1  0  0  0
 22 31  1  0  0  0  0
 22 28  1  0  0  0  0
 25 27  2  0  0  0  0
 27 21  1  0  0  0  0
 28 23  1  0  0  0  0
 29 24  1  6  0  0  0
 29 30  1  0  0  0  0
 30 23  1  0  0  0  0
 30 27  1  0  0  0  0
 31 29  1  0  0  0  0
M  END
>  <MODEL>
9

>  <REMARK>
 VINA RESULT:      -7.8      2.761      8.640
  Name = 
  2 active torsions:
  status: ('A' for Active; 'I' for Inactive)
    1  A    between atoms: C_9  and  C_23
    2  A    between atoms: C_15  and  C_23
                            x       y       z     vdW  Elec       q    Type
                         _______ _______ _______ _____ _____    ______ ____

>  <TORSDO>
F 2

$$$$
