=
 OpenBabel11052416053D

 43 47  0  0  1  0  0  0  0  0999 V2000
  191.4570  176.5050  147.1180 C   0  0  0  0  0  0  0  0  0  0  0  0
  187.1640  177.9130  144.8400 C   0  0  0  0  0  0  0  0  0  0  0  0
  187.7080  177.8280  142.1140 C   0  0  0  0  0  0  0  0  0  0  0  0
  189.1930  177.2350  146.6610 C   0  0  0  0  0  0  0  0  0  0  0  0
  191.7220  176.4490  145.7460 C   0  0  0  0  0  3  0  0  0  0  0  0
  192.4480  176.1690  148.0290 O   0  0  0  0  0  1  0  0  0  0  0  0
  189.4560  177.1860  145.2710 C   0  0  0  0  0  0  0  0  0  0  0  0
  190.1940  176.8970  147.5750 C   0  0  0  0  0  3  0  0  0  0  0  0
  190.7270  176.7880  144.8260 C   0  0  0  0  0  3  0  0  0  0  0  0
  188.6700  177.4930  143.0170 N   0  0  0  0  0  0  0  0  0  0  0  0
  188.4400  177.5280  144.3590 C   0  0  0  0  0  0  0  0  0  0  0  0
  186.9250  177.9550  146.2200 C   0  0  0  0  0  3  0  0  0  0  0  0
  186.1490  178.2370  143.9250 C   0  0  0  0  0  0  0  0  0  0  0  0
  186.4370  178.1980  142.5530 C   0  0  0  0  0  3  0  0  0  0  0  0
  187.9330  177.6200  147.1250 C   0  0  0  0  0  3  0  0  0  0  0  0
  187.9870  177.7520  140.6520 C   0  0  1  0  0  3  0  0  0  0  0  0
  187.2760  178.7470  139.9780 O   0  0  0  0  0  1  0  0  0  0  0  0
  189.4130  177.9150  140.4170 N   0  0  0  0  0  2  0  0  0  0  0  0
  189.8440  176.7990  139.5920 C   0  0  0  0  0  2  0  0  0  0  0  0
  190.3860  177.3030  138.2580 C   0  0  1  0  0  3  0  0  0  0  0  0
  191.5500  176.4300  137.8300 C   0  0  0  0  0  1  0  0  0  0  0  0
  189.3350  177.3640  137.1400 C   0  0  2  0  0  3  0  0  0  0  0  0
  186.9120  177.2310  136.8550 C   0  0  0  0  0  2  0  0  0  0  0  0
  188.7890  178.7610  136.9450 C   0  0  0  0  0  2  0  0  0  0  0  0
  188.1280  176.4660  137.3680 C   0  0  1  0  0  3  0  0  0  0  0  0
  187.4190  178.5630  136.3350 C   0  0  0  0  0  2  0  0  0  0  0  0
  188.3110  175.1130  136.6710 C   0  0  2  0  0  3  0  0  0  0  0  0
  189.1490  175.2410  135.5590 O   0  0  0  0  0  1  0  0  0  0  0  0
  186.9750  174.4940  136.2570 C   0  0  1  0  0  3  0  0  0  0  0  0
  186.9420  174.3070  134.8740 O   0  0  0  0  0  1  0  0  0  0  0  0
  186.7210  173.1850  136.9460 C   0  0  0  0  0  0  0  0  0  0  0  0
  187.7250  172.3210  137.0790 C   0  0  0  0  0  2  0  0  0  0  0  0
  184.6940  174.1280  137.7290 O   0  0  0  0  0  1  0  0  0  0  0  0
  185.4500  172.9550  137.7010 C   0  0  0  0  0  2  0  0  0  0  0  0
  184.8830  178.6180  144.4060 O   0  0  0  0  0  0  0  0  0  0  0  0
  182.4230  178.5560  141.5980 C   0  0  0  0  0  3  0  0  0  0  0  0
  181.2280  178.6930  142.3120 C   0  0  0  0  0  0  0  0  0  0  0  0
  182.4820  178.7960  144.3820 C   0  0  0  0  0  3  0  0  0  0  0  0
  183.6430  178.5330  142.2780 C   0  0  0  0  0  3  0  0  0  0  0  0
  183.6830  178.6580  143.6770 C   0  0  0  0  0  0  0  0  0  0  0  0
  181.2590  178.8180  143.7030 C   0  0  0  0  0  3  0  0  0  0  0  0
  179.3470  177.4050  141.5410 N   0  0  0  0  0  1  0  0  0  0  0  0
  179.9290  178.7350  141.5870 C   0  0  0  0  0  2  0  0  0  0  0  0
  1  8  1  0  0  0  0
  1  6  1  0  0  0  0
  2 12  1  0  0  0  0
  3 14  2  0  0  0  0
  3 10  1  0  0  0  0
  4 15  1  0  0  0  0
  4  8  2  0  0  0  0
  5  1  2  0  0  0  0
  7  4  1  0  0  0  0
  9  7  2  0  0  0  0
  9  5  1  0  0  0  0
 10 11  2  0  0  0  0
 11  2  1  0  0  0  0
 11  7  1  0  0  0  0
 12 15  2  0  0  0  0
 13 35  1  0  0  0  0
 13  2  2  0  0  0  0
 14 13  1  0  0  0  0
 16 17  1  6  0  0  0
 16  3  1  0  0  0  0
 18 16  1  0  0  0  0
 19 18  1  0  0  0  0
 20 21  1  6  0  0  0
 20 19  1  0  0  0  0
 22 25  1  0  0  0  0
 22 20  1  1  0  0  0
 23 25  1  0  0  0  0
 24 22  1  0  0  0  0
 25 27  1  6  0  0  0
 26 23  1  0  0  0  0
 26 24  1  0  0  0  0
 27 28  1  6  0  0  0
 29 30  1  6  0  0  0
 29 27  1  0  0  0  0
 29 31  1  0  0  0  0
 31 32  2  0  0  0  0
 31 34  1  0  0  0  0
 34 33  1  0  0  0  0
 36 39  2  0  0  0  0
 36 37  1  0  0  0  0
 37 41  2  0  0  0  0
 39 40  1  0  0  0  0
 40 38  2  0  0  0  0
 40 35  1  0  0  0  0
 41 38  1  0  0  0  0
 42 43  1  0  0  0  0
 43 37  1  0  0  0  0
M  END
>  <MODEL>
1

>  <REMARK>
 VINA RESULT:      -9.9      0.000      0.000
  Name = 
  12 active torsions:
  status: ('A' for Active; 'I' for Inactive)
    1  A    between atoms: O_1  and  C_34
    2  A    between atoms: O_1  and  C_35
    3  A    between atoms: C_2  and  N_6
    4  A    between atoms: C_2  and  C_13
    5  A    between atoms: C_3  and  C_4
    6  A    between atoms: C_3  and  C_12
    7  A    between atoms: N_6  and  C_12
    8  A    between atoms: C_11  and  C_14
    9  A    between atoms: C_11  and  C_29
   10  A    between atoms: C_14  and  C_22
   11  A    between atoms: C_19  and  C_37
   12  A    between atoms: C_29  and  C_31
                            x       y       z     vdW  Elec       q    Type
                         _______ _______ _______ _____ _____    ______ ____

>  <TORSDO>
F 12

$$$$
=
 OpenBabel11052416053D

 43 47  0  0  1  0  0  0  0  0999 V2000
  191.4820  176.5550  147.1000 C   0  0  0  0  0  0  0  0  0  0  0  0
  187.2680  177.8300  144.6070 C   0  0  0  0  0  0  0  0  0  0  0  0
  187.9540  177.7740  141.9130 C   0  0  0  0  0  0  0  0  0  0  0  0
  189.2220  177.2120  146.5280 C   0  0  0  0  0  0  0  0  0  0  0  0
  191.8190  176.5140  145.7430 C   0  0  0  0  0  3  0  0  0  0  0  0
  192.4360  176.2480  148.0590 O   0  0  0  0  0  1  0  0  0  0  0  0
  189.5570  177.1770  145.1530 C   0  0  0  0  0  0  0  0  0  0  0  0
  190.1850  176.9030  147.4920 C   0  0  0  0  0  3  0  0  0  0  0  0
  190.8620  176.8240  144.7740 C   0  0  0  0  0  3  0  0  0  0  0  0
  188.8780  177.4680  142.8630 N   0  0  0  0  0  0  0  0  0  0  0  0
  188.5780  177.4900  144.1910 C   0  0  0  0  0  0  0  0  0  0  0  0
  186.9570  177.8590  145.9730 C   0  0  0  0  0  3  0  0  0  0  0  0
  186.2910  178.1240  143.6420 C   0  0  0  0  0  0  0  0  0  0  0  0
  186.6500  178.1000  142.2870 C   0  0  0  0  0  3  0  0  0  0  0  0
  187.9280  177.5530  146.9280 C   0  0  0  0  0  3  0  0  0  0  0  0
  188.3100  177.7140  140.4660 C   0  0  1  0  0  3  0  0  0  0  0  0
  188.3420  179.0020  139.9290 O   0  0  0  0  0  1  0  0  0  0  0  0
  189.6080  177.0780  140.3090 N   0  0  0  0  0  2  0  0  0  0  0  0
  190.0910  177.4090  138.9790 C   0  0  0  0  0  2  0  0  0  0  0  0
  190.1430  176.1590  138.1060 C   0  0  1  0  0  3  0  0  0  0  0  0
  188.7810  175.9290  137.4810 C   0  0  0  0  0  1  0  0  0  0  0  0
  191.2220  176.2030  137.0150 C   0  0  2  0  0  3  0  0  0  0  0  0
  192.5110  174.6730  135.6110 C   0  0  0  0  0  2  0  0  0  0  0  0
  190.6290  176.2000  135.6240 C   0  0  0  0  0  2  0  0  0  0  0  0
  192.2020  175.0390  137.0590 C   0  0  1  0  0  3  0  0  0  0  0  0
  191.7120  175.6230  134.7380 C   0  0  0  0  0  2  0  0  0  0  0  0
  193.4580  175.4090  137.8550 C   0  0  2  0  0  3  0  0  0  0  0  0
  193.6280  176.7970  137.8910 O   0  0  0  0  0  1  0  0  0  0  0  0
  194.7130  174.7390  137.2930 C   0  0  1  0  0  3  0  0  0  0  0  0
  195.6160  175.7070  136.8510 O   0  0  0  0  0  1  0  0  0  0  0  0
  195.3820  173.8540  138.3050 C   0  0  0  0  0  0  0  0  0  0  0  0
  195.1780  172.5400  138.2480 C   0  0  0  0  0  2  0  0  0  0  0  0
  195.9160  175.2860  140.1150 O   0  0  0  0  0  1  0  0  0  0  0  0
  196.4600  174.3910  139.1920 C   0  0  0  0  0  2  0  0  0  0  0  0
  184.9890  178.4610  144.0580 O   0  0  0  0  0  0  0  0  0  0  0  0
  182.7020  178.3950  141.1080 C   0  0  0  0  0  3  0  0  0  0  0  0
  181.5070  178.7980  141.7110 C   0  0  0  0  0  0  0  0  0  0  0  0
  182.6500  178.9850  143.8390 C   0  0  0  0  0  3  0  0  0  0  0  0
  183.8660  178.2830  141.8720 C   0  0  0  0  0  3  0  0  0  0  0  0
  183.8510  178.5820  143.2440 C   0  0  0  0  0  0  0  0  0  0  0  0
  181.4830  179.0970  143.0760 C   0  0  0  0  0  3  0  0  0  0  0  0
  179.3740  177.8260  141.1670 N   0  0  0  0  0  1  0  0  0  0  0  0
  180.2710  178.9360  140.8950 C   0  0  0  0  0  2  0  0  0  0  0  0
  1  8  1  0  0  0  0
  1  6  1  0  0  0  0
  2 12  1  0  0  0  0
  3 14  2  0  0  0  0
  3 10  1  0  0  0  0
  4 15  1  0  0  0  0
  4  8  2  0  0  0  0
  5  1  2  0  0  0  0
  7  4  1  0  0  0  0
  9  7  2  0  0  0  0
  9  5  1  0  0  0  0
 10 11  2  0  0  0  0
 11  2  1  0  0  0  0
 11  7  1  0  0  0  0
 12 15  2  0  0  0  0
 13 35  1  0  0  0  0
 13  2  2  0  0  0  0
 14 13  1  0  0  0  0
 16 17  1  1  0  0  0
 16  3  1  0  0  0  0
 18 16  1  0  0  0  0
 19 18  1  0  0  0  0
 20 21  1  6  0  0  0
 20 19  1  0  0  0  0
 22 25  1  0  0  0  0
 22 20  1  1  0  0  0
 23 25  1  0  0  0  0
 24 22  1  0  0  0  0
 25 27  1  1  0  0  0
 26 23  1  0  0  0  0
 26 24  1  0  0  0  0
 27 28  1  6  0  0  0
 29 30  1  1  0  0  0
 29 27  1  0  0  0  0
 29 31  1  0  0  0  0
 31 34  1  0  0  0  0
 32 31  2  0  0  0  0
 34 33  1  0  0  0  0
 36 37  2  0  0  0  0
 36 39  1  0  0  0  0
 37 41  1  0  0  0  0
 39 40  2  0  0  0  0
 40 38  1  0  0  0  0
 40 35  1  0  0  0  0
 41 38  2  0  0  0  0
 43 42  1  0  0  0  0
 43 37  1  0  0  0  0
M  END
>  <MODEL>
2

>  <REMARK>
 VINA RESULT:      -9.8      2.521      4.068
  Name = 
  12 active torsions:
  status: ('A' for Active; 'I' for Inactive)
    1  A    between atoms: O_1  and  C_34
    2  A    between atoms: O_1  and  C_35
    3  A    between atoms: C_2  and  N_6
    4  A    between atoms: C_2  and  C_13
    5  A    between atoms: C_3  and  C_4
    6  A    between atoms: C_3  and  C_12
    7  A    between atoms: N_6  and  C_12
    8  A    between atoms: C_11  and  C_14
    9  A    between atoms: C_11  and  C_29
   10  A    between atoms: C_14  and  C_22
   11  A    between atoms: C_19  and  C_37
   12  A    between atoms: C_29  and  C_31
                            x       y       z     vdW  Elec       q    Type
                         _______ _______ _______ _____ _____    ______ ____

>  <TORSDO>
F 12

$$$$
=
 OpenBabel11052416053D

 43 47  0  0  1  0  0  0  0  0999 V2000
  191.3370  176.6700  146.9870 C   0  0  0  0  0  0  0  0  0  0  0  0
  187.1070  177.8490  144.4740 C   0  0  0  0  0  0  0  0  0  0  0  0
  187.8800  178.1510  141.8190 C   0  0  0  0  0  0  0  0  0  0  0  0
  189.0460  177.1900  146.3960 C   0  0  0  0  0  0  0  0  0  0  0  0
  191.7190  176.8080  145.6490 C   0  0  0  0  0  3  0  0  0  0  0  0
  192.2830  176.3410  147.9460 O   0  0  0  0  0  1  0  0  0  0  0  0
  189.4270  177.3370  145.0400 C   0  0  0  0  0  0  0  0  0  0  0  0
  190.0020  176.8600  147.3600 C   0  0  0  0  0  3  0  0  0  0  0  0
  190.7690  177.1410  144.6790 C   0  0  0  0  0  3  0  0  0  0  0  0
  188.7980  177.8210  142.7680 N   0  0  0  0  0  0  0  0  0  0  0  0
  188.4550  177.6700  144.0780 C   0  0  0  0  0  0  0  0  0  0  0  0
  186.7510  177.6990  145.8200 C   0  0  0  0  0  3  0  0  0  0  0  0
  186.1390  178.1630  143.5050 C   0  0  0  0  0  0  0  0  0  0  0  0
  186.5420  178.3210  142.1720 C   0  0  0  0  0  3  0  0  0  0  0  0
  187.7150  177.3730  146.7760 C   0  0  0  0  0  3  0  0  0  0  0  0
  188.2870  178.2820  140.3910 C   0  0  1  0  0  3  0  0  0  0  0  0
  188.9890  177.1440  139.9890 O   0  0  0  0  0  1  0  0  0  0  0  0
  187.1070  178.4560  139.5600 N   0  0  0  0  0  2  0  0  0  0  0  0
  187.3040  177.6610  138.3600 C   0  0  0  0  0  2  0  0  0  0  0  0
  186.4530  178.2060  137.2170 C   0  0  1  0  0  3  0  0  0  0  0  0
  187.3330  178.4390  136.0050 C   0  0  0  0  0  1  0  0  0  0  0  0
  185.2650  177.3090  136.8390 C   0  0  2  0  0  3  0  0  0  0  0  0
  184.0470  175.3740  137.7030 C   0  0  0  0  0  2  0  0  0  0  0  0
  183.9700  177.7840  137.4590 C   0  0  0  0  0  2  0  0  0  0  0  0
  185.4240  175.8540  137.2570 C   0  0  1  0  0  3  0  0  0  0  0  0
  183.1000  176.5490  137.5420 C   0  0  0  0  0  2  0  0  0  0  0  0
  185.9990  175.0140  136.1110 C   0  0  2  0  0  3  0  0  0  0  0  0
  184.9950  174.2500  135.5080 O   0  0  0  0  0  1  0  0  0  0  0  0
  187.1420  174.1100  136.5770 C   0  0  1  0  0  3  0  0  0  0  0  0
  186.9880  172.8300  136.0430 O   0  0  0  0  0  1  0  0  0  0  0  0
  188.4870  174.6560  136.1940 C   0  0  0  0  0  0  0  0  0  0  0  0
  188.6570  175.1500  134.9700 C   0  0  0  0  0  2  0  0  0  0  0  0
  190.2250  173.6980  137.4870 O   0  0  0  0  0  1  0  0  0  0  0  0
  189.5390  174.8860  137.2310 C   0  0  0  0  0  2  0  0  0  0  0  0
  184.8000  178.3400  143.9010 O   0  0  0  0  0  0  0  0  0  0  0  0
  182.5910  178.4060  140.8920 C   0  0  0  0  0  3  0  0  0  0  0  0
  181.4020  178.8660  141.4660 C   0  0  0  0  0  0  0  0  0  0  0  0
  182.4970  178.9830  143.6240 C   0  0  0  0  0  3  0  0  0  0  0  0
  183.7270  178.2310  141.6850 C   0  0  0  0  0  3  0  0  0  0  0  0
  183.6910  178.5230  143.0590 C   0  0  0  0  0  0  0  0  0  0  0  0
  181.3580  179.1590  142.8320 C   0  0  0  0  0  3  0  0  0  0  0  0
  180.3580  178.3710  139.3560 N   0  0  0  0  0  1  0  0  0  0  0  0
  180.1970  179.0710  140.6190 C   0  0  0  0  0  2  0  0  0  0  0  0
  1  8  1  0  0  0  0
  1  6  1  0  0  0  0
  2 12  1  0  0  0  0
  3 14  2  0  0  0  0
  3 10  1  0  0  0  0
  4 15  1  0  0  0  0
  4  8  2  0  0  0  0
  5  1  2  0  0  0  0
  7  4  1  0  0  0  0
  9  7  2  0  0  0  0
  9  5  1  0  0  0  0
 10 11  2  0  0  0  0
 11  2  1  0  0  0  0
 11  7  1  0  0  0  0
 12 15  2  0  0  0  0
 13 35  1  0  0  0  0
 13  2  2  0  0  0  0
 14 13  1  0  0  0  0
 16 17  1  6  0  0  0
 16  3  1  0  0  0  0
 18 16  1  0  0  0  0
 19 18  1  0  0  0  0
 20 21  1  6  0  0  0
 20 19  1  0  0  0  0
 22 20  1  1  0  0  0
 22 25  1  0  0  0  0
 22 24  1  0  0  0  0
 24 26  1  0  0  0  0
 25 27  1  6  0  0  0
 25 23  1  0  0  0  0
 26 23  1  0  0  0  0
 27 28  1  1  0  0  0
 27 29  1  0  0  0  0
 29 30  1  6  0  0  0
 31 29  1  0  0  0  0
 31 34  1  0  0  0  0
 32 31  2  0  0  0  0
 34 33  1  0  0  0  0
 36 37  2  0  0  0  0
 36 39  1  0  0  0  0
 37 41  1  0  0  0  0
 39 40  2  0  0  0  0
 40 38  1  0  0  0  0
 40 35  1  0  0  0  0
 41 38  2  0  0  0  0
 42 43  1  0  0  0  0
 43 37  1  0  0  0  0
M  END
>  <MODEL>
3

>  <REMARK>
 VINA RESULT:      -9.7      1.458      2.465
  Name = 
  12 active torsions:
  status: ('A' for Active; 'I' for Inactive)
    1  A    between atoms: O_1  and  C_34
    2  A    between atoms: O_1  and  C_35
    3  A    between atoms: C_2  and  N_6
    4  A    between atoms: C_2  and  C_13
    5  A    between atoms: C_3  and  C_4
    6  A    between atoms: C_3  and  C_12
    7  A    between atoms: N_6  and  C_12
    8  A    between atoms: C_11  and  C_14
    9  A    between atoms: C_11  and  C_29
   10  A    between atoms: C_14  and  C_22
   11  A    between atoms: C_19  and  C_37
   12  A    between atoms: C_29  and  C_31
                            x       y       z     vdW  Elec       q    Type
                         _______ _______ _______ _____ _____    ______ ____

>  <TORSDO>
F 12

$$$$
=
 OpenBabel11052416053D

 43 47  0  0  1  0  0  0  0  0999 V2000
  191.3540  176.6880  147.0700 C   0  0  0  0  0  0  0  0  0  0  0  0
  186.9860  177.8290  144.7860 C   0  0  0  0  0  0  0  0  0  0  0  0
  187.5670  177.9030  142.0670 C   0  0  0  0  0  0  0  0  0  0  0  0
  189.0420  177.2460  146.6080 C   0  0  0  0  0  0  0  0  0  0  0  0
  191.6390  176.7120  145.7020 C   0  0  0  0  0  3  0  0  0  0  0  0
  192.3590  176.3980  147.9810 O   0  0  0  0  0  1  0  0  0  0  0  0
  189.3240  177.2770  145.2210 C   0  0  0  0  0  0  0  0  0  0  0  0
  190.0570  176.9550  147.5230 C   0  0  0  0  0  3  0  0  0  0  0  0
  190.6300  177.0060  144.7800 C   0  0  0  0  0  3  0  0  0  0  0  0
  188.5430  177.6120  142.9700 N   0  0  0  0  0  0  0  0  0  0  0  0
  188.2940  177.5720  144.3090 C   0  0  0  0  0  0  0  0  0  0  0  0
  186.7270  177.7940  146.1620 C   0  0  0  0  0  3  0  0  0  0  0  0
  185.9580  178.1050  143.8680 C   0  0  0  0  0  0  0  0  0  0  0  0
  186.2650  178.1470  142.5010 C   0  0  0  0  0  3  0  0  0  0  0  0
  187.7490  177.5050  147.0680 C   0  0  0  0  0  3  0  0  0  0  0  0
  187.8700  177.9110  140.6070 C   0  0  1  0  0  3  0  0  0  0  0  0
  186.8850  178.6250  139.9210 O   0  0  0  0  0  1  0  0  0  0  0  0
  189.1710  178.5180  140.3810 N   0  0  0  0  0  2  0  0  0  0  0  0
  189.7310  177.9040  139.1890 C   0  0  0  0  0  2  0  0  0  0  0  0
  191.1920  177.5300  139.4200 C   0  0  1  0  0  3  0  0  0  0  0  0
  191.3990  177.2040  140.8860 C   0  0  0  0  0  1  0  0  0  0  0  0
  191.6850  176.3660  138.5480 C   0  0  2  0  0  3  0  0  0  0  0  0
  191.9600  175.7960  136.1880 C   0  0  0  0  0  2  0  0  0  0  0  0
  193.1450  176.5060  138.1790 C   0  0  0  0  0  2  0  0  0  0  0  0
  190.9300  176.2060  137.2360 C   0  0  1  0  0  3  0  0  0  0  0  0
  193.3000  175.7210  136.8950 C   0  0  0  0  0  2  0  0  0  0  0  0
  189.7940  175.1870  137.3770 C   0  0  2  0  0  3  0  0  0  0  0  0
  190.3060  173.9080  137.6140 O   0  0  0  0  0  1  0  0  0  0  0  0
  188.8810  175.1710  136.1500 C   0  0  1  0  0  3  0  0  0  0  0  0
  187.9110  174.1760  136.2870 O   0  0  0  0  0  1  0  0  0  0  0  0
  188.2120  176.4960  135.9260 C   0  0  0  0  0  0  0  0  0  0  0  0
  188.4720  177.1690  134.8080 C   0  0  0  0  0  2  0  0  0  0  0  0
  185.8780  176.8670  136.0950 O   0  0  0  0  0  1  0  0  0  0  0  0
  187.0800  176.9360  136.8000 C   0  0  0  0  0  2  0  0  0  0  0  0
  184.6590  178.3600  144.3450 O   0  0  0  0  0  0  0  0  0  0  0  0
  182.3370  178.7360  141.4450 C   0  0  0  0  0  3  0  0  0  0  0  0
  181.1520  179.0530  142.1150 C   0  0  0  0  0  0  0  0  0  0  0  0
  182.3200  178.9210  144.2330 C   0  0  0  0  0  3  0  0  0  0  0  0
  183.5090  178.5070  142.1700 C   0  0  0  0  0  3  0  0  0  0  0  0
  183.5110  178.6030  143.5720 C   0  0  0  0  0  0  0  0  0  0  0  0
  181.1460  179.1500  143.5090 C   0  0  0  0  0  3  0  0  0  0  0  0
  179.2030  180.4490  141.9130 N   0  0  0  0  0  1  0  0  0  0  0  0
  179.9070  179.3140  141.3430 C   0  0  0  0  0  2  0  0  0  0  0  0
  1  8  1  0  0  0  0
  1  6  1  0  0  0  0
  2 12  1  0  0  0  0
  3 14  2  0  0  0  0
  3 10  1  0  0  0  0
  4 15  1  0  0  0  0
  4  8  2  0  0  0  0
  5  1  2  0  0  0  0
  7  4  1  0  0  0  0
  9  7  2  0  0  0  0
  9  5  1  0  0  0  0
 10 11  2  0  0  0  0
 11  2  1  0  0  0  0
 11  7  1  0  0  0  0
 12 15  2  0  0  0  0
 13 35  1  0  0  0  0
 13  2  2  0  0  0  0
 14 13  1  0  0  0  0
 16 17  1  6  0  0  0
 16  3  1  0  0  0  0
 18 16  1  0  0  0  0
 19 20  1  0  0  0  0
 19 18  1  0  0  0  0
 20 21  1  1  0  0  0
 22 20  1  6  0  0  0
 23 26  1  0  0  0  0
 23 25  1  0  0  0  0
 24 22  1  0  0  0  0
 25 27  1  1  0  0  0
 25 22  1  0  0  0  0
 26 24  1  0  0  0  0
 27 28  1  6  0  0  0
 29 30  1  1  0  0  0
 29 27  1  0  0  0  0
 31 29  1  0  0  0  0
 31 34  1  0  0  0  0
 32 31  2  0  0  0  0
 33 34  1  0  0  0  0
 36 37  2  0  0  0  0
 36 39  1  0  0  0  0
 37 41  1  0  0  0  0
 39 40  2  0  0  0  0
 40 38  1  0  0  0  0
 40 35  1  0  0  0  0
 41 38  2  0  0  0  0
 43 42  1  0  0  0  0
 43 37  1  0  0  0  0
M  END
>  <MODEL>
4

>  <REMARK>
 VINA RESULT:      -9.5      1.454      2.311
  Name = 
  12 active torsions:
  status: ('A' for Active; 'I' for Inactive)
    1  A    between atoms: O_1  and  C_34
    2  A    between atoms: O_1  and  C_35
    3  A    between atoms: C_2  and  N_6
    4  A    between atoms: C_2  and  C_13
    5  A    between atoms: C_3  and  C_4
    6  A    between atoms: C_3  and  C_12
    7  A    between atoms: N_6  and  C_12
    8  A    between atoms: C_11  and  C_14
    9  A    between atoms: C_11  and  C_29
   10  A    between atoms: C_14  and  C_22
   11  A    between atoms: C_19  and  C_37
   12  A    between atoms: C_29  and  C_31
                            x       y       z     vdW  Elec       q    Type
                         _______ _______ _______ _____ _____    ______ ____

>  <TORSDO>
F 12

$$$$
=
 OpenBabel11052416053D

 43 47  0  0  1  0  0  0  0  0999 V2000
  191.3210  176.7020  146.9300 C   0  0  0  0  0  0  0  0  0  0  0  0
  187.0530  177.8150  144.4500 C   0  0  0  0  0  0  0  0  0  0  0  0
  187.8010  178.1250  141.7890 C   0  0  0  0  0  0  0  0  0  0  0  0
  189.0180  177.1870  146.3570 C   0  0  0  0  0  0  0  0  0  0  0  0
  191.6910  176.8450  145.5890 C   0  0  0  0  0  3  0  0  0  0  0  0
  192.2800  176.3880  147.8820 O   0  0  0  0  0  1  0  0  0  0  0  0
  189.3850  177.3380  144.9980 C   0  0  0  0  0  0  0  0  0  0  0  0
  189.9870  176.8730  147.3140 C   0  0  0  0  0  3  0  0  0  0  0  0
  190.7280  177.1620  144.6270 C   0  0  0  0  0  3  0  0  0  0  0  0
  188.7310  177.8110  142.7310 N   0  0  0  0  0  0  0  0  0  0  0  0
  188.4010  177.6560  144.0440 C   0  0  0  0  0  0  0  0  0  0  0  0
  186.7110  177.6610  145.7990 C   0  0  0  0  0  3  0  0  0  0  0  0
  186.0730  178.1130  143.4890 C   0  0  0  0  0  0  0  0  0  0  0  0
  186.4630  178.2760  142.1520 C   0  0  0  0  0  3  0  0  0  0  0  0
  187.6870  177.3500  146.7480 C   0  0  0  0  0  3  0  0  0  0  0  0
  188.1940  178.2610  140.3570 C   0  0  1  0  0  3  0  0  0  0  0  0
  189.0190  177.1980  139.9870 O   0  0  0  0  0  1  0  0  0  0  0  0
  187.0040  178.2810  139.5230 N   0  0  0  0  0  2  0  0  0  0  0  0
  187.4420  178.1500  138.1440 C   0  0  0  0  0  2  0  0  0  0  0  0
  186.5060  177.2240  137.3740 C   0  0  1  0  0  3  0  0  0  0  0  0
  186.3380  177.7450  135.9600 C   0  0  0  0  0  1  0  0  0  0  0  0
  186.9620  175.7580  137.3440 C   0  0  2  0  0  3  0  0  0  0  0  0
  186.9420  173.8350  135.8370 C   0  0  0  0  0  2  0  0  0  0  0  0
  188.3380  175.6000  136.7350 C   0  0  0  0  0  2  0  0  0  0  0  0
  186.0430  174.8340  136.5570 C   0  0  1  0  0  3  0  0  0  0  0  0
  188.3710  174.1820  136.2080 C   0  0  0  0  0  2  0  0  0  0  0  0
  185.0270  174.1550  137.4810 C   0  0  2  0  0  3  0  0  0  0  0  0
  185.4970  172.9060  137.8990 O   0  0  0  0  0  1  0  0  0  0  0  0
  183.6560  174.0070  136.8190 C   0  0  1  0  0  3  0  0  0  0  0  0
  183.3160  172.6580  136.7150 O   0  0  0  0  0  1  0  0  0  0  0  0
  182.5820  174.7390  137.5720 C   0  0  0  0  0  0  0  0  0  0  0  0
  182.9320  175.5520  138.5660 C   0  0  0  0  0  2  0  0  0  0  0  0
  180.3810  173.8970  137.8060 O   0  0  0  0  0  1  0  0  0  0  0  0
  181.1770  174.7670  137.0600 C   0  0  0  0  0  2  0  0  0  0  0  0
  184.7350  178.2700  143.8960 O   0  0  0  0  0  0  0  0  0  0  0  0
  182.5240  178.5470  140.9000 C   0  0  0  0  0  3  0  0  0  0  0  0
  181.3440  178.9930  141.5030 C   0  0  0  0  0  0  0  0  0  0  0  0
  182.4430  178.9670  143.6620 C   0  0  0  0  0  3  0  0  0  0  0  0
  183.6580  178.3070  141.6800 C   0  0  0  0  0  3  0  0  0  0  0  0
  183.6280  178.5200  143.0680 C   0  0  0  0  0  0  0  0  0  0  0  0
  181.3060  179.2080  142.8830 C   0  0  0  0  0  3  0  0  0  0  0  0
  179.2110  180.1050  141.4090 N   0  0  0  0  0  1  0  0  0  0  0  0
  180.1410  179.2670  140.6710 C   0  0  0  0  0  2  0  0  0  0  0  0
  1  8  1  0  0  0  0
  1  6  1  0  0  0  0
  2 12  1  0  0  0  0
  3 14  2  0  0  0  0
  3 10  1  0  0  0  0
  4 15  1  0  0  0  0
  4  8  2  0  0  0  0
  5  1  2  0  0  0  0
  7  4  1  0  0  0  0
  9  7  2  0  0  0  0
  9  5  1  0  0  0  0
 10 11  2  0  0  0  0
 11  2  1  0  0  0  0
 11  7  1  0  0  0  0
 12 15  2  0  0  0  0
 13 35  1  0  0  0  0
 13  2  2  0  0  0  0
 14 13  1  0  0  0  0
 16 17  1  6  0  0  0
 16  3  1  0  0  0  0
 18 16  1  0  0  0  0
 19 18  1  0  0  0  0
 20 21  1  6  0  0  0
 20 19  1  0  0  0  0
 22 20  1  6  0  0  0
 23 26  1  0  0  0  0
 23 25  1  0  0  0  0
 24 22  1  0  0  0  0
 25 22  1  0  0  0  0
 25 27  1  1  0  0  0
 26 24  1  0  0  0  0
 27 28  1  6  0  0  0
 29 30  1  1  0  0  0
 29 27  1  0  0  0  0
 29 31  1  0  0  0  0
 31 32  2  0  0  0  0
 34 31  1  0  0  0  0
 34 33  1  0  0  0  0
 36 37  2  0  0  0  0
 36 39  1  0  0  0  0
 37 41  1  0  0  0  0
 39 40  2  0  0  0  0
 40 38  1  0  0  0  0
 40 35  1  0  0  0  0
 41 38  2  0  0  0  0
 43 42  1  0  0  0  0
 43 37  1  0  0  0  0
M  END
>  <MODEL>
5

>  <REMARK>
 VINA RESULT:      -9.3      1.647      2.676
  Name = 
  12 active torsions:
  status: ('A' for Active; 'I' for Inactive)
    1  A    between atoms: O_1  and  C_34
    2  A    between atoms: O_1  and  C_35
    3  A    between atoms: C_2  and  N_6
    4  A    between atoms: C_2  and  C_13
    5  A    between atoms: C_3  and  C_4
    6  A    between atoms: C_3  and  C_12
    7  A    between atoms: N_6  and  C_12
    8  A    between atoms: C_11  and  C_14
    9  A    between atoms: C_11  and  C_29
   10  A    between atoms: C_14  and  C_22
   11  A    between atoms: C_19  and  C_37
   12  A    between atoms: C_29  and  C_31
                            x       y       z     vdW  Elec       q    Type
                         _______ _______ _______ _____ _____    ______ ____

>  <TORSDO>
F 12

$$$$
=
 OpenBabel11052416053D

 43 47  0  0  1  0  0  0  0  0999 V2000
  191.4670  176.4440  146.8880 C   0  0  0  0  0  0  0  0  0  0  0  0
  187.1230  177.8380  144.7000 C   0  0  0  0  0  0  0  0  0  0  0  0
  187.6310  177.8230  141.9660 C   0  0  0  0  0  0  0  0  0  0  0  0
  189.1860  177.1490  146.4770 C   0  0  0  0  0  0  0  0  0  0  0  0
  191.7140  176.4240  145.5120 C   0  0  0  0  0  3  0  0  0  0  0  0
  192.4750  176.1020  147.7770 O   0  0  0  0  0  1  0  0  0  0  0  0
  189.4300  177.1360  145.0830 C   0  0  0  0  0  0  0  0  0  0  0  0
  190.2050  176.8060  147.3700 C   0  0  0  0  0  3  0  0  0  0  0  0
  190.7010  176.7690  144.6120 C   0  0  0  0  0  3  0  0  0  0  0  0
  188.6100  177.4830  142.8480 N   0  0  0  0  0  0  0  0  0  0  0  0
  188.3970  177.4840  144.1930 C   0  0  0  0  0  0  0  0  0  0  0  0
  186.9010  177.8450  146.0830 C   0  0  0  0  0  3  0  0  0  0  0  0
  186.0900  178.1670  143.8060 C   0  0  0  0  0  0  0  0  0  0  0  0
  186.3610  178.1640  142.4300 C   0  0  0  0  0  3  0  0  0  0  0  0
  187.9270  177.5040  146.9670 C   0  0  0  0  0  3  0  0  0  0  0  0
  187.8910  177.7860  140.4980 C   0  0  1  0  0  3  0  0  0  0  0  0
  186.9960  178.6250  139.8330 O   0  0  0  0  0  1  0  0  0  0  0  0
  189.2570  178.2060  140.2330 N   0  0  0  0  0  2  0  0  0  0  0  0
  189.4110  178.2860  138.7910 C   0  0  0  0  0  2  0  0  0  0  0  0
  190.6100  177.4580  138.3380 C   0  0  1  0  0  3  0  0  0  0  0  0
  191.2580  176.8130  139.5470 C   0  0  0  0  0  1  0  0  0  0  0  0
  190.2700  176.3880  137.2900 C   0  0  2  0  0  3  0  0  0  0  0  0
  190.3370  173.9600  137.0230 C   0  0  0  0  0  2  0  0  0  0  0  0
  188.8720  175.8380  137.4670 C   0  0  0  0  0  2  0  0  0  0  0  0
  191.2020  175.1840  137.3040 C   0  0  1  0  0  3  0  0  0  0  0  0
  188.9140  174.4570  136.8500 C   0  0  0  0  0  2  0  0  0  0  0  0
  192.3320  175.3540  136.2830 C   0  0  2  0  0  3  0  0  0  0  0  0
  192.4210  174.2310  135.4540 O   0  0  0  0  0  1  0  0  0  0  0  0
  193.6800  175.6210  136.9550 C   0  0  1  0  0  3  0  0  0  0  0  0
  193.9730  174.6030  137.8630 O   0  0  0  0  0  1  0  0  0  0  0  0
  194.7960  175.7400  135.9580 C   0  0  0  0  0  0  0  0  0  0  0  0
  194.8140  176.7840  135.1330 C   0  0  0  0  0  2  0  0  0  0  0  0
  197.0620  175.5650  136.6250 O   0  0  0  0  0  1  0  0  0  0  0  0
  196.0010  174.8600  136.0550 C   0  0  0  0  0  2  0  0  0  0  0  0
  184.8250  178.5180  144.3120 O   0  0  0  0  0  0  0  0  0  0  0  0
  182.3770  178.6870  141.4980 C   0  0  0  0  0  3  0  0  0  0  0  0
  181.1850  178.8310  142.2150 C   0  0  0  0  0  0  0  0  0  0  0  0
  182.4330  178.7830  144.2900 C   0  0  0  0  0  3  0  0  0  0  0  0
  183.5920  178.5860  142.1790 C   0  0  0  0  0  3  0  0  0  0  0  0
  183.6310  178.6380  143.5830 C   0  0  0  0  0  0  0  0  0  0  0  0
  181.2140  178.8830  143.6110 C   0  0  0  0  0  3  0  0  0  0  0  0
  180.0330  179.8940  140.3890 N   0  0  0  0  0  1  0  0  0  0  0  0
  179.8920  178.9570  141.4890 C   0  0  0  0  0  2  0  0  0  0  0  0
  1  8  1  0  0  0  0
  1  6  1  0  0  0  0
  2 12  1  0  0  0  0
  3 14  2  0  0  0  0
  3 10  1  0  0  0  0
  4 15  1  0  0  0  0
  4  8  2  0  0  0  0
  5  1  2  0  0  0  0
  7  4  1  0  0  0  0
  9  7  2  0  0  0  0
  9  5  1  0  0  0  0
 10 11  2  0  0  0  0
 11  2  1  0  0  0  0
 11  7  1  0  0  0  0
 12 15  2  0  0  0  0
 13 35  1  0  0  0  0
 13  2  2  0  0  0  0
 14 13  1  0  0  0  0
 16 17  1  6  0  0  0
 16  3  1  0  0  0  0
 18 16  1  0  0  0  0
 19 18  1  0  0  0  0
 20 19  1  0  0  0  0
 20 21  1  1  0  0  0
 22 25  1  0  0  0  0
 22 24  1  0  0  0  0
 22 20  1  1  0  0  0
 23 25  1  0  0  0  0
 25 27  1  6  0  0  0
 26 23  1  0  0  0  0
 26 24  1  0  0  0  0
 27 28  1  1  0  0  0
 27 29  1  0  0  0  0
 29 30  1  1  0  0  0
 31 34  1  0  0  0  0
 31 29  1  0  0  0  0
 32 31  2  0  0  0  0
 34 33  1  0  0  0  0
 36 39  2  0  0  0  0
 36 37  1  0  0  0  0
 37 41  2  0  0  0  0
 39 40  1  0  0  0  0
 40 38  2  0  0  0  0
 40 35  1  0  0  0  0
 41 38  1  0  0  0  0
 42 43  1  0  0  0  0
 43 37  1  0  0  0  0
M  END
>  <MODEL>
6

>  <REMARK>
 VINA RESULT:      -9.3      2.141      3.836
  Name = 
  12 active torsions:
  status: ('A' for Active; 'I' for Inactive)
    1  A    between atoms: O_1  and  C_34
    2  A    between atoms: O_1  and  C_35
    3  A    between atoms: C_2  and  N_6
    4  A    between atoms: C_2  and  C_13
    5  A    between atoms: C_3  and  C_4
    6  A    between atoms: C_3  and  C_12
    7  A    between atoms: N_6  and  C_12
    8  A    between atoms: C_11  and  C_14
    9  A    between atoms: C_11  and  C_29
   10  A    between atoms: C_14  and  C_22
   11  A    between atoms: C_19  and  C_37
   12  A    between atoms: C_29  and  C_31
                            x       y       z     vdW  Elec       q    Type
                         _______ _______ _______ _____ _____    ______ ____

>  <TORSDO>
F 12

$$$$
=
 OpenBabel11052416053D

 43 47  0  0  1  0  0  0  0  0999 V2000
  191.4880  176.4040  147.1330 C   0  0  0  0  0  0  0  0  0  0  0  0
  187.3220  177.8590  144.6570 C   0  0  0  0  0  0  0  0  0  0  0  0
  188.0180  177.8500  141.9640 C   0  0  0  0  0  0  0  0  0  0  0  0
  189.2490  177.1380  146.5690 C   0  0  0  0  0  0  0  0  0  0  0  0
  191.8290  176.3870  145.7770 C   0  0  0  0  0  3  0  0  0  0  0  0
  192.4280  176.0460  148.0880 O   0  0  0  0  0  1  0  0  0  0  0  0
  189.5890  177.1280  145.1950 C   0  0  0  0  0  0  0  0  0  0  0  0
  190.1990  176.7790  147.5290 C   0  0  0  0  0  3  0  0  0  0  0  0
  190.8860  176.7470  144.8120 C   0  0  0  0  0  3  0  0  0  0  0  0
  188.9300  177.4940  142.9100 N   0  0  0  0  0  0  0  0  0  0  0  0
  188.6250  177.4920  144.2380 C   0  0  0  0  0  0  0  0  0  0  0  0
  187.0060  177.8630  146.0210 C   0  0  0  0  0  3  0  0  0  0  0  0
  186.3580  178.2040  143.6950 C   0  0  0  0  0  0  0  0  0  0  0  0
  186.7230  178.2040  142.3410 C   0  0  0  0  0  3  0  0  0  0  0  0
  187.9630  177.5060  146.9720 C   0  0  0  0  0  3  0  0  0  0  0  0
  188.3800  177.8160  140.5180 C   0  0  1  0  0  3  0  0  0  0  0  0
  188.0980  179.0480  139.9270 O   0  0  0  0  0  1  0  0  0  0  0  0
  189.7930  177.5070  140.3750 N   0  0  0  0  0  2  0  0  0  0  0  0
  189.9000  176.4050  139.4330 C   0  0  0  0  0  2  0  0  0  0  0  0
  189.6880  176.9030  138.0070 C   0  0  1  0  0  3  0  0  0  0  0  0
  190.9830  176.7640  137.2310 C   0  0  0  0  0  1  0  0  0  0  0  0
  188.5490  176.1930  137.2600 C   0  0  2  0  0  3  0  0  0  0  0  0
  187.8410  175.7130  134.9710 C   0  0  0  0  0  2  0  0  0  0  0  0
  188.8860  174.7550  136.9370 C   0  0  0  0  0  2  0  0  0  0  0  0
  188.1680  176.8450  135.9390 C   0  0  1  0  0  3  0  0  0  0  0  0
  188.0350  174.4150  135.7330 C   0  0  0  0  0  2  0  0  0  0  0  0
  186.9980  177.8180  136.1250 C   0  0  2  0  0  3  0  0  0  0  0  0
  187.4640  179.0870  136.4830 O   0  0  0  0  0  1  0  0  0  0  0  0
  185.9900  177.3150  137.1590 C   0  0  1  0  0  3  0  0  0  0  0  0
  185.7420  178.3060  138.1090 O   0  0  0  0  0  1  0  0  0  0  0  0
  184.6950  176.8910  136.5270 C   0  0  0  0  0  0  0  0  0  0  0  0
  184.4630  177.2110  135.2560 C   0  0  0  0  0  2  0  0  0  0  0  0
  182.7770  176.5860  137.8830 O   0  0  0  0  0  1  0  0  0  0  0  0
  183.7980  175.9100  137.2120 C   0  0  0  0  0  2  0  0  0  0  0  0
  185.0650  178.5680  144.1140 O   0  0  0  0  0  0  0  0  0  0  0  0
  182.7560  178.4690  141.1820 C   0  0  0  0  0  3  0  0  0  0  0  0
  181.5490  178.8000  141.8060 C   0  0  0  0  0  0  0  0  0  0  0  0
  182.7020  178.9870  143.9280 C   0  0  0  0  0  3  0  0  0  0  0  0
  183.9310  178.3920  141.9330 C   0  0  0  0  0  3  0  0  0  0  0  0
  183.9140  178.6550  143.3130 C   0  0  0  0  0  0  0  0  0  0  0  0
  181.5240  179.0630  143.1780 C   0  0  0  0  0  3  0  0  0  0  0  0
  179.5340  180.0590  141.4260 N   0  0  0  0  0  1  0  0  0  0  0  0
  180.3000  178.9000  141.0030 C   0  0  0  0  0  2  0  0  0  0  0  0
  1  8  1  0  0  0  0
  1  6  1  0  0  0  0
  2 12  1  0  0  0  0
  3 14  2  0  0  0  0
  3 10  1  0  0  0  0
  4 15  1  0  0  0  0
  4  8  2  0  0  0  0
  5  1  2  0  0  0  0
  7  4  1  0  0  0  0
  9  7  2  0  0  0  0
  9  5  1  0  0  0  0
 10 11  2  0  0  0  0
 11  2  1  0  0  0  0
 11  7  1  0  0  0  0
 12 15  2  0  0  0  0
 13 35  1  0  0  0  0
 13  2  2  0  0  0  0
 14 13  1  0  0  0  0
 16 17  1  1  0  0  0
 16  3  1  0  0  0  0
 18 16  1  0  0  0  0
 19 18  1  0  0  0  0
 20 21  1  6  0  0  0
 20 19  1  0  0  0  0
 22 20  1  6  0  0  0
 23 26  1  0  0  0  0
 23 25  1  0  0  0  0
 24 22  1  0  0  0  0
 25 27  1  1  0  0  0
 25 22  1  0  0  0  0
 26 24  1  0  0  0  0
 27 28  1  1  0  0  0
 27 29  1  0  0  0  0
 29 30  1  1  0  0  0
 31 29  1  0  0  0  0
 31 34  1  0  0  0  0
 32 31  2  0  0  0  0
 34 33  1  0  0  0  0
 36 37  2  0  0  0  0
 36 39  1  0  0  0  0
 37 41  1  0  0  0  0
 39 40  2  0  0  0  0
 40 38  1  0  0  0  0
 40 35  1  0  0  0  0
 41 38  2  0  0  0  0
 43 42  1  0  0  0  0
 43 37  1  0  0  0  0
M  END
>  <MODEL>
7

>  <REMARK>
 VINA RESULT:      -9.3      1.521      2.162
  Name = 
  12 active torsions:
  status: ('A' for Active; 'I' for Inactive)
    1  A    between atoms: O_1  and  C_34
    2  A    between atoms: O_1  and  C_35
    3  A    between atoms: C_2  and  N_6
    4  A    between atoms: C_2  and  C_13
    5  A    between atoms: C_3  and  C_4
    6  A    between atoms: C_3  and  C_12
    7  A    between atoms: N_6  and  C_12
    8  A    between atoms: C_11  and  C_14
    9  A    between atoms: C_11  and  C_29
   10  A    between atoms: C_14  and  C_22
   11  A    between atoms: C_19  and  C_37
   12  A    between atoms: C_29  and  C_31
                            x       y       z     vdW  Elec       q    Type
                         _______ _______ _______ _____ _____    ______ ____

>  <TORSDO>
F 12

$$$$
=
 OpenBabel11052416053D

 43 47  0  0  1  0  0  0  0  0999 V2000
  182.1090  178.9870  142.3640 C   0  0  0  0  0  0  0  0  0  0  0  0
  186.4640  178.1250  144.7930 C   0  0  0  0  0  0  0  0  0  0  0  0
  188.3310  177.5960  142.8010 C   0  0  0  0  0  0  0  0  0  0  0  0
  183.8080  178.6800  144.0630 C   0  0  0  0  0  0  0  0  0  0  0  0
  183.0540  178.7340  141.3650 C   0  0  0  0  0  3  0  0  0  0  0  0
  180.7950  179.2660  142.0190 O   0  0  0  0  0  1  0  0  0  0  0  0
  184.7700  178.4190  143.0580 C   0  0  0  0  0  0  0  0  0  0  0  0
  182.4850  178.9600  143.7110 C   0  0  0  0  0  3  0  0  0  0  0  0
  184.3790  178.4500  141.7090 C   0  0  0  0  0  3  0  0  0  0  0  0
  187.0410  177.8780  142.4740 N   0  0  0  0  0  0  0  0  0  0  0  0
  186.0990  178.1380  143.4240 C   0  0  0  0  0  0  0  0  0  0  0  0
  185.4970  178.3870  145.7720 C   0  0  0  0  0  3  0  0  0  0  0  0
  187.7960  177.8620  145.1500 C   0  0  0  0  0  0  0  0  0  0  0  0
  188.7270  177.5890  144.1380 C   0  0  0  0  0  3  0  0  0  0  0  0
  184.1770  178.6620  145.4100 C   0  0  0  0  0  3  0  0  0  0  0  0
  189.3410  177.3420  141.7340 C   0  0  1  0  0  3  0  0  0  0  0  0
  189.9950  176.1320  141.9730 O   0  0  0  0  0  1  0  0  0  0  0  0
  188.6840  177.3040  140.4380 N   0  0  0  0  0  2  0  0  0  0  0  0
  189.4100  178.2060  139.5600 C   0  0  0  0  0  2  0  0  0  0  0  0
  189.8600  177.4730  138.3000 C   0  0  1  0  0  3  0  0  0  0  0  0
  191.0090  176.5460  138.6450 C   0  0  0  0  0  1  0  0  0  0  0  0
  188.7420  176.6870  137.6010 C   0  0  2  0  0  3  0  0  0  0  0  0
  187.9620  176.1730  135.3430 C   0  0  0  0  0  2  0  0  0  0  0  0
  189.1680  175.2800  137.2450 C   0  0  0  0  0  2  0  0  0  0  0  0
  188.2500  177.3190  136.3060 C   0  0  1  0  0  3  0  0  0  0  0  0
  188.2870  174.8880  136.0800 C   0  0  0  0  0  2  0  0  0  0  0  0
  187.0220  178.2010  136.5590 C   0  0  2  0  0  3  0  0  0  0  0  0
  187.4080  179.5190  136.8240 O   0  0  0  0  0  1  0  0  0  0  0  0
  186.1540  177.6660  137.6980 C   0  0  1  0  0  3  0  0  0  0  0  0
  186.0260  178.6310  138.6980 O   0  0  0  0  0  1  0  0  0  0  0  0
  184.7910  177.2520  137.2230 C   0  0  0  0  0  0  0  0  0  0  0  0
  184.5730  177.1300  135.9160 C   0  0  0  0  0  2  0  0  0  0  0  0
  182.5120  176.7210  137.5920 O   0  0  0  0  0  1  0  0  0  0  0  0
  183.7730  176.7320  138.1890 C   0  0  0  0  0  2  0  0  0  0  0  0
  188.1560  177.8510  146.5110 O   0  0  0  0  0  0  0  0  0  0  0  0
  191.1880  177.6970  148.6830 C   0  0  0  0  0  3  0  0  0  0  0  0
  191.8620  176.6230  148.0930 C   0  0  0  0  0  0  0  0  0  0  0  0
  190.0800  176.4060  146.4660 C   0  0  0  0  0  3  0  0  0  0  0  0
  189.9600  178.1180  148.1680 C   0  0  0  0  0  3  0  0  0  0  0  0
  189.3980  177.4790  147.0500 C   0  0  0  0  0  0  0  0  0  0  0  0
  191.3090  175.9820  146.9810 C   0  0  0  0  0  3  0  0  0  0  0  0
  193.6370  177.1260  149.6370 N   0  0  0  0  0  1  0  0  0  0  0  0
  193.1790  176.1860  148.6300 C   0  0  0  0  0  2  0  0  0  0  0  0
  1  8  1  0  0  0  0
  2 13  1  0  0  0  0
  2 12  1  0  0  0  0
  3 14  1  0  0  0  0
  4 15  1  0  0  0  0
  5  9  1  0  0  0  0
  5  1  2  0  0  0  0
  6  1  1  0  0  0  0
  7 11  1  0  0  0  0
  7  4  1  0  0  0  0
  8  4  2  0  0  0  0
  9  7  2  0  0  0  0
 10  3  2  0  0  0  0
 10 11  1  0  0  0  0
 11  2  2  0  0  0  0
 13 35  1  0  0  0  0
 14 13  2  0  0  0  0
 15 12  2  0  0  0  0
 16 17  1  1  0  0  0
 16  3  1  0  0  0  0
 18 16  1  0  0  0  0
 19 18  1  0  0  0  0
 20 21  1  1  0  0  0
 20 19  1  0  0  0  0
 22 20  1  6  0  0  0
 23 26  1  0  0  0  0
 23 25  1  0  0  0  0
 24 22  1  0  0  0  0
 25 27  1  1  0  0  0
 25 22  1  0  0  0  0
 26 24  1  0  0  0  0
 27 28  1  1  0  0  0
 27 29  1  0  0  0  0
 29 30  1  1  0  0  0
 31 29  1  0  0  0  0
 31 34  1  0  0  0  0
 32 31  2  0  0  0  0
 33 34  1  0  0  0  0
 35 40  1  0  0  0  0
 37 43  1  0  0  0  0
 37 36  2  0  0  0  0
 38 41  2  0  0  0  0
 38 40  1  0  0  0  0
 39 36  1  0  0  0  0
 40 39  2  0  0  0  0
 41 37  1  0  0  0  0
 43 42  1  0  0  0  0
M  END
>  <MODEL>
8

>  <REMARK>
 VINA RESULT:      -9.0      2.367      6.764
  Name = 
  12 active torsions:
  status: ('A' for Active; 'I' for Inactive)
    1  A    between atoms: O_1  and  C_34
    2  A    between atoms: O_1  and  C_35
    3  A    between atoms: C_2  and  N_6
    4  A    between atoms: C_2  and  C_13
    5  A    between atoms: C_3  and  C_4
    6  A    between atoms: C_3  and  C_12
    7  A    between atoms: N_6  and  C_12
    8  A    between atoms: C_11  and  C_14
    9  A    between atoms: C_11  and  C_29
   10  A    between atoms: C_14  and  C_22
   11  A    between atoms: C_19  and  C_37
   12  A    between atoms: C_29  and  C_31
                            x       y       z     vdW  Elec       q    Type
                         _______ _______ _______ _____ _____    ______ ____

>  <TORSDO>
F 12

$$$$
=
 OpenBabel11052416053D

 43 47  0  0  1  0  0  0  0  0999 V2000
  184.5740  178.4140  138.2330 C   0  0  0  0  0  0  0  0  0  0  0  0
  189.2780  176.6800  137.5480 C   0  0  0  0  0  0  0  0  0  0  0  0
  190.5830  177.0970  139.9680 C   0  0  0  0  0  0  0  0  0  0  0  0
  186.5910  177.4580  137.2910 C   0  0  0  0  0  0  0  0  0  0  0  0
  185.2300  178.6090  139.4520 C   0  0  0  0  0  3  0  0  0  0  0  0
  183.2460  178.7900  138.0930 O   0  0  0  0  0  1  0  0  0  0  0  0
  187.2630  177.6570  138.5220 C   0  0  0  0  0  0  0  0  0  0  0  0
  185.2540  177.8390  137.1540 C   0  0  0  0  0  3  0  0  0  0  0  0
  186.5680  178.2330  139.5970 C   0  0  0  0  0  3  0  0  0  0  0  0
  189.2780  177.4550  139.8210 N   0  0  0  0  0  0  0  0  0  0  0  0
  188.6100  177.2700  138.6490 C   0  0  0  0  0  0  0  0  0  0  0  0
  188.5950  176.4910  136.3390 C   0  0  0  0  0  3  0  0  0  0  0  0
  190.6170  176.2790  137.6870 C   0  0  0  0  0  0  0  0  0  0  0  0
  191.2670  176.5020  138.9090 C   0  0  0  0  0  3  0  0  0  0  0  0
  187.2610  176.8790  136.2110 C   0  0  0  0  0  3  0  0  0  0  0  0
  191.2750  177.2910  141.2740 C   0  0  1  0  0  3  0  0  0  0  0  0
  192.5490  177.8210  141.0650 O   0  0  0  0  0  1  0  0  0  0  0  0
  190.4960  178.1880  142.1120 N   0  0  0  0  0  2  0  0  0  0  0  0
  190.3790  177.5630  143.4190 C   0  0  0  0  0  2  0  0  0  0  0  0
  188.9480  177.6730  143.9350 C   0  0  1  0  0  3  0  0  0  0  0  0
  188.2140  176.3770  143.6540 C   0  0  0  0  0  1  0  0  0  0  0  0
  188.8460  178.0220  145.4270 C   0  0  2  0  0  3  0  0  0  0  0  0
  187.8990  177.1140  147.4890 C   0  0  0  0  0  2  0  0  0  0  0  0
  189.9570  177.3920  146.2390 C   0  0  0  0  0  2  0  0  0  0  0  0
  187.5440  177.5850  146.0830 C   0  0  1  0  0  3  0  0  0  0  0  0
  189.4000  177.2790  147.6410 C   0  0  0  0  0  2  0  0  0  0  0  0
  186.5210  178.7270  146.0840 C   0  0  2  0  0  3  0  0  0  0  0  0
  186.4400  179.3150  147.3500 O   0  0  0  0  0  1  0  0  0  0  0  0
  185.1370  178.2600  145.6300 C   0  0  1  0  0  3  0  0  0  0  0  0
  184.1810  178.5880  146.5920 O   0  0  0  0  0  1  0  0  0  0  0  0
  184.7450  178.8560  144.3090 C   0  0  0  0  0  0  0  0  0  0  0  0
  185.3520  178.4300  143.2040 C   0  0  0  0  0  2  0  0  0  0  0  0
  182.4970  178.9960  143.5760 O   0  0  0  0  0  1  0  0  0  0  0  0
  183.5240  179.7120  144.1920 C   0  0  0  0  0  2  0  0  0  0  0  0
  191.2780  175.6920  136.5920 O   0  0  0  0  0  0  0  0  0  0  0  0
  194.9360  175.9380  135.8840 C   0  0  0  0  0  3  0  0  0  0  0  0
  195.3730  174.7190  136.4110 C   0  0  0  0  0  0  0  0  0  0  0  0
  193.0950  174.1720  137.0230 C   0  0  0  0  0  3  0  0  0  0  0  0
  193.5810  176.2730  135.9330 C   0  0  0  0  0  3  0  0  0  0  0  0
  192.6470  175.3890  136.4990 C   0  0  0  0  0  0  0  0  0  0  0  0
  194.4510  173.8350  136.9760 C   0  0  0  0  0  3  0  0  0  0  0  0
  197.5910  175.2540  137.1760 N   0  0  0  0  0  1  0  0  0  0  0  0
  196.8140  174.3540  136.3420 C   0  0  0  0  0  2  0  0  0  0  0  0
  1  5  1  0  0  0  0
  2 13  2  0  0  0  0
  2 11  1  0  0  0  0
  3 16  1  0  0  0  0
  4  7  2  0  0  0  0
  5  9  2  0  0  0  0
  6  1  1  0  0  0  0
  7 11  1  0  0  0  0
  7  9  1  0  0  0  0
  8  4  1  0  0  0  0
  8  1  2  0  0  0  0
 10  3  1  0  0  0  0
 11 10  2  0  0  0  0
 12  2  1  0  0  0  0
 13 14  1  0  0  0  0
 14  3  2  0  0  0  0
 15 12  2  0  0  0  0
 15  4  1  0  0  0  0
 16 17  1  6  0  0  0
 16 18  1  0  0  0  0
 18 19  1  0  0  0  0
 19 20  1  0  0  0  0
 20 21  1  1  0  0  0
 22 20  1  6  0  0  0
 22 25  1  0  0  0  0
 22 24  1  0  0  0  0
 23 26  1  0  0  0  0
 24 26  1  0  0  0  0
 25 27  1  1  0  0  0
 25 23  1  0  0  0  0
 27 28  1  1  0  0  0
 29 27  1  0  0  0  0
 29 30  1  1  0  0  0
 31 29  1  0  0  0  0
 32 31  2  0  0  0  0
 33 34  1  0  0  0  0
 34 31  1  0  0  0  0
 35 13  1  0  0  0  0
 36 39  2  0  0  0  0
 36 37  1  0  0  0  0
 37 41  2  0  0  0  0
 39 40  1  0  0  0  0
 40 35  1  0  0  0  0
 40 38  2  0  0  0  0
 41 38  1  0  0  0  0
 43 37  1  0  0  0  0
 43 42  1  0  0  0  0
M  END
>  <MODEL>
9

>  <REMARK>
 VINA RESULT:      -8.9      3.002     10.369
  Name = 
  12 active torsions:
  status: ('A' for Active; 'I' for Inactive)
    1  A    between atoms: O_1  and  C_34
    2  A    between atoms: O_1  and  C_35
    3  A    between atoms: C_2  and  N_6
    4  A    between atoms: C_2  and  C_13
    5  A    between atoms: C_3  and  C_4
    6  A    between atoms: C_3  and  C_12
    7  A    between atoms: N_6  and  C_12
    8  A    between atoms: C_11  and  C_14
    9  A    between atoms: C_11  and  C_29
   10  A    between atoms: C_14  and  C_22
   11  A    between atoms: C_19  and  C_37
   12  A    between atoms: C_29  and  C_31
                            x       y       z     vdW  Elec       q    Type
                         _______ _______ _______ _____ _____    ______ ____

>  <TORSDO>
F 12

$$$$
