=
 OpenBabel11052412263D

 30 31  0  0  1  0  0  0  0  0999 V2000
  190.4790  177.3050  145.2180 N   0  0  0  0  0  0  0  0  0  0  0  0
  189.2960  176.9790  145.9930 C   0  0  1  0  0  3  0  0  0  0  0  0
  189.8240  176.3380  147.2680 C   0  0  0  0  0  2  0  0  0  0  0  0
  191.7130  177.1150  145.9540 C   0  0  0  0  0  2  0  0  0  0  0  0
  191.2980  176.7100  147.3550 C   0  0  0  0  0  2  0  0  0  0  0  0
  191.5300  177.9770  143.2450 O   0  0  0  0  0  0  0  0  0  0  0  0
  190.4640  177.6210  143.8190 C   0  0  0  0  0  0  0  0  0  0  0  0
  189.1990  177.4890  143.0160 C   0  0  2  0  0  3  0  0  0  0  0  0
  190.1900  175.3920  142.8530 N   0  0  0  0  0  1  0  0  0  0  0  0
  189.0210  176.1080  142.5520 N   0  0  0  0  0  0  0  0  0  0  0  0
  188.0360  175.5430  143.2900 O   0  0  0  0  0  1  0  0  0  0  0  0
  189.2710  178.4500  141.8290 C   0  0  0  0  0  2  0  0  0  0  0  0
  190.4910  177.6720  139.9230 O   0  0  0  0  0  1  0  0  0  0  0  0
  189.2230  177.6970  140.5080 C   0  0  2  0  0  3  0  0  0  0  0  0
  188.1920  178.2900  139.5460 C   0  0  0  0  0  2  0  0  0  0  0  0
  188.9750  179.0130  137.2770 C   0  0  0  0  0  1  0  0  0  0  0  0
  187.0720  177.4600  137.5000 C   0  0  0  0  0  1  0  0  0  0  0  0
  188.4030  177.8710  138.0940 C   0  0  0  0  0  3  0  0  0  0  0  0
  188.5360  178.2610  146.3220 C   0  0  0  0  0  2  0  0  0  0  0  0
  187.1420  177.9900  146.8810 C   0  0  1  0  0  3  0  0  0  0  0  0
  187.2200  177.9130  148.2700 O   0  0  0  0  0  1  0  0  0  0  0  0
  186.1640  179.0940  146.5020 C   0  0  0  0  0  2  0  0  0  0  0  0
  184.2420  178.2330  142.4390 C   0  0  0  0  0  0  0  0  0  0  0  0
  183.3710  179.2430  143.1080 C   0  0  0  0  0  2  0  0  0  0  0  0
  183.8420  177.7170  141.2530 F   0  0  0  0  0  0  0  0  0  0  0  0
  185.3680  178.7400  145.2910 C   0  0  0  0  0  0  0  0  0  0  0  0
  183.0040  178.8190  144.4900 C   0  0  0  0  0  3  0  0  0  0  0  0
  185.4500  177.9150  142.9050 C   0  0  0  0  0  3  0  0  0  0  0  0
  183.9040  178.6380  145.4560 C   0  0  0  0  0  3  0  0  0  0  0  0
  186.0310  178.3710  144.1840 C   0  0  0  0  0  3  0  0  0  0  0  0
  1  4  1  0  0  0  0
  1  2  1  0  0  0  0
  2 19  1  1  0  0  0
  2  3  1  0  0  0  0
  3  5  1  0  0  0  0
  4  5  1  0  0  0  0
  6  7  2  0  0  0  0
  7  1  1  0  0  0  0
  8 12  1  6  0  0  0
  8  7  1  0  0  0  0
 10  9  1  0  0  0  0
 10  8  1  0  0  0  0
 10 11  1  0  0  0  0
 14 13  1  6  0  0  0
 14 12  1  0  0  0  0
 15 14  1  0  0  0  0
 16 18  1  0  0  0  0
 17 18  1  0  0  0  0
 18 15  1  0  0  0  0
 19 20  1  0  0  0  0
 20 21  1  1  0  0  0
 22 20  1  0  0  0  0
 23 28  2  0  0  0  0
 23 24  1  0  0  0  0
 24 27  1  0  0  0  0
 25 23  1  0  0  0  0
 26 29  1  0  0  0  0
 26 22  1  0  0  0  0
 27 29  2  0  0  0  0
 28 30  1  0  0  0  0
 30 26  2  0  0  0  0
M  END
>  <MODEL>
1

>  <REMARK>
 VINA RESULT:      -8.0      0.000      0.000
  Name = 
  10 active torsions:
  status: ('A' for Active; 'I' for Inactive)
    1  A    between atoms: C_3  and  C_11
    2  A    between atoms: C_3  and  C_19
    3  A    between atoms: N_4  and  C_13
    4  A    between atoms: C_8  and  C_12
    5  A    between atoms: C_8  and  C_13
    6  A    between atoms: C_9  and  C_12
    7  A    between atoms: C_9  and  C_21
    8  A    between atoms: C_10  and  C_25
    9  A    between atoms: C_11  and  C_25
   10  A    between atoms: C_13  and  C_30
                            x       y       z     vdW  Elec       q    Type
                         _______ _______ _______ _____ _____    ______ ____

>  <TORSDO>
F 10

$$$$
=
 OpenBabel11052412263D

 30 31  0  0  1  0  0  0  0  0999 V2000
  185.0060  178.0120  138.3100 N   0  0  0  0  0  0  0  0  0  0  0  0
  184.6970  178.8260  139.4710 C   0  0  1  0  0  3  0  0  0  0  0  0
  183.2430  179.2340  139.2910 C   0  0  0  0  0  2  0  0  0  0  0  0
  183.8410  177.7000  137.5060 C   0  0  0  0  0  2  0  0  0  0  0  0
  182.6590  178.2890  138.2510 C   0  0  0  0  0  2  0  0  0  0  0  0
  186.5090  176.8950  136.9150 O   0  0  0  0  0  0  0  0  0  0  0  0
  186.3370  177.6810  137.8870 C   0  0  0  0  0  0  0  0  0  0  0  0
  187.5310  178.2970  138.5630 C   0  0  2  0  0  3  0  0  0  0  0  0
  189.0410  178.2110  136.7960 N   0  0  0  0  0  1  0  0  0  0  0  0
  188.3130  179.0930  137.6090 N   0  0  0  0  0  0  0  0  0  0  0  0
  187.4450  179.7290  136.7860 O   0  0  0  0  0  1  0  0  0  0  0  0
  188.3870  177.1780  139.1570 C   0  0  0  0  0  2  0  0  0  0  0  0
  190.7100  177.4070  139.6830 O   0  0  0  0  0  1  0  0  0  0  0  0
  189.4250  177.7310  140.1220 C   0  0  2  0  0  3  0  0  0  0  0  0
  189.1990  177.2400  141.5520 C   0  0  0  0  0  2  0  0  0  0  0  0
  190.4830  175.7870  143.1420 C   0  0  0  0  0  1  0  0  0  0  0  0
  190.6220  178.2430  143.3120 C   0  0  0  0  0  1  0  0  0  0  0  0
  190.4890  177.0810  142.3510 C   0  0  0  0  0  3  0  0  0  0  0  0
  184.8580  177.9860  140.7350 C   0  0  0  0  0  2  0  0  0  0  0  0
  185.6890  178.6880  141.8040 C   0  0  1  0  0  3  0  0  0  0  0  0
  186.1390  179.9060  141.2980 O   0  0  0  0  0  1  0  0  0  0  0  0
  184.8750  178.9480  143.0650 C   0  0  0  0  0  2  0  0  0  0  0  0
  186.9280  178.1130  147.0690 C   0  0  0  0  0  0  0  0  0  0  0  0
  187.9840  177.9860  146.0220 C   0  0  0  0  0  2  0  0  0  0  0  0
  187.2450  177.8090  148.3490 F   0  0  0  0  0  0  0  0  0  0  0  0
  185.5830  178.4770  144.2910 C   0  0  0  0  0  0  0  0  0  0  0  0
  187.5540  177.0800  144.9190 C   0  0  0  0  0  3  0  0  0  0  0  0
  185.7260  178.6290  146.8080 C   0  0  0  0  0  3  0  0  0  0  0  0
  186.5070  177.3360  144.1360 C   0  0  0  0  0  3  0  0  0  0  0  0
  185.2150  178.9970  145.4720 C   0  0  0  0  0  3  0  0  0  0  0  0
  1  2  1  0  0  0  0
  2 19  1  1  0  0  0
  3  2  1  0  0  0  0
  4  5  1  0  0  0  0
  4  1  1  0  0  0  0
  5  3  1  0  0  0  0
  6  7  2  0  0  0  0
  7  1  1  0  0  0  0
  7  8  1  0  0  0  0
  8 12  1  6  0  0  0
  9 10  1  0  0  0  0
 10  8  1  0  0  0  0
 11 10  1  0  0  0  0
 12 14  1  0  0  0  0
 14 13  1  6  0  0  0
 14 15  1  0  0  0  0
 15 18  1  0  0  0  0
 18 16  1  0  0  0  0
 18 17  1  0  0  0  0
 19 20  1  0  0  0  0
 20 21  1  6  0  0  0
 20 22  1  0  0  0  0
 22 26  1  0  0  0  0
 23 25  1  0  0  0  0
 24 23  1  0  0  0  0
 26 30  2  0  0  0  0
 27 24  1  0  0  0  0
 28 23  2  0  0  0  0
 29 26  1  0  0  0  0
 29 27  2  0  0  0  0
 30 28  1  0  0  0  0
M  END
>  <MODEL>
2

>  <REMARK>
 VINA RESULT:      -7.9      3.454      6.546
  Name = 
  10 active torsions:
  status: ('A' for Active; 'I' for Inactive)
    1  A    between atoms: C_3  and  C_11
    2  A    between atoms: C_3  and  C_19
    3  A    between atoms: N_4  and  C_13
    4  A    between atoms: C_8  and  C_12
    5  A    between atoms: C_8  and  C_13
    6  A    between atoms: C_9  and  C_12
    7  A    between atoms: C_9  and  C_21
    8  A    between atoms: C_10  and  C_25
    9  A    between atoms: C_11  and  C_25
   10  A    between atoms: C_13  and  C_30
                            x       y       z     vdW  Elec       q    Type
                         _______ _______ _______ _____ _____    ______ ____

>  <TORSDO>
F 10

$$$$
=
 OpenBabel11052412263D

 30 31  0  0  1  0  0  0  0  0999 V2000
  185.0160  176.9760  137.3600 N   0  0  0  0  0  0  0  0  0  0  0  0
  184.2130  177.9820  138.0310 C   0  0  1  0  0  3  0  0  0  0  0  0
  182.8540  177.9210  137.3490 C   0  0  0  0  0  2  0  0  0  0  0  0
  184.2490  176.1470  136.4520 C   0  0  0  0  0  2  0  0  0  0  0  0
  182.8090  176.5940  136.6050 C   0  0  0  0  0  2  0  0  0  0  0  0
  187.0560  175.9400  136.8950 O   0  0  0  0  0  0  0  0  0  0  0  0
  186.4470  176.9010  137.4420 C   0  0  0  0  0  0  0  0  0  0  0  0
  187.2340  177.9790  138.1340 C   0  0  2  0  0  3  0  0  0  0  0  0
  188.9170  179.3670  137.3290 N   0  0  0  0  0  1  0  0  0  0  0  0
  187.5520  179.0680  137.2030 N   0  0  0  0  0  0  0  0  0  0  0  0
  187.3870  178.6000  135.9420 O   0  0  0  0  0  1  0  0  0  0  0  0
  188.5140  177.3630  138.6980 C   0  0  0  0  0  2  0  0  0  0  0  0
  188.3440  178.8890  140.5330 O   0  0  0  0  0  1  0  0  0  0  0  0
  188.6020  177.5570  140.2050 C   0  0  2  0  0  3  0  0  0  0  0  0
  189.9540  177.1120  140.7640 C   0  0  0  0  0  2  0  0  0  0  0  0
  191.1990  178.0240  142.7390 C   0  0  0  0  0  1  0  0  0  0  0  0
  190.2110  175.7670  142.8260 C   0  0  0  0  0  1  0  0  0  0  0  0
  190.0310  177.1700  142.2860 C   0  0  0  0  0  3  0  0  0  0  0  0
  184.0800  177.6210  139.5090 C   0  0  0  0  0  2  0  0  0  0  0  0
  184.6850  178.6780  140.4270 C   0  0  1  0  0  3  0  0  0  0  0  0
  184.6150  179.9190  139.7960 O   0  0  0  0  0  1  0  0  0  0  0  0
  183.9390  178.7570  141.7540 C   0  0  0  0  0  2  0  0  0  0  0  0
  186.8980  177.7750  145.1040 C   0  0  0  0  0  0  0  0  0  0  0  0
  185.5840  178.0220  145.7660 C   0  0  0  0  0  2  0  0  0  0  0  0
  187.9860  177.5650  145.8820 F   0  0  0  0  0  0  0  0  0  0  0  0
  184.8640  178.6380  142.9190 C   0  0  0  0  0  0  0  0  0  0  0  0
  184.9810  179.3100  145.3200 C   0  0  0  0  0  3  0  0  0  0  0  0
  187.0150  177.6330  143.7830 C   0  0  0  0  0  3  0  0  0  0  0  0
  184.6330  179.5500  144.0560 C   0  0  0  0  0  3  0  0  0  0  0  0
  185.9390  177.8430  142.7940 C   0  0  0  0  0  3  0  0  0  0  0  0
  1  7  1  0  0  0  0
  1  2  1  0  0  0  0
  2 19  1  1  0  0  0
  3  2  1  0  0  0  0
  4  5  1  0  0  0  0
  4  1  1  0  0  0  0
  5  3  1  0  0  0  0
  6  7  2  0  0  0  0
  7  8  1  0  0  0  0
  8 12  1  6  0  0  0
 10  9  1  0  0  0  0
 10  8  1  0  0  0  0
 11 10  1  0  0  0  0
 12 14  1  0  0  0  0
 14 13  1  6  0  0  0
 14 15  1  0  0  0  0
 15 18  1  0  0  0  0
 18 16  1  0  0  0  0
 18 17  1  0  0  0  0
 19 20  1  0  0  0  0
 20 21  1  6  0  0  0
 20 22  1  0  0  0  0
 22 26  1  0  0  0  0
 23 24  1  0  0  0  0
 23 25  1  0  0  0  0
 26 29  1  0  0  0  0
 27 24  1  0  0  0  0
 28 23  2  0  0  0  0
 29 27  2  0  0  0  0
 30 26  2  0  0  0  0
 30 28  1  0  0  0  0
M  END
>  <MODEL>
3

>  <REMARK>
 VINA RESULT:      -7.8      3.603      6.831
  Name = 
  10 active torsions:
  status: ('A' for Active; 'I' for Inactive)
    1  A    between atoms: C_3  and  C_11
    2  A    between atoms: C_3  and  C_19
    3  A    between atoms: N_4  and  C_13
    4  A    between atoms: C_8  and  C_12
    5  A    between atoms: C_8  and  C_13
    6  A    between atoms: C_9  and  C_12
    7  A    between atoms: C_9  and  C_21
    8  A    between atoms: C_10  and  C_25
    9  A    between atoms: C_11  and  C_25
   10  A    between atoms: C_13  and  C_30
                            x       y       z     vdW  Elec       q    Type
                         _______ _______ _______ _____ _____    ______ ____

>  <TORSDO>
F 10

$$$$
=
 OpenBabel11052412263D

 30 31  0  0  1  0  0  0  0  0999 V2000
  190.1760  177.3960  145.2800 N   0  0  0  0  0  0  0  0  0  0  0  0
  189.9180  178.4660  144.3340 C   0  0  1  0  0  3  0  0  0  0  0  0
  191.1570  178.5230  143.4530 C   0  0  0  0  0  2  0  0  0  0  0  0
  191.3710  176.6370  144.9680 C   0  0  0  0  0  2  0  0  0  0  0  0
  191.8900  177.2060  143.6620 C   0  0  0  0  0  2  0  0  0  0  0  0
  189.6770  176.1890  147.2150 O   0  0  0  0  0  0  0  0  0  0  0  0
  189.4400  177.1980  146.4950 C   0  0  0  0  0  0  0  0  0  0  0  0
  188.4160  178.2040  146.9440 C   0  0  2  0  0  3  0  0  0  0  0  0
  187.8340  177.6940  149.1370 N   0  0  0  0  0  1  0  0  0  0  0  0
  188.6190  178.5550  148.3550 N   0  0  0  0  0  0  0  0  0  0  0  0
  189.9070  178.2790  148.6720 O   0  0  0  0  0  1  0  0  0  0  0  0
  187.0230  177.6110  146.7330 C   0  0  0  0  0  2  0  0  0  0  0  0
  185.1370  179.0470  147.0610 O   0  0  0  0  0  1  0  0  0  0  0  0
  186.0780  178.6320  146.1170 C   0  0  2  0  0  3  0  0  0  0  0  0
  185.3870  178.0920  144.8630 C   0  0  0  0  0  2  0  0  0  0  0  0
  183.1710  179.0330  144.1630 C   0  0  0  0  0  1  0  0  0  0  0  0
  185.0740  179.0300  142.5940 C   0  0  0  0  0  1  0  0  0  0  0  0
  184.6770  179.1690  144.0490 C   0  0  0  0  0  3  0  0  0  0  0  0
  188.6900  178.1170  143.4970 C   0  0  0  0  0  2  0  0  0  0  0  0
  189.0340  177.2740  142.2740 C   0  0  1  0  0  3  0  0  0  0  0  0
  188.6150  175.9630  142.4960 O   0  0  0  0  0  1  0  0  0  0  0  0
  188.3510  177.8040  141.0190 C   0  0  0  0  0  2  0  0  0  0  0  0
  190.2490  176.7500  136.9910 C   0  0  0  0  0  0  0  0  0  0  0  0
  190.9190  175.8870  138.0080 C   0  0  0  0  0  2  0  0  0  0  0  0
  190.7000  176.7170  135.7150 F   0  0  0  0  0  0  0  0  0  0  0  0
  189.1550  177.5330  139.7920 C   0  0  0  0  0  0  0  0  0  0  0  0
  191.4190  176.6890  139.1610 C   0  0  0  0  0  3  0  0  0  0  0  0
  189.1520  177.4550  137.2670 C   0  0  0  0  0  3  0  0  0  0  0  0
  190.6140  177.3830  139.9650 C   0  0  0  0  0  3  0  0  0  0  0  0
  188.5400  177.6120  138.6020 C   0  0  0  0  0  3  0  0  0  0  0  0
  1  7  1  0  0  0  0
  2 19  1  6  0  0  0
  2  1  1  0  0  0  0
  3  5  1  0  0  0  0
  3  2  1  0  0  0  0
  4  1  1  0  0  0  0
  5  4  1  0  0  0  0
  7  8  1  0  0  0  0
  7  6  2  0  0  0  0
  8 12  1  1  0  0  0
  8 10  1  0  0  0  0
 10 11  1  0  0  0  0
 10  9  1  0  0  0  0
 14 12  1  0  0  0  0
 14 13  1  1  0  0  0
 15 14  1  0  0  0  0
 17 18  1  0  0  0  0
 18 16  1  0  0  0  0
 18 15  1  0  0  0  0
 20 21  1  1  0  0  0
 20 19  1  0  0  0  0
 22 20  1  0  0  0  0
 23 28  2  0  0  0  0
 23 24  1  0  0  0  0
 24 27  1  0  0  0  0
 25 23  1  0  0  0  0
 26 29  1  0  0  0  0
 26 22  1  0  0  0  0
 27 29  2  0  0  0  0
 28 30  1  0  0  0  0
 30 26  2  0  0  0  0
M  END
>  <MODEL>
4

>  <REMARK>
 VINA RESULT:      -7.7      2.482      6.413
  Name = 
  10 active torsions:
  status: ('A' for Active; 'I' for Inactive)
    1  A    between atoms: C_3  and  C_11
    2  A    between atoms: C_3  and  C_19
    3  A    between atoms: N_4  and  C_13
    4  A    between atoms: C_8  and  C_12
    5  A    between atoms: C_8  and  C_13
    6  A    between atoms: C_9  and  C_12
    7  A    between atoms: C_9  and  C_21
    8  A    between atoms: C_10  and  C_25
    9  A    between atoms: C_11  and  C_25
   10  A    between atoms: C_13  and  C_30
                            x       y       z     vdW  Elec       q    Type
                         _______ _______ _______ _____ _____    ______ ____

>  <TORSDO>
F 10

$$$$
=
 OpenBabel11052412263D

 30 31  0  0  1  0  0  0  0  0999 V2000
  189.2370  177.6440  146.6080 N   0  0  0  0  0  0  0  0  0  0  0  0
  187.8160  177.4150  146.4220 C   0  0  1  0  0  3  0  0  0  0  0  0
  187.2500  177.2820  147.8280 C   0  0  0  0  0  2  0  0  0  0  0  0
  189.6020  177.8650  147.9930 C   0  0  0  0  0  2  0  0  0  0  0  0
  188.2980  177.8630  148.7660 C   0  0  0  0  0  2  0  0  0  0  0  0
  191.4220  177.8080  145.8030 O   0  0  0  0  0  0  0  0  0  0  0  0
  190.2190  177.5040  145.5720 C   0  0  0  0  0  0  0  0  0  0  0  0
  189.8400  176.9550  144.2240 C   0  0  2  0  0  3  0  0  0  0  0  0
  190.2830  175.0260  143.0030 N   0  0  0  0  0  1  0  0  0  0  0  0
  190.8940  176.0730  143.7080 N   0  0  0  0  0  0  0  0  0  0  0  0
  191.6110  176.7710  142.7950 O   0  0  0  0  0  1  0  0  0  0  0  0
  189.6020  178.1240  143.2690 C   0  0  0  0  0  2  0  0  0  0  0  0
  187.5870  176.8780  142.9330 O   0  0  0  0  0  1  0  0  0  0  0  0
  188.3970  177.8700  142.3760 C   0  0  2  0  0  3  0  0  0  0  0  0
  188.8080  177.4980  140.9500 C   0  0  0  0  0  2  0  0  0  0  0  0
  186.9620  178.2120  139.4120 C   0  0  0  0  0  1  0  0  0  0  0  0
  189.3180  178.4660  138.7300 C   0  0  0  0  0  1  0  0  0  0  0  0
  188.3640  178.5150  139.9040 C   0  0  0  0  0  3  0  0  0  0  0  0
  187.1970  178.6170  145.7140 C   0  0  0  0  0  2  0  0  0  0  0  0
  185.6930  178.4680  145.5110 C   0  0  1  0  0  3  0  0  0  0  0  0
  185.0590  178.5650  146.7490 O   0  0  0  0  0  1  0  0  0  0  0  0
  185.1430  179.5500  144.5890 C   0  0  0  0  0  2  0  0  0  0  0  0
  182.4000  178.1380  141.2090 C   0  0  0  0  0  0  0  0  0  0  0  0
  181.6040  179.1080  142.0170 C   0  0  0  0  0  2  0  0  0  0  0  0
  181.7870  177.4800  140.1970 F   0  0  0  0  0  0  0  0  0  0  0  0
  184.1230  179.0090  143.6450 C   0  0  0  0  0  0  0  0  0  0  0  0
  181.6440  178.7730  143.4690 C   0  0  0  0  0  3  0  0  0  0  0  0
  183.7160  177.9890  141.3700 C   0  0  0  0  0  3  0  0  0  0  0  0
  182.7690  178.7720  144.1830 C   0  0  0  0  0  3  0  0  0  0  0  0
  184.5330  178.6140  142.4290 C   0  0  0  0  0  3  0  0  0  0  0  0
  1  4  1  0  0  0  0
  2 19  1  1  0  0  0
  2  1  1  0  0  0  0
  2  3  1  0  0  0  0
  3  5  1  0  0  0  0
  4  5  1  0  0  0  0
  7  6  2  0  0  0  0
  7  1  1  0  0  0  0
  8 12  1  6  0  0  0
  8  7  1  0  0  0  0
  9 10  1  0  0  0  0
 10  8  1  0  0  0  0
 11 10  1  0  0  0  0
 14 13  1  1  0  0  0
 14 12  1  0  0  0  0
 15 14  1  0  0  0  0
 16 18  1  0  0  0  0
 17 18  1  0  0  0  0
 18 15  1  0  0  0  0
 20 19  1  0  0  0  0
 20 21  1  1  0  0  0
 22 20  1  0  0  0  0
 23 28  2  0  0  0  0
 23 24  1  0  0  0  0
 24 27  1  0  0  0  0
 25 23  1  0  0  0  0
 26 29  1  0  0  0  0
 26 22  1  0  0  0  0
 27 29  2  0  0  0  0
 28 30  1  0  0  0  0
 30 26  2  0  0  0  0
M  END
>  <MODEL>
5

>  <REMARK>
 VINA RESULT:      -7.5      1.513      2.376
  Name = 
  10 active torsions:
  status: ('A' for Active; 'I' for Inactive)
    1  A    between atoms: C_3  and  C_11
    2  A    between atoms: C_3  and  C_19
    3  A    between atoms: N_4  and  C_13
    4  A    between atoms: C_8  and  C_12
    5  A    between atoms: C_8  and  C_13
    6  A    between atoms: C_9  and  C_12
    7  A    between atoms: C_9  and  C_21
    8  A    between atoms: C_10  and  C_25
    9  A    between atoms: C_11  and  C_25
   10  A    between atoms: C_13  and  C_30
                            x       y       z     vdW  Elec       q    Type
                         _______ _______ _______ _____ _____    ______ ____

>  <TORSDO>
F 10

$$$$
=
 OpenBabel11052412263D

 30 31  0  0  1  0  0  0  0  0999 V2000
  189.3440  177.3280  146.1860 N   0  0  0  0  0  0  0  0  0  0  0  0
  189.6090  177.9830  144.9190 C   0  0  1  0  0  3  0  0  0  0  0  0
  191.1210  177.9350  144.7590 C   0  0  0  0  0  2  0  0  0  0  0  0
  190.5160  176.6960  146.7580 C   0  0  0  0  0  2  0  0  0  0  0  0
  191.6210  176.8810  145.7370 C   0  0  0  0  0  2  0  0  0  0  0  0
  187.9310  176.7530  147.9540 O   0  0  0  0  0  0  0  0  0  0  0  0
  188.1040  177.4260  146.9010 C   0  0  0  0  0  0  0  0  0  0  0  0
  187.0210  178.3590  146.4330 C   0  0  2  0  0  3  0  0  0  0  0  0
  186.0540  180.1720  147.5230 N   0  0  0  0  0  1  0  0  0  0  0  0
  186.1730  178.7740  147.5570 N   0  0  0  0  0  0  0  0  0  0  0  0
  184.9270  178.2870  147.3420 O   0  0  0  0  0  1  0  0  0  0  0  0
  186.1890  177.6470  145.3670 C   0  0  0  0  0  2  0  0  0  0  0  0
  184.4630  179.1760  144.7270 O   0  0  0  0  0  1  0  0  0  0  0  0
  185.6800  178.6260  144.3190 C   0  0  2  0  0  3  0  0  0  0  0  0
  185.5470  177.9760  142.9420 C   0  0  0  0  0  2  0  0  0  0  0  0
  183.5080  178.2460  141.5080 C   0  0  0  0  0  1  0  0  0  0  0  0
  185.7100  179.0000  140.6940 C   0  0  0  0  0  1  0  0  0  0  0  0
  184.8340  178.8560  141.9200 C   0  0  0  0  0  3  0  0  0  0  0  0
  188.9340  177.2020  143.7940 C   0  0  0  0  0  2  0  0  0  0  0  0
  189.7740  177.1630  142.5210 C   0  0  1  0  0  3  0  0  0  0  0  0
  190.0190  175.8330  142.1830 O   0  0  0  0  0  1  0  0  0  0  0  0
  189.0600  177.8430  141.3590 C   0  0  0  0  0  2  0  0  0  0  0  0
  190.4470  176.5840  137.1850 C   0  0  0  0  0  0  0  0  0  0  0  0
  191.3250  175.8630  138.1530 C   0  0  0  0  0  2  0  0  0  0  0  0
  190.7130  176.4730  135.8620 F   0  0  0  0  0  0  0  0  0  0  0  0
  189.7010  177.5260  140.0510 C   0  0  0  0  0  0  0  0  0  0  0  0
  191.9140  176.7960  139.1550 C   0  0  0  0  0  3  0  0  0  0  0  0
  189.3450  177.2290  137.5680 C   0  0  0  0  0  3  0  0  0  0  0  0
  191.1770  177.4970  140.0160 C   0  0  0  0  0  3  0  0  0  0  0  0
  188.9180  177.4570  138.9630 C   0  0  0  0  0  3  0  0  0  0  0  0
  1  4  1  0  0  0  0
  1  7  1  0  0  0  0
  2 19  1  6  0  0  0
  2  1  1  0  0  0  0
  3  2  1  0  0  0  0
  3  5  1  0  0  0  0
  5  4  1  0  0  0  0
  7  6  2  0  0  0  0
  8 12  1  6  0  0  0
  8  7  1  0  0  0  0
  8 10  1  0  0  0  0
  9 10  1  0  0  0  0
 11 10  1  0  0  0  0
 14 13  1  1  0  0  0
 14 12  1  0  0  0  0
 15 14  1  0  0  0  0
 16 18  1  0  0  0  0
 17 18  1  0  0  0  0
 18 15  1  0  0  0  0
 20 21  1  6  0  0  0
 20 19  1  0  0  0  0
 22 20  1  0  0  0  0
 23 28  2  0  0  0  0
 23 24  1  0  0  0  0
 24 27  1  0  0  0  0
 25 23  1  0  0  0  0
 26 22  1  0  0  0  0
 27 29  2  0  0  0  0
 28 30  1  0  0  0  0
 29 26  1  0  0  0  0
 30 26  2  0  0  0  0
M  END
>  <MODEL>
6

>  <REMARK>
 VINA RESULT:      -7.3      2.765      6.155
  Name = 
  10 active torsions:
  status: ('A' for Active; 'I' for Inactive)
    1  A    between atoms: C_3  and  C_11
    2  A    between atoms: C_3  and  C_19
    3  A    between atoms: N_4  and  C_13
    4  A    between atoms: C_8  and  C_12
    5  A    between atoms: C_8  and  C_13
    6  A    between atoms: C_9  and  C_12
    7  A    between atoms: C_9  and  C_21
    8  A    between atoms: C_10  and  C_25
    9  A    between atoms: C_11  and  C_25
   10  A    between atoms: C_13  and  C_30
                            x       y       z     vdW  Elec       q    Type
                         _______ _______ _______ _____ _____    ______ ____

>  <TORSDO>
F 10

$$$$
=
 OpenBabel11052412263D

 30 31  0  0  1  0  0  0  0  0999 V2000
  181.4640  178.5390  141.6630 N   0  0  0  0  0  0  0  0  0  0  0  0
  182.6530  179.0180  142.3450 C   0  0  1  0  0  3  0  0  0  0  0  0
  182.2370  179.1730  143.8000 C   0  0  0  0  0  2  0  0  0  0  0  0
  180.3900  178.1870  142.5700 C   0  0  0  0  0  2  0  0  0  0  0  0
  180.9530  178.3730  143.9650 C   0  0  0  0  0  2  0  0  0  0  0  0
  180.2560  178.0440  139.7280 O   0  0  0  0  0  0  0  0  0  0  0  0
  181.2870  178.5620  140.2400 C   0  0  0  0  0  0  0  0  0  0  0  0
  182.2960  179.2360  139.3510 C   0  0  2  0  0  3  0  0  0  0  0  0
  182.2050  181.4000  138.5050 N   0  0  0  0  0  1  0  0  0  0  0  0
  181.6290  180.1260  138.3930 N   0  0  0  0  0  0  0  0  0  0  0  0
  181.9240  179.6910  137.1450 O   0  0  0  0  0  1  0  0  0  0  0  0
  183.0980  178.1610  138.6180 C   0  0  0  0  0  2  0  0  0  0  0  0
  184.8280  179.7410  139.1030 O   0  0  0  0  0  1  0  0  0  0  0  0
  184.5930  178.4160  138.7330 C   0  0  2  0  0  3  0  0  0  0  0  0
  185.3350  178.0740  137.4400 C   0  0  0  0  0  2  0  0  0  0  0  0
  187.6970  178.6540  136.8340 C   0  0  0  0  0  1  0  0  0  0  0  0
  187.0560  176.3060  137.2320 C   0  0  0  0  0  1  0  0  0  0  0  0
  186.8080  177.7390  137.6530 C   0  0  0  0  0  3  0  0  0  0  0  0
  183.7630  177.9780  142.2200 C   0  0  0  0  0  2  0  0  0  0  0  0
  185.1110  178.4970  142.7110 C   0  0  1  0  0  3  0  0  0  0  0  0
  185.3420  179.7530  142.1520 O   0  0  0  0  0  1  0  0  0  0  0  0
  185.1430  178.6180  144.2290 C   0  0  0  0  0  2  0  0  0  0  0  0
  188.8770  177.2020  146.4640 C   0  0  0  0  0  0  0  0  0  0  0  0
  189.3260  177.5680  145.0880 C   0  0  0  0  0  2  0  0  0  0  0  0
  189.7740  176.6460  147.3120 F   0  0  0  0  0  0  0  0  0  0  0  0
  186.3690  177.9980  144.8100 C   0  0  0  0  0  0  0  0  0  0  0  0
  188.4840  176.9120  144.0470 C   0  0  0  0  0  3  0  0  0  0  0  0
  187.6650  177.5160  146.9240 C   0  0  0  0  0  3  0  0  0  0  0  0
  187.1790  177.1460  143.9150 C   0  0  0  0  0  3  0  0  0  0  0  0
  186.5670  178.1070  146.1330 C   0  0  0  0  0  3  0  0  0  0  0  0
  1  2  1  0  0  0  0
  1  4  1  0  0  0  0
  2 19  1  1  0  0  0
  2  3  1  0  0  0  0
  3  5  1  0  0  0  0
  4  5  1  0  0  0  0
  6  7  2  0  0  0  0
  7  1  1  0  0  0  0
  8 12  1  6  0  0  0
  8  7  1  0  0  0  0
 10  9  1  0  0  0  0
 10  8  1  0  0  0  0
 11 10  1  0  0  0  0
 12 14  1  0  0  0  0
 14 13  1  6  0  0  0
 15 18  1  0  0  0  0
 15 14  1  0  0  0  0
 16 18  1  0  0  0  0
 17 18  1  0  0  0  0
 19 20  1  0  0  0  0
 20 21  1  6  0  0  0
 20 22  1  0  0  0  0
 22 26  1  0  0  0  0
 23 28  2  0  0  0  0
 23 25  1  0  0  0  0
 24 23  1  0  0  0  0
 26 30  2  0  0  0  0
 27 24  1  0  0  0  0
 29 27  2  0  0  0  0
 29 26  1  0  0  0  0
 30 28  1  0  0  0  0
M  END
>  <MODEL>
7

>  <REMARK>
 VINA RESULT:      -7.2      4.583      7.233
  Name = 
  10 active torsions:
  status: ('A' for Active; 'I' for Inactive)
    1  A    between atoms: C_3  and  C_11
    2  A    between atoms: C_3  and  C_19
    3  A    between atoms: N_4  and  C_13
    4  A    between atoms: C_8  and  C_12
    5  A    between atoms: C_8  and  C_13
    6  A    between atoms: C_9  and  C_12
    7  A    between atoms: C_9  and  C_21
    8  A    between atoms: C_10  and  C_25
    9  A    between atoms: C_11  and  C_25
   10  A    between atoms: C_13  and  C_30
                            x       y       z     vdW  Elec       q    Type
                         _______ _______ _______ _____ _____    ______ ____

>  <TORSDO>
F 10

$$$$
=
 OpenBabel11052412263D

 30 31  0  0  1  0  0  0  0  0999 V2000
  191.1940  176.9620  140.0580 N   0  0  0  0  0  0  0  0  0  0  0  0
  189.9890  176.6210  140.7920 C   0  0  1  0  0  3  0  0  0  0  0  0
  190.3830  176.7060  142.2590 C   0  0  0  0  0  2  0  0  0  0  0  0
  192.2630  177.4430  140.9100 C   0  0  0  0  0  2  0  0  0  0  0  0
  191.6800  177.5020  142.3080 C   0  0  0  0  0  2  0  0  0  0  0  0
  192.4350  177.1070  138.0860 O   0  0  0  0  0  0  0  0  0  0  0  0
  191.3890  176.6980  138.6610 C   0  0  0  0  0  0  0  0  0  0  0  0
  190.3790  175.9000  137.8830 C   0  0  2  0  0  3  0  0  0  0  0  0
  189.7280  173.7590  137.2500 N   0  0  0  0  0  1  0  0  0  0  0  0
  190.7980  174.4970  137.7760 N   0  0  0  0  0  0  0  0  0  0  0  0
  191.7900  174.4270  136.8560 O   0  0  0  0  0  1  0  0  0  0  0  0
  190.2280  176.5230  136.4950 C   0  0  0  0  0  2  0  0  0  0  0  0
  189.3700  178.6680  137.1180 O   0  0  0  0  0  1  0  0  0  0  0  0
  189.0510  177.4850  136.4480 C   0  0  2  0  0  3  0  0  0  0  0  0
  187.7770  176.8630  137.0230 C   0  0  0  0  0  2  0  0  0  0  0  0
  186.0310  178.2750  138.1370 C   0  0  0  0  0  1  0  0  0  0  0  0
  185.4450  176.8750  136.1930 C   0  0  0  0  0  1  0  0  0  0  0  0
  186.5340  177.7220  136.8170 C   0  0  0  0  0  3  0  0  0  0  0  0
  188.8990  177.6430  140.4790 C   0  0  0  0  0  2  0  0  0  0  0  0
  188.3700  178.3390  141.7280 C   0  0  1  0  0  3  0  0  0  0  0  0
  188.6700  179.6980  141.6490 O   0  0  0  0  0  1  0  0  0  0  0  0
  186.8610  178.1730  141.8640 C   0  0  0  0  0  2  0  0  0  0  0  0
  185.3080  178.3350  146.1650 C   0  0  0  0  0  0  0  0  0  0  0  0
  186.7950  178.2660  146.2600 C   0  0  0  0  0  2  0  0  0  0  0  0
  184.5820  178.2840  147.3070 F   0  0  0  0  0  0  0  0  0  0  0  0
  186.4450  178.0300  143.2890 C   0  0  0  0  0  0  0  0  0  0  0  0
  187.3440  177.1450  145.4440 C   0  0  0  0  0  3  0  0  0  0  0  0
  184.6780  178.5660  145.0130 C   0  0  0  0  0  3  0  0  0  0  0  0
  187.2100  177.0780  144.1200 C   0  0  0  0  0  3  0  0  0  0  0  0
  185.3110  178.6320  143.6800 C   0  0  0  0  0  3  0  0  0  0  0  0
  1  2  1  0  0  0  0
  1  4  1  0  0  0  0
  2 19  1  1  0  0  0
  2  3  1  0  0  0  0
  3  5  1  0  0  0  0
  4  5  1  0  0  0  0
  6  7  2  0  0  0  0
  7  1  1  0  0  0  0
  8 12  1  6  0  0  0
  8  7  1  0  0  0  0
  9 10  1  0  0  0  0
 10  8  1  0  0  0  0
 11 10  1  0  0  0  0
 14 12  1  0  0  0  0
 14 15  1  0  0  0  0
 14 13  1  1  0  0  0
 17 18  1  0  0  0  0
 18 15  1  0  0  0  0
 18 16  1  0  0  0  0
 19 20  1  0  0  0  0
 20 21  1  6  0  0  0
 20 22  1  0  0  0  0
 22 26  1  0  0  0  0
 23 24  1  0  0  0  0
 23 25  1  0  0  0  0
 26 30  2  0  0  0  0
 26 29  1  0  0  0  0
 27 24  1  0  0  0  0
 28 23  2  0  0  0  0
 29 27  2  0  0  0  0
 30 28  1  0  0  0  0
M  END
>  <MODEL>
8

>  <REMARK>
 VINA RESULT:      -7.2      2.939      4.784
  Name = 
  10 active torsions:
  status: ('A' for Active; 'I' for Inactive)
    1  A    between atoms: C_3  and  C_11
    2  A    between atoms: C_3  and  C_19
    3  A    between atoms: N_4  and  C_13
    4  A    between atoms: C_8  and  C_12
    5  A    between atoms: C_8  and  C_13
    6  A    between atoms: C_9  and  C_12
    7  A    between atoms: C_9  and  C_21
    8  A    between atoms: C_10  and  C_25
    9  A    between atoms: C_11  and  C_25
   10  A    between atoms: C_13  and  C_30
                            x       y       z     vdW  Elec       q    Type
                         _______ _______ _______ _____ _____    ______ ____

>  <TORSDO>
F 10

$$$$
=
 OpenBabel11052412263D

 30 31  0  0  1  0  0  0  0  0999 V2000
  189.5370  177.3150  140.9860 N   0  0  0  0  0  0  0  0  0  0  0  0
  188.6590  178.4020  140.5920 C   0  0  1  0  0  3  0  0  0  0  0  0
  189.0180  178.6940  139.1430 C   0  0  0  0  0  2  0  0  0  0  0  0
  190.2840  176.7560  139.8760 C   0  0  0  0  0  2  0  0  0  0  0  0
  189.7890  177.4820  138.6410 C   0  0  0  0  0  2  0  0  0  0  0  0
  190.4970  175.9180  142.5910 O   0  0  0  0  0  0  0  0  0  0  0  0
  189.7850  176.9310  142.3450 C   0  0  0  0  0  0  0  0  0  0  0  0
  189.2420  177.7480  143.4850 C   0  0  2  0  0  3  0  0  0  0  0  0
  191.1790  177.4680  144.7420 N   0  0  0  0  0  1  0  0  0  0  0  0
  190.3290  178.4390  144.1910 N   0  0  0  0  0  0  0  0  0  0  0  0
  191.0670  179.1040  143.2700 O   0  0  0  0  0  1  0  0  0  0  0  0
  188.4890  176.8190  144.4370 C   0  0  0  0  0  2  0  0  0  0  0  0
  188.5110  177.1310  146.8090 O   0  0  0  0  0  1  0  0  0  0  0  0
  187.9280  177.5860  145.6250 C   0  0  2  0  0  3  0  0  0  0  0  0
  186.4030  177.4940  145.7010 C   0  0  0  0  0  2  0  0  0  0  0  0
  186.1730  179.3740  147.3430 C   0  0  0  0  0  1  0  0  0  0  0  0
  184.2270  178.6270  146.0260 C   0  0  0  0  0  1  0  0  0  0  0  0
  185.7270  178.8280  146.0000 C   0  0  0  0  0  3  0  0  0  0  0  0
  187.2070  177.9420  140.6950 C   0  0  0  0  0  2  0  0  0  0  0  0
  186.3070  178.9830  141.3530 C   0  0  1  0  0  3  0  0  0  0  0  0
  185.4960  179.5600  140.3770 O   0  0  0  0  0  1  0  0  0  0  0  0
  185.4220  178.3590  142.4250 C   0  0  0  0  0  2  0  0  0  0  0  0
  181.3650  177.8410  140.3720 C   0  0  0  0  0  0  0  0  0  0  0  0
  181.3130  179.1560  141.0750 C   0  0  0  0  0  2  0  0  0  0  0  0
  180.2440  177.3860  139.7650 F   0  0  0  0  0  0  0  0  0  0  0  0
  184.0150  178.1930  141.9560 C   0  0  0  0  0  0  0  0  0  0  0  0
  181.7270  179.0300  142.5020 C   0  0  0  0  0  3  0  0  0  0  0  0
  182.5010  177.1600  140.2180 C   0  0  0  0  0  3  0  0  0  0  0  0
  182.9450  178.6370  142.8720 C   0  0  0  0  0  3  0  0  0  0  0  0
  183.8030  177.5040  140.8240 C   0  0  0  0  0  3  0  0  0  0  0  0
  1  7  1  0  0  0  0
  2 19  1  6  0  0  0
  2  1  1  0  0  0  0
  3  2  1  0  0  0  0
  4  1  1  0  0  0  0
  5  3  1  0  0  0  0
  5  4  1  0  0  0  0
  7  6  2  0  0  0  0
  7  8  1  0  0  0  0
  8 10  1  0  0  0  0
  8 12  1  1  0  0  0
 10  9  1  0  0  0  0
 11 10  1  0  0  0  0
 12 14  1  0  0  0  0
 14 15  1  0  0  0  0
 14 13  1  1  0  0  0
 15 18  1  0  0  0  0
 18 17  1  0  0  0  0
 18 16  1  0  0  0  0
 19 20  1  0  0  0  0
 20 21  1  6  0  0  0
 20 22  1  0  0  0  0
 23 24  1  0  0  0  0
 24 27  1  0  0  0  0
 25 23  1  0  0  0  0
 26 22  1  0  0  0  0
 26 29  1  0  0  0  0
 27 29  2  0  0  0  0
 28 23  2  0  0  0  0
 28 30  1  0  0  0  0
 30 26  2  0  0  0  0
M  END
>  <MODEL>
9

>  <REMARK>
 VINA RESULT:      -7.1      2.031      5.572
  Name = 
  10 active torsions:
  status: ('A' for Active; 'I' for Inactive)
    1  A    between atoms: C_3  and  C_11
    2  A    between atoms: C_3  and  C_19
    3  A    between atoms: N_4  and  C_13
    4  A    between atoms: C_8  and  C_12
    5  A    between atoms: C_8  and  C_13
    6  A    between atoms: C_9  and  C_12
    7  A    between atoms: C_9  and  C_21
    8  A    between atoms: C_10  and  C_25
    9  A    between atoms: C_11  and  C_25
   10  A    between atoms: C_13  and  C_30
                            x       y       z     vdW  Elec       q    Type
                         _______ _______ _______ _____ _____    ______ ____

>  <TORSDO>
F 10

$$$$
