=
 OpenBabel11052416233D

 43 48  0  0  1  0  0  0  0  0999 V2000
  190.7690  176.7620  146.7090 C   0  0  0  0  0  0  0  0  0  0  0  0
  189.6280  177.6150  141.8190 C   0  0  0  0  0  0  0  0  0  0  0  0
  186.9750  178.5800  141.7980 C   0  0  0  0  0  0  0  0  0  0  0  0
  190.8600  176.9790  144.2710 C   0  0  0  0  0  0  0  0  0  0  0  0
  189.5030  177.1760  146.7690 C   0  0  0  0  0  3  0  0  0  0  0  0
  191.4200  176.4290  147.8490 F   0  0  0  0  0  0  0  0  0  0  0  0
  189.5180  177.4220  144.2550 C   0  0  0  0  0  0  0  0  0  0  0  0
  191.4670  176.6630  145.4170 C   0  0  0  0  0  3  0  0  0  0  0  0
  188.7270  177.5620  145.5370 C   0  0  0  0  0  3  0  0  0  0  0  0
  187.5890  178.2130  143.0030 O   0  0  0  0  0  0  0  0  0  0  0  0
  188.9110  177.7460  143.0300 C   0  0  0  0  0  0  0  0  0  0  0  0
  190.9630  177.1860  141.8610 C   0  0  0  0  0  2  0  0  0  0  0  0
  189.0230  177.9310  140.6500 C   0  0  0  0  0  0  0  0  0  0  0  0
  187.6430  178.4590  140.6500 C   0  0  0  0  0  3  0  0  0  0  0  0
  191.5710  176.8690  143.0750 C   0  0  0  0  0  3  0  0  0  0  0  0
  185.5780  179.0990  141.7930 C   0  0  1  0  0  3  0  0  0  0  0  0
  184.7810  178.4510  140.6820 C   0  0  0  0  0  2  0  0  0  0  0  0
  184.9540  178.8180  143.0180 O   0  0  0  0  0  0  0  0  0  0  0  0
  183.4550  178.1540  141.3130 C   0  0  1  0  0  3  0  0  0  0  0  0
  183.5900  178.7030  142.7170 C   0  0  0  0  0  2  0  0  0  0  0  0
  182.3540  178.8850  140.5660 C   0  0  0  0  0  2  0  0  0  0  0  0
  181.1210  178.8920  141.3560 N   0  0  0  0  0  0  0  0  0  0  0  0
  178.9790  178.9390  140.3560 N   0  0  0  0  0  0  0  0  0  0  0  0
  180.5500  177.6170  141.2190 N   0  0  0  0  0  2  0  0  0  0  0  0
  180.0640  179.7990  140.8230 C   0  0  1  0  0  0  0  0  0  0  0  0
  179.5530  180.6550  141.9720 C   0  0  0  0  0  1  0  0  0  0  0  0
  179.2850  177.7190  140.6050 C   0  0  0  0  0  3  0  0  0  0  0  0
  180.5310  180.7260  139.6800 C   0  0  0  0  0  2  0  0  0  0  0  0
  179.8420  180.5250  137.4070 C   0  0  0  0  0  2  0  0  0  0  0  0
  179.1580  182.4510  138.7870 C   0  0  0  0  0  2  0  0  0  0  0  0
  181.1690  182.5500  137.4430 O   0  0  0  0  0  0  0  0  0  0  0  0
  180.0470  183.2840  137.8490 C   0  0  0  0  0  2  0  0  0  0  0  0
  180.6670  181.5450  136.6050 C   0  0  0  0  0  2  0  0  0  0  0  0
  179.4480  181.0080  138.7410 N   0  0  0  0  0  0  0  0  0  0  0  0
  189.6970  177.8280  139.3870 N   0  0  0  0  0  2  0  0  0  0  0  0
  189.6350  176.7030  138.5010 C   0  0  0  0  0  0  0  0  0  0  0  0
  188.3990  176.5240  137.4370 S   0  0  0  0  0  0  0  0  0  0  0  0
  190.8300  175.8200  138.3710 C   0  0  0  0  0  2  0  0  0  0  0  0
  191.8340  176.4040  137.3890 C   0  0  2  0  0  3  0  0  0  0  0  0
  191.8800  175.6270  136.2290 O   0  0  0  0  0  1  0  0  0  0  0  0
  194.2740  175.8610  137.3880 O   0  0  0  0  0  0  0  0  0  0  0  0
  193.3360  177.0170  139.1300 O   0  0  0  0  0  1  0  0  0  0  0  0
  193.1850  176.4530  138.0160 C   0  0  0  0  0  0  0  0  0  0  0  0
  1  5  1  0  0  0  0
  1  6  1  0  0  0  0
  2 12  1  0  0  0  0
  2 11  1  0  0  0  0
  3 10  1  0  0  0  0
  4  8  1  0  0  0  0
  7  4  1  0  0  0  0
  7  9  1  0  0  0  0
  8  1  2  0  0  0  0
  9  5  2  0  0  0  0
 10 11  1  0  0  0  0
 11  7  2  0  0  0  0
 12 15  1  0  0  0  0
 13  2  2  0  0  0  0
 14 13  1  0  0  0  0
 14  3  2  0  0  0  0
 15  4  2  0  0  0  0
 16  3  1  1  0  0  0
 16 18  1  0  0  0  0
 17 19  1  0  0  0  0
 17 16  1  0  0  0  0
 19 21  1  6  0  0  0
 19 20  1  0  0  0  0
 20 18  1  0  0  0  0
 21 22  1  0  0  0  0
 23 27  2  0  0  0  0
 23 25  1  0  0  0  0
 24 22  1  0  0  0  0
 25 22  1  0  0  0  0
 25 26  1  1  0  0  0
 27 24  1  0  0  0  0
 28 25  1  0  0  0  0
 29 34  1  0  0  0  0
 31 32  1  0  0  0  0
 32 30  1  0  0  0  0
 33 29  1  0  0  0  0
 33 31  1  0  0  0  0
 34 30  1  0  0  0  0
 34 28  1  0  0  0  0
 35 13  1  0  0  0  0
 36 35  1  0  0  0  0
 37 36  2  0  0  0  0
 38 36  1  0  0  0  0
 39 40  1  6  0  0  0
 39 43  1  0  0  0  0
 39 38  1  0  0  0  0
 41 43  2  0  0  0  0
 43 42  1  0  0  0  0
M  END
>  <MODEL>
1

>  <REMARK>
 VINA RESULT:      -9.2      0.000      0.000
  Name = 
  10 active torsions:
  status: ('A' for Active; 'I' for Inactive)
    1  A    between atoms: C_1  and  C_9
    2  A    between atoms: C_1  and  N_35
    3  A    between atoms: C_2  and  C_13
    4  A    between atoms: C_3  and  N_4
    5  A    between atoms: C_3  and  C_12
    6  A    between atoms: C_9  and  C_32
    7  A    between atoms: C_14  and  C_22
    8  A    between atoms: C_14  and  N_40
    9  A    between atoms: C_32  and  C_37
   10  A    between atoms: C_34  and  N_35
                            x       y       z     vdW  Elec       q    Type
                         _______ _______ _______ _____ _____    ______ ____

>  <TORSDO>
F 10

$$$$
=
 OpenBabel11052416233D

 43 48  0  0  1  0  0  0  0  0999 V2000
  190.7900  176.7480  146.6190 C   0  0  0  0  0  0  0  0  0  0  0  0
  189.6480  177.6430  141.7360 C   0  0  0  0  0  0  0  0  0  0  0  0
  186.9840  178.5770  141.7190 C   0  0  0  0  0  0  0  0  0  0  0  0
  190.8830  176.9940  144.1830 C   0  0  0  0  0  0  0  0  0  0  0  0
  189.5180  177.1470  146.6800 C   0  0  0  0  0  3  0  0  0  0  0  0
  191.4410  176.4100  147.7560 F   0  0  0  0  0  0  0  0  0  0  0  0
  189.5350  177.4210  144.1700 C   0  0  0  0  0  0  0  0  0  0  0  0
  191.4910  176.6720  145.3270 C   0  0  0  0  0  3  0  0  0  0  0  0
  188.7410  177.5390  145.4510 C   0  0  0  0  0  3  0  0  0  0  0  0
  187.6000  178.2040  142.9220 O   0  0  0  0  0  0  0  0  0  0  0  0
  188.9270  177.7520  142.9470 C   0  0  0  0  0  0  0  0  0  0  0  0
  190.9880  177.2290  141.7760 C   0  0  0  0  0  2  0  0  0  0  0  0
  189.0410  177.9650  140.5690 C   0  0  0  0  0  0  0  0  0  0  0  0
  187.6560  178.4770  140.5720 C   0  0  0  0  0  3  0  0  0  0  0  0
  191.5970  176.9050  142.9880 C   0  0  0  0  0  3  0  0  0  0  0  0
  185.5820  179.0810  141.7180 C   0  0  1  0  0  3  0  0  0  0  0  0
  184.8150  178.4940  140.5530 C   0  0  0  0  0  2  0  0  0  0  0  0
  184.9370  178.7180  142.9100 O   0  0  0  0  0  0  0  0  0  0  0  0
  183.4800  178.1450  141.1370 C   0  0  1  0  0  3  0  0  0  0  0  0
  183.5800  178.6070  142.5740 C   0  0  0  0  0  2  0  0  0  0  0  0
  182.3850  178.9080  140.4130 C   0  0  0  0  0  2  0  0  0  0  0  0
  181.1500  178.8920  141.1980 N   0  0  0  0  0  0  0  0  0  0  0  0
  179.0120  178.9380  140.1910 N   0  0  0  0  0  0  0  0  0  0  0  0
  180.5890  177.6150  141.0390 N   0  0  0  0  0  2  0  0  0  0  0  0
  180.0870  179.8000  140.6760 C   0  0  1  0  0  0  0  0  0  0  0  0
  179.5650  180.6320  141.8360 C   0  0  0  0  0  1  0  0  0  0  0  0
  179.3270  177.7160  140.4220 C   0  0  0  0  0  3  0  0  0  0  0  0
  180.5500  180.7480  139.5500 C   0  0  0  0  0  2  0  0  0  0  0  0
  179.8230  180.6340  137.2830 C   0  0  0  0  0  2  0  0  0  0  0  0
  179.1850  182.5190  138.7390 C   0  0  0  0  0  2  0  0  0  0  0  0
  181.1750  182.6400  137.3660 O   0  0  0  0  0  0  0  0  0  0  0  0
  180.0690  183.3730  137.8150 C   0  0  0  0  0  2  0  0  0  0  0  0
  180.6480  181.6710  136.5030 C   0  0  0  0  0  2  0  0  0  0  0  0
  179.4560  181.0750  138.6390 N   0  0  0  0  0  0  0  0  0  0  0  0
  189.7200  177.8840  139.3060 N   0  0  0  0  0  2  0  0  0  0  0  0
  189.6760  176.7660  138.4100 C   0  0  0  0  0  0  0  0  0  0  0  0
  190.9610  175.7580  138.2440 S   0  0  0  0  0  0  0  0  0  0  0  0
  188.3690  176.3690  137.8130 C   0  0  0  0  0  2  0  0  0  0  0  0
  188.0690  177.1890  136.5670 C   0  0  2  0  0  3  0  0  0  0  0  0
  189.2480  177.7320  136.0530 O   0  0  0  0  0  1  0  0  0  0  0  0
  187.5330  179.6090  136.8910 O   0  0  0  0  0  0  0  0  0  0  0  0
  185.9280  178.0040  137.2100 O   0  0  0  0  0  1  0  0  0  0  0  0
  187.1150  178.2840  136.9000 C   0  0  0  0  0  0  0  0  0  0  0  0
  1  5  1  0  0  0  0
  1  6  1  0  0  0  0
  2 12  1  0  0  0  0
  2 11  1  0  0  0  0
  3 10  1  0  0  0  0
  4  8  1  0  0  0  0
  7  4  1  0  0  0  0
  7  9  1  0  0  0  0
  8  1  2  0  0  0  0
  9  5  2  0  0  0  0
 10 11  1  0  0  0  0
 11  7  2  0  0  0  0
 12 15  1  0  0  0  0
 13 14  1  0  0  0  0
 13  2  2  0  0  0  0
 14  3  2  0  0  0  0
 15  4  2  0  0  0  0
 16  3  1  1  0  0  0
 16 18  1  0  0  0  0
 17 19  1  0  0  0  0
 17 16  1  0  0  0  0
 19 21  1  6  0  0  0
 19 20  1  0  0  0  0
 20 18  1  0  0  0  0
 21 22  1  0  0  0  0
 23 27  2  0  0  0  0
 23 25  1  0  0  0  0
 24 22  1  0  0  0  0
 25 22  1  0  0  0  0
 25 26  1  1  0  0  0
 27 24  1  0  0  0  0
 28 25  1  0  0  0  0
 29 34  1  0  0  0  0
 31 32  1  0  0  0  0
 32 30  1  0  0  0  0
 33 29  1  0  0  0  0
 33 31  1  0  0  0  0
 34 30  1  0  0  0  0
 34 28  1  0  0  0  0
 35 13  1  0  0  0  0
 36 35  1  0  0  0  0
 37 36  2  0  0  0  0
 38 36  1  0  0  0  0
 39 40  1  1  0  0  0
 39 43  1  0  0  0  0
 39 38  1  0  0  0  0
 41 43  2  0  0  0  0
 43 42  1  0  0  0  0
M  END
>  <MODEL>
2

>  <REMARK>
 VINA RESULT:      -9.1      1.602      2.171
  Name = 
  10 active torsions:
  status: ('A' for Active; 'I' for Inactive)
    1  A    between atoms: C_1  and  C_9
    2  A    between atoms: C_1  and  N_35
    3  A    between atoms: C_2  and  C_13
    4  A    between atoms: C_3  and  N_4
    5  A    between atoms: C_3  and  C_12
    6  A    between atoms: C_9  and  C_32
    7  A    between atoms: C_14  and  C_22
    8  A    between atoms: C_14  and  N_40
    9  A    between atoms: C_32  and  C_37
   10  A    between atoms: C_34  and  N_35
                            x       y       z     vdW  Elec       q    Type
                         _______ _______ _______ _____ _____    ______ ____

>  <TORSDO>
F 10

$$$$
=
 OpenBabel11052416233D

 43 48  0  0  1  0  0  0  0  0999 V2000
  188.0380  177.3100  147.2080 C   0  0  0  0  0  0  0  0  0  0  0  0
  186.2240  178.5540  142.6140 C   0  0  0  0  0  0  0  0  0  0  0  0
  188.3380  178.1060  140.7970 C   0  0  0  0  0  0  0  0  0  0  0  0
  186.6020  178.0150  145.3520 C   0  0  0  0  0  0  0  0  0  0  0  0
  189.0890  177.1130  146.4110 C   0  0  0  0  0  3  0  0  0  0  0  0
  188.1520  177.0810  148.5380 F   0  0  0  0  0  0  0  0  0  0  0  0
  187.6730  177.8310  144.4480 C   0  0  0  0  0  0  0  0  0  0  0  0
  186.7550  177.7740  146.6570 C   0  0  0  0  0  3  0  0  0  0  0  0
  189.0240  177.3480  144.9250 C   0  0  0  0  0  2  0  0  0  0  0  0
  188.5220  177.8890  142.1690 O   0  0  0  0  0  0  0  0  0  0  0  0
  187.4760  178.0930  143.0820 C   0  0  0  0  0  0  0  0  0  0  0  0
  185.1730  178.7150  143.5280 C   0  0  0  0  0  3  0  0  0  0  0  0
  186.0580  178.8020  141.2930 C   0  0  0  0  0  0  0  0  0  0  0  0
  187.1610  178.5410  140.3460 C   0  0  0  0  0  3  0  0  0  0  0  0
  185.3620  178.4510  144.8850 C   0  0  0  0  0  3  0  0  0  0  0  0
  189.4540  177.8580  139.8410 C   0  0  1  0  0  3  0  0  0  0  0  0
  189.5350  176.3860  139.5000 C   0  0  0  0  0  2  0  0  0  0  0  0
  189.2480  178.5840  138.6580 O   0  0  0  0  0  0  0  0  0  0  0  0
  189.7850  176.3690  138.0230 C   0  0  1  0  0  3  0  0  0  0  0  0
  189.8760  177.8340  137.6530 C   0  0  0  0  0  2  0  0  0  0  0  0
  191.1010  175.6700  137.7310 C   0  0  0  0  0  2  0  0  0  0  0  0
  191.1350  175.2110  136.3410 N   0  0  0  0  0  0  0  0  0  0  0  0
  191.5060  172.9480  135.7670 N   0  0  0  0  0  0  0  0  0  0  0  0
  189.9470  174.4970  136.1250 N   0  0  0  0  0  2  0  0  0  0  0  0
  192.1970  174.2010  136.0610 C   0  0  1  0  0  0  0  0  0  0  0  0
  192.9580  174.6470  134.8230 C   0  0  0  0  0  1  0  0  0  0  0  0
  190.2410  173.1570  135.8020 C   0  0  0  0  0  3  0  0  0  0  0  0
  193.2010  173.9900  137.2150 C   0  0  0  0  0  2  0  0  0  0  0  0
  194.9250  172.4270  136.7020 C   0  0  0  0  0  2  0  0  0  0  0  0
  195.4510  174.6770  137.5650 C   0  0  0  0  0  2  0  0  0  0  0  0
  195.1680  172.8110  139.0810 O   0  0  0  0  0  0  0  0  0  0  0  0
  195.9480  173.9460  138.8230 C   0  0  0  0  0  2  0  0  0  0  0  0
  195.4700  171.9150  138.0460 C   0  0  0  0  0  2  0  0  0  0  0  0
  194.5680  173.8560  136.7190 N   0  0  0  0  0  0  0  0  0  0  0  0
  184.8100  179.2630  140.7530 N   0  0  0  0  0  2  0  0  0  0  0  0
  183.8530  178.4500  140.0620 C   0  0  0  0  0  0  0  0  0  0  0  0
  183.9730  178.1790  138.4480 S   0  0  0  0  0  0  0  0  0  0  0  0
  182.8850  177.6410  140.8570 C   0  0  0  0  0  2  0  0  0  0  0  0
  181.6590  178.4650  141.2220 C   0  0  2  0  0  3  0  0  0  0  0  0
  181.7170  178.8430  142.5650 O   0  0  0  0  0  1  0  0  0  0  0  0
  179.4580  177.5440  141.9690 O   0  0  0  0  0  1  0  0  0  0  0  0
  180.2620  177.0920  139.8710 O   0  0  0  0  0  0  0  0  0  0  0  0
  180.4230  177.6690  140.9770 C   0  0  0  0  0  0  0  0  0  0  0  0
  1  6  1  0  0  0  0
  2 11  1  0  0  0  0
  2 12  1  0  0  0  0
  3 10  1  0  0  0  0
  4  8  2  0  0  0  0
  5  1  2  0  0  0  0
  7  9  1  0  0  0  0
  7  4  1  0  0  0  0
  8  1  1  0  0  0  0
  9  5  1  0  0  0  0
 10 11  1  0  0  0  0
 11  7  2  0  0  0  0
 12 15  2  0  0  0  0
 13  2  2  0  0  0  0
 14  3  2  0  0  0  0
 14 13  1  0  0  0  0
 15  4  1  0  0  0  0
 16  3  1  1  0  0  0
 17 16  1  0  0  0  0
 18 16  1  0  0  0  0
 19 21  1  1  0  0  0
 19 17  1  0  0  0  0
 20 19  1  0  0  0  0
 20 18  1  0  0  0  0
 22 21  1  0  0  0  0
 23 27  2  0  0  0  0
 23 25  1  0  0  0  0
 24 22  1  0  0  0  0
 25 26  1  6  0  0  0
 25 22  1  0  0  0  0
 25 28  1  0  0  0  0
 27 24  1  0  0  0  0
 29 34  1  0  0  0  0
 29 33  1  0  0  0  0
 30 32  1  0  0  0  0
 32 31  1  0  0  0  0
 33 31  1  0  0  0  0
 34 28  1  0  0  0  0
 34 30  1  0  0  0  0
 35 13  1  0  0  0  0
 36 35  1  0  0  0  0
 36 38  1  0  0  0  0
 37 36  2  0  0  0  0
 38 39  1  0  0  0  0
 39 40  1  1  0  0  0
 42 43  2  0  0  0  0
 43 39  1  0  0  0  0
 43 41  1  0  0  0  0
M  END
>  <MODEL>
3

>  <REMARK>
 VINA RESULT:      -8.9      3.260     10.438
  Name = 
  10 active torsions:
  status: ('A' for Active; 'I' for Inactive)
    1  A    between atoms: C_1  and  C_9
    2  A    between atoms: C_1  and  N_35
    3  A    between atoms: C_2  and  C_13
    4  A    between atoms: C_3  and  N_4
    5  A    between atoms: C_3  and  C_12
    6  A    between atoms: C_9  and  C_32
    7  A    between atoms: C_14  and  C_22
    8  A    between atoms: C_14  and  N_40
    9  A    between atoms: C_32  and  C_37
   10  A    between atoms: C_34  and  N_35
                            x       y       z     vdW  Elec       q    Type
                         _______ _______ _______ _____ _____    ______ ____

>  <TORSDO>
F 10

$$$$
=
 OpenBabel11052416233D

 43 48  0  0  1  0  0  0  0  0999 V2000
  191.2330  176.6110  147.0470 C   0  0  0  0  0  0  0  0  0  0  0  0
  187.1290  177.9270  144.3330 C   0  0  0  0  0  0  0  0  0  0  0  0
  187.9990  178.1230  141.6540 C   0  0  0  0  0  0  0  0  0  0  0  0
  188.9600  177.1930  146.3430 C   0  0  0  0  0  0  0  0  0  0  0  0
  191.7190  176.7220  145.8100 C   0  0  0  0  0  3  0  0  0  0  0  0
  192.0600  176.2720  148.0650 F   0  0  0  0  0  0  0  0  0  0  0  0
  189.4040  177.3330  145.0080 C   0  0  0  0  0  0  0  0  0  0  0  0
  189.8070  176.8540  147.3180 C   0  0  0  0  0  3  0  0  0  0  0  0
  190.8500  177.0930  144.6370 C   0  0  0  0  0  2  0  0  0  0  0  0
  188.9060  177.8050  142.6750 O   0  0  0  0  0  0  0  0  0  0  0  0
  188.4840  177.6910  144.0080 C   0  0  0  0  0  0  0  0  0  0  0  0
  186.7090  177.7690  145.6610 C   0  0  0  0  0  3  0  0  0  0  0  0
  186.2610  178.2730  143.3530 C   0  0  0  0  0  0  0  0  0  0  0  0
  186.7190  178.3480  141.9510 C   0  0  0  0  0  3  0  0  0  0  0  0
  187.6180  177.4090  146.6570 C   0  0  0  0  0  3  0  0  0  0  0  0
  188.4620  178.2140  140.2410 C   0  0  1  0  0  3  0  0  0  0  0  0
  188.9270  176.8600  139.7520 C   0  0  0  0  0  2  0  0  0  0  0  0
  187.4150  178.6550  139.4170 O   0  0  0  0  0  0  0  0  0  0  0  0
  188.3700  176.7630  138.3650 C   0  0  1  0  0  3  0  0  0  0  0  0
  187.6760  178.0930  138.1590 C   0  0  0  0  0  2  0  0  0  0  0  0
  189.5010  176.6000  137.3650 C   0  0  0  0  0  2  0  0  0  0  0  0
  189.1460  175.6040  136.3530 N   0  0  0  0  0  0  0  0  0  0  0  0
  189.3650  173.2810  136.7340 N   0  0  0  0  0  0  0  0  0  0  0  0
  187.9530  175.0020  136.7830 N   0  0  0  0  0  2  0  0  0  0  0  0
  190.0960  174.4580  136.2690 C   0  0  1  0  0  0  0  0  0  0  0  0
  190.4700  174.2600  134.8090 C   0  0  0  0  0  1  0  0  0  0  0  0
  188.1600  173.6260  137.0040 C   0  0  0  0  0  3  0  0  0  0  0  0
  191.3890  174.6350  137.0950 C   0  0  0  0  0  2  0  0  0  0  0  0
  193.6060  173.7690  136.9750 C   0  0  0  0  0  2  0  0  0  0  0  0
  193.0050  175.9070  135.9020 C   0  0  0  0  0  2  0  0  0  0  0  0
  193.8550  175.8610  138.1680 O   0  0  0  0  0  0  0  0  0  0  0  0
  193.9250  176.5530  136.9520 C   0  0  0  0  0  2  0  0  0  0  0  0
  194.4640  174.6240  137.9230 C   0  0  0  0  0  2  0  0  0  0  0  0
  192.5800  174.5420  136.2550 N   0  0  0  0  0  0  0  0  0  0  0  0
  184.8710  178.5190  143.6140 N   0  0  0  0  0  2  0  0  0  0  0  0
  183.8260  178.5070  142.6320 C   0  0  0  0  0  0  0  0  0  0  0  0
  182.3100  179.0200  142.9970 S   0  0  0  0  0  0  0  0  0  0  0  0
  184.1790  178.2650  141.2040 C   0  0  0  0  0  2  0  0  0  0  0  0
  182.9730  178.4790  140.3020 C   0  0  2  0  0  3  0  0  0  0  0  0
  182.6130  177.2780  139.6880 O   0  0  0  0  0  1  0  0  0  0  0  0
  182.3600  179.8250  138.2860 O   0  0  0  0  0  0  0  0  0  0  0  0
  184.4230  180.0520  139.2590 O   0  0  0  0  0  1  0  0  0  0  0  0
  183.2930  179.4990  139.2630 C   0  0  0  0  0  0  0  0  0  0  0  0
  1  8  1  0  0  0  0
  1  6  1  0  0  0  0
  2 12  1  0  0  0  0
  3 14  2  0  0  0  0
  3 10  1  0  0  0  0
  4 15  1  0  0  0  0
  4  8  2  0  0  0  0
  5  1  2  0  0  0  0
  7  4  1  0  0  0  0
  9  7  1  0  0  0  0
  9  5  1  0  0  0  0
 10 11  1  0  0  0  0
 11  2  1  0  0  0  0
 11  7  2  0  0  0  0
 12 15  2  0  0  0  0
 13 35  1  0  0  0  0
 13  2  2  0  0  0  0
 14 13  1  0  0  0  0
 16  3  1  1  0  0  0
 17 16  1  0  0  0  0
 18 16  1  0  0  0  0
 19 21  1  6  0  0  0
 19 17  1  0  0  0  0
 20 19  1  0  0  0  0
 20 18  1  0  0  0  0
 22 24  1  0  0  0  0
 22 21  1  0  0  0  0
 23 27  2  0  0  0  0
 24 27  1  0  0  0  0
 25 26  1  6  0  0  0
 25 22  1  0  0  0  0
 25 23  1  0  0  0  0
 25 28  1  0  0  0  0
 29 33  1  0  0  0  0
 30 34  1  0  0  0  0
 30 32  1  0  0  0  0
 32 31  1  0  0  0  0
 33 31  1  0  0  0  0
 34 29  1  0  0  0  0
 34 28  1  0  0  0  0
 36 37  2  0  0  0  0
 36 35  1  0  0  0  0
 38 36  1  0  0  0  0
 39 40  1  6  0  0  0
 39 38  1  0  0  0  0
 41 43  2  0  0  0  0
 42 43  1  0  0  0  0
 43 39  1  0  0  0  0
M  END
>  <MODEL>
4

>  <REMARK>
 VINA RESULT:      -8.7      3.236      8.943
  Name = 
  10 active torsions:
  status: ('A' for Active; 'I' for Inactive)
    1  A    between atoms: C_1  and  C_9
    2  A    between atoms: C_1  and  N_35
    3  A    between atoms: C_2  and  C_13
    4  A    between atoms: C_3  and  N_4
    5  A    between atoms: C_3  and  C_12
    6  A    between atoms: C_9  and  C_32
    7  A    between atoms: C_14  and  C_22
    8  A    between atoms: C_14  and  N_40
    9  A    between atoms: C_32  and  C_37
   10  A    between atoms: C_34  and  N_35
                            x       y       z     vdW  Elec       q    Type
                         _______ _______ _______ _____ _____    ______ ____

>  <TORSDO>
F 10

$$$$
=
 OpenBabel11052416233D

 43 48  0  0  1  0  0  0  0  0999 V2000
  188.1270  177.3450  147.4460 C   0  0  0  0  0  0  0  0  0  0  0  0
  186.1350  178.5790  142.9240 C   0  0  0  0  0  0  0  0  0  0  0  0
  188.2010  178.2040  141.0370 C   0  0  0  0  0  0  0  0  0  0  0  0
  186.6150  178.0270  145.6440 C   0  0  0  0  0  0  0  0  0  0  0  0
  189.1570  177.1830  146.6150 C   0  0  0  0  0  3  0  0  0  0  0  0
  188.2910  177.1080  148.7690 F   0  0  0  0  0  0  0  0  0  0  0  0
  187.6610  177.8800  144.7040 C   0  0  0  0  0  0  0  0  0  0  0  0
  186.8160  177.7790  146.9400 C   0  0  0  0  0  3  0  0  0  0  0  0
  189.0380  177.4280  145.1330 C   0  0  0  0  0  2  0  0  0  0  0  0
  188.4340  177.9800  142.4000 O   0  0  0  0  0  0  0  0  0  0  0  0
  187.4130  178.1480  143.3470 C   0  0  0  0  0  0  0  0  0  0  0  0
  185.1100  178.7050  143.8720 C   0  0  0  0  0  3  0  0  0  0  0  0
  185.9200  178.8340  141.6110 C   0  0  0  0  0  0  0  0  0  0  0  0
  186.9980  178.6110  140.6280 C   0  0  0  0  0  3  0  0  0  0  0  0
  185.3490  178.4340  145.2200 C   0  0  0  0  0  3  0  0  0  0  0  0
  189.2910  177.9930  140.0430 C   0  0  1  0  0  3  0  0  0  0  0  0
  189.4130  176.5250  139.7010 C   0  0  0  0  0  2  0  0  0  0  0  0
  189.0200  178.7090  138.8680 O   0  0  0  0  0  0  0  0  0  0  0  0
  189.6130  176.5140  138.2160 C   0  0  1  0  0  3  0  0  0  0  0  0
  189.6390  177.9800  137.8420 C   0  0  0  0  0  2  0  0  0  0  0  0
  190.9420  175.8610  137.8800 C   0  0  0  0  0  2  0  0  0  0  0  0
  190.9330  175.3700  136.5000 N   0  0  0  0  0  0  0  0  0  0  0  0
  191.2950  173.0960  135.9660 N   0  0  0  0  0  0  0  0  0  0  0  0
  189.7420  174.6470  136.3390 N   0  0  0  0  0  2  0  0  0  0  0  0
  191.9900  174.3580  136.2090 C   0  0  1  0  0  0  0  0  0  0  0  0
  192.7090  174.7780  134.9370 C   0  0  0  0  0  1  0  0  0  0  0  0
  190.0320  173.3020  136.0370 C   0  0  0  0  0  3  0  0  0  0  0  0
  193.0320  174.1770  137.3340 C   0  0  0  0  0  2  0  0  0  0  0  0
  194.7480  172.6460  136.7100 C   0  0  0  0  0  2  0  0  0  0  0  0
  195.2880  174.8580  137.6570 C   0  0  0  0  0  2  0  0  0  0  0  0
  195.0480  172.9260  139.0960 O   0  0  0  0  0  0  0  0  0  0  0  0
  195.8180  174.0740  138.8690 C   0  0  0  0  0  2  0  0  0  0  0  0
  195.3270  172.0780  138.0160 C   0  0  0  0  0  2  0  0  0  0  0  0
  194.3870  174.0710  136.7990 N   0  0  0  0  0  0  0  0  0  0  0  0
  184.6440  179.2660  141.1150 N   0  0  0  0  0  2  0  0  0  0  0  0
  183.5640  178.4030  140.7360 C   0  0  0  0  0  0  0  0  0  0  0  0
  182.0500  178.6240  141.3270 S   0  0  0  0  0  0  0  0  0  0  0  0
  183.7630  177.4530  139.6040 C   0  0  0  0  0  2  0  0  0  0  0  0
  183.9700  178.2010  138.2960 C   0  0  2  0  0  3  0  0  0  0  0  0
  182.7410  178.6120  137.7760 O   0  0  0  0  0  1  0  0  0  0  0  0
  186.0190  177.0480  137.4450 O   0  0  0  0  0  1  0  0  0  0  0  0
  184.0180  176.8350  136.3470 O   0  0  0  0  0  0  0  0  0  0  0  0
  184.6620  177.3200  137.3130 C   0  0  0  0  0  0  0  0  0  0  0  0
  1  6  1  0  0  0  0
  2 11  1  0  0  0  0
  2 12  1  0  0  0  0
  3 10  1  0  0  0  0
  4  8  2  0  0  0  0
  5  1  2  0  0  0  0
  7  9  1  0  0  0  0
  7  4  1  0  0  0  0
  8  1  1  0  0  0  0
  9  5  1  0  0  0  0
 10 11  1  0  0  0  0
 11  7  2  0  0  0  0
 12 15  2  0  0  0  0
 13  2  2  0  0  0  0
 14  3  2  0  0  0  0
 14 13  1  0  0  0  0
 15  4  1  0  0  0  0
 16  3  1  1  0  0  0
 17 16  1  0  0  0  0
 18 16  1  0  0  0  0
 19 21  1  1  0  0  0
 19 17  1  0  0  0  0
 20 19  1  0  0  0  0
 20 18  1  0  0  0  0
 22 21  1  0  0  0  0
 23 27  2  0  0  0  0
 23 25  1  0  0  0  0
 24 22  1  0  0  0  0
 25 26  1  6  0  0  0
 25 22  1  0  0  0  0
 25 28  1  0  0  0  0
 27 24  1  0  0  0  0
 29 34  1  0  0  0  0
 29 33  1  0  0  0  0
 30 32  1  0  0  0  0
 32 31  1  0  0  0  0
 33 31  1  0  0  0  0
 34 28  1  0  0  0  0
 34 30  1  0  0  0  0
 35 13  1  0  0  0  0
 36 35  1  0  0  0  0
 36 37  2  0  0  0  0
 38 36  1  0  0  0  0
 39 40  1  6  0  0  0
 39 38  1  0  0  0  0
 42 43  2  0  0  0  0
 43 41  1  0  0  0  0
 43 39  1  0  0  0  0
M  END
>  <MODEL>
5

>  <REMARK>
 VINA RESULT:      -8.7      3.517      9.798
  Name = 
  10 active torsions:
  status: ('A' for Active; 'I' for Inactive)
    1  A    between atoms: C_1  and  C_9
    2  A    between atoms: C_1  and  N_35
    3  A    between atoms: C_2  and  C_13
    4  A    between atoms: C_3  and  N_4
    5  A    between atoms: C_3  and  C_12
    6  A    between atoms: C_9  and  C_32
    7  A    between atoms: C_14  and  C_22
    8  A    between atoms: C_14  and  N_40
    9  A    between atoms: C_32  and  C_37
   10  A    between atoms: C_34  and  N_35
                            x       y       z     vdW  Elec       q    Type
                         _______ _______ _______ _____ _____    ______ ____

>  <TORSDO>
F 10

$$$$
=
 OpenBabel11052416233D

 43 48  0  0  1  0  0  0  0  0999 V2000
  188.0000  177.3840  147.2290 C   0  0  0  0  0  0  0  0  0  0  0  0
  188.1390  177.8990  142.1630 C   0  0  0  0  0  0  0  0  0  0  0  0
  185.5900  178.8480  141.4090 C   0  0  0  0  0  0  0  0  0  0  0  0
  188.7050  177.4360  144.8840 C   0  0  0  0  0  0  0  0  0  0  0  0
  186.7640  177.7950  146.9390 C   0  0  0  0  0  3  0  0  0  0  0  0
  188.3370  177.1320  148.5160 F   0  0  0  0  0  0  0  0  0  0  0  0
  187.4150  177.8710  144.5000 C   0  0  0  0  0  0  0  0  0  0  0  0
  188.9990  177.2020  146.1650 C   0  0  0  0  0  3  0  0  0  0  0  0
  186.3290  178.0940  145.5280 C   0  0  0  0  0  3  0  0  0  0  0  0
  185.8750  178.5670  142.7520 O   0  0  0  0  0  0  0  0  0  0  0  0
  187.1410  178.1090  143.1430 C   0  0  0  0  0  0  0  0  0  0  0  0
  189.4140  177.4810  142.5690 C   0  0  0  0  0  2  0  0  0  0  0  0
  187.8520  178.1330  140.8610 C   0  0  0  0  0  0  0  0  0  0  0  0
  186.5240  178.6530  140.4780 C   0  0  0  0  0  3  0  0  0  0  0  0
  189.6930  177.2490  143.9160 C   0  0  0  0  0  3  0  0  0  0  0  0
  184.2460  179.3600  141.0170 C   0  0  1  0  0  3  0  0  0  0  0  0
  184.0840  179.3140  139.5140 C   0  0  0  0  0  2  0  0  0  0  0  0
  183.2410  178.5750  141.6020 O   0  0  0  0  0  0  0  0  0  0  0  0
  182.6880  178.8080  139.3140 C   0  0  1  0  0  3  0  0  0  0  0  0
  182.1530  178.6550  140.7210 C   0  0  0  0  0  2  0  0  0  0  0  0
  181.8730  179.8350  138.5490 C   0  0  0  0  0  2  0  0  0  0  0  0
  180.9260  179.1680  137.6540 N   0  0  0  0  0  0  0  0  0  0  0  0
  181.0320  179.3980  135.3030 N   0  0  0  0  0  0  0  0  0  0  0  0
  181.6290  178.1250  137.0310 N   0  0  0  0  0  2  0  0  0  0  0  0
  180.4770  180.0110  136.5080 C   0  0  1  0  0  0  0  0  0  0  0  0
  178.9590  179.9450  136.4390 C   0  0  0  0  0  1  0  0  0  0  0  0
  181.6650  178.3340  135.6370 C   0  0  0  0  0  3  0  0  0  0  0  0
  180.9080  181.4900  136.5920 C   0  0  0  0  0  2  0  0  0  0  0  0
  179.9340  183.1520  135.1890 C   0  0  0  0  0  2  0  0  0  0  0  0
  179.6830  183.2390  137.6410 C   0  0  0  0  0  2  0  0  0  0  0  0
  181.5150  184.3830  136.5480 O   0  0  0  0  0  0  0  0  0  0  0  0
  180.5570  184.5010  137.5640 C   0  0  0  0  0  2  0  0  0  0  0  0
  180.7870  184.4210  135.3510 C   0  0  0  0  0  2  0  0  0  0  0  0
  179.7690  182.3920  136.4390 N   0  0  0  0  0  0  0  0  0  0  0  0
  188.8220  177.9480  139.8190 N   0  0  0  0  0  2  0  0  0  0  0  0
  188.5220  177.7500  138.4310 C   0  0  0  0  0  0  0  0  0  0  0  0
  188.8260  178.9190  137.3200 S   0  0  0  0  0  0  0  0  0  0  0  0
  188.1670  176.3820  137.9570 C   0  0  0  0  0  2  0  0  0  0  0  0
  189.1670  175.8870  136.9230 C   0  0  2  0  0  3  0  0  0  0  0  0
  188.4960  175.3020  135.8470 O   0  0  0  0  0  1  0  0  0  0  0  0
  191.1520  175.3140  138.3300 O   0  0  0  0  0  1  0  0  0  0  0  0
  189.9080  173.6640  137.3380 O   0  0  0  0  0  0  0  0  0  0  0  0
  190.0860  174.8920  137.5430 C   0  0  0  0  0  0  0  0  0  0  0  0
  1  6  1  0  0  0  0
  2 12  1  0  0  0  0
  2 11  1  0  0  0  0
  3 10  1  0  0  0  0
  4  8  1  0  0  0  0
  5  1  1  0  0  0  0
  7  4  1  0  0  0  0
  7  9  1  0  0  0  0
  8  1  2  0  0  0  0
  9  5  2  0  0  0  0
 10 11  1  0  0  0  0
 11  7  2  0  0  0  0
 12 15  1  0  0  0  0
 13  2  2  0  0  0  0
 14 13  1  0  0  0  0
 14  3  2  0  0  0  0
 15  4  2  0  0  0  0
 16  3  1  6  0  0  0
 16 18  1  0  0  0  0
 17 16  1  0  0  0  0
 19 21  1  6  0  0  0
 19 17  1  0  0  0  0
 19 20  1  0  0  0  0
 20 18  1  0  0  0  0
 22 21  1  0  0  0  0
 23 27  2  0  0  0  0
 23 25  1  0  0  0  0
 24 22  1  0  0  0  0
 25 26  1  6  0  0  0
 25 28  1  0  0  0  0
 25 22  1  0  0  0  0
 27 24  1  0  0  0  0
 29 33  1  0  0  0  0
 29 34  1  0  0  0  0
 31 32  1  0  0  0  0
 32 30  1  0  0  0  0
 33 31  1  0  0  0  0
 34 28  1  0  0  0  0
 34 30  1  0  0  0  0
 35 13  1  0  0  0  0
 36 35  1  0  0  0  0
 37 36  2  0  0  0  0
 38 36  1  0  0  0  0
 39 40  1  6  0  0  0
 39 43  1  0  0  0  0
 39 38  1  0  0  0  0
 42 43  2  0  0  0  0
 43 41  1  0  0  0  0
M  END
>  <MODEL>
6

>  <REMARK>
 VINA RESULT:      -8.6      2.078      2.949
  Name = 
  10 active torsions:
  status: ('A' for Active; 'I' for Inactive)
    1  A    between atoms: C_1  and  C_9
    2  A    between atoms: C_1  and  N_35
    3  A    between atoms: C_2  and  C_13
    4  A    between atoms: C_3  and  N_4
    5  A    between atoms: C_3  and  C_12
    6  A    between atoms: C_9  and  C_32
    7  A    between atoms: C_14  and  C_22
    8  A    between atoms: C_14  and  N_40
    9  A    between atoms: C_32  and  C_37
   10  A    between atoms: C_34  and  N_35
                            x       y       z     vdW  Elec       q    Type
                         _______ _______ _______ _____ _____    ______ ____

>  <TORSDO>
F 10

$$$$
=
 OpenBabel11052416233D

 43 48  0  0  1  0  0  0  0  0999 V2000
  190.8320  176.7550  146.9450 C   0  0  0  0  0  0  0  0  0  0  0  0
  189.6950  177.7720  142.0850 C   0  0  0  0  0  0  0  0  0  0  0  0
  187.0080  178.6400  142.0810 C   0  0  0  0  0  0  0  0  0  0  0  0
  190.9320  177.0780  144.5190 C   0  0  0  0  0  0  0  0  0  0  0  0
  189.5500  177.1200  147.0100 C   0  0  0  0  0  3  0  0  0  0  0  0
  191.4860  176.3980  148.0760 F   0  0  0  0  0  0  0  0  0  0  0  0
  189.5740  177.4730  144.5100 C   0  0  0  0  0  0  0  0  0  0  0  0
  191.5420  176.7370  145.6560 C   0  0  0  0  0  3  0  0  0  0  0  0
  188.7700  177.5300  145.7890 C   0  0  0  0  0  3  0  0  0  0  0  0
  187.6260  178.2460  143.2760 O   0  0  0  0  0  0  0  0  0  0  0  0
  188.9640  177.8260  143.2950 C   0  0  0  0  0  0  0  0  0  0  0  0
  191.0440  177.3910  142.1200 C   0  0  0  0  0  2  0  0  0  0  0  0
  189.0860  178.1160  140.9250 C   0  0  0  0  0  0  0  0  0  0  0  0
  187.6890  178.5930  140.9350 C   0  0  0  0  0  3  0  0  0  0  0  0
  191.6550  177.0450  143.3260 C   0  0  0  0  0  3  0  0  0  0  0  0
  185.5940  179.1080  142.0860 C   0  0  1  0  0  3  0  0  0  0  0  0
  184.8380  178.5070  140.9220 C   0  0  0  0  0  2  0  0  0  0  0  0
  184.9620  178.7260  143.2800 O   0  0  0  0  0  0  0  0  0  0  0  0
  183.5140  178.1220  141.5090 C   0  0  1  0  0  3  0  0  0  0  0  0
  183.6080  178.5820  142.9480 C   0  0  0  0  0  2  0  0  0  0  0  0
  182.3980  178.8600  140.7920 C   0  0  0  0  0  2  0  0  0  0  0  0
  182.7500  179.0730  139.3870 N   0  0  0  0  0  0  0  0  0  0  0  0
  181.1940  178.7680  137.6340 N   0  0  0  0  0  0  0  0  0  0  0  0
  182.1240  180.2660  138.9930 N   0  0  0  0  0  2  0  0  0  0  0  0
  182.1730  178.0610  138.4560 C   0  0  1  0  0  0  0  0  0  0  0  0
  183.2910  177.5500  137.5620 C   0  0  0  0  0  1  0  0  0  0  0  0
  181.2030  180.0080  137.9590 C   0  0  0  0  0  3  0  0  0  0  0  0
  181.5030  176.8570  139.1540 C   0  0  0  0  0  2  0  0  0  0  0  0
  179.2200  176.7510  139.8300 C   0  0  0  0  0  2  0  0  0  0  0  0
  180.0740  175.3610  137.9800 C   0  0  0  0  0  2  0  0  0  0  0  0
  180.0620  174.5200  140.2500 O   0  0  0  0  0  0  0  0  0  0  0  0
  179.8140  174.1700  138.9170 C   0  0  0  0  0  2  0  0  0  0  0  0
  179.0460  175.4240  140.5880 C   0  0  0  0  0  2  0  0  0  0  0  0
  180.1360  176.6550  138.6800 N   0  0  0  0  0  0  0  0  0  0  0  0
  189.7730  178.0910  139.6650 N   0  0  0  0  0  2  0  0  0  0  0  0
  189.9020  176.9470  138.8110 C   0  0  0  0  0  0  0  0  0  0  0  0
  188.7620  176.5940  137.6840 S   0  0  0  0  0  0  0  0  0  0  0  0
  191.2000  176.2140  138.7760 C   0  0  0  0  0  2  0  0  0  0  0  0
  191.3930  175.5140  137.4390 C   0  0  2  0  0  3  0  0  0  0  0  0
  191.2970  174.1300  137.6020 O   0  0  0  0  0  1  0  0  0  0  0  0
  193.5600  176.7570  137.5350 O   0  0  0  0  0  1  0  0  0  0  0  0
  193.0920  175.3580  135.7810 O   0  0  0  0  0  0  0  0  0  0  0  0
  192.7270  175.8620  136.8730 C   0  0  0  0  0  0  0  0  0  0  0  0
  1  5  1  0  0  0  0
  1  6  1  0  0  0  0
  2 12  1  0  0  0  0
  2 11  1  0  0  0  0
  3 10  1  0  0  0  0
  4  8  1  0  0  0  0
  7  4  1  0  0  0  0
  7  9  1  0  0  0  0
  8  1  2  0  0  0  0
  9  5  2  0  0  0  0
 10 11  1  0  0  0  0
 11  7  2  0  0  0  0
 12 15  1  0  0  0  0
 13 14  1  0  0  0  0
 13  2  2  0  0  0  0
 14  3  2  0  0  0  0
 15  4  2  0  0  0  0
 16  3  1  1  0  0  0
 16 18  1  0  0  0  0
 17 19  1  0  0  0  0
 17 16  1  0  0  0  0
 19 21  1  6  0  0  0
 19 20  1  0  0  0  0
 20 18  1  0  0  0  0
 22 21  1  0  0  0  0
 23 27  2  0  0  0  0
 23 25  1  0  0  0  0
 24 22  1  0  0  0  0
 25 26  1  6  0  0  0
 25 28  1  0  0  0  0
 25 22  1  0  0  0  0
 27 24  1  0  0  0  0
 29 33  1  0  0  0  0
 30 34  1  0  0  0  0
 30 32  1  0  0  0  0
 31 33  1  0  0  0  0
 32 31  1  0  0  0  0
 34 28  1  0  0  0  0
 34 29  1  0  0  0  0
 35 13  1  0  0  0  0
 36 35  1  0  0  0  0
 37 36  2  0  0  0  0
 38 36  1  0  0  0  0
 39 40  1  1  0  0  0
 39 38  1  0  0  0  0
 42 43  2  0  0  0  0
 43 39  1  0  0  0  0
 43 41  1  0  0  0  0
M  END
>  <MODEL>
7

>  <REMARK>
 VINA RESULT:      -8.6      1.928      3.244
  Name = 
  10 active torsions:
  status: ('A' for Active; 'I' for Inactive)
    1  A    between atoms: C_1  and  C_9
    2  A    between atoms: C_1  and  N_35
    3  A    between atoms: C_2  and  C_13
    4  A    between atoms: C_3  and  N_4
    5  A    between atoms: C_3  and  C_12
    6  A    between atoms: C_9  and  C_32
    7  A    between atoms: C_14  and  C_22
    8  A    between atoms: C_14  and  N_40
    9  A    between atoms: C_32  and  C_37
   10  A    between atoms: C_34  and  N_35
                            x       y       z     vdW  Elec       q    Type
                         _______ _______ _______ _____ _____    ______ ____

>  <TORSDO>
F 10

$$$$
=
 OpenBabel11052416233D

 43 48  0  0  1  0  0  0  0  0999 V2000
  190.7450  176.7580  146.6830 C   0  0  0  0  0  0  0  0  0  0  0  0
  189.0820  177.7910  141.9810 C   0  0  0  0  0  0  0  0  0  0  0  0
  186.4210  178.6860  142.2770 C   0  0  0  0  0  0  0  0  0  0  0  0
  190.5760  177.0820  144.2610 C   0  0  0  0  0  0  0  0  0  0  0  0
  189.4830  177.1350  146.8920 C   0  0  0  0  0  3  0  0  0  0  0  0
  191.5180  176.3930  147.7340 F   0  0  0  0  0  0  0  0  0  0  0  0
  189.2300  177.4900  144.4040 C   0  0  0  0  0  0  0  0  0  0  0  0
  191.3060  176.7340  145.3230 C   0  0  0  0  0  3  0  0  0  0  0  0
  188.5750  177.5550  145.7650 C   0  0  0  0  0  3  0  0  0  0  0  0
  187.1650  178.2840  143.3950 O   0  0  0  0  0  0  0  0  0  0  0  0
  188.4920  177.8510  143.2640 C   0  0  0  0  0  0  0  0  0  0  0  0
  190.4230  177.3960  141.8650 C   0  0  0  0  0  2  0  0  0  0  0  0
  188.3520  178.1420  140.8960 C   0  0  0  0  0  0  0  0  0  0  0  0
  186.9690  178.6320  141.0620 C   0  0  0  0  0  3  0  0  0  0  0  0
  191.1620  177.0430  142.9950 C   0  0  0  0  0  3  0  0  0  0  0  0
  185.0210  179.1680  142.4400 C   0  0  1  0  0  3  0  0  0  0  0  0
  184.0720  177.9950  142.5560 C   0  0  0  0  0  2  0  0  0  0  0  0
  184.9110  179.9520  143.5980 O   0  0  0  0  0  0  0  0  0  0  0  0
  183.1280  178.3990  143.6470 C   0  0  1  0  0  3  0  0  0  0  0  0
  183.5870  179.7900  144.0280 C   0  0  0  0  0  2  0  0  0  0  0  0
  181.7080  178.4410  143.1100 C   0  0  0  0  0  2  0  0  0  0  0  0
  181.5460  179.5680  142.1900 N   0  0  0  0  0  0  0  0  0  0  0  0
  179.6790  179.7670  140.7530 N   0  0  0  0  0  0  0  0  0  0  0  0
  180.5280  180.3760  142.7190 N   0  0  0  0  0  2  0  0  0  0  0  0
  181.0160  179.1850  140.8490 C   0  0  1  0  0  0  0  0  0  0  0  0
  181.9060  179.8170  139.7910 C   0  0  0  0  0  1  0  0  0  0  0  0
  179.4450  180.4380  141.8200 C   0  0  0  0  0  3  0  0  0  0  0  0
  180.9460  177.6630  140.5980 C   0  0  0  0  0  2  0  0  0  0  0  0
  179.0650  176.2050  140.7270 C   0  0  0  0  0  2  0  0  0  0  0  0
  179.9930  176.9090  138.5530 C   0  0  0  0  0  2  0  0  0  0  0  0
  180.7630  174.8790  139.6220 O   0  0  0  0  0  0  0  0  0  0  0  0
  180.4030  175.4370  138.3890 C   0  0  0  0  0  2  0  0  0  0  0  0
  179.5700  174.8010  140.3520 C   0  0  0  0  0  2  0  0  0  0  0  0
  179.6950  177.2830  139.9460 N   0  0  0  0  0  0  0  0  0  0  0  0
  188.8930  178.1110  139.5670 N   0  0  0  0  0  2  0  0  0  0  0  0
  188.7120  177.0500  138.6200 C   0  0  0  0  0  0  0  0  0  0  0  0
  187.4210  177.0240  137.6070 S   0  0  0  0  0  0  0  0  0  0  0  0
  189.8320  176.0960  138.3810 C   0  0  0  0  0  2  0  0  0  0  0  0
  190.9820  176.7770  137.6540 C   0  0  2  0  0  3  0  0  0  0  0  0
  190.7540  176.7650  136.2770 O   0  0  0  0  0  1  0  0  0  0  0  0
  192.3130  174.6860  137.9770 O   0  0  0  0  0  0  0  0  0  0  0  0
  193.2930  176.7430  138.2180 O   0  0  0  0  0  1  0  0  0  0  0  0
  192.2600  176.0740  137.9580 C   0  0  0  0  0  0  0  0  0  0  0  0
  1  5  1  0  0  0  0
  1  6  1  0  0  0  0
  2 11  1  0  0  0  0
  3 10  1  0  0  0  0
  4  7  1  0  0  0  0
  4  8  1  0  0  0  0
  7  9  1  0  0  0  0
  8  1  2  0  0  0  0
  9  5  2  0  0  0  0
 11 10  1  0  0  0  0
 11  7  2  0  0  0  0
 12  2  1  0  0  0  0
 12 15  1  0  0  0  0
 13 14  1  0  0  0  0
 13  2  2  0  0  0  0
 14  3  2  0  0  0  0
 15  4  2  0  0  0  0
 16  3  1  1  0  0  0
 16 17  1  0  0  0  0
 16 18  1  0  0  0  0
 17 19  1  0  0  0  0
 18 20  1  0  0  0  0
 19 21  1  6  0  0  0
 19 20  1  0  0  0  0
 22 24  1  0  0  0  0
 22 21  1  0  0  0  0
 23 25  1  0  0  0  0
 23 27  2  0  0  0  0
 25 26  1  6  0  0  0
 25 22  1  0  0  0  0
 27 24  1  0  0  0  0
 28 25  1  0  0  0  0
 30 34  1  0  0  0  0
 31 33  1  0  0  0  0
 32 30  1  0  0  0  0
 32 31  1  0  0  0  0
 33 29  1  0  0  0  0
 34 28  1  0  0  0  0
 34 29  1  0  0  0  0
 35 13  1  0  0  0  0
 36 35  1  0  0  0  0
 37 36  2  0  0  0  0
 38 36  1  0  0  0  0
 39 40  1  6  0  0  0
 39 43  1  0  0  0  0
 39 38  1  0  0  0  0
 43 41  2  0  0  0  0
 43 42  1  0  0  0  0
M  END
>  <MODEL>
8

>  <REMARK>
 VINA RESULT:      -8.6      1.920      2.847
  Name = 
  10 active torsions:
  status: ('A' for Active; 'I' for Inactive)
    1  A    between atoms: C_1  and  C_9
    2  A    between atoms: C_1  and  N_35
    3  A    between atoms: C_2  and  C_13
    4  A    between atoms: C_3  and  N_4
    5  A    between atoms: C_3  and  C_12
    6  A    between atoms: C_9  and  C_32
    7  A    between atoms: C_14  and  C_22
    8  A    between atoms: C_14  and  N_40
    9  A    between atoms: C_32  and  C_37
   10  A    between atoms: C_34  and  N_35
                            x       y       z     vdW  Elec       q    Type
                         _______ _______ _______ _____ _____    ______ ____

>  <TORSDO>
F 10

$$$$
=
 OpenBabel11052416233D

 43 48  0  0  1  0  0  0  0  0999 V2000
  190.7950  176.7490  146.6050 C   0  0  0  0  0  0  0  0  0  0  0  0
  189.6130  177.7210  141.7470 C   0  0  0  0  0  0  0  0  0  0  0  0
  186.9400  178.6280  141.7650 C   0  0  0  0  0  0  0  0  0  0  0  0
  190.8700  177.0400  144.1740 C   0  0  0  0  0  0  0  0  0  0  0  0
  189.5200  177.1330  146.6820 C   0  0  0  0  0  3  0  0  0  0  0  0
  191.4580  176.3970  147.7330 F   0  0  0  0  0  0  0  0  0  0  0  0
  189.5180  177.4540  144.1770 C   0  0  0  0  0  0  0  0  0  0  0  0
  191.4890  176.7040  145.3090 C   0  0  0  0  0  3  0  0  0  0  0  0
  188.7310  177.5390  145.4650 C   0  0  0  0  0  3  0  0  0  0  0  0
  187.5660  178.2390  142.9570 O   0  0  0  0  0  0  0  0  0  0  0  0
  188.8990  177.8010  142.9650 C   0  0  0  0  0  0  0  0  0  0  0  0
  190.9570  177.3210  141.7710 C   0  0  0  0  0  2  0  0  0  0  0  0
  188.9950  178.0580  140.5900 C   0  0  0  0  0  0  0  0  0  0  0  0
  187.6050  178.5550  140.6110 C   0  0  0  0  0  3  0  0  0  0  0  0
  191.5780  176.9810  142.9730 C   0  0  0  0  0  3  0  0  0  0  0  0
  185.5320  179.1160  141.7810 C   0  0  1  0  0  3  0  0  0  0  0  0
  184.7630  178.5410  140.6130 C   0  0  0  0  0  2  0  0  0  0  0  0
  184.8990  178.7270  142.9720 O   0  0  0  0  0  0  0  0  0  0  0  0
  183.4360  178.1670  141.2000 C   0  0  1  0  0  3  0  0  0  0  0  0
  183.5410  178.6070  142.6440 C   0  0  0  0  0  2  0  0  0  0  0  0
  182.3280  178.9310  140.4960 C   0  0  0  0  0  2  0  0  0  0  0  0
  182.7170  179.2370  139.1180 N   0  0  0  0  0  0  0  0  0  0  0  0
  181.1300  179.7260  137.4360 N   0  0  0  0  0  0  0  0  0  0  0  0
  182.5120  180.6140  138.9400 N   0  0  0  0  0  2  0  0  0  0  0  0
  181.8320  178.6220  138.0870 C   0  0  1  0  0  0  0  0  0  0  0  0
  182.7140  177.9270  137.0620 C   0  0  0  0  0  1  0  0  0  0  0  0
  181.5470  180.8310  137.9360 C   0  0  0  0  0  3  0  0  0  0  0  0
  180.8130  177.6040  138.6410 C   0  0  0  0  0  2  0  0  0  0  0  0
  180.0550  175.6840  137.4480 C   0  0  0  0  0  2  0  0  0  0  0  0
  181.4370  175.4670  139.4790 C   0  0  0  0  0  2  0  0  0  0  0  0
  179.0200  175.4690  139.6260 O   0  0  0  0  0  0  0  0  0  0  0  0
  180.1800  174.8580  140.1220 C   0  0  0  0  0  2  0  0  0  0  0  0
  178.9320  175.0580  138.2900 C   0  0  0  0  0  2  0  0  0  0  0  0
  181.1560  176.2370  138.2560 N   0  0  0  0  0  0  0  0  0  0  0  0
  189.6660  178.0080  139.3220 N   0  0  0  0  0  2  0  0  0  0  0  0
  189.6880  176.8790  138.4390 C   0  0  0  0  0  0  0  0  0  0  0  0
  191.0680  176.0300  138.1770 S   0  0  0  0  0  0  0  0  0  0  0  0
  188.3960  176.3200  137.9490 C   0  0  0  0  0  2  0  0  0  0  0  0
  188.0810  176.8230  136.5480 C   0  0  2  0  0  3  0  0  0  0  0  0
  188.8330  177.9650  136.2670 O   0  0  0  0  0  1  0  0  0  0  0  0
  185.7950  176.3490  135.6530 O   0  0  0  0  0  0  0  0  0  0  0  0
  186.1580  178.1350  137.0430 O   0  0  0  0  0  1  0  0  0  0  0  0
  186.6290  177.1380  136.4380 C   0  0  0  0  0  0  0  0  0  0  0  0
  1  5  1  0  0  0  0
  1  6  1  0  0  0  0
  2 12  1  0  0  0  0
  2 11  1  0  0  0  0
  3 10  1  0  0  0  0
  4  7  1  0  0  0  0
  4  8  1  0  0  0  0
  7  9  1  0  0  0  0
  8  1  2  0  0  0  0
  9  5  2  0  0  0  0
 10 11  1  0  0  0  0
 11  7  2  0  0  0  0
 12 15  1  0  0  0  0
 13 14  1  0  0  0  0
 13  2  2  0  0  0  0
 14  3  2  0  0  0  0
 15  4  2  0  0  0  0
 16  3  1  1  0  0  0
 16 18  1  0  0  0  0
 17 19  1  0  0  0  0
 17 16  1  0  0  0  0
 19 21  1  6  0  0  0
 19 20  1  0  0  0  0
 20 18  1  0  0  0  0
 22 21  1  0  0  0  0
 23 27  2  0  0  0  0
 23 25  1  0  0  0  0
 24 22  1  0  0  0  0
 25 26  1  6  0  0  0
 25 28  1  0  0  0  0
 25 22  1  0  0  0  0
 27 24  1  0  0  0  0
 29 34  1  0  0  0  0
 29 33  1  0  0  0  0
 30 32  1  0  0  0  0
 31 32  1  0  0  0  0
 33 31  1  0  0  0  0
 34 28  1  0  0  0  0
 34 30  1  0  0  0  0
 35 13  1  0  0  0  0
 36 35  1  0  0  0  0
 37 36  2  0  0  0  0
 38 36  1  0  0  0  0
 39 40  1  1  0  0  0
 39 38  1  0  0  0  0
 41 43  2  0  0  0  0
 43 39  1  0  0  0  0
 43 42  1  0  0  0  0
M  END
>  <MODEL>
9

>  <REMARK>
 VINA RESULT:      -8.6      2.593      3.845
  Name = 
  10 active torsions:
  status: ('A' for Active; 'I' for Inactive)
    1  A    between atoms: C_1  and  C_9
    2  A    between atoms: C_1  and  N_35
    3  A    between atoms: C_2  and  C_13
    4  A    between atoms: C_3  and  N_4
    5  A    between atoms: C_3  and  C_12
    6  A    between atoms: C_9  and  C_32
    7  A    between atoms: C_14  and  C_22
    8  A    between atoms: C_14  and  N_40
    9  A    between atoms: C_32  and  C_37
   10  A    between atoms: C_34  and  N_35
                            x       y       z     vdW  Elec       q    Type
                         _______ _______ _______ _____ _____    ______ ____

>  <TORSDO>
F 10

$$$$
