=
 OpenBabel11052413563D

 34 39  0  0  1  0  0  0  0  0999 V2000
  189.1550  177.3150  146.5600 C   0  0  0  0  0  0  0  0  0  0  0  0
  190.9630  176.6890  145.0490 C   0  0  0  0  0  0  0  0  0  0  0  0
  188.7940  177.3960  144.1430 C   0  0  0  0  0  0  0  0  0  0  0  0
  188.4360  177.5950  141.7560 C   0  0  0  0  0  0  0  0  0  0  0  0
  191.3120  176.6670  147.4480 C   0  0  0  0  0  3  0  0  0  0  0  0
  191.7880  176.4500  146.1520 C   0  0  0  0  0  3  0  0  0  0  0  0
  190.7840  177.1800  142.6020 C   0  0  0  0  0  2  0  0  0  0  0  0
  189.6400  177.1370  145.2440 C   0  0  0  0  0  0  0  0  0  0  0  0
  189.9970  177.0910  147.6520 C   0  0  0  0  0  3  0  0  0  0  0  0
  187.4370  177.7430  144.3620 C   0  0  0  0  0  0  0  0  0  0  0  0
  187.8310  177.6990  146.7680 C   0  0  0  0  0  3  0  0  0  0  0  0
  191.4410  176.3160  143.6780 C   0  0  0  0  0  2  0  0  0  0  0  0
  187.1310  177.8880  141.9930 N   0  0  0  0  0  0  0  0  0  0  0  0
  186.5950  177.9640  143.2420 C   0  0  0  0  0  0  0  0  0  0  0  0
  189.3020  177.3400  142.8310 C   0  0  0  0  0  0  0  0  0  0  0  0
  186.9810  177.9030  145.6810 C   0  0  0  0  0  3  0  0  0  0  0  0
  182.9450  178.6130  142.3650 C   0  0  0  0  0  0  0  0  0  0  0  0
  182.4400  179.0070  143.6050 C   0  0  0  0  0  3  0  0  0  0  0  0
  185.1490  178.2940  143.3520 C   0  0  0  0  0  0  0  0  0  0  0  0
  183.2820  179.0560  144.7180 C   0  0  0  0  0  3  0  0  0  0  0  0
  184.2930  178.2650  142.2390 C   0  0  0  0  0  3  0  0  0  0  0  0
  184.6290  178.7060  144.5900 C   0  0  0  0  0  3  0  0  0  0  0  0
  182.1320  178.5710  141.2840 F   0  0  0  0  0  0  0  0  0  0  0  0
  188.9290  177.5910  140.3480 C   0  0  0  0  0  2  0  0  0  0  0  0
  187.9370  178.3110  139.4490 C   0  0  0  0  0  2  0  0  0  0  0  0
  187.6760  177.4960  138.1970 C   0  0  0  0  0  2  0  0  0  0  0  0
  186.7230  178.2400  137.2750 C   0  0  0  0  0  2  0  0  0  0  0  0
  184.3770  179.1830  138.8530 C   0  0  0  0  0  1  0  0  0  0  0  0
  185.4150  177.4750  137.1440 C   0  0  2  0  0  3  0  0  0  0  0  0
  184.4140  177.8270  138.2330 C   0  0  0  0  0  0  0  0  0  0  0  0
  183.4140  175.6140  137.9480 C   0  0  0  0  0  3  0  0  0  0  0  0
  184.4570  175.1600  137.2470 C   0  0  0  0  0  3  0  0  0  0  0  0
  185.7170  175.9720  137.1440 C   0  0  0  0  0  2  0  0  0  0  0  0
  183.4500  176.9580  138.5540 C   0  0  0  0  0  3  0  0  0  0  0  0
  1 11  1  0  0  0  0
  1  9  2  0  0  0  0
  2  8  2  0  0  0  0
  2  6  1  0  0  0  0
  3 10  1  0  0  0  0
  3  8  1  0  0  0  0
  4 13  2  0  0  0  0
  4 15  1  0  0  0  0
  5  9  1  0  0  0  0
  6  5  2  0  0  0  0
  7 15  1  0  0  0  0
  7 12  1  0  0  0  0
  8  1  1  0  0  0  0
 10 16  1  0  0  0  0
 12  2  1  0  0  0  0
 13 14  1  0  0  0  0
 14 19  1  0  0  0  0
 14 10  2  0  0  0  0
 15  3  2  0  0  0  0
 16 11  2  0  0  0  0
 17 18  1  0  0  0  0
 18 20  2  0  0  0  0
 19 22  2  0  0  0  0
 21 17  2  0  0  0  0
 21 19  1  0  0  0  0
 22 20  1  0  0  0  0
 23 17  1  0  0  0  0
 24  4  1  0  0  0  0
 25 24  1  0  0  0  0
 26 25  1  0  0  0  0
 27 26  1  0  0  0  0
 29 27  1  1  0  0  0
 29 30  1  0  0  0  0
 30 34  2  0  0  0  0
 30 28  1  0  0  0  0
 31 34  1  0  0  0  0
 32 31  2  0  0  0  0
 33 29  1  0  0  0  0
 33 32  1  0  0  0  0
M  END
>  <MODEL>
1

>  <REMARK>
 VINA RESULT:     -11.2      0.000      0.000
  Name = 
  6 active torsions:
  status: ('A' for Active; 'I' for Inactive)
    1  A    between atoms: C_3  and  C_13
    2  A    between atoms: C_3  and  C_17
    3  A    between atoms: C_5  and  C_18
    4  A    between atoms: C_12  and  C_28
    5  A    between atoms: C_17  and  C_29
    6  A    between atoms: C_18  and  C_29
                            x       y       z     vdW  Elec       q    Type
                         _______ _______ _______ _____ _____    ______ ____

>  <TORSDO>
F 6

$$$$
=
 OpenBabel11052413563D

 34 39  0  0  1  0  0  0  0  0999 V2000
  188.9920  177.1460  146.3000 C   0  0  0  0  0  0  0  0  0  0  0  0
  190.8980  176.8880  144.8010 C   0  0  0  0  0  0  0  0  0  0  0  0
  188.7260  177.6070  143.9130 C   0  0  0  0  0  0  0  0  0  0  0  0
  188.4520  178.1780  141.5760 C   0  0  0  0  0  0  0  0  0  0  0  0
  191.1500  176.4880  147.1790 C   0  0  0  0  0  3  0  0  0  0  0  0
  191.6920  176.5190  145.8910 C   0  0  0  0  0  3  0  0  0  0  0  0
  190.7870  177.7680  142.4620 C   0  0  0  0  0  2  0  0  0  0  0  0
  189.5410  177.2190  144.9990 C   0  0  0  0  0  0  0  0  0  0  0  0
  189.8020  176.7940  147.3820 C   0  0  0  0  0  3  0  0  0  0  0  0
  187.3410  177.8310  144.1160 C   0  0  0  0  0  0  0  0  0  0  0  0
  187.6390  177.4110  146.5000 C   0  0  0  0  0  3  0  0  0  0  0  0
  191.4550  176.7780  143.4140 C   0  0  0  0  0  2  0  0  0  0  0  0
  187.1220  178.3510  141.7910 N   0  0  0  0  0  0  0  0  0  0  0  0
  186.5320  178.1860  143.0060 C   0  0  0  0  0  0  0  0  0  0  0  0
  189.2890  177.8010  142.6380 C   0  0  0  0  0  0  0  0  0  0  0  0
  186.8220  177.7430  145.4190 C   0  0  0  0  0  3  0  0  0  0  0  0
  182.8580  178.5630  142.0740 C   0  0  0  0  0  0  0  0  0  0  0  0
  182.3050  178.9140  143.3080 C   0  0  0  0  0  3  0  0  0  0  0  0
  185.0630  178.4070  143.0950 C   0  0  0  0  0  0  0  0  0  0  0  0
  183.1240  179.0220  144.4330 C   0  0  0  0  0  3  0  0  0  0  0  0
  184.2290  178.3170  141.9690 C   0  0  0  0  0  3  0  0  0  0  0  0
  184.4950  178.7750  144.3250 C   0  0  0  0  0  3  0  0  0  0  0  0
  182.0660  178.4630  140.9810 F   0  0  0  0  0  0  0  0  0  0  0  0
  189.0010  178.4390  140.2130 C   0  0  0  0  0  2  0  0  0  0  0  0
  188.1510  177.7350  139.1680 C   0  0  0  0  0  2  0  0  0  0  0  0
  189.0210  176.8540  138.2920 C   0  0  0  0  0  2  0  0  0  0  0  0
  190.2160  176.3440  139.0800 C   0  0  0  0  0  2  0  0  0  0  0  0
  193.0660  177.0780  139.5560 C   0  0  0  0  0  1  0  0  0  0  0  0
  191.2690  175.7840  138.1350 C   0  0  2  0  0  3  0  0  0  0  0  0
  192.6100  176.4900  138.2620 C   0  0  0  0  0  0  0  0  0  0  0  0
  193.0880  175.8710  135.9450 C   0  0  0  0  0  3  0  0  0  0  0  0
  191.8170  175.5460  135.7000 C   0  0  0  0  0  3  0  0  0  0  0  0
  190.7400  175.8690  136.6990 C   0  0  0  0  0  2  0  0  0  0  0  0
  193.4700  176.4690  137.2390 C   0  0  0  0  0  3  0  0  0  0  0  0
  1 11  1  0  0  0  0
  1  9  2  0  0  0  0
  2  8  2  0  0  0  0
  2  6  1  0  0  0  0
  3 10  1  0  0  0  0
  3  8  1  0  0  0  0
  4 13  2  0  0  0  0
  4 15  1  0  0  0  0
  5  9  1  0  0  0  0
  6  5  2  0  0  0  0
  7 15  1  0  0  0  0
  7 12  1  0  0  0  0
  8  1  1  0  0  0  0
 10 16  1  0  0  0  0
 12  2  1  0  0  0  0
 13 14  1  0  0  0  0
 14 19  1  0  0  0  0
 14 10  2  0  0  0  0
 15  3  2  0  0  0  0
 16 11  2  0  0  0  0
 17 18  1  0  0  0  0
 18 20  2  0  0  0  0
 19 22  2  0  0  0  0
 21 17  2  0  0  0  0
 21 19  1  0  0  0  0
 22 20  1  0  0  0  0
 23 17  1  0  0  0  0
 24  4  1  0  0  0  0
 25 24  1  0  0  0  0
 26 27  1  0  0  0  0
 26 25  1  0  0  0  0
 29 30  1  0  0  0  0
 29 27  1  1  0  0  0
 30 28  1  0  0  0  0
 31 34  1  0  0  0  0
 32 31  2  0  0  0  0
 32 33  1  0  0  0  0
 33 29  1  0  0  0  0
 34 30  2  0  0  0  0
M  END
>  <MODEL>
2

>  <REMARK>
 VINA RESULT:     -11.1      2.230      3.818
  Name = 
  6 active torsions:
  status: ('A' for Active; 'I' for Inactive)
    1  A    between atoms: C_3  and  C_13
    2  A    between atoms: C_3  and  C_17
    3  A    between atoms: C_5  and  C_18
    4  A    between atoms: C_12  and  C_28
    5  A    between atoms: C_17  and  C_29
    6  A    between atoms: C_18  and  C_29
                            x       y       z     vdW  Elec       q    Type
                         _______ _______ _______ _____ _____    ______ ____

>  <TORSDO>
F 6

$$$$
=
 OpenBabel11052413563D

 34 39  0  0  1  0  0  0  0  0999 V2000
  188.9970  177.1390  146.2790 C   0  0  0  0  0  0  0  0  0  0  0  0
  190.8790  176.8680  144.7530 C   0  0  0  0  0  0  0  0  0  0  0  0
  188.6980  177.5960  143.8960 C   0  0  0  0  0  0  0  0  0  0  0  0
  188.3930  178.1630  141.5620 C   0  0  0  0  0  0  0  0  0  0  0  0
  191.1640  176.4720  147.1280 C   0  0  0  0  0  3  0  0  0  0  0  0
  191.6870  176.4970  145.8320 C   0  0  0  0  0  3  0  0  0  0  0  0
  190.7380  177.7430  142.4130 C   0  0  0  0  0  2  0  0  0  0  0  0
  189.5270  177.2060  144.9700 C   0  0  0  0  0  0  0  0  0  0  0  0
  189.8210  176.7860  147.3500 C   0  0  0  0  0  3  0  0  0  0  0  0
  187.3170  177.8280  144.1190 C   0  0  0  0  0  0  0  0  0  0  0  0
  187.6480  177.4110  146.4990 C   0  0  0  0  0  3  0  0  0  0  0  0
  191.4150  176.7520  143.3580 C   0  0  0  0  0  2  0  0  0  0  0  0
  187.0670  178.3430  141.7950 N   0  0  0  0  0  0  0  0  0  0  0  0
  186.4940  178.1830  143.0200 C   0  0  0  0  0  0  0  0  0  0  0  0
  189.2430  177.7830  142.6120 C   0  0  0  0  0  0  0  0  0  0  0  0
  186.8170  177.7450  145.4290 C   0  0  0  0  0  3  0  0  0  0  0  0
  182.8080  178.5760  142.1420 C   0  0  0  0  0  0  0  0  0  0  0  0
  182.2750  178.9350  143.3820 C   0  0  0  0  0  3  0  0  0  0  0  0
  185.0280  178.4120  143.1300 C   0  0  0  0  0  0  0  0  0  0  0  0
  183.1120  179.0420  144.4950 C   0  0  0  0  0  3  0  0  0  0  0  0
  184.1760  178.3230  142.0160 C   0  0  0  0  0  3  0  0  0  0  0  0
  184.4800  178.7870  144.3670 C   0  0  0  0  0  3  0  0  0  0  0  0
  181.9990  178.4770  141.0600 F   0  0  0  0  0  0  0  0  0  0  0  0
  188.9220  178.4180  140.1900 C   0  0  0  0  0  2  0  0  0  0  0  0
  189.0350  177.1090  139.4260 C   0  0  0  0  0  2  0  0  0  0  0  0
  189.2320  177.3800  137.9470 C   0  0  0  0  0  2  0  0  0  0  0  0
  188.4810  178.6370  137.5380 C   0  0  0  0  0  2  0  0  0  0  0  0
  185.6500  178.3140  138.4140 C   0  0  0  0  0  1  0  0  0  0  0  0
  187.4360  178.3060  136.4830 C   0  0  2  0  0  3  0  0  0  0  0  0
  186.1220  177.8320  137.0840 C   0  0  0  0  0  0  0  0  0  0  0  0
  185.6910  176.5970  135.0170 C   0  0  0  0  0  3  0  0  0  0  0  0
  186.9550  176.7160  134.6040 C   0  0  0  0  0  3  0  0  0  0  0  0
  188.0120  177.2530  135.5280 C   0  0  0  0  0  2  0  0  0  0  0  0
  185.2940  177.0760  136.3550 C   0  0  0  0  0  3  0  0  0  0  0  0
  1 11  1  0  0  0  0
  1  9  2  0  0  0  0
  2  8  2  0  0  0  0
  2  6  1  0  0  0  0
  3 10  1  0  0  0  0
  3  8  1  0  0  0  0
  4 13  2  0  0  0  0
  4 15  1  0  0  0  0
  5  9  1  0  0  0  0
  6  5  2  0  0  0  0
  7 15  1  0  0  0  0
  7 12  1  0  0  0  0
  8  1  1  0  0  0  0
 10 16  1  0  0  0  0
 12  2  1  0  0  0  0
 13 14  1  0  0  0  0
 14 19  1  0  0  0  0
 14 10  2  0  0  0  0
 15  3  2  0  0  0  0
 16 11  2  0  0  0  0
 17 18  1  0  0  0  0
 18 20  2  0  0  0  0
 19 22  2  0  0  0  0
 21 17  2  0  0  0  0
 21 19  1  0  0  0  0
 22 20  1  0  0  0  0
 23 17  1  0  0  0  0
 24  4  1  0  0  0  0
 25 24  1  0  0  0  0
 26 25  1  0  0  0  0
 27 26  1  0  0  0  0
 29 30  1  0  0  0  0
 29 27  1  1  0  0  0
 30 28  1  0  0  0  0
 31 34  1  0  0  0  0
 32 31  2  0  0  0  0
 32 33  1  0  0  0  0
 33 29  1  0  0  0  0
 34 30  2  0  0  0  0
M  END
>  <MODEL>
3

>  <REMARK>
 VINA RESULT:     -11.0      1.026      1.464
  Name = 
  6 active torsions:
  status: ('A' for Active; 'I' for Inactive)
    1  A    between atoms: C_3  and  C_13
    2  A    between atoms: C_3  and  C_17
    3  A    between atoms: C_5  and  C_18
    4  A    between atoms: C_12  and  C_28
    5  A    between atoms: C_17  and  C_29
    6  A    between atoms: C_18  and  C_29
                            x       y       z     vdW  Elec       q    Type
                         _______ _______ _______ _____ _____    ______ ____

>  <TORSDO>
F 6

$$$$
=
 OpenBabel11052413563D

 34 39  0  0  1  0  0  0  0  0999 V2000
  190.9830  176.7550  145.1000 C   0  0  0  0  0  0  0  0  0  0  0  0
  189.1100  177.2720  146.5720 C   0  0  0  0  0  0  0  0  0  0  0  0
  188.8230  177.3750  144.1360 C   0  0  0  0  0  0  0  0  0  0  0  0
  186.6710  177.8780  143.1470 C   0  0  0  0  0  0  0  0  0  0  0  0
  191.2460  176.6040  147.5010 C   0  0  0  0  0  3  0  0  0  0  0  0
  189.9220  177.0140  147.6790 C   0  0  0  0  0  3  0  0  0  0  0  0
  186.7960  177.4720  145.6410 C   0  0  0  0  0  2  0  0  0  0  0  0
  189.6310  177.1320  145.2690 C   0  0  0  0  0  0  0  0  0  0  0  0
  191.7780  176.4810  146.2150 C   0  0  0  0  0  3  0  0  0  0  0  0
  189.3940  177.3320  142.8400 C   0  0  0  0  0  0  0  0  0  0  0  0
  191.5270  176.6720  143.8190 C   0  0  0  0  0  3  0  0  0  0  0  0
  187.7410  177.8470  146.7810 C   0  0  0  0  0  2  0  0  0  0  0  0
  187.2510  177.8670  141.9190 N   0  0  0  0  0  0  0  0  0  0  0  0
  188.5740  177.6150  141.7180 C   0  0  0  0  0  0  0  0  0  0  0  0
  187.4470  177.6310  144.2890 C   0  0  0  0  0  0  0  0  0  0  0  0
  190.7430  176.9640  142.7030 C   0  0  0  0  0  3  0  0  0  0  0  0
  189.1390  178.6040  138.0830 C   0  0  0  0  0  0  0  0  0  0  0  0
  189.9890  177.5810  137.6580 C   0  0  0  0  0  3  0  0  0  0  0  0
  189.0740  177.6370  140.3170 C   0  0  0  0  0  0  0  0  0  0  0  0
  190.3770  176.5810  138.5510 C   0  0  0  0  0  3  0  0  0  0  0  0
  188.6800  178.6280  139.4030 C   0  0  0  0  0  3  0  0  0  0  0  0
  189.9180  176.6070  139.8710 C   0  0  0  0  0  3  0  0  0  0  0  0
  188.7570  179.5720  137.2160 F   0  0  0  0  0  0  0  0  0  0  0  0
  185.2000  178.1120  143.2460 C   0  0  0  0  0  2  0  0  0  0  0  0
  184.9260  179.5820  143.5190 C   0  0  0  0  0  2  0  0  0  0  0  0
  183.5750  179.7470  144.1890 C   0  0  0  0  0  2  0  0  0  0  0  0
  182.6380  178.6280  143.7670 C   0  0  0  0  0  2  0  0  0  0  0  0
  179.7160  178.5060  144.3430 C   0  0  0  0  0  1  0  0  0  0  0  0
  181.6740  179.1240  142.6990 C   0  0  2  0  0  3  0  0  0  0  0  0
  180.2380  178.6990  142.9590 C   0  0  0  0  0  0  0  0  0  0  0  0
  179.8230  178.8430  140.5530 C   0  0  0  0  0  3  0  0  0  0  0  0
  181.1260  178.8880  140.2640 C   0  0  0  0  0  3  0  0  0  0  0  0
  182.1530  178.6280  141.3300 C   0  0  0  0  0  2  0  0  0  0  0  0
  179.3730  178.6280  141.9410 C   0  0  0  0  0  3  0  0  0  0  0  0
  1  8  1  0  0  0  0
  1  9  2  0  0  0  0
  2 12  1  0  0  0  0
  2  6  1  0  0  0  0
  3 15  1  0  0  0  0
  3  8  1  0  0  0  0
  4 24  1  0  0  0  0
  4 15  2  0  0  0  0
  5  6  2  0  0  0  0
  7 12  1  0  0  0  0
  8  2  2  0  0  0  0
  9  5  1  0  0  0  0
 10  3  2  0  0  0  0
 11  1  1  0  0  0  0
 13  4  1  0  0  0  0
 14 13  2  0  0  0  0
 14 10  1  0  0  0  0
 15  7  1  0  0  0  0
 16 10  1  0  0  0  0
 16 11  2  0  0  0  0
 17 21  1  0  0  0  0
 18 17  2  0  0  0  0
 18 20  1  0  0  0  0
 19 14  1  0  0  0  0
 20 22  2  0  0  0  0
 21 19  2  0  0  0  0
 22 19  1  0  0  0  0
 23 17  1  0  0  0  0
 24 25  1  0  0  0  0
 25 26  1  0  0  0  0
 27 26  1  0  0  0  0
 29 30  1  0  0  0  0
 29 27  1  1  0  0  0
 30 28  1  0  0  0  0
 31 34  1  0  0  0  0
 32 31  2  0  0  0  0
 32 33  1  0  0  0  0
 33 29  1  0  0  0  0
 34 30  2  0  0  0  0
M  END
>  <MODEL>
4

>  <REMARK>
 VINA RESULT:     -11.0      2.480      5.420
  Name = 
  6 active torsions:
  status: ('A' for Active; 'I' for Inactive)
    1  A    between atoms: C_3  and  C_13
    2  A    between atoms: C_3  and  C_17
    3  A    between atoms: C_5  and  C_18
    4  A    between atoms: C_12  and  C_28
    5  A    between atoms: C_17  and  C_29
    6  A    between atoms: C_18  and  C_29
                            x       y       z     vdW  Elec       q    Type
                         _______ _______ _______ _____ _____    ______ ____

>  <TORSDO>
F 6

$$$$
=
 OpenBabel11052413563D

 34 39  0  0  1  0  0  0  0  0999 V2000
  189.2450  177.2760  146.5470 C   0  0  0  0  0  0  0  0  0  0  0  0
  191.0960  176.6080  145.1060 C   0  0  0  0  0  0  0  0  0  0  0  0
  188.9680  177.3290  144.1180 C   0  0  0  0  0  0  0  0  0  0  0  0
  188.6940  177.4990  141.7180 C   0  0  0  0  0  0  0  0  0  0  0  0
  191.3630  176.6150  147.5160 C   0  0  0  0  0  3  0  0  0  0  0  0
  191.8800  176.3750  146.2400 C   0  0  0  0  0  3  0  0  0  0  0  0
  191.0070  177.0680  142.6490 C   0  0  0  0  0  2  0  0  0  0  0  0
  189.7730  177.0750  145.2500 C   0  0  0  0  0  0  0  0  0  0  0  0
  190.0470  177.0580  147.6690 C   0  0  0  0  0  3  0  0  0  0  0  0
  187.6090  177.6940  144.2850 C   0  0  0  0  0  0  0  0  0  0  0  0
  187.9200  177.6780  146.7040 C   0  0  0  0  0  3  0  0  0  0  0  0
  191.6160  176.2110  143.7570 C   0  0  0  0  0  2  0  0  0  0  0  0
  187.3850  177.8110  141.9060 N   0  0  0  0  0  0  0  0  0  0  0  0
  186.8080  177.9100  143.1350 C   0  0  0  0  0  0  0  0  0  0  0  0
  189.5190  177.2490  142.8250 C   0  0  0  0  0  0  0  0  0  0  0  0
  187.1100  177.8780  145.5860 C   0  0  0  0  0  3  0  0  0  0  0  0
  183.2070  178.6280  142.1190 C   0  0  0  0  0  0  0  0  0  0  0  0
  182.6550  179.0050  143.3450 C   0  0  0  0  0  3  0  0  0  0  0  0
  185.3630  178.2590  143.1910 C   0  0  0  0  0  0  0  0  0  0  0  0
  183.4510  179.0200  144.4930 C   0  0  0  0  0  3  0  0  0  0  0  0
  184.5540  178.2630  142.0430 C   0  0  0  0  0  3  0  0  0  0  0  0
  184.7970  178.6540  144.4140 C   0  0  0  0  0  3  0  0  0  0  0  0
  182.4390  178.6180  141.0040 F   0  0  0  0  0  0  0  0  0  0  0  0
  189.2340  177.4710  140.3270 C   0  0  0  0  0  2  0  0  0  0  0  0
  188.3080  178.2340  139.3950 C   0  0  0  0  0  2  0  0  0  0  0  0
  189.0500  178.6440  138.1370 C   0  0  0  0  0  2  0  0  0  0  0  0
  188.4330  177.9740  136.9200 C   0  0  0  0  0  2  0  0  0  0  0  0
  187.1370  175.3020  137.1830 C   0  0  0  0  0  1  0  0  0  0  0  0
  189.2390  176.7440  136.5310 C   0  0  2  0  0  3  0  0  0  0  0  0
  188.6140  175.4490  137.0260 C   0  0  0  0  0  0  0  0  0  0  0  0
  190.8420  174.4400  137.0190 C   0  0  0  0  0  3  0  0  0  0  0  0
  191.4500  175.6240  136.9130 C   0  0  0  0  0  3  0  0  0  0  0  0
  190.6680  176.9000  137.0630 C   0  0  0  0  0  2  0  0  0  0  0  0
  189.3790  174.3650  137.1940 C   0  0  0  0  0  3  0  0  0  0  0  0
  1 11  1  0  0  0  0
  1  9  2  0  0  0  0
  2  8  2  0  0  0  0
  2  6  1  0  0  0  0
  3 10  1  0  0  0  0
  3  8  1  0  0  0  0
  4 13  2  0  0  0  0
  4 15  1  0  0  0  0
  5  9  1  0  0  0  0
  6  5  2  0  0  0  0
  7 15  1  0  0  0  0
  7 12  1  0  0  0  0
  8  1  1  0  0  0  0
 10 16  1  0  0  0  0
 12  2  1  0  0  0  0
 13 14  1  0  0  0  0
 14 19  1  0  0  0  0
 14 10  2  0  0  0  0
 15  3  2  0  0  0  0
 16 11  2  0  0  0  0
 17 18  1  0  0  0  0
 18 20  2  0  0  0  0
 19 22  2  0  0  0  0
 21 17  2  0  0  0  0
 21 19  1  0  0  0  0
 22 20  1  0  0  0  0
 23 17  1  0  0  0  0
 24  4  1  0  0  0  0
 25 24  1  0  0  0  0
 26 25  1  0  0  0  0
 27 26  1  0  0  0  0
 29 27  1  1  0  0  0
 29 30  1  0  0  0  0
 29 33  1  0  0  0  0
 30 28  1  0  0  0  0
 30 34  2  0  0  0  0
 31 34  1  0  0  0  0
 32 31  2  0  0  0  0
 32 33  1  0  0  0  0
M  END
>  <MODEL>
5

>  <REMARK>
 VINA RESULT:     -10.9      1.593      2.708
  Name = 
  6 active torsions:
  status: ('A' for Active; 'I' for Inactive)
    1  A    between atoms: C_3  and  C_13
    2  A    between atoms: C_3  and  C_17
    3  A    between atoms: C_5  and  C_18
    4  A    between atoms: C_12  and  C_28
    5  A    between atoms: C_17  and  C_29
    6  A    between atoms: C_18  and  C_29
                            x       y       z     vdW  Elec       q    Type
                         _______ _______ _______ _____ _____    ______ ____

>  <TORSDO>
F 6

$$$$
=
 OpenBabel11052413563D

 34 39  0  0  1  0  0  0  0  0999 V2000
  187.0650  178.2440  147.1020 C   0  0  0  0  0  0  0  0  0  0  0  0
  189.2770  177.5090  146.3870 C   0  0  0  0  0  0  0  0  0  0  0  0
  187.5160  177.9010  144.7230 C   0  0  0  0  0  0  0  0  0  0  0  0
  187.9580  177.6780  142.3530 C   0  0  0  0  0  0  0  0  0  0  0  0
  188.8200  177.9070  148.7340 C   0  0  0  0  0  3  0  0  0  0  0  0
  189.6980  177.5150  147.7200 C   0  0  0  0  0  3  0  0  0  0  0  0
  189.9040  177.5760  143.9660 C   0  0  0  0  0  2  0  0  0  0  0  0
  187.9570  177.8870  146.0650 C   0  0  0  0  0  0  0  0  0  0  0  0
  187.5050  178.2640  148.4270 C   0  0  0  0  0  3  0  0  0  0  0  0
  186.1580  178.1810  144.4300 C   0  0  0  0  0  0  0  0  0  0  0  0
  185.7420  178.5620  146.8030 C   0  0  0  0  0  3  0  0  0  0  0  0
  190.1840  176.9500  145.3310 C   0  0  0  0  0  2  0  0  0  0  0  0
  186.6430  177.9130  142.1030 N   0  0  0  0  0  0  0  0  0  0  0  0
  185.7260  178.1540  143.0790 C   0  0  0  0  0  0  0  0  0  0  0  0
  188.4260  177.6660  143.6750 C   0  0  0  0  0  0  0  0  0  0  0  0
  185.2920  178.5230  145.4820 C   0  0  0  0  0  3  0  0  0  0  0  0
  181.9920  178.9030  143.1670 C   0  0  0  0  0  0  0  0  0  0  0  0
  181.6600  178.7570  141.8190 C   0  0  0  0  0  3  0  0  0  0  0  0
  184.3190  178.3940  142.6600 C   0  0  0  0  0  0  0  0  0  0  0  0
  182.6470  178.4220  140.8900 C   0  0  0  0  0  3  0  0  0  0  0  0
  183.3130  178.7160  143.5850 C   0  0  0  0  0  3  0  0  0  0  0  0
  183.9670  178.2370  141.3090 C   0  0  0  0  0  3  0  0  0  0  0  0
  181.0350  179.2230  144.0700 F   0  0  0  0  0  0  0  0  0  0  0  0
  188.8850  177.4780  141.2010 C   0  0  0  0  0  2  0  0  0  0  0  0
  188.5510  178.4590  140.0890 C   0  0  0  0  0  2  0  0  0  0  0  0
  189.4000  178.1740  138.8650 C   0  0  0  0  0  2  0  0  0  0  0  0
  188.5300  178.1330  137.6200 C   0  0  0  0  0  2  0  0  0  0  0  0
  188.4120  175.2670  136.8080 C   0  0  0  0  0  1  0  0  0  0  0  0
  187.2500  177.3600  137.8990 C   0  0  2  0  0  3  0  0  0  0  0  0
  187.1820  176.0410  137.1450 C   0  0  0  0  0  0  0  0  0  0  0  0
  184.7420  176.1820  137.2360 C   0  0  0  0  0  3  0  0  0  0  0  0
  184.7640  177.4700  137.5890 C   0  0  0  0  0  3  0  0  0  0  0  0
  186.0490  178.2490  137.5550 C   0  0  0  0  0  2  0  0  0  0  0  0
  185.9940  175.4810  136.8940 C   0  0  0  0  0  3  0  0  0  0  0  0
  1  9  2  0  0  0  0
  2  6  1  0  0  0  0
  3  8  1  0  0  0  0
  4 15  1  0  0  0  0
  6  5  2  0  0  0  0
  7 12  1  0  0  0  0
  8  2  2  0  0  0  0
  8  1  1  0  0  0  0
  9  5  1  0  0  0  0
 10  3  1  0  0  0  0
 10 16  1  0  0  0  0
 11  1  1  0  0  0  0
 12  2  1  0  0  0  0
 13  4  2  0  0  0  0
 13 14  1  0  0  0  0
 14 10  2  0  0  0  0
 15  7  1  0  0  0  0
 15  3  2  0  0  0  0
 16 11  2  0  0  0  0
 17 21  1  0  0  0  0
 17 23  1  0  0  0  0
 18 17  2  0  0  0  0
 19 14  1  0  0  0  0
 19 21  2  0  0  0  0
 20 22  2  0  0  0  0
 20 18  1  0  0  0  0
 22 19  1  0  0  0  0
 24  4  1  0  0  0  0
 25 24  1  0  0  0  0
 26 25  1  0  0  0  0
 27 26  1  0  0  0  0
 28 30  1  0  0  0  0
 29 27  1  6  0  0  0
 30 29  1  0  0  0  0
 31 32  2  0  0  0  0
 33 32  1  0  0  0  0
 33 29  1  0  0  0  0
 34 30  2  0  0  0  0
 34 31  1  0  0  0  0
M  END
>  <MODEL>
6

>  <REMARK>
 VINA RESULT:     -10.8      1.234      2.396
  Name = 
  6 active torsions:
  status: ('A' for Active; 'I' for Inactive)
    1  A    between atoms: C_3  and  C_13
    2  A    between atoms: C_3  and  C_17
    3  A    between atoms: C_5  and  C_18
    4  A    between atoms: C_12  and  C_28
    5  A    between atoms: C_17  and  C_29
    6  A    between atoms: C_18  and  C_29
                            x       y       z     vdW  Elec       q    Type
                         _______ _______ _______ _____ _____    ______ ____

>  <TORSDO>
F 6

$$$$
=
 OpenBabel11052413563D

 34 39  0  0  1  0  0  0  0  0999 V2000
  190.8440  176.7720  145.0220 C   0  0  0  0  0  0  0  0  0  0  0  0
  189.0960  177.2950  146.6400 C   0  0  0  0  0  0  0  0  0  0  0  0
  188.6280  177.4460  144.2360 C   0  0  0  0  0  0  0  0  0  0  0  0
  186.4180  178.0030  143.4200 C   0  0  0  0  0  0  0  0  0  0  0  0
  191.2840  176.5740  147.3940 C   0  0  0  0  0  3  0  0  0  0  0  0
  189.9850  177.0030  147.6790 C   0  0  0  0  0  3  0  0  0  0  0  0
  186.7230  177.5510  145.8910 C   0  0  0  0  0  2  0  0  0  0  0  0
  189.5150  177.1690  145.3000 C   0  0  0  0  0  0  0  0  0  0  0  0
  191.7150  176.4650  146.0700 C   0  0  0  0  0  3  0  0  0  0  0  0
  189.0990  177.4160  142.8990 C   0  0  0  0  0  0  0  0  0  0  0  0
  191.2880  176.7010  143.7030 C   0  0  0  0  0  3  0  0  0  0  0  0
  187.7580  177.8900  146.9620 C   0  0  0  0  0  2  0  0  0  0  0  0
  186.9040  178.0040  142.1520 N   0  0  0  0  0  0  0  0  0  0  0  0
  188.2030  177.7330  141.8470 C   0  0  0  0  0  0  0  0  0  0  0  0
  187.2730  177.7230  144.4970 C   0  0  0  0  0  0  0  0  0  0  0  0
  190.4270  177.0270  142.6550 C   0  0  0  0  0  3  0  0  0  0  0  0
  188.0960  178.1930  138.0670 C   0  0  0  0  0  0  0  0  0  0  0  0
  189.3690  177.7440  137.7080 C   0  0  0  0  0  3  0  0  0  0  0  0
  188.5960  177.7710  140.4130 C   0  0  0  0  0  0  0  0  0  0  0  0
  190.2540  177.3000  138.6920 C   0  0  0  0  0  3  0  0  0  0  0  0
  187.7110  178.2000  139.4110 C   0  0  0  0  0  3  0  0  0  0  0  0
  189.8670  177.3090  140.0350 C   0  0  0  0  0  3  0  0  0  0  0  0
  187.2340  178.6190  137.1140 F   0  0  0  0  0  0  0  0  0  0  0  0
  184.9640  178.2610  143.6340 C   0  0  0  0  0  2  0  0  0  0  0  0
  184.3470  178.8350  142.3690 C   0  0  0  0  0  2  0  0  0  0  0  0
  182.8470  178.6110  142.3680 C   0  0  0  0  0  2  0  0  0  0  0  0
  182.3270  178.5380  140.9420 C   0  0  0  0  0  2  0  0  0  0  0  0
  184.2100  179.6430  138.9120 C   0  0  0  0  0  1  0  0  0  0  0  0
  183.1620  177.5600  140.1280 C   0  0  2  0  0  3  0  0  0  0  0  0
  183.8100  178.2060  138.9140 C   0  0  0  0  0  0  0  0  0  0  0  0
  183.8260  176.0140  137.8290 C   0  0  0  0  0  3  0  0  0  0  0  0
  182.9740  175.4950  138.7170 C   0  0  0  0  0  3  0  0  0  0  0  0
  182.2760  176.3790  139.7120 C   0  0  0  0  0  2  0  0  0  0  0  0
  184.1630  177.4500  137.8690 C   0  0  0  0  0  3  0  0  0  0  0  0
  1  8  1  0  0  0  0
  1  9  2  0  0  0  0
  2 12  1  0  0  0  0
  2  6  1  0  0  0  0
  3 15  1  0  0  0  0
  3  8  1  0  0  0  0
  4 24  1  0  0  0  0
  4 15  2  0  0  0  0
  5  6  2  0  0  0  0
  7 12  1  0  0  0  0
  8  2  2  0  0  0  0
  9  5  1  0  0  0  0
 10  3  2  0  0  0  0
 11  1  1  0  0  0  0
 13  4  1  0  0  0  0
 14 13  2  0  0  0  0
 14 10  1  0  0  0  0
 15  7  1  0  0  0  0
 16 10  1  0  0  0  0
 16 11  2  0  0  0  0
 17 21  1  0  0  0  0
 18 17  2  0  0  0  0
 18 20  1  0  0  0  0
 19 14  1  0  0  0  0
 20 22  2  0  0  0  0
 21 19  2  0  0  0  0
 22 19  1  0  0  0  0
 23 17  1  0  0  0  0
 25 24  1  0  0  0  0
 26 25  1  0  0  0  0
 27 26  1  0  0  0  0
 28 30  1  0  0  0  0
 29 27  1  6  0  0  0
 30 29  1  0  0  0  0
 31 34  1  0  0  0  0
 31 32  2  0  0  0  0
 32 33  1  0  0  0  0
 33 29  1  0  0  0  0
 34 30  2  0  0  0  0
M  END
>  <MODEL>
7

>  <REMARK>
 VINA RESULT:     -10.7      1.392      4.408
  Name = 
  6 active torsions:
  status: ('A' for Active; 'I' for Inactive)
    1  A    between atoms: C_3  and  C_13
    2  A    between atoms: C_3  and  C_17
    3  A    between atoms: C_5  and  C_18
    4  A    between atoms: C_12  and  C_28
    5  A    between atoms: C_17  and  C_29
    6  A    between atoms: C_18  and  C_29
                            x       y       z     vdW  Elec       q    Type
                         _______ _______ _______ _____ _____    ______ ____

>  <TORSDO>
F 6

$$$$
=
 OpenBabel11052413563D

 34 39  0  0  1  0  0  0  0  0999 V2000
  189.2280  177.3810  146.0550 C   0  0  0  0  0  0  0  0  0  0  0  0
  187.0550  178.0940  146.9000 C   0  0  0  0  0  0  0  0  0  0  0  0
  187.4450  177.9500  144.4810 C   0  0  0  0  0  0  0  0  0  0  0  0
  185.6710  178.3980  142.8950 C   0  0  0  0  0  0  0  0  0  0  0  0
  188.8220  177.4750  148.4400 C   0  0  0  0  0  3  0  0  0  0  0  0
  187.5220  177.9330  148.2070 C   0  0  0  0  0  3  0  0  0  0  0  0
  185.0940  178.2520  145.3540 C   0  0  0  0  0  2  0  0  0  0  0  0
  187.9020  177.8060  145.8100 C   0  0  0  0  0  0  0  0  0  0  0  0
  189.6750  177.2060  147.3670 C   0  0  0  0  0  3  0  0  0  0  0  0
  188.3430  177.7580  143.4020 C   0  0  0  0  0  0  0  0  0  0  0  0
  190.0940  177.1520  144.9870 C   0  0  0  0  0  3  0  0  0  0  0  0
  185.7120  178.7210  146.6700 C   0  0  0  0  0  2  0  0  0  0  0  0
  186.5610  178.2450  141.8810 N   0  0  0  0  0  0  0  0  0  0  0  0
  187.8740  177.9420  142.0760 C   0  0  0  0  0  0  0  0  0  0  0  0
  186.0940  178.2540  144.2250 C   0  0  0  0  0  0  0  0  0  0  0  0
  189.6580  177.3450  143.6760 C   0  0  0  0  0  3  0  0  0  0  0  0
  189.3740  178.4540  138.6110 C   0  0  0  0  0  0  0  0  0  0  0  0
  190.3430  177.4480  138.5900 C   0  0  0  0  0  3  0  0  0  0  0  0
  188.7360  177.8060  140.8710 C   0  0  0  0  0  0  0  0  0  0  0  0
  190.5070  176.6150  139.6980 C   0  0  0  0  0  3  0  0  0  0  0  0
  188.5720  178.6270  139.7430 C   0  0  0  0  0  3  0  0  0  0  0  0
  189.7050  176.7900  140.8290 C   0  0  0  0  0  3  0  0  0  0  0  0
  189.2090  179.2590  137.5360 F   0  0  0  0  0  0  0  0  0  0  0  0
  184.2430  178.6780  142.5630 C   0  0  0  0  0  2  0  0  0  0  0  0
  183.8580  177.9590  141.2800 C   0  0  0  0  0  2  0  0  0  0  0  0
  184.0370  178.8810  140.0890 C   0  0  0  0  0  2  0  0  0  0  0  0
  183.1190  178.4570  138.9550 C   0  0  0  0  0  2  0  0  0  0  0  0
  182.5640  175.6160  138.2450 C   0  0  0  0  0  1  0  0  0  0  0  0
  183.9280  177.8270  137.8310 C   0  0  2  0  0  3  0  0  0  0  0  0
  183.8050  176.3120  137.7940 C   0  0  0  0  0  0  0  0  0  0  0  0
  186.0010  176.2180  136.7230 C   0  0  0  0  0  3  0  0  0  0  0  0
  186.2820  177.4860  137.0380 C   0  0  0  0  0  3  0  0  0  0  0  0
  185.3930  178.2530  137.9760 C   0  0  0  0  0  2  0  0  0  0  0  0
  184.7660  175.5820  137.2190 C   0  0  0  0  0  3  0  0  0  0  0  0
  1  9  2  0  0  0  0
  2  6  1  0  0  0  0
  3  8  1  0  0  0  0
  4 15  2  0  0  0  0
  6  5  2  0  0  0  0
  7 12  1  0  0  0  0
  8  1  1  0  0  0  0
  8  2  2  0  0  0  0
  9  5  1  0  0  0  0
 10 16  1  0  0  0  0
 10  3  2  0  0  0  0
 11  1  1  0  0  0  0
 12  2  1  0  0  0  0
 13 14  2  0  0  0  0
 13  4  1  0  0  0  0
 14 10  1  0  0  0  0
 15  3  1  0  0  0  0
 15  7  1  0  0  0  0
 16 11  2  0  0  0  0
 17 21  1  0  0  0  0
 18 17  2  0  0  0  0
 18 20  1  0  0  0  0
 19 14  1  0  0  0  0
 20 22  2  0  0  0  0
 21 19  2  0  0  0  0
 22 19  1  0  0  0  0
 23 17  1  0  0  0  0
 24  4  1  0  0  0  0
 25 24  1  0  0  0  0
 26 25  1  0  0  0  0
 27 26  1  0  0  0  0
 29 33  1  0  0  0  0
 29 27  1  1  0  0  0
 30 29  1  0  0  0  0
 30 28  1  0  0  0  0
 31 32  2  0  0  0  0
 31 34  1  0  0  0  0
 32 33  1  0  0  0  0
 34 30  2  0  0  0  0
M  END
>  <MODEL>
8

>  <REMARK>
 VINA RESULT:     -10.6      1.790      4.572
  Name = 
  6 active torsions:
  status: ('A' for Active; 'I' for Inactive)
    1  A    between atoms: C_3  and  C_13
    2  A    between atoms: C_3  and  C_17
    3  A    between atoms: C_5  and  C_18
    4  A    between atoms: C_12  and  C_28
    5  A    between atoms: C_17  and  C_29
    6  A    between atoms: C_18  and  C_29
                            x       y       z     vdW  Elec       q    Type
                         _______ _______ _______ _____ _____    ______ ____

>  <TORSDO>
F 6

$$$$
=
 OpenBabel11052413563D

 34 39  0  0  1  0  0  0  0  0999 V2000
  187.1110  178.2530  147.2070 C   0  0  0  0  0  0  0  0  0  0  0  0
  189.2860  177.4720  146.4300 C   0  0  0  0  0  0  0  0  0  0  0  0
  187.4770  177.8710  144.8200 C   0  0  0  0  0  0  0  0  0  0  0  0
  187.8360  177.6090  142.4400 C   0  0  0  0  0  0  0  0  0  0  0  0
  188.9140  177.9080  148.7850 C   0  0  0  0  0  3  0  0  0  0  0  0
  189.7510  177.4880  147.7480 C   0  0  0  0  0  3  0  0  0  0  0  0
  189.8340  177.4970  143.9890 C   0  0  0  0  0  2  0  0  0  0  0  0
  187.9630  177.8680  146.1460 C   0  0  0  0  0  0  0  0  0  0  0  0
  187.5950  178.2830  148.5170 C   0  0  0  0  0  3  0  0  0  0  0  0
  186.1150  178.1690  144.5680 C   0  0  0  0  0  0  0  0  0  0  0  0
  185.7830  178.5880  146.9470 C   0  0  0  0  0  3  0  0  0  0  0  0
  190.1480  176.8850  145.3530 C   0  0  0  0  0  2  0  0  0  0  0  0
  186.5190  177.8620  142.2290 N   0  0  0  0  0  0  0  0  0  0  0  0
  185.6380  178.1320  143.2320 C   0  0  0  0  0  0  0  0  0  0  0  0
  188.3490  177.6080  143.7460 C   0  0  0  0  0  0  0  0  0  0  0  0
  185.2900  178.5390  145.6430 C   0  0  0  0  0  3  0  0  0  0  0  0
  182.4610  178.6320  141.1910 C   0  0  0  0  0  0  0  0  0  0  0  0
  181.5490  178.9630  142.1960 C   0  0  0  0  0  3  0  0  0  0  0  0
  184.2220  178.3890  142.8560 C   0  0  0  0  0  0  0  0  0  0  0  0
  181.9670  179.0180  143.5270 C   0  0  0  0  0  3  0  0  0  0  0  0
  183.7910  178.3530  141.5200 C   0  0  0  0  0  3  0  0  0  0  0  0
  183.2970  178.7370  143.8530 C   0  0  0  0  0  3  0  0  0  0  0  0
  182.0590  178.5840  139.8990 F   0  0  0  0  0  0  0  0  0  0  0  0
  188.7220  177.3790  141.2600 C   0  0  0  0  0  2  0  0  0  0  0  0
  188.5150  178.4800  140.2330 C   0  0  0  0  0  2  0  0  0  0  0  0
  189.3620  178.2160  139.0030 C   0  0  0  0  0  2  0  0  0  0  0  0
  189.6440  176.7280  138.8690 C   0  0  0  0  0  2  0  0  0  0  0  0
  189.5050  174.3010  137.1440 C   0  0  0  0  0  1  0  0  0  0  0  0
  190.7650  176.4940  137.8660 C   0  0  2  0  0  3  0  0  0  0  0  0
  190.7660  175.0820  137.3030 C   0  0  0  0  0  0  0  0  0  0  0  0
  193.1680  175.3080  136.9020 C   0  0  0  0  0  3  0  0  0  0  0  0
  193.2630  176.3900  137.6790 C   0  0  0  0  0  3  0  0  0  0  0  0
  192.1050  176.8170  138.5370 C   0  0  0  0  0  2  0  0  0  0  0  0
  191.8960  174.5680  136.8050 C   0  0  0  0  0  3  0  0  0  0  0  0
  1  9  2  0  0  0  0
  2  6  1  0  0  0  0
  3  8  1  0  0  0  0
  4 15  1  0  0  0  0
  6  5  2  0  0  0  0
  7 12  1  0  0  0  0
  8  2  2  0  0  0  0
  8  1  1  0  0  0  0
  9  5  1  0  0  0  0
 10  3  1  0  0  0  0
 10 16  1  0  0  0  0
 11  1  1  0  0  0  0
 12  2  1  0  0  0  0
 13  4  2  0  0  0  0
 13 14  1  0  0  0  0
 14 10  2  0  0  0  0
 15  7  1  0  0  0  0
 15  3  2  0  0  0  0
 16 11  2  0  0  0  0
 17 21  2  0  0  0  0
 17 18  1  0  0  0  0
 18 20  2  0  0  0  0
 19 14  1  0  0  0  0
 19 22  2  0  0  0  0
 20 22  1  0  0  0  0
 21 19  1  0  0  0  0
 23 17  1  0  0  0  0
 24  4  1  0  0  0  0
 25 24  1  0  0  0  0
 26 25  1  0  0  0  0
 27 26  1  0  0  0  0
 28 30  1  0  0  0  0
 29 33  1  0  0  0  0
 29 27  1  1  0  0  0
 30 29  1  0  0  0  0
 31 32  2  0  0  0  0
 32 33  1  0  0  0  0
 34 31  1  0  0  0  0
 34 30  2  0  0  0  0
M  END
>  <MODEL>
9

>  <REMARK>
 VINA RESULT:     -10.5      2.301      3.941
  Name = 
  6 active torsions:
  status: ('A' for Active; 'I' for Inactive)
    1  A    between atoms: C_3  and  C_13
    2  A    between atoms: C_3  and  C_17
    3  A    between atoms: C_5  and  C_18
    4  A    between atoms: C_12  and  C_28
    5  A    between atoms: C_17  and  C_29
    6  A    between atoms: C_18  and  C_29
                            x       y       z     vdW  Elec       q    Type
                         _______ _______ _______ _____ _____    ______ ____

>  <TORSDO>
F 6

$$$$
