=
 OpenBabel11052412373D

 30 33  0  0  1  0  0  0  0  0999 V2000
  188.5200  178.2290  140.1300 C   0  0  0  0  0  0  0  0  0  0  0  0
  187.4170  178.4360  142.4070 C   0  0  0  0  0  2  0  0  0  0  0  0
  183.9470  179.5850  140.5700 O   0  0  0  0  0  0  0  0  0  0  0  0
  186.2670  176.8840  138.3210 C   0  0  0  0  0  2  0  0  0  0  0  0
  188.6550  178.8630  138.8510 N   0  0  0  0  0  0  0  0  0  0  0  0
  188.9420  175.9200  137.0030 C   0  0  0  0  0  0  0  0  0  0  0  0
  189.4540  176.8970  137.8650 O   0  0  0  0  0  0  0  0  0  0  0  0
  189.2010  178.9890  136.5110 C   0  0  0  0  0  1  0  0  0  0  0  0
  183.5820  177.6750  137.6490 C   0  0  2  0  0  3  0  0  0  0  0  0
  183.7550  179.6720  139.1910 C   0  0  0  0  0  0  0  0  0  0  0  0
  189.1070  178.2510  137.8010 C   0  0  0  0  0  0  0  0  0  0  0  0
  186.5880  176.9600  136.8370 C   0  0  1  0  0  3  0  0  0  0  0  0
  186.1500  178.0360  143.1440 C   0  0  0  0  0  2  0  0  0  0  0  0
  184.0620  177.2710  136.3250 N   0  0  0  0  0  2  0  0  0  0  0  0
  189.6600  174.9240  136.7270 O   0  0  0  0  0  0  0  0  0  0  0  0
  189.4900  177.5800  140.6110 O   0  0  0  0  0  0  0  0  0  0  0  0
  184.7720  178.5740  141.1380 C   0  0  2  0  0  3  0  0  0  0  0  0
  185.0050  178.8780  142.6170 C   0  0  1  0  0  3  0  0  0  0  0  0
  187.6030  175.9680  136.4890 N   0  0  0  0  0  2  0  0  0  0  0  0
  187.2660  178.3470  140.9080 C   0  0  0  0  0  0  0  0  0  0  0  0
  185.8610  178.2710  138.8190 C   0  0  1  0  0  3  0  0  0  0  0  0
  182.9590  180.5260  138.7240 O   0  0  0  0  0  0  0  0  0  0  0  0
  184.4940  178.7530  138.2620 C   0  0  1  0  0  3  0  0  0  0  0  0
  185.5180  176.3130  134.8050 O   0  0  0  0  0  0  0  0  0  0  0  0
  183.8480  178.5970  143.3410 O   0  0  0  0  0  1  0  0  0  0  0  0
  186.0400  178.4160  140.3200 C   0  0  0  0  0  0  0  0  0  0  0  0
  185.3680  176.7950  135.9600 C   0  0  0  0  0  0  0  0  0  0  0  0
  183.2880  176.4650  138.5580 C   0  0  0  0  0  3  0  0  0  0  0  0
  183.0100  175.2110  137.7480 C   0  0  0  0  0  1  0  0  0  0  0  0
  182.0770  176.7320  139.4320 C   0  0  0  0  0  1  0  0  0  0  0  0
  1 16  2  0  0  0  0
  1 20  1  0  0  0  0
  2 13  1  0  0  0  0
  3 17  1  0  0  0  0
  5  1  1  0  0  0  0
  6  7  1  0  0  0  0
  8 11  1  0  0  0  0
  9 23  1  0  0  0  0
  9 28  1  1  0  0  0
 10  3  1  0  0  0  0
 11  7  1  0  0  0  0
 11  5  2  0  0  0  0
 12  4  1  1  0  0  0
 14  9  1  0  0  0  0
 15  6  2  0  0  0  0
 17 26  1  6  0  0  0
 17 18  1  0  0  0  0
 18 13  1  0  0  0  0
 18 25  1  1  0  0  0
 19 12  1  0  0  0  0
 19  6  1  0  0  0  0
 20  2  1  0  0  0  0
 21  4  1  1  0  0  0
 21 26  1  0  0  0  0
 22 10  2  0  0  0  0
 23 21  1  0  0  0  0
 23 10  1  1  0  0  0
 24 27  2  0  0  0  0
 26 20  2  0  0  0  0
 27 14  1  0  0  0  0
 27 12  1  0  0  0  0
 28 30  1  0  0  0  0
 29 28  1  0  0  0  0
M  END
>  <MODEL>
1

>  <REMARK>
 VINA RESULT:      -6.3      0.000      0.000
  Name = 
  1 active torsions:
  status: ('A' for Active; 'I' for Inactive)
    1  A    between atoms: C_7  and  C_10
                            x       y       z     vdW  Elec       q    Type
                         _______ _______ _______ _____ _____    ______ ____

>  <TORSDO>
F 1

$$$$
=
 OpenBabel11052412373D

 30 33  0  0  1  0  0  0  0  0999 V2000
  188.3950  177.6980  138.2780 C   0  0  0  0  0  0  0  0  0  0  0  0
  188.2940  178.3030  140.7420 C   0  0  0  0  0  2  0  0  0  0  0  0
  184.5410  179.8260  140.1660 O   0  0  0  0  0  0  0  0  0  0  0  0
  185.4770  176.5760  137.6580 C   0  0  0  0  0  2  0  0  0  0  0  0
  188.0950  178.1760  136.9600 N   0  0  0  0  0  0  0  0  0  0  0  0
  187.3010  175.0610  135.6060 C   0  0  0  0  0  0  0  0  0  0  0  0
  188.2160  176.0190  136.0590 O   0  0  0  0  0  0  0  0  0  0  0  0
  187.7020  177.9840  134.5940 C   0  0  0  0  0  1  0  0  0  0  0  0
  182.8520  177.7300  137.9140 C   0  0  2  0  0  3  0  0  0  0  0  0
  183.8400  179.8100  138.9600 C   0  0  0  0  0  0  0  0  0  0  0  0
  188.0310  177.3990  135.9230 C   0  0  0  0  0  0  0  0  0  0  0  0
  185.2040  176.4540  136.1670 C   0  0  1  0  0  3  0  0  0  0  0  0
  187.3740  178.1910  141.9470 C   0  0  0  0  0  2  0  0  0  0  0  0
  182.7320  177.1270  136.5840 N   0  0  0  0  0  2  0  0  0  0  0  0
  187.7350  173.9390  135.2400 O   0  0  0  0  0  0  0  0  0  0  0  0
  189.3930  176.9480  138.4590 O   0  0  0  0  0  0  0  0  0  0  0  0
  185.3990  178.7520  140.5360 C   0  0  2  0  0  3  0  0  0  0  0  0
  186.2210  179.1540  141.7590 C   0  0  1  0  0  3  0  0  0  0  0  0
  185.8820  175.2800  135.6230 N   0  0  0  0  0  2  0  0  0  0  0  0
  187.5630  178.0960  139.4370 C   0  0  0  0  0  0  0  0  0  0  0  0
  185.4590  178.0530  138.0540 C   0  0  1  0  0  3  0  0  0  0  0  0
  183.0290  180.7350  138.6970 O   0  0  0  0  0  0  0  0  0  0  0  0
  184.0500  178.6970  137.9750 C   0  0  1  0  0  3  0  0  0  0  0  0
  183.3620  175.8010  134.7980 O   0  0  0  0  0  0  0  0  0  0  0  0
  185.4110  179.1390  142.8930 O   0  0  0  0  0  1  0  0  0  0  0  0
  186.2220  178.3090  139.3410 C   0  0  0  0  0  0  0  0  0  0  0  0
  183.7290  176.4090  135.8390 C   0  0  0  0  0  0  0  0  0  0  0  0
  182.7970  176.6790  139.0400 C   0  0  0  0  0  3  0  0  0  0  0  0
  182.0750  175.4180  138.5940 C   0  0  0  0  0  1  0  0  0  0  0  0
  182.0670  177.2270  140.2510 C   0  0  0  0  0  1  0  0  0  0  0  0
  1 16  2  0  0  0  0
  1 20  1  0  0  0  0
  2 13  1  0  0  0  0
  3 17  1  0  0  0  0
  5  1  1  0  0  0  0
  6 19  1  0  0  0  0
  6  7  1  0  0  0  0
  8 11  1  0  0  0  0
  9 23  1  0  0  0  0
  9 28  1  1  0  0  0
 10  3  1  0  0  0  0
 11  7  1  0  0  0  0
 11  5  2  0  0  0  0
 12  4  1  1  0  0  0
 14  9  1  0  0  0  0
 15  6  2  0  0  0  0
 17 26  1  6  0  0  0
 17 18  1  0  0  0  0
 18 13  1  0  0  0  0
 18 25  1  1  0  0  0
 19 12  1  0  0  0  0
 20  2  1  0  0  0  0
 21  4  1  1  0  0  0
 21 26  1  0  0  0  0
 22 10  2  0  0  0  0
 23 21  1  0  0  0  0
 23 10  1  1  0  0  0
 24 27  2  0  0  0  0
 26 20  2  0  0  0  0
 27 12  1  0  0  0  0
 27 14  1  0  0  0  0
 28 30  1  0  0  0  0
 29 28  1  0  0  0  0
M  END
>  <MODEL>
2

>  <REMARK>
 VINA RESULT:      -6.1      1.423      1.655
  Name = 
  1 active torsions:
  status: ('A' for Active; 'I' for Inactive)
    1  A    between atoms: C_7  and  C_10
                            x       y       z     vdW  Elec       q    Type
                         _______ _______ _______ _____ _____    ______ ____

>  <TORSDO>
F 1

$$$$
=
 OpenBabel11052412373D

 30 33  0  0  1  0  0  0  0  0999 V2000
  186.9750  178.4100  138.5070 C   0  0  0  0  0  0  0  0  0  0  0  0
  184.9100  178.9920  139.8640 C   0  0  0  0  0  2  0  0  0  0  0  0
  182.5690  177.5500  136.8340 O   0  0  0  0  0  0  0  0  0  0  0  0
  186.2670  175.5740  137.2350 C   0  0  0  0  0  2  0  0  0  0  0  0
  187.5400  178.4510  137.1890 N   0  0  0  0  0  0  0  0  0  0  0  0
  189.3910  175.5100  137.4830 C   0  0  0  0  0  0  0  0  0  0  0  0
  189.1710  176.8680  137.7450 O   0  0  0  0  0  0  0  0  0  0  0  0
  189.0820  177.8510  135.4430 C   0  0  0  0  0  1  0  0  0  0  0  0
  184.1240  174.6860  135.5300 C   0  0  2  0  0  3  0  0  0  0  0  0
  183.0420  176.9680  135.6570 C   0  0  0  0  0  0  0  0  0  0  0  0
  188.5730  177.7500  136.8390 C   0  0  0  0  0  0  0  0  0  0  0  0
  187.2250  175.1780  136.1230 C   0  0  1  0  0  3  0  0  0  0  0  0
  183.5890  178.3920  140.3160 C   0  0  0  0  0  2  0  0  0  0  0  0
  185.2590  174.0510  134.8560 N   0  0  0  0  0  2  0  0  0  0  0  0
  190.3750  174.9440  138.0250 O   0  0  0  0  0  0  0  0  0  0  0  0
  187.7260  178.5410  139.5120 O   0  0  0  0  0  0  0  0  0  0  0  0
  183.2460  177.3640  138.0720 C   0  0  2  0  0  3  0  0  0  0  0  0
  182.6650  178.3130  139.1180 C   0  0  1  0  0  3  0  0  0  0  0  0
  188.4930  174.7220  136.6880 N   0  0  0  0  0  2  0  0  0  0  0  0
  185.5170  178.2410  138.7030 C   0  0  0  0  0  0  0  0  0  0  0  0
  185.3430  176.6840  136.7320 C   0  0  1  0  0  3  0  0  0  0  0  0
  182.3800  177.0850  134.5940 O   0  0  0  0  0  0  0  0  0  0  0  0
  184.3350  176.2070  135.6520 C   0  0  1  0  0  3  0  0  0  0  0  0
  187.4480  173.3480  134.6090 O   0  0  0  0  0  0  0  0  0  0  0  0
  181.4130  177.8530  139.5240 O   0  0  0  0  0  1  0  0  0  0  0  0
  184.7450  177.4910  137.8700 C   0  0  0  0  0  0  0  0  0  0  0  0
  186.6530  174.1280  135.1980 C   0  0  0  0  0  0  0  0  0  0  0  0
  183.7440  173.9670  136.8400 C   0  0  0  0  0  3  0  0  0  0  0  0
  184.2260  172.5260  136.8470 C   0  0  0  0  0  1  0  0  0  0  0  0
  182.2390  173.9540  137.0280 C   0  0  0  0  0  1  0  0  0  0  0  0
  1 20  1  0  0  0  0
  1 16  2  0  0  0  0
  2 13  1  0  0  0  0
  5  1  1  0  0  0  0
  6  7  1  0  0  0  0
  6 15  2  0  0  0  0
  8 11  1  0  0  0  0
  9 23  1  0  0  0  0
  9 28  1  1  0  0  0
 10  3  1  0  0  0  0
 11  5  2  0  0  0  0
 11  7  1  0  0  0  0
 12 19  1  0  0  0  0
 12  4  1  1  0  0  0
 14 27  1  0  0  0  0
 14  9  1  0  0  0  0
 17  3  1  6  0  0  0
 17 18  1  0  0  0  0
 18 25  1  1  0  0  0
 18 13  1  0  0  0  0
 19  6  1  0  0  0  0
 20  2  1  0  0  0  0
 21  4  1  1  0  0  0
 21 26  1  0  0  0  0
 22 10  2  0  0  0  0
 23 10  1  1  0  0  0
 23 21  1  0  0  0  0
 24 27  2  0  0  0  0
 26 17  1  0  0  0  0
 26 20  2  0  0  0  0
 27 12  1  0  0  0  0
 28 29  1  0  0  0  0
 28 30  1  0  0  0  0
M  END
>  <MODEL>
3

>  <REMARK>
 VINA RESULT:      -5.7      2.225      3.158
  Name = 
  1 active torsions:
  status: ('A' for Active; 'I' for Inactive)
    1  A    between atoms: C_7  and  C_10
                            x       y       z     vdW  Elec       q    Type
                         _______ _______ _______ _____ _____    ______ ____

>  <TORSDO>
F 1

$$$$
=
 OpenBabel11052412373D

 30 33  0  0  1  0  0  0  0  0999 V2000
  187.3290  178.2120  138.9500 C   0  0  0  0  0  0  0  0  0  0  0  0
  186.7310  178.6190  141.3830 C   0  0  0  0  0  2  0  0  0  0  0  0
  182.8910  179.4600  140.2520 O   0  0  0  0  0  0  0  0  0  0  0  0
  184.8140  176.6160  137.8140 C   0  0  0  0  0  2  0  0  0  0  0  0
  187.1510  178.7140  137.6190 N   0  0  0  0  0  0  0  0  0  0  0  0
  187.1920  175.6050  136.0390 C   0  0  0  0  0  0  0  0  0  0  0  0
  187.8230  176.6830  136.6710 O   0  0  0  0  0  0  0  0  0  0  0  0
  187.1740  178.6140  135.2150 C   0  0  0  0  0  1  0  0  0  0  0  0
  182.0090  177.2460  137.6750 C   0  0  2  0  0  3  0  0  0  0  0  0
  182.4030  179.3970  138.9460 C   0  0  0  0  0  0  0  0  0  0  0  0
  187.3990  178.0100  136.5580 C   0  0  0  0  0  0  0  0  0  0  0  0
  184.8040  176.5470  136.2950 C   0  0  1  0  0  3  0  0  0  0  0  0
  185.6750  178.2580  142.4150 C   0  0  0  0  0  2  0  0  0  0  0  0
  182.2150  176.7230  136.3220 N   0  0  0  0  0  2  0  0  0  0  0  0
  187.8860  174.6100  135.7080 O   0  0  0  0  0  0  0  0  0  0  0  0
  188.4120  177.6480  139.2660 O   0  0  0  0  0  0  0  0  0  0  0  0
  183.8720  178.5400  140.7190 C   0  0  2  0  0  3  0  0  0  0  0  0
  184.4010  179.0030  142.0750 C   0  0  1  0  0  3  0  0  0  0  0  0
  185.7730  175.5570  135.8290 N   0  0  0  0  0  2  0  0  0  0  0  0
  186.2660  178.3700  139.9690 C   0  0  0  0  0  0  0  0  0  0  0  0
  184.4510  178.0330  138.2560 C   0  0  1  0  0  3  0  0  0  0  0  0
  181.4800  180.1730  138.5870 O   0  0  0  0  0  0  0  0  0  0  0  0
  182.9730  178.4110  137.9690 C   0  0  1  0  0  3  0  0  0  0  0  0
  183.3590  175.6590  134.6180 O   0  0  0  0  0  0  0  0  0  0  0  0
  183.4430  178.7620  143.0580 O   0  0  0  0  0  1  0  0  0  0  0  0
  184.9410  178.3380  139.6610 C   0  0  0  0  0  0  0  0  0  0  0  0
  183.4350  176.2530  135.7270 C   0  0  0  0  0  0  0  0  0  0  0  0
  181.9830  176.1290  138.7370 C   0  0  0  0  0  3  0  0  0  0  0  0
  181.5760  174.7950  138.1360 C   0  0  0  0  0  1  0  0  0  0  0  0
  180.9970  176.4610  139.8410 C   0  0  0  0  0  1  0  0  0  0  0  0
  1 16  2  0  0  0  0
  1 20  1  0  0  0  0
  2 13  1  0  0  0  0
  3 17  1  0  0  0  0
  5  1  1  0  0  0  0
  6  7  1  0  0  0  0
  8 11  1  0  0  0  0
  9 23  1  0  0  0  0
  9 28  1  1  0  0  0
 10  3  1  0  0  0  0
 11  7  1  0  0  0  0
 11  5  2  0  0  0  0
 12  4  1  1  0  0  0
 14  9  1  0  0  0  0
 15  6  2  0  0  0  0
 17 26  1  6  0  0  0
 17 18  1  0  0  0  0
 18 13  1  0  0  0  0
 18 25  1  1  0  0  0
 19  6  1  0  0  0  0
 19 12  1  0  0  0  0
 20  2  1  0  0  0  0
 21  4  1  1  0  0  0
 21 26  1  0  0  0  0
 22 10  2  0  0  0  0
 23 21  1  0  0  0  0
 23 10  1  1  0  0  0
 24 27  2  0  0  0  0
 26 20  2  0  0  0  0
 27 12  1  0  0  0  0
 27 14  1  0  0  0  0
 28 30  1  0  0  0  0
 29 28  1  0  0  0  0
M  END
>  <MODEL>
4

>  <REMARK>
 VINA RESULT:      -5.6      1.494      1.654
  Name = 
  1 active torsions:
  status: ('A' for Active; 'I' for Inactive)
    1  A    between atoms: C_7  and  C_10
                            x       y       z     vdW  Elec       q    Type
                         _______ _______ _______ _____ _____    ______ ____

>  <TORSDO>
F 1

$$$$
=
 OpenBabel11052412373D

 30 33  0  0  1  0  0  0  0  0999 V2000
  182.5850  175.3680  136.9370 C   0  0  0  0  0  0  0  0  0  0  0  0
  185.0750  175.6170  136.5140 C   0  0  0  0  0  2  0  0  0  0  0  0
  184.9430  179.3410  138.2020 O   0  0  0  0  0  0  0  0  0  0  0  0
  182.1860  176.6140  139.8440 C   0  0  0  0  0  2  0  0  0  0  0  0
  181.3290  176.0550  136.8690 N   0  0  0  0  0  0  0  0  0  0  0  0
  179.8920  174.4870  139.6330 C   0  0  0  0  0  0  0  0  0  0  0  0
  180.3060  174.5080  138.2950 O   0  0  0  0  0  0  0  0  0  0  0  0
  179.0040  176.4330  137.3620 C   0  0  0  0  0  1  0  0  0  0  0  0
  182.7530  179.2130  140.9420 C   0  0  2  0  0  3  0  0  0  0  0  0
  183.8100  179.9340  138.7600 C   0  0  0  0  0  0  0  0  0  0  0  0
  180.2630  175.6460  137.4840 C   0  0  0  0  0  0  0  0  0  0  0  0
  180.7240  176.8680  140.1740 C   0  0  1  0  0  3  0  0  0  0  0  0
  186.3550  176.0370  137.2190 C   0  0  0  0  0  2  0  0  0  0  0  0
  181.4100  178.9990  141.4870 N   0  0  0  0  0  2  0  0  0  0  0  0
  179.4270  173.4180  140.1030 O   0  0  0  0  0  0  0  0  0  0  0  0
  182.6290  174.1250  136.7250 O   0  0  0  0  0  0  0  0  0  0  0  0
  185.1710  177.9400  138.3080 C   0  0  2  0  0  3  0  0  0  0  0  0
  186.3300  177.5420  137.3960 C   0  0  1  0  0  3  0  0  0  0  0  0
  180.0560  175.6120  140.5090 N   0  0  0  0  0  2  0  0  0  0  0  0
  183.8370  176.1020  137.2280 C   0  0  0  0  0  0  0  0  0  0  0  0
  182.6610  177.6520  138.8270 C   0  0  1  0  0  3  0  0  0  0  0  0
  183.6750  181.1840  138.7190 O   0  0  0  0  0  0  0  0  0  0  0  0
  182.7510  179.0890  139.4060 C   0  0  1  0  0  3  0  0  0  0  0  0
  179.5040  177.7960  142.0030 O   0  0  0  0  0  0  0  0  0  0  0  0
  187.5340  177.9650  137.9560 O   0  0  0  0  0  1  0  0  0  0  0  0
  183.8810  177.1820  138.0560 C   0  0  0  0  0  0  0  0  0  0  0  0
  180.5370  177.8770  141.2840 C   0  0  0  0  0  0  0  0  0  0  0  0
  183.8220  178.3730  141.6690 C   0  0  0  0  0  3  0  0  0  0  0  0
  183.5230  178.2540  143.1540 C   0  0  0  0  0  1  0  0  0  0  0  0
  185.1930  179.0040  141.5210 C   0  0  0  0  0  1  0  0  0  0  0  0
  1 20  1  0  0  0  0
  2 13  1  0  0  0  0
  2 20  1  0  0  0  0
  3 17  1  0  0  0  0
  3 10  1  0  0  0  0
  5  1  1  0  0  0  0
  5 11  2  0  0  0  0
  6 15  2  0  0  0  0
  6 19  1  0  0  0  0
  7  6  1  0  0  0  0
  8 11  1  0  0  0  0
  9 14  1  0  0  0  0
  9 28  1  1  0  0  0
 11  7  1  0  0  0  0
 12  4  1  1  0  0  0
 12 19  1  0  0  0  0
 12 27  1  0  0  0  0
 13 18  1  0  0  0  0
 16  1  2  0  0  0  0
 17 26  1  6  0  0  0
 18 25  1  1  0  0  0
 18 17  1  0  0  0  0
 20 26  2  0  0  0  0
 21 23  1  0  0  0  0
 21  4  1  1  0  0  0
 22 10  2  0  0  0  0
 23 10  1  1  0  0  0
 23  9  1  0  0  0  0
 26 21  1  0  0  0  0
 27 14  1  0  0  0  0
 27 24  2  0  0  0  0
 28 29  1  0  0  0  0
 30 28  1  0  0  0  0
M  END
>  <MODEL>
5

>  <REMARK>
 VINA RESULT:      -5.5      3.120      6.647
  Name = 
  1 active torsions:
  status: ('A' for Active; 'I' for Inactive)
    1  A    between atoms: C_7  and  C_10
                            x       y       z     vdW  Elec       q    Type
                         _______ _______ _______ _____ _____    ______ ____

>  <TORSDO>
F 1

$$$$
=
 OpenBabel11052412373D

 30 33  0  0  1  0  0  0  0  0999 V2000
  193.0100  176.7580  138.9300 C   0  0  0  0  0  0  0  0  0  0  0  0
  191.2570  177.8820  140.3830 C   0  0  0  0  0  2  0  0  0  0  0  0
  188.5850  177.6000  137.2970 O   0  0  0  0  0  0  0  0  0  0  0  0
  191.3870  174.4590  137.4330 C   0  0  0  0  0  2  0  0  0  0  0  0
  193.5630  176.7250  137.6080 N   0  0  0  0  0  0  0  0  0  0  0  0
  194.3020  173.3170  137.5980 C   0  0  0  0  0  0  0  0  0  0  0  0
  194.5540  174.6390  137.9830 O   0  0  0  0  0  0  0  0  0  0  0  0
  194.8210  175.7970  135.7790 C   0  0  0  0  0  1  0  0  0  0  0  0
  189.0820  174.5090  135.7110 C   0  0  2  0  0  3  0  0  0  0  0  0
  188.8400  177.0020  136.0620 C   0  0  0  0  0  0  0  0  0  0  0  0
  194.2980  175.7500  137.1720 C   0  0  0  0  0  0  0  0  0  0  0  0
  192.1610  173.8640  136.2680 C   0  0  1  0  0  3  0  0  0  0  0  0
  189.8070  177.7270  140.8130 C   0  0  0  0  0  2  0  0  0  0  0  0
  189.9370  173.5900  134.9560 N   0  0  0  0  0  2  0  0  0  0  0  0
  195.0310  172.4040  138.0640 O   0  0  0  0  0  0  0  0  0  0  0  0
  193.7530  176.5360  139.9240 O   0  0  0  0  0  0  0  0  0  0  0  0
  189.1500  177.0850  138.4970 C   0  0  2  0  0  3  0  0  0  0  0  0
  188.9190  178.0760  139.6360 C   0  0  1  0  0  3  0  0  0  0  0  0
  193.1940  172.9550  136.7590 N   0  0  0  0  0  2  0  0  0  0  0  0
  191.5800  177.0780  139.1470 C   0  0  0  0  0  0  0  0  0  0  0  0
  190.8990  175.8570  137.0520 C   0  0  1  0  0  3  0  0  0  0  0  0
  188.2630  177.4320  135.0300 O   0  0  0  0  0  0  0  0  0  0  0  0
  189.7970  175.8510  135.9590 C   0  0  1  0  0  3  0  0  0  0  0  0
  191.7580  172.2110  134.5940 O   0  0  0  0  0  0  0  0  0  0  0  0
  187.5830  178.0330  140.0310 O   0  0  0  0  0  1  0  0  0  0  0  0
  190.6040  176.7130  138.2700 C   0  0  0  0  0  0  0  0  0  0  0  0
  191.2720  173.1590  135.2680 C   0  0  0  0  0  0  0  0  0  0  0  0
  188.4710  173.8470  136.9610 C   0  0  0  0  0  3  0  0  0  0  0  0
  188.3780  172.3380  136.8060 C   0  0  0  0  0  1  0  0  0  0  0  0
  187.0720  174.3740  137.2190 C   0  0  0  0  0  1  0  0  0  0  0  0
  1 20  1  0  0  0  0
  1 16  2  0  0  0  0
  2 13  1  0  0  0  0
  5  1  1  0  0  0  0
  6  7  1  0  0  0  0
  6 15  2  0  0  0  0
  8 11  1  0  0  0  0
  9 23  1  0  0  0  0
  9 28  1  1  0  0  0
 10  3  1  0  0  0  0
 11  5  2  0  0  0  0
 11  7  1  0  0  0  0
 12 19  1  0  0  0  0
 12  4  1  1  0  0  0
 14 27  1  0  0  0  0
 14  9  1  0  0  0  0
 17  3  1  6  0  0  0
 17 18  1  0  0  0  0
 18 25  1  1  0  0  0
 18 13  1  0  0  0  0
 19  6  1  0  0  0  0
 20  2  1  0  0  0  0
 21  4  1  1  0  0  0
 21 26  1  0  0  0  0
 22 10  2  0  0  0  0
 23 10  1  1  0  0  0
 23 21  1  0  0  0  0
 24 27  2  0  0  0  0
 26 17  1  0  0  0  0
 26 20  2  0  0  0  0
 27 12  1  0  0  0  0
 28 30  1  0  0  0  0
 29 28  1  0  0  0  0
M  END
>  <MODEL>
6

>  <REMARK>
 VINA RESULT:      -5.5      3.930      5.916
  Name = 
  1 active torsions:
  status: ('A' for Active; 'I' for Inactive)
    1  A    between atoms: C_7  and  C_10
                            x       y       z     vdW  Elec       q    Type
                         _______ _______ _______ _____ _____    ______ ____

>  <TORSDO>
F 1

$$$$
=
 OpenBabel11052412373D

 30 33  0  0  1  0  0  0  0  0999 V2000
  184.5260  178.8800  138.9960 C   0  0  0  0  0  0  0  0  0  0  0  0
  186.5180  178.6280  137.4440 C   0  0  0  0  0  2  0  0  0  0  0  0
  185.6540  174.6480  137.0550 O   0  0  0  0  0  0  0  0  0  0  0  0
  182.2720  177.0910  137.6260 C   0  0  0  0  0  2  0  0  0  0  0  0
  183.8320  178.2670  140.0920 N   0  0  0  0  0  0  0  0  0  0  0  0
  180.6410  179.3010  139.1380 C   0  0  0  0  0  0  0  0  0  0  0  0
  181.9060  179.5330  139.6910 O   0  0  0  0  0  0  0  0  0  0  0  0
  181.9770  177.8860  141.5760 C   0  0  0  0  0  1  0  0  0  0  0  0
  182.1640  174.3040  136.9130 C   0  0  2  0  0  3  0  0  0  0  0  0
  184.5670  173.9980  137.6400 C   0  0  0  0  0  0  0  0  0  0  0  0
  182.6210  178.5840  140.4290 C   0  0  0  0  0  0  0  0  0  0  0  0
  181.0920  176.8300  138.5490 C   0  0  1  0  0  3  0  0  0  0  0  0
  186.8970  178.0270  136.1000 C   0  0  0  0  0  2  0  0  0  0  0  0
  180.8450  174.4540  137.5330 N   0  0  0  0  0  2  0  0  0  0  0  0
  179.8500  180.2700  139.0130 O   0  0  0  0  0  0  0  0  0  0  0  0
  184.5550  180.1370  138.9000 O   0  0  0  0  0  0  0  0  0  0  0  0
  185.5490  175.9890  136.5910 C   0  0  2  0  0  3  0  0  0  0  0  0
  186.9400  176.5190  136.2460 C   0  0  1  0  0  3  0  0  0  0  0  0
  180.2440  178.0170  138.6320 N   0  0  0  0  0  2  0  0  0  0  0  0
  185.2330  178.0550  137.9890 C   0  0  0  0  0  0  0  0  0  0  0  0
  183.4680  176.2610  138.0910 C   0  0  1  0  0  3  0  0  0  0  0  0
  184.6660  172.7880  137.9690 O   0  0  0  0  0  0  0  0  0  0  0  0
  183.2820  174.7350  137.8820 C   0  0  1  0  0  3  0  0  0  0  0  0
  179.0510  175.6000  138.4360 O   0  0  0  0  0  0  0  0  0  0  0  0
  187.3760  175.9470  135.0520 O   0  0  0  0  0  1  0  0  0  0  0  0
  184.7860  176.8300  137.5980 C   0  0  0  0  0  0  0  0  0  0  0  0
  180.2750  175.6270  138.1380 C   0  0  0  0  0  0  0  0  0  0  0  0
  182.2270  174.9400  135.5100 C   0  0  0  0  0  3  0  0  0  0  0  0
  180.8530  175.0100  134.8650 C   0  0  0  0  0  1  0  0  0  0  0  0
  183.1290  174.1340  134.5950 C   0  0  0  0  0  1  0  0  0  0  0  0
  1  5  1  0  0  0  0
  2 20  1  0  0  0  0
  3 10  1  0  0  0  0
  5 11  2  0  0  0  0
  6  7  1  0  0  0  0
  7 11  1  0  0  0  0
  9 28  1  6  0  0  0
  9 14  1  0  0  0  0
  9 23  1  0  0  0  0
 10 22  2  0  0  0  0
 11  8  1  0  0  0  0
 12  4  1  6  0  0  0
 12 19  1  0  0  0  0
 13 18  1  0  0  0  0
 13  2  1  0  0  0  0
 14 27  1  0  0  0  0
 15  6  2  0  0  0  0
 16  1  2  0  0  0  0
 17  3  1  1  0  0  0
 17 26  1  0  0  0  0
 18 25  1  6  0  0  0
 18 17  1  0  0  0  0
 19  6  1  0  0  0  0
 20  1  1  0  0  0  0
 21  4  1  6  0  0  0
 23 10  1  6  0  0  0
 23 21  1  0  0  0  0
 26 20  2  0  0  0  0
 26 21  1  0  0  0  0
 27 24  2  0  0  0  0
 27 12  1  0  0  0  0
 29 28  1  0  0  0  0
 30 28  1  0  0  0  0
M  END
>  <MODEL>
7

>  <REMARK>
 VINA RESULT:      -5.2      2.995      6.351
  Name = 
  1 active torsions:
  status: ('A' for Active; 'I' for Inactive)
    1  A    between atoms: C_7  and  C_10
                            x       y       z     vdW  Elec       q    Type
                         _______ _______ _______ _____ _____    ______ ____

>  <TORSDO>
F 1

$$$$
=
 OpenBabel11052412373D

 30 33  0  0  1  0  0  0  0  0999 V2000
  184.7830  173.8450  135.5150 C   0  0  0  0  0  0  0  0  0  0  0  0
  186.7430  172.2580  135.2200 C   0  0  0  0  0  2  0  0  0  0  0  0
  189.2650  175.4750  135.0610 O   0  0  0  0  0  0  0  0  0  0  0  0
  185.8980  176.0530  137.5240 C   0  0  0  0  0  2  0  0  0  0  0  0
  184.2170  175.0770  135.0500 N   0  0  0  0  0  0  0  0  0  0  0  0
  182.8170  176.0190  138.1020 C   0  0  0  0  0  0  0  0  0  0  0  0
  182.8360  175.2510  136.9310 O   0  0  0  0  0  0  0  0  0  0  0  0
  182.7760  177.0020  135.1420 C   0  0  0  0  0  1  0  0  0  0  0  0
  188.1450  177.8480  137.3930 C   0  0  2  0  0  3  0  0  0  0  0  0
  188.8800  176.8090  135.2080 C   0  0  0  0  0  0  0  0  0  0  0  0
  183.2970  175.7220  135.6980 C   0  0  0  0  0  0  0  0  0  0  0  0
  185.0060  177.2830  137.5920 C   0  0  1  0  0  3  0  0  0  0  0  0
  188.1380  171.9950  135.7610 C   0  0  0  0  0  2  0  0  0  0  0  0
  187.1140  178.7730  137.8710 N   0  0  0  0  0  2  0  0  0  0  0  0
  181.9280  175.7860  138.9610 O   0  0  0  0  0  0  0  0  0  0  0  0
  184.0230  172.9060  135.8810 O   0  0  0  0  0  0  0  0  0  0  0  0
  188.6240  174.4380  135.7970 C   0  0  2  0  0  3  0  0  0  0  0  0
  189.0620  173.0810  135.2500 C   0  0  1  0  0  3  0  0  0  0  0  0
  183.8200  177.0030  138.3970 N   0  0  0  0  0  2  0  0  0  0  0  0
  186.2510  173.6470  135.5450 C   0  0  0  0  0  0  0  0  0  0  0  0
  186.6480  176.0480  136.1920 C   0  0  1  0  0  3  0  0  0  0  0  0
  189.5170  177.7110  134.6050 O   0  0  0  0  0  0  0  0  0  0  0  0
  187.7130  177.1720  136.0780 C   0  0  1  0  0  3  0  0  0  0  0  0
  185.0510  179.3870  138.7170 O   0  0  0  0  0  0  0  0  0  0  0  0
  190.3680  172.8120  135.6550 O   0  0  0  0  0  1  0  0  0  0  0  0
  187.1230  174.6590  135.8070 C   0  0  0  0  0  0  0  0  0  0  0  0
  185.7240  178.5040  138.1200 C   0  0  0  0  0  0  0  0  0  0  0  0
  188.6280  176.8890  138.4990 C   0  0  0  0  0  3  0  0  0  0  0  0
  188.4900  177.5100  139.8780 C   0  0  0  0  0  1  0  0  0  0  0  0
  190.0880  176.5290  138.2960 C   0  0  0  0  0  1  0  0  0  0  0  0
  1 20  1  0  0  0  0
  1 16  2  0  0  0  0
  2 20  1  0  0  0  0
  2 13  1  0  0  0  0
  3 10  1  0  0  0  0
  5  1  1  0  0  0  0
  5 11  2  0  0  0  0
  6 19  1  0  0  0  0
  6 15  2  0  0  0  0
  7  6  1  0  0  0  0
  8 11  1  0  0  0  0
  9 14  1  0  0  0  0
  9 28  1  1  0  0  0
 11  7  1  0  0  0  0
 12  4  1  1  0  0  0
 12 27  1  0  0  0  0
 12 19  1  0  0  0  0
 14 27  1  0  0  0  0
 17  3  1  6  0  0  0
 17 26  1  0  0  0  0
 18 25  1  1  0  0  0
 18 13  1  0  0  0  0
 18 17  1  0  0  0  0
 20 26  2  0  0  0  0
 21  4  1  1  0  0  0
 22 10  2  0  0  0  0
 23 10  1  1  0  0  0
 23 21  1  0  0  0  0
 23  9  1  0  0  0  0
 26 21  1  0  0  0  0
 27 24  2  0  0  0  0
 28 29  1  0  0  0  0
 30 28  1  0  0  0  0
M  END
>  <MODEL>
8

>  <REMARK>
 VINA RESULT:      -5.1      2.586      6.933
  Name = 
  1 active torsions:
  status: ('A' for Active; 'I' for Inactive)
    1  A    between atoms: C_7  and  C_10
                            x       y       z     vdW  Elec       q    Type
                         _______ _______ _______ _____ _____    ______ ____

>  <TORSDO>
F 1

$$$$
=
 OpenBabel11052412373D

 30 33  0  0  1  0  0  0  0  0999 V2000
  190.1740  175.5460  137.5940 C   0  0  0  0  0  0  0  0  0  0  0  0
  190.5390  173.4720  136.1750 C   0  0  0  0  0  2  0  0  0  0  0  0
  186.6580  172.3750  136.8640 O   0  0  0  0  0  0  0  0  0  0  0  0
  187.2680  176.5400  136.7420 C   0  0  0  0  0  2  0  0  0  0  0  0
  189.5820  176.0220  138.8100 N   0  0  0  0  0  0  0  0  0  0  0  0
  188.7280  179.1790  137.5980 C   0  0  0  0  0  0  0  0  0  0  0  0
  189.6530  178.2430  138.0750 O   0  0  0  0  0  0  0  0  0  0  0  0
  188.7290  177.6780  140.3320 C   0  0  0  0  0  1  0  0  0  0  0  0
  184.6830  175.2750  136.8020 C   0  0  2  0  0  3  0  0  0  0  0  0
  185.7290  173.1140  137.5970 C   0  0  0  0  0  0  0  0  0  0  0  0
  189.3580  177.2780  139.0430 C   0  0  0  0  0  0  0  0  0  0  0  0
  186.7050  177.5820  137.6960 C   0  0  1  0  0  3  0  0  0  0  0  0
  189.8930  172.6890  135.0440 C   0  0  0  0  0  2  0  0  0  0  0  0
  184.3320  176.5870  137.3530 N   0  0  0  0  0  2  0  0  0  0  0  0
  189.1480  180.3000  137.2130 O   0  0  0  0  0  0  0  0  0  0  0  0
  191.2340  176.0790  137.1640 O   0  0  0  0  0  0  0  0  0  0  0  0
  187.6400  173.0160  136.0570 C   0  0  2  0  0  3  0  0  0  0  0  0
  188.6670  171.9860  135.5890 C   0  0  1  0  0  3  0  0  0  0  0  0
  187.3310  178.8790  137.4530 N   0  0  0  0  0  2  0  0  0  0  0  0
  189.5720  174.4170  136.8480 C   0  0  0  0  0  0  0  0  0  0  0  0
  187.2380  175.1690  137.4190 C   0  0  1  0  0  3  0  0  0  0  0  0
  184.8250  172.5200  138.2380 O   0  0  0  0  0  0  0  0  0  0  0  0
  185.8040  174.6130  137.6250 C   0  0  1  0  0  3  0  0  0  0  0  0
  184.6680  178.8060  137.9060 O   0  0  0  0  0  0  0  0  0  0  0  0
  188.1070  171.1850  134.5950 O   0  0  0  0  0  1  0  0  0  0  0  0
  188.2290  174.2020  136.7970 C   0  0  0  0  0  0  0  0  0  0  0  0
  185.2000  177.7010  137.6180 C   0  0  0  0  0  0  0  0  0  0  0  0
  184.9250  175.3250  135.2800 C   0  0  0  0  0  3  0  0  0  0  0  0
  184.2220  176.5110  134.6410 C   0  0  0  0  0  1  0  0  0  0  0  0
  184.4080  174.0640  134.6140 C   0  0  0  0  0  1  0  0  0  0  0  0
  1  5  1  0  0  0  0
  2 20  1  0  0  0  0
  3 10  1  0  0  0  0
  5 11  2  0  0  0  0
  6  7  1  0  0  0  0
  7 11  1  0  0  0  0
  9 28  1  6  0  0  0
  9 14  1  0  0  0  0
  9 23  1  0  0  0  0
 10 22  2  0  0  0  0
 11  8  1  0  0  0  0
 12  4  1  6  0  0  0
 13 18  1  0  0  0  0
 13  2  1  0  0  0  0
 14 27  1  0  0  0  0
 15  6  2  0  0  0  0
 16  1  2  0  0  0  0
 17 26  1  1  0  0  0
 17  3  1  0  0  0  0
 18 25  1  6  0  0  0
 18 17  1  0  0  0  0
 19  6  1  0  0  0  0
 19 12  1  0  0  0  0
 20  1  1  0  0  0  0
 21  4  1  6  0  0  0
 21 23  1  0  0  0  0
 23 10  1  6  0  0  0
 26 20  2  0  0  0  0
 26 21  1  0  0  0  0
 27 12  1  0  0  0  0
 27 24  2  0  0  0  0
 29 28  1  0  0  0  0
 30 28  1  0  0  0  0
M  END
>  <MODEL>
9

>  <REMARK>
 VINA RESULT:      -4.6      2.657      5.809
  Name = 
  1 active torsions:
  status: ('A' for Active; 'I' for Inactive)
    1  A    between atoms: C_7  and  C_10
                            x       y       z     vdW  Elec       q    Type
                         _______ _______ _______ _____ _____    ______ ____

>  <TORSDO>
F 1

$$$$
