=
 OpenBabel11052416303D

 43 47  0  0  1  0  0  0  0  0999 V2000
  185.3390  178.8000  143.2500 C   0  0  2  0  0  3  0  0  0  0  0  0
  187.7180  177.5260  142.1190 C   0  0  1  0  0  3  0  0  0  0  0  0
  184.7650  178.0900  146.0690 C   0  0  1  0  0  3  0  0  0  0  0  0
  186.1350  177.8690  145.4580 C   0  0  0  0  0  0  0  0  0  0  0  0
  184.8840  178.5740  147.3740 O   0  0  0  0  0  1  0  0  0  0  0  0
  187.7600  177.9300  143.5870 C   0  0  0  0  0  2  0  0  0  0  0  0
  186.3710  178.1100  144.1430 C   0  0  0  0  0  0  0  0  0  0  0  0
  183.9220  178.6290  143.8040 C   0  0  0  0  0  2  0  0  0  0  0  0
  185.4100  178.2940  141.8680 N   0  0  0  0  0  0  0  0  0  0  0  0
  186.7710  178.4500  141.3560 C   0  0  0  0  0  2  0  0  0  0  0  0
  183.8990  179.0450  145.2600 C   0  0  0  0  0  2  0  0  0  0  0  0
  189.1300  177.5080  141.5280 C   0  0  1  0  0  3  0  0  0  0  0  0
  190.0830  176.7530  142.4420 C   0  0  0  0  0  1  0  0  0  0  0  0
  189.1670  176.9280  140.1160 C   0  0  0  0  0  2  0  0  0  0  0  0
  189.8310  177.8560  139.0910 C   0  0  2  0  0  3  0  0  0  0  0  0
  189.0870  179.0200  138.8760 O   0  0  0  0  0  1  0  0  0  0  0  0
  190.3200  177.1980  137.7770 C   0  0  1  0  0  3  0  0  0  0  0  0
  192.6570  176.3480  137.6230 C   0  0  0  0  0  2  0  0  0  0  0  0
  191.2310  175.9910  137.9930 C   0  0  0  0  0  3  0  0  0  0  0  0
  191.8110  175.5380  136.6680 C   0  0  0  0  0  2  0  0  0  0  0  0
  189.2770  176.9340  136.6780 C   0  0  2  0  0  3  0  0  0  0  0  0
  189.2420  177.9740  135.7450 O   0  0  0  0  0  1  0  0  0  0  0  0
  187.8800  176.5710  137.1920 C   0  0  1  0  0  3  0  0  0  0  0  0
  186.9860  177.6230  136.9640 O   0  0  0  0  0  1  0  0  0  0  0  0
  187.3650  175.3000  136.5250 C   0  0  2  0  0  3  0  0  0  0  0  0
  187.4940  172.8950  137.0490 C   0  0  0  0  0  2  0  0  0  0  0  0
  185.2360  172.7520  137.7590 O   0  0  0  0  0  0  0  0  0  0  0  0
  186.1510  173.4390  137.3390 C   0  0  0  0  0  0  0  0  0  0  0  0
  186.0190  174.8920  137.1070 C   0  0  0  0  0  2  0  0  0  0  0  0
  188.3280  174.1250  136.7460 C   0  0  0  0  0  2  0  0  0  0  0  0
  184.5720  179.1390  141.0230 C   0  0  0  0  0  2  0  0  0  0  0  0
  182.5210  176.4200  139.3660 C   0  0  0  0  0  3  0  0  0  0  0  0
  182.7030  176.7140  138.0100 C   0  0  0  0  0  0  0  0  0  0  0  0
  184.0960  178.6080  138.6240 C   0  0  0  0  0  3  0  0  0  0  0  0
  183.1220  177.2150  140.3470 C   0  0  0  0  0  3  0  0  0  0  0  0
  183.9050  178.3120  139.9780 C   0  0  0  0  0  0  0  0  0  0  0  0
  183.4960  177.8150  137.6420 C   0  0  0  0  0  3  0  0  0  0  0  0
  182.0910  175.9000  137.0540 O   0  0  0  0  0  0  0  0  0  0  0  0
  182.1910  174.4810  137.0730 C   0  0  0  0  0  1  0  0  0  0  0  0
  187.1840  177.2060  146.3110 C   0  0  0  0  0  2  0  0  0  0  0  0
  189.0340  178.0780  147.7540 C   0  0  0  0  0  3  0  0  0  0  0  0
  187.7910  178.1870  147.2710 C   0  0  0  0  0  3  0  0  0  0  0  0
  189.9480  176.9510  147.3980 C   0  0  0  0  0  1  0  0  0  0  0  0
  1  8  1  1  0  0  0
  1  7  1  0  0  0  0
  2 12  1  6  0  0  0
  2  6  1  0  0  0  0
  3  5  1  1  0  0  0
  4  3  1  0  0  0  0
  4 40  1  0  0  0  0
  6  7  1  0  0  0  0
  7  4  2  0  0  0  0
  8 11  1  0  0  0  0
  9  1  1  0  0  0  0
 10  9  1  0  0  0  0
 10  2  1  0  0  0  0
 11  3  1  0  0  0  0
 12 13  1  1  0  0  0
 14 12  1  0  0  0  0
 15 16  1  6  0  0  0
 15 14  1  0  0  0  0
 17 21  1  1  0  0  0
 17 19  1  0  0  0  0
 17 15  1  0  0  0  0
 18 19  1  0  0  0  0
 20 18  1  0  0  0  0
 20 19  1  0  0  0  0
 21 22  1  1  0  0  0
 21 23  1  0  0  0  0
 23 24  1  6  0  0  0
 25 30  1  0  0  0  0
 25 29  1  0  0  0  0
 25 23  1  1  0  0  0
 26 28  1  0  0  0  0
 28 27  2  0  0  0  0
 29 28  1  0  0  0  0
 30 26  1  0  0  0  0
 31  9  1  0  0  0  0
 32 35  1  0  0  0  0
 33 32  2  0  0  0  0
 34 36  1  0  0  0  0
 36 35  2  0  0  0  0
 36 31  1  0  0  0  0
 37 33  1  0  0  0  0
 37 34  2  0  0  0  0
 38 39  1  0  0  0  0
 38 33  1  0  0  0  0
 40 42  1  0  0  0  0
 42 41  2  0  0  0  0
 43 41  1  0  0  0  0
M  END
>  <MODEL>
1

>  <REMARK>
 VINA RESULT:      -8.3      0.000      0.000
  Name = 
  13 active torsions:
  status: ('A' for Active; 'I' for Inactive)
    1  A    between atoms: C_1  and  N_34
    2  A    between atoms: C_1  and  C_35
    3  A    between atoms: C_2  and  C_6
    4  A    between atoms: C_2  and  C_13
    5  A    between atoms: C_3  and  C_4
    6  A    between atoms: C_3  and  C_12
    7  A    between atoms: C_3  and  C_15
    8  A    between atoms: C_4  and  C_14
    9  A    between atoms: C_6  and  C_12
   10  A    between atoms: C_11  and  C_14
   11  A    between atoms: C_18  and  C_24
   12  A    between atoms: C_19  and  O_25
   13  A    between atoms: C_21  and  C_24
                            x       y       z     vdW  Elec       q    Type
                         _______ _______ _______ _____ _____    ______ ____

>  <TORSDO>
F 13

$$$$
=
 OpenBabel11052416303D

 43 47  0  0  1  0  0  0  0  0999 V2000
  189.8140  177.2150  138.5570 C   0  0  2  0  0  3  0  0  0  0  0  0
  187.0710  176.9820  137.5690 C   0  0  1  0  0  3  0  0  0  0  0  0
  191.6480  175.0640  137.6680 C   0  0  1  0  0  3  0  0  0  0  0  0
  190.3410  175.3400  136.9510 C   0  0  0  0  0  0  0  0  0  0  0  0
  192.6620  174.7910  136.7470 O   0  0  0  0  0  1  0  0  0  0  0  0
  188.1980  176.5460  136.6420 C   0  0  0  0  0  2  0  0  0  0  0  0
  189.4610  176.2640  137.4140 C   0  0  0  0  0  0  0  0  0  0  0  0
  190.9250  176.6350  139.4390 C   0  0  0  0  0  2  0  0  0  0  0  0
  188.6280  177.5300  139.3730 N   0  0  0  0  0  0  0  0  0  0  0  0
  187.5730  178.0690  138.5170 C   0  0  0  0  0  2  0  0  0  0  0  0
  192.0880  176.2110  138.5670 C   0  0  0  0  0  2  0  0  0  0  0  0
  185.8490  177.4210  136.7590 C   0  0  1  0  0  3  0  0  0  0  0  0
  186.1690  177.4340  135.2720 C   0  0  0  0  0  1  0  0  0  0  0  0
  184.6210  176.5580  137.0360 C   0  0  0  0  0  2  0  0  0  0  0  0
  183.8600  176.9660  138.3030 C   0  0  2  0  0  3  0  0  0  0  0  0
  182.9590  175.9790  138.7160 O   0  0  0  0  0  1  0  0  0  0  0  0
  183.2470  178.3880  138.3160 C   0  0  1  0  0  3  0  0  0  0  0  0
  181.4550  178.8220  136.6390 C   0  0  0  0  0  2  0  0  0  0  0  0
  181.7400  178.4130  138.0720 C   0  0  0  0  0  3  0  0  0  0  0  0
  181.2900  179.8260  137.7570 C   0  0  0  0  0  2  0  0  0  0  0  0
  183.6540  179.3330  139.4600 C   0  0  2  0  0  3  0  0  0  0  0  0
  184.2160  180.5160  138.9720 O   0  0  0  0  0  1  0  0  0  0  0  0
  184.5180  178.6870  140.5480 C   0  0  1  0  0  3  0  0  0  0  0  0
  185.4520  179.6060  141.0410 O   0  0  0  0  0  1  0  0  0  0  0  0
  183.6540  178.1630  141.6910 C   0  0  2  0  0  3  0  0  0  0  0  0
  183.0200  179.0150  143.9150 C   0  0  0  0  0  2  0  0  0  0  0  0
  180.8090  179.5710  143.2620 O   0  0  0  0  0  0  0  0  0  0  0  0
  181.9030  179.1300  142.9550 C   0  0  0  0  0  0  0  0  0  0  0  0
  182.2320  178.6950  141.5820 C   0  0  0  0  0  2  0  0  0  0  0  0
  184.2010  178.6090  143.0530 C   0  0  0  0  0  2  0  0  0  0  0  0
  188.9750  178.6060  140.2960 C   0  0  0  0  0  2  0  0  0  0  0  0
  187.6010  177.0730  143.4750 C   0  0  0  0  0  3  0  0  0  0  0  0
  188.6620  177.2700  144.3670 C   0  0  0  0  0  0  0  0  0  0  0  0
  189.9380  178.3270  142.5890 C   0  0  0  0  0  3  0  0  0  0  0  0
  187.7070  177.4990  142.1480 C   0  0  0  0  0  3  0  0  0  0  0  0
  188.8760  178.1220  141.7020 C   0  0  0  0  0  0  0  0  0  0  0  0
  189.8340  177.9010  143.9160 C   0  0  0  0  0  3  0  0  0  0  0  0
  188.5250  176.8340  145.6870 O   0  0  0  0  0  0  0  0  0  0  0  0
  187.7460  177.5320  146.6510 C   0  0  0  0  0  1  0  0  0  0  0  0
  189.9630  174.4340  135.8080 C   0  0  0  0  0  2  0  0  0  0  0  0
  188.2740  172.6090  136.0840 C   0  0  0  0  0  3  0  0  0  0  0  0
  189.4960  173.1010  136.3150 C   0  0  0  0  0  3  0  0  0  0  0  0
  187.2340  173.3470  135.3080 C   0  0  0  0  0  1  0  0  0  0  0  0
  1  9  1  0  0  0  0
  1  8  1  1  0  0  0
  2 12  1  6  0  0  0
  2 10  1  0  0  0  0
  3  5  1  6  0  0  0
  3 11  1  0  0  0  0
  4  7  2  0  0  0  0
  4  3  1  0  0  0  0
  6  7  1  0  0  0  0
  6  2  1  0  0  0  0
  7  1  1  0  0  0  0
  9 31  1  0  0  0  0
 10  9  1  0  0  0  0
 11  8  1  0  0  0  0
 12 13  1  6  0  0  0
 12 14  1  0  0  0  0
 14 15  1  0  0  0  0
 15 16  1  6  0  0  0
 17 15  1  1  0  0  0
 17 21  1  0  0  0  0
 18 20  1  0  0  0  0
 18 19  1  0  0  0  0
 19 17  1  0  0  0  0
 20 19  1  0  0  0  0
 21 22  1  6  0  0  0
 21 23  1  0  0  0  0
 23 24  1  1  0  0  0
 25 23  1  6  0  0  0
 25 30  1  0  0  0  0
 28 27  2  0  0  0  0
 28 26  1  0  0  0  0
 29 25  1  0  0  0  0
 29 28  1  0  0  0  0
 30 26  1  0  0  0  0
 31 36  1  0  0  0  0
 32 33  1  0  0  0  0
 33 38  1  0  0  0  0
 34 37  1  0  0  0  0
 35 32  2  0  0  0  0
 36 35  1  0  0  0  0
 36 34  2  0  0  0  0
 37 33  2  0  0  0  0
 38 39  1  0  0  0  0
 40 42  1  0  0  0  0
 40  4  1  0  0  0  0
 41 42  2  0  0  0  0
 43 41  1  0  0  0  0
M  END
>  <MODEL>
2

>  <REMARK>
 VINA RESULT:      -8.1      2.288      8.628
  Name = 
  13 active torsions:
  status: ('A' for Active; 'I' for Inactive)
    1  A    between atoms: C_1  and  N_34
    2  A    between atoms: C_1  and  C_35
    3  A    between atoms: C_2  and  C_6
    4  A    between atoms: C_2  and  C_13
    5  A    between atoms: C_3  and  C_4
    6  A    between atoms: C_3  and  C_12
    7  A    between atoms: C_3  and  C_15
    8  A    between atoms: C_4  and  C_14
    9  A    between atoms: C_6  and  C_12
   10  A    between atoms: C_11  and  C_14
   11  A    between atoms: C_18  and  C_24
   12  A    between atoms: C_19  and  O_25
   13  A    between atoms: C_21  and  C_24
                            x       y       z     vdW  Elec       q    Type
                         _______ _______ _______ _____ _____    ______ ____

>  <TORSDO>
F 13

$$$$
=
 OpenBabel11052416303D

 43 47  0  0  1  0  0  0  0  0999 V2000
  186.1780  178.6350  143.8920 C   0  0  2  0  0  3  0  0  0  0  0  0
  188.0200  177.5720  141.8840 C   0  0  1  0  0  3  0  0  0  0  0  0
  186.6340  177.6490  146.6490 C   0  0  1  0  0  3  0  0  0  0  0  0
  187.7050  177.5440  145.5810 C   0  0  0  0  0  0  0  0  0  0  0  0
  187.1990  178.0180  147.8720 O   0  0  0  0  0  1  0  0  0  0  0  0
  188.5710  177.8430  143.2780 C   0  0  0  0  0  2  0  0  0  0  0  0
  187.4630  177.9130  144.2970 C   0  0  0  0  0  0  0  0  0  0  0  0
  185.0460  178.3540  144.8850 C   0  0  0  0  0  2  0  0  0  0  0  0
  185.7640  178.2600  142.5290 N   0  0  0  0  0  0  0  0  0  0  0  0
  186.8580  178.5200  141.5940 C   0  0  0  0  0  2  0  0  0  0  0  0
  185.5310  178.6360  146.2920 C   0  0  0  0  0  2  0  0  0  0  0  0
  189.1360  177.6680  140.8400 C   0  0  1  0  0  3  0  0  0  0  0  0
  190.2530  176.6870  141.1580 C   0  0  0  0  0  1  0  0  0  0  0  0
  188.6260  177.4580  139.4160 C   0  0  0  0  0  2  0  0  0  0  0  0
  189.5070  178.1160  138.3470 C   0  0  2  0  0  3  0  0  0  0  0  0
  189.0180  179.3680  137.9610 O   0  0  0  0  0  1  0  0  0  0  0  0
  189.9150  177.2290  137.1450 C   0  0  1  0  0  3  0  0  0  0  0  0
  192.1130  176.0600  137.0250 C   0  0  0  0  0  2  0  0  0  0  0  0
  190.6890  175.9730  137.5410 C   0  0  0  0  0  3  0  0  0  0  0  0
  191.1000  175.2060  136.2980 C   0  0  0  0  0  2  0  0  0  0  0  0
  188.8460  176.9270  136.0820 C   0  0  2  0  0  3  0  0  0  0  0  0
  188.9630  177.7800  134.9810 O   0  0  0  0  0  1  0  0  0  0  0  0
  187.4110  176.8640  136.6150 C   0  0  1  0  0  3  0  0  0  0  0  0
  186.6640  177.9490  136.1410 O   0  0  0  0  0  1  0  0  0  0  0  0
  186.7360  175.5560  136.2150 C   0  0  2  0  0  3  0  0  0  0  0  0
  186.4490  173.3550  137.2870 C   0  0  0  0  0  2  0  0  0  0  0  0
  184.1630  173.7120  137.8040 O   0  0  0  0  0  0  0  0  0  0  0  0
  185.1970  174.1390  137.3220 C   0  0  0  0  0  0  0  0  0  0  0  0
  185.3120  175.4970  136.7510 C   0  0  0  0  0  2  0  0  0  0  0  0
  187.4850  174.3440  136.7850 C   0  0  0  0  0  2  0  0  0  0  0  0
  184.6760  179.1410  142.1170 C   0  0  0  0  0  2  0  0  0  0  0  0
  183.6070  178.9020  138.4910 C   0  0  0  0  0  3  0  0  0  0  0  0
  182.8510  177.7240  138.4960 C   0  0  0  0  0  0  0  0  0  0  0  0
  183.3030  177.4610  140.8690 C   0  0  0  0  0  3  0  0  0  0  0  0
  184.2090  179.3580  139.6680 C   0  0  0  0  0  3  0  0  0  0  0  0
  184.0620  178.6370  140.8560 C   0  0  0  0  0  0  0  0  0  0  0  0
  182.7020  177.0030  139.6930 C   0  0  0  0  0  3  0  0  0  0  0  0
  182.2610  177.2960  137.3040 O   0  0  0  0  0  0  0  0  0  0  0  0
  181.5720  176.0570  137.1880 C   0  0  0  0  0  1  0  0  0  0  0  0
  188.9920  176.8520  145.9450 C   0  0  0  0  0  2  0  0  0  0  0  0
  191.3190  177.5510  145.3410 C   0  0  0  0  0  3  0  0  0  0  0  0
  190.1420  177.8160  145.9210 C   0  0  0  0  0  3  0  0  0  0  0  0
  191.6170  176.2520  144.6670 C   0  0  0  0  0  1  0  0  0  0  0  0
  1  7  1  0  0  0  0
  1  8  1  1  0  0  0
  2 12  1  6  0  0  0
  2  6  1  0  0  0  0
  3  5  1  1  0  0  0
  4 40  1  0  0  0  0
  4  3  1  0  0  0  0
  6  7  1  0  0  0  0
  7  4  2  0  0  0  0
  8 11  1  0  0  0  0
  9  1  1  0  0  0  0
 10  2  1  0  0  0  0
 10  9  1  0  0  0  0
 11  3  1  0  0  0  0
 12 13  1  1  0  0  0
 14 12  1  0  0  0  0
 15 16  1  6  0  0  0
 15 14  1  0  0  0  0
 17 21  1  1  0  0  0
 17 19  1  0  0  0  0
 17 15  1  0  0  0  0
 18 19  1  0  0  0  0
 20 18  1  0  0  0  0
 20 19  1  0  0  0  0
 21 22  1  6  0  0  0
 21 23  1  0  0  0  0
 23 24  1  6  0  0  0
 25 23  1  1  0  0  0
 25 29  1  0  0  0  0
 25 30  1  0  0  0  0
 26 28  1  0  0  0  0
 28 27  2  0  0  0  0
 29 28  1  0  0  0  0
 30 26  1  0  0  0  0
 31  9  1  0  0  0  0
 32 33  2  0  0  0  0
 32 35  1  0  0  0  0
 33 37  1  0  0  0  0
 35 36  2  0  0  0  0
 36 34  1  0  0  0  0
 36 31  1  0  0  0  0
 37 34  2  0  0  0  0
 38 33  1  0  0  0  0
 39 38  1  0  0  0  0
 41 42  2  0  0  0  0
 42 40  1  0  0  0  0
 43 41  1  0  0  0  0
M  END
>  <MODEL>
3

>  <REMARK>
 VINA RESULT:      -8.1      1.162      1.588
  Name = 
  13 active torsions:
  status: ('A' for Active; 'I' for Inactive)
    1  A    between atoms: C_1  and  N_34
    2  A    between atoms: C_1  and  C_35
    3  A    between atoms: C_2  and  C_6
    4  A    between atoms: C_2  and  C_13
    5  A    between atoms: C_3  and  C_4
    6  A    between atoms: C_3  and  C_12
    7  A    between atoms: C_3  and  C_15
    8  A    between atoms: C_4  and  C_14
    9  A    between atoms: C_6  and  C_12
   10  A    between atoms: C_11  and  C_14
   11  A    between atoms: C_18  and  C_24
   12  A    between atoms: C_19  and  O_25
   13  A    between atoms: C_21  and  C_24
                            x       y       z     vdW  Elec       q    Type
                         _______ _______ _______ _____ _____    ______ ____

>  <TORSDO>
F 13

$$$$
=
 OpenBabel11052416303D

 43 47  0  0  1  0  0  0  0  0999 V2000
  189.9050  177.0310  142.2630 C   0  0  2  0  0  3  0  0  0  0  0  0
  187.2390  178.2250  142.1220 C   0  0  1  0  0  3  0  0  0  0  0  0
  191.3290  177.4570  144.8270 C   0  0  1  0  0  3  0  0  0  0  0  0
  189.8270  177.6320  144.7140 C   0  0  0  0  0  0  0  0  0  0  0  0
  191.6570  176.8180  146.0250 O   0  0  0  0  0  1  0  0  0  0  0  0
  187.6900  177.6520  143.4600 C   0  0  0  0  0  2  0  0  0  0  0  0
  189.1900  177.5250  143.5200 C   0  0  0  0  0  0  0  0  0  0  0  0
  191.4180  177.2530  142.3610 C   0  0  0  0  0  2  0  0  0  0  0  0
  189.3720  177.6850  141.0550 N   0  0  0  0  0  0  0  0  0  0  0  0
  187.9260  177.4760  140.9820 C   0  0  0  0  0  2  0  0  0  0  0  0
  191.9270  176.6750  143.6650 C   0  0  0  0  0  2  0  0  0  0  0  0
  185.7120  178.1940  142.0130 C   0  0  1  0  0  3  0  0  0  0  0  0
  185.0730  178.4450  143.3710 C   0  0  0  0  0  1  0  0  0  0  0  0
  185.1780  179.1810  140.9780 C   0  0  0  0  0  2  0  0  0  0  0  0
  184.6710  178.5090  139.6960 C   0  0  2  0  0  3  0  0  0  0  0  0
  185.1280  179.1590  138.5460 O   0  0  0  0  0  1  0  0  0  0  0  0
  183.1600  178.1730  139.6420 C   0  0  1  0  0  3  0  0  0  0  0  0
  183.0850  175.9240  138.5700 C   0  0  0  0  0  2  0  0  0  0  0  0
  182.8500  176.6920  139.8570 C   0  0  0  0  0  3  0  0  0  0  0  0
  181.6770  176.2790  138.9900 C   0  0  0  0  0  2  0  0  0  0  0  0
  182.1970  179.0760  140.4310 C   0  0  2  0  0  3  0  0  0  0  0  0
  181.7180  178.4360  141.5770 O   0  0  0  0  0  1  0  0  0  0  0  0
  181.0680  179.6910  139.5980 C   0  0  1  0  0  3  0  0  0  0  0  0
  180.3460  180.6170  140.3590 O   0  0  0  0  0  1  0  0  0  0  0  0
  181.6180  180.3660  138.3460 C   0  0  2  0  0  3  0  0  0  0  0  0
  180.6990  180.9130  136.1260 C   0  0  0  0  0  2  0  0  0  0  0  0
  180.4930  183.2280  136.5890 O   0  0  0  0  0  0  0  0  0  0  0  0
  180.8050  182.1160  136.9760 C   0  0  0  0  0  0  0  0  0  0  0  0
  181.2910  181.8530  138.3460 C   0  0  0  0  0  2  0  0  0  0  0  0
  181.0040  179.7680  137.0740 C   0  0  0  0  0  2  0  0  0  0  0  0
  189.9260  177.0140  139.8840 C   0  0  0  0  0  2  0  0  0  0  0  0
  187.7350  176.7290  136.8070 C   0  0  0  0  0  3  0  0  0  0  0  0
  187.7190  178.0500  136.3470 C   0  0  0  0  0  0  0  0  0  0  0  0
  189.1340  178.7010  138.2130 C   0  0  0  0  0  3  0  0  0  0  0  0
  188.4460  176.3930  137.9630 C   0  0  0  0  0  3  0  0  0  0  0  0
  189.1410  177.3780  138.6700 C   0  0  0  0  0  0  0  0  0  0  0  0
  188.4230  179.0380  137.0570 C   0  0  0  0  0  3  0  0  0  0  0  0
  187.0000  178.3530  135.1880 O   0  0  0  0  0  0  0  0  0  0  0  0
  185.9240  177.5510  134.7180 C   0  0  0  0  0  1  0  0  0  0  0  0
  189.0830  178.1030  145.9350 C   0  0  0  0  0  2  0  0  0  0  0  0
  188.2210  177.0160  148.0190 C   0  0  0  0  0  3  0  0  0  0  0  0
  188.5640  176.9400  146.7280 C   0  0  0  0  0  3  0  0  0  0  0  0
  188.3370  178.2740  148.8160 C   0  0  0  0  0  1  0  0  0  0  0  0
  1  8  1  1  0  0  0
  1  7  1  0  0  0  0
  2 12  1  6  0  0  0
  2  6  1  0  0  0  0
  3  5  1  1  0  0  0
  4  3  1  0  0  0  0
  4 40  1  0  0  0  0
  6  7  1  0  0  0  0
  7  4  2  0  0  0  0
  8 11  1  0  0  0  0
  9  1  1  0  0  0  0
 10  9  1  0  0  0  0
 10  2  1  0  0  0  0
 11  3  1  0  0  0  0
 12 13  1  1  0  0  0
 14 12  1  0  0  0  0
 15 16  1  6  0  0  0
 15 14  1  0  0  0  0
 17 15  1  1  0  0  0
 17 19  1  0  0  0  0
 17 21  1  0  0  0  0
 18 20  1  0  0  0  0
 18 19  1  0  0  0  0
 20 19  1  0  0  0  0
 21 22  1  1  0  0  0
 23 24  1  1  0  0  0
 23 21  1  0  0  0  0
 25 23  1  1  0  0  0
 26 28  1  0  0  0  0
 26 30  1  0  0  0  0
 27 28  2  0  0  0  0
 28 29  1  0  0  0  0
 29 25  1  0  0  0  0
 30 25  1  0  0  0  0
 31  9  1  0  0  0  0
 32 35  1  0  0  0  0
 33 32  2  0  0  0  0
 33 37  1  0  0  0  0
 34 36  1  0  0  0  0
 35 36  2  0  0  0  0
 36 31  1  0  0  0  0
 37 34  2  0  0  0  0
 38 33  1  0  0  0  0
 39 38  1  0  0  0  0
 40 42  1  0  0  0  0
 41 43  1  0  0  0  0
 42 41  2  0  0  0  0
M  END
>  <MODEL>
4

>  <REMARK>
 VINA RESULT:      -8.1      2.893      6.614
  Name = 
  13 active torsions:
  status: ('A' for Active; 'I' for Inactive)
    1  A    between atoms: C_1  and  N_34
    2  A    between atoms: C_1  and  C_35
    3  A    between atoms: C_2  and  C_6
    4  A    between atoms: C_2  and  C_13
    5  A    between atoms: C_3  and  C_4
    6  A    between atoms: C_3  and  C_12
    7  A    between atoms: C_3  and  C_15
    8  A    between atoms: C_4  and  C_14
    9  A    between atoms: C_6  and  C_12
   10  A    between atoms: C_11  and  C_14
   11  A    between atoms: C_18  and  C_24
   12  A    between atoms: C_19  and  O_25
   13  A    between atoms: C_21  and  C_24
                            x       y       z     vdW  Elec       q    Type
                         _______ _______ _______ _____ _____    ______ ____

>  <TORSDO>
F 13

$$$$
=
 OpenBabel11052416303D

 43 47  0  0  1  0  0  0  0  0999 V2000
  189.5350  177.1040  138.7610 C   0  0  2  0  0  3  0  0  0  0  0  0
  186.6370  177.2020  138.3740 C   0  0  1  0  0  3  0  0  0  0  0  0
  190.8990  174.8500  137.4040 C   0  0  1  0  0  3  0  0  0  0  0  0
  189.5090  175.2970  136.9970 C   0  0  0  0  0  0  0  0  0  0  0  0
  191.6630  174.5420  136.2760 O   0  0  0  0  0  1  0  0  0  0  0  0
  187.4920  176.7230  137.2080 C   0  0  0  0  0  2  0  0  0  0  0  0
  188.8500  176.2700  137.6780 C   0  0  0  0  0  0  0  0  0  0  0  0
  190.7350  176.3630  139.3570 C   0  0  0  0  0  2  0  0  0  0  0  0
  188.5860  177.4770  139.8240 N   0  0  0  0  0  0  0  0  0  0  0  0
  187.4400  178.1710  139.2390 C   0  0  0  0  0  2  0  0  0  0  0  0
  191.6380  175.8870  138.2380 C   0  0  0  0  0  2  0  0  0  0  0  0
  185.3280  177.8100  137.8640 C   0  0  1  0  0  3  0  0  0  0  0  0
  184.6820  176.9010  136.8300 C   0  0  0  0  0  1  0  0  0  0  0  0
  184.3480  178.1210  138.9920 C   0  0  0  0  0  2  0  0  0  0  0  0
  183.6150  179.4570  138.8150 C   0  0  2  0  0  3  0  0  0  0  0  0
  184.4810  180.5490  138.9160 O   0  0  0  0  0  1  0  0  0  0  0  0
  182.3080  179.6430  139.6250 C   0  0  1  0  0  3  0  0  0  0  0  0
  181.1360  181.4440  138.3630 C   0  0  0  0  0  2  0  0  0  0  0  0
  181.0920  179.9820  138.7650 C   0  0  0  0  0  3  0  0  0  0  0  0
  180.2210  180.9970  139.4800 C   0  0  0  0  0  2  0  0  0  0  0  0
  181.9730  178.5880  140.6940 C   0  0  2  0  0  3  0  0  0  0  0  0
  180.8050  177.8910  140.3750 O   0  0  0  0  0  1  0  0  0  0  0  0
  181.9580  179.1160  142.1320 C   0  0  1  0  0  3  0  0  0  0  0  0
  180.6750  179.0070  142.6810 O   0  0  0  0  0  1  0  0  0  0  0  0
  182.9590  178.3610  143.0020 C   0  0  2  0  0  3  0  0  0  0  0  0
  185.1730  178.8860  143.9480 C   0  0  0  0  0  2  0  0  0  0  0  0
  184.3520  179.1830  146.1520 O   0  0  0  0  0  0  0  0  0  0  0  0
  184.1190  178.9360  144.9820 C   0  0  0  0  0  0  0  0  0  0  0  0
  182.7540  178.6930  144.4730 C   0  0  0  0  0  2  0  0  0  0  0  0
  184.4020  178.7420  142.6490 C   0  0  0  0  0  2  0  0  0  0  0  0
  189.2320  178.4510  140.6980 C   0  0  0  0  0  2  0  0  0  0  0  0
  187.9480  176.7570  143.8340 C   0  0  0  0  0  3  0  0  0  0  0  0
  188.8130  177.2700  144.8080 C   0  0  0  0  0  0  0  0  0  0  0  0
  189.9660  178.5440  143.0890 C   0  0  0  0  0  3  0  0  0  0  0  0
  188.0900  177.1340  142.4950 C   0  0  0  0  0  3  0  0  0  0  0  0
  189.1020  178.0230  142.1200 C   0  0  0  0  0  0  0  0  0  0  0  0
  189.8260  178.1680  144.4280 C   0  0  0  0  0  3  0  0  0  0  0  0
  188.6440  176.8750  146.1370 O   0  0  0  0  0  0  0  0  0  0  0  0
  189.7140  176.8480  147.0740 C   0  0  0  0  0  1  0  0  0  0  0  0
  188.8050  174.5100  135.9230 C   0  0  0  0  0  2  0  0  0  0  0  0
  187.5580  172.5480  136.8510 C   0  0  0  0  0  3  0  0  0  0  0  0
  188.6700  173.0690  136.3180 C   0  0  0  0  0  3  0  0  0  0  0  0
  186.3330  173.3580  137.1240 C   0  0  0  0  0  1  0  0  0  0  0  0
  1  8  1  1  0  0  0
  1  9  1  0  0  0  0
  2 12  1  6  0  0  0
  2 10  1  0  0  0  0
  3  5  1  6  0  0  0
  3 11  1  0  0  0  0
  4  3  1  0  0  0  0
  4  7  2  0  0  0  0
  6  7  1  0  0  0  0
  6  2  1  0  0  0  0
  7  1  1  0  0  0  0
  9 31  1  0  0  0  0
 10  9  1  0  0  0  0
 11  8  1  0  0  0  0
 12 13  1  6  0  0  0
 12 14  1  0  0  0  0
 15 16  1  1  0  0  0
 15 14  1  0  0  0  0
 17 15  1  6  0  0  0
 17 21  1  0  0  0  0
 18 19  1  0  0  0  0
 18 20  1  0  0  0  0
 19 20  1  0  0  0  0
 19 17  1  0  0  0  0
 21 22  1  6  0  0  0
 21 23  1  0  0  0  0
 23 24  1  1  0  0  0
 25 23  1  6  0  0  0
 25 29  1  0  0  0  0
 26 28  1  0  0  0  0
 28 27  2  0  0  0  0
 29 28  1  0  0  0  0
 30 25  1  0  0  0  0
 30 26  1  0  0  0  0
 31 36  1  0  0  0  0
 32 33  1  0  0  0  0
 33 38  1  0  0  0  0
 34 37  1  0  0  0  0
 35 32  2  0  0  0  0
 36 35  1  0  0  0  0
 36 34  2  0  0  0  0
 37 33  2  0  0  0  0
 38 39  1  0  0  0  0
 40 42  1  0  0  0  0
 40  4  1  0  0  0  0
 41 43  1  0  0  0  0
 42 41  2  0  0  0  0
M  END
>  <MODEL>
5

>  <REMARK>
 VINA RESULT:      -7.9      2.367      8.992
  Name = 
  13 active torsions:
  status: ('A' for Active; 'I' for Inactive)
    1  A    between atoms: C_1  and  N_34
    2  A    between atoms: C_1  and  C_35
    3  A    between atoms: C_2  and  C_6
    4  A    between atoms: C_2  and  C_13
    5  A    between atoms: C_3  and  C_4
    6  A    between atoms: C_3  and  C_12
    7  A    between atoms: C_3  and  C_15
    8  A    between atoms: C_4  and  C_14
    9  A    between atoms: C_6  and  C_12
   10  A    between atoms: C_11  and  C_14
   11  A    between atoms: C_18  and  C_24
   12  A    between atoms: C_19  and  O_25
   13  A    between atoms: C_21  and  C_24
                            x       y       z     vdW  Elec       q    Type
                         _______ _______ _______ _____ _____    ______ ____

>  <TORSDO>
F 13

$$$$
=
 OpenBabel11052416303D

 43 47  0  0  1  0  0  0  0  0999 V2000
  190.0410  176.9080  142.7860 C   0  0  2  0  0  3  0  0  0  0  0  0
  187.4290  178.1670  142.3970 C   0  0  1  0  0  3  0  0  0  0  0  0
  191.3180  177.4670  145.4010 C   0  0  1  0  0  3  0  0  0  0  0  0
  189.8330  177.6780  145.1810 C   0  0  0  0  0  0  0  0  0  0  0  0
  191.5510  176.9020  146.6570 O   0  0  0  0  0  1  0  0  0  0  0  0
  187.7780  177.6750  143.7950 C   0  0  0  0  0  2  0  0  0  0  0  0
  189.2660  177.5080  143.9590 C   0  0  0  0  0  0  0  0  0  0  0  0
  191.5510  177.0920  142.9640 C   0  0  0  0  0  2  0  0  0  0  0  0
  189.6040  177.4920  141.5060 N   0  0  0  0  0  0  0  0  0  0  0  0
  188.1600  177.3220  141.3550 C   0  0  0  0  0  2  0  0  0  0  0  0
  191.9590  176.5910  144.3340 C   0  0  0  0  0  2  0  0  0  0  0  0
  185.9120  178.1740  142.1940 C   0  0  1  0  0  3  0  0  0  0  0  0
  185.1920  178.1020  143.5320 C   0  0  0  0  0  1  0  0  0  0  0  0
  185.4330  179.3810  141.3910 C   0  0  0  0  0  2  0  0  0  0  0  0
  184.6130  179.0040  140.1510 C   0  0  2  0  0  3  0  0  0  0  0  0
  184.5230  180.0610  139.2390 O   0  0  0  0  0  1  0  0  0  0  0  0
  183.2540  178.3070  140.4050 C   0  0  1  0  0  3  0  0  0  0  0  0
  181.7900  178.8490  142.3470 C   0  0  0  0  0  2  0  0  0  0  0  0
  182.1690  179.2440  140.9330 C   0  0  0  0  0  3  0  0  0  0  0  0
  180.8940  178.4650  141.1910 C   0  0  0  0  0  2  0  0  0  0  0  0
  182.7130  177.3710  139.3100 C   0  0  2  0  0  3  0  0  0  0  0  0
  183.0500  176.0390  139.5640 O   0  0  0  0  0  1  0  0  0  0  0  0
  183.0590  177.7930  137.8780 C   0  0  1  0  0  3  0  0  0  0  0  0
  183.6380  176.7270  137.1800 O   0  0  0  0  0  1  0  0  0  0  0  0
  181.8180  178.2830  137.1380 C   0  0  2  0  0  3  0  0  0  0  0  0
  179.4310  178.4980  137.7130 C   0  0  0  0  0  2  0  0  0  0  0  0
  179.5220  180.8560  137.9470 O   0  0  0  0  0  0  0  0  0  0  0  0
  180.1060  179.8130  137.7130 C   0  0  0  0  0  0  0  0  0  0  0  0
  181.5560  179.7530  137.4380 C   0  0  0  0  0  2  0  0  0  0  0  0
  180.5680  177.5040  137.5690 C   0  0  0  0  0  2  0  0  0  0  0  0
  190.2070  176.7270  140.4190 C   0  0  0  0  0  2  0  0  0  0  0  0
  188.6300  178.8230  137.6860 C   0  0  0  0  0  3  0  0  0  0  0  0
  188.3910  177.8640  136.6950 C   0  0  0  0  0  0  0  0  0  0  0  0
  189.3570  176.1600  138.1340 C   0  0  0  0  0  3  0  0  0  0  0  0
  189.2290  178.4550  138.8940 C   0  0  0  0  0  3  0  0  0  0  0  0
  189.5980  177.1250  139.1180 C   0  0  0  0  0  0  0  0  0  0  0  0
  188.7590  176.5270  136.9250 C   0  0  0  0  0  3  0  0  0  0  0  0
  187.7890  178.2630  135.4990 O   0  0  0  0  0  0  0  0  0  0  0  0
  186.4760  177.8620  135.1280 C   0  0  0  0  0  1  0  0  0  0  0  0
  189.0310  178.2540  146.3190 C   0  0  0  0  0  2  0  0  0  0  0  0
  186.8640  177.3880  147.2250 C   0  0  0  0  0  3  0  0  0  0  0  0
  188.1600  177.2040  146.9440 C   0  0  0  0  0  3  0  0  0  0  0  0
  186.1500  178.6730  146.9580 C   0  0  0  0  0  1  0  0  0  0  0  0
  1  8  1  1  0  0  0
  1  7  1  0  0  0  0
  2 12  1  6  0  0  0
  2  6  1  0  0  0  0
  3  5  1  1  0  0  0
  4  3  1  0  0  0  0
  4 40  1  0  0  0  0
  6  7  1  0  0  0  0
  7  4  2  0  0  0  0
  8 11  1  0  0  0  0
  9  1  1  0  0  0  0
 10  9  1  0  0  0  0
 10  2  1  0  0  0  0
 11  3  1  0  0  0  0
 12 13  1  1  0  0  0
 14 12  1  0  0  0  0
 15 16  1  1  0  0  0
 15 17  1  0  0  0  0
 15 14  1  0  0  0  0
 17 21  1  6  0  0  0
 17 19  1  0  0  0  0
 19 20  1  0  0  0  0
 19 18  1  0  0  0  0
 20 18  1  0  0  0  0
 21 22  1  1  0  0  0
 23 24  1  6  0  0  0
 23 21  1  0  0  0  0
 25 29  1  0  0  0  0
 25 30  1  0  0  0  0
 25 23  1  1  0  0  0
 28 26  1  0  0  0  0
 28 27  2  0  0  0  0
 29 28  1  0  0  0  0
 30 26  1  0  0  0  0
 31  9  1  0  0  0  0
 32 35  1  0  0  0  0
 33 37  1  0  0  0  0
 33 32  2  0  0  0  0
 34 36  1  0  0  0  0
 35 36  2  0  0  0  0
 36 31  1  0  0  0  0
 37 34  2  0  0  0  0
 38 33  1  0  0  0  0
 39 38  1  0  0  0  0
 40 42  1  0  0  0  0
 42 41  2  0  0  0  0
 43 41  1  0  0  0  0
M  END
>  <MODEL>
6

>  <REMARK>
 VINA RESULT:      -7.6      2.409      6.461
  Name = 
  13 active torsions:
  status: ('A' for Active; 'I' for Inactive)
    1  A    between atoms: C_1  and  N_34
    2  A    between atoms: C_1  and  C_35
    3  A    between atoms: C_2  and  C_6
    4  A    between atoms: C_2  and  C_13
    5  A    between atoms: C_3  and  C_4
    6  A    between atoms: C_3  and  C_12
    7  A    between atoms: C_3  and  C_15
    8  A    between atoms: C_4  and  C_14
    9  A    between atoms: C_6  and  C_12
   10  A    between atoms: C_11  and  C_14
   11  A    between atoms: C_18  and  C_24
   12  A    between atoms: C_19  and  O_25
   13  A    between atoms: C_21  and  C_24
                            x       y       z     vdW  Elec       q    Type
                         _______ _______ _______ _____ _____    ______ ____

>  <TORSDO>
F 13

$$$$
=
 OpenBabel11052416303D

 43 47  0  0  1  0  0  0  0  0999 V2000
  189.8630  176.8810  142.4330 C   0  0  2  0  0  3  0  0  0  0  0  0
  187.2730  178.2380  142.3240 C   0  0  1  0  0  3  0  0  0  0  0  0
  191.3800  177.2900  144.9460 C   0  0  1  0  0  3  0  0  0  0  0  0
  189.8900  177.5570  144.8660 C   0  0  0  0  0  0  0  0  0  0  0  0
  191.7010  176.6660  146.1540 O   0  0  0  0  0  1  0  0  0  0  0  0
  187.7240  177.6770  143.6670 C   0  0  0  0  0  2  0  0  0  0  0  0
  189.2140  177.4560  143.6920 C   0  0  0  0  0  0  0  0  0  0  0  0
  191.3880  177.0100  142.4860 C   0  0  0  0  0  2  0  0  0  0  0  0
  189.3380  177.5330  141.2200 N   0  0  0  0  0  0  0  0  0  0  0  0
  187.8810  177.4150  141.1900 C   0  0  0  0  0  2  0  0  0  0  0  0
  191.8960  176.4390  143.7940 C   0  0  0  0  0  2  0  0  0  0  0  0
  185.7460  178.3010  142.2560 C   0  0  1  0  0  3  0  0  0  0  0  0
  185.1850  179.0390  143.4620 C   0  0  0  0  0  1  0  0  0  0  0  0
  185.2420  178.9320  140.9600 C   0  0  0  0  0  2  0  0  0  0  0  0
  183.7590  178.6600  140.6830 C   0  0  2  0  0  3  0  0  0  0  0  0
  183.3210  177.4750  141.2810 O   0  0  0  0  0  1  0  0  0  0  0  0
  183.2910  178.8060  139.2140 C   0  0  1  0  0  3  0  0  0  0  0  0
  184.3640  177.3730  137.4800 C   0  0  0  0  0  2  0  0  0  0  0  0
  183.2100  177.4800  138.4580 C   0  0  0  0  0  3  0  0  0  0  0  0
  182.9860  177.7410  136.9810 C   0  0  0  0  0  2  0  0  0  0  0  0
  182.0660  179.6940  138.9370 C   0  0  2  0  0  3  0  0  0  0  0  0
  182.4440  180.9950  138.5930 O   0  0  0  0  0  1  0  0  0  0  0  0
  180.9970  179.6730  140.0350 C   0  0  1  0  0  3  0  0  0  0  0  0
  180.5780  180.9740  140.3350 O   0  0  0  0  0  1  0  0  0  0  0  0
  179.7990  178.8270  139.6150 C   0  0  2  0  0  3  0  0  0  0  0  0
  179.3090  177.3440  137.7090 C   0  0  0  0  0  2  0  0  0  0  0  0
  179.5450  175.3530  138.9740 O   0  0  0  0  0  0  0  0  0  0  0  0
  179.5870  176.5700  138.9370 C   0  0  0  0  0  0  0  0  0  0  0  0
  179.9520  177.3940  140.1070 C   0  0  0  0  0  2  0  0  0  0  0  0
  179.6650  178.7690  138.0880 C   0  0  0  0  0  2  0  0  0  0  0  0
  189.8170  176.7950  140.0560 C   0  0  0  0  0  2  0  0  0  0  0  0
  187.8090  176.8160  136.8440 C   0  0  0  0  0  3  0  0  0  0  0  0
  187.8690  178.1660  136.4810 C   0  0  0  0  0  0  0  0  0  0  0  0
  189.1910  178.6260  138.4680 C   0  0  0  0  0  3  0  0  0  0  0  0
  188.4350  176.3710  138.0120 C   0  0  0  0  0  3  0  0  0  0  0  0
  189.1220  177.2750  138.8280 C   0  0  0  0  0  0  0  0  0  0  0  0
  188.5650  179.0720  137.3000 C   0  0  0  0  0  3  0  0  0  0  0  0
  187.2350  178.5790  135.3060 O   0  0  0  0  0  0  0  0  0  0  0  0
  186.3090  177.7590  134.6040 C   0  0  0  0  0  1  0  0  0  0  0  0
  189.2100  178.1100  146.0910 C   0  0  0  0  0  2  0  0  0  0  0  0
  188.1180  177.1180  148.1130 C   0  0  0  0  0  3  0  0  0  0  0  0
  188.4710  177.0300  146.8250 C   0  0  0  0  0  3  0  0  0  0  0  0
  188.4400  178.3030  148.9640 C   0  0  0  0  0  1  0  0  0  0  0  0
  1  8  1  1  0  0  0
  1  7  1  0  0  0  0
  2 12  1  1  0  0  0
  2  6  1  0  0  0  0
  3  5  1  1  0  0  0
  4  3  1  0  0  0  0
  4 40  1  0  0  0  0
  6  7  1  0  0  0  0
  7  4  2  0  0  0  0
  8 11  1  0  0  0  0
  9  1  1  0  0  0  0
 10  9  1  0  0  0  0
 10  2  1  0  0  0  0
 11  3  1  0  0  0  0
 12 13  1  1  0  0  0
 14 12  1  0  0  0  0
 15 14  1  0  0  0  0
 15 16  1  6  0  0  0
 17 21  1  1  0  0  0
 17 15  1  0  0  0  0
 18 19  1  0  0  0  0
 19 17  1  0  0  0  0
 20 18  1  0  0  0  0
 20 19  1  0  0  0  0
 21 22  1  1  0  0  0
 21 23  1  0  0  0  0
 23 24  1  6  0  0  0
 25 23  1  6  0  0  0
 25 29  1  0  0  0  0
 26 30  1  0  0  0  0
 26 28  1  0  0  0  0
 28 27  2  0  0  0  0
 28 29  1  0  0  0  0
 30 25  1  0  0  0  0
 31  9  1  0  0  0  0
 32 35  1  0  0  0  0
 33 32  2  0  0  0  0
 33 37  1  0  0  0  0
 34 36  1  0  0  0  0
 35 36  2  0  0  0  0
 36 31  1  0  0  0  0
 37 34  2  0  0  0  0
 38 33  1  0  0  0  0
 39 38  1  0  0  0  0
 40 42  1  0  0  0  0
 41 43  1  0  0  0  0
 42 41  2  0  0  0  0
M  END
>  <MODEL>
7

>  <REMARK>
 VINA RESULT:      -7.5      2.668      6.267
  Name = 
  13 active torsions:
  status: ('A' for Active; 'I' for Inactive)
    1  A    between atoms: C_1  and  N_34
    2  A    between atoms: C_1  and  C_35
    3  A    between atoms: C_2  and  C_6
    4  A    between atoms: C_2  and  C_13
    5  A    between atoms: C_3  and  C_4
    6  A    between atoms: C_3  and  C_12
    7  A    between atoms: C_3  and  C_15
    8  A    between atoms: C_4  and  C_14
    9  A    between atoms: C_6  and  C_12
   10  A    between atoms: C_11  and  C_14
   11  A    between atoms: C_18  and  C_24
   12  A    between atoms: C_19  and  O_25
   13  A    between atoms: C_21  and  C_24
                            x       y       z     vdW  Elec       q    Type
                         _______ _______ _______ _____ _____    ______ ____

>  <TORSDO>
F 13

$$$$
=
 OpenBabel11052416303D

 43 47  0  0  1  0  0  0  0  0999 V2000
  185.1190  178.1570  144.4720 C   0  0  2  0  0  3  0  0  0  0  0  0
  187.6270  178.1880  142.9670 C   0  0  1  0  0  3  0  0  0  0  0  0
  182.7680  179.1970  142.9990 C   0  0  1  0  0  3  0  0  0  0  0  0
  184.0260  178.7570  142.2770 C   0  0  0  0  0  0  0  0  0  0  0  0
  181.6320  178.7800  142.3000 O   0  0  0  0  0  1  0  0  0  0  0  0
  186.3450  177.8860  142.2020 C   0  0  0  0  0  2  0  0  0  0  0  0
  185.1340  178.3670  142.9580 C   0  0  0  0  0  0  0  0  0  0  0  0
  183.9990  178.9650  145.1340 C   0  0  0  0  0  2  0  0  0  0  0  0
  186.4200  178.5060  145.0690 N   0  0  0  0  0  0  0  0  0  0  0  0
  187.4810  177.7380  144.4190 C   0  0  0  0  0  2  0  0  0  0  0  0
  182.6890  178.6800  144.4280 C   0  0  0  0  0  2  0  0  0  0  0  0
  188.8300  177.5500  142.2680 C   0  0  1  0  0  3  0  0  0  0  0  0
  189.0510  176.1320  142.7690 C   0  0  0  0  0  1  0  0  0  0  0  0
  188.7030  177.5700  140.7470 C   0  0  0  0  0  2  0  0  0  0  0  0
  189.9930  177.1690  140.0190 C   0  0  2  0  0  3  0  0  0  0  0  0
  191.1070  177.8590  140.5070 O   0  0  0  0  0  1  0  0  0  0  0  0
  189.9320  177.1330  138.4720 C   0  0  1  0  0  3  0  0  0  0  0  0
  191.4320  175.3160  137.6600 C   0  0  0  0  0  2  0  0  0  0  0  0
  189.9890  175.7230  137.8860 C   0  0  0  0  0  3  0  0  0  0  0  0
  190.5850  175.7670  136.4920 C   0  0  0  0  0  2  0  0  0  0  0  0
  188.8650  177.9950  137.7770 C   0  0  2  0  0  3  0  0  0  0  0  0
  189.0540  179.3550  138.0420 O   0  0  0  0  0  1  0  0  0  0  0  0
  187.4200  177.5520  138.0270 C   0  0  1  0  0  3  0  0  0  0  0  0
  186.6500  178.6280  138.4850 O   0  0  0  0  0  1  0  0  0  0  0  0
  186.7990  176.9740  136.7590 C   0  0  2  0  0  3  0  0  0  0  0  0
  185.3610  175.0350  136.2630 C   0  0  0  0  0  2  0  0  0  0  0  0
  183.4120  176.3450  135.9330 O   0  0  0  0  0  0  0  0  0  0  0  0
  184.5970  176.2990  136.2130 C   0  0  0  0  0  0  0  0  0  0  0  0
  185.3830  177.5000  136.5630 C   0  0  0  0  0  2  0  0  0  0  0  0
  186.7070  175.4450  136.8300 C   0  0  0  0  0  2  0  0  0  0  0  0
  186.4190  178.0730  146.4630 C   0  0  0  0  0  2  0  0  0  0  0  0
  189.5820  178.0650  148.5470 C   0  0  0  0  0  3  0  0  0  0  0  0
  190.4590  177.3440  147.7290 C   0  0  0  0  0  0  0  0  0  0  0  0
  188.6870  177.0830  146.0860 C   0  0  0  0  0  3  0  0  0  0  0  0
  188.2640  178.2940  148.1390 C   0  0  0  0  0  3  0  0  0  0  0  0
  187.8140  177.8000  146.9120 C   0  0  0  0  0  0  0  0  0  0  0  0
  190.0040  176.8530  146.4930 C   0  0  0  0  0  3  0  0  0  0  0  0
  191.7700  177.1330  148.1640 O   0  0  0  0  0  0  0  0  0  0  0  0
  192.4340  175.8830  148.0250 C   0  0  0  0  0  1  0  0  0  0  0  0
  184.0740  178.9340  140.7810 C   0  0  0  0  0  2  0  0  0  0  0  0
  182.6580  177.6340  139.1790 C   0  0  0  0  0  3  0  0  0  0  0  0
  183.6450  177.6780  140.0810 C   0  0  0  0  0  3  0  0  0  0  0  0
  181.8630  178.8350  138.7850 C   0  0  0  0  0  1  0  0  0  0  0  0
  1  9  1  0  0  0  0
  1  8  1  1  0  0  0
  2 12  1  6  0  0  0
  2 10  1  0  0  0  0
  3  5  1  6  0  0  0
  3 11  1  0  0  0  0
  4  7  2  0  0  0  0
  4  3  1  0  0  0  0
  6  7  1  0  0  0  0
  6  2  1  0  0  0  0
  7  1  1  0  0  0  0
  9 31  1  0  0  0  0
 10  9  1  0  0  0  0
 11  8  1  0  0  0  0
 12 13  1  1  0  0  0
 14 12  1  0  0  0  0
 15 16  1  6  0  0  0
 15 14  1  0  0  0  0
 17 21  1  1  0  0  0
 17 15  1  0  0  0  0
 18 19  1  0  0  0  0
 19 17  1  0  0  0  0
 20 18  1  0  0  0  0
 20 19  1  0  0  0  0
 21 23  1  0  0  0  0
 21 22  1  1  0  0  0
 23 24  1  6  0  0  0
 25 30  1  0  0  0  0
 25 23  1  1  0  0  0
 26 30  1  0  0  0  0
 27 28  2  0  0  0  0
 28 26  1  0  0  0  0
 28 29  1  0  0  0  0
 29 25  1  0  0  0  0
 31 36  1  0  0  0  0
 33 38  1  0  0  0  0
 33 32  2  0  0  0  0
 34 37  2  0  0  0  0
 34 36  1  0  0  0  0
 35 32  1  0  0  0  0
 36 35  2  0  0  0  0
 37 33  1  0  0  0  0
 39 38  1  0  0  0  0
 40  4  1  0  0  0  0
 41 42  2  0  0  0  0
 42 40  1  0  0  0  0
 43 41  1  0  0  0  0
M  END
>  <MODEL>
8

>  <REMARK>
 VINA RESULT:      -7.3      1.995      6.263
  Name = 
  13 active torsions:
  status: ('A' for Active; 'I' for Inactive)
    1  A    between atoms: C_1  and  N_34
    2  A    between atoms: C_1  and  C_35
    3  A    between atoms: C_2  and  C_6
    4  A    between atoms: C_2  and  C_13
    5  A    between atoms: C_3  and  C_4
    6  A    between atoms: C_3  and  C_12
    7  A    between atoms: C_3  and  C_15
    8  A    between atoms: C_4  and  C_14
    9  A    between atoms: C_6  and  C_12
   10  A    between atoms: C_11  and  C_14
   11  A    between atoms: C_18  and  C_24
   12  A    between atoms: C_19  and  O_25
   13  A    between atoms: C_21  and  C_24
                            x       y       z     vdW  Elec       q    Type
                         _______ _______ _______ _____ _____    ______ ____

>  <TORSDO>
F 13

$$$$
=
 OpenBabel11052416303D

 43 47  0  0  1  0  0  0  0  0999 V2000
  189.8620  176.9800  142.6310 C   0  0  2  0  0  3  0  0  0  0  0  0
  187.2410  178.2510  142.3650 C   0  0  1  0  0  3  0  0  0  0  0  0
  191.2330  177.4760  145.2110 C   0  0  1  0  0  3  0  0  0  0  0  0
  189.7420  177.6940  145.0500 C   0  0  0  0  0  0  0  0  0  0  0  0
  191.5100  176.8820  146.4450 O   0  0  0  0  0  1  0  0  0  0  0  0
  187.6390  177.7260  143.7390 C   0  0  0  0  0  2  0  0  0  0  0  0
  189.1320  177.5530  143.8450 C   0  0  0  0  0  0  0  0  0  0  0  0
  191.3780  177.1580  142.7600 C   0  0  0  0  0  2  0  0  0  0  0  0
  189.3810  177.5950  141.3820 N   0  0  0  0  0  0  0  0  0  0  0  0
  187.9330  177.4300  141.2790 C   0  0  0  0  0  2  0  0  0  0  0  0
  191.8340  176.6240  144.1030 C   0  0  0  0  0  2  0  0  0  0  0  0
  185.7180  178.2640  142.2170 C   0  0  1  0  0  3  0  0  0  0  0  0
  185.0530  178.5770  143.5490 C   0  0  0  0  0  1  0  0  0  0  0  0
  185.2420  179.2340  141.1380 C   0  0  0  0  0  2  0  0  0  0  0  0
  184.9210  178.5530  139.8020 C   0  0  2  0  0  3  0  0  0  0  0  0
  185.2380  179.3650  138.7090 O   0  0  0  0  0  1  0  0  0  0  0  0
  183.5260  177.8910  139.6800 C   0  0  1  0  0  3  0  0  0  0  0  0
  182.0100  178.6640  141.5010 C   0  0  0  0  0  2  0  0  0  0  0  0
  182.3680  178.8220  140.0350 C   0  0  0  0  0  3  0  0  0  0  0  0
  181.1550  178.0070  140.4410 C   0  0  0  0  0  2  0  0  0  0  0  0
  183.2300  177.0730  138.4120 C   0  0  2  0  0  3  0  0  0  0  0  0
  182.1670  177.6200  137.6870 O   0  0  0  0  0  1  0  0  0  0  0  0
  183.0590  175.5680  138.6440 C   0  0  1  0  0  3  0  0  0  0  0  0
  181.7300  175.2710  138.9680 O   0  0  0  0  0  1  0  0  0  0  0  0
  183.4830  174.7740  137.4130 C   0  0  2  0  0  3  0  0  0  0  0  0
  184.7760  172.7080  137.0450 C   0  0  0  0  0  2  0  0  0  0  0  0
  182.8680  171.4010  136.5240 O   0  0  0  0  0  0  0  0  0  0  0  0
  183.3290  172.4800  136.8510 C   0  0  0  0  0  0  0  0  0  0  0  0
  182.4850  173.6630  137.1170 C   0  0  0  0  0  2  0  0  0  0  0  0
  184.8500  174.1100  137.6210 C   0  0  0  0  0  2  0  0  0  0  0  0
  189.9430  176.8540  140.2570 C   0  0  0  0  0  2  0  0  0  0  0  0
  188.6780  178.9900  137.3960 C   0  0  0  0  0  3  0  0  0  0  0  0
  187.9550  178.0570  136.6440 C   0  0  0  0  0  0  0  0  0  0  0  0
  188.5470  176.3290  138.2470 C   0  0  0  0  0  3  0  0  0  0  0  0
  189.3320  178.5970  138.5670 C   0  0  0  0  0  3  0  0  0  0  0  0
  189.2730  177.2660  138.9910 C   0  0  0  0  0  0  0  0  0  0  0  0
  187.8930  176.7210  137.0760 C   0  0  0  0  0  3  0  0  0  0  0  0
  187.3100  178.4820  135.4790 O   0  0  0  0  0  0  0  0  0  0  0  0
  186.3010  177.7140  134.8350 C   0  0  0  0  0  1  0  0  0  0  0  0
  188.9820  178.2440  146.2290 C   0  0  0  0  0  2  0  0  0  0  0  0
  186.7590  177.5040  147.1080 C   0  0  0  0  0  3  0  0  0  0  0  0
  188.0230  177.2250  146.7700 C   0  0  0  0  0  3  0  0  0  0  0  0
  186.1720  178.8730  146.9960 C   0  0  0  0  0  1  0  0  0  0  0  0
  1  8  1  1  0  0  0
  1  7  1  0  0  0  0
  2 12  1  6  0  0  0
  2  6  1  0  0  0  0
  3  5  1  1  0  0  0
  4  3  1  0  0  0  0
  4 40  1  0  0  0  0
  6  7  1  0  0  0  0
  7  4  2  0  0  0  0
  8 11  1  0  0  0  0
  9  1  1  0  0  0  0
 10  9  1  0  0  0  0
 10  2  1  0  0  0  0
 11  3  1  0  0  0  0
 12 13  1  1  0  0  0
 14 12  1  0  0  0  0
 15 16  1  6  0  0  0
 15 14  1  0  0  0  0
 17 21  1  6  0  0  0
 17 15  1  0  0  0  0
 17 19  1  0  0  0  0
 19 20  1  0  0  0  0
 19 18  1  0  0  0  0
 20 18  1  0  0  0  0
 21 22  1  1  0  0  0
 21 23  1  0  0  0  0
 23 24  1  6  0  0  0
 25 30  1  0  0  0  0
 25 23  1  1  0  0  0
 26 30  1  0  0  0  0
 27 28  2  0  0  0  0
 28 26  1  0  0  0  0
 28 29  1  0  0  0  0
 29 25  1  0  0  0  0
 31  9  1  0  0  0  0
 32 35  1  0  0  0  0
 33 37  1  0  0  0  0
 33 32  2  0  0  0  0
 34 36  1  0  0  0  0
 35 36  2  0  0  0  0
 36 31  1  0  0  0  0
 37 34  2  0  0  0  0
 38 33  1  0  0  0  0
 39 38  1  0  0  0  0
 40 42  1  0  0  0  0
 42 41  2  0  0  0  0
 43 41  1  0  0  0  0
M  END
>  <MODEL>
9

>  <REMARK>
 VINA RESULT:      -7.3      2.131      5.617
  Name = 
  13 active torsions:
  status: ('A' for Active; 'I' for Inactive)
    1  A    between atoms: C_1  and  N_34
    2  A    between atoms: C_1  and  C_35
    3  A    between atoms: C_2  and  C_6
    4  A    between atoms: C_2  and  C_13
    5  A    between atoms: C_3  and  C_4
    6  A    between atoms: C_3  and  C_12
    7  A    between atoms: C_3  and  C_15
    8  A    between atoms: C_4  and  C_14
    9  A    between atoms: C_6  and  C_12
   10  A    between atoms: C_11  and  C_14
   11  A    between atoms: C_18  and  C_24
   12  A    between atoms: C_19  and  O_25
   13  A    between atoms: C_21  and  C_24
                            x       y       z     vdW  Elec       q    Type
                         _______ _______ _______ _____ _____    ______ ____

>  <TORSDO>
F 13

$$$$
