=
 OpenBabel11052412453D

 25 28  0  0  0  0  0  0  0  0999 V2000
  187.4430  177.7940  145.7770 C   0  0  0  0  0  0  0  0  0  0  0  0
  188.7410  177.3290  145.5390 C   0  0  0  0  0  0  0  0  0  0  0  0
  187.9120  177.8330  148.1490 C   0  0  0  0  0  3  0  0  0  0  0  0
  186.4010  178.0770  144.8850 C   0  0  0  0  0  0  0  0  0  0  0  0
  184.8440  178.4850  143.3380 C   0  0  0  0  0  3  0  0  0  0  0  0
  189.1450  177.3910  147.8980 O   0  0  0  0  0  0  0  0  0  0  0  0
  185.2750  178.5120  145.4880 C   0  0  0  0  0  0  0  0  0  0  0  0
  184.2750  178.7810  144.5830 C   0  0  0  0  0  3  0  0  0  0  0  0
  190.8930  176.6750  146.4480 C   0  0  0  0  0  0  0  0  0  0  0  0
  191.8270  176.4580  147.5890 C   0  0  0  0  0  1  0  0  0  0  0  0
  189.2000  177.0640  144.2880 N   0  0  0  0  0  0  0  0  0  0  0  0
  187.0820  177.6470  142.4360 C   0  0  0  0  0  1  0  0  0  0  0  0
  187.0390  178.0420  147.0890 C   0  0  0  0  0  0  0  0  0  0  0  0
  185.4320  178.5980  147.1620 S   0  0  0  0  0  0  0  0  0  0  0  0
  191.3330  176.4150  145.1480 C   0  0  0  0  0  3  0  0  0  0  0  0
  186.1570  178.0500  143.5300 C   0  0  0  0  0  0  0  0  0  0  0  0
  190.4640  176.6120  144.0720 C   0  0  0  0  0  0  0  0  0  0  0  0
  189.5870  177.1360  146.6610 C   0  0  0  0  0  0  0  0  0  0  0  0
  190.9330  176.3550  142.6840 C   0  0  0  0  0  2  0  0  0  0  0  0
  190.7830  177.6110  141.8460 C   0  0  0  0  0  2  0  0  0  0  0  0
  190.2060  177.2650  140.5120 C   0  0  0  0  0  0  0  0  0  0  0  0
  190.5890  176.2150  139.9340 O   0  0  0  0  0  0  0  0  0  0  0  0
  189.2760  178.0920  139.8780 O   0  0  0  0  0  0  0  0  0  0  0  0
  189.2890  178.3110  138.5020 C   0  0  0  0  0  3  0  0  0  0  0  0
  188.9640  179.4360  138.0430 O   0  0  0  0  0  0  0  0  0  0  0  0
  1 13  1  0  0  0  0
  2  1  1  0  0  0  0
  2 18  1  0  0  0  0
  4  7  1  0  0  0  0
  4  1  2  0  0  0  0
  5 16  2  0  0  0  0
  5  8  1  0  0  0  0
  6  3  1  0  0  0  0
  7 14  1  0  0  0  0
  8  7  2  0  0  0  0
  9 18  2  0  0  0  0
  9 10  1  0  0  0  0
 11  2  2  0  0  0  0
 12 16  1  0  0  0  0
 13 14  1  0  0  0  0
 13  3  2  0  0  0  0
 15  9  1  0  0  0  0
 16  4  1  0  0  0  0
 17 11  1  0  0  0  0
 17 15  2  0  0  0  0
 18  6  1  0  0  0  0
 19 17  1  0  0  0  0
 20 19  1  0  0  0  0
 21 20  1  0  0  0  0
 22 21  2  0  0  0  0
 23 21  1  0  0  0  0
 24 23  1  0  0  0  0
 25 24  2  0  0  0  0
M  END
>  <MODEL>
1

>  <REMARK>
 VINA RESULT:      -9.2      0.000      0.000
  Name = 
  5 active torsions:
  status: ('A' for Active; 'I' for Inactive)
    1  A    between atoms: C_2  and  O_12
    2  A    between atoms: C_6  and  C_15
    3  A    between atoms: C_6  and  C_23
    4  A    between atoms: O_12  and  C_21
    5  A    between atoms: C_15  and  C_21
                            x       y       z     vdW  Elec       q    Type
                         _______ _______ _______ _____ _____    ______ ____

>  <TORSDO>
F 5

$$$$
=
 OpenBabel11052412453D

 25 28  0  0  0  0  0  0  0  0999 V2000
  187.7030  177.7320  145.8220 C   0  0  0  0  0  0  0  0  0  0  0  0
  189.0300  177.3010  145.7230 C   0  0  0  0  0  0  0  0  0  0  0  0
  187.9380  177.8400  148.2270 C   0  0  0  0  0  3  0  0  0  0  0  0
  186.7450  177.9630  144.8270 C   0  0  0  0  0  0  0  0  0  0  0  0
  185.3350  178.2880  143.1260 C   0  0  0  0  0  3  0  0  0  0  0  0
  189.2010  177.4300  148.1080 O   0  0  0  0  0  0  0  0  0  0  0  0
  185.5540  178.3780  145.3070 C   0  0  0  0  0  0  0  0  0  0  0  0
  184.6400  178.5960  144.3030 C   0  0  0  0  0  3  0  0  0  0  0  0
  191.1010  176.7330  146.8520 C   0  0  0  0  0  0  0  0  0  0  0  0
  191.9250  176.5710  148.0830 C   0  0  0  0  0  1  0  0  0  0  0  0
  189.6160  177.0220  144.5290 N   0  0  0  0  0  0  0  0  0  0  0  0
  187.6720  177.4980  142.4670 C   0  0  0  0  0  1  0  0  0  0  0  0
  187.1660  177.9980  147.0820 C   0  0  0  0  0  0  0  0  0  0  0  0
  185.5450  178.5070  146.9850 S   0  0  0  0  0  0  0  0  0  0  0  0
  191.6720  176.4560  145.6080 C   0  0  0  0  0  3  0  0  0  0  0  0
  186.6350  177.8980  143.4550 C   0  0  0  0  0  0  0  0  0  0  0  0
  190.9060  176.6020  144.4480 C   0  0  0  0  0  0  0  0  0  0  0  0
  189.7680  177.1590  146.9260 C   0  0  0  0  0  0  0  0  0  0  0  0
  191.5160  176.3270  143.1190 C   0  0  0  0  0  2  0  0  0  0  0  0
  191.5430  177.5980  142.2890 C   0  0  0  0  0  2  0  0  0  0  0  0
  191.5830  177.2540  140.8370 C   0  0  0  0  0  0  0  0  0  0  0  0
  192.5620  177.6350  140.1450 O   0  0  0  0  0  0  0  0  0  0  0  0
  190.5480  176.5450  140.2220 O   0  0  0  0  0  0  0  0  0  0  0  0
  190.5120  176.3220  138.8470 C   0  0  0  0  0  3  0  0  0  0  0  0
  190.6960  175.1630  138.3940 O   0  0  0  0  0  0  0  0  0  0  0  0
  1 13  1  0  0  0  0
  2  1  1  0  0  0  0
  2 18  1  0  0  0  0
  4  7  1  0  0  0  0
  4  1  2  0  0  0  0
  5 16  2  0  0  0  0
  5  8  1  0  0  0  0
  6  3  1  0  0  0  0
  7 14  1  0  0  0  0
  8  7  2  0  0  0  0
  9 18  2  0  0  0  0
  9 10  1  0  0  0  0
 11  2  2  0  0  0  0
 12 16  1  0  0  0  0
 13  3  2  0  0  0  0
 14 13  1  0  0  0  0
 15  9  1  0  0  0  0
 16  4  1  0  0  0  0
 17 11  1  0  0  0  0
 17 15  2  0  0  0  0
 18  6  1  0  0  0  0
 19 17  1  0  0  0  0
 20 19  1  0  0  0  0
 21 20  1  0  0  0  0
 22 21  2  0  0  0  0
 23 21  1  0  0  0  0
 24 23  1  0  0  0  0
 25 24  2  0  0  0  0
M  END
>  <MODEL>
2

>  <REMARK>
 VINA RESULT:      -9.2      1.133      1.321
  Name = 
  5 active torsions:
  status: ('A' for Active; 'I' for Inactive)
    1  A    between atoms: C_2  and  O_12
    2  A    between atoms: C_6  and  C_15
    3  A    between atoms: C_6  and  C_23
    4  A    between atoms: O_12  and  C_21
    5  A    between atoms: C_15  and  C_21
                            x       y       z     vdW  Elec       q    Type
                         _______ _______ _______ _____ _____    ______ ____

>  <TORSDO>
F 5

$$$$
=
 OpenBabel11052412453D

 25 28  0  0  0  0  0  0  0  0999 V2000
  186.3930  178.3530  142.8690 C   0  0  0  0  0  0  0  0  0  0  0  0
  187.5410  178.0820  142.1160 C   0  0  0  0  0  0  0  0  0  0  0  0
  185.2530  179.0340  140.8470 C   0  0  0  0  0  3  0  0  0  0  0  0
  186.1550  178.2270  144.2430 C   0  0  0  0  0  0  0  0  0  0  0  0
  185.9340  177.9670  146.4500 C   0  0  0  0  0  3  0  0  0  0  0  0
  186.3590  178.7670  140.1510 O   0  0  0  0  0  0  0  0  0  0  0  0
  184.9090  178.5890  144.6130 C   0  0  0  0  0  0  0  0  0  0  0  0
  184.7110  178.4500  145.9670 C   0  0  0  0  0  3  0  0  0  0  0  0
  188.6170  178.0400  139.9430 C   0  0  0  0  0  0  0  0  0  0  0  0
  188.6090  178.2540  138.4680 C   0  0  0  0  0  1  0  0  0  0  0  0
  188.6860  177.6180  142.6820 N   0  0  0  0  0  0  0  0  0  0  0  0
  188.2220  177.3400  145.5040 C   0  0  0  0  0  1  0  0  0  0  0  0
  185.2530  178.8310  142.2220 C   0  0  0  0  0  0  0  0  0  0  0  0
  183.9720  179.0960  143.3100 S   0  0  0  0  0  0  0  0  0  0  0  0
  189.7770  177.5620  140.5550 C   0  0  0  0  0  3  0  0  0  0  0  0
  186.8230  177.8310  145.3810 C   0  0  0  0  0  0  0  0  0  0  0  0
  189.7950  177.3600  141.9380 C   0  0  0  0  0  0  0  0  0  0  0  0
  187.4810  178.3080  140.7180 C   0  0  0  0  0  0  0  0  0  0  0  0
  191.0220  176.8320  142.5940 C   0  0  0  0  0  2  0  0  0  0  0  0
  191.3170  177.6240  143.8550 C   0  0  0  0  0  2  0  0  0  0  0  0
  191.6920  176.6940  144.9610 C   0  0  0  0  0  0  0  0  0  0  0  0
  191.9220  175.4860  144.6940 O   0  0  0  0  0  0  0  0  0  0  0  0
  191.7660  177.1240  146.2880 O   0  0  0  0  0  0  0  0  0  0  0  0
  191.7640  176.2350  147.3610 C   0  0  0  0  0  3  0  0  0  0  0  0
  192.8420  175.9550  147.9450 O   0  0  0  0  0  0  0  0  0  0  0  0
  1  4  2  0  0  0  0
  2 11  1  0  0  0  0
  2  1  1  0  0  0  0
  3 13  2  0  0  0  0
  4  7  1  0  0  0  0
  4 16  1  0  0  0  0
  6 18  1  0  0  0  0
  6  3  1  0  0  0  0
  7  8  2  0  0  0  0
  8  5  1  0  0  0  0
  9 15  2  0  0  0  0
  9 18  1  0  0  0  0
 10  9  1  0  0  0  0
 13  1  1  0  0  0  0
 13 14  1  0  0  0  0
 14  7  1  0  0  0  0
 15 17  1  0  0  0  0
 16 12  1  0  0  0  0
 16  5  2  0  0  0  0
 17 19  1  0  0  0  0
 17 11  2  0  0  0  0
 18  2  2  0  0  0  0
 19 20  1  0  0  0  0
 20 21  1  0  0  0  0
 21 23  1  0  0  0  0
 22 21  2  0  0  0  0
 23 24  1  0  0  0  0
 24 25  2  0  0  0  0
M  END
>  <MODEL>
3

>  <REMARK>
 VINA RESULT:      -9.2      1.998      5.529
  Name = 
  5 active torsions:
  status: ('A' for Active; 'I' for Inactive)
    1  A    between atoms: C_2  and  O_12
    2  A    between atoms: C_6  and  C_15
    3  A    between atoms: C_6  and  C_23
    4  A    between atoms: O_12  and  C_21
    5  A    between atoms: C_15  and  C_21
                            x       y       z     vdW  Elec       q    Type
                         _______ _______ _______ _____ _____    ______ ____

>  <TORSDO>
F 5

$$$$
=
 OpenBabel11052412453D

 25 28  0  0  0  0  0  0  0  0999 V2000
  187.4700  177.9050  145.9380 C   0  0  0  0  0  0  0  0  0  0  0  0
  186.6650  178.1410  144.8170 C   0  0  0  0  0  0  0  0  0  0  0  0
  185.6080  178.4820  147.3710 C   0  0  0  0  0  3  0  0  0  0  0  0
  188.8070  177.4980  146.0280 C   0  0  0  0  0  0  0  0  0  0  0  0
  190.9420  176.8450  146.0030 C   0  0  0  0  0  3  0  0  0  0  0  0
  184.8610  178.6990  146.2880 O   0  0  0  0  0  0  0  0  0  0  0  0
  189.2520  177.3750  147.2960 C   0  0  0  0  0  0  0  0  0  0  0  0
  190.5650  176.9730  147.3460 C   0  0  0  0  0  3  0  0  0  0  0  0
  184.4990  178.7850  143.9360 C   0  0  0  0  0  0  0  0  0  0  0  0
  183.0820  179.2100  144.1130 C   0  0  0  0  0  1  0  0  0  0  0  0
  187.1270  177.9920  143.5480 N   0  0  0  0  0  0  0  0  0  0  0  0
  189.8690  177.1480  143.7050 C   0  0  0  0  0  1  0  0  0  0  0  0
  186.9290  178.0800  147.2120 C   0  0  0  0  0  0  0  0  0  0  0  0
  188.0670  177.7450  148.4320 S   0  0  0  0  0  0  0  0  0  0  0  0
  185.0050  178.6210  142.6450 C   0  0  0  0  0  3  0  0  0  0  0  0
  189.8520  177.1710  145.1920 C   0  0  0  0  0  0  0  0  0  0  0  0
  186.3340  178.2260  142.4680 C   0  0  0  0  0  0  0  0  0  0  0  0
  185.3260  178.5470  145.0420 C   0  0  0  0  0  0  0  0  0  0  0  0
  186.8730  178.0310  141.0950 C   0  0  0  0  0  2  0  0  0  0  0  0
  188.2240  178.7110  140.9680 C   0  0  0  0  0  2  0  0  0  0  0  0
  188.8870  178.2870  139.6990 C   0  0  0  0  0  0  0  0  0  0  0  0
  188.9340  179.0930  138.7340 O   0  0  0  0  0  0  0  0  0  0  0  0
  189.4310  177.0090  139.5460 O   0  0  0  0  0  0  0  0  0  0  0  0
  190.7990  176.7650  139.6420 C   0  0  0  0  0  3  0  0  0  0  0  0
  191.5100  177.4640  140.4100 O   0  0  0  0  0  0  0  0  0  0  0  0
  1  4  2  0  0  0  0
  1 13  1  0  0  0  0
  2 18  1  0  0  0  0
  2  1  1  0  0  0  0
  4  7  1  0  0  0  0
  5  8  1  0  0  0  0
  6  3  1  0  0  0  0
  7  8  2  0  0  0  0
  7 14  1  0  0  0  0
  9 10  1  0  0  0  0
  9 18  2  0  0  0  0
 11  2  2  0  0  0  0
 12 16  1  0  0  0  0
 13  3  2  0  0  0  0
 13 14  1  0  0  0  0
 15  9  1  0  0  0  0
 16  5  2  0  0  0  0
 16  4  1  0  0  0  0
 17 15  2  0  0  0  0
 17 11  1  0  0  0  0
 18  6  1  0  0  0  0
 19 17  1  0  0  0  0
 20 19  1  0  0  0  0
 21 20  1  0  0  0  0
 22 21  2  0  0  0  0
 23 24  1  0  0  0  0
 23 21  1  0  0  0  0
 24 25  2  0  0  0  0
M  END
>  <MODEL>
4

>  <REMARK>
 VINA RESULT:      -9.0      1.579      4.539
  Name = 
  5 active torsions:
  status: ('A' for Active; 'I' for Inactive)
    1  A    between atoms: C_2  and  O_12
    2  A    between atoms: C_6  and  C_15
    3  A    between atoms: C_6  and  C_23
    4  A    between atoms: O_12  and  C_21
    5  A    between atoms: C_15  and  C_21
                            x       y       z     vdW  Elec       q    Type
                         _______ _______ _______ _____ _____    ______ ____

>  <TORSDO>
F 5

$$$$
=
 OpenBabel11052412453D

 25 28  0  0  0  0  0  0  0  0999 V2000
  189.4640  177.4690  144.1840 C   0  0  0  0  0  0  0  0  0  0  0  0
  188.8510  177.7820  142.9650 C   0  0  0  0  0  0  0  0  0  0  0  0
  191.4880  176.8880  142.9930 C   0  0  0  0  0  3  0  0  0  0  0  0
  188.9690  177.5250  145.4930 C   0  0  0  0  0  0  0  0  0  0  0  0
  188.0330  177.6720  147.5150 C   0  0  0  0  0  3  0  0  0  0  0  0
  190.8830  177.1930  141.8440 O   0  0  0  0  0  0  0  0  0  0  0  0
  189.8620  177.1410  146.4270 C   0  0  0  0  0  0  0  0  0  0  0  0
  189.3430  177.2100  147.6980 C   0  0  0  0  0  3  0  0  0  0  0  0
  189.0270  177.9380  140.5510 C   0  0  0  0  0  0  0  0  0  0  0  0
  189.7870  177.7980  139.2770 C   0  0  0  0  0  1  0  0  0  0  0  0
  187.5670  178.2210  142.8910 N   0  0  0  0  0  0  0  0  0  0  0  0
  186.5280  178.3540  145.5670 C   0  0  0  0  0  1  0  0  0  0  0  0
  190.7860  177.0210  144.1850 C   0  0  0  0  0  0  0  0  0  0  0  0
  191.3420  176.6970  145.7600 S   0  0  0  0  0  0  0  0  0  0  0  0
  187.7060  178.3880  140.5100 C   0  0  0  0  0  3  0  0  0  0  0  0
  187.8070  177.8650  146.1500 C   0  0  0  0  0  0  0  0  0  0  0  0
  186.9830  178.5200  141.7000 C   0  0  0  0  0  0  0  0  0  0  0  0
  189.6180  177.6270  141.7830 C   0  0  0  0  0  0  0  0  0  0  0  0
  185.5820  179.0180  141.6640 C   0  0  0  0  0  2  0  0  0  0  0  0
  184.6850  178.0970  142.4710 C   0  0  0  0  0  2  0  0  0  0  0  0
  183.5350  178.8710  143.0290 C   0  0  0  0  0  0  0  0  0  0  0  0
  183.7150  179.5810  144.0510 O   0  0  0  0  0  0  0  0  0  0  0  0
  182.2600  178.8020  142.4610 O   0  0  0  0  0  0  0  0  0  0  0  0
  181.1160  179.2000  143.1490 C   0  0  0  0  0  3  0  0  0  0  0  0
  180.5030  180.2410  142.7980 O   0  0  0  0  0  0  0  0  0  0  0  0
  1 13  1  0  0  0  0
  1  4  2  0  0  0  0
  2  1  1  0  0  0  0
  3 13  2  0  0  0  0
  4 16  1  0  0  0  0
  4  7  1  0  0  0  0
  5  8  1  0  0  0  0
  6  3  1  0  0  0  0
  7  8  2  0  0  0  0
  9 18  1  0  0  0  0
 10  9  1  0  0  0  0
 11  2  1  0  0  0  0
 12 16  1  0  0  0  0
 13 14  1  0  0  0  0
 14  7  1  0  0  0  0
 15  9  2  0  0  0  0
 15 17  1  0  0  0  0
 16  5  2  0  0  0  0
 17 11  2  0  0  0  0
 18  6  1  0  0  0  0
 18  2  2  0  0  0  0
 19 17  1  0  0  0  0
 19 20  1  0  0  0  0
 20 21  1  0  0  0  0
 21 22  2  0  0  0  0
 23 21  1  0  0  0  0
 23 24  1  0  0  0  0
 25 24  2  0  0  0  0
M  END
>  <MODEL>
5

>  <REMARK>
 VINA RESULT:      -8.9      3.374      6.079
  Name = 
  5 active torsions:
  status: ('A' for Active; 'I' for Inactive)
    1  A    between atoms: C_2  and  O_12
    2  A    between atoms: C_6  and  C_15
    3  A    between atoms: C_6  and  C_23
    4  A    between atoms: O_12  and  C_21
    5  A    between atoms: C_15  and  C_21
                            x       y       z     vdW  Elec       q    Type
                         _______ _______ _______ _____ _____    ______ ____

>  <TORSDO>
F 5

$$$$
=
 OpenBabel11052412453D

 25 28  0  0  0  0  0  0  0  0999 V2000
  187.4380  177.8810  145.8800 C   0  0  0  0  0  0  0  0  0  0  0  0
  186.6370  178.1820  144.7730 C   0  0  0  0  0  0  0  0  0  0  0  0
  185.5900  178.4280  147.3420 C   0  0  0  0  0  3  0  0  0  0  0  0
  188.7680  177.4450  145.9490 C   0  0  0  0  0  0  0  0  0  0  0  0
  190.8900  176.7530  145.8910 C   0  0  0  0  0  3  0  0  0  0  0  0
  184.8450  178.7070  146.2720 O   0  0  0  0  0  0  0  0  0  0  0  0
  189.2110  177.2560  147.2100 C   0  0  0  0  0  0  0  0  0  0  0  0
  190.5170  176.8280  147.2390 C   0  0  0  0  0  3  0  0  0  0  0  0
  184.4820  178.9060  143.9270 C   0  0  0  0  0  0  0  0  0  0  0  0
  183.0740  179.3490  144.1250 C   0  0  0  0  0  1  0  0  0  0  0  0
  187.0940  178.0810  143.4980 N   0  0  0  0  0  0  0  0  0  0  0  0
  189.8200  177.1790  143.6110 C   0  0  0  0  0  1  0  0  0  0  0  0
  186.9030  178.0090  147.1630 C   0  0  0  0  0  0  0  0  0  0  0  0
  188.0350  177.5980  148.3640 S   0  0  0  0  0  0  0  0  0  0  0  0
  184.9840  178.7910  142.6280 C   0  0  0  0  0  3  0  0  0  0  0  0
  189.8050  177.1350  145.0980 C   0  0  0  0  0  0  0  0  0  0  0  0
  186.3050  178.3790  142.4310 C   0  0  0  0  0  0  0  0  0  0  0  0
  185.3060  178.6030  145.0190 C   0  0  0  0  0  0  0  0  0  0  0  0
  186.8380  178.2350  141.0500 C   0  0  0  0  0  2  0  0  0  0  0  0
  188.3040  178.6270  141.0180 C   0  0  0  0  0  2  0  0  0  0  0  0
  188.9750  177.9810  139.8500 C   0  0  0  0  0  0  0  0  0  0  0  0
  190.1640  177.5860  139.9700 O   0  0  0  0  0  0  0  0  0  0  0  0
  188.3270  177.8320  138.6210 O   0  0  0  0  0  0  0  0  0  0  0  0
  188.7060  178.5490  137.4880 C   0  0  0  0  0  3  0  0  0  0  0  0
  189.0550  179.7520  137.5930 O   0  0  0  0  0  0  0  0  0  0  0  0
  1  4  2  0  0  0  0
  1 13  1  0  0  0  0
  2 18  1  0  0  0  0
  2  1  1  0  0  0  0
  4  7  1  0  0  0  0
  5  8  1  0  0  0  0
  6  3  1  0  0  0  0
  7  8  2  0  0  0  0
  7 14  1  0  0  0  0
  9 10  1  0  0  0  0
  9 18  2  0  0  0  0
 11  2  2  0  0  0  0
 12 16  1  0  0  0  0
 13  3  2  0  0  0  0
 13 14  1  0  0  0  0
 15  9  1  0  0  0  0
 16  5  2  0  0  0  0
 16  4  1  0  0  0  0
 17 15  2  0  0  0  0
 17 11  1  0  0  0  0
 18  6  1  0  0  0  0
 19 17  1  0  0  0  0
 20 19  1  0  0  0  0
 21 22  2  0  0  0  0
 21 20  1  0  0  0  0
 23 21  1  0  0  0  0
 24 25  2  0  0  0  0
 24 23  1  0  0  0  0
M  END
>  <MODEL>
6

>  <REMARK>
 VINA RESULT:      -8.8      1.591      4.413
  Name = 
  5 active torsions:
  status: ('A' for Active; 'I' for Inactive)
    1  A    between atoms: C_2  and  O_12
    2  A    between atoms: C_6  and  C_15
    3  A    between atoms: C_6  and  C_23
    4  A    between atoms: O_12  and  C_21
    5  A    between atoms: C_15  and  C_21
                            x       y       z     vdW  Elec       q    Type
                         _______ _______ _______ _____ _____    ______ ____

>  <TORSDO>
F 5

$$$$
=
 OpenBabel11052412453D

 25 28  0  0  0  0  0  0  0  0999 V2000
  188.2820  177.5290  145.3810 C   0  0  0  0  0  0  0  0  0  0  0  0
  187.7480  177.8180  144.1200 C   0  0  0  0  0  0  0  0  0  0  0  0
  186.0980  177.8740  146.3630 C   0  0  0  0  0  3  0  0  0  0  0  0
  189.5870  177.1900  145.7600 C   0  0  0  0  0  0  0  0  0  0  0  0
  191.7100  176.6600  146.2010 C   0  0  0  0  0  3  0  0  0  0  0  0
  185.6120  178.1440  145.1510 O   0  0  0  0  0  0  0  0  0  0  0  0
  189.7290  176.9800  147.0850 C   0  0  0  0  0  0  0  0  0  0  0  0
  191.0200  176.6490  147.4210 C   0  0  0  0  0  3  0  0  0  0  0  0
  185.8070  178.4170  142.7930 C   0  0  0  0  0  0  0  0  0  0  0  0
  184.3610  178.7460  142.6550 C   0  0  0  0  0  1  0  0  0  0  0  0
  188.5050  177.8070  142.9910 N   0  0  0  0  0  0  0  0  0  0  0  0
  191.1880  177.1040  143.7410 C   0  0  0  0  0  1  0  0  0  0  0  0
  187.4450  177.5620  146.4970 C   0  0  0  0  0  0  0  0  0  0  0  0
  188.2860  177.1830  147.9280 S   0  0  0  0  0  0  0  0  0  0  0  0
  186.6140  178.3960  141.6530 C   0  0  0  0  0  3  0  0  0  0  0  0
  190.8200  176.9950  145.1790 C   0  0  0  0  0  0  0  0  0  0  0  0
  187.9730  178.0910  141.7730 C   0  0  0  0  0  0  0  0  0  0  0  0
  186.3660  178.1290  144.0450 C   0  0  0  0  0  0  0  0  0  0  0  0
  188.8320  178.0480  140.5590 C   0  0  0  0  0  2  0  0  0  0  0  0
  189.7800  176.8650  140.6380 C   0  0  0  0  0  2  0  0  0  0  0  0
  190.9910  177.1300  139.8060 C   0  0  0  0  0  0  0  0  0  0  0  0
  192.0310  177.5690  140.3610 O   0  0  0  0  0  0  0  0  0  0  0  0
  190.9890  176.9310  138.4230 O   0  0  0  0  0  0  0  0  0  0  0  0
  190.5680  175.7360  137.8430 C   0  0  0  0  0  3  0  0  0  0  0  0
  191.1420  174.6570  138.1430 O   0  0  0  0  0  0  0  0  0  0  0  0
  1  4  2  0  0  0  0
  1 13  1  0  0  0  0
  2  1  1  0  0  0  0
  3 13  2  0  0  0  0
  4  7  1  0  0  0  0
  5  8  1  0  0  0  0
  6  3  1  0  0  0  0
  7  8  2  0  0  0  0
  7 14  1  0  0  0  0
  9 18  2  0  0  0  0
 10  9  1  0  0  0  0
 11  2  2  0  0  0  0
 12 16  1  0  0  0  0
 13 14  1  0  0  0  0
 15 17  2  0  0  0  0
 15  9  1  0  0  0  0
 16  4  1  0  0  0  0
 16  5  2  0  0  0  0
 17 11  1  0  0  0  0
 18  2  1  0  0  0  0
 18  6  1  0  0  0  0
 19 20  1  0  0  0  0
 19 17  1  0  0  0  0
 21 22  2  0  0  0  0
 21 20  1  0  0  0  0
 23 21  1  0  0  0  0
 24 25  2  0  0  0  0
 24 23  1  0  0  0  0
M  END
>  <MODEL>
7

>  <REMARK>
 VINA RESULT:      -8.7      1.790      4.489
  Name = 
  5 active torsions:
  status: ('A' for Active; 'I' for Inactive)
    1  A    between atoms: C_2  and  O_12
    2  A    between atoms: C_6  and  C_15
    3  A    between atoms: C_6  and  C_23
    4  A    between atoms: O_12  and  C_21
    5  A    between atoms: C_15  and  C_21
                            x       y       z     vdW  Elec       q    Type
                         _______ _______ _______ _____ _____    ______ ____

>  <TORSDO>
F 5

$$$$
=
 OpenBabel11052412453D

 25 28  0  0  0  0  0  0  0  0999 V2000
  187.0630  177.9470  145.1710 C   0  0  0  0  0  0  0  0  0  0  0  0
  188.3570  177.6410  144.7350 C   0  0  0  0  0  0  0  0  0  0  0  0
  187.7380  177.4760  147.4450 C   0  0  0  0  0  3  0  0  0  0  0  0
  185.9320  178.3530  144.4500 C   0  0  0  0  0  0  0  0  0  0  0  0
  184.2250  178.9940  143.1610 C   0  0  0  0  0  3  0  0  0  0  0  0
  188.9650  177.1900  147.0070 O   0  0  0  0  0  0  0  0  0  0  0  0
  184.8440  178.5590  145.2200 C   0  0  0  0  0  0  0  0  0  0  0  0
  183.7560  178.9580  144.4810 C   0  0  0  0  0  3  0  0  0  0  0  0
  190.6110  176.9490  145.3030 C   0  0  0  0  0  0  0  0  0  0  0  0
  191.6520  176.5430  146.2890 C   0  0  0  0  0  1  0  0  0  0  0  0
  188.7150  177.7020  143.4260 N   0  0  0  0  0  0  0  0  0  0  0  0
  186.4140  178.5430  141.9250 C   0  0  0  0  0  1  0  0  0  0  0  0
  186.7640  177.8600  146.5310 C   0  0  0  0  0  0  0  0  0  0  0  0
  185.1450  178.2710  146.8510 S   0  0  0  0  0  0  0  0  0  0  0  0
  190.9470  177.0230  143.9490 C   0  0  0  0  0  3  0  0  0  0  0  0
  185.5710  178.6200  143.1480 C   0  0  0  0  0  0  0  0  0  0  0  0
  189.9760  177.4000  143.0160 C   0  0  0  0  0  0  0  0  0  0  0  0
  189.3070  177.2560  145.7140 C   0  0  0  0  0  0  0  0  0  0  0  0
  190.3330  177.5010  141.5760 C   0  0  0  0  0  2  0  0  0  0  0  0
  189.0860  177.3620  140.7230 C   0  0  0  0  0  2  0  0  0  0  0  0
  189.3370  177.9260  139.3620 C   0  0  0  0  0  0  0  0  0  0  0  0
  188.7720  179.0000  139.0310 O   0  0  0  0  0  0  0  0  0  0  0  0
  190.1590  177.2750  138.4390 O   0  0  0  0  0  0  0  0  0  0  0  0
  190.1540  175.8900  138.2830 C   0  0  0  0  0  3  0  0  0  0  0  0
  191.2330  175.2470  138.3450 O   0  0  0  0  0  0  0  0  0  0  0  0
  1 13  1  0  0  0  0
  2  1  1  0  0  0  0
  2 18  1  0  0  0  0
  4  1  2  0  0  0  0
  4  7  1  0  0  0  0
  5  8  1  0  0  0  0
  6  3  1  0  0  0  0
  7 14  1  0  0  0  0
  8  7  2  0  0  0  0
  9 18  2  0  0  0  0
  9 10  1  0  0  0  0
 11  2  2  0  0  0  0
 12 16  1  0  0  0  0
 13 14  1  0  0  0  0
 13  3  2  0  0  0  0
 15  9  1  0  0  0  0
 16  5  2  0  0  0  0
 16  4  1  0  0  0  0
 17 11  1  0  0  0  0
 17 15  2  0  0  0  0
 18  6  1  0  0  0  0
 19 17  1  0  0  0  0
 20 19  1  0  0  0  0
 21 20  1  0  0  0  0
 22 21  2  0  0  0  0
 23 21  1  0  0  0  0
 24 25  2  0  0  0  0
 24 23  1  0  0  0  0
M  END
>  <MODEL>
8

>  <REMARK>
 VINA RESULT:      -8.7      1.110      1.693
  Name = 
  5 active torsions:
  status: ('A' for Active; 'I' for Inactive)
    1  A    between atoms: C_2  and  O_12
    2  A    between atoms: C_6  and  C_15
    3  A    between atoms: C_6  and  C_23
    4  A    between atoms: O_12  and  C_21
    5  A    between atoms: C_15  and  C_21
                            x       y       z     vdW  Elec       q    Type
                         _______ _______ _______ _____ _____    ______ ____

>  <TORSDO>
F 5

$$$$
=
 OpenBabel11052412453D

 25 28  0  0  0  0  0  0  0  0999 V2000
  187.0490  177.9860  145.3820 C   0  0  0  0  0  0  0  0  0  0  0  0
  186.1580  178.2910  144.3460 C   0  0  0  0  0  0  0  0  0  0  0  0
  185.2530  178.2570  146.9800 C   0  0  0  0  0  3  0  0  0  0  0  0
  188.4130  177.6700  145.3450 C   0  0  0  0  0  0  0  0  0  0  0  0
  190.5800  177.1810  145.1180 C   0  0  0  0  0  3  0  0  0  0  0  0
  184.4230  178.5420  145.9760 O   0  0  0  0  0  0  0  0  0  0  0  0
  188.9480  177.4340  146.5610 C   0  0  0  0  0  0  0  0  0  0  0  0
  190.2860  177.1260  146.4860 C   0  0  0  0  0  3  0  0  0  0  0  0
  183.9010  178.8730  143.6760 C   0  0  0  0  0  0  0  0  0  0  0  0
  182.4740  179.1700  143.9850 C   0  0  0  0  0  1  0  0  0  0  0  0
  186.5440  178.3240  143.0440 N   0  0  0  0  0  0  0  0  0  0  0  0
  189.3390  177.6680  142.9390 C   0  0  0  0  0  1  0  0  0  0  0  0
  186.5840  177.9740  146.6970 C   0  0  0  0  0  0  0  0  0  0  0  0
  187.8190  177.5830  147.8010 S   0  0  0  0  0  0  0  0  0  0  0  0
  184.3300  178.8970  142.3470 C   0  0  0  0  0  3  0  0  0  0  0  0
  189.4200  177.5180  144.4170 C   0  0  0  0  0  0  0  0  0  0  0  0
  185.6680  178.6220  142.0480 C   0  0  0  0  0  0  0  0  0  0  0  0
  184.8130  178.5700  144.6960 C   0  0  0  0  0  0  0  0  0  0  0  0
  186.1260  178.6270  140.6330 C   0  0  0  0  0  2  0  0  0  0  0  0
  184.9310  178.5240  139.7020 C   0  0  0  0  0  2  0  0  0  0  0  0
  185.3970  178.2720  138.3050 C   0  0  0  0  0  0  0  0  0  0  0  0
  184.6270  177.6890  137.4990 O   0  0  0  0  0  0  0  0  0  0  0  0
  186.6760  178.6410  137.8810 O   0  0  0  0  0  0  0  0  0  0  0  0
  187.5930  177.7160  137.3860 C   0  0  0  0  0  3  0  0  0  0  0  0
  187.7290  176.6010  137.9530 O   0  0  0  0  0  0  0  0  0  0  0  0
  1 13  1  0  0  0  0
  2 18  1  0  0  0  0
  2  1  1  0  0  0  0
  4  1  2  0  0  0  0
  4  7  1  0  0  0  0
  5  8  1  0  0  0  0
  6  3  1  0  0  0  0
  7 14  1  0  0  0  0
  8  7  2  0  0  0  0
  9 10  1  0  0  0  0
  9 18  2  0  0  0  0
 11  2  2  0  0  0  0
 12 16  1  0  0  0  0
 13  3  2  0  0  0  0
 13 14  1  0  0  0  0
 15  9  1  0  0  0  0
 16  5  2  0  0  0  0
 16  4  1  0  0  0  0
 17 15  2  0  0  0  0
 17 11  1  0  0  0  0
 18  6  1  0  0  0  0
 19 17  1  0  0  0  0
 20 19  1  0  0  0  0
 21 20  1  0  0  0  0
 22 21  2  0  0  0  0
 23 21  1  0  0  0  0
 24 23  1  0  0  0  0
 24 25  2  0  0  0  0
M  END
>  <MODEL>
9

>  <REMARK>
 VINA RESULT:      -8.3      2.353      5.070
  Name = 
  5 active torsions:
  status: ('A' for Active; 'I' for Inactive)
    1  A    between atoms: C_2  and  O_12
    2  A    between atoms: C_6  and  C_15
    3  A    between atoms: C_6  and  C_23
    4  A    between atoms: O_12  and  C_21
    5  A    between atoms: C_15  and  C_21
                            x       y       z     vdW  Elec       q    Type
                         _______ _______ _______ _____ _____    ______ ____

>  <TORSDO>
F 5

$$$$
