=
 OpenBabel11052413073D

 31 35  0  0  0  0  0  0  0  0999 V2000
  185.5240  178.4620  144.4230 C   0  0  0  0  0  0  0  0  0  0  0  0
  189.0980  177.3060  144.1640 C   0  0  0  0  0  0  0  0  0  0  0  0
  189.6320  177.2860  145.4900 C   0  0  0  0  0  0  0  0  0  0  0  0
  188.9180  176.7750  138.9290 O   0  0  0  0  0  0  0  0  0  0  0  0
  190.0710  176.4560  139.3260 C   0  0  0  0  0  0  0  0  0  0  0  0
  189.4540  177.6120  147.8970 C   0  0  0  0  0  0  0  0  0  0  0  0
  187.7650  177.6890  143.8310 C   0  0  0  0  0  0  0  0  0  0  0  0
  185.1450  178.4310  143.0810 C   0  0  0  0  0  3  0  0  0  0  0  0
  188.8870  177.6490  146.6240 C   0  0  0  0  0  3  0  0  0  0  0  0
  189.5060  176.9090  141.7800 C   0  0  0  0  0  0  0  0  0  0  0  0
  184.6360  178.8490  145.3690 F   0  0  0  0  0  0  0  0  0  0  0  0
  191.7590  176.5160  144.6140 C   0  0  0  0  0  3  0  0  0  0  0  0
  188.7240  177.9640  148.9810 F   0  0  0  0  0  0  0  0  0  0  0  0
  188.2300  177.2810  141.5060 N   0  0  0  0  0  0  0  0  0  0  0  0
  189.9640  176.9140  143.1050 C   0  0  0  0  0  0  0  0  0  0  0  0
  190.3920  176.5120  140.7240 N   0  0  0  0  0  2  0  0  0  0  0  0
  186.8200  178.0950  144.7910 C   0  0  0  0  0  3  0  0  0  0  0  0
  190.7800  177.2100  148.0420 C   0  0  0  0  0  3  0  0  0  0  0  0
  187.3620  177.6640  142.4720 C   0  0  0  0  0  0  0  0  0  0  0  0
  186.0630  178.0320  142.1090 C   0  0  0  0  0  3  0  0  0  0  0  0
  191.2460  176.5380  143.3610 N   0  0  0  0  0  0  0  0  0  0  0  0
  190.9730  176.8860  145.6970 C   0  0  0  0  0  0  0  0  0  0  0  0
  191.5050  176.8580  146.9490 N   0  0  0  0  0  0  0  0  0  0  0  0
  193.1270  175.2750  136.5500 C   0  0  0  0  0  0  0  0  0  0  0  0
  192.2950  176.7600  138.2670 C   0  0  0  0  0  3  0  0  0  0  0  0
  189.7830  174.1220  137.5680 O   0  0  0  0  0  1  0  0  0  0  0  0
  194.1000  174.9160  135.6800 F   0  0  0  0  0  0  0  0  0  0  0  0
  193.3000  176.3910  137.3690 C   0  0  0  0  0  3  0  0  0  0  0  0
  190.9390  174.8930  137.5230 C   0  0  0  0  0  0  0  0  0  0  0  0
  191.1050  176.0210  138.3580 C   0  0  0  0  0  0  0  0  0  0  0  0
  191.9500  174.5290  136.6270 C   0  0  0  0  0  3  0  0  0  0  0  0
  1 17  1  0  0  0  0
  1 11  1  0  0  0  0
  2  3  1  0  0  0  0
  3 22  2  0  0  0  0
  3  9  1  0  0  0  0
  4  5  2  0  0  0  0
  5 16  1  0  0  0  0
  6 18  1  0  0  0  0
  6 13  1  0  0  0  0
  7  2  1  0  0  0  0
  7 17  2  0  0  0  0
  8  1  2  0  0  0  0
  9  6  2  0  0  0  0
 10 15  1  0  0  0  0
 12 22  1  0  0  0  0
 14 10  2  0  0  0  0
 14 19  1  0  0  0  0
 15 21  1  0  0  0  0
 15  2  2  0  0  0  0
 16 10  1  0  0  0  0
 19  7  1  0  0  0  0
 20 19  2  0  0  0  0
 20  8  1  0  0  0  0
 21 12  2  0  0  0  0
 22 23  1  0  0  0  0
 23 18  2  0  0  0  0
 24 31  2  0  0  0  0
 24 28  1  0  0  0  0
 25 30  1  0  0  0  0
 27 24  1  0  0  0  0
 28 25  2  0  0  0  0
 29 26  1  0  0  0  0
 29 30  2  0  0  0  0
 30  5  1  0  0  0  0
 31 29  1  0  0  0  0
M  END
>  <MODEL>
1

>  <REMARK>
 VINA RESULT:     -11.1      0.000      0.000
  Name = 
  1 active torsions:
  status: ('A' for Active; 'I' for Inactive)
    1  A    between atoms: C_9  and  C_22
                            x       y       z     vdW  Elec       q    Type
                         _______ _______ _______ _____ _____    ______ ____

>  <TORSDO>
F 1

$$$$
=
 OpenBabel11052413073D

 31 35  0  0  0  0  0  0  0  0999 V2000
  187.5310  178.2850  148.1070 C   0  0  0  0  0  0  0  0  0  0  0  0
  187.9830  177.5240  144.4480 C   0  0  0  0  0  0  0  0  0  0  0  0
  189.3170  177.0400  144.2800 C   0  0  0  0  0  0  0  0  0  0  0  0
  183.0870  178.9890  143.1780 O   0  0  0  0  0  0  0  0  0  0  0  0
  183.6800  178.6130  142.1300 C   0  0  0  0  0  0  0  0  0  0  0  0
  191.5170  176.4260  145.1250 C   0  0  0  0  0  0  0  0  0  0  0  0
  187.4150  177.9250  145.6940 C   0  0  0  0  0  0  0  0  0  0  0  0
  186.2120  178.7380  148.1160 C   0  0  0  0  0  3  0  0  0  0  0  0
  190.2260  176.9050  145.3420 C   0  0  0  0  0  3  0  0  0  0  0  0
  185.8480  178.0770  143.3780 C   0  0  0  0  0  0  0  0  0  0  0  0
  188.2370  178.2350  149.2620 F   0  0  0  0  0  0  0  0  0  0  0  0
  188.9150  176.7830  141.9010 C   0  0  0  0  0  3  0  0  0  0  0  0
  192.3820  176.3020  146.1590 F   0  0  0  0  0  0  0  0  0  0  0  0
  185.3460  178.4480  144.5830 N   0  0  0  0  0  0  0  0  0  0  0  0
  187.1670  177.6110  143.2850 C   0  0  0  0  0  0  0  0  0  0  0  0
  185.0400  178.1590  142.1950 N   0  0  0  0  0  2  0  0  0  0  0  0
  188.1230  177.8840  146.9090 C   0  0  0  0  0  3  0  0  0  0  0  0
  191.9080  176.0790  143.8350 C   0  0  0  0  0  3  0  0  0  0  0  0
  186.0750  178.3880  145.7220 C   0  0  0  0  0  0  0  0  0  0  0  0
  185.4860  178.7890  146.9250 C   0  0  0  0  0  3  0  0  0  0  0  0
  187.6530  177.2430  142.0690 N   0  0  0  0  0  0  0  0  0  0  0  0
  189.7690  176.6710  142.9900 C   0  0  0  0  0  0  0  0  0  0  0  0
  191.0340  176.2070  142.8040 N   0  0  0  0  0  0  0  0  0  0  0  0
  181.5770  178.6250  138.3860 C   0  0  0  0  0  0  0  0  0  0  0  0
  181.7290  178.0080  140.7180 C   0  0  0  0  0  3  0  0  0  0  0  0
  184.7590  179.9040  139.7230 O   0  0  0  0  0  1  0  0  0  0  0  0
  180.9000  178.6210  137.2130 F   0  0  0  0  0  0  0  0  0  0  0  0
  181.0310  178.0010  139.5080 C   0  0  0  0  0  3  0  0  0  0  0  0
  183.5250  179.2650  139.6810 C   0  0  0  0  0  0  0  0  0  0  0  0
  182.9810  178.6360  140.8240 C   0  0  0  0  0  0  0  0  0  0  0  0
  182.8190  179.2550  138.4730 C   0  0  0  0  0  3  0  0  0  0  0  0
  1  8  1  0  0  0  0
  1 11  1  0  0  0  0
  2  7  1  0  0  0  0
  3  2  1  0  0  0  0
  3  9  1  0  0  0  0
  5 16  1  0  0  0  0
  5  4  2  0  0  0  0
  6  9  2  0  0  0  0
  6 13  1  0  0  0  0
  7 19  2  0  0  0  0
  7 17  1  0  0  0  0
 10 14  2  0  0  0  0
 12 21  2  0  0  0  0
 12 22  1  0  0  0  0
 14 19  1  0  0  0  0
 15 10  1  0  0  0  0
 15  2  2  0  0  0  0
 16 10  1  0  0  0  0
 17  1  2  0  0  0  0
 18  6  1  0  0  0  0
 19 20  1  0  0  0  0
 20  8  2  0  0  0  0
 21 15  1  0  0  0  0
 22  3  2  0  0  0  0
 23 22  1  0  0  0  0
 23 18  2  0  0  0  0
 24 31  2  0  0  0  0
 24 28  1  0  0  0  0
 25 30  1  0  0  0  0
 27 24  1  0  0  0  0
 28 25  2  0  0  0  0
 29 26  1  0  0  0  0
 29 30  2  0  0  0  0
 30  5  1  0  0  0  0
 31 29  1  0  0  0  0
M  END
>  <MODEL>
2

>  <REMARK>
 VINA RESULT:     -11.0      3.959      6.661
  Name = 
  1 active torsions:
  status: ('A' for Active; 'I' for Inactive)
    1  A    between atoms: C_9  and  C_22
                            x       y       z     vdW  Elec       q    Type
                         _______ _______ _______ _____ _____    ______ ____

>  <TORSDO>
F 1

$$$$
=
 OpenBabel11052413073D

 31 35  0  0  0  0  0  0  0  0999 V2000
  184.6390  178.7170  145.4250 C   0  0  0  0  0  0  0  0  0  0  0  0
  188.0600  177.7190  144.2110 C   0  0  0  0  0  0  0  0  0  0  0  0
  188.8740  177.5100  145.3680 C   0  0  0  0  0  0  0  0  0  0  0  0
  186.7240  178.0000  139.1260 O   0  0  0  0  0  0  0  0  0  0  0  0
  187.9350  177.6570  139.2060 C   0  0  0  0  0  0  0  0  0  0  0  0
  189.2350  177.4540  147.7760 C   0  0  0  0  0  0  0  0  0  0  0  0
  186.6880  178.1100  144.2430 C   0  0  0  0  0  0  0  0  0  0  0  0
  183.9720  178.8830  144.2120 C   0  0  0  0  0  3  0  0  0  0  0  0
  188.4000  177.6710  146.6800 C   0  0  0  0  0  3  0  0  0  0  0  0
  187.9290  177.7080  141.7640 C   0  0  0  0  0  0  0  0  0  0  0  0
  183.9830  178.9270  146.5920 F   0  0  0  0  0  0  0  0  0  0  0  0
  190.7500  176.9470  143.9370 C   0  0  0  0  0  3  0  0  0  0  0  0
  188.7640  177.6130  149.0350 F   0  0  0  0  0  0  0  0  0  0  0  0
  186.6260  178.0810  141.8380 N   0  0  0  0  0  0  0  0  0  0  0  0
  188.6680  177.5210  142.9400 C   0  0  0  0  0  0  0  0  0  0  0  0
  188.5570  177.5050  140.4910 N   0  0  0  0  0  2  0  0  0  0  0  0
  185.9820  178.3360  145.4380 C   0  0  0  0  0  3  0  0  0  0  0  0
  190.5570  177.0740  147.5620 C   0  0  0  0  0  3  0  0  0  0  0  0
  185.9950  178.2840  143.0190 C   0  0  0  0  0  0  0  0  0  0  0  0
  184.6500  178.6660  143.0110 C   0  0  0  0  0  3  0  0  0  0  0  0
  189.9730  177.1480  142.8470 N   0  0  0  0  0  0  0  0  0  0  0  0
  190.2250  177.1220  145.2110 C   0  0  0  0  0  0  0  0  0  0  0  0
  191.0200  176.9170  146.2950 N   0  0  0  0  0  0  0  0  0  0  0  0
  190.2700  176.8500  135.6940 C   0  0  0  0  0  0  0  0  0  0  0  0
  189.5820  176.2950  137.9440 C   0  0  0  0  0  3  0  0  0  0  0  0
  187.8230  179.3600  136.8170 O   0  0  0  0  0  1  0  0  0  0  0  0
  191.0130  176.5810  134.5940 F   0  0  0  0  0  0  0  0  0  0  0  0
  190.3500  176.0170  136.8100 C   0  0  0  0  0  3  0  0  0  0  0  0
  188.6520  178.2450  136.8420 C   0  0  0  0  0  0  0  0  0  0  0  0
  188.7260  177.4070  137.9780 C   0  0  0  0  0  0  0  0  0  0  0  0
  189.4240  177.9600  135.7100 C   0  0  0  0  0  3  0  0  0  0  0  0
  1 17  1  0  0  0  0
  1 11  1  0  0  0  0
  2  7  1  0  0  0  0
  2  3  1  0  0  0  0
  3  9  1  0  0  0  0
  4  5  2  0  0  0  0
  5 16  1  0  0  0  0
  6 13  1  0  0  0  0
  7 17  2  0  0  0  0
  8  1  2  0  0  0  0
  9  6  2  0  0  0  0
 10 14  2  0  0  0  0
 10 15  1  0  0  0  0
 12 22  1  0  0  0  0
 14 19  1  0  0  0  0
 15  2  2  0  0  0  0
 16 10  1  0  0  0  0
 18  6  1  0  0  0  0
 19  7  1  0  0  0  0
 20 19  2  0  0  0  0
 20  8  1  0  0  0  0
 21 15  1  0  0  0  0
 21 12  2  0  0  0  0
 22  3  2  0  0  0  0
 22 23  1  0  0  0  0
 23 18  2  0  0  0  0
 24 31  2  0  0  0  0
 24 28  1  0  0  0  0
 25 30  1  0  0  0  0
 26 29  1  0  0  0  0
 27 24  1  0  0  0  0
 28 25  2  0  0  0  0
 29 30  2  0  0  0  0
 30  5  1  0  0  0  0
 31 29  1  0  0  0  0
M  END
>  <MODEL>
3

>  <REMARK>
 VINA RESULT:     -11.0      1.843      2.312
  Name = 
  1 active torsions:
  status: ('A' for Active; 'I' for Inactive)
    1  A    between atoms: C_9  and  C_22
                            x       y       z     vdW  Elec       q    Type
                         _______ _______ _______ _____ _____    ______ ____

>  <TORSDO>
F 1

$$$$
=
 OpenBabel11052413073D

 31 35  0  0  0  0  0  0  0  0999 V2000
  186.8510  178.0510  147.3500 C   0  0  0  0  0  0  0  0  0  0  0  0
  187.6250  177.8750  143.6690 C   0  0  0  0  0  0  0  0  0  0  0  0
  189.0260  177.6190  143.5450 C   0  0  0  0  0  0  0  0  0  0  0  0
  182.6420  178.7650  142.2200 O   0  0  0  0  0  0  0  0  0  0  0  0
  183.3450  178.6280  141.1820 C   0  0  0  0  0  0  0  0  0  0  0  0
  191.2430  177.2250  144.4740 C   0  0  0  0  0  0  0  0  0  0  0  0
  186.9320  178.0120  144.9090 C   0  0  0  0  0  0  0  0  0  0  0  0
  185.4790  178.2990  147.3140 C   0  0  0  0  0  3  0  0  0  0  0  0
  189.8820  177.4750  144.6480 C   0  0  0  0  0  3  0  0  0  0  0  0
  185.4960  178.2500  142.5160 C   0  0  0  0  0  0  0  0  0  0  0  0
  187.4890  177.9470  148.5400 F   0  0  0  0  0  0  0  0  0  0  0  0
  188.8060  177.6350  141.1290 C   0  0  0  0  0  3  0  0  0  0  0  0
  192.0550  177.0880  145.5470 F   0  0  0  0  0  0  0  0  0  0  0  0
  184.8740  178.3740  143.7160 N   0  0  0  0  0  0  0  0  0  0  0  0
  186.8740  178.0000  142.4670 C   0  0  0  0  0  0  0  0  0  0  0  0
  184.7530  178.3740  141.2940 N   0  0  0  0  0  2  0  0  0  0  0  0
  187.5670  177.9100  146.1600 C   0  0  0  0  0  3  0  0  0  0  0  0
  191.7570  177.1200  143.1840 C   0  0  0  0  0  3  0  0  0  0  0  0
  185.5370  178.2660  144.8910 C   0  0  0  0  0  0  0  0  0  0  0  0
  184.8250  178.4060  146.0860 C   0  0  0  0  0  3  0  0  0  0  0  0
  187.4810  177.8780  141.2550 N   0  0  0  0  0  0  0  0  0  0  0  0
  189.6030  177.5020  142.2580 C   0  0  0  0  0  0  0  0  0  0  0  0
  190.9330  177.2590  142.1120 N   0  0  0  0  0  0  0  0  0  0  0  0
  181.5560  179.0190  137.2980 C   0  0  0  0  0  0  0  0  0  0  0  0
  182.4490  180.0010  139.3180 C   0  0  0  0  0  3  0  0  0  0  0  0
  182.6610  176.3030  139.5240 O   0  0  0  0  0  1  0  0  0  0  0  0
  180.9920  179.1590  136.0750 F   0  0  0  0  0  0  0  0  0  0  0  0
  181.8660  180.1470  138.0570 C   0  0  0  0  0  3  0  0  0  0  0  0
  182.4080  177.5900  139.0620 C   0  0  0  0  0  0  0  0  0  0  0  0
  182.7270  178.7270  139.8390 C   0  0  0  0  0  0  0  0  0  0  0  0
  181.8250  177.7450  137.8000 C   0  0  0  0  0  3  0  0  0  0  0  0
  1 11  1  0  0  0  0
  2  7  1  0  0  0  0
  3  2  1  0  0  0  0
  3  9  1  0  0  0  0
  5 16  1  0  0  0  0
  5  4  2  0  0  0  0
  6  9  2  0  0  0  0
  6 13  1  0  0  0  0
  7 17  1  0  0  0  0
  8  1  1  0  0  0  0
 10 14  2  0  0  0  0
 12 21  2  0  0  0  0
 12 22  1  0  0  0  0
 14 19  1  0  0  0  0
 15 10  1  0  0  0  0
 15  2  2  0  0  0  0
 16 10  1  0  0  0  0
 17  1  2  0  0  0  0
 18  6  1  0  0  0  0
 19  7  2  0  0  0  0
 19 20  1  0  0  0  0
 20  8  2  0  0  0  0
 21 15  1  0  0  0  0
 22  3  2  0  0  0  0
 23 22  1  0  0  0  0
 23 18  2  0  0  0  0
 24 31  2  0  0  0  0
 24 28  1  0  0  0  0
 25 30  1  0  0  0  0
 27 24  1  0  0  0  0
 28 25  2  0  0  0  0
 29 26  1  0  0  0  0
 29 30  2  0  0  0  0
 30  5  1  0  0  0  0
 31 29  1  0  0  0  0
M  END
>  <MODEL>
4

>  <REMARK>
 VINA RESULT:     -10.6      3.907      6.606
  Name = 
  1 active torsions:
  status: ('A' for Active; 'I' for Inactive)
    1  A    between atoms: C_9  and  C_22
                            x       y       z     vdW  Elec       q    Type
                         _______ _______ _______ _____ _____    ______ ____

>  <TORSDO>
F 1

$$$$
=
 OpenBabel11052413073D

 31 35  0  0  0  0  0  0  0  0999 V2000
  190.9840  177.2950  141.8090 C   0  0  0  0  0  0  0  0  0  0  0  0
  187.6210  177.9830  143.3560 C   0  0  0  0  0  0  0  0  0  0  0  0
  187.7630  177.8110  144.7680 C   0  0  0  0  0  0  0  0  0  0  0  0
  185.3120  179.0030  138.7350 O   0  0  0  0  0  0  0  0  0  0  0  0
  184.4530  179.1280  139.6500 C   0  0  0  0  0  0  0  0  0  0  0  0
  189.0620  177.2960  146.7630 C   0  0  0  0  0  0  0  0  0  0  0  0
  188.6730  177.8120  142.4060 C   0  0  0  0  0  0  0  0  0  0  0  0
  190.6940  177.4970  140.4590 C   0  0  0  0  0  3  0  0  0  0  0  0
  188.9750  177.4500  145.3800 C   0  0  0  0  0  3  0  0  0  0  0  0
  186.1250  178.5350  141.4940 C   0  0  0  0  0  0  0  0  0  0  0  0
  192.2370  176.9460  142.1870 F   0  0  0  0  0  0  0  0  0  0  0  0
  185.4200  178.3660  145.0630 C   0  0  0  0  0  3  0  0  0  0  0  0
  190.2360  176.9480  147.3390 F   0  0  0  0  0  0  0  0  0  0  0  0
  187.1530  178.3630  140.6250 N   0  0  0  0  0  0  0  0  0  0  0  0
  186.3350  178.3500  142.8680 C   0  0  0  0  0  0  0  0  0  0  0  0
  184.8230  178.9040  141.0200 N   0  0  0  0  0  2  0  0  0  0  0  0
  189.9830  177.4510  142.7690 C   0  0  0  0  0  3  0  0  0  0  0  0
  187.9280  177.5030  147.5450 C   0  0  0  0  0  3  0  0  0  0  0  0
  188.3960  178.0140  141.0310 C   0  0  0  0  0  0  0  0  0  0  0  0
  189.4020  177.8560  140.0730 C   0  0  0  0  0  3  0  0  0  0  0  0
  185.2940  178.5260  143.7250 N   0  0  0  0  0  0  0  0  0  0  0  0
  186.6450  178.0080  145.6110 C   0  0  0  0  0  0  0  0  0  0  0  0
  186.7540  177.8520  146.9580 N   0  0  0  0  0  0  0  0  0  0  0  0
  180.4460  180.3150  138.6680 C   0  0  0  0  0  0  0  0  0  0  0  0
  182.8220  180.7510  138.7180 C   0  0  0  0  0  3  0  0  0  0  0  0
  182.1280  177.4210  140.1970 O   0  0  0  0  0  1  0  0  0  0  0  0
  179.1870  180.7040  138.3510 F   0  0  0  0  0  0  0  0  0  0  0  0
  181.5250  181.1540  138.3920 C   0  0  0  0  0  3  0  0  0  0  0  0
  181.9570  178.6640  139.6000 C   0  0  0  0  0  0  0  0  0  0  0  0
  183.0580  179.5070  139.3250 C   0  0  0  0  0  0  0  0  0  0  0  0
  180.6610  179.0750  139.2700 C   0  0  0  0  0  3  0  0  0  0  0  0
  1 11  1  0  0  0  0
  1 17  1  0  0  0  0
  2  3  1  0  0  0  0
  3  9  2  0  0  0  0
  3 22  1  0  0  0  0
  4  5  2  0  0  0  0
  5 16  1  0  0  0  0
  6 13  1  0  0  0  0
  6 18  2  0  0  0  0
  7 17  2  0  0  0  0
  7  2  1  0  0  0  0
  8  1  2  0  0  0  0
  9  6  1  0  0  0  0
 10 15  1  0  0  0  0
 12 22  1  0  0  0  0
 14 19  1  0  0  0  0
 14 10  2  0  0  0  0
 15  2  2  0  0  0  0
 15 21  1  0  0  0  0
 16 10  1  0  0  0  0
 19  7  1  0  0  0  0
 20  8  1  0  0  0  0
 20 19  2  0  0  0  0
 21 12  2  0  0  0  0
 22 23  2  0  0  0  0
 23 18  1  0  0  0  0
 24 31  1  0  0  0  0
 25 30  2  0  0  0  0
 27 24  1  0  0  0  0
 28 24  2  0  0  0  0
 28 25  1  0  0  0  0
 29 26  1  0  0  0  0
 30 29  1  0  0  0  0
 30  5  1  0  0  0  0
 31 29  2  0  0  0  0
M  END
>  <MODEL>
5

>  <REMARK>
 VINA RESULT:     -10.4      3.948      7.168
  Name = 
  1 active torsions:
  status: ('A' for Active; 'I' for Inactive)
    1  A    between atoms: C_9  and  C_22
                            x       y       z     vdW  Elec       q    Type
                         _______ _______ _______ _____ _____    ______ ____

>  <TORSDO>
F 1

$$$$
=
 OpenBabel11052413073D

 31 35  0  0  0  0  0  0  0  0999 V2000
  188.4000  177.6220  147.4060 C   0  0  0  0  0  0  0  0  0  0  0  0
  187.2300  177.9200  143.8400 C   0  0  0  0  0  0  0  0  0  0  0  0
  185.8490  178.2860  143.8780 C   0  0  0  0  0  0  0  0  0  0  0  0
  191.9300  176.6670  141.8240 O   0  0  0  0  0  0  0  0  0  0  0  0
  191.1280  176.8760  140.8740 C   0  0  0  0  0  0  0  0  0  0  0  0
  183.7900  178.8360  145.0580 C   0  0  0  0  0  0  0  0  0  0  0  0
  188.0470  177.7070  144.9910 C   0  0  0  0  0  0  0  0  0  0  0  0
  189.7350  177.2670  147.2120 C   0  0  0  0  0  3  0  0  0  0  0  0
  185.1380  178.4780  145.0740 C   0  0  0  0  0  3  0  0  0  0  0  0
  189.1790  177.3980  142.4480 C   0  0  0  0  0  0  0  0  0  0  0  0
  187.9110  177.7550  148.6630 F   0  0  0  0  0  0  0  0  0  0  0  0
  185.7920  178.2930  141.4530 C   0  0  0  0  0  3  0  0  0  0  0  0
  183.1180  179.0180  146.2180 F   0  0  0  0  0  0  0  0  0  0  0  0
  189.9210  177.2060  143.5680 N   0  0  0  0  0  0  0  0  0  0  0  0
  187.8280  177.7570  142.5590 C   0  0  0  0  0  0  0  0  0  0  0  0
  189.7660  177.2380  141.1490 N   0  0  0  0  0  2  0  0  0  0  0  0
  187.5670  177.8380  146.3070 C   0  0  0  0  0  3  0  0  0  0  0  0
  183.1440  179.0030  143.8360 C   0  0  0  0  0  3  0  0  0  0  0  0
  189.4060  177.3460  144.8120 C   0  0  0  0  0  0  0  0  0  0  0  0
  190.2350  177.1300  145.9170 C   0  0  0  0  0  3  0  0  0  0  0  0
  187.1000  177.9460  141.4260 N   0  0  0  0  0  0  0  0  0  0  0  0
  185.1410  178.4690  142.6670 C   0  0  0  0  0  0  0  0  0  0  0  0
  183.8270  178.8180  142.6760 N   0  0  0  0  0  0  0  0  0  0  0  0
  192.3390  176.4990  136.7720 C   0  0  0  0  0  0  0  0  0  0  0  0
  190.6220  176.4990  138.4730 C   0  0  0  0  0  3  0  0  0  0  0  0
  193.9290  177.1280  140.0310 O   0  0  0  0  0  1  0  0  0  0  0  0
  192.7050  176.3780  135.4730 F   0  0  0  0  0  0  0  0  0  0  0  0
  190.9980  176.3730  137.1340 C   0  0  0  0  0  3  0  0  0  0  0  0
  192.9360  176.8780  139.0920 C   0  0  0  0  0  0  0  0  0  0  0  0
  191.5800  176.7520  139.4690 C   0  0  0  0  0  0  0  0  0  0  0  0
  193.3050  176.7500  137.7480 C   0  0  0  0  0  3  0  0  0  0  0  0
  1 11  1  0  0  0  0
  2  3  1  0  0  0  0
  2  7  1  0  0  0  0
  3  9  1  0  0  0  0
  5 16  1  0  0  0  0
  5  4  2  0  0  0  0
  6  9  2  0  0  0  0
  6 13  1  0  0  0  0
  7 17  1  0  0  0  0
  8  1  1  0  0  0  0
 10 15  1  0  0  0  0
 10 14  2  0  0  0  0
 12 22  1  0  0  0  0
 14 19  1  0  0  0  0
 15  2  2  0  0  0  0
 16 10  1  0  0  0  0
 17  1  2  0  0  0  0
 18  6  1  0  0  0  0
 19  7  2  0  0  0  0
 19 20  1  0  0  0  0
 20  8  2  0  0  0  0
 21 12  2  0  0  0  0
 21 15  1  0  0  0  0
 22 23  1  0  0  0  0
 22  3  2  0  0  0  0
 23 18  2  0  0  0  0
 24 28  2  0  0  0  0
 24 31  1  0  0  0  0
 25 30  2  0  0  0  0
 27 24  1  0  0  0  0
 28 25  1  0  0  0  0
 29 30  1  0  0  0  0
 29 26  1  0  0  0  0
 30  5  1  0  0  0  0
 31 29  2  0  0  0  0
M  END
>  <MODEL>
6

>  <REMARK>
 VINA RESULT:     -10.2      1.864      4.503
  Name = 
  1 active torsions:
  status: ('A' for Active; 'I' for Inactive)
    1  A    between atoms: C_9  and  C_22
                            x       y       z     vdW  Elec       q    Type
                         _______ _______ _______ _____ _____    ______ ____

>  <TORSDO>
F 1

$$$$
=
 OpenBabel11052413073D

 31 35  0  0  0  0  0  0  0  0999 V2000
  185.9250  178.1170  146.2100 C   0  0  0  0  0  0  0  0  0  0  0  0
  186.7560  178.2590  142.5400 C   0  0  0  0  0  0  0  0  0  0  0  0
  188.1500  177.9730  142.4120 C   0  0  0  0  0  0  0  0  0  0  0  0
  181.8270  179.4330  141.1090 O   0  0  0  0  0  0  0  0  0  0  0  0
  182.5420  179.3710  140.0730 C   0  0  0  0  0  0  0  0  0  0  0  0
  190.3380  177.4270  143.3320 C   0  0  0  0  0  0  0  0  0  0  0  0
  186.0450  178.3030  143.7770 C   0  0  0  0  0  0  0  0  0  0  0  0
  184.5610  178.4100  146.1780 C   0  0  0  0  0  3  0  0  0  0  0  0
  188.9830  177.7010  143.5100 C   0  0  0  0  0  3  0  0  0  0  0  0
  184.6580  178.8050  141.3970 C   0  0  0  0  0  0  0  0  0  0  0  0
  186.5390  177.8830  147.3940 F   0  0  0  0  0  0  0  0  0  0  0  0
  187.9720  178.2200  140.0060 C   0  0  0  0  0  3  0  0  0  0  0  0
  191.1280  177.1660  144.4000 F   0  0  0  0  0  0  0  0  0  0  0  0
  184.0200  178.8370  142.5940 N   0  0  0  0  0  0  0  0  0  0  0  0
  186.0290  178.5180  141.3440 C   0  0  0  0  0  0  0  0  0  0  0  0
  183.9410  179.0640  140.1820 N   0  0  0  0  0  2  0  0  0  0  0  0
  186.6560  178.0650  145.0220 C   0  0  0  0  0  3  0  0  0  0  0  0
  190.8710  177.4250  142.0450 C   0  0  0  0  0  3  0  0  0  0  0  0
  184.6590  178.5990  143.7640 C   0  0  0  0  0  0  0  0  0  0  0  0
  183.9310  178.6500  144.9560 C   0  0  0  0  0  3  0  0  0  0  0  0
  186.6520  178.4900  140.1350 N   0  0  0  0  0  0  0  0  0  0  0  0
  188.7460  177.9580  141.1290 C   0  0  0  0  0  0  0  0  0  0  0  0
  190.0700  177.6880  140.9800 N   0  0  0  0  0  0  0  0  0  0  0  0
  180.8190  180.1740  136.2230 C   0  0  0  0  0  0  0  0  0  0  0  0
  181.5640  180.9200  138.3980 C   0  0  0  0  0  3  0  0  0  0  0  0
  182.1250  177.2680  138.0670 O   0  0  0  0  0  1  0  0  0  0  0  0
  180.2740  180.4430  135.0130 F   0  0  0  0  0  0  0  0  0  0  0  0
  181.0010  181.2000  137.1500 C   0  0  0  0  0  3  0  0  0  0  0  0
  181.7610  178.5810  137.7900 C   0  0  0  0  0  0  0  0  0  0  0  0
  181.9510  179.6130  138.7370 C   0  0  0  0  0  0  0  0  0  0  0  0
  181.1970  178.8690  136.5430 C   0  0  0  0  0  3  0  0  0  0  0  0
  1 11  1  0  0  0  0
  2  7  1  0  0  0  0
  3  2  1  0  0  0  0
  3  9  1  0  0  0  0
  5 16  1  0  0  0  0
  5  4  2  0  0  0  0
  6  9  2  0  0  0  0
  6 13  1  0  0  0  0
  7 17  1  0  0  0  0
  8  1  1  0  0  0  0
 10 14  2  0  0  0  0
 12 21  2  0  0  0  0
 12 22  1  0  0  0  0
 14 19  1  0  0  0  0
 15 10  1  0  0  0  0
 15  2  2  0  0  0  0
 16 10  1  0  0  0  0
 17  1  2  0  0  0  0
 18  6  1  0  0  0  0
 19  7  2  0  0  0  0
 19 20  1  0  0  0  0
 20  8  2  0  0  0  0
 21 15  1  0  0  0  0
 22  3  2  0  0  0  0
 23 22  1  0  0  0  0
 23 18  2  0  0  0  0
 24 31  2  0  0  0  0
 24 28  1  0  0  0  0
 25 30  1  0  0  0  0
 27 24  1  0  0  0  0
 28 25  2  0  0  0  0
 29 26  1  0  0  0  0
 29 30  2  0  0  0  0
 30  5  1  0  0  0  0
 31 29  1  0  0  0  0
M  END
>  <MODEL>
7

>  <REMARK>
 VINA RESULT:     -10.1      4.618      7.300
  Name = 
  1 active torsions:
  status: ('A' for Active; 'I' for Inactive)
    1  A    between atoms: C_9  and  C_22
                            x       y       z     vdW  Elec       q    Type
                         _______ _______ _______ _____ _____    ______ ____

>  <TORSDO>
F 1

$$$$
=
 OpenBabel11052413073D

 31 35  0  0  0  0  0  0  0  0999 V2000
  190.7670  177.1250  145.8030 C   0  0  0  0  0  0  0  0  0  0  0  0
  188.9360  177.7000  142.5640 C   0  0  0  0  0  0  0  0  0  0  0  0
  189.9030  177.6260  141.5140 C   0  0  0  0  0  0  0  0  0  0  0  0
  184.2560  178.2860  144.9060 O   0  0  0  0  0  0  0  0  0  0  0  0
  184.1020  178.4160  143.6610 C   0  0  0  0  0  0  0  0  0  0  0  0
  192.1700  177.3170  140.6820 C   0  0  0  0  0  0  0  0  0  0  0  0
  189.2280  177.5360  143.9510 C   0  0  0  0  0  0  0  0  0  0  0  0
  189.7160  177.2250  146.7160 C   0  0  0  0  0  3  0  0  0  0  0  0
  191.2670  177.3800  141.7410 C   0  0  0  0  0  3  0  0  0  0  0  0
  186.5860  178.0420  143.1720 C   0  0  0  0  0  0  0  0  0  0  0  0
  192.0240  176.8790  146.2440 F   0  0  0  0  0  0  0  0  0  0  0  0
  188.1560  178.0530  139.8860 C   0  0  0  0  0  3  0  0  0  0  0  0
  193.4820  177.0790  140.9160 F   0  0  0  0  0  0  0  0  0  0  0  0
  186.9060  177.8790  144.4810 N   0  0  0  0  0  0  0  0  0  0  0  0
  187.5860  177.9570  142.1930 C   0  0  0  0  0  0  0  0  0  0  0  0
  185.2300  178.3010  142.7810 N   0  0  0  0  0  2  0  0  0  0  0  0
  190.5230  177.2800  144.4380 C   0  0  0  0  0  3  0  0  0  0  0  0
  191.7100  177.5020  139.3810 C   0  0  0  0  0  3  0  0  0  0  0  0
  188.1730  177.6340  144.8930 C   0  0  0  0  0  0  0  0  0  0  0  0
  188.4220  177.4780  146.2590 C   0  0  0  0  0  3  0  0  0  0  0  0
  187.2460  178.1220  140.8860 N   0  0  0  0  0  0  0  0  0  0  0  0
  189.4920  177.8060  140.1720 C   0  0  0  0  0  0  0  0  0  0  0  0
  190.3920  177.7400  139.1550 N   0  0  0  0  0  0  0  0  0  0  0  0
  180.1770  179.2170  142.1160 C   0  0  0  0  0  0  0  0  0  0  0  0
  181.7090  178.9970  143.9730 C   0  0  0  0  0  3  0  0  0  0  0  0
  183.4970  178.3440  140.7890 O   0  0  0  0  0  1  0  0  0  0  0  0
  178.9330  179.4730  141.6450 F   0  0  0  0  0  0  0  0  0  0  0  0
  180.4260  179.2600  143.4880 C   0  0  0  0  0  3  0  0  0  0  0  0
  182.4980  178.6450  141.7070 C   0  0  0  0  0  0  0  0  0  0  0  0
  182.7600  178.6870  143.0950 C   0  0  0  0  0  0  0  0  0  0  0  0
  181.2100  178.9100  141.2290 C   0  0  0  0  0  3  0  0  0  0  0  0
  1 11  1  0  0  0  0
  1  8  1  0  0  0  0
  2  7  1  0  0  0  0
  3  9  1  0  0  0  0
  3  2  2  0  0  0  0
  5  4  2  0  0  0  0
  6 13  1  0  0  0  0
  6  9  2  0  0  0  0
  7 17  1  0  0  0  0
  7 19  2  0  0  0  0
 10 14  2  0  0  0  0
 12 22  2  0  0  0  0
 12 21  1  0  0  0  0
 14 19  1  0  0  0  0
 15  2  1  0  0  0  0
 15 10  1  0  0  0  0
 16 10  1  0  0  0  0
 16  5  1  0  0  0  0
 17  1  2  0  0  0  0
 18  6  1  0  0  0  0
 19 20  1  0  0  0  0
 20  8  2  0  0  0  0
 21 15  2  0  0  0  0
 22  3  1  0  0  0  0
 23 18  2  0  0  0  0
 23 22  1  0  0  0  0
 24 28  1  0  0  0  0
 26 29  1  0  0  0  0
 27 24  1  0  0  0  0
 28 25  2  0  0  0  0
 29 30  2  0  0  0  0
 30  5  1  0  0  0  0
 30 25  1  0  0  0  0
 31 29  1  0  0  0  0
 31 24  2  0  0  0  0
M  END
>  <MODEL>
8

>  <REMARK>
 VINA RESULT:      -9.9      3.358      8.177
  Name = 
  1 active torsions:
  status: ('A' for Active; 'I' for Inactive)
    1  A    between atoms: C_9  and  C_22
                            x       y       z     vdW  Elec       q    Type
                         _______ _______ _______ _____ _____    ______ ____

>  <TORSDO>
F 1

$$$$
=
 OpenBabel11052413073D

 31 35  0  0  0  0  0  0  0  0999 V2000
  191.5940  176.0840  146.1440 C   0  0  0  0  0  0  0  0  0  0  0  0
  188.4400  177.4250  144.5840 C   0  0  0  0  0  0  0  0  0  0  0  0
  187.5840  177.8370  145.6520 C   0  0  0  0  0  0  0  0  0  0  0  0
  190.0810  176.5450  139.6600 O   0  0  0  0  0  0  0  0  0  0  0  0
  188.9280  177.0520  139.6150 C   0  0  0  0  0  0  0  0  0  0  0  0
  187.0640  178.1410  148.0120 C   0  0  0  0  0  0  0  0  0  0  0  0
  189.7380  176.8580  144.7570 C   0  0  0  0  0  0  0  0  0  0  0  0
  192.3150  175.7300  145.0040 C   0  0  0  0  0  3  0  0  0  0  0  0
  187.9360  177.7240  147.0070 C   0  0  0  0  0  3  0  0  0  0  0  0
  188.7450  177.2130  142.1620 C   0  0  0  0  0  0  0  0  0  0  0  0
  192.1290  175.8870  147.3720 F   0  0  0  0  0  0  0  0  0  0  0  0
  185.9100  178.5230  144.0350 C   0  0  0  0  0  3  0  0  0  0  0  0
  187.4180  178.0260  149.3140 F   0  0  0  0  0  0  0  0  0  0  0  0
  189.9750  176.6780  142.3690 N   0  0  0  0  0  0  0  0  0  0  0  0
  187.9570  177.5950  143.2560 C   0  0  0  0  0  0  0  0  0  0  0  0
  188.2430  177.3920  140.8300 N   0  0  0  0  0  2  0  0  0  0  0  0
  190.3200  176.6410  146.0190 C   0  0  0  0  0  3  0  0  0  0  0  0
  185.8260  178.6750  147.6630 C   0  0  0  0  0  3  0  0  0  0  0  0
  190.4860  176.4920  143.6090 C   0  0  0  0  0  0  0  0  0  0  0  0
  191.7610  175.9340  143.7390 C   0  0  0  0  0  3  0  0  0  0  0  0
  186.7270  178.1310  143.0300 N   0  0  0  0  0  0  0  0  0  0  0  0
  186.3140  178.3870  145.3570 C   0  0  0  0  0  0  0  0  0  0  0  0
  185.4810  178.7870  146.3550 N   0  0  0  0  0  0  0  0  0  0  0  0
  186.9790  177.6780  135.8400 C   0  0  0  0  0  0  0  0  0  0  0  0
  187.5340  176.2620  137.7190 C   0  0  0  0  0  3  0  0  0  0  0  0
  189.0590  179.6110  138.1820 O   0  0  0  0  0  1  0  0  0  0  0  0
  186.3580  177.8590  134.6500 F   0  0  0  0  0  0  0  0  0  0  0  0
  186.8940  176.4470  136.4910 C   0  0  0  0  0  3  0  0  0  0  0  0
  188.3480  178.5450  137.6440 C   0  0  0  0  0  0  0  0  0  0  0  0
  188.2680  177.3010  138.3120 C   0  0  0  0  0  0  0  0  0  0  0  0
  187.7040  178.7220  136.4150 C   0  0  0  0  0  3  0  0  0  0  0  0
  1 11  1  0  0  0  0
  2  7  1  0  0  0  0
  2  3  1  0  0  0  0
  3  9  1  0  0  0  0
  5  4  2  0  0  0  0
  5 16  1  0  0  0  0
  6 13  1  0  0  0  0
  7 17  2  0  0  0  0
  8  1  2  0  0  0  0
  9  6  2  0  0  0  0
 10 14  2  0  0  0  0
 10 15  1  0  0  0  0
 12 22  1  0  0  0  0
 14 19  1  0  0  0  0
 15  2  2  0  0  0  0
 16 10  1  0  0  0  0
 17  1  1  0  0  0  0
 18  6  1  0  0  0  0
 19 20  2  0  0  0  0
 19  7  1  0  0  0  0
 20  8  1  0  0  0  0
 21 15  1  0  0  0  0
 21 12  2  0  0  0  0
 22  3  2  0  0  0  0
 22 23  1  0  0  0  0
 23 18  2  0  0  0  0
 24 31  2  0  0  0  0
 24 28  1  0  0  0  0
 25 30  1  0  0  0  0
 27 24  1  0  0  0  0
 28 25  2  0  0  0  0
 29 26  1  0  0  0  0
 29 30  2  0  0  0  0
 30  5  1  0  0  0  0
 31 29  1  0  0  0  0
M  END
>  <MODEL>
9

>  <REMARK>
 VINA RESULT:      -9.9      2.963      4.788
  Name = 
  1 active torsions:
  status: ('A' for Active; 'I' for Inactive)
    1  A    between atoms: C_9  and  C_22
                            x       y       z     vdW  Elec       q    Type
                         _______ _______ _______ _____ _____    ______ ____

>  <TORSDO>
F 1

$$$$
