=
 OpenBabel11052415173D

 37 42  0  0  1  0  0  0  0  0999 V2000
  184.1460  175.5780  135.4120 C   0  0  0  0  0  0  0  0  0  0  0  0
  183.2810  177.2640  138.0800 C   0  0  0  0  0  0  0  0  0  0  0  0
  182.5670  174.6640  137.0540 O   0  0  0  0  0  0  0  0  0  0  0  0
  183.5810  178.5630  138.2160 C   0  0  0  0  0  3  0  0  0  0  0  0
  184.3870  176.2490  137.7690 C   0  0  2  0  0  3  0  0  0  0  0  0
  182.6600  179.6400  138.7150 C   0  0  1  0  0  3  0  0  0  0  0  0
  182.4230  174.3640  138.4170 C   0  0  0  0  0  2  0  0  0  0  0  0
  185.5930  176.7430  136.9620 C   0  0  1  0  0  3  0  0  0  0  0  0
  182.8910  176.1120  134.7390 C   0  0  0  0  0  1  0  0  0  0  0  0
  180.8020  177.3110  137.6810 C   0  0  0  0  0  2  0  0  0  0  0  0
  181.7600  175.5400  139.1350 C   0  0  0  0  0  2  0  0  0  0  0  0
  185.1650  176.7050  135.5050 C   0  0  0  0  0  2  0  0  0  0  0  0
  181.9560  176.7920  138.4060 N   0  0  0  0  0  0  0  0  0  0  0  0
  183.8940  175.1090  136.8530 C   0  0  2  0  0  3  0  0  0  0  0  0
  181.3720  179.7390  137.8910 C   0  0  1  0  0  3  0  0  0  0  0  0
  184.7150  174.4370  134.5940 C   0  0  0  0  0  1  0  0  0  0  0  0
  180.3570  178.6530  138.2350 C   0  0  0  0  0  2  0  0  0  0  0  0
  187.2500  178.6210  136.3150 C   0  0  0  0  0  2  0  0  0  0  0  0
  188.4900  177.7750  135.8970 C   0  0  1  0  0  3  0  0  0  0  0  0
  189.3090  178.1480  138.2900 C   0  0  2  0  0  0  0  0  0  0  0  0
  189.6990  177.7770  136.8680 C   0  0  0  0  0  2  0  0  0  0  0  0
  189.4230  177.3610  139.5810 C   0  0  0  0  0  2  0  0  0  0  0  0
  186.9370  177.8950  138.8070 C   0  0  0  0  0  2  0  0  0  0  0  0
  188.2340  177.1240  138.6780 C   0  0  1  0  0  3  0  0  0  0  0  0
  188.9930  179.4970  138.5030 O   0  0  0  0  0  1  0  0  0  0  0  0
  186.3050  178.0300  137.4050 C   0  0  2  0  0  3  0  0  0  0  0  0
  188.1330  176.4670  135.5630 O   0  0  0  0  0  0  0  0  0  0  0  0
  189.2620  175.7920  135.6060 O   0  0  0  0  0  1  0  0  0  0  0  0
  179.8200  181.4320  138.9580 C   0  0  0  0  0  3  0  0  0  0  0  0
  180.7680  181.1080  137.9750 C   0  0  0  0  0  0  0  0  0  0  0  0
  181.1860  182.0900  137.0700 C   0  0  0  0  0  3  0  0  0  0  0  0
  181.1820  184.6030  136.0020 Cl  0  0  0  0  0  0  0  0  0  0  0  0
  179.7060  183.6980  138.1140 C   0  0  0  0  0  3  0  0  0  0  0  0
  180.6550  183.3820  137.1380 C   0  0  0  0  0  0  0  0  0  0  0  0
  179.2890  182.7240  139.0240 C   0  0  0  0  0  3  0  0  0  0  0  0
  182.4120  179.5200  140.2180 C   0  0  0  0  0  2  0  0  0  0  0  0
  183.6300  178.9410  140.9130 C   0  0  0  0  0  1  0  0  0  0  0  0
  1 12  1  0  0  0  0
  1 14  1  0  0  0  0
  2  4  2  0  0  0  0
  2 13  1  0  0  0  0
  3  7  1  0  0  0  0
  4  6  1  0  0  0  0
  5  2  1  6  0  0  0
  6 36  1  1  0  0  0
  7 11  1  0  0  0  0
  8 12  1  6  0  0  0
  8 26  1  0  0  0  0
  8  5  1  0  0  0  0
  9  1  1  0  0  0  0
 10 17  1  0  0  0  0
 10 13  1  0  0  0  0
 13 11  1  0  0  0  0
 14  3  1  6  0  0  0
 14  5  1  0  0  0  0
 15 30  1  1  0  0  0
 15 17  1  0  0  0  0
 15  6  1  0  0  0  0
 16  1  1  0  0  0  0
 19 27  1  1  0  0  0
 19 18  1  0  0  0  0
 19 21  1  0  0  0  0
 20 25  1  1  0  0  0
 20 24  1  0  0  0  0
 20 22  1  0  0  0  0
 21 20  1  0  0  0  0
 24 23  1  1  0  0  0
 24 22  1  0  0  0  0
 26 18  1  6  0  0  0
 26 23  1  0  0  0  0
 27 28  1  0  0  0  0
 29 35  1  0  0  0  0
 30 29  2  0  0  0  0
 31 34  2  0  0  0  0
 31 30  1  0  0  0  0
 32 34  1  0  0  0  0
 33 35  2  0  0  0  0
 34 33  1  0  0  0  0
 36 37  1  0  0  0  0
M  END
>  <MODEL>
1

>  <REMARK>
 VINA RESULT:      -6.0      0.000      0.000
  Name = 
  4 active torsions:
  status: ('A' for Active; 'I' for Inactive)
    1  A    between atoms: C_5  and  O_12
    2  A    between atoms: C_6  and  C_31
    3  A    between atoms: C_7  and  C_14
    4  A    between atoms: C_20  and  C_36
                            x       y       z     vdW  Elec       q    Type
                         _______ _______ _______ _____ _____    ______ ____

>  <TORSDO>
F 4

$$$$
=
 OpenBabel11052415173D

 37 42  0  0  1  0  0  0  0  0999 V2000
  189.6510  173.2590  135.7260 C   0  0  0  0  0  0  0  0  0  0  0  0
  188.9600  176.0860  137.2220 C   0  0  0  0  0  0  0  0  0  0  0  0
  190.6850  175.3710  135.0240 O   0  0  0  0  0  0  0  0  0  0  0  0
  188.2900  176.1190  138.3830 C   0  0  0  0  0  3  0  0  0  0  0  0
  188.3730  175.3430  136.0170 C   0  0  2  0  0  3  0  0  0  0  0  0
  188.6260  176.9630  139.5790 C   0  0  1  0  0  3  0  0  0  0  0  0
  190.3850  176.6740  134.5980 C   0  0  0  0  0  2  0  0  0  0  0  0
  187.4720  174.1360  136.3020 C   0  0  1  0  0  3  0  0  0  0  0  0
  190.8700  173.1460  136.6290 C   0  0  0  0  0  1  0  0  0  0  0  0
  191.2950  176.6980  137.9190 C   0  0  0  0  0  2  0  0  0  0  0  0
  190.3830  177.6200  135.8000 C   0  0  0  0  0  2  0  0  0  0  0  0
  188.4070  172.9660  136.5520 C   0  0  0  0  0  2  0  0  0  0  0  0
  190.1410  176.8980  137.0490 N   0  0  0  0  0  0  0  0  0  0  0  0
  189.4630  174.6730  135.1550 C   0  0  2  0  0  3  0  0  0  0  0  0
  190.0500  176.7170  140.0900 C   0  0  1  0  0  3  0  0  0  0  0  0
  189.7640  172.2590  134.5940 C   0  0  0  0  0  1  0  0  0  0  0  0
  191.1170  177.4100  139.2480 C   0  0  0  0  0  2  0  0  0  0  0  0
  185.6120  172.9440  137.6480 C   0  0  0  0  0  2  0  0  0  0  0  0
  184.8460  172.2240  136.4990 C   0  0  1  0  0  3  0  0  0  0  0  0
  183.2900  174.2530  136.5270 C   0  0  2  0  0  0  0  0  0  0  0  0
  183.4570  172.7990  136.1150 C   0  0  0  0  0  2  0  0  0  0  0  0
  183.0330  175.4920  135.6910 C   0  0  0  0  0  2  0  0  0  0  0  0
  185.3750  175.4510  136.9460 C   0  0  0  0  0  2  0  0  0  0  0  0
  184.4500  174.9870  135.8400 C   0  0  1  0  0  3  0  0  0  0  0  0
  183.1300  174.4830  137.9010 O   0  0  0  0  0  1  0  0  0  0  0  0
  186.3240  174.2890  137.3120 C   0  0  2  0  0  3  0  0  0  0  0  0
  185.6430  172.0730  135.3620 O   0  0  0  0  0  0  0  0  0  0  0  0
  185.9190  170.7870  135.3170 O   0  0  0  0  0  1  0  0  0  0  0  0
  191.3960  177.5160  142.0810 C   0  0  0  0  0  3  0  0  0  0  0  0
  190.1810  177.0590  141.5430 C   0  0  0  0  0  0  0  0  0  0  0  0
  189.0590  176.9500  142.3700 C   0  0  0  0  0  3  0  0  0  0  0  0
  187.7380  177.1420  144.7530 Cl  0  0  0  0  0  0  0  0  0  0  0  0
  190.3590  177.7300  144.2590 C   0  0  0  0  0  3  0  0  0  0  0  0
  189.1470  177.2830  143.7260 C   0  0  0  0  0  0  0  0  0  0  0  0
  191.4830  177.8480  143.4370 C   0  0  0  0  0  3  0  0  0  0  0  0
  188.3170  178.4400  139.3350 C   0  0  0  0  0  2  0  0  0  0  0  0
  186.9990  178.5910  138.5980 C   0  0  0  0  0  1  0  0  0  0  0  0
  1 12  1  0  0  0  0
  1  9  1  0  0  0  0
  2  4  2  0  0  0  0
  4  6  1  0  0  0  0
  5  8  1  0  0  0  0
  5  2  1  1  0  0  0
  6 36  1  6  0  0  0
  6 15  1  0  0  0  0
  7  3  1  0  0  0  0
  7 11  1  0  0  0  0
  8 12  1  1  0  0  0
  8 26  1  0  0  0  0
 10 17  1  0  0  0  0
 11 13  1  0  0  0  0
 13  2  1  0  0  0  0
 13 10  1  0  0  0  0
 14  3  1  1  0  0  0
 14  1  1  0  0  0  0
 14  5  1  0  0  0  0
 15 30  1  1  0  0  0
 16  1  1  0  0  0  0
 17 15  1  0  0  0  0
 19 27  1  6  0  0  0
 19 18  1  0  0  0  0
 20 25  1  1  0  0  0
 21 19  1  0  0  0  0
 21 20  1  0  0  0  0
 22 20  1  0  0  0  0
 24 22  1  1  0  0  0
 24 20  1  0  0  0  0
 24 23  1  0  0  0  0
 26 23  1  6  0  0  0
 26 18  1  0  0  0  0
 28 27  1  0  0  0  0
 29 35  1  0  0  0  0
 30 29  2  0  0  0  0
 30 31  1  0  0  0  0
 31 34  2  0  0  0  0
 34 33  1  0  0  0  0
 34 32  1  0  0  0  0
 35 33  2  0  0  0  0
 37 36  1  0  0  0  0
M  END
>  <MODEL>
2

>  <REMARK>
 VINA RESULT:      -5.9      4.777      8.313
  Name = 
  4 active torsions:
  status: ('A' for Active; 'I' for Inactive)
    1  A    between atoms: C_5  and  O_12
    2  A    between atoms: C_6  and  C_31
    3  A    between atoms: C_7  and  C_14
    4  A    between atoms: C_20  and  C_36
                            x       y       z     vdW  Elec       q    Type
                         _______ _______ _______ _____ _____    ______ ____

>  <TORSDO>
F 4

$$$$
=
 OpenBabel11052415173D

 37 42  0  0  1  0  0  0  0  0999 V2000
  185.9040  174.5630  136.2530 C   0  0  0  0  0  0  0  0  0  0  0  0
  184.9790  177.4000  137.5970 C   0  0  0  0  0  0  0  0  0  0  0  0
  187.1660  176.6350  135.8780 O   0  0  0  0  0  0  0  0  0  0  0  0
  184.0430  177.4490  138.5550 C   0  0  0  0  0  3  0  0  0  0  0  0
  184.6800  176.7000  136.2670 C   0  0  2  0  0  3  0  0  0  0  0  0
  184.1050  178.2620  139.8170 C   0  0  1  0  0  3  0  0  0  0  0  0
  187.0340  177.9550  135.4220 C   0  0  0  0  0  2  0  0  0  0  0  0
  183.6870  175.5320  136.2910 C   0  0  1  0  0  3  0  0  0  0  0  0
  186.8540  174.3840  137.4270 C   0  0  0  0  0  1  0  0  0  0  0  0
  187.0900  177.8960  138.8650 C   0  0  0  0  0  2  0  0  0  0  0  0
  186.7720  178.8850  136.6070 C   0  0  0  0  0  2  0  0  0  0  0  0
  184.4820  174.3170  136.7370 C   0  0  0  0  0  2  0  0  0  0  0  0
  186.1980  178.1600  137.7400 N   0  0  0  0  0  0  0  0  0  0  0  0
  185.9220  175.9910  135.6860 C   0  0  2  0  0  3  0  0  0  0  0  0
  185.3460  177.9450  140.6590 C   0  0  1  0  0  3  0  0  0  0  0  0
  186.2540  173.5730  135.1610 C   0  0  0  0  0  1  0  0  0  0  0  0
  186.6160  178.5990  140.1240 C   0  0  0  0  0  2  0  0  0  0  0  0
  181.5320  174.3980  137.1630 C   0  0  0  0  0  2  0  0  0  0  0  0
  181.0540  173.6660  135.8730 C   0  0  1  0  0  3  0  0  0  0  0  0
  179.5810  175.7180  135.4880 C   0  0  2  0  0  0  0  0  0  0  0  0
  179.8130  174.2540  135.1530 C   0  0  0  0  0  2  0  0  0  0  0  0
  179.5600  176.9430  134.5940 C   0  0  0  0  0  2  0  0  0  0  0  0
  181.5250  176.8920  136.3820 C   0  0  0  0  0  2  0  0  0  0  0  0
  180.8870  176.4200  135.0920 C   0  0  1  0  0  3  0  0  0  0  0  0
  179.0950  175.9800  136.7770 O   0  0  0  0  0  1  0  0  0  0  0  0
  182.3320  175.7240  136.9880 C   0  0  2  0  0  3  0  0  0  0  0  0
  182.1010  173.4780  134.9680 O   0  0  0  0  0  0  0  0  0  0  0  0
  181.9960  172.2200  134.5940 O   0  0  0  0  0  1  0  0  0  0  0  0
  183.9120  178.8050  142.5600 C   0  0  0  0  0  3  0  0  0  0  0  0
  185.1250  178.2630  142.1060 C   0  0  0  0  0  0  0  0  0  0  0  0
  186.1420  177.9830  143.0260 C   0  0  0  0  0  3  0  0  0  0  0  0
  187.2330  177.8990  145.5280 Cl  0  0  0  0  0  0  0  0  0  0  0  0
  184.7490  178.7970  144.8320 C   0  0  0  0  0  3  0  0  0  0  0  0
  185.9560  178.2510  144.3860 C   0  0  0  0  0  0  0  0  0  0  0  0
  183.7270  179.0730  143.9200 C   0  0  0  0  0  3  0  0  0  0  0  0
  183.9270  179.7540  139.5380 C   0  0  0  0  0  2  0  0  0  0  0  0
  182.6360  180.0020  138.7810 C   0  0  0  0  0  1  0  0  0  0  0  0
  1 12  1  0  0  0  0
  1  9  1  0  0  0  0
  2 13  1  0  0  0  0
  2  4  2  0  0  0  0
  4  6  1  0  0  0  0
  5  8  1  0  0  0  0
  5  2  1  1  0  0  0
  6 36  1  6  0  0  0
  6 15  1  0  0  0  0
  7  3  1  0  0  0  0
  7 11  1  0  0  0  0
  8 12  1  1  0  0  0
  8 26  1  0  0  0  0
 10 17  1  0  0  0  0
 11 13  1  0  0  0  0
 13 10  1  0  0  0  0
 14  3  1  1  0  0  0
 14  1  1  0  0  0  0
 14  5  1  0  0  0  0
 15 30  1  1  0  0  0
 16  1  1  0  0  0  0
 17 15  1  0  0  0  0
 19 27  1  6  0  0  0
 19 18  1  0  0  0  0
 20 25  1  1  0  0  0
 21 20  1  0  0  0  0
 21 19  1  0  0  0  0
 22 20  1  0  0  0  0
 24 22  1  6  0  0  0
 24 20  1  0  0  0  0
 24 23  1  0  0  0  0
 26 23  1  6  0  0  0
 26 18  1  0  0  0  0
 28 27  1  0  0  0  0
 29 35  1  0  0  0  0
 30 29  2  0  0  0  0
 30 31  1  0  0  0  0
 31 34  2  0  0  0  0
 34 33  1  0  0  0  0
 34 32  1  0  0  0  0
 35 33  2  0  0  0  0
 37 36  1  0  0  0  0
M  END
>  <MODEL>
3

>  <REMARK>
 VINA RESULT:      -5.6      3.183      6.828
  Name = 
  4 active torsions:
  status: ('A' for Active; 'I' for Inactive)
    1  A    between atoms: C_5  and  O_12
    2  A    between atoms: C_6  and  C_31
    3  A    between atoms: C_7  and  C_14
    4  A    between atoms: C_20  and  C_36
                            x       y       z     vdW  Elec       q    Type
                         _______ _______ _______ _____ _____    ______ ____

>  <TORSDO>
F 4

$$$$
=
 OpenBabel11052415173D

 37 42  0  0  1  0  0  0  0  0999 V2000
  186.7380  174.2730  136.3740 C   0  0  0  0  0  0  0  0  0  0  0  0
  184.2070  176.2470  137.0150 C   0  0  0  0  0  0  0  0  0  0  0  0
  186.5650  176.5080  135.3740 O   0  0  0  0  0  0  0  0  0  0  0  0
  183.3430  175.9800  138.0040 C   0  0  0  0  0  3  0  0  0  0  0  0
  184.4950  175.1930  135.9410 C   0  0  2  0  0  3  0  0  0  0  0  0
  182.8050  176.9630  139.0040 C   0  0  1  0  0  3  0  0  0  0  0  0
  185.7220  177.3250  134.6060 C   0  0  0  0  0  2  0  0  0  0  0  0
  184.3830  173.7200  136.3480 C   0  0  1  0  0  3  0  0  0  0  0  0
  187.5050  174.9970  137.4700 C   0  0  0  0  0  1  0  0  0  0  0  0
  185.5020  178.1960  137.9300 C   0  0  0  0  0  2  0  0  0  0  0  0
  184.8610  178.1880  135.5290 C   0  0  0  0  0  2  0  0  0  0  0  0
  185.6980  173.3710  137.0240 C   0  0  0  0  0  2  0  0  0  0  0  0
  184.7280  177.5840  136.8550 N   0  0  0  0  0  0  0  0  0  0  0  0
  185.9610  175.2330  135.4590 C   0  0  2  0  0  3  0  0  0  0  0  0
  183.9160  177.6670  139.7920 C   0  0  1  0  0  3  0  0  0  0  0  0
  187.6960  173.4400  135.5480 C   0  0  0  0  0  1  0  0  0  0  0  0
  184.5980  178.7790  139.0010 C   0  0  0  0  0  2  0  0  0  0  0  0
  183.0970  171.7130  137.3540 C   0  0  0  0  0  2  0  0  0  0  0  0
  183.0430  170.7630  136.1200 C   0  0  1  0  0  3  0  0  0  0  0  0
  180.7340  171.7700  135.6880 C   0  0  2  0  0  0  0  0  0  0  0  0
  181.6700  170.6030  135.4170 C   0  0  0  0  0  2  0  0  0  0  0  0
  180.0940  172.7620  134.7360 C   0  0  0  0  0  2  0  0  0  0  0  0
  181.8300  173.8130  136.4510 C   0  0  0  0  0  2  0  0  0  0  0  0
  181.5080  173.0080  135.2110 C   0  0  1  0  0  3  0  0  0  0  0  0
  180.1920  171.8320  136.9800 O   0  0  0  0  0  1  0  0  0  0  0  0
  183.1200  173.2480  137.0840 C   0  0  2  0  0  3  0  0  0  0  0  0
  184.0360  171.0710  135.1870 O   0  0  0  0  0  0  0  0  0  0  0  0
  185.0370  170.2710  135.4890 O   0  0  0  0  0  1  0  0  0  0  0  0
  182.0870  178.5310  141.3150 C   0  0  0  0  0  3  0  0  0  0  0  0
  183.4250  178.1520  141.1220 C   0  0  0  0  0  0  0  0  0  0  0  0
  184.3160  178.1970  142.1990 C   0  0  0  0  0  3  0  0  0  0  0  0
  185.0030  178.6810  144.7980 Cl  0  0  0  0  0  0  0  0  0  0  0  0
  182.5500  179.0100  143.6430 C   0  0  0  0  0  3  0  0  0  0  0  0
  183.8810  178.6270  143.4570 C   0  0  0  0  0  0  0  0  0  0  0  0
  181.6520  178.9610  142.5730 C   0  0  0  0  0  3  0  0  0  0  0  0
  181.8080  177.9300  138.3660 C   0  0  0  0  0  2  0  0  0  0  0  0
  180.4760  177.2420  138.1340 C   0  0  0  0  0  1  0  0  0  0  0  0
  1 12  1  0  0  0  0
  1  9  1  0  0  0  0
  2  4  2  0  0  0  0
  4  6  1  0  0  0  0
  5  8  1  0  0  0  0
  5  2  1  1  0  0  0
  6 36  1  6  0  0  0
  6 15  1  0  0  0  0
  7  3  1  0  0  0  0
  7 11  1  0  0  0  0
  8 12  1  1  0  0  0
  8 26  1  0  0  0  0
 10 17  1  0  0  0  0
 11 13  1  0  0  0  0
 13  2  1  0  0  0  0
 13 10  1  0  0  0  0
 14  3  1  1  0  0  0
 14  5  1  0  0  0  0
 14  1  1  0  0  0  0
 15 30  1  1  0  0  0
 16  1  1  0  0  0  0
 17 15  1  0  0  0  0
 19 27  1  6  0  0  0
 19 18  1  0  0  0  0
 20 25  1  1  0  0  0
 21 20  1  0  0  0  0
 21 19  1  0  0  0  0
 22 20  1  0  0  0  0
 24 22  1  6  0  0  0
 24 20  1  0  0  0  0
 24 23  1  0  0  0  0
 26 23  1  6  0  0  0
 26 18  1  0  0  0  0
 27 28  1  0  0  0  0
 29 35  1  0  0  0  0
 30 29  2  0  0  0  0
 30 31  1  0  0  0  0
 31 34  2  0  0  0  0
 34 33  1  0  0  0  0
 34 32  1  0  0  0  0
 35 33  2  0  0  0  0
 37 36  1  0  0  0  0
M  END
>  <MODEL>
4

>  <REMARK>
 VINA RESULT:      -5.2      3.431      6.525
  Name = 
  4 active torsions:
  status: ('A' for Active; 'I' for Inactive)
    1  A    between atoms: C_5  and  O_12
    2  A    between atoms: C_6  and  C_31
    3  A    between atoms: C_7  and  C_14
    4  A    between atoms: C_20  and  C_36
                            x       y       z     vdW  Elec       q    Type
                         _______ _______ _______ _____ _____    ______ ____

>  <TORSDO>
F 4

$$$$
=
 OpenBabel11052415173D

 37 42  0  0  1  0  0  0  0  0999 V2000
  185.1250  177.1920  137.6940 C   0  0  0  0  0  0  0  0  0  0  0  0
  182.3040  178.5610  138.6330 C   0  0  0  0  0  0  0  0  0  0  0  0
  182.9610  176.1410  137.2070 O   0  0  0  0  0  0  0  0  0  0  0  0
  182.2540  179.8200  139.0900 C   0  0  0  0  0  3  0  0  0  0  0  0
  183.2660  177.5510  139.2690 C   0  0  2  0  0  3  0  0  0  0  0  0
  181.2370  180.8610  138.7170 C   0  0  1  0  0  3  0  0  0  0  0  0
  181.7840  175.6770  137.8120 C   0  0  0  0  0  2  0  0  0  0  0  0
  184.5680  178.0960  139.8680 C   0  0  1  0  0  3  0  0  0  0  0  0
  184.9290  177.8560  136.3400 C   0  0  0  0  0  1  0  0  0  0  0  0
  181.2340  178.7550  136.3690 C   0  0  0  0  0  2  0  0  0  0  0  0
  180.7230  176.7780  137.7850 C   0  0  0  0  0  2  0  0  0  0  0  0
  185.5290  178.2580  138.7040 C   0  0  0  0  0  2  0  0  0  0  0  0
  181.3300  178.1040  137.6710 N   0  0  0  0  0  0  0  0  0  0  0  0
  183.8360  176.5560  138.2370 C   0  0  2  0  0  3  0  0  0  0  0  0
  181.1820  181.1130  137.2060 C   0  0  1  0  0  3  0  0  0  0  0  0
  186.2120  176.1420  137.5930 C   0  0  0  0  0  1  0  0  0  0  0  0
  180.4170  180.0320  136.4470 C   0  0  0  0  0  2  0  0  0  0  0  0
  185.8950  179.7530  141.3470 C   0  0  0  0  0  2  0  0  0  0  0  0
  186.7100  178.7580  142.2270 C   0  0  1  0  0  3  0  0  0  0  0  0
  184.8340  179.0400  143.9410 C   0  0  2  0  0  0  0  0  0  0  0  0
  186.2750  178.6160  143.7090 C   0  0  0  0  0  2  0  0  0  0  0  0
  183.6450  178.2520  144.4550 C   0  0  0  0  0  2  0  0  0  0  0  0
  183.4380  179.0830  141.9390 C   0  0  0  0  0  2  0  0  0  0  0  0
  184.0120  178.1580  142.9910 C   0  0  1  0  0  3  0  0  0  0  0  0
  184.5870  180.4190  143.8840 O   0  0  0  0  0  1  0  0  0  0  0  0
  184.4980  179.2880  140.8350 C   0  0  2  0  0  3  0  0  0  0  0  0
  186.8140  177.5020  141.6260 O   0  0  0  0  0  0  0  0  0  0  0  0
  188.0220  177.4800  141.1040 O   0  0  0  0  0  1  0  0  0  0  0  0
  180.5300  182.9340  135.5720 C   0  0  0  0  0  3  0  0  0  0  0  0
  180.6610  182.4830  136.8960 C   0  0  0  0  0  0  0  0  0  0  0  0
  180.2690  183.3160  137.9490 C   0  0  0  0  0  3  0  0  0  0  0  0
  179.2740  185.6270  139.0110 Cl  0  0  0  0  0  0  0  0  0  0  0  0
  179.6380  185.0390  136.3690 C   0  0  0  0  0  3  0  0  0  0  0  0
  179.7600  184.5920  137.6870 C   0  0  0  0  0  0  0  0  0  0  0  0
  180.0220  184.2100  135.3110 C   0  0  0  0  0  3  0  0  0  0  0  0
  179.8710  180.5620  139.3330 C   0  0  0  0  0  2  0  0  0  0  0  0
  179.9890  180.4060  140.8370 C   0  0  0  0  0  1  0  0  0  0  0  0
  1 14  1  0  0  0  0
  1 12  1  0  0  0  0
  2  4  2  0  0  0  0
  3  7  1  0  0  0  0
  5  2  1  6  0  0  0
  5  8  1  0  0  0  0
  6  4  1  0  0  0  0
  6 36  1  6  0  0  0
  8 12  1  6  0  0  0
  8 26  1  0  0  0  0
  9  1  1  0  0  0  0
 10 17  1  0  0  0  0
 10 13  1  0  0  0  0
 11  7  1  0  0  0  0
 13 11  1  0  0  0  0
 13  2  1  0  0  0  0
 14  3  1  6  0  0  0
 14  5  1  0  0  0  0
 15 30  1  1  0  0  0
 15  6  1  0  0  0  0
 16  1  1  0  0  0  0
 17 15  1  0  0  0  0
 18 19  1  0  0  0  0
 19 27  1  6  0  0  0
 19 21  1  0  0  0  0
 20 25  1  6  0  0  0
 20 22  1  0  0  0  0
 21 20  1  0  0  0  0
 24 23  1  6  0  0  0
 24 20  1  0  0  0  0
 24 22  1  0  0  0  0
 26 18  1  1  0  0  0
 26 23  1  0  0  0  0
 28 27  1  0  0  0  0
 29 30  1  0  0  0  0
 30 31  2  0  0  0  0
 33 34  2  0  0  0  0
 34 31  1  0  0  0  0
 34 32  1  0  0  0  0
 35 29  2  0  0  0  0
 35 33  1  0  0  0  0
 36 37  1  0  0  0  0
M  END
>  <MODEL>
5

>  <REMARK>
 VINA RESULT:      -4.6      2.476      4.111
  Name = 
  4 active torsions:
  status: ('A' for Active; 'I' for Inactive)
    1  A    between atoms: C_5  and  O_12
    2  A    between atoms: C_6  and  C_31
    3  A    between atoms: C_7  and  C_14
    4  A    between atoms: C_20  and  C_36
                            x       y       z     vdW  Elec       q    Type
                         _______ _______ _______ _____ _____    ______ ____

>  <TORSDO>
F 4

$$$$
=
 OpenBabel11052415173D

 37 42  0  0  1  0  0  0  0  0999 V2000
  187.0680  175.5600  136.5630 C   0  0  0  0  0  0  0  0  0  0  0  0
  186.9420  177.9320  138.8150 C   0  0  0  0  0  0  0  0  0  0  0  0
  188.6060  177.4720  136.5030 O   0  0  0  0  0  0  0  0  0  0  0  0
  186.2180  177.7980  139.9350 C   0  0  0  0  0  3  0  0  0  0  0  0
  186.2860  177.7220  137.4460 C   0  0  2  0  0  3  0  0  0  0  0  0
  186.6550  178.1640  141.3250 C   0  0  1  0  0  3  0  0  0  0  0  0
  188.6430  178.8740  136.4740 C   0  0  0  0  0  2  0  0  0  0  0  0
  185.1130  176.7370  137.3690 C   0  0  1  0  0  3  0  0  0  0  0  0
  188.1620  174.9090  137.3950 C   0  0  0  0  0  1  0  0  0  0  0  0
  189.3000  177.7430  139.6590 C   0  0  0  0  0  2  0  0  0  0  0  0
  188.7750  179.4150  137.8980 C   0  0  0  0  0  2  0  0  0  0  0  0
  185.7340  175.3550  137.2690 C   0  0  0  0  0  2  0  0  0  0  0  0
  188.2870  178.4520  138.8840 N   0  0  0  0  0  0  0  0  0  0  0  0
  187.2500  177.0800  136.4260 C   0  0  2  0  0  3  0  0  0  0  0  0
  187.9450  177.4490  141.7420 C   0  0  1  0  0  3  0  0  0  0  0  0
  187.0260  174.9230  135.1900 C   0  0  0  0  0  1  0  0  0  0  0  0
  189.1990  178.0740  141.1370 C   0  0  0  0  0  2  0  0  0  0  0  0
  183.0020  175.6440  138.3880 C   0  0  0  0  0  2  0  0  0  0  0  0
  182.1750  175.3640  137.0980 C   0  0  1  0  0  3  0  0  0  0  0  0
  181.0180  177.5900  137.5890 C   0  0  2  0  0  0  0  0  0  0  0  0
  180.9360  176.2640  136.8500 C   0  0  0  0  0  2  0  0  0  0  0  0
  181.0340  179.0130  137.0630 C   0  0  0  0  0  2  0  0  0  0  0  0
  183.2630  178.2430  138.2880 C   0  0  0  0  0  2  0  0  0  0  0  0
  182.3260  178.2280  137.1000 C   0  0  1  0  0  3  0  0  0  0  0  0
  180.8340  177.5270  138.9780 O   0  0  0  0  0  1  0  0  0  0  0  0
  183.9640  176.8700  138.3790 C   0  0  2  0  0  3  0  0  0  0  0  0
  182.9870  175.3280  135.9620 O   0  0  0  0  0  0  0  0  0  0  0  0
  182.1460  175.3320  134.9500 O   0  0  0  0  0  1  0  0  0  0  0  0
  186.9050  177.2500  144.0420 C   0  0  0  0  0  3  0  0  0  0  0  0
  188.0500  177.3270  143.2320 C   0  0  0  0  0  0  0  0  0  0  0  0
  189.3170  177.2580  143.8200 C   0  0  0  0  0  3  0  0  0  0  0  0
  191.0330  177.0390  145.9340 Cl  0  0  0  0  0  0  0  0  0  0  0  0
  188.3030  177.0540  146.0100 C   0  0  0  0  0  3  0  0  0  0  0  0
  189.4440  177.1240  145.2070 C   0  0  0  0  0  0  0  0  0  0  0  0
  187.0340  177.1160  145.4290 C   0  0  0  0  0  3  0  0  0  0  0  0
  186.7110  179.6790  141.5180 C   0  0  0  0  0  2  0  0  0  0  0  0
  185.6380  180.1300  142.4910 C   0  0  0  0  0  1  0  0  0  0  0  0
  1 12  1  0  0  0  0
  1  9  1  0  0  0  0
  2 13  1  0  0  0  0
  2  4  2  0  0  0  0
  4  6  1  0  0  0  0
  5  2  1  1  0  0  0
  6 36  1  6  0  0  0
  6 15  1  0  0  0  0
  7  3  1  0  0  0  0
  7 11  1  0  0  0  0
  8 12  1  1  0  0  0
  8  5  1  0  0  0  0
  8 26  1  0  0  0  0
 10 17  1  0  0  0  0
 11 13  1  0  0  0  0
 13 10  1  0  0  0  0
 14  3  1  1  0  0  0
 14  1  1  0  0  0  0
 14  5  1  0  0  0  0
 15 30  1  1  0  0  0
 16  1  1  0  0  0  0
 17 15  1  0  0  0  0
 19 27  1  6  0  0  0
 19 18  1  0  0  0  0
 20 25  1  1  0  0  0
 21 19  1  0  0  0  0
 21 20  1  0  0  0  0
 22 20  1  0  0  0  0
 24 22  1  1  0  0  0
 24 20  1  0  0  0  0
 24 23  1  0  0  0  0
 26 23  1  6  0  0  0
 26 18  1  0  0  0  0
 28 27  1  0  0  0  0
 29 35  1  0  0  0  0
 30 31  1  0  0  0  0
 30 29  2  0  0  0  0
 31 34  2  0  0  0  0
 34 32  1  0  0  0  0
 34 33  1  0  0  0  0
 35 33  2  0  0  0  0
 36 37  1  0  0  0  0
M  END
>  <MODEL>
6

>  <REMARK>
 VINA RESULT:      -4.6      3.888      7.688
  Name = 
  4 active torsions:
  status: ('A' for Active; 'I' for Inactive)
    1  A    between atoms: C_5  and  O_12
    2  A    between atoms: C_6  and  C_31
    3  A    between atoms: C_7  and  C_14
    4  A    between atoms: C_20  and  C_36
                            x       y       z     vdW  Elec       q    Type
                         _______ _______ _______ _____ _____    ______ ____

>  <TORSDO>
F 4

$$$$
=
 OpenBabel11052415173D

 37 42  0  0  1  0  0  0  0  0999 V2000
  186.4890  176.5080  135.4720 C   0  0  0  0  0  0  0  0  0  0  0  0
  184.6080  177.1350  138.0760 C   0  0  0  0  0  0  0  0  0  0  0  0
  184.7330  174.9530  136.1940 O   0  0  0  0  0  0  0  0  0  0  0  0
  184.5960  178.3430  138.6570 C   0  0  0  0  0  3  0  0  0  0  0  0
  185.9350  176.3960  137.8690 C   0  0  2  0  0  3  0  0  0  0  0  0
  183.3790  179.0980  139.1110 C   0  0  1  0  0  3  0  0  0  0  0  0
  184.2820  174.2120  137.2960 C   0  0  0  0  0  2  0  0  0  0  0  0
  187.1930  177.2470  137.6660 C   0  0  1  0  0  3  0  0  0  0  0  0
  185.3880  177.1000  134.6070 C   0  0  0  0  0  1  0  0  0  0  0  0
  182.3760  177.0560  136.9270 C   0  0  0  0  0  2  0  0  0  0  0  0
  183.2280  175.0150  138.0590 C   0  0  0  0  0  2  0  0  0  0  0  0
  187.1990  177.6420  136.1990 C   0  0  0  0  0  2  0  0  0  0  0  0
  183.3650  176.4500  137.8110 N   0  0  0  0  0  0  0  0  0  0  0  0
  185.9480  175.5720  136.5640 C   0  0  2  0  0  3  0  0  0  0  0  0
  182.3740  179.3270  137.9770 C   0  0  1  0  0  3  0  0  0  0  0  0
  187.4750  175.7600  134.5980 C   0  0  0  0  0  1  0  0  0  0  0  0
  181.5390  178.0900  137.6580 C   0  0  0  0  0  2  0  0  0  0  0  0
  188.9590  178.8940  138.5940 C   0  0  0  0  0  2  0  0  0  0  0  0
  190.0850  177.8990  139.0080 C   0  0  1  0  0  3  0  0  0  0  0  0
  189.0500  178.0030  141.3440 C   0  0  2  0  0  0  0  0  0  0  0  0
  190.2870  177.6640  140.5280 C   0  0  0  0  0  2  0  0  0  0  0  0
  188.1890  177.1320  142.2380 C   0  0  0  0  0  2  0  0  0  0  0  0
  186.9670  178.0740  140.0740 C   0  0  0  0  0  2  0  0  0  0  0  0
  187.9390  177.1280  140.7480 C   0  0  1  0  0  3  0  0  0  0  0  0
  188.7650  179.3690  141.4800 O   0  0  0  0  0  1  0  0  0  0  0  0
  187.4870  178.3850  138.6540 C   0  0  2  0  0  3  0  0  0  0  0  0
  189.9710  176.6810  138.3360 O   0  0  0  0  0  0  0  0  0  0  0  0
  190.8460  175.8920  138.9230 O   0  0  0  0  0  1  0  0  0  0  0  0
  180.3720  180.4430  139.0530 C   0  0  0  0  0  3  0  0  0  0  0  0
  181.5120  180.5250  138.2380 C   0  0  0  0  0  0  0  0  0  0  0  0
  181.8740  181.7560  137.6820 C   0  0  0  0  0  3  0  0  0  0  0  0
  181.5600  184.4300  137.2240 Cl  0  0  0  0  0  0  0  0  0  0  0  0
  179.9620  182.8080  138.7310 C   0  0  0  0  0  3  0  0  0  0  0  0
  181.1000  182.8950  137.9250 C   0  0  0  0  0  0  0  0  0  0  0  0
  179.5980  181.5820  139.2960 C   0  0  0  0  0  3  0  0  0  0  0  0
  182.7560  178.4700  140.3570 C   0  0  0  0  0  2  0  0  0  0  0  0
  183.7440  178.4800  141.5070 C   0  0  0  0  0  1  0  0  0  0  0  0
  1 12  1  0  0  0  0
  1 14  1  0  0  0  0
  2  4  2  0  0  0  0
  3  7  1  0  0  0  0
  4  6  1  0  0  0  0
  5  2  1  6  0  0  0
  6 36  1  1  0  0  0
  7 11  1  0  0  0  0
  8 12  1  6  0  0  0
  8  5  1  0  0  0  0
  8 26  1  0  0  0  0
  9  1  1  0  0  0  0
 10 17  1  0  0  0  0
 10 13  1  0  0  0  0
 13 11  1  0  0  0  0
 13  2  1  0  0  0  0
 14  3  1  6  0  0  0
 14  5  1  0  0  0  0
 15 30  1  1  0  0  0
 15  6  1  0  0  0  0
 16  1  1  0  0  0  0
 17 15  1  0  0  0  0
 18 19  1  0  0  0  0
 19 27  1  6  0  0  0
 19 21  1  0  0  0  0
 20 25  1  1  0  0  0
 20 22  1  0  0  0  0
 21 20  1  0  0  0  0
 24 23  1  1  0  0  0
 24 20  1  0  0  0  0
 24 22  1  0  0  0  0
 26 18  1  1  0  0  0
 26 23  1  0  0  0  0
 27 28  1  0  0  0  0
 29 35  1  0  0  0  0
 30 29  2  0  0  0  0
 31 34  2  0  0  0  0
 31 30  1  0  0  0  0
 32 34  1  0  0  0  0
 33 35  2  0  0  0  0
 34 33  1  0  0  0  0
 36 37  1  0  0  0  0
M  END
>  <MODEL>
7

>  <REMARK>
 VINA RESULT:      -4.5      1.589      2.148
  Name = 
  4 active torsions:
  status: ('A' for Active; 'I' for Inactive)
    1  A    between atoms: C_5  and  O_12
    2  A    between atoms: C_6  and  C_31
    3  A    between atoms: C_7  and  C_14
    4  A    between atoms: C_20  and  C_36
                            x       y       z     vdW  Elec       q    Type
                         _______ _______ _______ _____ _____    ______ ____

>  <TORSDO>
F 4

$$$$
=
 OpenBabel11052415173D

 37 42  0  0  1  0  0  0  0  0999 V2000
  185.3440  176.3760  135.7350 C   0  0  0  0  0  0  0  0  0  0  0  0
  182.4850  176.7910  137.2730 C   0  0  0  0  0  0  0  0  0  0  0  0
  183.7210  178.0640  134.9990 O   0  0  0  0  0  0  0  0  0  0  0  0
  182.2390  176.2210  138.4620 C   0  0  0  0  0  3  0  0  0  0  0  0
  182.9470  175.9330  136.0910 C   0  0  2  0  0  3  0  0  0  0  0  0
  181.5940  176.8800  139.6470 C   0  0  1  0  0  3  0  0  0  0  0  0
  182.3880  178.2290  134.5940 C   0  0  0  0  0  2  0  0  0  0  0  0
  183.7620  174.6730  136.4080 C   0  0  1  0  0  3  0  0  0  0  0  0
  185.8980  177.5090  136.5840 C   0  0  0  0  0  1  0  0  0  0  0  0
  182.7540  179.2150  137.8720 C   0  0  0  0  0  2  0  0  0  0  0  0
  181.5270  178.6100  135.7990 C   0  0  0  0  0  2  0  0  0  0  0  0
  185.1930  175.1410  136.6120 C   0  0  0  0  0  2  0  0  0  0  0  0
  182.1410  178.1760  137.0530 N   0  0  0  0  0  0  0  0  0  0  0  0
  183.9430  176.6800  135.1790 C   0  0  2  0  0  3  0  0  0  0  0  0
  182.3390  178.1430  140.0950 C   0  0  1  0  0  3  0  0  0  0  0  0
  186.2960  176.0830  134.5940 C   0  0  0  0  0  1  0  0  0  0  0  0
  182.0510  179.3530  139.2110 C   0  0  0  0  0  2  0  0  0  0  0  0
  183.9630  172.3170  137.4570 C   0  0  0  0  0  2  0  0  0  0  0  0
  183.8080  171.4270  136.1870 C   0  0  1  0  0  3  0  0  0  0  0  0
  181.3370  171.2840  136.8240 C   0  0  2  0  0  0  0  0  0  0  0  0
  182.4710  170.6580  136.0290 C   0  0  0  0  0  2  0  0  0  0  0  0
  180.0150  171.8680  136.3650 C   0  0  0  0  0  2  0  0  0  0  0  0
  181.6910  173.6110  137.4670 C   0  0  0  0  0  2  0  0  0  0  0  0
  181.2560  172.7300  136.3150 C   0  0  1  0  0  3  0  0  0  0  0  0
  181.4000  171.1130  138.2150 O   0  0  0  0  0  1  0  0  0  0  0  0
  183.2330  173.6940  137.4670 C   0  0  2  0  0  3  0  0  0  0  0  0
  184.1050  172.1350  135.0210 O   0  0  0  0  0  0  0  0  0  0  0  0
  185.4080  172.0140  134.8790 O   0  0  0  0  0  1  0  0  0  0  0  0
  180.7920  178.5920  142.0490 C   0  0  0  0  0  3  0  0  0  0  0  0
  182.0930  178.4420  141.5420 C   0  0  0  0  0  0  0  0  0  0  0  0
  183.1860  178.5430  142.4100 C   0  0  0  0  0  3  0  0  0  0  0  0
  184.3590  178.9270  144.8460 Cl  0  0  0  0  0  0  0  0  0  0  0  0
  181.6900  178.9570  144.2680 C   0  0  0  0  0  3  0  0  0  0  0  0
  182.9860  178.8020  143.7690 C   0  0  0  0  0  0  0  0  0  0  0  0
  180.5930  178.8510  143.4090 C   0  0  0  0  0  3  0  0  0  0  0  0
  180.0990  177.1060  139.4230 C   0  0  0  0  0  2  0  0  0  0  0  0
  179.2910  176.0070  140.0880 C   0  0  0  0  0  1  0  0  0  0  0  0
  1  9  1  0  0  0  0
  1 12  1  0  0  0  0
  2  4  2  0  0  0  0
  4  6  1  0  0  0  0
  5  8  1  0  0  0  0
  5  2  1  1  0  0  0
  6 36  1  6  0  0  0
  6 15  1  0  0  0  0
  7  3  1  0  0  0  0
  7 11  1  0  0  0  0
  8 12  1  1  0  0  0
  8 26  1  0  0  0  0
 10 17  1  0  0  0  0
 11 13  1  0  0  0  0
 13  2  1  0  0  0  0
 13 10  1  0  0  0  0
 14  3  1  1  0  0  0
 14  1  1  0  0  0  0
 14  5  1  0  0  0  0
 15 30  1  1  0  0  0
 16  1  1  0  0  0  0
 17 15  1  0  0  0  0
 19 27  1  6  0  0  0
 19 18  1  0  0  0  0
 20 25  1  1  0  0  0
 21 19  1  0  0  0  0
 21 20  1  0  0  0  0
 22 20  1  0  0  0  0
 23 26  1  0  0  0  0
 24 22  1  1  0  0  0
 24 20  1  0  0  0  0
 24 23  1  0  0  0  0
 26 18  1  6  0  0  0
 28 27  1  0  0  0  0
 29 35  1  0  0  0  0
 30 29  2  0  0  0  0
 30 31  1  0  0  0  0
 31 34  2  0  0  0  0
 34 33  1  0  0  0  0
 34 32  1  0  0  0  0
 35 33  2  0  0  0  0
 36 37  1  0  0  0  0
M  END
>  <MODEL>
8

>  <REMARK>
 VINA RESULT:      -4.3      3.430      6.089
  Name = 
  4 active torsions:
  status: ('A' for Active; 'I' for Inactive)
    1  A    between atoms: C_5  and  O_12
    2  A    between atoms: C_6  and  C_31
    3  A    between atoms: C_7  and  C_14
    4  A    between atoms: C_20  and  C_36
                            x       y       z     vdW  Elec       q    Type
                         _______ _______ _______ _____ _____    ______ ____

>  <TORSDO>
F 4

$$$$
=
 OpenBabel11052415173D

 37 42  0  0  1  0  0  0  0  0999 V2000
  184.5480  178.6850  140.7930 C   0  0  0  0  0  0  0  0  0  0  0  0
  183.1760  177.7150  137.9840 C   0  0  0  0  0  0  0  0  0  0  0  0
  182.6360  179.8760  139.8160 O   0  0  0  0  0  0  0  0  0  0  0  0
  183.4700  176.5280  137.4340 C   0  0  0  0  0  3  0  0  0  0  0  0
  184.2990  178.6940  138.3430 C   0  0  2  0  0  3  0  0  0  0  0  0
  182.4890  175.5540  136.8460 C   0  0  1  0  0  3  0  0  0  0  0  0
  182.2000  180.5200  138.6490 C   0  0  0  0  0  2  0  0  0  0  0  0
  185.6600  178.1000  138.7250 C   0  0  1  0  0  3  0  0  0  0  0  0
  183.4770  177.8910  141.5230 C   0  0  0  0  0  1  0  0  0  0  0  0
  180.8400  177.3620  138.8350 C   0  0  0  0  0  2  0  0  0  0  0  0
  181.4270  179.5310  137.7750 C   0  0  0  0  0  2  0  0  0  0  0  0
  185.5490  177.7100  140.1890 C   0  0  0  0  0  2  0  0  0  0  0  0
  181.8020  178.1480  138.0720 N   0  0  0  0  0  0  0  0  0  0  0  0
  183.9850  179.5030  139.6190 C   0  0  2  0  0  3  0  0  0  0  0  0
  181.4070  175.1340  137.8470 C   0  0  1  0  0  3  0  0  0  0  0  0
  185.2510  179.6060  141.7690 C   0  0  0  0  0  1  0  0  0  0  0  0
  180.3180  176.1880  138.0270 C   0  0  0  0  0  2  0  0  0  0  0  0
  187.7290  176.6250  138.2420 C   0  0  0  0  0  2  0  0  0  0  0  0
  188.8450  177.7110  138.1830 C   0  0  1  0  0  3  0  0  0  0  0  0
  188.4760  177.6760  135.6540 C   0  0  2  0  0  0  0  0  0  0  0  0
  189.4230  178.0460  136.7830 C   0  0  0  0  0  2  0  0  0  0  0  0
  187.8180  178.5390  134.5950 C   0  0  0  0  0  2  0  0  0  0  0  0
  186.1420  177.3990  136.3140 C   0  0  0  0  0  2  0  0  0  0  0  0
  187.1820  178.4420  135.9630 C   0  0  1  0  0  3  0  0  0  0  0  0
  188.3430  176.3040  135.3940 O   0  0  0  0  0  1  0  0  0  0  0  0
  186.2910  177.0410  137.8090 C   0  0  2  0  0  3  0  0  0  0  0  0
  188.4640  178.8790  138.8460 O   0  0  0  0  0  0  0  0  0  0  0  0
  188.7840  178.6680  140.1050 O   0  0  0  0  0  1  0  0  0  0  0  0
  179.4700  173.5090  137.7050 C   0  0  0  0  0  3  0  0  0  0  0  0
  180.8310  173.7940  137.5040 C   0  0  0  0  0  0  0  0  0  0  0  0
  181.6640  172.8200  136.9440 C   0  0  0  0  0  3  0  0  0  0  0  0
  182.1980  170.3550  135.8960 Cl  0  0  0  0  0  0  0  0  0  0  0  0
  179.7960  171.2850  136.8040 C   0  0  0  0  0  3  0  0  0  0  0  0
  181.1490  171.5670  136.5960 C   0  0  0  0  0  0  0  0  0  0  0  0
  178.9570  172.2550  137.3580 C   0  0  0  0  0  3  0  0  0  0  0  0
  181.9250  176.0540  135.5160 C   0  0  0  0  0  2  0  0  0  0  0  0
  183.0420  176.5620  134.6240 C   0  0  0  0  0  1  0  0  0  0  0  0
  1  9  1  0  0  0  0
  1 16  1  0  0  0  0
  2 13  1  0  0  0  0
  4  2  2  0  0  0  0
  5  2  1  1  0  0  0
  5  8  1  0  0  0  0
  5 14  1  0  0  0  0
  6 36  1  6  0  0  0
  6  4  1  0  0  0  0
  6 15  1  0  0  0  0
  7  3  1  0  0  0  0
  8 12  1  1  0  0  0
 11 13  1  0  0  0  0
 11  7  1  0  0  0  0
 12  1  1  0  0  0  0
 13 10  1  0  0  0  0
 14  3  1  1  0  0  0
 14  1  1  0  0  0  0
 15 30  1  6  0  0  0
 15 17  1  0  0  0  0
 17 10  1  0  0  0  0
 19 18  1  0  0  0  0
 19 27  1  6  0  0  0
 20 25  1  6  0  0  0
 20 24  1  0  0  0  0
 20 21  1  0  0  0  0
 21 19  1  0  0  0  0
 22 20  1  0  0  0  0
 24 22  1  6  0  0  0
 24 23  1  0  0  0  0
 26 23  1  6  0  0  0
 26 18  1  0  0  0  0
 26  8  1  0  0  0  0
 27 28  1  0  0  0  0
 30 29  1  0  0  0  0
 31 30  2  0  0  0  0
 32 34  1  0  0  0  0
 33 35  1  0  0  0  0
 34 33  2  0  0  0  0
 34 31  1  0  0  0  0
 35 29  2  0  0  0  0
 37 36  1  0  0  0  0
M  END
>  <MODEL>
9

>  <REMARK>
 VINA RESULT:      -4.2      3.054      6.164
  Name = 
  4 active torsions:
  status: ('A' for Active; 'I' for Inactive)
    1  A    between atoms: C_5  and  O_12
    2  A    between atoms: C_6  and  C_31
    3  A    between atoms: C_7  and  C_14
    4  A    between atoms: C_20  and  C_36
                            x       y       z     vdW  Elec       q    Type
                         _______ _______ _______ _____ _____    ______ ____

>  <TORSDO>
F 4

$$$$
