=
 OpenBabel11052415133D

 55 57  0  0  1  0  0  0  0  0999 V2000
  189.5440  175.7760  140.9050 O   0  0  0  0  0  0  0  0  0  0  0  0
  191.3280  177.2800  140.7050 N   0  0  0  0  0  0  0  0  0  0  0  0
  190.2390  176.5090  140.1510 C   0  0  0  0  0  0  0  0  0  0  0  0
  191.4120  177.4860  142.1640 C   0  0  2  0  0  3  0  0  0  0  0  0
  191.4160  176.1550  142.9160 C   0  0  0  0  0  1  0  0  0  0  0  0
  190.9530  179.3410  143.7890 C   0  0  0  0  0  1  0  0  0  0  0  0
  190.3490  178.4560  142.7130 C   0  0  2  0  0  3  0  0  0  0  0  0
  189.1190  177.7270  143.2540 C   0  0  0  0  0  2  0  0  0  0  0  0
  187.8440  178.1960  142.5670 C   0  0  0  0  0  2  0  0  0  0  0  0
  186.6180  177.5370  143.1860 C   0  0  0  0  0  2  0  0  0  0  0  0
  185.6790  178.5780  143.7840 C   0  0  1  0  0  3  0  0  0  0  0  0
  184.0690  178.3770  141.8640 C   0  0  0  0  0  3  0  0  0  0  0  0
  181.6740  178.7960  142.1770 C   0  0  0  0  0  0  0  0  0  0  0  0
  183.2190  179.2460  144.0630 C   0  0  0  0  0  2  0  0  0  0  0  0
  181.8450  179.0730  143.4780 C   0  0  0  0  0  3  0  0  0  0  0  0
  182.8610  178.5640  141.3220 C   0  0  0  0  0  3  0  0  0  0  0  0
  184.2270  178.3220  143.3600 C   0  0  2  0  0  3  0  0  0  0  0  0
  180.3150  178.7050  141.6090 C   0  0  0  0  0  0  0  0  0  0  0  0
  179.8660  177.5980  141.2120 O   0  0  0  0  0  0  0  0  0  0  0  0
  179.2750  180.1570  141.4690 S   0  0  0  0  0  1  0  0  0  0  0  0
  185.8580  178.6170  145.2960 C   0  0  0  0  0  2  0  0  0  0  0  0
  186.3840  177.2830  145.7960 C   0  0  0  0  0  2  0  0  0  0  0  0
  187.4110  178.1740  147.8940 C   0  0  0  0  0  3  0  0  0  0  0  0
  189.9380  177.2680  147.1060 C   0  0  0  0  0  0  0  0  0  0  0  0
  188.8290  177.0530  146.2800 C   0  0  0  0  0  3  0  0  0  0  0  0
  188.5190  178.3910  148.7180 C   0  0  0  0  0  3  0  0  0  0  0  0
  187.5630  177.5000  146.6770 C   0  0  0  0  0  0  0  0  0  0  0  0
  191.1620  176.8380  146.7210 F   0  0  0  0  0  0  0  0  0  0  0  0
  189.7830  177.9380  148.3240 C   0  0  0  0  0  3  0  0  0  0  0  0
  192.4150  177.7210  139.8320 C   0  0  0  0  0  2  0  0  0  0  0  0
  194.4220  176.8560  140.1540 C   0  0  0  0  0  1  0  0  0  0  0  0
  193.2160  176.6300  139.4900 O   0  0  0  0  0  0  0  0  0  0  0  0
  189.8910  176.5400  138.6860 C   0  0  2  0  0  3  0  0  0  0  0  0
  187.2300  178.7000  136.8510 C   0  0  0  0  0  1  0  0  0  0  0  0
  188.3550  178.4600  139.1250 C   0  0  0  0  0  2  0  0  0  0  0  0
  188.4870  178.3630  137.6270 C   0  0  1  0  0  0  0  0  0  0  0  0
  188.4870  177.0920  138.4590 C   0  0  1  0  0  3  0  0  0  0  0  0
  189.7110  178.8310  137.1410 O   0  0  0  0  0  1  0  0  0  0  0  0
  190.0460  175.1730  138.0100 C   0  0  0  0  0  2  0  0  0  0  0  0
  190.8410  175.2070  136.6980 C   0  0  2  0  0  0  0  0  0  0  0  0
  189.5040  176.4430  134.8320 C   0  0  0  0  0  1  0  0  0  0  0  0
  189.7760  175.1290  135.5620 C   0  0  2  0  0  3  0  0  0  0  0  0
  188.4750  174.4360  136.0010 C   0  0  1  0  0  3  0  0  0  0  0  0
  187.3590  175.2440  135.7600 O   0  0  0  0  0  1  0  0  0  0  0  0
  187.1700  172.7520  134.9300 O   0  0  0  0  0  0  0  0  0  0  0  0
  188.3070  173.1070  135.3380 C   0  0  0  0  0  0  0  0  0  0  0  0
  189.3950  172.2570  135.1720 O   0  0  0  0  0  1  0  0  0  0  0  0
  191.7500  173.9590  136.7360 C   0  0  0  0  0  2  0  0  0  0  0  0
  192.6560  173.9730  137.7980 O   0  0  0  0  0  0  0  0  0  0  0  0
  193.7930  173.3450  137.2960 C   0  0  0  0  0  2  0  0  0  0  0  0
  193.4890  172.7610  135.9330 C   0  0  0  0  0  1  0  0  0  0  0  0
  191.5830  176.4200  136.6810 O   0  0  0  0  0  0  0  0  0  0  0  0
  192.5290  176.3450  135.7090 N   0  0  0  0  0  2  0  0  0  0  0  0
  193.7680  176.8420  136.2830 C   0  0  0  0  0  2  0  0  0  0  0  0
  194.8690  176.8190  135.2410 C   0  0  0  0  0  1  0  0  0  0  0  0
  2  4  1  0  0  0  0
  3  2  1  0  0  0  0
  3  1  2  0  0  0  0
  4  7  1  0  0  0  0
  4  5  1  1  0  0  0
  7  8  1  0  0  0  0
  7  6  1  1  0  0  0
  9 10  1  0  0  0  0
  9  8  1  0  0  0  0
 11 10  1  1  0  0  0
 11 21  1  0  0  0  0
 12 17  1  0  0  0  0
 13 15  2  0  0  0  0
 15 14  1  0  0  0  0
 16 12  2  0  0  0  0
 16 13  1  0  0  0  0
 17 11  1  6  0  0  0
 17 14  1  0  0  0  0
 18 13  1  0  0  0  0
 19 18  2  0  0  0  0
 20 18  1  0  0  0  0
 21 22  1  0  0  0  0
 22 27  1  0  0  0  0
 23 26  1  0  0  0  0
 24 29  1  0  0  0  0
 25 27  1  0  0  0  0
 25 24  2  0  0  0  0
 27 23  2  0  0  0  0
 28 24  1  0  0  0  0
 29 26  2  0  0  0  0
 30  2  1  0  0  0  0
 32 30  1  0  0  0  0
 32 31  1  0  0  0  0
 33 39  1  1  0  0  0
 33  3  1  0  0  0  0
 36 34  1  6  0  0  0
 36 37  1  0  0  0  0
 36 35  1  0  0  0  0
 37 33  1  1  0  0  0
 37 35  1  0  0  0  0
 38 36  1  0  0  0  0
 40 48  1  6  0  0  0
 40 39  1  0  0  0  0
 42 41  1  1  0  0  0
 42 43  1  0  0  0  0
 42 40  1  0  0  0  0
 43 44  1  6  0  0  0
 45 46  2  0  0  0  0
 46 43  1  0  0  0  0
 47 46  1  0  0  0  0
 48 49  1  0  0  0  0
 50 49  1  0  0  0  0
 51 50  1  0  0  0  0
 52 40  1  0  0  0  0
 53 54  1  0  0  0  0
 53 52  1  0  0  0  0
 55 54  1  0  0  0  0
M  END
>  <MODEL>
1

>  <REMARK>
 VINA RESULT:      -6.0      0.000      0.000
  Name = 
  26 active torsions:
  status: ('A' for Active; 'I' for Inactive)
    1  A    between atoms: C_1  and  N_30
    2  A    between atoms: C_2  and  C_28
    3  A    between atoms: C_2  and  C_44
    4  A    between atoms: C_6  and  C_8
    5  A    between atoms: C_6  and  O_20
    6  A    between atoms: C_6  and  C_38
    7  A    between atoms: C_6  and  C_46
    8  A    between atoms: C_7  and  C_8
    9  A    between atoms: C_7  and  C_23
   10  A    between atoms: C_7  and  C_43
   11  A    between atoms: C_10  and  C_32
   12  A    between atoms: C_11  and  C_29
   13  A    between atoms: C_11  and  C_38
   14  A    between atoms: C_12  and  O_14
   15  A    between atoms: O_14  and  C_46
   16  A    between atoms: C_16  and  N_17
   17  A    between atoms: C_16  and  C_26
   18  A    between atoms: N_17  and  C_37
   19  A    between atoms: C_19  and  C_45
   20  A    between atoms: C_19  and  C_49
   21  A    between atoms: O_20  and  N_30
   22  A    between atoms: C_26  and  C_45
   23  A    between atoms: C_28  and  C_33
   24  A    between atoms: C_33  and  C_49
   25  A    between atoms: C_33  and  C_52
   26  A    between atoms: C_37  and  O_40
                            x       y       z     vdW  Elec       q    Type
                         _______ _______ _______ _____ _____    ______ ____

>  <TORSDO>
F 26

$$$$
=
 OpenBabel11052415133D

 55 57  0  0  1  0  0  0  0  0999 V2000
  186.0710  177.4480  135.4600 O   0  0  0  0  0  0  0  0  0  0  0  0
  186.0750  177.9090  137.7570 N   0  0  0  0  0  0  0  0  0  0  0  0
  185.4800  177.3400  136.5680 C   0  0  0  0  0  0  0  0  0  0  0  0
  187.4980  178.2960  137.7490 C   0  0  2  0  0  3  0  0  0  0  0  0
  187.8920  178.9520  136.4250 C   0  0  0  0  0  1  0  0  0  0  0  0
  187.8860  175.8180  137.6710 C   0  0  0  0  0  1  0  0  0  0  0  0
  188.4530  177.1500  138.1320 C   0  0  2  0  0  3  0  0  0  0  0  0
  188.7430  177.1110  139.6320 C   0  0  0  0  0  2  0  0  0  0  0  0
  189.2180  178.4640  140.1460 C   0  0  0  0  0  2  0  0  0  0  0  0
  188.5370  178.8160  141.4620 C   0  0  0  0  0  2  0  0  0  0  0  0
  188.3550  177.5790  142.3340 C   0  0  1  0  0  3  0  0  0  0  0  0
  190.4920  177.0270  143.5390 C   0  0  0  0  0  3  0  0  0  0  0  0
  190.5610  176.8970  145.9850 C   0  0  0  0  0  0  0  0  0  0  0  0
  188.3690  177.2120  144.8720 C   0  0  0  0  0  2  0  0  0  0  0  0
  189.2560  177.1880  146.0860 C   0  0  0  0  0  3  0  0  0  0  0  0
  191.1590  176.6880  144.6460 C   0  0  0  0  0  3  0  0  0  0  0  0
  189.1500  177.7020  143.6410 C   0  0  2  0  0  3  0  0  0  0  0  0
  191.3970  176.8050  147.1990 C   0  0  0  0  0  0  0  0  0  0  0  0
  191.3570  177.7160  148.0670 O   0  0  0  0  0  0  0  0  0  0  0  0
  192.4830  175.4060  147.4670 S   0  0  0  0  0  1  0  0  0  0  0  0
  186.8700  177.3320  142.5630 C   0  0  0  0  0  2  0  0  0  0  0  0
  186.0750  178.5870  142.2470 C   0  0  0  0  0  2  0  0  0  0  0  0
  185.2040  178.7980  144.5820 C   0  0  0  0  0  3  0  0  0  0  0  0
  182.5680  178.8910  143.6470 C   0  0  0  0  0  0  0  0  0  0  0  0
  183.6270  178.7680  142.7410 C   0  0  0  0  0  3  0  0  0  0  0  0
  184.1450  178.9180  145.4870 C   0  0  0  0  0  3  0  0  0  0  0  0
  184.9470  178.7280  143.2070 C   0  0  0  0  0  0  0  0  0  0  0  0
  181.2920  178.9250  143.1960 F   0  0  0  0  0  0  0  0  0  0  0  0
  182.8280  178.9650  145.0200 C   0  0  0  0  0  3  0  0  0  0  0  0
  185.2260  178.2320  138.9030 C   0  0  0  0  0  2  0  0  0  0  0  0
  183.5940  179.6920  139.1920 C   0  0  0  0  0  1  0  0  0  0  0  0
  184.9590  179.6020  138.9190 O   0  0  0  0  0  0  0  0  0  0  0  0
  184.1610  176.6150  136.5930 C   0  0  2  0  0  3  0  0  0  0  0  0
  183.7380  172.8500  135.7210 C   0  0  0  0  0  1  0  0  0  0  0  0
  185.5080  174.6830  135.7620 C   0  0  0  0  0  2  0  0  0  0  0  0
  184.2780  174.0910  136.4020 C   0  0  1  0  0  0  0  0  0  0  0  0
  184.1700  175.4110  135.6560 C   0  0  1  0  0  3  0  0  0  0  0  0
  184.3010  174.1250  137.7980 O   0  0  0  0  0  1  0  0  0  0  0  0
  182.9730  177.5310  136.2790 C   0  0  0  0  0  2  0  0  0  0  0  0
  181.6260  177.0160  136.8040 C   0  0  2  0  0  0  0  0  0  0  0  0
  179.4690  177.6500  135.4840 C   0  0  0  0  0  1  0  0  0  0  0  0
  180.5830  178.1100  136.4230 C   0  0  2  0  0  3  0  0  0  0  0  0
  181.2310  179.4210  135.9460 C   0  0  1  0  0  3  0  0  0  0  0  0
  180.9620  179.6630  134.5950 O   0  0  0  0  0  1  0  0  0  0  0  0
  180.9000  181.7530  136.3190 O   0  0  0  0  0  0  0  0  0  0  0  0
  180.7970  180.5850  136.7770 C   0  0  0  0  0  0  0  0  0  0  0  0
  180.2860  180.3890  138.0550 O   0  0  0  0  0  1  0  0  0  0  0  0
  181.8050  176.8850  138.3330 C   0  0  0  0  0  2  0  0  0  0  0  0
  180.9030  177.6650  139.0590 O   0  0  0  0  0  0  0  0  0  0  0  0
  179.8770  176.7860  139.4010 C   0  0  0  0  0  2  0  0  0  0  0  0
  179.9700  176.4490  140.8750 C   0  0  0  0  0  1  0  0  0  0  0  0
  181.3740  175.7660  136.1770 O   0  0  0  0  0  0  0  0  0  0  0  0
  181.0080  174.8620  137.1230 N   0  0  0  0  0  2  0  0  0  0  0  0
  179.8740  174.1250  136.5930 C   0  0  0  0  0  2  0  0  0  0  0  0
  179.5110  172.9880  137.5270 C   0  0  0  0  0  1  0  0  0  0  0  0
  1  3  2  0  0  0  0
  2 30  1  0  0  0  0
  3 33  1  0  0  0  0
  3  2  1  0  0  0  0
  4  5  1  6  0  0  0
  4  2  1  0  0  0  0
  4  7  1  0  0  0  0
  7  6  1  1  0  0  0
  7  8  1  0  0  0  0
  8  9  1  0  0  0  0
  9 10  1  0  0  0  0
 11 10  1  1  0  0  0
 11 21  1  0  0  0  0
 12 17  1  0  0  0  0
 12 16  2  0  0  0  0
 13 15  2  0  0  0  0
 13 18  1  0  0  0  0
 14 15  1  0  0  0  0
 16 13  1  0  0  0  0
 17 11  1  6  0  0  0
 17 14  1  0  0  0  0
 18 20  1  0  0  0  0
 18 19  2  0  0  0  0
 22 21  1  0  0  0  0
 22 27  1  0  0  0  0
 23 26  1  0  0  0  0
 24 29  1  0  0  0  0
 25 27  1  0  0  0  0
 25 24  2  0  0  0  0
 27 23  2  0  0  0  0
 28 24  1  0  0  0  0
 29 26  2  0  0  0  0
 30 32  1  0  0  0  0
 32 31  1  0  0  0  0
 33 39  1  6  0  0  0
 35 36  1  0  0  0  0
 36 34  1  6  0  0  0
 36 38  1  0  0  0  0
 37 35  1  0  0  0  0
 37 36  1  0  0  0  0
 37 33  1  1  0  0  0
 40 39  1  6  0  0  0
 40 48  1  0  0  0  0
 42 41  1  6  0  0  0
 42 40  1  0  0  0  0
 43 44  1  6  0  0  0
 43 42  1  0  0  0  0
 43 46  1  0  0  0  0
 45 46  2  0  0  0  0
 46 47  1  0  0  0  0
 48 49  1  0  0  0  0
 49 50  1  0  0  0  0
 50 51  1  0  0  0  0
 52 40  1  0  0  0  0
 52 53  1  0  0  0  0
 54 53  1  0  0  0  0
 54 55  1  0  0  0  0
M  END
>  <MODEL>
2

>  <REMARK>
 VINA RESULT:      -5.3      4.649      8.942
  Name = 
  26 active torsions:
  status: ('A' for Active; 'I' for Inactive)
    1  A    between atoms: C_1  and  N_30
    2  A    between atoms: C_2  and  C_28
    3  A    between atoms: C_2  and  C_44
    4  A    between atoms: C_6  and  C_8
    5  A    between atoms: C_6  and  O_20
    6  A    between atoms: C_6  and  C_38
    7  A    between atoms: C_6  and  C_46
    8  A    between atoms: C_7  and  C_8
    9  A    between atoms: C_7  and  C_23
   10  A    between atoms: C_7  and  C_43
   11  A    between atoms: C_10  and  C_32
   12  A    between atoms: C_11  and  C_29
   13  A    between atoms: C_11  and  C_38
   14  A    between atoms: C_12  and  O_14
   15  A    between atoms: O_14  and  C_46
   16  A    between atoms: C_16  and  N_17
   17  A    between atoms: C_16  and  C_26
   18  A    between atoms: N_17  and  C_37
   19  A    between atoms: C_19  and  C_45
   20  A    between atoms: C_19  and  C_49
   21  A    between atoms: O_20  and  N_30
   22  A    between atoms: C_26  and  C_45
   23  A    between atoms: C_28  and  C_33
   24  A    between atoms: C_33  and  C_49
   25  A    between atoms: C_33  and  C_52
   26  A    between atoms: C_37  and  O_40
                            x       y       z     vdW  Elec       q    Type
                         _______ _______ _______ _____ _____    ______ ____

>  <TORSDO>
F 26

$$$$
=
 OpenBabel11052415133D

 55 57  0  0  1  0  0  0  0  0999 V2000
  189.2570  175.8370  140.5960 O   0  0  0  0  0  0  0  0  0  0  0  0
  191.1890  177.1300  140.3080 N   0  0  0  0  0  0  0  0  0  0  0  0
  190.0050  176.4720  139.8050 C   0  0  0  0  0  0  0  0  0  0  0  0
  191.3380  177.3580  141.7580 C   0  0  2  0  0  3  0  0  0  0  0  0
  191.1230  176.0700  142.5520 C   0  0  0  0  0  1  0  0  0  0  0  0
  191.1250  179.1320  143.5200 C   0  0  0  0  0  1  0  0  0  0  0  0
  190.4760  178.5160  142.2930 C   0  0  2  0  0  3  0  0  0  0  0  0
  189.0470  178.0780  142.6150 C   0  0  0  0  0  2  0  0  0  0  0  0
  188.0200  178.9550  141.9090 C   0  0  0  0  0  2  0  0  0  0  0  0
  186.7490  178.1720  141.6090 C   0  0  0  0  0  2  0  0  0  0  0  0
  185.5440  179.1000  141.5060 C   0  0  1  0  0  3  0  0  0  0  0  0
  184.9370  178.2590  139.2150 C   0  0  0  0  0  3  0  0  0  0  0  0
  182.6070  178.2340  138.4590 C   0  0  0  0  0  0  0  0  0  0  0  0
  183.1410  179.2960  140.6340 C   0  0  0  0  0  2  0  0  0  0  0  0
  182.1750  178.7550  139.6170 C   0  0  0  0  0  3  0  0  0  0  0  0
  184.0620  178.1050  138.2170 C   0  0  0  0  0  3  0  0  0  0  0  0
  184.4500  178.4890  140.6210 C   0  0  2  0  0  3  0  0  0  0  0  0
  181.6370  177.7780  137.4430 C   0  0  0  0  0  0  0  0  0  0  0  0
  181.5110  176.5500  137.1940 O   0  0  0  0  0  0  0  0  0  0  0  0
  180.6230  178.9480  136.5440 S   0  0  0  0  0  1  0  0  0  0  0  0
  185.0510  179.4510  142.9030 C   0  0  0  0  0  2  0  0  0  0  0  0
  184.8360  178.1870  143.7160 C   0  0  0  0  0  2  0  0  0  0  0  0
  186.5640  177.2420  145.2570 C   0  0  0  0  0  3  0  0  0  0  0  0
  186.1790  179.3440  147.0630 C   0  0  0  0  0  0  0  0  0  0  0  0
  185.4360  179.2950  145.8790 C   0  0  0  0  0  3  0  0  0  0  0  0
  187.3040  177.2900  146.4420 C   0  0  0  0  0  3  0  0  0  0  0  0
  185.6320  178.2470  144.9710 C   0  0  0  0  0  0  0  0  0  0  0  0
  185.9860  180.3550  147.9430 F   0  0  0  0  0  0  0  0  0  0  0  0
  187.1120  178.3400  147.3450 C   0  0  0  0  0  3  0  0  0  0  0  0
  192.2920  177.4280  139.3950 C   0  0  0  0  0  2  0  0  0  0  0  0
  193.9730  176.1480  138.7520 C   0  0  0  0  0  1  0  0  0  0  0  0
  193.4630  176.8250  139.8590 O   0  0  0  0  0  0  0  0  0  0  0  0
  189.6200  176.5070  138.3490 C   0  0  2  0  0  3  0  0  0  0  0  0
  187.2220  178.8740  136.4090 C   0  0  0  0  0  1  0  0  0  0  0  0
  188.4780  178.7120  138.6210 C   0  0  0  0  0  2  0  0  0  0  0  0
  188.4650  178.4120  137.1430 C   0  0  1  0  0  0  0  0  0  0  0  0
  188.3180  177.2720  138.1380 C   0  0  1  0  0  3  0  0  0  0  0  0
  189.7050  178.5890  136.5240 O   0  0  0  0  0  1  0  0  0  0  0  0
  189.5290  175.1100  137.7250 C   0  0  0  0  0  2  0  0  0  0  0  0
  189.9720  175.0480  136.2570 C   0  0  2  0  0  0  0  0  0  0  0  0
  188.2590  176.0990  134.5970 C   0  0  0  0  0  1  0  0  0  0  0  0
  188.6610  174.8840  135.4310 C   0  0  2  0  0  3  0  0  0  0  0  0
  187.4850  174.3460  136.2650 C   0  0  1  0  0  3  0  0  0  0  0  0
  186.3580  175.1670  136.1480 O   0  0  0  0  0  1  0  0  0  0  0  0
  186.3200  172.7200  134.9690 O   0  0  0  0  0  0  0  0  0  0  0  0
  187.1430  172.9400  135.8950 C   0  0  0  0  0  0  0  0  0  0  0  0
  187.7230  171.8710  136.5700 O   0  0  0  0  0  1  0  0  0  0  0  0
  190.8870  173.8070  136.1560 C   0  0  0  0  0  2  0  0  0  0  0  0
  191.7880  173.7030  137.2170 O   0  0  0  0  0  0  0  0  0  0  0  0
  192.7650  172.8220  136.7610 C   0  0  0  0  0  2  0  0  0  0  0  0
  192.4180  172.3630  135.3610 C   0  0  0  0  0  1  0  0  0  0  0  0
  190.6620  176.2570  135.9690 O   0  0  0  0  0  0  0  0  0  0  0  0
  191.5300  176.0370  134.9470 N   0  0  0  0  0  2  0  0  0  0  0  0
  192.8560  176.3810  135.4330 C   0  0  0  0  0  2  0  0  0  0  0  0
  193.9120  175.6870  134.5950 C   0  0  0  0  0  1  0  0  0  0  0  0
  2  4  1  0  0  0  0
  3  2  1  0  0  0  0
  3  1  2  0  0  0  0
  4  7  1  0  0  0  0
  4  5  1  1  0  0  0
  7  8  1  0  0  0  0
  7  6  1  1  0  0  0
  9  8  1  0  0  0  0
 10  9  1  0  0  0  0
 11 10  1  1  0  0  0
 11 21  1  0  0  0  0
 12 17  1  0  0  0  0
 13 15  2  0  0  0  0
 15 14  1  0  0  0  0
 16 13  1  0  0  0  0
 16 12  2  0  0  0  0
 17 14  1  0  0  0  0
 17 11  1  1  0  0  0
 18 13  1  0  0  0  0
 19 18  2  0  0  0  0
 20 18  1  0  0  0  0
 21 22  1  0  0  0  0
 22 27  1  0  0  0  0
 23 26  1  0  0  0  0
 24 29  1  0  0  0  0
 24 28  1  0  0  0  0
 25 24  2  0  0  0  0
 26 29  2  0  0  0  0
 27 23  2  0  0  0  0
 27 25  1  0  0  0  0
 30 32  1  0  0  0  0
 30  2  1  0  0  0  0
 31 32  1  0  0  0  0
 33 39  1  1  0  0  0
 33  3  1  0  0  0  0
 36 34  1  6  0  0  0
 36 37  1  0  0  0  0
 36 35  1  0  0  0  0
 37 33  1  1  0  0  0
 37 35  1  0  0  0  0
 38 36  1  0  0  0  0
 40 48  1  6  0  0  0
 40 39  1  0  0  0  0
 42 41  1  1  0  0  0
 42 40  1  0  0  0  0
 42 43  1  0  0  0  0
 43 44  1  6  0  0  0
 45 46  2  0  0  0  0
 46 43  1  0  0  0  0
 46 47  1  0  0  0  0
 48 49  1  0  0  0  0
 50 49  1  0  0  0  0
 51 50  1  0  0  0  0
 52 40  1  0  0  0  0
 53 54  1  0  0  0  0
 53 52  1  0  0  0  0
 55 54  1  0  0  0  0
M  END
>  <MODEL>
3

>  <REMARK>
 VINA RESULT:      -4.5      1.828      2.340
  Name = 
  26 active torsions:
  status: ('A' for Active; 'I' for Inactive)
    1  A    between atoms: C_1  and  N_30
    2  A    between atoms: C_2  and  C_28
    3  A    between atoms: C_2  and  C_44
    4  A    between atoms: C_6  and  C_8
    5  A    between atoms: C_6  and  O_20
    6  A    between atoms: C_6  and  C_38
    7  A    between atoms: C_6  and  C_46
    8  A    between atoms: C_7  and  C_8
    9  A    between atoms: C_7  and  C_23
   10  A    between atoms: C_7  and  C_43
   11  A    between atoms: C_10  and  C_32
   12  A    between atoms: C_11  and  C_29
   13  A    between atoms: C_11  and  C_38
   14  A    between atoms: C_12  and  O_14
   15  A    between atoms: O_14  and  C_46
   16  A    between atoms: C_16  and  N_17
   17  A    between atoms: C_16  and  C_26
   18  A    between atoms: N_17  and  C_37
   19  A    between atoms: C_19  and  C_45
   20  A    between atoms: C_19  and  C_49
   21  A    between atoms: O_20  and  N_30
   22  A    between atoms: C_26  and  C_45
   23  A    between atoms: C_28  and  C_33
   24  A    between atoms: C_33  and  C_49
   25  A    between atoms: C_33  and  C_52
   26  A    between atoms: C_37  and  O_40
                            x       y       z     vdW  Elec       q    Type
                         _______ _______ _______ _____ _____    ______ ____

>  <TORSDO>
F 26

$$$$
=
 OpenBabel11052415133D

 55 57  0  0  1  0  0  0  0  0999 V2000
  188.9150  175.6990  140.3150 O   0  0  0  0  0  0  0  0  0  0  0  0
  190.7180  177.1390  139.9130 N   0  0  0  0  0  0  0  0  0  0  0  0
  189.5250  176.4380  139.4960 C   0  0  0  0  0  0  0  0  0  0  0  0
  191.0210  177.2760  141.3500 C   0  0  2  0  0  3  0  0  0  0  0  0
  190.9820  175.9220  142.0600 C   0  0  0  0  0  1  0  0  0  0  0  0
  190.9670  179.0260  143.1470 C   0  0  0  0  0  1  0  0  0  0  0  0
  190.1570  178.3290  142.0670 C   0  0  2  0  0  3  0  0  0  0  0  0
  188.8840  177.7290  142.6650 C   0  0  0  0  0  2  0  0  0  0  0  0
  187.6680  178.6020  142.3810 C   0  0  0  0  0  2  0  0  0  0  0  0
  186.3790  177.8660  142.7190 C   0  0  0  0  0  2  0  0  0  0  0  0
  185.4220  178.7630  143.4970 C   0  0  1  0  0  3  0  0  0  0  0  0
  183.6970  178.3530  141.7150 C   0  0  0  0  0  3  0  0  0  0  0  0
  181.3100  178.6700  142.1750 C   0  0  0  0  0  0  0  0  0  0  0  0
  182.9550  179.3230  143.9120 C   0  0  0  0  0  2  0  0  0  0  0  0
  181.5550  179.0420  143.4400 C   0  0  0  0  0  3  0  0  0  0  0  0
  182.4460  178.4420  141.2520 C   0  0  0  0  0  3  0  0  0  0  0  0
  183.9610  178.4060  143.1960 C   0  0  2  0  0  3  0  0  0  0  0  0
  179.9220  178.4740  141.7140 C   0  0  0  0  0  0  0  0  0  0  0  0
  179.2360  177.5160  142.1590 O   0  0  0  0  0  0  0  0  0  0  0  0
  179.1810  179.5810  140.5180 S   0  0  0  0  0  1  0  0  0  0  0  0
  185.7570  178.6980  144.9810 C   0  0  0  0  0  2  0  0  0  0  0  0
  186.2930  177.3220  145.3380 C   0  0  0  0  0  2  0  0  0  0  0  0
  188.7570  177.1070  145.7060 C   0  0  0  0  0  3  0  0  0  0  0  0
  188.4970  178.0180  148.3390 C   0  0  0  0  0  0  0  0  0  0  0  0
  187.3660  177.9040  147.5230 C   0  0  0  0  0  3  0  0  0  0  0  0
  189.8860  177.2170  146.5220 C   0  0  0  0  0  3  0  0  0  0  0  0
  187.4950  177.4550  146.2040 C   0  0  0  0  0  0  0  0  0  0  0  0
  188.3710  178.4490  149.6160 F   0  0  0  0  0  0  0  0  0  0  0  0
  189.7570  177.6730  147.8380 C   0  0  0  0  0  3  0  0  0  0  0  0
  191.6850  177.5760  138.9070 C   0  0  0  0  0  2  0  0  0  0  0  0
  193.2500  176.1010  138.4030 C   0  0  0  0  0  1  0  0  0  0  0  0
  192.9650  177.1540  139.2720 O   0  0  0  0  0  0  0  0  0  0  0  0
  188.9700  176.5470  138.1000 C   0  0  2  0  0  3  0  0  0  0  0  0
  187.2470  179.6390  136.4920 C   0  0  0  0  0  1  0  0  0  0  0  0
  188.4280  178.9260  138.6350 C   0  0  0  0  0  2  0  0  0  0  0  0
  188.3340  178.8020  137.1360 C   0  0  1  0  0  0  0  0  0  0  0  0
  187.9050  177.6350  138.0090 C   0  0  1  0  0  3  0  0  0  0  0  0
  189.5760  178.7260  136.5010 O   0  0  0  0  0  1  0  0  0  0  0  0
  188.4250  175.2160  137.5710 C   0  0  0  0  0  2  0  0  0  0  0  0
  188.2950  175.1530  136.0430 C   0  0  2  0  0  0  0  0  0  0  0  0
  186.2750  176.6520  135.3600 C   0  0  0  0  0  1  0  0  0  0  0  0
  186.7680  175.2600  135.7480 C   0  0  2  0  0  3  0  0  0  0  0  0
  185.8960  174.6280  136.8470 C   0  0  1  0  0  3  0  0  0  0  0  0
  184.9100  175.5150  137.2900 O   0  0  0  0  0  1  0  0  0  0  0  0
  185.1980  173.0950  135.1600 O   0  0  0  0  0  0  0  0  0  0  0  0
  185.2750  173.3480  136.3900 C   0  0  0  0  0  0  0  0  0  0  0  0
  184.7750  172.4370  137.3140 O   0  0  0  0  0  1  0  0  0  0  0  0
  188.8760  173.7800  135.6380 C   0  0  0  0  0  2  0  0  0  0  0  0
  189.0720  172.9260  136.7250 O   0  0  0  0  0  0  0  0  0  0  0  0
  188.7850  171.6570  136.2280 C   0  0  0  0  0  2  0  0  0  0  0  0
  188.5630  171.7370  134.7330 C   0  0  0  0  0  1  0  0  0  0  0  0
  189.0410  176.2380  135.5070 O   0  0  0  0  0  0  0  0  0  0  0  0
  189.9760  175.7510  134.6500 N   0  0  0  0  0  2  0  0  0  0  0  0
  191.2720  175.9480  135.2770 C   0  0  0  0  0  2  0  0  0  0  0  0
  192.1850  174.7800  134.9600 C   0  0  0  0  0  1  0  0  0  0  0  0
  2  4  1  0  0  0  0
  3  2  1  0  0  0  0
  3  1  2  0  0  0  0
  4  5  1  1  0  0  0
  4  7  1  0  0  0  0
  7  8  1  0  0  0  0
  7  6  1  1  0  0  0
  9  8  1  0  0  0  0
  9 10  1  0  0  0  0
 11 10  1  6  0  0  0
 11 21  1  0  0  0  0
 12 17  1  0  0  0  0
 13 15  2  0  0  0  0
 15 14  1  0  0  0  0
 16 12  2  0  0  0  0
 16 13  1  0  0  0  0
 17 11  1  6  0  0  0
 17 14  1  0  0  0  0
 18 19  2  0  0  0  0
 18 13  1  0  0  0  0
 20 18  1  0  0  0  0
 21 22  1  0  0  0  0
 22 27  1  0  0  0  0
 23 27  2  0  0  0  0
 23 26  1  0  0  0  0
 24 28  1  0  0  0  0
 25 24  2  0  0  0  0
 26 29  2  0  0  0  0
 27 25  1  0  0  0  0
 29 24  1  0  0  0  0
 30 32  1  0  0  0  0
 30  2  1  0  0  0  0
 31 32  1  0  0  0  0
 33 39  1  1  0  0  0
 33  3  1  0  0  0  0
 36 34  1  6  0  0  0
 36 37  1  0  0  0  0
 36 35  1  0  0  0  0
 37 33  1  6  0  0  0
 37 35  1  0  0  0  0
 38 36  1  0  0  0  0
 40 48  1  6  0  0  0
 40 39  1  0  0  0  0
 42 41  1  1  0  0  0
 42 40  1  0  0  0  0
 42 43  1  0  0  0  0
 43 44  1  6  0  0  0
 45 46  2  0  0  0  0
 46 43  1  0  0  0  0
 46 47  1  0  0  0  0
 48 49  1  0  0  0  0
 50 49  1  0  0  0  0
 51 50  1  0  0  0  0
 52 40  1  0  0  0  0
 53 54  1  0  0  0  0
 53 52  1  0  0  0  0
 55 54  1  0  0  0  0
M  END
>  <MODEL>
4

>  <REMARK>
 VINA RESULT:      -4.1      1.540      2.204
  Name = 
  26 active torsions:
  status: ('A' for Active; 'I' for Inactive)
    1  A    between atoms: C_1  and  N_30
    2  A    between atoms: C_2  and  C_28
    3  A    between atoms: C_2  and  C_44
    4  A    between atoms: C_6  and  C_8
    5  A    between atoms: C_6  and  O_20
    6  A    between atoms: C_6  and  C_38
    7  A    between atoms: C_6  and  C_46
    8  A    between atoms: C_7  and  C_8
    9  A    between atoms: C_7  and  C_23
   10  A    between atoms: C_7  and  C_43
   11  A    between atoms: C_10  and  C_32
   12  A    between atoms: C_11  and  C_29
   13  A    between atoms: C_11  and  C_38
   14  A    between atoms: C_12  and  O_14
   15  A    between atoms: O_14  and  C_46
   16  A    between atoms: C_16  and  N_17
   17  A    between atoms: C_16  and  C_26
   18  A    between atoms: N_17  and  C_37
   19  A    between atoms: C_19  and  C_45
   20  A    between atoms: C_19  and  C_49
   21  A    between atoms: O_20  and  N_30
   22  A    between atoms: C_26  and  C_45
   23  A    between atoms: C_28  and  C_33
   24  A    between atoms: C_33  and  C_49
   25  A    between atoms: C_33  and  C_52
   26  A    between atoms: C_37  and  O_40
                            x       y       z     vdW  Elec       q    Type
                         _______ _______ _______ _____ _____    ______ ____

>  <TORSDO>
F 26

$$$$
=
 OpenBabel11052415133D

 55 57  0  0  1  0  0  0  0  0999 V2000
  187.1300  179.6010  141.1630 O   0  0  0  0  0  0  0  0  0  0  0  0
  187.7110  177.4480  141.8820 N   0  0  0  0  0  0  0  0  0  0  0  0
  186.7840  178.5510  141.7700 C   0  0  0  0  0  0  0  0  0  0  0  0
  188.9010  177.4020  141.0100 C   0  0  2  0  0  3  0  0  0  0  0  0
  190.0510  178.2260  141.5890 C   0  0  0  0  0  1  0  0  0  0  0  0
  187.6470  176.7660  138.9320 C   0  0  0  0  0  1  0  0  0  0  0  0
  188.6080  177.7710  139.5440 C   0  0  2  0  0  3  0  0  0  0  0  0
  189.8800  177.8680  138.7020 C   0  0  0  0  0  2  0  0  0  0  0  0
  189.7520  177.0820  137.4030 C   0  0  0  0  0  2  0  0  0  0  0  0
  191.1220  176.7860  136.8090 C   0  0  0  0  0  2  0  0  0  0  0  0
  191.2350  175.3250  136.3880 C   0  0  1  0  0  3  0  0  0  0  0  0
  193.2100  174.4660  137.6850 C   0  0  0  0  0  3  0  0  0  0  0  0
  195.4980  174.8370  136.8880 C   0  0  0  0  0  0  0  0  0  0  0  0
  193.6250  175.9190  135.6770 C   0  0  0  0  0  2  0  0  0  0  0  0
  195.0650  175.5060  135.8090 C   0  0  0  0  0  3  0  0  0  0  0  0
  194.5250  174.4160  137.9220 C   0  0  0  0  0  3  0  0  0  0  0  0
  192.7010  174.8780  136.3290 C   0  0  2  0  0  3  0  0  0  0  0  0
  196.9300  174.5080  137.0320 C   0  0  0  0  0  0  0  0  0  0  0  0
  197.7820  175.4260  137.1620 O   0  0  0  0  0  0  0  0  0  0  0  0
  197.4910  172.8070  137.0240 S   0  0  0  0  0  1  0  0  0  0  0  0
  190.3870  174.4630  137.3140 C   0  0  0  0  0  2  0  0  0  0  0  0
  189.6990  173.3640  136.5230 C   0  0  0  0  0  2  0  0  0  0  0  0
  187.3940  172.9380  137.3940 C   0  0  0  0  0  3  0  0  0  0  0  0
  186.3000  174.6940  135.5110 C   0  0  0  0  0  0  0  0  0  0  0  0
  187.6820  174.4780  135.5460 C   0  0  0  0  0  3  0  0  0  0  0  0
  186.0130  173.1510  137.3580 C   0  0  0  0  0  3  0  0  0  0  0  0
  188.2310  173.6050  136.4920 C   0  0  0  0  0  0  0  0  0  0  0  0
  185.7680  175.5360  134.5940 F   0  0  0  0  0  0  0  0  0  0  0  0
  185.4660  174.0300  136.4170 C   0  0  0  0  0  3  0  0  0  0  0  0
  187.5420  176.4700  142.9550 C   0  0  0  0  0  2  0  0  0  0  0  0
  188.8630  176.8350  144.6860 C   0  0  0  0  0  1  0  0  0  0  0  0
  188.7880  176.1320  143.4840 O   0  0  0  0  0  0  0  0  0  0  0  0
  185.3990  178.5050  142.3610 C   0  0  2  0  0  3  0  0  0  0  0  0
  184.2740  178.6350  146.0800 C   0  0  0  0  0  1  0  0  0  0  0  0
  186.3290  179.0170  144.6220 C   0  0  0  0  0  2  0  0  0  0  0  0
  184.8300  179.1120  144.7540 C   0  0  1  0  0  0  0  0  0  0  0  0
  185.4330  178.0730  143.8240 C   0  0  1  0  0  3  0  0  0  0  0  0
  184.2900  180.2690  144.1860 O   0  0  0  0  0  1  0  0  0  0  0  0
  184.4410  177.6160  141.5610 C   0  0  0  0  0  2  0  0  0  0  0  0
  183.2140  178.3540  141.0080 C   0  0  2  0  0  0  0  0  0  0  0  0
  182.9290  176.1490  139.6460 C   0  0  0  0  0  1  0  0  0  0  0  0
  182.2600  177.2400  140.4800 C   0  0  2  0  0  3  0  0  0  0  0  0
  181.0020  177.7980  139.7930 C   0  0  1  0  0  3  0  0  0  0  0  0
  181.1810  177.9080  138.4100 O   0  0  0  0  0  1  0  0  0  0  0  0
  179.4870  176.0140  139.3380 O   0  0  0  0  0  0  0  0  0  0  0  0
  179.7940  176.9720  140.0950 C   0  0  0  0  0  0  0  0  0  0  0  0
  179.0030  177.2550  141.2030 O   0  0  0  0  0  1  0  0  0  0  0  0
  183.7520  179.2510  139.8720 C   0  0  0  0  0  2  0  0  0  0  0  0
  184.7950  178.6620  139.1550 O   0  0  0  0  0  0  0  0  0  0  0  0
  184.4780  178.8980  137.8190 C   0  0  0  0  0  2  0  0  0  0  0  0
  184.6490  177.6200  137.0260 C   0  0  0  0  0  1  0  0  0  0  0  0
  182.6520  179.1050  142.0760 O   0  0  0  0  0  0  0  0  0  0  0  0
  181.9660  178.2650  142.8940 N   0  0  0  0  0  2  0  0  0  0  0  0
  181.0320  179.0790  143.6530 C   0  0  0  0  0  2  0  0  0  0  0  0
  180.3020  180.0310  142.7260 C   0  0  0  0  0  1  0  0  0  0  0  0
  1  3  2  0  0  0  0
  2 30  1  0  0  0  0
  3  2  1  0  0  0  0
  3 33  1  0  0  0  0
  4  5  1  1  0  0  0
  4  2  1  0  0  0  0
  7  6  1  6  0  0  0
  7  4  1  0  0  0  0
  8  7  1  0  0  0  0
  9  8  1  0  0  0  0
 10  9  1  0  0  0  0
 11 10  1  1  0  0  0
 11 21  1  0  0  0  0
 12 16  2  0  0  0  0
 13 18  1  0  0  0  0
 13 16  1  0  0  0  0
 14 15  1  0  0  0  0
 14 17  1  0  0  0  0
 15 13  2  0  0  0  0
 17 11  1  1  0  0  0
 17 12  1  0  0  0  0
 18 19  2  0  0  0  0
 20 18  1  0  0  0  0
 22 21  1  0  0  0  0
 24 25  2  0  0  0  0
 24 29  1  0  0  0  0
 25 27  1  0  0  0  0
 26 23  1  0  0  0  0
 27 22  1  0  0  0  0
 27 23  2  0  0  0  0
 28 24  1  0  0  0  0
 29 26  2  0  0  0  0
 30 32  1  0  0  0  0
 32 31  1  0  0  0  0
 33 39  1  6  0  0  0
 35 36  1  0  0  0  0
 36 34  1  1  0  0  0
 37 33  1  6  0  0  0
 37 35  1  0  0  0  0
 37 36  1  0  0  0  0
 38 36  1  0  0  0  0
 40 48  1  6  0  0  0
 40 39  1  0  0  0  0
 40 52  1  0  0  0  0
 42 41  1  6  0  0  0
 42 40  1  0  0  0  0
 43 44  1  6  0  0  0
 43 46  1  0  0  0  0
 43 42  1  0  0  0  0
 45 46  2  0  0  0  0
 46 47  1  0  0  0  0
 49 48  1  0  0  0  0
 50 49  1  0  0  0  0
 51 50  1  0  0  0  0
 52 53  1  0  0  0  0
 53 54  1  0  0  0  0
 55 54  1  0  0  0  0
M  END
>  <MODEL>
5

>  <REMARK>
 VINA RESULT:      -3.8      4.518     10.619
  Name = 
  26 active torsions:
  status: ('A' for Active; 'I' for Inactive)
    1  A    between atoms: C_1  and  N_30
    2  A    between atoms: C_2  and  C_28
    3  A    between atoms: C_2  and  C_44
    4  A    between atoms: C_6  and  C_8
    5  A    between atoms: C_6  and  O_20
    6  A    between atoms: C_6  and  C_38
    7  A    between atoms: C_6  and  C_46
    8  A    between atoms: C_7  and  C_8
    9  A    between atoms: C_7  and  C_23
   10  A    between atoms: C_7  and  C_43
   11  A    between atoms: C_10  and  C_32
   12  A    between atoms: C_11  and  C_29
   13  A    between atoms: C_11  and  C_38
   14  A    between atoms: C_12  and  O_14
   15  A    between atoms: O_14  and  C_46
   16  A    between atoms: C_16  and  N_17
   17  A    between atoms: C_16  and  C_26
   18  A    between atoms: N_17  and  C_37
   19  A    between atoms: C_19  and  C_45
   20  A    between atoms: C_19  and  C_49
   21  A    between atoms: O_20  and  N_30
   22  A    between atoms: C_26  and  C_45
   23  A    between atoms: C_28  and  C_33
   24  A    between atoms: C_33  and  C_49
   25  A    between atoms: C_33  and  C_52
   26  A    between atoms: C_37  and  O_40
                            x       y       z     vdW  Elec       q    Type
                         _______ _______ _______ _____ _____    ______ ____

>  <TORSDO>
F 26

$$$$
=
 OpenBabel11052415133D

 55 57  0  0  1  0  0  0  0  0999 V2000
  186.1300  179.7490  140.5110 O   0  0  0  0  0  0  0  0  0  0  0  0
  187.0370  177.8880  141.6060 N   0  0  0  0  0  0  0  0  0  0  0  0
  185.9540  178.8020  141.3240 C   0  0  0  0  0  0  0  0  0  0  0  0
  188.2080  177.8420  140.7090 C   0  0  2  0  0  3  0  0  0  0  0  0
  189.3840  178.6310  141.2830 C   0  0  0  0  0  1  0  0  0  0  0  0
  187.1300  177.1410  138.5540 C   0  0  0  0  0  1  0  0  0  0  0  0
  187.8910  178.2510  139.2580 C   0  0  2  0  0  3  0  0  0  0  0  0
  189.1480  178.6150  138.4680 C   0  0  0  0  0  2  0  0  0  0  0  0
  189.4350  177.5970  137.3730 C   0  0  0  0  0  2  0  0  0  0  0  0
  190.7160  176.8270  137.6670 C   0  0  0  0  0  2  0  0  0  0  0  0
  190.7260  175.4830  136.9480 C   0  0  1  0  0  3  0  0  0  0  0  0
  192.9960  175.5390  138.0280 C   0  0  0  0  0  3  0  0  0  0  0  0
  194.7990  174.0730  137.2500 C   0  0  0  0  0  0  0  0  0  0  0  0
  192.6710  174.1220  135.9790 C   0  0  0  0  0  2  0  0  0  0  0  0
  194.0160  173.5340  136.3040 C   0  0  0  0  0  3  0  0  0  0  0  0
  194.2910  175.2090  138.0530 C   0  0  0  0  0  3  0  0  0  0  0  0
  192.0180  174.7080  137.2410 C   0  0  2  0  0  3  0  0  0  0  0  0
  196.1460  173.5250  137.5000 C   0  0  0  0  0  0  0  0  0  0  0  0
  196.3110  172.6030  138.3410 O   0  0  0  0  0  0  0  0  0  0  0  0
  197.5750  174.1530  136.6210 S   0  0  0  0  0  1  0  0  0  0  0  0
  189.4700  174.7020  137.3090 C   0  0  0  0  0  2  0  0  0  0  0  0
  188.7600  174.2380  136.0500 C   0  0  0  0  0  2  0  0  0  0  0  0
  186.6940  175.4810  135.3880 C   0  0  0  0  0  3  0  0  0  0  0  0
  185.1570  173.9950  137.1930 C   0  0  0  0  0  0  0  0  0  0  0  0
  186.5300  173.7500  137.0760 C   0  0  0  0  0  3  0  0  0  0  0  0
  185.3240  175.7280  135.5070 C   0  0  0  0  0  3  0  0  0  0  0  0
  187.2980  174.4880  136.1690 C   0  0  0  0  0  0  0  0  0  0  0  0
  184.4150  173.2830  138.0730 F   0  0  0  0  0  0  0  0  0  0  0  0
  184.5550  174.9850  136.4090 C   0  0  0  0  0  3  0  0  0  0  0  0
  187.0320  177.1280  142.8550 C   0  0  0  0  0  2  0  0  0  0  0  0
  188.1580  177.1970  144.7540 C   0  0  0  0  0  1  0  0  0  0  0  0
  188.3260  177.0680  143.3750 O   0  0  0  0  0  0  0  0  0  0  0  0
  184.6010  178.6750  141.9720 C   0  0  2  0  0  3  0  0  0  0  0  0
  183.3950  178.7180  145.6680 C   0  0  0  0  0  1  0  0  0  0  0  0
  185.2800  179.5930  144.1940 C   0  0  0  0  0  2  0  0  0  0  0  0
  183.8180  179.2470  144.3130 C   0  0  1  0  0  0  0  0  0  0  0  0
  184.7250  178.3740  143.4620 C   0  0  1  0  0  3  0  0  0  0  0  0
  182.9740  180.1500  143.6600 O   0  0  0  0  0  1  0  0  0  0  0  0
  183.7080  177.6350  141.2860 C   0  0  0  0  0  2  0  0  0  0  0  0
  182.3860  178.1990  140.7490 C   0  0  2  0  0  0  0  0  0  0  0  0
  182.7180  175.8910  139.5830 C   0  0  0  0  0  1  0  0  0  0  0  0
  181.7940  177.0810  139.8380 C   0  0  2  0  0  3  0  0  0  0  0  0
  181.1840  177.6240  138.5340 C   0  0  1  0  0  3  0  0  0  0  0  0
  181.8880  177.1710  137.4130 O   0  0  0  0  0  1  0  0  0  0  0  0
  179.0130  177.8840  137.5850 O   0  0  0  0  0  0  0  0  0  0  0  0
  179.7370  177.2740  138.4140 C   0  0  0  0  0  0  0  0  0  0  0  0
  179.1810  176.2820  139.2150 O   0  0  0  0  0  1  0  0  0  0  0  0
  182.7720  179.4630  139.9500 C   0  0  0  0  0  2  0  0  0  0  0  0
  181.6700  180.1280  139.4090 O   0  0  0  0  0  0  0  0  0  0  0  0
  182.2220  181.1360  138.6220 C   0  0  0  0  0  2  0  0  0  0  0  0
  181.1120  181.9770  138.0270 C   0  0  0  0  0  1  0  0  0  0  0  0
  181.5620  178.4940  141.8690 O   0  0  0  0  0  0  0  0  0  0  0  0
  180.3950  179.0340  141.4300 N   0  0  0  0  0  2  0  0  0  0  0  0
  179.3510  178.5830  142.3330 C   0  0  0  0  0  2  0  0  0  0  0  0
  179.9290  178.3340  143.7120 C   0  0  0  0  0  1  0  0  0  0  0  0
  1  3  2  0  0  0  0
  2 30  1  0  0  0  0
  3  2  1  0  0  0  0
  3 33  1  0  0  0  0
  4  5  1  1  0  0  0
  4  2  1  0  0  0  0
  7  6  1  6  0  0  0
  7  4  1  0  0  0  0
  8  7  1  0  0  0  0
  9 10  1  0  0  0  0
  9  8  1  0  0  0  0
 11 21  1  1  0  0  0
 11 10  1  0  0  0  0
 12 16  2  0  0  0  0
 13 18  1  0  0  0  0
 13 16  1  0  0  0  0
 14 15  1  0  0  0  0
 14 17  1  0  0  0  0
 15 13  2  0  0  0  0
 17 11  1  6  0  0  0
 17 12  1  0  0  0  0
 18 19  2  0  0  0  0
 20 18  1  0  0  0  0
 22 27  1  0  0  0  0
 22 21  1  0  0  0  0
 23 26  2  0  0  0  0
 23 27  1  0  0  0  0
 24 28  1  0  0  0  0
 25 24  1  0  0  0  0
 26 29  1  0  0  0  0
 27 25  2  0  0  0  0
 29 24  2  0  0  0  0
 30 32  1  0  0  0  0
 32 31  1  0  0  0  0
 33 39  1  6  0  0  0
 35 36  1  0  0  0  0
 36 34  1  1  0  0  0
 37 33  1  6  0  0  0
 37 35  1  0  0  0  0
 37 36  1  0  0  0  0
 38 36  1  0  0  0  0
 40 48  1  6  0  0  0
 40 39  1  0  0  0  0
 40 52  1  0  0  0  0
 42 41  1  6  0  0  0
 42 40  1  0  0  0  0
 43 44  1  6  0  0  0
 43 42  1  0  0  0  0
 45 46  2  0  0  0  0
 46 43  1  0  0  0  0
 46 47  1  0  0  0  0
 49 48  1  0  0  0  0
 50 49  1  0  0  0  0
 51 50  1  0  0  0  0
 53 52  1  0  0  0  0
 53 54  1  0  0  0  0
 54 55  1  0  0  0  0
M  END
>  <MODEL>
6

>  <REMARK>
 VINA RESULT:      -3.7      4.395     10.788
  Name = 
  26 active torsions:
  status: ('A' for Active; 'I' for Inactive)
    1  A    between atoms: C_1  and  N_30
    2  A    between atoms: C_2  and  C_28
    3  A    between atoms: C_2  and  C_44
    4  A    between atoms: C_6  and  C_8
    5  A    between atoms: C_6  and  O_20
    6  A    between atoms: C_6  and  C_38
    7  A    between atoms: C_6  and  C_46
    8  A    between atoms: C_7  and  C_8
    9  A    between atoms: C_7  and  C_23
   10  A    between atoms: C_7  and  C_43
   11  A    between atoms: C_10  and  C_32
   12  A    between atoms: C_11  and  C_29
   13  A    between atoms: C_11  and  C_38
   14  A    between atoms: C_12  and  O_14
   15  A    between atoms: O_14  and  C_46
   16  A    between atoms: C_16  and  N_17
   17  A    between atoms: C_16  and  C_26
   18  A    between atoms: N_17  and  C_37
   19  A    between atoms: C_19  and  C_45
   20  A    between atoms: C_19  and  C_49
   21  A    between atoms: O_20  and  N_30
   22  A    between atoms: C_26  and  C_45
   23  A    between atoms: C_28  and  C_33
   24  A    between atoms: C_33  and  C_49
   25  A    between atoms: C_33  and  C_52
   26  A    between atoms: C_37  and  O_40
                            x       y       z     vdW  Elec       q    Type
                         _______ _______ _______ _____ _____    ______ ____

>  <TORSDO>
F 26

$$$$
=
 OpenBabel11052415133D

 55 57  0  0  1  0  0  0  0  0999 V2000
  184.9580  176.6720  138.7740 O   0  0  0  0  0  0  0  0  0  0  0  0
  184.9720  176.4540  136.4420 N   0  0  0  0  0  0  0  0  0  0  0  0
  184.2960  176.6670  137.7010 C   0  0  0  0  0  0  0  0  0  0  0  0
  186.4390  176.5910  136.3660 C   0  0  2  0  0  3  0  0  0  0  0  0
  187.1450  175.3460  136.9050 C   0  0  0  0  0  1  0  0  0  0  0  0
  186.6480  179.0810  136.1380 C   0  0  0  0  0  1  0  0  0  0  0  0
  186.9730  177.8820  137.0130 C   0  0  2  0  0  3  0  0  0  0  0  0
  188.4760  177.8190  137.2850 C   0  0  0  0  0  2  0  0  0  0  0  0
  188.8400  178.5270  138.5830 C   0  0  0  0  0  2  0  0  0  0  0  0
  188.9520  177.5350  139.7330 C   0  0  0  0  0  2  0  0  0  0  0  0
  190.4020  177.3670  140.1740 C   0  0  1  0  0  3  0  0  0  0  0  0
  189.1730  176.6720  142.2550 C   0  0  0  0  0  3  0  0  0  0  0  0
  189.9400  177.3870  144.4700 C   0  0  0  0  0  0  0  0  0  0  0  0
  191.0680  178.3100  142.4640 C   0  0  0  0  0  2  0  0  0  0  0  0
  190.9660  178.0730  143.9450 C   0  0  0  0  0  3  0  0  0  0  0  0
  188.9400  176.7710  143.5670 C   0  0  0  0  0  3  0  0  0  0  0  0
  190.4950  177.1140  141.6850 C   0  0  2  0  0  3  0  0  0  0  0  0
  189.8220  177.2320  145.9330 C   0  0  0  0  0  0  0  0  0  0  0  0
  190.7030  176.6060  146.5780 O   0  0  0  0  0  0  0  0  0  0  0  0
  188.4310  177.9240  146.8240 S   0  0  0  0  0  1  0  0  0  0  0  0
  191.0630  176.2730  139.3470 C   0  0  0  0  0  2  0  0  0  0  0  0
  191.7280  176.8720  138.1200 C   0  0  0  0  0  2  0  0  0  0  0  0
  192.9350  175.6260  136.3190 C   0  0  0  0  0  3  0  0  0  0  0  0
  194.8210  174.6860  138.1600 C   0  0  0  0  0  0  0  0  0  0  0  0
  193.7810  175.5190  138.5880 C   0  0  0  0  0  3  0  0  0  0  0  0
  193.9720  174.7920  135.8930 C   0  0  0  0  0  3  0  0  0  0  0  0
  192.8410  175.9950  137.6670 C   0  0  0  0  0  0  0  0  0  0  0  0
  195.7280  174.2230  139.0520 F   0  0  0  0  0  0  0  0  0  0  0  0
  194.9150  174.3220  136.8120 C   0  0  0  0  0  3  0  0  0  0  0  0
  184.2150  175.9610  135.2920 C   0  0  0  0  0  2  0  0  0  0  0  0
  184.7530  173.8950  134.7250 C   0  0  0  0  0  1  0  0  0  0  0  0
  183.8560  174.6280  135.5020 O   0  0  0  0  0  0  0  0  0  0  0  0
  182.8090  176.8840  137.7930 C   0  0  2  0  0  3  0  0  0  0  0  0
  181.3010  180.3240  138.7950 C   0  0  0  0  0  1  0  0  0  0  0  0
  183.5320  179.0970  138.6960 C   0  0  0  0  0  2  0  0  0  0  0  0
  182.1780  179.3210  138.0730 C   0  0  1  0  0  0  0  0  0  0  0  0
  182.4700  178.0030  138.7710 C   0  0  1  0  0  3  0  0  0  0  0  0
  182.2010  179.3440  136.6760 O   0  0  0  0  0  1  0  0  0  0  0  0
  182.0430  175.6060  138.1520 C   0  0  0  0  0  2  0  0  0  0  0  0
  180.6990  175.4530  137.4270 C   0  0  2  0  0  0  0  0  0  0  0  0
  179.8040  173.9860  135.4660 C   0  0  0  0  0  1  0  0  0  0  0  0
  180.8190  174.1380  136.5980 C   0  0  2  0  0  3  0  0  0  0  0  0
  180.8940  172.8770  137.4750 C   0  0  1  0  0  3  0  0  0  0  0  0
  179.6230  172.3430  137.7130 O   0  0  0  0  0  1  0  0  0  0  0  0
  182.9950  171.7810  137.2220 O   0  0  0  0  0  1  0  0  0  0  0  0
  181.7870  171.8400  136.8760 C   0  0  0  0  0  0  0  0  0  0  0  0
  181.2960  170.9420  135.9340 O   0  0  0  0  0  0  0  0  0  0  0  0
  180.5730  176.7030  136.5290 C   0  0  0  0  0  2  0  0  0  0  0  0
  179.4250  177.4530  136.7910 O   0  0  0  0  0  0  0  0  0  0  0  0
  178.9310  177.7880  135.5320 C   0  0  0  0  0  2  0  0  0  0  0  0
  179.5710  179.0780  135.0640 C   0  0  0  0  0  1  0  0  0  0  0  0
  179.6840  175.3920  138.4200 O   0  0  0  0  0  0  0  0  0  0  0  0
  180.2670  175.3550  139.6470 N   0  0  0  0  0  2  0  0  0  0  0  0
  179.2050  175.1510  140.6170 C   0  0  0  0  0  2  0  0  0  0  0  0
  179.4090  173.8350  141.3410 C   0  0  0  0  0  1  0  0  0  0  0  0
  2  3  1  0  0  0  0
  3 33  1  0  0  0  0
  3  1  2  0  0  0  0
  4  2  1  0  0  0  0
  4  5  1  1  0  0  0
  4  7  1  0  0  0  0
  7  6  1  6  0  0  0
  7  8  1  0  0  0  0
  8  9  1  0  0  0  0
  9 10  1  0  0  0  0
 10 11  1  0  0  0  0
 11 21  1  6  0  0  0
 12 16  2  0  0  0  0
 13 18  1  0  0  0  0
 14 15  1  0  0  0  0
 15 13  2  0  0  0  0
 16 13  1  0  0  0  0
 17 11  1  6  0  0  0
 17 12  1  0  0  0  0
 17 14  1  0  0  0  0
 18 19  2  0  0  0  0
 18 20  1  0  0  0  0
 22 21  1  0  0  0  0
 23 27  1  0  0  0  0
 24 25  1  0  0  0  0
 24 28  1  0  0  0  0
 26 23  2  0  0  0  0
 26 29  1  0  0  0  0
 27 22  1  0  0  0  0
 27 25  2  0  0  0  0
 29 24  2  0  0  0  0
 30 32  1  0  0  0  0
 30  2  1  0  0  0  0
 31 32  1  0  0  0  0
 33 39  1  1  0  0  0
 35 37  1  0  0  0  0
 36 35  1  0  0  0  0
 36 37  1  0  0  0  0
 36 34  1  1  0  0  0
 37 33  1  6  0  0  0
 38 36  1  0  0  0  0
 40 48  1  6  0  0  0
 40 39  1  0  0  0  0
 40 52  1  0  0  0  0
 42 41  1  6  0  0  0
 42 40  1  0  0  0  0
 42 43  1  0  0  0  0
 43 44  1  6  0  0  0
 46 45  1  0  0  0  0
 46 43  1  0  0  0  0
 47 46  2  0  0  0  0
 48 49  1  0  0  0  0
 50 49  1  0  0  0  0
 51 50  1  0  0  0  0
 52 53  1  0  0  0  0
 53 54  1  0  0  0  0
 54 55  1  0  0  0  0
M  END
>  <MODEL>
7

>  <REMARK>
 VINA RESULT:      -3.3      4.610      9.651
  Name = 
  26 active torsions:
  status: ('A' for Active; 'I' for Inactive)
    1  A    between atoms: C_1  and  N_30
    2  A    between atoms: C_2  and  C_28
    3  A    between atoms: C_2  and  C_44
    4  A    between atoms: C_6  and  C_8
    5  A    between atoms: C_6  and  O_20
    6  A    between atoms: C_6  and  C_38
    7  A    between atoms: C_6  and  C_46
    8  A    between atoms: C_7  and  C_8
    9  A    between atoms: C_7  and  C_23
   10  A    between atoms: C_7  and  C_43
   11  A    between atoms: C_10  and  C_32
   12  A    between atoms: C_11  and  C_29
   13  A    between atoms: C_11  and  C_38
   14  A    between atoms: C_12  and  O_14
   15  A    between atoms: O_14  and  C_46
   16  A    between atoms: C_16  and  N_17
   17  A    between atoms: C_16  and  C_26
   18  A    between atoms: N_17  and  C_37
   19  A    between atoms: C_19  and  C_45
   20  A    between atoms: C_19  and  C_49
   21  A    between atoms: O_20  and  N_30
   22  A    between atoms: C_26  and  C_45
   23  A    between atoms: C_28  and  C_33
   24  A    between atoms: C_33  and  C_49
   25  A    between atoms: C_33  and  C_52
   26  A    between atoms: C_37  and  O_40
                            x       y       z     vdW  Elec       q    Type
                         _______ _______ _______ _____ _____    ______ ____

>  <TORSDO>
F 26

$$$$
=
 OpenBabel11052415133D

 55 57  0  0  1  0  0  0  0  0999 V2000
  184.9330  178.3010  139.7060 O   0  0  0  0  0  0  0  0  0  0  0  0
  185.6960  178.0350  137.5080 N   0  0  0  0  0  0  0  0  0  0  0  0
  184.6550  178.0170  138.5100 C   0  0  0  0  0  0  0  0  0  0  0  0
  186.9770  178.7080  137.7950 C   0  0  2  0  0  3  0  0  0  0  0  0
  187.8980  178.7010  136.5760 C   0  0  0  0  0  1  0  0  0  0  0  0
  188.1320  176.7430  138.8430 C   0  0  0  0  0  1  0  0  0  0  0  0
  187.6840  178.1780  139.0560 C   0  0  2  0  0  3  0  0  0  0  0  0
  186.8040  178.2780  140.3030 C   0  0  0  0  0  2  0  0  0  0  0  0
  187.6300  178.1860  141.5790 C   0  0  0  0  0  2  0  0  0  0  0  0
  187.0380  177.1630  142.5380 C   0  0  0  0  0  2  0  0  0  0  0  0
  186.5550  177.8290  143.8220 C   0  0  1  0  0  3  0  0  0  0  0  0
  184.4190  178.0850  142.5210 C   0  0  0  0  0  3  0  0  0  0  0  0
  182.3700  178.8810  143.6050 C   0  0  0  0  0  0  0  0  0  0  0  0
  184.4830  178.8840  144.9020 C   0  0  0  0  0  2  0  0  0  0  0  0
  182.9890  179.0060  144.7890 C   0  0  0  0  0  3  0  0  0  0  0  0
  183.1620  178.5260  142.4050 C   0  0  0  0  0  3  0  0  0  0  0  0
  185.0220  177.8670  143.8830 C   0  0  2  0  0  3  0  0  0  0  0  0
  180.9110  179.0790  143.5050 C   0  0  0  0  0  0  0  0  0  0  0  0
  180.1360  178.5080  144.3170 O   0  0  0  0  0  0  0  0  0  0  0  0
  180.2070  180.1280  142.2350 S   0  0  0  0  0  1  0  0  0  0  0  0
  187.1800  177.1320  145.0230 C   0  0  0  0  0  2  0  0  0  0  0  0
  187.7100  178.1590  146.0080 C   0  0  0  0  0  2  0  0  0  0  0  0
  189.5020  178.2000  147.7520 C   0  0  0  0  0  3  0  0  0  0  0  0
  191.1160  176.5150  146.2090 C   0  0  0  0  0  0  0  0  0  0  0  0
  189.8570  176.9000  145.7380 C   0  0  0  0  0  3  0  0  0  0  0  0
  190.7610  177.8170  148.2210 C   0  0  0  0  0  3  0  0  0  0  0  0
  189.0450  177.7380  146.5120 C   0  0  0  0  0  0  0  0  0  0  0  0
  191.9020  175.7080  145.4590 F   0  0  0  0  0  0  0  0  0  0  0  0
  191.5680  176.9740  147.4510 C   0  0  0  0  0  3  0  0  0  0  0  0
  185.5270  177.2600  136.2790 C   0  0  0  0  0  2  0  0  0  0  0  0
  187.0910  176.2500  135.0910 C   0  0  0  0  0  1  0  0  0  0  0  0
  186.3890  176.1620  136.2930 O   0  0  0  0  0  0  0  0  0  0  0  0
  183.2270  177.6630  138.1850 C   0  0  2  0  0  3  0  0  0  0  0  0
  180.2550  180.1700  138.1800 C   0  0  0  0  0  1  0  0  0  0  0  0
  182.7560  180.0710  138.6580 C   0  0  0  0  0  2  0  0  0  0  0  0
  181.6020  179.5740  137.8260 C   0  0  1  0  0  0  0  0  0  0  0  0
  182.2520  178.6410  138.8340 C   0  0  1  0  0  3  0  0  0  0  0  0
  181.9170  179.4040  136.4750 O   0  0  0  0  0  1  0  0  0  0  0  0
  182.8720  176.2210  138.5610 C   0  0  0  0  0  2  0  0  0  0  0  0
  182.0860  175.4650  137.4800 C   0  0  2  0  0  0  0  0  0  0  0  0
  180.2020  176.2910  139.0810 C   0  0  0  0  0  1  0  0  0  0  0  0
  180.6660  175.2350  138.0810 C   0  0  2  0  0  3  0  0  0  0  0  0
  180.4610  173.8080  138.6160 C   0  0  1  0  0  3  0  0  0  0  0  0
  179.5480  173.7850  139.6760 O   0  0  0  0  0  1  0  0  0  0  0  0
  179.1880  173.2500  136.6790 O   0  0  0  0  0  0  0  0  0  0  0  0
  180.0260  172.8700  137.5370 C   0  0  0  0  0  0  0  0  0  0  0  0
  180.5360  171.5770  137.4770 O   0  0  0  0  0  1  0  0  0  0  0  0
  182.8530  174.1420  137.2650 C   0  0  0  0  0  2  0  0  0  0  0  0
  184.0700  174.0970  137.9470 O   0  0  0  0  0  0  0  0  0  0  0  0
  184.7780  173.0670  137.3310 C   0  0  0  0  0  2  0  0  0  0  0  0
  186.2520  173.2080  137.6460 C   0  0  0  0  0  1  0  0  0  0  0  0
  182.0710  176.2810  136.3160 O   0  0  0  0  0  0  0  0  0  0  0  0
  180.9030  176.0790  135.6510 N   0  0  0  0  0  2  0  0  0  0  0  0
  180.7690  177.1600  134.6890 C   0  0  0  0  0  2  0  0  0  0  0  0
  179.3800  177.7620  134.7750 C   0  0  0  0  0  1  0  0  0  0  0  0
  2  4  1  0  0  0  0
  2  3  1  0  0  0  0
  3  1  2  0  0  0  0
  4  5  1  6  0  0  0
  4  7  1  0  0  0  0
  7  6  1  6  0  0  0
  7  8  1  0  0  0  0
  8  9  1  0  0  0  0
  9 10  1  0  0  0  0
 11 10  1  6  0  0  0
 11 21  1  0  0  0  0
 12 17  1  0  0  0  0
 13 15  2  0  0  0  0
 15 14  1  0  0  0  0
 16 12  2  0  0  0  0
 16 13  1  0  0  0  0
 17 11  1  6  0  0  0
 17 14  1  0  0  0  0
 18 13  1  0  0  0  0
 18 19  2  0  0  0  0
 20 18  1  0  0  0  0
 21 22  1  0  0  0  0
 22 27  1  0  0  0  0
 23 26  1  0  0  0  0
 24 29  1  0  0  0  0
 25 24  2  0  0  0  0
 25 27  1  0  0  0  0
 27 23  2  0  0  0  0
 28 24  1  0  0  0  0
 29 26  2  0  0  0  0
 30 32  1  0  0  0  0
 30  2  1  0  0  0  0
 31 32  1  0  0  0  0
 33  3  1  0  0  0  0
 33 39  1  1  0  0  0
 35 37  1  0  0  0  0
 36 34  1  1  0  0  0
 36 35  1  0  0  0  0
 36 37  1  0  0  0  0
 37 33  1  6  0  0  0
 38 36  1  0  0  0  0
 40 48  1  6  0  0  0
 40 42  1  0  0  0  0
 40 39  1  0  0  0  0
 42 43  1  0  0  0  0
 42 41  1  1  0  0  0
 43 44  1  1  0  0  0
 45 46  2  0  0  0  0
 46 43  1  0  0  0  0
 47 46  1  0  0  0  0
 48 49  1  0  0  0  0
 50 51  1  0  0  0  0
 50 49  1  0  0  0  0
 52 40  1  0  0  0  0
 53 52  1  0  0  0  0
 54 55  1  0  0  0  0
 54 53  1  0  0  0  0
M  END
>  <MODEL>
8

>  <REMARK>
 VINA RESULT:      -3.2      3.873      6.676
  Name = 
  26 active torsions:
  status: ('A' for Active; 'I' for Inactive)
    1  A    between atoms: C_1  and  N_30
    2  A    between atoms: C_2  and  C_28
    3  A    between atoms: C_2  and  C_44
    4  A    between atoms: C_6  and  C_8
    5  A    between atoms: C_6  and  O_20
    6  A    between atoms: C_6  and  C_38
    7  A    between atoms: C_6  and  C_46
    8  A    between atoms: C_7  and  C_8
    9  A    between atoms: C_7  and  C_23
   10  A    between atoms: C_7  and  C_43
   11  A    between atoms: C_10  and  C_32
   12  A    between atoms: C_11  and  C_29
   13  A    between atoms: C_11  and  C_38
   14  A    between atoms: C_12  and  O_14
   15  A    between atoms: O_14  and  C_46
   16  A    between atoms: C_16  and  N_17
   17  A    between atoms: C_16  and  C_26
   18  A    between atoms: N_17  and  C_37
   19  A    between atoms: C_19  and  C_45
   20  A    between atoms: C_19  and  C_49
   21  A    between atoms: O_20  and  N_30
   22  A    between atoms: C_26  and  C_45
   23  A    between atoms: C_28  and  C_33
   24  A    between atoms: C_33  and  C_49
   25  A    between atoms: C_33  and  C_52
   26  A    between atoms: C_37  and  O_40
                            x       y       z     vdW  Elec       q    Type
                         _______ _______ _______ _____ _____    ______ ____

>  <TORSDO>
F 26

$$$$
=
 OpenBabel11052415133D

 55 57  0  0  1  0  0  0  0  0999 V2000
  185.4370  178.1720  138.8670 O   0  0  0  0  0  0  0  0  0  0  0  0
  185.4190  177.5700  136.6030 N   0  0  0  0  0  0  0  0  0  0  0  0
  184.7540  177.9170  137.8380 C   0  0  0  0  0  0  0  0  0  0  0  0
  186.8590  177.8480  136.4440 C   0  0  2  0  0  3  0  0  0  0  0  0
  187.2550  177.9200  134.9700 C   0  0  0  0  0  1  0  0  0  0  0  0
  187.1950  175.4820  137.2090 C   0  0  0  0  0  1  0  0  0  0  0  0
  187.7650  176.8900  137.2400 C   0  0  2  0  0  3  0  0  0  0  0  0
  187.9700  177.3470  138.6840 C   0  0  0  0  0  2  0  0  0  0  0  0
  189.1560  176.6440  139.3300 C   0  0  0  0  0  2  0  0  0  0  0  0
  188.9200  176.4320  140.8190 C   0  0  0  0  0  2  0  0  0  0  0  0
  189.3860  177.6390  141.6260 C   0  0  1  0  0  3  0  0  0  0  0  0
  187.4250  177.0670  143.0920 C   0  0  0  0  0  3  0  0  0  0  0  0
  185.6090  178.6720  143.4510 C   0  0  0  0  0  0  0  0  0  0  0  0
  187.3800  179.2260  141.8070 C   0  0  0  0  0  2  0  0  0  0  0  0
  186.1930  179.5830  142.6580 C   0  0  0  0  0  3  0  0  0  0  0  0
  186.1990  177.3180  143.5610 C   0  0  0  0  0  3  0  0  0  0  0  0
  188.2580  178.1800  142.5140 C   0  0  2  0  0  3  0  0  0  0  0  0
  184.3990  179.0240  144.2190 C   0  0  0  0  0  0  0  0  0  0  0  0
  184.4410  179.9380  145.0850 O   0  0  0  0  0  0  0  0  0  0  0  0
  182.8500  178.1680  143.9460 S   0  0  0  0  0  1  0  0  0  0  0  0
  190.6370  177.2730  142.4120 C   0  0  0  0  0  2  0  0  0  0  0  0
  190.9430  178.3460  143.4420 C   0  0  0  0  0  2  0  0  0  0  0  0
  191.5110  177.0540  145.5060 C   0  0  0  0  0  3  0  0  0  0  0  0
  189.0420  177.6990  146.6540 C   0  0  0  0  0  0  0  0  0  0  0  0
  189.3640  178.1710  145.3770 C   0  0  0  0  0  3  0  0  0  0  0  0
  191.1870  176.5800  146.7810 C   0  0  0  0  0  3  0  0  0  0  0  0
  190.6020  177.8550  144.8040 C   0  0  0  0  0  0  0  0  0  0  0  0
  187.8430  178.0020  147.2050 F   0  0  0  0  0  0  0  0  0  0  0  0
  189.9540  176.9030  147.3550 C   0  0  0  0  0  3  0  0  0  0  0  0
  184.6950  176.8130  135.5830 C   0  0  0  0  0  2  0  0  0  0  0  0
  184.6500  174.6050  135.5730 C   0  0  0  0  0  1  0  0  0  0  0  0
  185.4410  175.6940  135.2090 O   0  0  0  0  0  0  0  0  0  0  0  0
  183.2540  177.9850  137.9560 C   0  0  2  0  0  3  0  0  0  0  0  0
  181.0650  180.9380  139.2210 C   0  0  0  0  0  1  0  0  0  0  0  0
  183.4800  180.3790  138.6310 C   0  0  0  0  0  2  0  0  0  0  0  0
  182.0180  180.1640  138.3340 C   0  0  1  0  0  0  0  0  0  0  0  0
  182.8240  179.0420  138.9680 C   0  0  1  0  0  3  0  0  0  0  0  0
  181.7310  180.0770  136.9690 O   0  0  0  0  0  1  0  0  0  0  0  0
  182.6220  176.6300  138.2940 C   0  0  0  0  0  2  0  0  0  0  0  0
  181.3160  176.3410  137.5420 C   0  0  2  0  0  0  0  0  0  0  0  0
  179.3170  177.7380  138.4640 C   0  0  0  0  0  1  0  0  0  0  0  0
  180.1820  176.4880  138.6030 C   0  0  2  0  0  3  0  0  0  0  0  0
  180.6770  176.2890  140.0460 C   0  0  1  0  0  3  0  0  0  0  0  0
  180.7290  177.5030  140.7400 O   0  0  0  0  0  1  0  0  0  0  0  0
  179.9350  174.0770  140.5320 O   0  0  0  0  0  0  0  0  0  0  0  0
  179.8340  175.3040  140.7880 C   0  0  0  0  0  0  0  0  0  0  0  0
  178.9340  175.7330  141.7580 O   0  0  0  0  0  1  0  0  0  0  0  0
  181.4510  174.8910  137.0260 C   0  0  0  0  0  2  0  0  0  0  0  0
  180.4150  174.0590  137.4520 O   0  0  0  0  0  0  0  0  0  0  0  0
  180.8400  172.7740  137.1230 C   0  0  0  0  0  2  0  0  0  0  0  0
  179.8240  171.7640  137.6110 C   0  0  0  0  0  1  0  0  0  0  0  0
  181.2130  177.2870  136.4870 O   0  0  0  0  0  0  0  0  0  0  0  0
  180.8760  176.6370  135.3420 N   0  0  0  0  0  2  0  0  0  0  0  0
  179.6300  177.2190  134.8730 C   0  0  0  0  0  2  0  0  0  0  0  0
  179.7910  178.7160  134.6930 C   0  0  0  0  0  1  0  0  0  0  0  0
  2  3  1  0  0  0  0
  3 33  1  0  0  0  0
  3  1  2  0  0  0  0
  4  5  1  6  0  0  0
  4  2  1  0  0  0  0
  4  7  1  0  0  0  0
  7  6  1  1  0  0  0
  7  8  1  0  0  0  0
  8  9  1  0  0  0  0
  9 10  1  0  0  0  0
 11 10  1  1  0  0  0
 11 21  1  0  0  0  0
 12 16  2  0  0  0  0
 13 16  1  0  0  0  0
 13 18  1  0  0  0  0
 14 17  1  0  0  0  0
 14 15  1  0  0  0  0
 15 13  2  0  0  0  0
 17 11  1  6  0  0  0
 17 12  1  0  0  0  0
 18 19  2  0  0  0  0
 20 18  1  0  0  0  0
 21 22  1  0  0  0  0
 22 27  1  0  0  0  0
 23 26  1  0  0  0  0
 24 28  1  0  0  0  0
 24 29  1  0  0  0  0
 25 24  2  0  0  0  0
 26 29  2  0  0  0  0
 27 25  1  0  0  0  0
 27 23  2  0  0  0  0
 30  2  1  0  0  0  0
 32 31  1  0  0  0  0
 32 30  1  0  0  0  0
 33 39  1  1  0  0  0
 35 37  1  0  0  0  0
 36 35  1  0  0  0  0
 36 37  1  0  0  0  0
 36 34  1  1  0  0  0
 37 33  1  6  0  0  0
 38 36  1  0  0  0  0
 40 48  1  6  0  0  0
 40 39  1  0  0  0  0
 40 42  1  0  0  0  0
 42 41  1  1  0  0  0
 42 43  1  0  0  0  0
 43 44  1  1  0  0  0
 43 46  1  0  0  0  0
 45 46  2  0  0  0  0
 46 47  1  0  0  0  0
 48 49  1  0  0  0  0
 50 49  1  0  0  0  0
 50 51  1  0  0  0  0
 52 40  1  0  0  0  0
 53 52  1  0  0  0  0
 54 53  1  0  0  0  0
 55 54  1  0  0  0  0
M  END
>  <MODEL>
9

>  <REMARK>
 VINA RESULT:      -3.2      3.920      7.960
  Name = 
  26 active torsions:
  status: ('A' for Active; 'I' for Inactive)
    1  A    between atoms: C_1  and  N_30
    2  A    between atoms: C_2  and  C_28
    3  A    between atoms: C_2  and  C_44
    4  A    between atoms: C_6  and  C_8
    5  A    between atoms: C_6  and  O_20
    6  A    between atoms: C_6  and  C_38
    7  A    between atoms: C_6  and  C_46
    8  A    between atoms: C_7  and  C_8
    9  A    between atoms: C_7  and  C_23
   10  A    between atoms: C_7  and  C_43
   11  A    between atoms: C_10  and  C_32
   12  A    between atoms: C_11  and  C_29
   13  A    between atoms: C_11  and  C_38
   14  A    between atoms: C_12  and  O_14
   15  A    between atoms: O_14  and  C_46
   16  A    between atoms: C_16  and  N_17
   17  A    between atoms: C_16  and  C_26
   18  A    between atoms: N_17  and  C_37
   19  A    between atoms: C_19  and  C_45
   20  A    between atoms: C_19  and  C_49
   21  A    between atoms: O_20  and  N_30
   22  A    between atoms: C_26  and  C_45
   23  A    between atoms: C_28  and  C_33
   24  A    between atoms: C_33  and  C_49
   25  A    between atoms: C_33  and  C_52
   26  A    between atoms: C_37  and  O_40
                            x       y       z     vdW  Elec       q    Type
                         _______ _______ _______ _____ _____    ______ ____

>  <TORSDO>
F 26

$$$$
