=
 OpenBabel11052412353D

 30 34  0  0  1  0  0  0  0  0999 V2000
  193.0690  176.4890  137.3450 C   0  0  1  0  0  3  0  0  0  0  0  0
  195.0900  175.5860  136.0890 C   0  0  1  0  0  3  0  0  0  0  0  0
  192.2510  173.4490  135.5870 C   0  0  0  0  0  2  0  0  0  0  0  0
  191.5280  176.7540  137.3120 C   0  0  2  0  0  3  0  0  0  0  0  0
  193.5550  176.2120  138.6430 O   0  0  0  0  0  0  0  0  0  0  0  0
  189.0520  178.7710  137.6800 C   0  0  0  0  0  2  0  0  0  0  0  0
  191.7120  177.2210  139.8240 C   0  0  1  0  0  3  0  0  0  0  0  0
  189.0160  174.6140  137.2320 C   0  0  0  0  0  2  0  0  0  0  0  0
  190.7480  173.5470  135.8970 C   0  0  2  0  0  3  0  0  0  0  0  0
  193.1990  177.3000  139.4560 C   0  0  0  0  0  2  0  0  0  0  0  0
  190.9190  176.5170  138.7140 C   0  0  1  0  0  3  0  0  0  0  0  0
  195.5800  174.4170  135.2490 C   0  0  0  0  0  2  0  0  0  0  0  0
  188.4820  175.9340  137.8360 C   0  0  2  0  0  3  0  0  0  0  0  0
  188.0910  178.1270  136.7250 C   0  0  0  0  0  3  0  0  0  0  0  0
  195.3770  176.8780  135.3450 C   0  0  0  0  0  1  0  0  0  0  0  0
  193.1390  174.0030  136.7010 C   0  0  2  0  0  3  0  0  0  0  0  0
  195.4490  173.0890  135.9990 C   0  0  0  0  0  2  0  0  0  0  0  0
  193.5840  175.4430  136.3400 C   0  0  1  0  0  3  0  0  0  0  0  0
  190.7890  175.9550  136.2370 C   0  0  0  0  0  2  0  0  0  0  0  0
  189.9580  173.6020  134.5940 C   0  0  0  0  0  1  0  0  0  0  0  0
  190.4240  174.6580  136.8050 N   0  0  1  0  0  0  0  0  0  0  0  0
  187.8560  176.8120  136.7800 C   0  0  0  0  0  3  0  0  0  0  0  0
  188.9990  178.1100  138.9840 N   0  0  0  0  0  2  0  0  0  0  0  0
  194.2910  173.0360  137.0080 C   0  0  1  0  0  3  0  0  0  0  0  0
  194.8150  173.2670  138.4130 C   0  0  0  0  0  1  0  0  0  0  0  0
  189.3910  176.7000  138.8460 C   0  0  2  0  0  3  0  0  0  0  0  0
  191.5640  176.5170  141.0210 O   0  0  0  0  0  0  0  0  0  0  0  0
  191.3960  177.5020  141.9980 C   0  0  0  0  0  2  0  0  0  0  0  0
  190.0290  177.4810  142.4860 N   0  0  0  0  0  2  0  0  0  0  0  0
  189.7240  176.1070  142.8440 C   0  0  0  0  0  1  0  0  0  0  0  0
  1  5  1  1  0  0  0
  2 15  1  6  0  0  0
  2 18  1  0  0  0  0
  3  9  1  0  0  0  0
  3 16  1  0  0  0  0
  4 19  1  6  0  0  0
  4  1  1  0  0  0  0
  4 11  1  0  0  0  0
  5 10  1  0  0  0  0
  6 23  1  0  0  0  0
  7 27  1  1  0  0  0
  8 13  1  0  0  0  0
  9 20  1  6  0  0  0
  9 21  1  0  0  0  0
 10  7  1  0  0  0  0
 11 26  1  0  0  0  0
 11  7  1  0  0  0  0
 12 17  1  0  0  0  0
 12  2  1  0  0  0  0
 13 26  1  0  0  0  0
 14 22  2  0  0  0  0
 14  6  1  0  0  0  0
 16 24  1  0  0  0  0
 17 24  1  0  0  0  0
 18 16  1  0  0  0  0
 18  1  1  0  0  0  0
 19 21  1  0  0  0  0
 21  8  1  0  0  0  0
 22 13  1  0  0  0  0
 24 25  1  0  0  0  0
 26 23  1  0  0  0  0
 27 28  1  0  0  0  0
 28 29  1  0  0  0  0
 29 30  1  0  0  0  0
M  END
>  <MODEL>
1

>  <REMARK>
 VINA RESULT:      -5.6      0.000      0.000
  Name = 
  3 active torsions:
  status: ('A' for Active; 'I' for Inactive)
    1  A    between atoms: O_6  and  C_8
    2  A    between atoms: O_6  and  C_21
    3  A    between atoms: N_9  and  C_21
                            x       y       z     vdW  Elec       q    Type
                         _______ _______ _______ _____ _____    ______ ____

>  <TORSDO>
F 3

$$$$
=
 OpenBabel11052412353D

 30 34  0  0  1  0  0  0  0  0999 V2000
  181.9130  178.9370  140.1000 C   0  0  1  0  0  3  0  0  0  0  0  0
  181.8860  179.0360  142.6440 C   0  0  1  0  0  3  0  0  0  0  0  0
  179.5150  176.6160  141.4660 C   0  0  0  0  0  2  0  0  0  0  0  0
  181.8650  178.0200  138.8330 C   0  0  2  0  0  3  0  0  0  0  0  0
  181.3290  180.2060  139.8880 O   0  0  0  0  0  0  0  0  0  0  0  0
  183.1200  177.1130  136.0170 C   0  0  0  0  0  2  0  0  0  0  0  0
  181.5140  180.1700  137.4840 C   0  0  1  0  0  3  0  0  0  0  0  0
  179.4160  176.1270  137.6870 C   0  0  0  0  0  2  0  0  0  0  0  0
  179.2070  175.9670  140.1060 C   0  0  2  0  0  3  0  0  0  0  0  0
  182.0000  180.7890  138.8000 C   0  0  0  0  0  2  0  0  0  0  0  0
  181.0680  178.7170  137.7060 C   0  0  1  0  0  3  0  0  0  0  0  0
  181.1770  178.5010  143.8770 C   0  0  0  0  0  2  0  0  0  0  0  0
  180.3340  176.4730  136.4900 C   0  0  2  0  0  3  0  0  0  0  0  0
  182.6470  175.6900  136.0060 C   0  0  0  0  0  3  0  0  0  0  0  0
  183.3800  178.8180  142.8040 C   0  0  0  0  0  1  0  0  0  0  0  0
  179.8380  178.1060  141.3690 C   0  0  2  0  0  3  0  0  0  0  0  0
  179.6780  178.8140  143.8460 C   0  0  0  0  0  2  0  0  0  0  0  0
  181.3750  178.3040  141.3970 C   0  0  1  0  0  3  0  0  0  0  0  0
  181.3300  176.6140  139.1110 C   0  0  0  0  0  2  0  0  0  0  0  0
  179.5270  174.4770  140.1640 C   0  0  0  0  0  1  0  0  0  0  0  0
  179.8740  176.6470  138.9850 N   0  0  1  0  0  0  0  0  0  0  0  0
  181.3660  175.3970  136.2560 C   0  0  0  0  0  3  0  0  0  0  0  0
  182.0740  178.0060  135.5190 N   0  0  0  0  0  2  0  0  0  0  0  0
  179.0720  178.8990  142.4370 C   0  0  1  0  0  3  0  0  0  0  0  0
  178.9310  180.3510  142.0180 C   0  0  0  0  0  1  0  0  0  0  0  0
  180.8930  177.9260  136.3900 C   0  0  2  0  0  3  0  0  0  0  0  0
  180.4440  180.9150  136.9850 O   0  0  0  0  0  0  0  0  0  0  0  0
  180.7560  182.2420  137.2940 C   0  0  0  0  0  2  0  0  0  0  0  0
  180.7370  183.0440  136.0830 N   0  0  0  0  0  2  0  0  0  0  0  0
  181.1680  184.3820  136.4500 C   0  0  0  0  0  1  0  0  0  0  0  0
  1  5  1  6  0  0  0
  1 18  1  0  0  0  0
  2 15  1  1  0  0  0
  2 12  1  0  0  0  0
  4 19  1  1  0  0  0
  4  1  1  0  0  0  0
  7 27  1  1  0  0  0
  7 11  1  0  0  0  0
  7 10  1  0  0  0  0
  8 21  1  0  0  0  0
  9 20  1  1  0  0  0
  9  3  1  0  0  0  0
 10  5  1  0  0  0  0
 11  4  1  0  0  0  0
 13  8  1  0  0  0  0
 14  6  1  0  0  0  0
 14 22  2  0  0  0  0
 16 18  1  0  0  0  0
 16  3  1  0  0  0  0
 16 24  1  0  0  0  0
 17 12  1  0  0  0  0
 18  2  1  0  0  0  0
 21 19  1  0  0  0  0
 21  9  1  0  0  0  0
 22 13  1  0  0  0  0
 23  6  1  0  0  0  0
 23 26  1  0  0  0  0
 24 17  1  0  0  0  0
 25 24  1  0  0  0  0
 26 13  1  0  0  0  0
 26 11  1  0  0  0  0
 27 28  1  0  0  0  0
 29 30  1  0  0  0  0
 29 28  1  0  0  0  0
M  END
>  <MODEL>
2

>  <REMARK>
 VINA RESULT:      -5.1      9.556     12.449
  Name = 
  3 active torsions:
  status: ('A' for Active; 'I' for Inactive)
    1  A    between atoms: O_6  and  C_8
    2  A    between atoms: O_6  and  C_21
    3  A    between atoms: N_9  and  C_21
                            x       y       z     vdW  Elec       q    Type
                         _______ _______ _______ _____ _____    ______ ____

>  <TORSDO>
F 3

$$$$
=
 OpenBabel11052412353D

 30 34  0  0  1  0  0  0  0  0999 V2000
  182.8070  178.3410  139.1220 C   0  0  1  0  0  3  0  0  0  0  0  0
  180.9890  179.6950  140.2790 C   0  0  1  0  0  3  0  0  0  0  0  0
  180.2440  179.3320  136.7880 C   0  0  0  0  0  2  0  0  0  0  0  0
  183.1320  177.2270  138.0730 C   0  0  2  0  0  3  0  0  0  0  0  0
  183.8180  179.3250  139.2160 O   0  0  0  0  0  0  0  0  0  0  0  0
  184.6090  174.4740  137.3180 C   0  0  0  0  0  2  0  0  0  0  0  0
  185.5760  177.9720  138.2710 C   0  0  1  0  0  3  0  0  0  0  0  0
  182.7180  177.2230  134.7980 C   0  0  0  0  0  2  0  0  0  0  0  0
  180.8180  178.4910  135.6350 C   0  0  2  0  0  3  0  0  0  0  0  0
  185.0140  178.6560  139.5240 C   0  0  0  0  0  2  0  0  0  0  0  0
  184.4380  177.5740  137.3190 C   0  0  1  0  0  3  0  0  0  0  0  0
  179.7170  180.4890  140.0300 C   0  0  0  0  0  2  0  0  0  0  0  0
  183.8350  176.2040  135.1260 C   0  0  2  0  0  3  0  0  0  0  0  0
  183.6640  173.9940  136.2570 C   0  0  0  0  0  3  0  0  0  0  0  0
  180.7190  178.6640  141.3610 C   0  0  0  0  0  1  0  0  0  0  0  0
  181.3150  179.8950  137.7220 C   0  0  2  0  0  3  0  0  0  0  0  0
  179.9530  181.6400  139.0480 C   0  0  0  0  0  2  0  0  0  0  0  0
  181.4230  179.0000  138.9830 C   0  0  1  0  0  3  0  0  0  0  0  0
  181.9840  176.9420  137.1030 C   0  0  0  0  0  2  0  0  0  0  0  0
  179.7740  177.4830  135.1660 C   0  0  0  0  0  1  0  0  0  0  0  0
  182.1030  177.8620  135.9720 N   0  0  1  0  0  0  0  0  0  0  0  0
  183.2850  174.8060  135.2650 C   0  0  0  0  0  3  0  0  0  0  0  0
  185.5800  175.4110  136.7530 N   0  0  0  0  0  2  0  0  0  0  0  0
  181.0560  181.3800  138.0120 C   0  0  1  0  0  3  0  0  0  0  0  0
  182.3410  182.0670  138.4360 C   0  0  0  0  0  1  0  0  0  0  0  0
  184.8830  176.5890  136.2160 C   0  0  2  0  0  3  0  0  0  0  0  0
  186.4480  178.8430  137.6150 O   0  0  0  0  0  0  0  0  0  0  0  0
  187.6890  178.2000  137.6490 C   0  0  0  0  0  2  0  0  0  0  0  0
  188.6430  179.0150  138.3800 N   0  0  0  0  0  2  0  0  0  0  0  0
  189.0760  178.2390  139.5290 C   0  0  0  0  0  1  0  0  0  0  0  0
  1  5  1  6  0  0  0
  2 15  1  1  0  0  0
  3 16  1  0  0  0  0
  4 19  1  6  0  0  0
  4  1  1  0  0  0  0
  5 10  1  0  0  0  0
  7 27  1  6  0  0  0
  7 10  1  0  0  0  0
  8 13  1  0  0  0  0
  8 21  1  0  0  0  0
  9 20  1  1  0  0  0
  9 21  1  0  0  0  0
  9  3  1  0  0  0  0
 11  4  1  0  0  0  0
 11  7  1  0  0  0  0
 12  2  1  0  0  0  0
 13 22  1  0  0  0  0
 13 26  1  0  0  0  0
 14  6  1  0  0  0  0
 16 24  1  0  0  0  0
 16 18  1  0  0  0  0
 17 12  1  0  0  0  0
 18  1  1  0  0  0  0
 18  2  1  0  0  0  0
 21 19  1  0  0  0  0
 22 14  2  0  0  0  0
 23  6  1  0  0  0  0
 24 25  1  0  0  0  0
 24 17  1  0  0  0  0
 26 23  1  0  0  0  0
 26 11  1  0  0  0  0
 27 28  1  0  0  0  0
 28 29  1  0  0  0  0
 29 30  1  0  0  0  0
M  END
>  <MODEL>
3

>  <REMARK>
 VINA RESULT:      -5.0      6.244     10.514
  Name = 
  3 active torsions:
  status: ('A' for Active; 'I' for Inactive)
    1  A    between atoms: O_6  and  C_8
    2  A    between atoms: O_6  and  C_21
    3  A    between atoms: N_9  and  C_21
                            x       y       z     vdW  Elec       q    Type
                         _______ _______ _______ _____ _____    ______ ____

>  <TORSDO>
F 3

$$$$
=
 OpenBabel11052412353D

 30 34  0  0  1  0  0  0  0  0999 V2000
  185.4730  176.9710  136.5260 C   0  0  1  0  0  3  0  0  0  0  0  0
  187.6930  178.0530  135.9090 C   0  0  1  0  0  3  0  0  0  0  0  0
  188.1620  174.5710  136.6400 C   0  0  0  0  0  2  0  0  0  0  0  0
  184.5510  175.7170  136.3770 C   0  0  2  0  0  3  0  0  0  0  0  0
  185.3220  177.6250  137.7700 O   0  0  0  0  0  0  0  0  0  0  0  0
  181.6850  174.4520  135.6580 C   0  0  0  0  0  2  0  0  0  0  0  0
  183.1410  176.7220  138.2650 C   0  0  1  0  0  3  0  0  0  0  0  0
  184.9870  172.6310  137.4650 C   0  0  0  0  0  2  0  0  0  0  0  0
  187.2270  173.3730  136.8700 C   0  0  2  0  0  3  0  0  0  0  0  0
  183.9640  177.9630  137.8930 C   0  0  0  0  0  2  0  0  0  0  0  0
  183.7960  175.4530  137.7010 C   0  0  1  0  0  3  0  0  0  0  0  0
  189.1880  177.7930  135.8040 C   0  0  0  0  0  2  0  0  0  0  0  0
  183.4650  172.8510  137.2900 C   0  0  2  0  0  3  0  0  0  0  0  0
  182.1430  173.1000  135.1960 C   0  0  0  0  0  3  0  0  0  0  0  0
  187.2020  178.6300  134.5940 C   0  0  0  0  0  1  0  0  0  0  0  0
  187.6640  175.8640  137.2860 C   0  0  2  0  0  3  0  0  0  0  0  0
  189.7770  177.3390  137.1420 C   0  0  0  0  0  2  0  0  0  0  0  0
  186.9630  176.7390  136.2150 C   0  0  1  0  0  3  0  0  0  0  0  0
  185.2870  174.4660  135.8920 C   0  0  0  0  0  2  0  0  0  0  0  0
  187.4020  172.3610  135.7420 C   0  0  0  0  0  1  0  0  0  0  0  0
  185.8240  173.7720  137.0620 N   0  0  1  0  0  0  0  0  0  0  0  0
  182.9900  172.3790  135.9380 C   0  0  0  0  0  3  0  0  0  0  0  0
  181.5580  174.4800  137.1150 N   0  0  0  0  0  2  0  0  0  0  0  0
  188.8010  176.5660  138.0410 C   0  0  1  0  0  3  0  0  0  0  0  0
  188.2370  177.4860  139.1080 C   0  0  0  0  0  1  0  0  0  0  0  0
  182.8660  174.2210  137.7350 C   0  0  2  0  0  3  0  0  0  0  0  0
  183.0520  176.6230  139.6550 O   0  0  0  0  0  0  0  0  0  0  0  0
  183.0230  177.9440  140.1080 C   0  0  0  0  0  2  0  0  0  0  0  0
  183.6960  178.0380  141.3910 N   0  0  0  0  0  2  0  0  0  0  0  0
  184.7630  179.0130  141.2450 C   0  0  0  0  0  1  0  0  0  0  0  0
  1  5  1  1  0  0  0
  2 15  1  6  0  0  0
  2 18  1  0  0  0  0
  3  9  1  0  0  0  0
  3 16  1  0  0  0  0
  4 19  1  1  0  0  0
  4  1  1  0  0  0  0
  4 11  1  0  0  0  0
  5 10  1  0  0  0  0
  6 23  1  0  0  0  0
  7 27  1  1  0  0  0
  9 20  1  6  0  0  0
  9 21  1  0  0  0  0
 10  7  1  0  0  0  0
 11 26  1  0  0  0  0
 11  7  1  0  0  0  0
 12  2  1  0  0  0  0
 12 17  1  0  0  0  0
 13  8  1  0  0  0  0
 13 26  1  0  0  0  0
 14  6  1  0  0  0  0
 14 22  2  0  0  0  0
 16 24  1  0  0  0  0
 17 24  1  0  0  0  0
 18  1  1  0  0  0  0
 18 16  1  0  0  0  0
 19 21  1  0  0  0  0
 21  8  1  0  0  0  0
 22 13  1  0  0  0  0
 23 26  1  0  0  0  0
 24 25  1  0  0  0  0
 27 28  1  0  0  0  0
 28 29  1  0  0  0  0
 30 29  1  0  0  0  0
M  END
>  <MODEL>
4

>  <REMARK>
 VINA RESULT:      -4.8      4.716      7.071
  Name = 
  3 active torsions:
  status: ('A' for Active; 'I' for Inactive)
    1  A    between atoms: O_6  and  C_8
    2  A    between atoms: O_6  and  C_21
    3  A    between atoms: N_9  and  C_21
                            x       y       z     vdW  Elec       q    Type
                         _______ _______ _______ _____ _____    ______ ____

>  <TORSDO>
F 3

$$$$
=
 OpenBabel11052412353D

 30 34  0  0  1  0  0  0  0  0999 V2000
  185.5640  178.0900  137.5940 C   0  0  1  0  0  3  0  0  0  0  0  0
  187.9060  178.7480  136.8440 C   0  0  1  0  0  3  0  0  0  0  0  0
  187.4930  175.1880  136.6670 C   0  0  0  0  0  2  0  0  0  0  0  0
  184.3240  177.1720  137.3340 C   0  0  2  0  0  3  0  0  0  0  0  0
  185.7430  178.4050  138.9600 O   0  0  0  0  0  0  0  0  0  0  0  0
  181.1590  176.8490  136.8830 C   0  0  0  0  0  2  0  0  0  0  0  0
  183.4740  177.9370  139.6260 C   0  0  1  0  0  3  0  0  0  0  0  0
  184.0300  173.8950  137.5940 C   0  0  0  0  0  2  0  0  0  0  0  0
  186.3010  174.2240  136.7860 C   0  0  2  0  0  3  0  0  0  0  0  0
  184.5530  179.0050  139.4020 C   0  0  0  0  0  2  0  0  0  0  0  0
  183.6880  176.7480  138.6790 C   0  0  1  0  0  3  0  0  0  0  0  0
  189.2500  178.1850  136.4120 C   0  0  0  0  0  2  0  0  0  0  0  0
  182.6160  174.5020  137.7550 C   0  0  2  0  0  3  0  0  0  0  0  0
  181.1750  175.6020  136.0500 C   0  0  0  0  0  3  0  0  0  0  0  0
  187.4390  179.7530  135.8070 C   0  0  0  0  0  1  0  0  0  0  0  0
  187.4450  176.3410  137.6690 C   0  0  2  0  0  3  0  0  0  0  0  0
  189.8480  177.2660  137.4810 C   0  0  0  0  0  2  0  0  0  0  0  0
  186.8870  177.6080  136.9720 C   0  0  1  0  0  3  0  0  0  0  0  0
  184.6300  175.9590  136.4520 C   0  0  0  0  0  2  0  0  0  0  0  0
  186.0610  173.5370  135.4450 C   0  0  0  0  0  1  0  0  0  0  0  0
  185.0920  174.8730  137.3150 N   0  0  1  0  0  0  0  0  0  0  0  0
  181.8750  174.5320  136.4410 C   0  0  0  0  0  3  0  0  0  0  0  0
  181.2170  176.5160  138.3050 N   0  0  0  0  0  2  0  0  0  0  0  0
  188.8110  176.5310  138.3440 C   0  0  1  0  0  3  0  0  0  0  0  0
  188.6480  177.2380  139.6770 C   0  0  0  0  0  1  0  0  0  0  0  0
  182.4680  175.8040  138.6010 C   0  0  2  0  0  3  0  0  0  0  0  0
  183.5240  177.4940  140.9490 O   0  0  0  0  0  0  0  0  0  0  0  0
  183.5020  178.6610  141.7190 C   0  0  0  0  0  2  0  0  0  0  0  0
  184.2250  178.4430  142.9600 N   0  0  0  0  0  2  0  0  0  0  0  0
  183.3840  178.9380  144.0370 C   0  0  0  0  0  1  0  0  0  0  0  0
  1  5  1  1  0  0  0
  2 15  1  6  0  0  0
  2 18  1  0  0  0  0
  3  9  1  0  0  0  0
  3 16  1  0  0  0  0
  4 19  1  1  0  0  0
  4  1  1  0  0  0  0
  4 11  1  0  0  0  0
  5 10  1  0  0  0  0
  6 23  1  0  0  0  0
  7 27  1  1  0  0  0
  8 13  1  0  0  0  0
  9 20  1  6  0  0  0
  9 21  1  0  0  0  0
 10  7  1  0  0  0  0
 11  7  1  0  0  0  0
 12  2  1  0  0  0  0
 12 17  1  0  0  0  0
 13 26  1  0  0  0  0
 14 22  2  0  0  0  0
 14  6  1  0  0  0  0
 16 24  1  0  0  0  0
 17 24  1  0  0  0  0
 18  1  1  0  0  0  0
 18 16  1  0  0  0  0
 19 21  1  0  0  0  0
 21  8  1  0  0  0  0
 22 13  1  0  0  0  0
 23 26  1  0  0  0  0
 24 25  1  0  0  0  0
 26 11  1  0  0  0  0
 27 28  1  0  0  0  0
 28 29  1  0  0  0  0
 29 30  1  0  0  0  0
M  END
>  <MODEL>
5

>  <REMARK>
 VINA RESULT:      -4.4      4.802      7.035
  Name = 
  3 active torsions:
  status: ('A' for Active; 'I' for Inactive)
    1  A    between atoms: O_6  and  C_8
    2  A    between atoms: O_6  and  C_21
    3  A    between atoms: N_9  and  C_21
                            x       y       z     vdW  Elec       q    Type
                         _______ _______ _______ _____ _____    ______ ____

>  <TORSDO>
F 3

$$$$
=
 OpenBabel11052412353D

 30 34  0  0  1  0  0  0  0  0999 V2000
  180.8880  176.8240  139.2550 C   0  0  1  0  0  3  0  0  0  0  0  0
  179.3880  174.7680  139.2940 C   0  0  1  0  0  3  0  0  0  0  0  0
  182.3000  174.1490  137.2910 C   0  0  0  0  0  2  0  0  0  0  0  0
  182.3550  177.3660  139.3090 C   0  0  2  0  0  3  0  0  0  0  0  0
  180.0290  177.6290  138.4740 O   0  0  0  0  0  0  0  0  0  0  0  0
  184.5340  179.3440  140.6000 C   0  0  0  0  0  2  0  0  0  0  0  0
  181.3820  179.6220  138.5860 C   0  0  1  0  0  3  0  0  0  0  0  0
  184.8240  177.0010  137.1490 C   0  0  0  0  0  2  0  0  0  0  0  0
  183.6270  174.8850  137.0440 C   0  0  2  0  0  3  0  0  0  0  0  0
  180.0830  178.9260  139.0110 C   0  0  0  0  0  2  0  0  0  0  0  0
  182.5010  178.5920  138.3780 C   0  0  1  0  0  3  0  0  0  0  0  0
  179.2180  173.3720  138.7160 C   0  0  0  0  0  2  0  0  0  0  0  0
  185.1060  178.2860  137.9640 C   0  0  2  0  0  3  0  0  0  0  0  0
  185.7630  178.5200  140.3530 C   0  0  0  0  0  3  0  0  0  0  0  0
  179.3120  174.6840  140.8080 C   0  0  0  0  0  1  0  0  0  0  0  0
  181.0930  175.0830  137.3760 C   0  0  2  0  0  3  0  0  0  0  0  0
  179.1450  173.4000  137.1860 C   0  0  0  0  0  2  0  0  0  0  0  0
  180.7440  175.3420  138.8640 C   0  0  1  0  0  3  0  0  0  0  0  0
  183.4150  176.3040  139.0090 C   0  0  0  0  0  2  0  0  0  0  0  0
  184.7840  174.0560  137.5930 C   0  0  0  0  0  1  0  0  0  0  0  0
  183.6200  176.2620  137.5610 N   0  0  1  0  0  0  0  0  0  0  0  0
  186.0060  178.0070  139.1420 C   0  0  0  0  0  3  0  0  0  0  0  0
  184.1960  180.1280  139.4120 N   0  0  0  0  0  2  0  0  0  0  0  0
  179.9300  174.5460  136.5300 C   0  0  1  0  0  3  0  0  0  0  0  0
  178.9860  175.6720  136.1520 C   0  0  0  0  0  1  0  0  0  0  0  0
  183.9060  179.2290  138.2860 C   0  0  2  0  0  3  0  0  0  0  0  0
  181.1670  180.3230  137.3970 O   0  0  0  0  0  0  0  0  0  0  0  0
  180.5070  181.4930  137.7850 C   0  0  0  0  0  2  0  0  0  0  0  0
  181.4800  182.5300  138.0810 N   0  0  0  0  0  2  0  0  0  0  0  0
  181.1800  183.6570  137.2150 C   0  0  0  0  0  1  0  0  0  0  0  0
  1  5  1  6  0  0  0
  1  4  1  0  0  0  0
  2 15  1  1  0  0  0
  3 16  1  0  0  0  0
  4 19  1  6  0  0  0
  5 10  1  0  0  0  0
  7 27  1  6  0  0  0
  7 10  1  0  0  0  0
  8 21  1  0  0  0  0
  8 13  1  0  0  0  0
  9  3  1  0  0  0  0
  9 21  1  0  0  0  0
  9 20  1  1  0  0  0
 11  7  1  0  0  0  0
 11  4  1  0  0  0  0
 12  2  1  0  0  0  0
 13 26  1  0  0  0  0
 13 22  1  0  0  0  0
 14  6  1  0  0  0  0
 16 18  1  0  0  0  0
 17 12  1  0  0  0  0
 18  1  1  0  0  0  0
 18  2  1  0  0  0  0
 21 19  1  0  0  0  0
 22 14  2  0  0  0  0
 23  6  1  0  0  0  0
 24 17  1  0  0  0  0
 24 16  1  0  0  0  0
 25 24  1  0  0  0  0
 26 11  1  0  0  0  0
 26 23  1  0  0  0  0
 27 28  1  0  0  0  0
 28 29  1  0  0  0  0
 30 29  1  0  0  0  0
M  END
>  <MODEL>
6

>  <REMARK>
 VINA RESULT:      -4.2      7.572     11.121
  Name = 
  3 active torsions:
  status: ('A' for Active; 'I' for Inactive)
    1  A    between atoms: O_6  and  C_8
    2  A    between atoms: O_6  and  C_21
    3  A    between atoms: N_9  and  C_21
                            x       y       z     vdW  Elec       q    Type
                         _______ _______ _______ _____ _____    ______ ____

>  <TORSDO>
F 3

$$$$
=
 OpenBabel11052412353D

 30 34  0  0  1  0  0  0  0  0999 V2000
  191.6100  175.9160  138.1670 C   0  0  1  0  0  3  0  0  0  0  0  0
  189.9580  177.0010  139.7720 C   0  0  1  0  0  3  0  0  0  0  0  0
  188.2070  175.2480  137.1770 C   0  0  0  0  0  2  0  0  0  0  0  0
  191.9560  174.6510  137.3140 C   0  0  2  0  0  3  0  0  0  0  0  0
  192.0800  177.1180  137.5910 O   0  0  0  0  0  0  0  0  0  0  0  0
  194.0470  172.3600  136.4750 C   0  0  0  0  0  2  0  0  0  0  0  0
  193.7580  176.0900  136.1980 C   0  0  1  0  0  3  0  0  0  0  0  0
  190.4120  173.3880  134.6840 C   0  0  0  0  0  2  0  0  0  0  0  0
  188.6100  174.2620  136.0670 C   0  0  2  0  0  3  0  0  0  0  0  0
  193.4670  176.9740  137.4170 C   0  0  0  0  0  2  0  0  0  0  0  0
  192.6250  175.0750  135.9860 C   0  0  1  0  0  3  0  0  0  0  0  0
  188.4780  177.2570  140.0090 C   0  0  0  0  0  2  0  0  0  0  0  0
  191.8840  172.9170  134.6290 C   0  0  2  0  0  3  0  0  0  0  0  0
  193.0690  171.2890  136.0930 C   0  0  0  0  0  3  0  0  0  0  0  0
  190.5560  176.3810  141.0220 C   0  0  0  0  0  1  0  0  0  0  0  0
  189.2100  176.3840  137.3750 C   0  0  2  0  0  3  0  0  0  0  0  0
  187.8400  178.0090  138.8380 C   0  0  0  0  0  2  0  0  0  0  0  0
  190.1320  176.0560  138.5770 C   0  0  1  0  0  3  0  0  0  0  0  0
  190.7600  173.7280  137.0700 C   0  0  0  0  0  2  0  0  0  0  0  0
  187.9840  172.8980  136.3400 C   0  0  0  0  0  1  0  0  0  0  0  0
  190.0660  174.1890  135.8690 N   0  0  1  0  0  0  0  0  0  0  0  0
  192.0530  171.5590  135.2660 C   0  0  0  0  0  3  0  0  0  0  0  0
  194.2620  173.2790  135.3580 N   0  0  0  0  0  2  0  0  0  0  0  0
  188.4880  177.7350  137.4730 C   0  0  1  0  0  3  0  0  0  0  0  0
  189.4310  178.8660  137.1070 C   0  0  0  0  0  1  0  0  0  0  0  0
  192.9980  173.9410  135.0050 C   0  0  2  0  0  3  0  0  0  0  0  0
  193.8850  176.8900  135.0610 O   0  0  0  0  0  0  0  0  0  0  0  0
  195.1900  176.6700  134.6120 C   0  0  0  0  0  2  0  0  0  0  0  0
  196.1120  177.5210  135.3440 N   0  0  0  0  0  2  0  0  0  0  0  0
  196.1810  178.7870  134.6340 C   0  0  0  0  0  1  0  0  0  0  0  0
  1  5  1  6  0  0  0
  1 18  1  0  0  0  0
  2 12  1  0  0  0  0
  2 15  1  1  0  0  0
  3 16  1  0  0  0  0
  4 19  1  6  0  0  0
  4  1  1  0  0  0  0
  7 27  1  6  0  0  0
  7 10  1  0  0  0  0
  8 21  1  0  0  0  0
  9 20  1  1  0  0  0
  9  3  1  0  0  0  0
 10  5  1  0  0  0  0
 11  7  1  0  0  0  0
 11  4  1  0  0  0  0
 13  8  1  0  0  0  0
 13 26  1  0  0  0  0
 13 22  1  0  0  0  0
 14  6  1  0  0  0  0
 16 24  1  0  0  0  0
 16 18  1  0  0  0  0
 17 12  1  0  0  0  0
 18  2  1  0  0  0  0
 21  9  1  0  0  0  0
 21 19  1  0  0  0  0
 22 14  2  0  0  0  0
 23  6  1  0  0  0  0
 24 17  1  0  0  0  0
 25 24  1  0  0  0  0
 26 23  1  0  0  0  0
 26 11  1  0  0  0  0
 28 27  1  0  0  0  0
 28 29  1  0  0  0  0
 30 29  1  0  0  0  0
M  END
>  <MODEL>
7

>  <REMARK>
 VINA RESULT:      -4.2      2.221      6.210
  Name = 
  3 active torsions:
  status: ('A' for Active; 'I' for Inactive)
    1  A    between atoms: O_6  and  C_8
    2  A    between atoms: O_6  and  C_21
    3  A    between atoms: N_9  and  C_21
                            x       y       z     vdW  Elec       q    Type
                         _______ _______ _______ _____ _____    ______ ____

>  <TORSDO>
F 3

$$$$
=
 OpenBabel11052412353D

 30 34  0  0  1  0  0  0  0  0999 V2000
  182.1580  177.5590  139.1510 C   0  0  1  0  0  3  0  0  0  0  0  0
  182.4780  178.7120  141.3980 C   0  0  1  0  0  3  0  0  0  0  0  0
  179.6000  176.5720  141.4940 C   0  0  0  0  0  2  0  0  0  0  0  0
  181.7920  176.2300  138.4110 C   0  0  2  0  0  3  0  0  0  0  0  0
  181.7730  178.7150  138.4350 O   0  0  0  0  0  0  0  0  0  0  0  0
  182.5020  173.9930  136.2140 C   0  0  0  0  0  2  0  0  0  0  0  0
  181.6360  177.6430  136.2800 C   0  0  1  0  0  3  0  0  0  0  0  0
  178.9320  174.5850  138.3100 C   0  0  0  0  0  2  0  0  0  0  0  0
  179.0140  175.4950  140.5650 C   0  0  2  0  0  3  0  0  0  0  0  0
  182.3860  178.6390  137.1740 C   0  0  0  0  0  2  0  0  0  0  0  0
  180.9850  176.5420  137.1290 C   0  0  1  0  0  3  0  0  0  0  0  0
  181.8540  178.9000  142.7710 C   0  0  0  0  0  2  0  0  0  0  0  0
  179.7330  174.2030  137.0420 C   0  0  2  0  0  3  0  0  0  0  0  0
  181.7980  172.8270  136.8430 C   0  0  0  0  0  3  0  0  0  0  0  0
  183.9210  178.2750  141.5700 C   0  0  0  0  0  1  0  0  0  0  0  0
  180.1540  177.7830  140.7450 C   0  0  2  0  0  3  0  0  0  0  0  0
  180.4380  179.4740  142.6740 C   0  0  0  0  0  2  0  0  0  0  0  0
  181.6940  177.6510  140.6160 C   0  0  1  0  0  3  0  0  0  0  0  0
  181.0690  175.2120  139.2950 C   0  0  0  0  0  2  0  0  0  0  0  0
  179.0830  174.1330  141.2500 C   0  0  0  0  0  1  0  0  0  0  0  0
  179.6350  175.4910  139.2320 N   0  0  1  0  0  0  0  0  0  0  0  0
  180.5300  172.9390  137.2530 C   0  0  0  0  0  3  0  0  0  0  0  0
  181.5650  174.7930  135.4260 N   0  0  0  0  0  2  0  0  0  0  0  0
  179.6770  179.0890  141.3960 C   0  0  1  0  0  3  0  0  0  0  0  0
  179.7290  180.2280  140.3960 C   0  0  0  0  0  1  0  0  0  0  0  0
  180.5100  175.3310  136.2970 C   0  0  2  0  0  3  0  0  0  0  0  0
  180.6510  178.3170  135.5550 O   0  0  0  0  0  0  0  0  0  0  0  0
  181.1730  179.5970  135.3460 C   0  0  0  0  0  2  0  0  0  0  0  0
  180.1730  180.4360  134.7090 N   0  0  0  0  0  2  0  0  0  0  0  0
  179.8070  181.4660  135.6650 C   0  0  0  0  0  1  0  0  0  0  0  0
  1  5  1  6  0  0  0
  1 18  1  0  0  0  0
  2 15  1  1  0  0  0
  2 12  1  0  0  0  0
  4  1  1  0  0  0  0
  4 19  1  1  0  0  0
  6 14  1  0  0  0  0
  7 27  1  1  0  0  0
  7 11  1  0  0  0  0
  7 10  1  0  0  0  0
  8 21  1  0  0  0  0
  9 20  1  1  0  0  0
  9  3  1  0  0  0  0
 10  5  1  0  0  0  0
 11  4  1  0  0  0  0
 13 22  1  0  0  0  0
 13  8  1  0  0  0  0
 14 22  2  0  0  0  0
 16 24  1  0  0  0  0
 16  3  1  0  0  0  0
 17 12  1  0  0  0  0
 18 16  1  0  0  0  0
 18  2  1  0  0  0  0
 21 19  1  0  0  0  0
 21  9  1  0  0  0  0
 23  6  1  0  0  0  0
 23 26  1  0  0  0  0
 24 17  1  0  0  0  0
 25 24  1  0  0  0  0
 26 13  1  0  0  0  0
 26 11  1  0  0  0  0
 28 27  1  0  0  0  0
 29 28  1  0  0  0  0
 29 30  1  0  0  0  0
M  END
>  <MODEL>
8

>  <REMARK>
 VINA RESULT:      -4.2      9.598     12.281
  Name = 
  3 active torsions:
  status: ('A' for Active; 'I' for Inactive)
    1  A    between atoms: O_6  and  C_8
    2  A    between atoms: O_6  and  C_21
    3  A    between atoms: N_9  and  C_21
                            x       y       z     vdW  Elec       q    Type
                         _______ _______ _______ _____ _____    ______ ____

>  <TORSDO>
F 3

$$$$
=
 OpenBabel11052412353D

 30 34  0  0  1  0  0  0  0  0999 V2000
  180.6840  177.0260  137.1410 C   0  0  1  0  0  3  0  0  0  0  0  0
  180.5350  179.5630  137.2830 C   0  0  1  0  0  3  0  0  0  0  0  0
  183.9110  178.4780  137.8340 C   0  0  0  0  0  2  0  0  0  0  0  0
  181.5060  175.7970  136.6300 C   0  0  2  0  0  3  0  0  0  0  0  0
  179.9770  176.7610  138.3360 O   0  0  0  0  0  0  0  0  0  0  0  0
  181.6300  173.0220  135.0130 C   0  0  0  0  0  2  0  0  0  0  0  0
  179.9800  174.3610  138.1040 C   0  0  1  0  0  3  0  0  0  0  0  0
  184.4900  174.7220  137.5440 C   0  0  0  0  0  2  0  0  0  0  0  0
  184.6630  177.1450  137.6860 C   0  0  2  0  0  3  0  0  0  0  0  0
  179.1520  175.6520  138.0880 C   0  0  0  0  0  2  0  0  0  0  0  0
  181.4210  174.6400  137.6530 C   0  0  1  0  0  3  0  0  0  0  0  0
  181.3390  180.8150  137.5940 C   0  0  0  0  0  2  0  0  0  0  0  0
  183.7220  173.5150  136.9560 C   0  0  2  0  0  3  0  0  0  0  0  0
  183.0700  173.0670  134.5960 C   0  0  0  0  0  3  0  0  0  0  0  0
  179.8630  179.7350  135.9330 C   0  0  0  0  0  1  0  0  0  0  0  0
  182.5040  178.3220  138.4100 C   0  0  2  0  0  3  0  0  0  0  0  0
  181.9330  180.7680  139.0050 C   0  0  0  0  0  2  0  0  0  0  0  0
  181.4680  178.3450  137.2570 C   0  0  1  0  0  3  0  0  0  0  0  0
  182.9580  176.1300  136.2800 C   0  0  0  0  0  2  0  0  0  0  0  0
  185.7060  177.2640  136.5790 C   0  0  0  0  0  1  0  0  0  0  0  0
  183.7610  175.9990  137.4950 N   0  0  1  0  0  0  0  0  0  0  0  0
  184.0290  173.3270  135.4900 C   0  0  0  0  0  3  0  0  0  0  0  0
  181.5050  172.4860  136.3680 N   0  0  0  0  0  2  0  0  0  0  0  0
  182.2520  179.3560  139.5170 C   0  0  1  0  0  3  0  0  0  0  0  0
  181.1510  178.8790  140.4460 C   0  0  0  0  0  1  0  0  0  0  0  0
  182.2130  173.3570  137.3170 C   0  0  2  0  0  3  0  0  0  0  0  0
  179.9900  173.8300  139.3960 O   0  0  0  0  0  0  0  0  0  0  0  0
  178.9320  174.4650  140.0520 C   0  0  0  0  0  2  0  0  0  0  0  0
  179.2420  174.6010  141.4650 N   0  0  0  0  0  2  0  0  0  0  0  0
  179.5090  173.2670  141.9740 C   0  0  0  0  0  1  0  0  0  0  0  0
  1 18  1  0  0  0  0
  1  5  1  1  0  0  0
  2 15  1  6  0  0  0
  2 12  1  0  0  0  0
  3 16  1  0  0  0  0
  4 19  1  1  0  0  0
  4  1  1  0  0  0  0
  4 11  1  0  0  0  0
  6 23  1  0  0  0  0
  7 27  1  1  0  0  0
  9 20  1  6  0  0  0
  9  3  1  0  0  0  0
 10  7  1  0  0  0  0
 10  5  1  0  0  0  0
 11  7  1  0  0  0  0
 12 17  1  0  0  0  0
 13 26  1  0  0  0  0
 13  8  1  0  0  0  0
 14  6  1  0  0  0  0
 14 22  2  0  0  0  0
 16 24  1  0  0  0  0
 17 24  1  0  0  0  0
 18  2  1  0  0  0  0
 18 16  1  0  0  0  0
 19 21  1  0  0  0  0
 21  8  1  0  0  0  0
 21  9  1  0  0  0  0
 22 13  1  0  0  0  0
 23 26  1  0  0  0  0
 24 25  1  0  0  0  0
 26 11  1  0  0  0  0
 27 28  1  0  0  0  0
 28 29  1  0  0  0  0
 29 30  1  0  0  0  0
M  END
>  <MODEL>
9

>  <REMARK>
 VINA RESULT:      -3.9      7.723     11.261
  Name = 
  3 active torsions:
  status: ('A' for Active; 'I' for Inactive)
    1  A    between atoms: O_6  and  C_8
    2  A    between atoms: O_6  and  C_21
    3  A    between atoms: N_9  and  C_21
                            x       y       z     vdW  Elec       q    Type
                         _______ _______ _______ _____ _____    ______ ____

>  <TORSDO>
F 3

$$$$
