=
 OpenBabel11052415163D

 37 43  0  0  1  0  0  0  0  0999 V2000
  182.7280  176.8170  138.8930 C   0  0  0  0  0  3  0  0  0  0  0  0
  189.9140  175.4670  137.7070 C   0  0  0  0  0  3  0  0  0  0  0  0
  183.5120  179.3630  143.1820 C   0  0  0  0  0  2  0  0  0  0  0  0
  186.9130  179.0650  140.7390 O   0  0  0  0  0  0  0  0  0  0  0  0
  188.9230  176.2840  137.1510 C   0  0  0  0  0  0  0  0  0  0  0  0
  186.9850  178.1200  136.0510 C   0  0  0  0  0  2  0  0  0  0  0  0
  188.8030  176.3780  135.7470 C   0  0  0  0  0  0  0  0  0  0  0  0
  185.8310  178.5340  142.8250 C   0  0  2  0  0  3  0  0  0  0  0  0
  186.0100  178.5910  138.2760 C   0  0  0  0  0  2  0  0  0  0  0  0
  185.6250  178.9910  141.3550 C   0  0  2  0  0  3  0  0  0  0  0  0
  186.7080  177.5030  137.4260 C   0  0  1  0  0  0  0  0  0  0  0  0
  187.6920  177.1530  135.0950 C   0  0  0  0  0  2  0  0  0  0  0  0
  186.5800  177.3430  142.8700 O   0  0  0  0  0  0  0  0  0  0  0  0
  190.6440  174.8190  135.4930 C   0  0  0  0  0  3  0  0  0  0  0  0
  189.6580  175.6330  134.9290 C   0  0  0  0  0  3  0  0  0  0  0  0
  184.6860  178.0520  140.5510 C   0  0  1  0  0  3  0  0  0  0  0  0
  182.3210  177.3990  140.1880 C   0  0  0  0  0  3  0  0  0  0  0  0
  188.9810  177.9570  140.3480 C   0  0  0  0  0  3  0  0  0  0  0  0
  187.9080  177.6740  142.5380 C   0  0  0  0  0  2  0  0  0  0  0  0
  183.2010  178.0350  140.9780 C   0  0  0  0  0  0  0  0  0  0  0  0
  185.8650  176.2210  137.2680 C   0  0  0  0  0  2  0  0  0  0  0  0
  187.9630  178.2400  141.1530 C   0  0  0  0  0  0  0  0  0  0  0  0
  184.7030  178.2500  139.0120 C   0  0  2  0  0  3  0  0  0  0  0  0
  184.5620  178.3810  143.6470 C   0  0  0  0  0  2  0  0  0  0  0  0
  188.0620  177.1120  138.0680 C   0  0  2  0  0  3  0  0  0  0  0  0
  182.5840  178.6730  142.2010 C   0  0  0  0  0  2  0  0  0  0  0  0
  184.4310  176.4870  137.2190 N   0  0  0  0  0  0  0  0  0  0  0  0
  190.7710  174.7350  136.8810 C   0  0  0  0  0  3  0  0  0  0  0  0
  183.8870  177.1870  138.3370 C   0  0  0  0  0  0  0  0  0  0  0  0
  189.0330  178.5520  138.6590 S   0  0  0  0  0  0  0  0  0  0  0  0
  183.5530  175.8940  136.2020 C   0  0  2  0  0  3  0  0  0  0  0  0
  184.1980  174.0310  134.9140 O   0  0  0  0  0  0  0  0  0  0  0  0
  183.7520  174.4150  135.9840 C   0  0  0  0  0  0  0  0  0  0  0  0
  184.7120  172.7770  137.5810 C   0  0  0  0  0  1  0  0  0  0  0  0
  183.4390  173.4140  137.0540 C   0  0  0  0  0  2  0  0  0  0  0  0
  183.4760  176.7260  134.9210 C   0  0  0  0  0  2  0  0  0  0  0  0
  182.3380  177.7310  134.9460 C   0  0  0  0  0  1  0  0  0  0  0  0
  1 17  1  0  0  0  0
  3 24  1  0  0  0  0
  4 22  1  0  0  0  0
  5  2  1  0  0  0  0
  7  5  2  0  0  0  0
  8 13  1  0  0  0  0
  8 24  1  6  0  0  0
 10  4  1  6  0  0  0
 10  8  1  0  0  0  0
 11  6  1  6  0  0  0
 11 25  1  0  0  0  0
 11  9  1  0  0  0  0
 12  7  1  0  0  0  0
 12  6  1  0  0  0  0
 14 28  1  0  0  0  0
 15 14  2  0  0  0  0
 15  7  1  0  0  0  0
 16 20  1  1  0  0  0
 16 10  1  0  0  0  0
 17 20  2  0  0  0  0
 18 22  2  0  0  0  0
 19 13  1  0  0  0  0
 20 26  1  0  0  0  0
 21 11  1  0  0  0  0
 22 19  1  0  0  0  0
 23  9  1  6  0  0  0
 23 16  1  0  0  0  0
 25  5  1  6  0  0  0
 25 30  1  0  0  0  0
 26  3  1  0  0  0  0
 27 21  1  0  0  0  0
 27 29  1  0  0  0  0
 28  2  2  0  0  0  0
 29  1  2  0  0  0  0
 29 23  1  0  0  0  0
 30 18  1  0  0  0  0
 31 36  1  6  0  0  0
 31 27  1  0  0  0  0
 32 33  2  0  0  0  0
 33 31  1  0  0  0  0
 33 35  1  0  0  0  0
 35 34  1  0  0  0  0
 36 37  1  0  0  0  0
M  END
>  <MODEL>
1

>  <REMARK>
 VINA RESULT:      -7.5      0.000      0.000
  Name = 
  4 active torsions:
  status: ('A' for Active; 'I' for Inactive)
    1  A    between atoms: C_11  and  C_26
    2  A    between atoms: C_17  and  C_23
    3  A    between atoms: C_17  and  C_26
    4  A    between atoms: C_26  and  N_33
                            x       y       z     vdW  Elec       q    Type
                         _______ _______ _______ _____ _____    ______ ____

>  <TORSDO>
F 4

$$$$
=
 OpenBabel11052415163D

 37 43  0  0  1  0  0  0  0  0999 V2000
  187.3490  178.6760  141.6310 C   0  0  0  0  0  3  0  0  0  0  0  0
  181.0300  175.3530  139.6550 C   0  0  0  0  0  3  0  0  0  0  0  0
  189.6710  177.7340  137.2480 C   0  0  0  0  0  2  0  0  0  0  0  0
  185.4870  177.4650  137.0430 O   0  0  0  0  0  0  0  0  0  0  0  0
  181.4750  176.6650  139.8560 C   0  0  0  0  0  0  0  0  0  0  0  0
  182.3500  179.4060  140.0880 C   0  0  0  0  0  2  0  0  0  0  0  0
  180.6660  177.5740  140.5730 C   0  0  0  0  0  0  0  0  0  0  0  0
  187.6250  176.3680  136.8730 C   0  0  2  0  0  3  0  0  0  0  0  0
  184.5570  178.8980  139.0900 C   0  0  0  0  0  2  0  0  0  0  0  0
  186.8610  177.6090  137.4110 C   0  0  2  0  0  3  0  0  0  0  0  0
  183.4120  178.3100  139.9480 C   0  0  1  0  0  0  0  0  0  0  0  0
  181.1380  178.9600  140.9120 C   0  0  0  0  0  2  0  0  0  0  0  0
  187.0130  175.1810  137.3170 O   0  0  0  0  0  0  0  0  0  0  0  0
  179.0070  175.8320  140.8930 C   0  0  0  0  0  3  0  0  0  0  0  0
  179.4430  177.1450  141.0970 C   0  0  0  0  0  3  0  0  0  0  0  0
  187.0010  177.7910  138.9470 C   0  0  1  0  0  3  0  0  0  0  0  0
  188.5290  178.5300  140.7560 C   0  0  0  0  0  3  0  0  0  0  0  0
  183.5940  176.0260  137.0060 C   0  0  0  0  0  3  0  0  0  0  0  0
  185.8070  175.0430  136.6020 C   0  0  0  0  0  2  0  0  0  0  0  0
  188.4060  178.1650  139.4680 C   0  0  0  0  0  0  0  0  0  0  0  0
  183.8760  177.8440  141.3440 C   0  0  0  0  0  2  0  0  0  0  0  0
  184.9050  176.2020  136.8920 C   0  0  0  0  0  0  0  0  0  0  0  0
  186.0070  178.7930  139.5930 C   0  0  2  0  0  3  0  0  0  0  0  0
  189.1130  176.3320  137.1810 C   0  0  0  0  0  2  0  0  0  0  0  0
  182.7720  177.0990  139.2260 C   0  0  2  0  0  3  0  0  0  0  0  0
  189.7040  178.1890  138.6940 C   0  0  0  0  0  2  0  0  0  0  0  0
  184.9510  178.6660  141.8870 N   0  0  0  0  0  0  0  0  0  0  0  0
  179.8010  174.9370  140.1730 C   0  0  0  0  0  3  0  0  0  0  0  0
  186.1300  178.7620  141.0880 C   0  0  0  0  0  0  0  0  0  0  0  0
  182.5000  177.3780  137.4330 S   0  0  0  0  0  0  0  0  0  0  0  0
  184.9290  179.1880  143.2600 C   0  0  2  0  0  3  0  0  0  0  0  0
  185.9130  177.1660  143.9560 O   0  0  0  0  0  0  0  0  0  0  0  0
  185.5730  178.2910  144.2860 C   0  0  0  0  0  0  0  0  0  0  0  0
  186.9420  177.9500  146.3270 C   0  0  0  0  0  1  0  0  0  0  0  0
  185.8260  178.7560  145.6880 C   0  0  0  0  0  2  0  0  0  0  0  0
  183.5630  179.7460  143.6630 C   0  0  0  0  0  2  0  0  0  0  0  0
  182.6780  178.7040  144.3220 C   0  0  0  0  0  1  0  0  0  0  0  0
  2  5  2  0  0  0  0
  2 28  1  0  0  0  0
  3 26  1  0  0  0  0
  5  7  1  0  0  0  0
  6 12  1  0  0  0  0
  7 12  1  0  0  0  0
  7 15  2  0  0  0  0
  8 24  1  1  0  0  0
  8 13  1  0  0  0  0
  8 10  1  0  0  0  0
 10  4  1  1  0  0  0
 10 16  1  0  0  0  0
 11  9  1  6  0  0  0
 11  6  1  0  0  0  0
 11 21  1  0  0  0  0
 14 15  1  0  0  0  0
 16 20  1  6  0  0  0
 16 23  1  0  0  0  0
 17  1  1  0  0  0  0
 18 30  1  0  0  0  0
 19 22  1  0  0  0  0
 19 13  1  0  0  0  0
 20 17  2  0  0  0  0
 21 27  1  0  0  0  0
 22 18  2  0  0  0  0
 22  4  1  0  0  0  0
 23  9  1  1  0  0  0
 23 29  1  0  0  0  0
 24  3  1  0  0  0  0
 25 30  1  6  0  0  0
 25  5  1  0  0  0  0
 25 11  1  0  0  0  0
 26 20  1  0  0  0  0
 27 31  1  0  0  0  0
 28 14  2  0  0  0  0
 29  1  2  0  0  0  0
 29 27  1  0  0  0  0
 31 36  1  1  0  0  0
 31 33  1  0  0  0  0
 32 33  2  0  0  0  0
 33 35  1  0  0  0  0
 35 34  1  0  0  0  0
 36 37  1  0  0  0  0
M  END
>  <MODEL>
2

>  <REMARK>
 VINA RESULT:      -7.4      2.350      7.624
  Name = 
  4 active torsions:
  status: ('A' for Active; 'I' for Inactive)
    1  A    between atoms: C_11  and  C_26
    2  A    between atoms: C_17  and  C_23
    3  A    between atoms: C_17  and  C_26
    4  A    between atoms: C_26  and  N_33
                            x       y       z     vdW  Elec       q    Type
                         _______ _______ _______ _____ _____    ______ ____

>  <TORSDO>
F 4

$$$$
=
 OpenBabel11052415163D

 37 43  0  0  1  0  0  0  0  0999 V2000
  189.3710  176.5940  142.7940 C   0  0  0  0  0  3  0  0  0  0  0  0
  182.2540  177.5700  140.9840 C   0  0  0  0  0  3  0  0  0  0  0  0
  191.0310  176.9260  138.0370 C   0  0  0  0  0  2  0  0  0  0  0  0
  187.2100  178.5640  138.6190 O   0  0  0  0  0  0  0  0  0  0  0  0
  183.2590  178.3130  141.6150 C   0  0  0  0  0  0  0  0  0  0  0  0
  185.3130  179.9760  142.7770 C   0  0  0  0  0  2  0  0  0  0  0  0
  182.9620  179.0270  142.7970 C   0  0  0  0  0  0  0  0  0  0  0  0
  188.5880  176.8920  137.5650 C   0  0  2  0  0  3  0  0  0  0  0  0
  187.0360  179.1200  141.2210 C   0  0  0  0  0  2  0  0  0  0  0  0
  188.4870  177.9300  138.7170 C   0  0  2  0  0  3  0  0  0  0  0  0
  185.7390  178.7410  141.9750 C   0  0  1  0  0  0  0  0  0  0  0  0
  184.0240  179.7530  143.5740 C   0  0  0  0  0  2  0  0  0  0  0  0
  187.4860  176.0170  137.5930 O   0  0  0  0  0  0  0  0  0  0  0  0
  180.6770  178.2160  142.7020 C   0  0  0  0  0  3  0  0  0  0  0  0
  181.6740  178.9620  143.3370 C   0  0  0  0  0  3  0  0  0  0  0  0
  188.6790  177.2990  140.1220 C   0  0  1  0  0  3  0  0  0  0  0  0
  190.3550  176.3940  141.7120 C   0  0  0  0  0  3  0  0  0  0  0  0
  184.8640  178.2530  138.3830 C   0  0  0  0  0  3  0  0  0  0  0  0
  186.3640  176.7470  137.1550 C   0  0  0  0  0  2  0  0  0  0  0  0
  190.0900  176.7590  140.4460 C   0  0  0  0  0  0  0  0  0  0  0  0
  185.9160  177.5350  142.9200 C   0  0  0  0  0  2  0  0  0  0  0  0
  186.1060  177.8940  138.0820 C   0  0  0  0  0  0  0  0  0  0  0  0
  188.2620  178.1960  141.3190 C   0  0  2  0  0  3  0  0  0  0  0  0
  189.8820  176.0970  137.5110 C   0  0  0  0  0  2  0  0  0  0  0  0
  184.6150  178.4010  140.9660 C   0  0  2  0  0  3  0  0  0  0  0  0
  191.2570  176.5940  139.4990 C   0  0  0  0  0  2  0  0  0  0  0  0
  187.2450  177.4730  143.5180 N   0  0  0  0  0  0  0  0  0  0  0  0
  180.9680  177.5190  141.5270 C   0  0  0  0  0  3  0  0  0  0  0  0
  188.3400  177.4250  142.6040 C   0  0  0  0  0  0  0  0  0  0  0  0
  184.5260  179.5670  139.5530 S   0  0  0  0  0  0  0  0  0  0  0  0
  187.4540  177.2510  144.9550 C   0  0  2  0  0  3  0  0  0  0  0  0
  185.5350  176.7730  146.2330 O   0  0  0  0  0  0  0  0  0  0  0  0
  186.2900  177.6440  145.8290 C   0  0  0  0  0  0  0  0  0  0  0  0
  186.3010  179.2510  147.7190 C   0  0  0  0  0  1  0  0  0  0  0  0
  186.0560  179.0680  146.2320 C   0  0  0  0  0  2  0  0  0  0  0  0
  188.8170  177.7450  145.4420 C   0  0  0  0  0  2  0  0  0  0  0  0
  189.2210  177.1280  146.7690 C   0  0  0  0  0  1  0  0  0  0  0  0
  2 28  2  0  0  0  0
  2  5  1  0  0  0  0
  3 26  1  0  0  0  0
  5  7  2  0  0  0  0
  6 12  1  0  0  0  0
  7 15  1  0  0  0  0
  7 12  1  0  0  0  0
  8 24  1  1  0  0  0
  8 13  1  0  0  0  0
  8 10  1  0  0  0  0
 10  4  1  1  0  0  0
 10 16  1  0  0  0  0
 11  9  1  6  0  0  0
 11  6  1  0  0  0  0
 11 21  1  0  0  0  0
 14 15  2  0  0  0  0
 16 20  1  1  0  0  0
 16 23  1  0  0  0  0
 17  1  1  0  0  0  0
 18 30  1  0  0  0  0
 19 13  1  0  0  0  0
 19 22  1  0  0  0  0
 20 17  2  0  0  0  0
 21 27  1  0  0  0  0
 22 18  2  0  0  0  0
 22  4  1  0  0  0  0
 23  9  1  6  0  0  0
 23 29  1  0  0  0  0
 24  3  1  0  0  0  0
 25 30  1  6  0  0  0
 25  5  1  0  0  0  0
 25 11  1  0  0  0  0
 26 20  1  0  0  0  0
 27 31  1  0  0  0  0
 28 14  1  0  0  0  0
 29  1  2  0  0  0  0
 29 27  1  0  0  0  0
 31 36  1  1  0  0  0
 31 33  1  0  0  0  0
 33 35  1  0  0  0  0
 33 32  2  0  0  0  0
 35 34  1  0  0  0  0
 36 37  1  0  0  0  0
M  END
>  <MODEL>
3

>  <REMARK>
 VINA RESULT:      -7.3      2.606      8.306
  Name = 
  4 active torsions:
  status: ('A' for Active; 'I' for Inactive)
    1  A    between atoms: C_11  and  C_26
    2  A    between atoms: C_17  and  C_23
    3  A    between atoms: C_17  and  C_26
    4  A    between atoms: C_26  and  N_33
                            x       y       z     vdW  Elec       q    Type
                         _______ _______ _______ _____ _____    ______ ____

>  <TORSDO>
F 4

$$$$
=
 OpenBabel11052415163D

 37 43  0  0  1  0  0  0  0  0999 V2000
  184.3810  178.3530  141.3890 C   0  0  0  0  0  3  0  0  0  0  0  0
  189.6870  175.1720  137.3140 C   0  0  0  0  0  3  0  0  0  0  0  0
  187.0880  178.3210  145.6490 C   0  0  0  0  0  2  0  0  0  0  0  0
  189.3980  177.9130  142.1680 O   0  0  0  0  0  0  0  0  0  0  0  0
  189.1150  176.4450  137.4340 C   0  0  0  0  0  0  0  0  0  0  0  0
  188.1070  179.1340  137.7270 C   0  0  0  0  0  2  0  0  0  0  0  0
  188.7850  177.1730  136.2690 C   0  0  0  0  0  0  0  0  0  0  0  0
  188.6200  176.9580  144.2380 C   0  0  2  0  0  3  0  0  0  0  0  0
  187.9220  178.9100  140.1850 C   0  0  0  0  0  2  0  0  0  0  0  0
  188.3750  178.0470  143.1570 C   0  0  2  0  0  3  0  0  0  0  0  0
  187.8420  178.1280  138.8530 C   0  0  1  0  0  0  0  0  0  0  0  0
  188.0710  178.4940  136.3350 C   0  0  0  0  0  2  0  0  0  0  0  0
  188.7080  175.6850  143.6450 O   0  0  0  0  0  0  0  0  0  0  0  0
  189.5790  175.3330  134.9020 C   0  0  0  0  0  3  0  0  0  0  0  0
  189.0090  176.6040  135.0120 C   0  0  0  0  0  3  0  0  0  0  0  0
  186.9680  177.9540  142.5080 C   0  0  1  0  0  3  0  0  0  0  0  0
  184.5570  178.4190  142.8530 C   0  0  0  0  0  3  0  0  0  0  0  0
  190.5740  176.4230  140.7330 C   0  0  0  0  0  3  0  0  0  0  0  0
  189.9420  175.6260  142.9680 C   0  0  0  0  0  2  0  0  0  0  0  0
  185.7670  178.2880  143.4200 C   0  0  0  0  0  0  0  0  0  0  0  0
  186.4800  177.4380  138.6330 C   0  0  0  0  0  2  0  0  0  0  0  0
  189.9900  176.6740  141.8990 C   0  0  0  0  0  0  0  0  0  0  0  0
  186.7790  178.7780  141.2060 C   0  0  2  0  0  3  0  0  0  0  0  0
  187.6160  176.9310  145.3790 C   0  0  0  0  0  2  0  0  0  0  0  0
  188.9440  177.0410  138.8050 C   0  0  2  0  0  3  0  0  0  0  0  0
  185.7750  178.5070  144.9160 C   0  0  0  0  0  2  0  0  0  0  0  0
  185.3650  178.1940  139.1930 N   0  0  0  0  0  0  0  0  0  0  0  0
  189.9170  174.6170  136.0530 C   0  0  0  0  0  3  0  0  0  0  0  0
  185.4440  178.4840  140.5890 C   0  0  0  0  0  0  0  0  0  0  0  0
  190.5740  177.6280  139.4080 S   0  0  0  0  0  0  0  0  0  0  0  0
  184.1330  178.4580  138.4390 C   0  0  2  0  0  3  0  0  0  0  0  0
  184.1240  180.7760  138.8500 O   0  0  0  0  0  0  0  0  0  0  0  0
  183.4520  179.7600  138.7790 C   0  0  0  0  0  0  0  0  0  0  0  0
  181.4050  181.1120  138.4100 C   0  0  0  0  0  1  0  0  0  0  0  0
  181.9720  179.8370  139.0050 C   0  0  0  0  0  2  0  0  0  0  0  0
  183.2020  177.2450  138.3740 C   0  0  0  0  0  2  0  0  0  0  0  0
  183.0340  176.7140  136.9620 C   0  0  0  0  0  1  0  0  0  0  0  0
  1 17  1  0  0  0  0
  2  5  1  0  0  0  0
  7 12  1  0  0  0  0
  7  5  2  0  0  0  0
  8 24  1  1  0  0  0
 10  4  1  6  0  0  0
 10  8  1  0  0  0  0
 11  6  1  6  0  0  0
 11  9  1  0  0  0  0
 12  6  1  0  0  0  0
 13  8  1  0  0  0  0
 14 15  2  0  0  0  0
 14 28  1  0  0  0  0
 15  7  1  0  0  0  0
 16 10  1  0  0  0  0
 16 20  1  1  0  0  0
 17 20  2  0  0  0  0
 18 22  2  0  0  0  0
 19 13  1  0  0  0  0
 20 26  1  0  0  0  0
 21 11  1  0  0  0  0
 21 27  1  0  0  0  0
 22  4  1  0  0  0  0
 22 19  1  0  0  0  0
 23  9  1  6  0  0  0
 23 16  1  0  0  0  0
 24  3  1  0  0  0  0
 25  5  1  6  0  0  0
 25 11  1  0  0  0  0
 25 30  1  0  0  0  0
 26  3  1  0  0  0  0
 27 29  1  0  0  0  0
 28  2  2  0  0  0  0
 29 23  1  0  0  0  0
 29  1  2  0  0  0  0
 30 18  1  0  0  0  0
 31 36  1  1  0  0  0
 31 33  1  0  0  0  0
 31 27  1  0  0  0  0
 33 32  2  0  0  0  0
 33 35  1  0  0  0  0
 34 35  1  0  0  0  0
 37 36  1  0  0  0  0
M  END
>  <MODEL>
4

>  <REMARK>
 VINA RESULT:      -6.9      2.166      3.588
  Name = 
  4 active torsions:
  status: ('A' for Active; 'I' for Inactive)
    1  A    between atoms: C_11  and  C_26
    2  A    between atoms: C_17  and  C_23
    3  A    between atoms: C_17  and  C_26
    4  A    between atoms: C_26  and  N_33
                            x       y       z     vdW  Elec       q    Type
                         _______ _______ _______ _____ _____    ______ ____

>  <TORSDO>
F 4

$$$$
=
 OpenBabel11052415163D

 37 43  0  0  1  0  0  0  0  0999 V2000
  182.6830  177.0750  139.2630 C   0  0  0  0  0  3  0  0  0  0  0  0
  189.6900  175.3690  137.5680 C   0  0  0  0  0  3  0  0  0  0  0  0
  183.8790  179.3850  143.5890 C   0  0  0  0  0  2  0  0  0  0  0  0
  187.1000  179.0000  140.9240 O   0  0  0  0  0  0  0  0  0  0  0  0
  188.7160  176.2650  137.1090 C   0  0  0  0  0  0  0  0  0  0  0  0
  186.8270  178.2530  136.2070 C   0  0  0  0  0  2  0  0  0  0  0  0
  188.5160  176.4250  135.7200 C   0  0  0  0  0  0  0  0  0  0  0  0
  186.1190  178.4420  143.0520 C   0  0  2  0  0  3  0  0  0  0  0  0
  186.0210  178.6830  138.5070 C   0  0  0  0  0  2  0  0  0  0  0  0
  185.8500  178.9730  141.6170 C   0  0  2  0  0  3  0  0  0  0  0  0
  186.5990  177.5950  137.5730 C   0  0  1  0  0  0  0  0  0  0  0  0
  187.4150  177.2890  135.1720 C   0  0  0  0  0  2  0  0  0  0  0  0
  186.7970  177.2100  143.0030 O   0  0  0  0  0  0  0  0  0  0  0  0
  190.2420  174.7750  135.2880 C   0  0  0  0  0  3  0  0  0  0  0  0
  189.2730  175.6680  134.8210 C   0  0  0  0  0  3  0  0  0  0  0  0
  184.8090  178.1230  140.8400 C   0  0  1  0  0  3  0  0  0  0  0  0
  182.3920  177.6220  140.6020 C   0  0  0  0  0  3  0  0  0  0  0  0
  189.0700  177.7930  140.3580 C   0  0  0  0  0  3  0  0  0  0  0  0
  188.1200  177.4790  142.6000 C   0  0  0  0  0  2  0  0  0  0  0  0
  183.3560  178.1730  141.3590 C   0  0  0  0  0  0  0  0  0  0  0  0
  185.6730  176.3700  137.4190 C   0  0  0  0  0  2  0  0  0  0  0  0
  188.1230  178.0990  141.2370 C   0  0  0  0  0  0  0  0  0  0  0  0
  184.7430  178.3860  139.3110 C   0  0  2  0  0  3  0  0  0  0  0  0
  184.8960  178.3260  143.9480 C   0  0  0  0  0  2  0  0  0  0  0  0
  187.9640  177.1000  138.1110 C   0  0  2  0  0  3  0  0  0  0  0  0
  182.8540  178.7920  142.6430 C   0  0  0  0  0  2  0  0  0  0  0  0
  184.2580  176.7200  137.4710 N   0  0  0  0  0  0  0  0  0  0  0  0
  190.4490  174.6260  136.6620 C   0  0  0  0  0  3  0  0  0  0  0  0
  183.8250  177.4010  138.6490 C   0  0  0  0  0  0  0  0  0  0  0  0
  189.0530  178.4560  138.6940 S   0  0  0  0  0  0  0  0  0  0  0  0
  183.2850  176.2210  136.4910 C   0  0  2  0  0  3  0  0  0  0  0  0
  183.1760  177.8270  134.7720 O   0  0  0  0  0  0  0  0  0  0  0  0
  182.5840  177.2950  135.6970 C   0  0  0  0  0  0  0  0  0  0  0  0
  181.1250  179.1360  136.4940 C   0  0  0  0  0  1  0  0  0  0  0  0
  181.1740  177.7020  136.0010 C   0  0  0  0  0  2  0  0  0  0  0  0
  182.3650  175.1410  137.0610 C   0  0  0  0  0  2  0  0  0  0  0  0
  183.0370  173.7820  137.1350 C   0  0  0  0  0  1  0  0  0  0  0  0
  1 17  1  0  0  0  0
  3 24  1  0  0  0  0
  4 22  1  0  0  0  0
  5  2  1  0  0  0  0
  7  5  2  0  0  0  0
  8 24  1  6  0  0  0
 10  4  1  6  0  0  0
 10  8  1  0  0  0  0
 11  6  1  6  0  0  0
 11 25  1  0  0  0  0
 11  9  1  0  0  0  0
 12  7  1  0  0  0  0
 12  6  1  0  0  0  0
 13  8  1  0  0  0  0
 14 28  1  0  0  0  0
 15 14  2  0  0  0  0
 15  7  1  0  0  0  0
 16 20  1  1  0  0  0
 16 10  1  0  0  0  0
 17 20  2  0  0  0  0
 18 22  2  0  0  0  0
 19 13  1  0  0  0  0
 20 26  1  0  0  0  0
 21 27  1  0  0  0  0
 21 11  1  0  0  0  0
 22 19  1  0  0  0  0
 23  9  1  6  0  0  0
 23 16  1  0  0  0  0
 25  5  1  6  0  0  0
 25 30  1  0  0  0  0
 26  3  1  0  0  0  0
 27 29  1  0  0  0  0
 28  2  2  0  0  0  0
 29  1  2  0  0  0  0
 29 23  1  0  0  0  0
 30 18  1  0  0  0  0
 31 36  1  1  0  0  0
 31 27  1  0  0  0  0
 32 33  2  0  0  0  0
 33 35  1  0  0  0  0
 33 31  1  0  0  0  0
 35 34  1  0  0  0  0
 36 37  1  0  0  0  0
M  END
>  <MODEL>
5

>  <REMARK>
 VINA RESULT:      -6.7      0.923      1.927
  Name = 
  4 active torsions:
  status: ('A' for Active; 'I' for Inactive)
    1  A    between atoms: C_11  and  C_26
    2  A    between atoms: C_17  and  C_23
    3  A    between atoms: C_17  and  C_26
    4  A    between atoms: C_26  and  N_33
                            x       y       z     vdW  Elec       q    Type
                         _______ _______ _______ _____ _____    ______ ____

>  <TORSDO>
F 4

$$$$
=
 OpenBabel11052415163D

 37 43  0  0  1  0  0  0  0  0999 V2000
  186.0300  175.7750  136.0080 C   0  0  0  0  0  3  0  0  0  0  0  0
  188.9440  176.6600  142.7610 C   0  0  0  0  0  3  0  0  0  0  0  0
  181.8630  178.4370  137.0300 C   0  0  0  0  0  2  0  0  0  0  0  0
  185.0420  179.1820  139.6680 O   0  0  0  0  0  0  0  0  0  0  0  0
  189.1940  177.1400  141.4700 C   0  0  0  0  0  0  0  0  0  0  0  0
  189.6770  178.3050  138.8730 C   0  0  0  0  0  2  0  0  0  0  0  0
  190.5210  177.1940  140.9900 C   0  0  0  0  0  0  0  0  0  0  0  0
  182.8080  178.3470  139.3310 C   0  0  2  0  0  3  0  0  0  0  0  0
  187.2580  178.4590  138.3740 C   0  0  0  0  0  2  0  0  0  0  0  0
  184.1520  178.7220  138.6490 C   0  0  2  0  0  3  0  0  0  0  0  0
  188.3240  177.6330  139.1320 C   0  0  1  0  0  0  0  0  0  0  0  0
  190.8380  177.5970  139.5770 C   0  0  0  0  0  2  0  0  0  0  0  0
  183.0250  177.4390  140.3830 O   0  0  0  0  0  0  0  0  0  0  0  0
  191.3090  176.2640  143.0880 C   0  0  0  0  0  3  0  0  0  0  0  0
  191.5670  176.7420  141.8000 C   0  0  0  0  0  3  0  0  0  0  0  0
  184.7840  177.5430  137.8610 C   0  0  1  0  0  3  0  0  0  0  0  0
  184.6370  176.2060  135.7770 C   0  0  0  0  0  3  0  0  0  0  0  0
  185.9830  178.7500  141.8100 C   0  0  0  0  0  3  0  0  0  0  0  0
  183.6300  178.1560  141.4340 C   0  0  0  0  0  2  0  0  0  0  0  0
  184.0270  177.0790  136.5960 C   0  0  0  0  0  0  0  0  0  0  0  0
  188.3760  176.1560  138.6890 C   0  0  0  0  0  2  0  0  0  0  0  0
  184.9450  178.7120  140.9820 C   0  0  0  0  0  0  0  0  0  0  0  0
  186.2660  177.7380  137.4440 C   0  0  2  0  0  3  0  0  0  0  0  0
  181.7280  177.8180  138.4020 C   0  0  0  0  0  2  0  0  0  0  0  0
  188.0440  177.6680  140.6540 C   0  0  2  0  0  3  0  0  0  0  0  0
  182.6510  177.4990  136.1360 C   0  0  0  0  0  2  0  0  0  0  0  0
  188.0730  175.9770  137.2740 N   0  0  0  0  0  0  0  0  0  0  0  0
  189.9970  176.2220  143.5670 C   0  0  0  0  0  3  0  0  0  0  0  0
  186.8100  176.4780  136.8370 C   0  0  0  0  0  0  0  0  0  0  0  0
  187.5890  179.3340  141.2740 S   0  0  0  0  0  0  0  0  0  0  0  0
  188.9000  175.1460  136.3880 C   0  0  2  0  0  3  0  0  0  0  0  0
  190.3250  173.5460  137.3650 O   0  0  0  0  0  0  0  0  0  0  0  0
  189.2090  173.7700  136.9230 C   0  0  0  0  0  0  0  0  0  0  0  0
  187.7080  172.3600  135.5400 C   0  0  0  0  0  1  0  0  0  0  0  0
  188.1760  172.6850  136.9470 C   0  0  0  0  0  2  0  0  0  0  0  0
  190.1030  175.8980  135.8170 C   0  0  0  0  0  2  0  0  0  0  0  0
  189.6990  177.1290  135.0260 C   0  0  0  0  0  1  0  0  0  0  0  0
  1 29  2  0  0  0  0
  2 28  1  0  0  0  0
  3 24  1  0  0  0  0
  4 22  1  0  0  0  0
  5  2  2  0  0  0  0
  6 11  1  0  0  0  0
  6 12  1  0  0  0  0
  7  5  1  0  0  0  0
  7 15  2  0  0  0  0
  8 24  1  6  0  0  0
  8 13  1  0  0  0  0
 10  8  1  0  0  0  0
 10  4  1  1  0  0  0
 11  9  1  6  0  0  0
 11 25  1  0  0  0  0
 12  7  1  0  0  0  0
 13 19  1  0  0  0  0
 14 28  2  0  0  0  0
 15 14  1  0  0  0  0
 16 20  1  6  0  0  0
 16 10  1  0  0  0  0
 17  1  1  0  0  0  0
 17 20  2  0  0  0  0
 21 11  1  0  0  0  0
 22 19  1  0  0  0  0
 22 18  2  0  0  0  0
 23 16  1  0  0  0  0
 23  9  1  1  0  0  0
 25 30  1  1  0  0  0
 25  5  1  0  0  0  0
 26 20  1  0  0  0  0
 26  3  1  0  0  0  0
 27 21  1  0  0  0  0
 29 27  1  0  0  0  0
 29 23  1  0  0  0  0
 30 18  1  0  0  0  0
 31 36  1  1  0  0  0
 31 33  1  0  0  0  0
 31 27  1  0  0  0  0
 33 35  1  0  0  0  0
 33 32  2  0  0  0  0
 34 35  1  0  0  0  0
 37 36  1  0  0  0  0
M  END
>  <MODEL>
6

>  <REMARK>
 VINA RESULT:      -6.6      2.287      4.854
  Name = 
  4 active torsions:
  status: ('A' for Active; 'I' for Inactive)
    1  A    between atoms: C_11  and  C_26
    2  A    between atoms: C_17  and  C_23
    3  A    between atoms: C_17  and  C_26
    4  A    between atoms: C_26  and  N_33
                            x       y       z     vdW  Elec       q    Type
                         _______ _______ _______ _____ _____    ______ ____

>  <TORSDO>
F 4

$$$$
=
 OpenBabel11052415163D

 37 43  0  0  1  0  0  0  0  0999 V2000
  187.2120  178.2600  141.6530 C   0  0  0  0  0  3  0  0  0  0  0  0
  180.9380  175.2300  139.1350 C   0  0  0  0  0  3  0  0  0  0  0  0
  189.4320  178.3830  137.1200 C   0  0  0  0  0  2  0  0  0  0  0  0
  185.2530  178.0180  136.9530 O   0  0  0  0  0  0  0  0  0  0  0  0
  181.3500  176.4810  139.6090 C   0  0  0  0  0  0  0  0  0  0  0  0
  182.1500  179.1340  140.4180 C   0  0  0  0  0  2  0  0  0  0  0  0
  180.5360  177.1820  140.5260 C   0  0  0  0  0  0  0  0  0  0  0  0
  187.4170  177.0600  136.4990 C   0  0  2  0  0  3  0  0  0  0  0  0
  184.3410  178.9350  139.2850 C   0  0  0  0  0  2  0  0  0  0  0  0
  186.6320  178.1260  137.3140 C   0  0  2  0  0  3  0  0  0  0  0  0
  183.2400  178.1330  140.0180 C   0  0  1  0  0  0  0  0  0  0  0  0
  180.9770  178.4760  141.1500 C   0  0  0  0  0  2  0  0  0  0  0  0
  186.8530  175.7840  136.6850 O   0  0  0  0  0  0  0  0  0  0  0  0
  178.9390  175.3560  140.4920 C   0  0  0  0  0  3  0  0  0  0  0  0
  179.3420  176.6060  140.9700 C   0  0  0  0  0  3  0  0  0  0  0  0
  186.8120  177.9720  138.8480 C   0  0  1  0  0  3  0  0  0  0  0  0
  188.3690  178.3520  140.7410 C   0  0  0  0  0  3  0  0  0  0  0  0
  183.4030  176.5560  136.6430 C   0  0  0  0  0  3  0  0  0  0  0  0
  185.6310  175.7640  135.9840 C   0  0  0  0  0  2  0  0  0  0  0  0
  188.2200  178.2730  139.4080 C   0  0  0  0  0  0  0  0  0  0  0  0
  183.7570  177.3900  141.2670 C   0  0  0  0  0  2  0  0  0  0  0  0
  184.7050  176.7990  136.5420 C   0  0  0  0  0  0  0  0  0  0  0  0
  185.8080  178.7730  139.7200 C   0  0  2  0  0  3  0  0  0  0  0  0
  188.9140  177.0100  136.7590 C   0  0  0  0  0  2  0  0  0  0  0  0
  182.6150  177.0880  139.0620 C   0  0  2  0  0  3  0  0  0  0  0  0
  189.4930  178.5110  138.6300 C   0  0  0  0  0  2  0  0  0  0  0  0
  184.8240  178.1110  141.9540 N   0  0  0  0  0  0  0  0  0  0  0  0
  179.7380  174.6680  139.5760 C   0  0  0  0  0  3  0  0  0  0  0  0
  185.9750  178.4210  141.1690 C   0  0  0  0  0  0  0  0  0  0  0  0
  182.2830  177.7430  137.3810 S   0  0  0  0  0  0  0  0  0  0  0  0
  184.8260  178.3190  143.4080 C   0  0  2  0  0  3  0  0  0  0  0  0
  185.0270  180.5910  143.9920 O   0  0  0  0  0  0  0  0  0  0  0  0
  184.2670  179.6460  143.8550 C   0  0  0  0  0  0  0  0  0  0  0  0
  182.1340  178.5080  144.4110 C   0  0  0  0  0  1  0  0  0  0  0  0
  182.8020  179.8360  144.1090 C   0  0  0  0  0  2  0  0  0  0  0  0
  186.1500  177.9270  144.0640 C   0  0  0  0  0  2  0  0  0  0  0  0
  186.0480  177.8350  145.5760 C   0  0  0  0  0  1  0  0  0  0  0  0
  2 28  2  0  0  0  0
  2  5  1  0  0  0  0
  3 26  1  0  0  0  0
  5  7  2  0  0  0  0
  6 12  1  0  0  0  0
  7 15  1  0  0  0  0
  7 12  1  0  0  0  0
  8 13  1  0  0  0  0
  8 24  1  1  0  0  0
  8 10  1  0  0  0  0
 10  4  1  1  0  0  0
 10 16  1  0  0  0  0
 11  9  1  6  0  0  0
 11  6  1  0  0  0  0
 11 21  1  0  0  0  0
 14 15  2  0  0  0  0
 16 20  1  1  0  0  0
 16 23  1  0  0  0  0
 17  1  1  0  0  0  0
 18 30  1  0  0  0  0
 19 22  1  0  0  0  0
 19 13  1  0  0  0  0
 20 17  2  0  0  0  0
 21 27  1  0  0  0  0
 22 18  2  0  0  0  0
 22  4  1  0  0  0  0
 23  9  1  6  0  0  0
 23 29  1  0  0  0  0
 24  3  1  0  0  0  0
 25 30  1  6  0  0  0
 25  5  1  0  0  0  0
 25 11  1  0  0  0  0
 26 20  1  0  0  0  0
 27 31  1  0  0  0  0
 28 14  1  0  0  0  0
 29  1  2  0  0  0  0
 29 27  1  0  0  0  0
 31 33  1  0  0  0  0
 31 36  1  6  0  0  0
 33 32  2  0  0  0  0
 33 35  1  0  0  0  0
 35 34  1  0  0  0  0
 36 37  1  0  0  0  0
M  END
>  <MODEL>
7

>  <REMARK>
 VINA RESULT:      -6.1      2.415      7.702
  Name = 
  4 active torsions:
  status: ('A' for Active; 'I' for Inactive)
    1  A    between atoms: C_11  and  C_26
    2  A    between atoms: C_17  and  C_23
    3  A    between atoms: C_17  and  C_26
    4  A    between atoms: C_26  and  N_33
                            x       y       z     vdW  Elec       q    Type
                         _______ _______ _______ _____ _____    ______ ____

>  <TORSDO>
F 4

$$$$
=
 OpenBabel11052415163D

 37 43  0  0  1  0  0  0  0  0999 V2000
  191.0720  177.2330  140.0390 C   0  0  0  0  0  3  0  0  0  0  0  0
  184.7670  174.8150  136.9920 C   0  0  0  0  0  3  0  0  0  0  0  0
  193.9860  175.5960  136.2560 C   0  0  0  0  0  2  0  0  0  0  0  0
  189.9330  175.9810  135.2310 O   0  0  0  0  0  0  0  0  0  0  0  0
  185.3840  176.0510  137.2190 C   0  0  0  0  0  0  0  0  0  0  0  0
  186.6560  178.6280  137.4980 C   0  0  0  0  0  2  0  0  0  0  0  0
  184.6220  177.1300  137.7180 C   0  0  0  0  0  0  0  0  0  0  0  0
  191.8450  174.5480  135.5410 C   0  0  2  0  0  3  0  0  0  0  0  0
  188.8920  177.6980  136.9840 C   0  0  0  0  0  2  0  0  0  0  0  0
  191.2160  175.9320  135.8600 C   0  0  2  0  0  3  0  0  0  0  0  0
  187.5210  177.3690  137.6220 C   0  0  1  0  0  0  0  0  0  0  0  0
  185.2520  178.4450  138.0820 C   0  0  0  0  0  2  0  0  0  0  0  0
  190.9650  173.5110  135.9070 O   0  0  0  0  0  0  0  0  0  0  0  0
  182.6590  175.7060  137.7780 C   0  0  0  0  0  3  0  0  0  0  0  0
  183.2660  176.9440  138.0060 C   0  0  0  0  0  3  0  0  0  0  0  0
  191.0920  176.2080  137.3820 C   0  0  1  0  0  3  0  0  0  0  0  0
  192.3530  176.8340  139.4250 C   0  0  0  0  0  3  0  0  0  0  0  0
  187.8630  174.8630  134.8810 C   0  0  0  0  0  3  0  0  0  0  0  0
  189.9110  173.5120  134.9730 C   0  0  0  0  0  2  0  0  0  0  0  0
  192.4160  176.3940  138.1570 C   0  0  0  0  0  0  0  0  0  0  0  0
  187.6250  176.9450  139.1020 C   0  0  0  0  0  2  0  0  0  0  0  0
  189.1830  174.8190  135.0240 C   0  0  0  0  0  0  0  0  0  0  0  0
  190.1800  177.4030  137.7710 C   0  0  2  0  0  3  0  0  0  0  0  0
  193.2190  174.2990  136.1420 C   0  0  0  0  0  2  0  0  0  0  0  0
  186.8320  176.2230  136.8420 C   0  0  2  0  0  3  0  0  0  0  0  0
  193.8210  176.1500  137.6570 C   0  0  0  0  0  2  0  0  0  0  0  0
  188.7030  177.6250  139.8120 N   0  0  0  0  0  0  0  0  0  0  0  0
  183.4100  174.6420  137.2730 C   0  0  0  0  0  3  0  0  0  0  0  0
  190.0110  177.4700  139.2600 C   0  0  0  0  0  0  0  0  0  0  0  0
  186.9560  176.4020  135.0210 S   0  0  0  0  0  0  0  0  0  0  0  0
  188.5110  178.2490  141.1270 C   0  0  2  0  0  3  0  0  0  0  0  0
  188.6810  176.2280  142.3210 O   0  0  0  0  0  0  0  0  0  0  0  0
  188.9700  177.4130  142.2950 C   0  0  0  0  0  0  0  0  0  0  0  0
  189.2420  177.5760  144.7560 C   0  0  0  0  0  1  0  0  0  0  0  0
  189.7910  177.9970  143.4050 C   0  0  0  0  0  2  0  0  0  0  0  0
  187.1250  178.8760  141.2930 C   0  0  0  0  0  2  0  0  0  0  0  0
  186.3350  178.2530  142.4300 C   0  0  0  0  0  1  0  0  0  0  0  0
  2  5  2  0  0  0  0
  2 28  1  0  0  0  0
  3 26  1  0  0  0  0
  5  7  1  0  0  0  0
  6 11  1  0  0  0  0
  6 12  1  0  0  0  0
  7 15  2  0  0  0  0
  7 12  1  0  0  0  0
  8 10  1  0  0  0  0
  8 13  1  0  0  0  0
  8 24  1  1  0  0  0
 10  4  1  1  0  0  0
 10 16  1  0  0  0  0
 11  9  1  6  0  0  0
 11 21  1  0  0  0  0
 14 15  1  0  0  0  0
 16 23  1  0  0  0  0
 16 20  1  6  0  0  0
 17  1  1  0  0  0  0
 18 30  1  0  0  0  0
 18 22  2  0  0  0  0
 19 22  1  0  0  0  0
 19 13  1  0  0  0  0
 20 17  2  0  0  0  0
 21 27  1  0  0  0  0
 22  4  1  0  0  0  0
 23  9  1  6  0  0  0
 23 29  1  0  0  0  0
 24  3  1  0  0  0  0
 25 30  1  6  0  0  0
 25  5  1  0  0  0  0
 25 11  1  0  0  0  0
 26 20  1  0  0  0  0
 27 31  1  0  0  0  0
 28 14  2  0  0  0  0
 29 27  1  0  0  0  0
 29  1  2  0  0  0  0
 31 36  1  1  0  0  0
 31 33  1  0  0  0  0
 33 32  2  0  0  0  0
 33 35  1  0  0  0  0
 35 34  1  0  0  0  0
 36 37  1  0  0  0  0
M  END
>  <MODEL>
8

>  <REMARK>
 VINA RESULT:      -6.1      2.538      7.727
  Name = 
  4 active torsions:
  status: ('A' for Active; 'I' for Inactive)
    1  A    between atoms: C_11  and  C_26
    2  A    between atoms: C_17  and  C_23
    3  A    between atoms: C_17  and  C_26
    4  A    between atoms: C_26  and  N_33
                            x       y       z     vdW  Elec       q    Type
                         _______ _______ _______ _____ _____    ______ ____

>  <TORSDO>
F 4

$$$$
=
 OpenBabel11052415163D

 37 43  0  0  1  0  0  0  0  0999 V2000
  186.4710  178.5550  141.8550 C   0  0  0  0  0  3  0  0  0  0  0  0
  181.2130  174.7130  138.3240 C   0  0  0  0  0  3  0  0  0  0  0  0
  189.7530  178.3340  138.0260 C   0  0  0  0  0  2  0  0  0  0  0  0
  185.7790  177.5890  136.8990 O   0  0  0  0  0  0  0  0  0  0  0  0
  181.4220  176.0430  138.7090 C   0  0  0  0  0  0  0  0  0  0  0  0
  181.8450  178.8330  139.3190 C   0  0  0  0  0  2  0  0  0  0  0  0
  180.3650  176.7740  139.2960 C   0  0  0  0  0  0  0  0  0  0  0  0
  188.0360  176.7760  137.1200 C   0  0  2  0  0  3  0  0  0  0  0  0
  184.2590  178.6920  138.7910 C   0  0  0  0  0  2  0  0  0  0  0  0
  187.0140  177.8580  137.5660 C   0  0  2  0  0  3  0  0  0  0  0  0
  183.0530  177.8900  139.3360 C   0  0  1  0  0  0  0  0  0  0  0  0
  180.5620  178.1660  139.8270 C   0  0  0  0  0  2  0  0  0  0  0  0
  187.5150  175.4870  137.3350 O   0  0  0  0  0  0  0  0  0  0  0  0
  178.9320  174.8240  139.1240 C   0  0  0  0  0  3  0  0  0  0  0  0
  179.1310  176.1520  139.5100 C   0  0  0  0  0  3  0  0  0  0  0  0
  186.8090  177.9040  139.1040 C   0  0  1  0  0  3  0  0  0  0  0  0
  187.8140  178.6390  141.2490 C   0  0  0  0  0  3  0  0  0  0  0  0
  184.1500  175.9440  136.3500 C   0  0  0  0  0  3  0  0  0  0  0  0
  186.5130  175.2770  136.3680 C   0  0  0  0  0  2  0  0  0  0  0  0
  188.0110  178.3900  139.9430 C   0  0  0  0  0  0  0  0  0  0  0  0
  183.2790  177.3480  140.7630 C   0  0  0  0  0  2  0  0  0  0  0  0
  185.4200  176.2860  136.5360 C   0  0  0  0  0  0  0  0  0  0  0  0
  185.5740  178.7110  139.5880 C   0  0  2  0  0  3  0  0  0  0  0  0
  189.4200  176.8880  137.7400 C   0  0  0  0  0  2  0  0  0  0  0  0
  182.7490  176.6880  138.4080 C   0  0  2  0  0  3  0  0  0  0  0  0
  189.4240  178.6440  139.4730 C   0  0  0  0  0  2  0  0  0  0  0  0
  184.0960  178.2350  141.5840 N   0  0  0  0  0  0  0  0  0  0  0  0
  179.9730  174.1050  138.5320 C   0  0  0  0  0  3  0  0  0  0  0  0
  185.3900  178.5490  141.0680 C   0  0  0  0  0  0  0  0  0  0  0  0
  182.8160  177.1080  136.6240 S   0  0  0  0  0  0  0  0  0  0  0  0
  183.7190  178.6130  142.9520 C   0  0  2  0  0  3  0  0  0  0  0  0
  181.8080  179.8930  142.4520 O   0  0  0  0  0  0  0  0  0  0  0  0
  182.2690  178.9860  143.1260 C   0  0  0  0  0  0  0  0  0  0  0  0
  179.9190  178.5420  143.7870 C   0  0  0  0  0  1  0  0  0  0  0  0
  181.3790  178.2550  144.0850 C   0  0  0  0  0  2  0  0  0  0  0  0
  184.7130  179.5810  143.5970 C   0  0  0  0  0  2  0  0  0  0  0  0
  184.9340  179.2930  145.0720 C   0  0  0  0  0  1  0  0  0  0  0  0
  2 28  2  0  0  0  0
  2  5  1  0  0  0  0
  3 26  1  0  0  0  0
  5  7  2  0  0  0  0
  6 11  1  0  0  0  0
  6 12  1  0  0  0  0
  7 15  1  0  0  0  0
  7 12  1  0  0  0  0
  8 13  1  0  0  0  0
  8 10  1  0  0  0  0
  8 24  1  1  0  0  0
 10  4  1  6  0  0  0
 10 16  1  0  0  0  0
 11  9  1  6  0  0  0
 11 21  1  0  0  0  0
 14 15  2  0  0  0  0
 16 23  1  0  0  0  0
 16 20  1  1  0  0  0
 17  1  1  0  0  0  0
 18 22  2  0  0  0  0
 18 30  1  0  0  0  0
 19 22  1  0  0  0  0
 19 13  1  0  0  0  0
 20 17  2  0  0  0  0
 21 27  1  0  0  0  0
 22  4  1  0  0  0  0
 23  9  1  6  0  0  0
 23 29  1  0  0  0  0
 24  3  1  0  0  0  0
 25 30  1  6  0  0  0
 25  5  1  0  0  0  0
 25 11  1  0  0  0  0
 26 20  1  0  0  0  0
 27 31  1  0  0  0  0
 28 14  1  0  0  0  0
 29 27  1  0  0  0  0
 29  1  2  0  0  0  0
 31 33  1  0  0  0  0
 31 36  1  6  0  0  0
 32 33  2  0  0  0  0
 33 35  1  0  0  0  0
 34 35  1  0  0  0  0
 36 37  1  0  0  0  0
M  END
>  <MODEL>
9

>  <REMARK>
 VINA RESULT:      -6.0      2.553      7.312
  Name = 
  4 active torsions:
  status: ('A' for Active; 'I' for Inactive)
    1  A    between atoms: C_11  and  C_26
    2  A    between atoms: C_17  and  C_23
    3  A    between atoms: C_17  and  C_26
    4  A    between atoms: C_26  and  N_33
                            x       y       z     vdW  Elec       q    Type
                         _______ _______ _______ _____ _____    ______ ____

>  <TORSDO>
F 4

$$$$
