=
 OpenBabel11052413253D

 28 31  0  0  1  0  0  0  0  0999 V2000
  187.7820  177.5260  145.1320 C   0  0  0  0  0  0  0  0  0  0  0  0
  191.5320  176.7320  147.6970 Cl  0  0  0  0  0  0  0  0  0  0  0  0
  190.4480  177.2920  142.4460 N   0  0  0  0  0  0  0  0  0  0  0  0
  190.3500  177.5990  145.2640 C   0  0  2  0  0  3  0  0  0  0  0  0
  189.1740  177.4180  143.0990 C   0  0  0  0  0  3  0  0  0  0  0  0
  188.9280  176.9560  147.1770 C   0  0  0  0  0  3  0  0  0  0  0  0
  191.5580  177.0290  144.5680 C   0  0  0  0  0  3  0  0  0  0  0  0
  190.1550  177.0470  146.6540 C   0  0  0  0  0  0  0  0  0  0  0  0
  191.5980  176.9400  143.2380 C   0  0  0  0  0  3  0  0  0  0  0  0
  187.7530  177.2620  146.4070 N   0  0  0  0  0  0  0  0  0  0  0  0
  189.0900  177.5070  144.4300 C   0  0  0  0  0  0  0  0  0  0  0  0
  191.6550  176.9100  140.4120 C   0  0  0  0  0  3  0  0  0  0  0  0
  188.9220  177.1960  139.0700 C   0  0  0  0  0  3  0  0  0  0  0  0
  190.9200  175.9360  138.2860 C   0  0  0  0  0  0  0  0  0  0  0  0
  190.5170  177.2990  141.0060 C   0  0  0  0  0  0  0  0  0  0  0  0
  188.3380  179.0540  140.8540 Cl  0  0  0  0  0  0  0  0  0  0  0  0
  189.6010  176.1230  138.3160 C   0  0  0  0  0  3  0  0  0  0  0  0
  189.3350  177.7580  140.2160 C   0  0  0  0  0  0  0  0  0  0  0  0
  191.4710  174.8040  137.4980 C   0  0  0  0  0  1  0  0  0  0  0  0
  191.8630  176.8940  138.9350 C   0  0  0  0  0  2  0  0  0  0  0  0
  186.5160  177.8400  144.4220 C   0  0  0  0  0  0  0  0  0  0  0  0
  186.4600  177.6520  143.0350 C   0  0  0  0  0  3  0  0  0  0  0  0
  184.2210  178.6430  144.3370 C   0  0  0  0  0  0  0  0  0  0  0  0
  185.2960  177.9570  142.3340 C   0  0  0  0  0  3  0  0  0  0  0  0
  185.3630  178.5260  146.5770 C   0  0  0  0  0  1  0  0  0  0  0  0
  185.3750  178.3460  145.0890 C   0  0  0  0  0  0  0  0  0  0  0  0
  182.9860  179.1720  144.9870 C   0  0  0  0  0  1  0  0  0  0  0  0
  184.2130  178.4410  142.9930 N   0  0  0  0  0  0  0  0  0  0  0  0
  1 10  2  0  0  0  0
  3  5  1  0  0  0  0
  3  9  1  0  0  0  0
  4  7  1  6  0  0  0
  4  8  1  0  0  0  0
  5 11  2  0  0  0  0
  8  6  2  0  0  0  0
  8  2  1  0  0  0  0
  9  7  2  0  0  0  0
 10  6  1  0  0  0  0
 11  1  1  0  0  0  0
 11  4  1  0  0  0  0
 12 15  2  0  0  0  0
 13 18  2  0  0  0  0
 14 17  2  0  0  0  0
 14 20  1  0  0  0  0
 15  3  1  0  0  0  0
 17 13  1  0  0  0  0
 18 16  1  0  0  0  0
 18 15  1  0  0  0  0
 19 14  1  0  0  0  0
 20 12  1  0  0  0  0
 21 26  1  0  0  0  0
 21  1  1  0  0  0  0
 22 21  2  0  0  0  0
 23 27  1  0  0  0  0
 23 26  2  0  0  0  0
 24 28  2  0  0  0  0
 24 22  1  0  0  0  0
 26 25  1  0  0  0  0
 28 23  1  0  0  0  0
M  END
>  <MODEL>
1

>  <REMARK>
 VINA RESULT:     -10.3      0.000      0.000
  Name = 
  2 active torsions:
  status: ('A' for Active; 'I' for Inactive)
    1  A    between atoms: C_1  and  C_2
    2  A    between atoms: N_10  and  C_13
                            x       y       z     vdW  Elec       q    Type
                         _______ _______ _______ _____ _____    ______ ____

>  <TORSDO>
F 2

$$$$
=
 OpenBabel11052413253D

 28 31  0  0  1  0  0  0  0  0999 V2000
  187.6000  177.9550  144.8330 C   0  0  0  0  0  0  0  0  0  0  0  0
  183.1280  179.0540  145.0880 Cl  0  0  0  0  0  0  0  0  0  0  0  0
  186.7380  178.2950  141.1570 N   0  0  0  0  0  0  0  0  0  0  0  0
  185.3390  178.0510  143.6120 C   0  0  2  0  0  3  0  0  0  0  0  0
  187.4770  178.1020  142.3750 C   0  0  0  0  0  3  0  0  0  0  0  0
  185.6010  178.6480  145.9930 C   0  0  0  0  0  3  0  0  0  0  0  0
  184.7090  178.6810  142.3970 C   0  0  0  0  0  3  0  0  0  0  0  0
  184.8210  178.6240  144.9080 C   0  0  0  0  0  0  0  0  0  0  0  0
  185.3710  178.7390  141.2410 C   0  0  0  0  0  3  0  0  0  0  0  0
  186.9810  178.2490  145.9410 N   0  0  0  0  0  0  0  0  0  0  0  0
  186.8510  178.0410  143.5550 C   0  0  0  0  0  0  0  0  0  0  0  0
  188.7550  178.4350  139.8710 C   0  0  0  0  0  3  0  0  0  0  0  0
  187.0520  177.2870  137.6050 C   0  0  0  0  0  3  0  0  0  0  0  0
  189.5100  177.1110  137.9510 C   0  0  0  0  0  0  0  0  0  0  0  0
  187.4260  178.2560  139.8900 C   0  0  0  0  0  0  0  0  0  0  0  0
  185.0310  178.7240  138.5120 Cl  0  0  0  0  0  0  0  0  0  0  0  0
  188.3690  176.6370  137.4520 C   0  0  0  0  0  3  0  0  0  0  0  0
  186.6430  178.0400  138.6360 C   0  0  0  0  0  0  0  0  0  0  0  0
  190.7660  176.3460  137.7370 C   0  0  0  0  0  1  0  0  0  0  0  0
  189.5790  178.4390  138.6280 C   0  0  0  0  0  2  0  0  0  0  0  0
  189.0260  177.5420  144.8800 C   0  0  0  0  0  0  0  0  0  0  0  0
  189.7750  177.5800  143.6970 C   0  0  0  0  0  3  0  0  0  0  0  0
  190.9990  176.6910  146.0210 C   0  0  0  0  0  0  0  0  0  0  0  0
  191.1080  177.1790  143.7000 C   0  0  0  0  0  3  0  0  0  0  0  0
  188.9090  177.0690  147.3720 C   0  0  0  0  0  1  0  0  0  0  0  0
  189.6480  177.0880  146.0680 C   0  0  0  0  0  0  0  0  0  0  0  0
  191.7090  176.2100  147.2430 C   0  0  0  0  0  1  0  0  0  0  0  0
  191.6850  176.7470  144.8500 N   0  0  0  0  0  0  0  0  0  0  0  0
  1 21  1  0  0  0  0
  1 10  2  0  0  0  0
  3  9  1  0  0  0  0
  3  5  1  0  0  0  0
  4  7  1  6  0  0  0
  4  8  1  0  0  0  0
  5 11  2  0  0  0  0
  8  2  1  0  0  0  0
  8  6  2  0  0  0  0
  9  7  2  0  0  0  0
 10  6  1  0  0  0  0
 11  4  1  0  0  0  0
 11  1  1  0  0  0  0
 12 15  2  0  0  0  0
 13 18  2  0  0  0  0
 14 20  1  0  0  0  0
 15  3  1  0  0  0  0
 16 18  1  0  0  0  0
 17 13  1  0  0  0  0
 17 14  2  0  0  0  0
 18 15  1  0  0  0  0
 19 14  1  0  0  0  0
 20 12  1  0  0  0  0
 21 26  1  0  0  0  0
 22 24  1  0  0  0  0
 22 21  2  0  0  0  0
 23 26  2  0  0  0  0
 23 27  1  0  0  0  0
 24 28  2  0  0  0  0
 26 25  1  0  0  0  0
 28 23  1  0  0  0  0
M  END
>  <MODEL>
2

>  <REMARK>
 VINA RESULT:     -10.1      2.351      4.838
  Name = 
  2 active torsions:
  status: ('A' for Active; 'I' for Inactive)
    1  A    between atoms: C_1  and  C_2
    2  A    between atoms: N_10  and  C_13
                            x       y       z     vdW  Elec       q    Type
                         _______ _______ _______ _____ _____    ______ ____

>  <TORSDO>
F 2

$$$$
=
 OpenBabel11052413253D

 28 31  0  0  1  0  0  0  0  0999 V2000
  185.6160  178.2840  144.4210 C   0  0  0  0  0  0  0  0  0  0  0  0
  181.3490  179.4220  143.0930 Cl  0  0  0  0  0  0  0  0  0  0  0  0
  186.0410  178.3740  140.6550 N   0  0  0  0  0  0  0  0  0  0  0  0
  183.8960  178.3080  142.5090 C   0  0  2  0  0  3  0  0  0  0  0  0
  186.3250  178.2620  142.0600 C   0  0  0  0  0  3  0  0  0  0  0  0
  183.3650  179.0670  144.7980 C   0  0  0  0  0  3  0  0  0  0  0  0
  183.7260  178.8560  141.1170 C   0  0  0  0  0  3  0  0  0  0  0  0
  182.9920  178.9710  143.5180 C   0  0  0  0  0  0  0  0  0  0  0  0
  184.7370  178.8310  140.2480 C   0  0  0  0  0  3  0  0  0  0  0  0
  184.6710  178.6560  145.2370 N   0  0  0  0  0  0  0  0  0  0  0  0
  185.3390  178.2850  142.9630 C   0  0  0  0  0  0  0  0  0  0  0  0
  188.3630  178.5280  140.0850 C   0  0  0  0  0  3  0  0  0  0  0  0
  187.5550  176.9860  137.5710 C   0  0  0  0  0  3  0  0  0  0  0  0
  189.7640  177.0550  138.7140 C   0  0  0  0  0  0  0  0  0  0  0  0
  187.1110  178.2440  139.6970 C   0  0  0  0  0  0  0  0  0  0  0  0
  185.2920  178.3490  137.5680 Cl  0  0  0  0  0  0  0  0  0  0  0  0
  188.8720  176.4340  137.9430 C   0  0  0  0  0  3  0  0  0  0  0  0
  186.7980  177.8190  138.3000 C   0  0  0  0  0  0  0  0  0  0  0  0
  191.0480  176.3760  139.0250 C   0  0  0  0  0  1  0  0  0  0  0  0
  189.5520  178.4550  139.1870 C   0  0  0  0  0  2  0  0  0  0  0  0
  186.9320  177.8670  144.9690 C   0  0  0  0  0  0  0  0  0  0  0  0
  187.8410  177.2260  144.1180 C   0  0  0  0  0  3  0  0  0  0  0  0
  188.5510  177.6210  146.7700 C   0  0  0  0  0  0  0  0  0  0  0  0
  189.0750  176.8030  144.6030 C   0  0  0  0  0  3  0  0  0  0  0  0
  186.3780  178.7890  147.2690 C   0  0  0  0  0  1  0  0  0  0  0  0
  187.2920  178.0690  146.3230 C   0  0  0  0  0  0  0  0  0  0  0  0
  188.9870  177.8130  148.1840 C   0  0  0  0  0  1  0  0  0  0  0  0
  189.4000  177.0060  145.9050 N   0  0  0  0  0  0  0  0  0  0  0  0
  1 21  1  0  0  0  0
  1 10  2  0  0  0  0
  2  8  1  0  0  0  0
  3  5  1  0  0  0  0
  4  7  1  6  0  0  0
  4 11  1  0  0  0  0
  4  8  1  0  0  0  0
  5 11  2  0  0  0  0
  6 10  1  0  0  0  0
  8  6  2  0  0  0  0
  9  3  1  0  0  0  0
  9  7  2  0  0  0  0
 11  1  1  0  0  0  0
 13 17  1  0  0  0  0
 13 18  2  0  0  0  0
 14 19  1  0  0  0  0
 14 20  1  0  0  0  0
 15 12  2  0  0  0  0
 15  3  1  0  0  0  0
 16 18  1  0  0  0  0
 17 14  2  0  0  0  0
 18 15  1  0  0  0  0
 20 12  1  0  0  0  0
 21 26  1  0  0  0  0
 22 24  1  0  0  0  0
 22 21  2  0  0  0  0
 23 27  1  0  0  0  0
 24 28  2  0  0  0  0
 26 23  2  0  0  0  0
 26 25  1  0  0  0  0
 28 23  1  0  0  0  0
M  END
>  <MODEL>
3

>  <REMARK>
 VINA RESULT:      -9.8      2.817      5.052
  Name = 
  2 active torsions:
  status: ('A' for Active; 'I' for Inactive)
    1  A    between atoms: C_1  and  C_2
    2  A    between atoms: N_10  and  C_13
                            x       y       z     vdW  Elec       q    Type
                         _______ _______ _______ _____ _____    ______ ____

>  <TORSDO>
F 2

$$$$
=
 OpenBabel11052413253D

 28 31  0  0  1  0  0  0  0  0999 V2000
  188.8360  177.2560  143.3310 C   0  0  0  0  0  0  0  0  0  0  0  0
  191.3340  176.8460  139.4760 Cl  0  0  0  0  0  0  0  0  0  0  0  0
  186.3690  178.5210  140.7450 N   0  0  0  0  0  0  0  0  0  0  0  0
  189.1530  177.9950  140.8880 C   0  0  2  0  0  3  0  0  0  0  0  0
  186.9460  178.1050  141.9940 C   0  0  0  0  0  3  0  0  0  0  0  0
  190.7230  176.4790  142.0430 C   0  0  0  0  0  3  0  0  0  0  0  0
  188.4100  177.9950  139.5770 C   0  0  0  0  0  3  0  0  0  0  0  0
  190.3260  177.0460  140.9000 C   0  0  0  0  0  0  0  0  0  0  0  0
  187.1120  178.2940  139.5320 C   0  0  0  0  0  3  0  0  0  0  0  0
  189.9880  176.6510  143.2670 N   0  0  0  0  0  0  0  0  0  0  0  0
  188.2440  177.7940  142.0810 C   0  0  0  0  0  0  0  0  0  0  0  0
  184.4250  179.1710  139.5060 C   0  0  0  0  0  3  0  0  0  0  0  0
  182.9600  178.8120  142.1660 C   0  0  0  0  0  3  0  0  0  0  0  0
  182.0610  178.6200  139.8540 C   0  0  0  0  0  0  0  0  0  0  0  0
  184.9930  178.9470  140.7000 C   0  0  0  0  0  0  0  0  0  0  0  0
  185.1020  179.7710  143.3770 Cl  0  0  0  0  0  0  0  0  0  0  0  0
  182.0190  178.3040  141.1480 C   0  0  0  0  0  3  0  0  0  0  0  0
  184.2440  179.1480  141.9770 C   0  0  0  0  0  0  0  0  0  0  0  0
  181.0610  178.0230  138.9310 C   0  0  0  0  0  1  0  0  0  0  0  0
  183.0190  179.6350  139.3240 C   0  0  0  0  0  2  0  0  0  0  0  0
  188.1560  177.3940  144.6440 C   0  0  0  0  0  0  0  0  0  0  0  0
  186.7620  177.2610  144.6950 C   0  0  0  0  0  3  0  0  0  0  0  0
  188.1340  177.8180  147.0400 C   0  0  0  0  0  0  0  0  0  0  0  0
  186.0890  177.4060  145.9050 C   0  0  0  0  0  3  0  0  0  0  0  0
  190.3530  177.7870  145.8540 C   0  0  0  0  0  1  0  0  0  0  0  0
  188.8590  177.6790  145.8400 C   0  0  0  0  0  0  0  0  0  0  0  0
  188.8210  178.1110  148.3320 C   0  0  0  0  0  1  0  0  0  0  0  0
  186.7820  177.6790  147.0390 N   0  0  0  0  0  0  0  0  0  0  0  0
  1 21  1  0  0  0  0
  2  8  1  0  0  0  0
  3  5  1  0  0  0  0
  4  7  1  6  0  0  0
  4  8  1  0  0  0  0
  4 11  1  0  0  0  0
  5 11  2  0  0  0  0
  6 10  1  0  0  0  0
  8  6  2  0  0  0  0
  9  7  2  0  0  0  0
  9  3  1  0  0  0  0
 10  1  2  0  0  0  0
 11  1  1  0  0  0  0
 12 15  2  0  0  0  0
 14 17  2  0  0  0  0
 15  3  1  0  0  0  0
 15 18  1  0  0  0  0
 17 13  1  0  0  0  0
 18 13  2  0  0  0  0
 18 16  1  0  0  0  0
 19 14  1  0  0  0  0
 20 12  1  0  0  0  0
 20 14  1  0  0  0  0
 21 22  2  0  0  0  0
 21 26  1  0  0  0  0
 22 24  1  0  0  0  0
 23 27  1  0  0  0  0
 24 28  2  0  0  0  0
 26 25  1  0  0  0  0
 26 23  2  0  0  0  0
 28 23  1  0  0  0  0
M  END
>  <MODEL>
4

>  <REMARK>
 VINA RESULT:      -9.8      2.481      5.919
  Name = 
  2 active torsions:
  status: ('A' for Active; 'I' for Inactive)
    1  A    between atoms: C_1  and  C_2
    2  A    between atoms: N_10  and  C_13
                            x       y       z     vdW  Elec       q    Type
                         _______ _______ _______ _____ _____    ______ ____

>  <TORSDO>
F 2

$$$$
=
 OpenBabel11052413253D

 28 31  0  0  1  0  0  0  0  0999 V2000
  188.9970  177.6890  143.4400 C   0  0  0  0  0  0  0  0  0  0  0  0
  187.5400  177.8030  147.8150 Cl  0  0  0  0  0  0  0  0  0  0  0  0
  185.3060  178.3960  142.9440 N   0  0  0  0  0  0  0  0  0  0  0  0
  186.9940  177.5060  145.0430 C   0  0  2  0  0  3  0  0  0  0  0  0
  186.7020  178.1770  142.6830 C   0  0  0  0  0  3  0  0  0  0  0  0
  189.3180  177.7780  145.8300 C   0  0  0  0  0  3  0  0  0  0  0  0
  185.6700  178.1700  145.3150 C   0  0  0  0  0  3  0  0  0  0  0  0
  188.0140  177.7590  146.1250 C   0  0  0  0  0  0  0  0  0  0  0  0
  184.8730  178.5350  144.3110 C   0  0  0  0  0  3  0  0  0  0  0  0
  189.7890  177.6800  144.4750 N   0  0  0  0  0  0  0  0  0  0  0  0
  187.5350  177.8120  143.6630 C   0  0  0  0  0  0  0  0  0  0  0  0
  184.9330  179.0300  140.6640 C   0  0  0  0  0  3  0  0  0  0  0  0
  182.0520  178.1450  141.1880 C   0  0  0  0  0  3  0  0  0  0  0  0
  183.2970  178.2080  139.0340 C   0  0  0  0  0  0  0  0  0  0  0  0
  184.4110  178.6890  141.8520 C   0  0  0  0  0  0  0  0  0  0  0  0
  182.2900  179.1200  143.6320 Cl  0  0  0  0  0  0  0  0  0  0  0  0
  182.3360  177.7040  139.8080 C   0  0  0  0  0  3  0  0  0  0  0  0
  182.9360  178.6280  142.0750 C   0  0  0  0  0  0  0  0  0  0  0  0
  183.4850  177.6590  137.6670 C   0  0  0  0  0  1  0  0  0  0  0  0
  184.1180  179.3780  139.4640 C   0  0  0  0  0  2  0  0  0  0  0  0
  189.5760  177.5720  142.0770 C   0  0  0  0  0  0  0  0  0  0  0  0
  188.7050  177.5030  140.9830 C   0  0  0  0  0  3  0  0  0  0  0  0
  191.4360  177.3670  140.5230 C   0  0  0  0  0  0  0  0  0  0  0  0
  189.2120  177.3710  139.6920 C   0  0  0  0  0  3  0  0  0  0  0  0
  191.9510  177.6160  142.9740 C   0  0  0  0  0  1  0  0  0  0  0  0
  190.9700  177.5030  141.8460 C   0  0  0  0  0  0  0  0  0  0  0  0
  192.8950  177.2960  140.2180 C   0  0  0  0  0  1  0  0  0  0  0  0
  190.5520  177.3060  139.4930 N   0  0  0  0  0  0  0  0  0  0  0  0
  1 11  1  0  0  0  0
  1 10  2  0  0  0  0
  3  9  1  0  0  0  0
  4  7  1  1  0  0  0
  4  8  1  0  0  0  0
  5  3  1  0  0  0  0
  5 11  2  0  0  0  0
  6  8  2  0  0  0  0
  8  2  1  0  0  0  0
  9  7  2  0  0  0  0
 10  6  1  0  0  0  0
 11  4  1  0  0  0  0
 12 15  2  0  0  0  0
 13 18  2  0  0  0  0
 14 20  1  0  0  0  0
 14 17  2  0  0  0  0
 15 18  1  0  0  0  0
 15  3  1  0  0  0  0
 17 13  1  0  0  0  0
 18 16  1  0  0  0  0
 19 14  1  0  0  0  0
 20 12  1  0  0  0  0
 21  1  1  0  0  0  0
 22 21  2  0  0  0  0
 23 26  2  0  0  0  0
 24 22  1  0  0  0  0
 26 21  1  0  0  0  0
 26 25  1  0  0  0  0
 27 23  1  0  0  0  0
 28 24  2  0  0  0  0
 28 23  1  0  0  0  0
M  END
>  <MODEL>
5

>  <REMARK>
 VINA RESULT:      -9.5      2.528      6.143
  Name = 
  2 active torsions:
  status: ('A' for Active; 'I' for Inactive)
    1  A    between atoms: C_1  and  C_2
    2  A    between atoms: N_10  and  C_13
                            x       y       z     vdW  Elec       q    Type
                         _______ _______ _______ _____ _____    ______ ____

>  <TORSDO>
F 2

$$$$
=
 OpenBabel11052413253D

 28 31  0  0  1  0  0  0  0  0999 V2000
  187.9370  178.1020  140.3030 C   0  0  0  0  0  0  0  0  0  0  0  0
  183.7040  179.0200  138.7220 Cl  0  0  0  0  0  0  0  0  0  0  0  0
  185.9660  178.1700  143.5400 N   0  0  0  0  0  0  0  0  0  0  0  0
  185.5850  178.9840  140.8500 C   0  0  2  0  0  3  0  0  0  0  0  0
  187.0430  178.0260  142.5990 C   0  0  0  0  0  3  0  0  0  0  0  0
  186.2720  178.3270  138.5720 C   0  0  0  0  0  3  0  0  0  0  0  0
  184.4240  178.6850  141.7630 C   0  0  0  0  0  3  0  0  0  0  0  0
  185.2870  178.6850  139.4020 C   0  0  0  0  0  0  0  0  0  0  0  0
  184.6290  178.3520  143.0370 C   0  0  0  0  0  3  0  0  0  0  0  0
  187.6120  178.0990  139.0420 N   0  0  0  0  0  0  0  0  0  0  0  0
  186.8770  178.3470  141.3120 C   0  0  0  0  0  0  0  0  0  0  0  0
  187.2300  177.1280  145.2890 C   0  0  0  0  0  3  0  0  0  0  0  0
  185.6800  179.0060  147.1390 C   0  0  0  0  0  3  0  0  0  0  0  0
  187.9270  177.9890  147.4760 C   0  0  0  0  0  0  0  0  0  0  0  0
  186.2010  177.9140  144.9400 C   0  0  0  0  0  0  0  0  0  0  0  0
  183.5780  178.6710  145.5750 Cl  0  0  0  0  0  0  0  0  0  0  0  0
  187.0430  178.9600  147.7060 C   0  0  0  0  0  3  0  0  0  0  0  0
  185.2840  178.5080  145.9590 C   0  0  0  0  0  0  0  0  0  0  0  0
  189.2730  178.0760  148.0980 C   0  0  0  0  0  1  0  0  0  0  0  0
  187.5660  176.7680  146.6970 C   0  0  0  0  0  2  0  0  0  0  0  0
  189.3510  177.8660  140.6920 C   0  0  0  0  0  0  0  0  0  0  0  0
  189.7110  178.0170  142.0380 C   0  0  0  0  0  3  0  0  0  0  0  0
  191.6750  177.3370  140.2020 C   0  0  0  0  0  0  0  0  0  0  0  0
  191.0310  177.8240  142.4350 C   0  0  0  0  0  3  0  0  0  0  0  0
  190.0180  177.3000  138.3090 C   0  0  0  0  0  1  0  0  0  0  0  0
  190.3520  177.5190  139.7530 C   0  0  0  0  0  0  0  0  0  0  0  0
  192.7700  176.9650  139.2590 C   0  0  0  0  0  1  0  0  0  0  0  0
  191.9750  177.4930  141.5180 N   0  0  0  0  0  0  0  0  0  0  0  0
  1 21  1  0  0  0  0
  1 11  1  0  0  0  0
  2  8  1  0  0  0  0
  3 15  1  0  0  0  0
  4 11  1  0  0  0  0
  4  7  1  1  0  0  0
  5  3  1  0  0  0  0
  6 10  1  0  0  0  0
  6  8  2  0  0  0  0
  7  9  2  0  0  0  0
  8  4  1  0  0  0  0
  9  3  1  0  0  0  0
 10  1  2  0  0  0  0
 11  5  2  0  0  0  0
 12 20  1  0  0  0  0
 13 17  1  0  0  0  0
 14 17  2  0  0  0  0
 14 19  1  0  0  0  0
 15 12  2  0  0  0  0
 15 18  1  0  0  0  0
 16 18  1  0  0  0  0
 18 13  2  0  0  0  0
 20 14  1  0  0  0  0
 21 22  1  0  0  0  0
 22 24  2  0  0  0  0
 23 28  2  0  0  0  0
 25 26  1  0  0  0  0
 26 23  1  0  0  0  0
 26 21  2  0  0  0  0
 27 23  1  0  0  0  0
 28 24  1  0  0  0  0
M  END
>  <MODEL>
6

>  <REMARK>
 VINA RESULT:      -9.3      2.499      7.857
  Name = 
  2 active torsions:
  status: ('A' for Active; 'I' for Inactive)
    1  A    between atoms: C_1  and  C_2
    2  A    between atoms: N_10  and  C_13
                            x       y       z     vdW  Elec       q    Type
                         _______ _______ _______ _____ _____    ______ ____

>  <TORSDO>
F 2

$$$$
=
 OpenBabel11052413253D

 28 31  0  0  1  0  0  0  0  0999 V2000
  183.2010  178.2800  140.8590 C   0  0  0  0  0  0  0  0  0  0  0  0
  180.4120  179.4400  144.3440 Cl  0  0  0  0  0  0  0  0  0  0  0  0
  185.5690  177.9670  143.8030 N   0  0  0  0  0  0  0  0  0  0  0  0
  183.0280  179.1150  143.2850 C   0  0  2  0  0  3  0  0  0  0  0  0
  185.0350  177.9290  142.4690 C   0  0  0  0  0  3  0  0  0  0  0  0
  181.0520  178.7410  141.8540 C   0  0  0  0  0  3  0  0  0  0  0  0
  183.4530  178.7190  144.6750 C   0  0  0  0  0  3  0  0  0  0  0  0
  181.5390  179.0040  143.0700 C   0  0  0  0  0  0  0  0  0  0  0  0
  184.6720  178.2270  144.8990 C   0  0  0  0  0  3  0  0  0  0  0  0
  181.9130  178.4390  140.7430 N   0  0  0  0  0  0  0  0  0  0  0  0
  183.8160  178.4100  142.2030 C   0  0  0  0  0  0  0  0  0  0  0  0
  187.5560  176.8310  143.0920 C   0  0  0  0  0  3  0  0  0  0  0  0
  188.8630  178.2210  145.4830 C   0  0  0  0  0  3  0  0  0  0  0  0
  189.9160  177.4330  143.3700 C   0  0  0  0  0  0  0  0  0  0  0  0
  186.9240  177.5350  144.0440 C   0  0  0  0  0  0  0  0  0  0  0  0
  186.6020  177.8800  146.8060 Cl  0  0  0  0  0  0  0  0  0  0  0  0
  189.8910  178.2500  144.4230 C   0  0  0  0  0  3  0  0  0  0  0  0
  187.5780  177.8610  145.3460 C   0  0  0  0  0  0  0  0  0  0  0  0
  191.0010  177.5820  142.3660 C   0  0  0  0  0  1  0  0  0  0  0  0
  188.9460  176.3080  143.2260 C   0  0  0  0  0  2  0  0  0  0  0  0
  184.0120  177.9800  139.6510 C   0  0  0  0  0  0  0  0  0  0  0  0
  185.0570  178.8490  139.3120 C   0  0  0  0  0  3  0  0  0  0  0  0
  184.5540  176.6670  137.6760 C   0  0  0  0  0  0  0  0  0  0  0  0
  185.8240  178.6100  138.1750 C   0  0  0  0  0  3  0  0  0  0  0  0
  182.6760  175.8790  139.1550 C   0  0  0  0  0  1  0  0  0  0  0  0
  183.7520  176.8660  138.8180 C   0  0  0  0  0  0  0  0  0  0  0  0
  184.3310  175.5070  136.7640 C   0  0  0  0  0  1  0  0  0  0  0  0
  185.5580  177.5360  137.3890 N   0  0  0  0  0  0  0  0  0  0  0  0
  1 11  1  0  0  0  0
  3 15  1  0  0  0  0
  3  9  1  0  0  0  0
  4  7  1  1  0  0  0
  5  3  1  0  0  0  0
  6  8  2  0  0  0  0
  7  9  2  0  0  0  0
  8  4  1  0  0  0  0
  8  2  1  0  0  0  0
 10  1  2  0  0  0  0
 10  6  1  0  0  0  0
 11  5  2  0  0  0  0
 11  4  1  0  0  0  0
 12 20  1  0  0  0  0
 12 15  2  0  0  0  0
 14 17  2  0  0  0  0
 15 18  1  0  0  0  0
 17 13  1  0  0  0  0
 18 13  2  0  0  0  0
 18 16  1  0  0  0  0
 19 14  1  0  0  0  0
 20 14  1  0  0  0  0
 21  1  1  0  0  0  0
 22 21  1  0  0  0  0
 23 26  1  0  0  0  0
 24 22  2  0  0  0  0
 26 25  1  0  0  0  0
 26 21  2  0  0  0  0
 27 23  1  0  0  0  0
 28 23  2  0  0  0  0
 28 24  1  0  0  0  0
M  END
>  <MODEL>
7

>  <REMARK>
 VINA RESULT:      -9.3      3.322      6.873
  Name = 
  2 active torsions:
  status: ('A' for Active; 'I' for Inactive)
    1  A    between atoms: C_1  and  C_2
    2  A    between atoms: N_10  and  C_13
                            x       y       z     vdW  Elec       q    Type
                         _______ _______ _______ _____ _____    ______ ____

>  <TORSDO>
F 2

$$$$
=
 OpenBabel11052413253D

 28 31  0  0  1  0  0  0  0  0999 V2000
  189.9390  177.5050  140.4000 C   0  0  0  0  0  0  0  0  0  0  0  0
  190.8630  176.6290  144.8330 Cl  0  0  0  0  0  0  0  0  0  0  0  0
  186.5630  178.1930  141.9830 N   0  0  0  0  0  0  0  0  0  0  0  0
  188.9890  176.9210  142.7180 C   0  0  2  0  0  3  0  0  0  0  0  0
  187.6210  178.0760  141.0160 C   0  0  0  0  0  3  0  0  0  0  0  0
  191.4110  177.0860  142.2660 C   0  0  0  0  0  3  0  0  0  0  0  0
  188.0360  177.4710  143.7470 C   0  0  0  0  0  3  0  0  0  0  0  0
  190.4290  176.9650  143.1650 C   0  0  0  0  0  0  0  0  0  0  0  0
  186.8790  178.0200  143.3770 C   0  0  0  0  0  3  0  0  0  0  0  0
  191.1360  177.2960  140.8700 N   0  0  0  0  0  0  0  0  0  0  0  0
  188.7970  177.5340  141.3480 C   0  0  0  0  0  0  0  0  0  0  0  0
  185.0430  178.8930  140.2680 C   0  0  0  0  0  3  0  0  0  0  0  0
  182.9270  178.7190  142.4690 C   0  0  0  0  0  3  0  0  0  0  0  0
  182.6410  178.4800  140.0090 C   0  0  0  0  0  0  0  0  0  0  0  0
  185.2720  178.6880  141.5740 C   0  0  0  0  0  0  0  0  0  0  0  0
  184.7440  179.6130  144.1660 Cl  0  0  0  0  0  0  0  0  0  0  0  0
  182.2490  178.2200  141.2560 C   0  0  0  0  0  3  0  0  0  0  0  0
  184.2350  178.9790  142.6090 C   0  0  0  0  0  0  0  0  0  0  0  0
  181.8750  177.8990  138.8750 C   0  0  0  0  0  1  0  0  0  0  0  0
  183.7610  179.4220  139.7180 C   0  0  0  0  0  2  0  0  0  0  0  0
  189.7510  177.7030  138.9400 C   0  0  0  0  0  0  0  0  0  0  0  0
  189.1520  178.8880  138.4950 C   0  0  0  0  0  3  0  0  0  0  0  0
  189.8970  176.9850  136.6200 C   0  0  0  0  0  0  0  0  0  0  0  0
  188.9410  179.0970  137.1340 C   0  0  0  0  0  3  0  0  0  0  0  0
  190.8190  175.4630  138.4000 C   0  0  0  0  0  1  0  0  0  0  0  0
  190.1330  176.7300  137.9850 C   0  0  0  0  0  0  0  0  0  0  0  0
  190.2840  176.0000  135.5680 C   0  0  0  0  0  1  0  0  0  0  0  0
  189.3130  178.1510  136.2360 N   0  0  0  0  0  0  0  0  0  0  0  0
  1 10  2  0  0  0  0
  1 11  1  0  0  0  0
  3  9  1  0  0  0  0
  4  8  1  0  0  0  0
  4  7  1  1  0  0  0
  5 11  2  0  0  0  0
  5  3  1  0  0  0  0
  6  8  2  0  0  0  0
  8  2  1  0  0  0  0
  9  7  2  0  0  0  0
 10  6  1  0  0  0  0
 11  4  1  0  0  0  0
 12 15  2  0  0  0  0
 13 18  2  0  0  0  0
 14 17  2  0  0  0  0
 15  3  1  0  0  0  0
 15 18  1  0  0  0  0
 17 13  1  0  0  0  0
 18 16  1  0  0  0  0
 19 14  1  0  0  0  0
 20 14  1  0  0  0  0
 20 12  1  0  0  0  0
 21  1  1  0  0  0  0
 22 21  1  0  0  0  0
 23 26  1  0  0  0  0
 24 22  2  0  0  0  0
 26 25  1  0  0  0  0
 26 21  2  0  0  0  0
 27 23  1  0  0  0  0
 28 23  2  0  0  0  0
 28 24  1  0  0  0  0
M  END
>  <MODEL>
8

>  <REMARK>
 VINA RESULT:      -9.2      2.594      6.856
  Name = 
  2 active torsions:
  status: ('A' for Active; 'I' for Inactive)
    1  A    between atoms: C_1  and  C_2
    2  A    between atoms: N_10  and  C_13
                            x       y       z     vdW  Elec       q    Type
                         _______ _______ _______ _____ _____    ______ ____

>  <TORSDO>
F 2

$$$$
=
 OpenBabel11052413253D

 28 31  0  0  1  0  0  0  0  0999 V2000
  187.1920  178.0920  143.1760 C   0  0  0  0  0  0  0  0  0  0  0  0
  188.9450  178.2290  138.9120 Cl  0  0  0  0  0  0  0  0  0  0  0  0
  184.0260  178.3920  141.1120 N   0  0  0  0  0  0  0  0  0  0  0  0
  186.8130  178.7440  140.7170 C   0  0  2  0  0  3  0  0  0  0  0  0
  184.9220  178.2460  142.2270 C   0  0  0  0  0  3  0  0  0  0  0  0
  188.9580  177.8490  141.5490 C   0  0  0  0  0  3  0  0  0  0  0  0
  185.8800  178.4410  139.5740 C   0  0  0  0  0  3  0  0  0  0  0  0
  188.2030  178.1990  140.5030 C   0  0  0  0  0  0  0  0  0  0  0  0
  184.5670  178.3290  139.7790 C   0  0  0  0  0  3  0  0  0  0  0  0
  188.4430  177.8620  142.8920 N   0  0  0  0  0  0  0  0  0  0  0  0
  186.2450  178.3490  142.0630 C   0  0  0  0  0  0  0  0  0  0  0  0
  182.1030  179.0490  142.3820 C   0  0  0  0  0  3  0  0  0  0  0  0
  180.5180  178.0090  139.9820 C   0  0  0  0  0  3  0  0  0  0  0  0
  179.8740  179.7480  141.6410 C   0  0  0  0  0  0  0  0  0  0  0  0
  182.6020  178.3770  141.3330 C   0  0  0  0  0  0  0  0  0  0  0  0
  182.3210  176.0950  139.7300 Cl  0  0  0  0  0  0  0  0  0  0  0  0
  179.7850  179.2120  140.4250 C   0  0  0  0  0  3  0  0  0  0  0  0
  181.7230  177.6010  140.4070 C   0  0  0  0  0  0  0  0  0  0  0  0
  179.0920  180.9730  141.9500 C   0  0  0  0  0  1  0  0  0  0  0  0
  180.6540  179.0940  142.7320 C   0  0  0  0  0  2  0  0  0  0  0  0
  186.7550  178.0950  144.5950 C   0  0  0  0  0  0  0  0  0  0  0  0
  185.4370  178.4690  144.8900 C   0  0  0  0  0  3  0  0  0  0  0  0
  187.1360  177.8110  146.9810 C   0  0  0  0  0  0  0  0  0  0  0  0
  184.9990  178.5040  146.2110 C   0  0  0  0  0  3  0  0  0  0  0  0
  189.0300  177.3080  145.4020 C   0  0  0  0  0  1  0  0  0  0  0  0
  187.6240  177.7590  145.6600 C   0  0  0  0  0  0  0  0  0  0  0  0
  188.0040  177.4620  148.1430 C   0  0  0  0  0  1  0  0  0  0  0  0
  185.8490  178.1790  147.2180 N   0  0  0  0  0  0  0  0  0  0  0  0
  1 21  1  0  0  0  0
  2  8  1  0  0  0  0
  3 15  1  0  0  0  0
  3  5  1  0  0  0  0
  4  7  1  6  0  0  0
  4 11  1  0  0  0  0
  6 10  1  0  0  0  0
  7  9  2  0  0  0  0
  8  4  1  0  0  0  0
  8  6  2  0  0  0  0
  9  3  1  0  0  0  0
 10  1  2  0  0  0  0
 11  5  2  0  0  0  0
 11  1  1  0  0  0  0
 12 20  1  0  0  0  0
 13 18  2  0  0  0  0
 13 17  1  0  0  0  0
 14 19  1  0  0  0  0
 14 20  1  0  0  0  0
 15 12  2  0  0  0  0
 16 18  1  0  0  0  0
 17 14  2  0  0  0  0
 18 15  1  0  0  0  0
 21 22  2  0  0  0  0
 21 26  1  0  0  0  0
 22 24  1  0  0  0  0
 23 28  1  0  0  0  0
 23 27  1  0  0  0  0
 24 28  2  0  0  0  0
 25 26  1  0  0  0  0
 26 23  2  0  0  0  0
M  END
>  <MODEL>
9

>  <REMARK>
 VINA RESULT:      -9.2      2.988      7.285
  Name = 
  2 active torsions:
  status: ('A' for Active; 'I' for Inactive)
    1  A    between atoms: C_1  and  C_2
    2  A    between atoms: N_10  and  C_13
                            x       y       z     vdW  Elec       q    Type
                         _______ _______ _______ _____ _____    ______ ____

>  <TORSDO>
F 2

$$$$
