=
 OpenBabel11052413533D

 27 31  0  0  1  0  0  0  0  0999 V2000
  188.5500  177.3890  143.5440 N   0  0  0  0  0  0  0  0  0  0  0  0
  188.8070  177.5320  142.1280 C   0  0  0  0  0  0  0  0  0  0  0  0
  189.7220  177.7710  138.1290 N   0  0  0  0  0  0  0  0  0  0  0  0
  191.2110  176.2070  136.8770 C   0  0  0  0  0  1  0  0  0  0  0  0
  188.2350  178.5960  141.3840 C   0  0  0  0  0  3  0  0  0  0  0  0
  190.6650  176.0500  139.3070 N   0  0  0  0  0  2  0  0  0  0  0  0
  189.8970  176.7980  140.1120 C   0  0  0  0  0  0  0  0  0  0  0  0
  190.5290  176.6780  138.1110 C   0  0  0  0  0  0  0  0  0  0  0  0
  189.3370  177.8200  139.4120 C   0  0  0  0  0  0  0  0  0  0  0  0
  189.6620  176.6160  141.4710 C   0  0  0  0  0  3  0  0  0  0  0  0
  188.4940  178.7500  140.0100 C   0  0  0  0  0  3  0  0  0  0  0  0
  189.6830  176.9550  145.6530 N   0  0  0  0  0  0  0  0  0  0  0  0
  191.8060  177.9310  144.9310 C   0  0  1  0  0  3  0  0  0  0  0  0
  189.2170  177.5790  146.8890 C   0  0  0  0  0  1  0  0  0  0  0  0
  191.7840  177.6650  143.4370 C   0  0  0  0  0  2  0  0  0  0  0  0
  189.4110  177.9300  144.6020 C   0  0  1  0  0  3  0  0  0  0  0  0
  191.7810  176.4930  147.0100 C   0  0  0  0  0  1  0  0  0  0  0  0
  190.8390  179.8920  143.9850 F   0  0  0  0  0  0  0  0  0  0  0  0
  190.7120  178.5200  144.0770 C   0  0  1  0  0  0  0  0  0  0  0  0
  191.1460  176.7720  145.6490 C   0  0  1  0  0  3  0  0  0  0  0  0
  187.3810  176.6370  143.9900 C   0  0  0  0  0  2  0  0  0  0  0  0
  184.3300  179.2490  145.3900 N   0  0  0  0  0  0  0  0  0  0  0  0
  186.3250  177.5690  144.4810 C   0  0  0  0  0  0  0  0  0  0  0  0
  185.5500  178.2940  143.5710 C   0  0  0  0  0  3  0  0  0  0  0  0
  184.5480  179.1390  144.0520 C   0  0  0  0  0  3  0  0  0  0  0  0
  185.0700  178.5470  146.2910 C   0  0  0  0  0  3  0  0  0  0  0  0
  186.0810  177.6910  145.8520 C   0  0  0  0  0  3  0  0  0  0  0  0
  1 21  1  0  0  0  0
  2  1  1  0  0  0  0
  3  9  1  0  0  0  0
  4  8  1  0  0  0  0
  5  2  2  0  0  0  0
  6  7  1  0  0  0  0
  7 10  2  0  0  0  0
  8  3  2  0  0  0  0
  8  6  1  0  0  0  0
  9 11  2  0  0  0  0
  9  7  1  0  0  0  0
 10  2  1  0  0  0  0
 11  5  1  0  0  0  0
 12 14  1  0  0  0  0
 13 15  1  6  0  0  0
 13 20  1  0  0  0  0
 15 19  1  0  0  0  0
 16  1  1  6  0  0  0
 16 12  1  0  0  0  0
 19 18  1  6  0  0  0
 19 16  1  0  0  0  0
 19 13  1  0  0  0  0
 20 12  1  0  0  0  0
 20 17  1  1  0  0  0
 21 23  1  0  0  0  0
 22 26  1  0  0  0  0
 23 27  1  0  0  0  0
 24 25  1  0  0  0  0
 24 23  2  0  0  0  0
 25 22  2  0  0  0  0
 27 26  2  0  0  0  0
M  END
>  <MODEL>
1

>  <REMARK>
 VINA RESULT:      -9.4      0.000      0.000
  Name = 
  4 active torsions:
  status: ('A' for Active; 'I' for Inactive)
    1  A    between atoms: N_1  and  C_2
    2  A    between atoms: N_1  and  C_15
    3  A    between atoms: N_1  and  C_18
    4  A    between atoms: C_9  and  C_15
                            x       y       z     vdW  Elec       q    Type
                         _______ _______ _______ _____ _____    ______ ____

>  <TORSDO>
F 4

$$$$
=
 OpenBabel11052413533D

 27 31  0  0  1  0  0  0  0  0999 V2000
  188.2210  177.3390  144.6240 N   0  0  0  0  0  0  0  0  0  0  0  0
  186.8630  177.8050  144.7970 C   0  0  0  0  0  0  0  0  0  0  0  0
  182.9860  179.1430  145.0410 N   0  0  0  0  0  0  0  0  0  0  0  0
  181.3800  179.3170  143.1380 C   0  0  0  0  0  1  0  0  0  0  0  0
  186.3850  178.2120  146.0700 C   0  0  0  0  0  3  0  0  0  0  0  0
  183.7330  178.5020  142.9740 N   0  0  0  0  0  2  0  0  0  0  0  0
  184.7040  178.3520  143.8870 C   0  0  0  0  0  0  0  0  0  0  0  0
  182.7060  178.9850  143.7210 C   0  0  0  0  0  0  0  0  0  0  0  0
  184.2590  178.7330  145.1140 C   0  0  0  0  0  0  0  0  0  0  0  0
  185.9980  177.8840  143.6820 C   0  0  0  0  0  3  0  0  0  0  0  0
  185.0710  178.6810  146.2420 C   0  0  0  0  0  3  0  0  0  0  0  0
  189.6520  176.9570  146.5560 N   0  0  0  0  0  0  0  0  0  0  0  0
  191.7330  177.3240  145.3240 C   0  0  1  0  0  3  0  0  0  0  0  0
  189.5760  177.8340  147.7210 C   0  0  0  0  0  1  0  0  0  0  0  0
  191.3570  176.8650  143.9260 C   0  0  0  0  0  2  0  0  0  0  0  0
  189.3670  177.8140  145.4090 C   0  0  1  0  0  3  0  0  0  0  0  0
  191.8500  176.2270  147.5990 C   0  0  0  0  0  1  0  0  0  0  0  0
  190.9940  179.3020  144.2210 F   0  0  0  0  0  0  0  0  0  0  0  0
  190.6240  178.0190  144.5750 C   0  0  1  0  0  0  0  0  0  0  0  0
  191.0200  176.4510  146.3370 C   0  0  1  0  0  3  0  0  0  0  0  0
  188.5170  176.3520  143.5900 C   0  0  0  0  0  2  0  0  0  0  0  0
  189.1050  178.2480  139.8290 N   0  0  0  0  0  0  0  0  0  0  0  0
  188.7390  177.0280  142.2790 C   0  0  0  0  0  0  0  0  0  0  0  0
  189.6660  176.5110  141.3710 C   0  0  0  0  0  3  0  0  0  0  0  0
  189.8380  177.1440  140.1380 C   0  0  0  0  0  3  0  0  0  0  0  0
  188.1940  178.7630  140.6980 C   0  0  0  0  0  3  0  0  0  0  0  0
  187.9920  178.1590  141.9410 C   0  0  0  0  0  3  0  0  0  0  0  0
  1  2  1  0  0  0  0
  2  5  1  0  0  0  0
  3  9  1  0  0  0  0
  4  8  1  0  0  0  0
  5 11  2  0  0  0  0
  6  8  1  0  0  0  0
  6  7  1  0  0  0  0
  7  9  2  0  0  0  0
  8  3  2  0  0  0  0
  9 11  1  0  0  0  0
 10  7  1  0  0  0  0
 10  2  2  0  0  0  0
 12 14  1  0  0  0  0
 13 15  1  6  0  0  0
 13 20  1  0  0  0  0
 15 19  1  0  0  0  0
 16  1  1  6  0  0  0
 16 12  1  0  0  0  0
 19 18  1  6  0  0  0
 19 13  1  0  0  0  0
 19 16  1  0  0  0  0
 20 12  1  0  0  0  0
 20 17  1  1  0  0  0
 21  1  1  0  0  0  0
 22 25  2  0  0  0  0
 22 26  1  0  0  0  0
 23 21  1  0  0  0  0
 24 23  2  0  0  0  0
 25 24  1  0  0  0  0
 26 27  2  0  0  0  0
 27 23  1  0  0  0  0
M  END
>  <MODEL>
2

>  <REMARK>
 VINA RESULT:      -7.8      1.284      5.520
  Name = 
  4 active torsions:
  status: ('A' for Active; 'I' for Inactive)
    1  A    between atoms: N_1  and  C_2
    2  A    between atoms: N_1  and  C_15
    3  A    between atoms: N_1  and  C_18
    4  A    between atoms: C_9  and  C_15
                            x       y       z     vdW  Elec       q    Type
                         _______ _______ _______ _____ _____    ______ ____

>  <TORSDO>
F 4

$$$$
=
 OpenBabel11052413533D

 27 31  0  0  1  0  0  0  0  0999 V2000
  187.6070  177.7580  143.8300 N   0  0  0  0  0  0  0  0  0  0  0  0
  186.2150  178.1340  143.7210 C   0  0  0  0  0  0  0  0  0  0  0  0
  182.2780  179.1710  143.1640 N   0  0  0  0  0  0  0  0  0  0  0  0
  180.9790  178.8850  141.0530 C   0  0  0  0  0  1  0  0  0  0  0  0
  185.5240  178.7110  144.8180 C   0  0  0  0  0  3  0  0  0  0  0  0
  183.3710  178.2510  141.3750 N   0  0  0  0  0  2  0  0  0  0  0  0
  184.1950  178.3390  142.4290 C   0  0  0  0  0  0  0  0  0  0  0  0
  182.2160  178.7680  141.8680 C   0  0  0  0  0  0  0  0  0  0  0  0
  183.5460  178.8850  143.4910 C   0  0  0  0  0  0  0  0  0  0  0  0
  185.5300  177.9500  142.4980 C   0  0  0  0  0  3  0  0  0  0  0  0
  184.1750  179.0930  144.7140 C   0  0  0  0  0  3  0  0  0  0  0  0
  190.0130  177.9190  143.4990 N   0  0  0  0  0  0  0  0  0  0  0  0
  189.8790  177.7670  141.0620 C   0  0  1  0  0  3  0  0  0  0  0  0
  190.7400  179.1190  143.9060 C   0  0  0  0  0  1  0  0  0  0  0  0
  188.6370  176.9170  140.8670 C   0  0  0  0  0  2  0  0  0  0  0  0
  188.6970  178.3900  143.0770 C   0  0  1  0  0  3  0  0  0  0  0  0
  192.1250  177.4310  142.1740 C   0  0  0  0  0  1  0  0  0  0  0  0
  188.1040  179.3400  140.8380 F   0  0  0  0  0  0  0  0  0  0  0  0
  188.5450  178.2540  141.5690 C   0  0  1  0  0  0  0  0  0  0  0  0
  190.6090  177.2960  142.3030 C   0  0  1  0  0  3  0  0  0  0  0  0
  187.9910  176.6630  144.7150 C   0  0  0  0  0  2  0  0  0  0  0  0
  189.0140  178.1130  148.5800 N   0  0  0  0  0  0  0  0  0  0  0  0
  188.3530  177.1910  146.0620 C   0  0  0  0  0  0  0  0  0  0  0  0
  187.3790  177.7850  146.8690 C   0  0  0  0  0  3  0  0  0  0  0  0
  187.7340  178.2470  148.1380 C   0  0  0  0  0  3  0  0  0  0  0  0
  189.9750  177.5320  147.8110 C   0  0  0  0  0  3  0  0  0  0  0  0
  189.6610  177.0570  146.5370 C   0  0  0  0  0  3  0  0  0  0  0  0
  1 21  1  0  0  0  0
  2  1  1  0  0  0  0
  2  5  1  0  0  0  0
  3  9  1  0  0  0  0
  4  8  1  0  0  0  0
  6  8  1  0  0  0  0
  6  7  1  0  0  0  0
  7 10  1  0  0  0  0
  7  9  2  0  0  0  0
  8  3  2  0  0  0  0
  9 11  1  0  0  0  0
 10  2  2  0  0  0  0
 11  5  2  0  0  0  0
 12 14  1  0  0  0  0
 13 15  1  6  0  0  0
 13 19  1  0  0  0  0
 13 20  1  0  0  0  0
 15 19  1  0  0  0  0
 16 12  1  0  0  0  0
 16  1  1  1  0  0  0
 19 18  1  6  0  0  0
 19 16  1  0  0  0  0
 20 17  1  6  0  0  0
 20 12  1  0  0  0  0
 21 23  1  0  0  0  0
 23 27  2  0  0  0  0
 23 24  1  0  0  0  0
 24 25  2  0  0  0  0
 25 22  1  0  0  0  0
 26 22  2  0  0  0  0
 27 26  1  0  0  0  0
M  END
>  <MODEL>
3

>  <REMARK>
 VINA RESULT:      -7.4      2.369      5.414
  Name = 
  4 active torsions:
  status: ('A' for Active; 'I' for Inactive)
    1  A    between atoms: N_1  and  C_2
    2  A    between atoms: N_1  and  C_15
    3  A    between atoms: N_1  and  C_18
    4  A    between atoms: C_9  and  C_15
                            x       y       z     vdW  Elec       q    Type
                         _______ _______ _______ _____ _____    ______ ____

>  <TORSDO>
F 4

$$$$
=
 OpenBabel11052413533D

 27 31  0  0  1  0  0  0  0  0999 V2000
  187.6140  177.5700  143.8090 N   0  0  0  0  0  0  0  0  0  0  0  0
  188.2870  177.5200  142.5300 C   0  0  0  0  0  0  0  0  0  0  0  0
  190.0050  177.5020  138.7980 N   0  0  0  0  0  0  0  0  0  0  0  0
  189.2210  178.8120  136.8240 C   0  0  0  0  0  1  0  0  0  0  0  0
  189.4250  176.6970  142.3330 C   0  0  0  0  0  3  0  0  0  0  0  0
  188.1660  178.8330  139.0850 N   0  0  0  0  0  2  0  0  0  0  0  0
  188.4630  178.1980  140.2280 C   0  0  0  0  0  0  0  0  0  0  0  0
  189.1310  178.3810  138.2430 C   0  0  0  0  0  0  0  0  0  0  0  0
  189.5560  177.4070  140.0560 C   0  0  0  0  0  0  0  0  0  0  0  0
  187.7960  178.2840  141.4460 C   0  0  0  0  0  3  0  0  0  0  0  0
  190.0760  176.6330  141.0880 C   0  0  0  0  0  3  0  0  0  0  0  0
  187.5020  177.7940  146.2300 N   0  0  0  0  0  0  0  0  0  0  0  0
  189.9260  177.7060  146.5390 C   0  0  1  0  0  3  0  0  0  0  0  0
  186.9430  178.9980  146.8390 C   0  0  0  0  0  1  0  0  0  0  0  0
  190.3610  176.8340  145.3750 C   0  0  0  0  0  2  0  0  0  0  0  0
  188.1430  178.2460  144.9990 C   0  0  1  0  0  3  0  0  0  0  0  0
  188.4360  177.3900  148.5570 C   0  0  0  0  0  1  0  0  0  0  0  0
  190.4300  179.2440  144.7910 F   0  0  0  0  0  0  0  0  0  0  0  0
  189.6570  178.1490  145.1230 C   0  0  1  0  0  0  0  0  0  0  0  0
  188.5850  177.2170  147.0470 C   0  0  1  0  0  3  0  0  0  0  0  0
  186.3340  176.8880  143.9750 C   0  0  0  0  0  2  0  0  0  0  0  0
  183.0910  179.4830  143.0580 N   0  0  0  0  0  0  0  0  0  0  0  0
  185.2100  177.8140  143.6500 C   0  0  0  0  0  0  0  0  0  0  0  0
  184.7770  177.9550  142.3290 C   0  0  0  0  0  3  0  0  0  0  0  0
  183.7050  178.8060  142.0500 C   0  0  0  0  0  3  0  0  0  0  0  0
  183.4950  179.3550  144.3510 C   0  0  0  0  0  3  0  0  0  0  0  0
  184.5620  178.5140  144.6710 C   0  0  0  0  0  3  0  0  0  0  0  0
  1 21  1  0  0  0  0
  2  1  1  0  0  0  0
  3  9  1  0  0  0  0
  4  8  1  0  0  0  0
  5  2  1  0  0  0  0
  6  7  1  0  0  0  0
  7 10  1  0  0  0  0
  8  3  2  0  0  0  0
  8  6  1  0  0  0  0
  9  7  2  0  0  0  0
  9 11  1  0  0  0  0
 10  2  2  0  0  0  0
 11  5  2  0  0  0  0
 12 14  1  0  0  0  0
 12 20  1  0  0  0  0
 13 15  1  6  0  0  0
 13 20  1  0  0  0  0
 16  1  1  6  0  0  0
 16 19  1  0  0  0  0
 16 12  1  0  0  0  0
 19 18  1  6  0  0  0
 19 15  1  0  0  0  0
 19 13  1  0  0  0  0
 20 17  1  1  0  0  0
 22 26  1  0  0  0  0
 23 21  1  0  0  0  0
 23 27  1  0  0  0  0
 24 23  2  0  0  0  0
 25 24  1  0  0  0  0
 25 22  2  0  0  0  0
 26 27  2  0  0  0  0
M  END
>  <MODEL>
4

>  <REMARK>
 VINA RESULT:      -7.3      1.547      2.272
  Name = 
  4 active torsions:
  status: ('A' for Active; 'I' for Inactive)
    1  A    between atoms: N_1  and  C_2
    2  A    between atoms: N_1  and  C_15
    3  A    between atoms: N_1  and  C_18
    4  A    between atoms: C_9  and  C_15
                            x       y       z     vdW  Elec       q    Type
                         _______ _______ _______ _____ _____    ______ ____

>  <TORSDO>
F 4

$$$$
=
 OpenBabel11052413533D

 27 31  0  0  1  0  0  0  0  0999 V2000
  189.4520  177.2040  141.2090 N   0  0  0  0  0  0  0  0  0  0  0  0
  188.1520  177.7410  141.5450 C   0  0  0  0  0  0  0  0  0  0  0  0
  184.4660  179.1320  142.7120 N   0  0  0  0  0  0  0  0  0  0  0  0
  183.4460  178.8430  144.9710 C   0  0  0  0  0  1  0  0  0  0  0  0
  187.3800  178.4450  140.5860 C   0  0  0  0  0  3  0  0  0  0  0  0
  185.6870  177.9920  144.2770 N   0  0  0  0  0  2  0  0  0  0  0  0
  186.3630  178.0640  143.1220 C   0  0  0  0  0  0  0  0  0  0  0  0
  184.5390  178.6550  143.9820 C   0  0  0  0  0  0  0  0  0  0  0  0
  185.6380  178.7410  142.1930 C   0  0  0  0  0  0  0  0  0  0  0  0
  187.6240  177.5460  142.8420 C   0  0  0  0  0  3  0  0  0  0  0  0
  186.1090  178.9570  140.9020 C   0  0  0  0  0  3  0  0  0  0  0  0
  191.3740  176.7190  139.7960 N   0  0  0  0  0  0  0  0  0  0  0  0
  190.1300  176.9490  137.7020 C   0  0  1  0  0  3  0  0  0  0  0  0
  192.5420  177.5960  139.8050 C   0  0  0  0  0  1  0  0  0  0  0  0
  188.7340  176.5220  138.1160 C   0  0  0  0  0  2  0  0  0  0  0  0
  190.2310  177.5980  140.0290 C   0  0  1  0  0  3  0  0  0  0  0  0
  192.4010  175.8390  137.6460 C   0  0  0  0  0  1  0  0  0  0  0  0
  189.0380  178.9760  138.3120 F   0  0  0  0  0  0  0  0  0  0  0  0
  189.3910  177.7200  138.7660 C   0  0  1  0  0  0  0  0  0  0  0  0
  191.1450  176.1230  138.4670 C   0  0  1  0  0  3  0  0  0  0  0  0
  190.0500  176.1800  142.0590 C   0  0  0  0  0  2  0  0  0  0  0  0
  191.8590  177.9910  145.4550 N   0  0  0  0  0  0  0  0  0  0  0  0
  190.7040  176.8090  143.2430 C   0  0  0  0  0  0  0  0  0  0  0  0
  191.1980  178.1130  143.1620 C   0  0  0  0  0  3  0  0  0  0  0  0
  191.7810  178.6920  144.2910 C   0  0  0  0  0  3  0  0  0  0  0  0
  191.3780  176.7230  145.5550 C   0  0  0  0  0  3  0  0  0  0  0  0
  190.7880  176.1080  144.4500 C   0  0  0  0  0  3  0  0  0  0  0  0
  1  2  1  0  0  0  0
  1 21  1  0  0  0  0
  2 10  1  0  0  0  0
  3  8  2  0  0  0  0
  5 11  1  0  0  0  0
  5  2  2  0  0  0  0
  7  6  1  0  0  0  0
  8  6  1  0  0  0  0
  8  4  1  0  0  0  0
  9  3  1  0  0  0  0
  9  7  1  0  0  0  0
 10  7  2  0  0  0  0
 11  9  2  0  0  0  0
 12 14  1  0  0  0  0
 12 16  1  0  0  0  0
 13 15  1  1  0  0  0
 13 20  1  0  0  0  0
 13 19  1  0  0  0  0
 15 19  1  0  0  0  0
 16  1  1  1  0  0  0
 19 18  1  6  0  0  0
 19 16  1  0  0  0  0
 20 17  1  6  0  0  0
 20 12  1  0  0  0  0
 21 23  1  0  0  0  0
 22 26  1  0  0  0  0
 23 27  1  0  0  0  0
 24 23  2  0  0  0  0
 24 25  1  0  0  0  0
 25 22  2  0  0  0  0
 27 26  2  0  0  0  0
M  END
>  <MODEL>
5

>  <REMARK>
 VINA RESULT:      -7.1      1.948      6.225
  Name = 
  4 active torsions:
  status: ('A' for Active; 'I' for Inactive)
    1  A    between atoms: N_1  and  C_2
    2  A    between atoms: N_1  and  C_15
    3  A    between atoms: N_1  and  C_18
    4  A    between atoms: C_9  and  C_15
                            x       y       z     vdW  Elec       q    Type
                         _______ _______ _______ _____ _____    ______ ____

>  <TORSDO>
F 4

$$$$
=
 OpenBabel11052413533D

 27 31  0  0  1  0  0  0  0  0999 V2000
  188.1120  177.4170  143.0390 N   0  0  0  0  0  0  0  0  0  0  0  0
  187.4160  177.8770  141.8570 C   0  0  0  0  0  0  0  0  0  0  0  0
  185.2300  179.1900  138.6360 N   0  0  0  0  0  0  0  0  0  0  0  0
  182.8990  180.0780  138.7190 C   0  0  0  0  0  1  0  0  0  0  0  0
  188.0290  177.8210  140.5790 C   0  0  0  0  0  3  0  0  0  0  0  0
  184.2140  179.2830  140.6850 N   0  0  0  0  0  2  0  0  0  0  0  0
  185.4550  178.7870  140.8020 C   0  0  0  0  0  0  0  0  0  0  0  0
  184.1210  179.5150  139.3500 C   0  0  0  0  0  0  0  0  0  0  0  0
  186.0570  178.7320  139.5850 C   0  0  0  0  0  0  0  0  0  0  0  0
  186.0950  178.3690  141.9650 C   0  0  0  0  0  3  0  0  0  0  0  0
  187.3520  178.2520  139.4240 C   0  0  0  0  0  3  0  0  0  0  0  0
  189.8180  177.6890  144.7530 N   0  0  0  0  0  0  0  0  0  0  0  0
  191.4360  176.2310  143.6410 C   0  0  1  0  0  3  0  0  0  0  0  0
  190.4000  179.0020  145.0200 C   0  0  0  0  0  1  0  0  0  0  0  0
  190.5310  175.2550  142.9100 C   0  0  0  0  0  2  0  0  0  0  0  0
  189.5280  177.6800  143.3220 C   0  0  1  0  0  3  0  0  0  0  0  0
  191.8260  176.8460  146.0610 C   0  0  0  0  0  1  0  0  0  0  0  0
  191.1460  177.1840  141.4770 F   0  0  0  0  0  0  0  0  0  0  0  0
  190.4730  176.7340  142.5960 C   0  0  1  0  0  0  0  0  0  0  0  0
  190.7950  176.6040  144.9610 C   0  0  1  0  0  3  0  0  0  0  0  0
  187.4000  176.6100  144.0260 C   0  0  0  0  0  2  0  0  0  0  0  0
  185.6750  179.0610  147.0430 N   0  0  0  0  0  0  0  0  0  0  0  0
  186.8070  177.4860  145.0770 C   0  0  0  0  0  0  0  0  0  0  0  0
  185.6790  178.2610  144.7920 C   0  0  0  0  0  3  0  0  0  0  0  0
  185.1240  179.0520  145.7990 C   0  0  0  0  0  3  0  0  0  0  0  0
  186.7690  178.3090  147.3420 C   0  0  0  0  0  3  0  0  0  0  0  0
  187.3540  177.5040  146.3630 C   0  0  0  0  0  3  0  0  0  0  0  0
  1 21  1  0  0  0  0
  2 10  1  0  0  0  0
  2  1  1  0  0  0  0
  3  8  2  0  0  0  0
  3  9  1  0  0  0  0
  4  8  1  0  0  0  0
  5  2  2  0  0  0  0
  6  7  1  0  0  0  0
  7 10  2  0  0  0  0
  8  6  1  0  0  0  0
  9  7  1  0  0  0  0
 11  9  2  0  0  0  0
 11  5  1  0  0  0  0
 12 20  1  0  0  0  0
 12 14  1  0  0  0  0
 13 15  1  1  0  0  0
 13 20  1  0  0  0  0
 16  1  1  1  0  0  0
 16 12  1  0  0  0  0
 19 18  1  6  0  0  0
 19 15  1  0  0  0  0
 19 16  1  0  0  0  0
 19 13  1  0  0  0  0
 20 17  1  1  0  0  0
 21 23  1  0  0  0  0
 22 26  1  0  0  0  0
 23 27  1  0  0  0  0
 24 23  2  0  0  0  0
 24 25  1  0  0  0  0
 25 22  2  0  0  0  0
 27 26  2  0  0  0  0
M  END
>  <MODEL>
6

>  <REMARK>
 VINA RESULT:      -7.0      2.423      3.503
  Name = 
  4 active torsions:
  status: ('A' for Active; 'I' for Inactive)
    1  A    between atoms: N_1  and  C_2
    2  A    between atoms: N_1  and  C_15
    3  A    between atoms: N_1  and  C_18
    4  A    between atoms: C_9  and  C_15
                            x       y       z     vdW  Elec       q    Type
                         _______ _______ _______ _____ _____    ______ ____

>  <TORSDO>
F 4

$$$$
=
 OpenBabel11052413533D

 27 31  0  0  1  0  0  0  0  0999 V2000
  187.3180  177.8490  144.1290 N   0  0  0  0  0  0  0  0  0  0  0  0
  188.5370  177.7900  143.3540 C   0  0  0  0  0  0  0  0  0  0  0  0
  191.8810  177.4740  140.9870 N   0  0  0  0  0  0  0  0  0  0  0  0
  191.9510  176.5260  138.6790 C   0  0  0  0  0  1  0  0  0  0  0  0
  189.7680  178.2540  143.8860 C   0  0  0  0  0  3  0  0  0  0  0  0
  189.9120  176.7110  140.1050 N   0  0  0  0  0  2  0  0  0  0  0  0
  189.7140  177.1870  141.3430 C   0  0  0  0  0  0  0  0  0  0  0  0
  191.2440  176.9070  139.9300 C   0  0  0  0  0  0  0  0  0  0  0  0
  190.8840  177.6410  141.8660 C   0  0  0  0  0  0  0  0  0  0  0  0
  188.5170  177.2410  142.0510 C   0  0  0  0  0  3  0  0  0  0  0  0
  190.9600  178.1850  143.1430 C   0  0  0  0  0  3  0  0  0  0  0  0
  185.3730  178.4240  142.7850 N   0  0  0  0  0  0  0  0  0  0  0  0
  183.9630  178.9550  144.7110 C   0  0  1  0  0  3  0  0  0  0  0  0
  185.4200  179.5460  141.8500 C   0  0  0  0  0  1  0  0  0  0  0  0
  184.5270  178.0350  145.7790 C   0  0  0  0  0  2  0  0  0  0  0  0
  186.2350  178.8110  143.8970 C   0  0  1  0  0  3  0  0  0  0  0  0
  182.8610  178.6250  142.4600 C   0  0  0  0  0  1  0  0  0  0  0  0
  185.6030  180.2690  145.8320 F   0  0  0  0  0  0  0  0  0  0  0  0
  185.4020  179.0920  145.1400 C   0  0  1  0  0  0  0  0  0  0  0  0
  184.0300  178.2540  143.3700 C   0  0  1  0  0  3  0  0  0  0  0  0
  187.1280  176.9270  145.2440 C   0  0  0  0  0  2  0  0  0  0  0  0
  189.6570  177.9370  148.5110 N   0  0  0  0  0  0  0  0  0  0  0  0
  188.0200  177.2990  146.3800 C   0  0  0  0  0  0  0  0  0  0  0  0
  187.5330  178.0870  147.4260 C   0  0  0  0  0  3  0  0  0  0  0  0
  188.3780  178.4000  148.4930 C   0  0  0  0  0  3  0  0  0  0  0  0
  190.1470  177.1640  147.5050 C   0  0  0  0  0  3  0  0  0  0  0  0
  189.3350  176.8280  146.4200 C   0  0  0  0  0  3  0  0  0  0  0  0
  1 21  1  0  0  0  0
  2  5  1  0  0  0  0
  2  1  1  0  0  0  0
  3  9  1  0  0  0  0
  4  8  1  0  0  0  0
  6  7  1  0  0  0  0
  7  9  2  0  0  0  0
  7 10  1  0  0  0  0
  8  6  1  0  0  0  0
  8  3  2  0  0  0  0
  9 11  1  0  0  0  0
 10  2  2  0  0  0  0
 11  5  2  0  0  0  0
 12 20  1  0  0  0  0
 12 16  1  0  0  0  0
 13 19  1  0  0  0  0
 13 15  1  1  0  0  0
 14 12  1  0  0  0  0
 16  1  1  1  0  0  0
 16 19  1  0  0  0  0
 19 15  1  0  0  0  0
 19 18  1  1  0  0  0
 20 17  1  6  0  0  0
 20 13  1  0  0  0  0
 21 23  1  0  0  0  0
 23 27  2  0  0  0  0
 23 24  1  0  0  0  0
 24 25  2  0  0  0  0
 25 22  1  0  0  0  0
 26 22  2  0  0  0  0
 27 26  1  0  0  0  0
M  END
>  <MODEL>
7

>  <REMARK>
 VINA RESULT:      -7.0      1.929      4.847
  Name = 
  4 active torsions:
  status: ('A' for Active; 'I' for Inactive)
    1  A    between atoms: N_1  and  C_2
    2  A    between atoms: N_1  and  C_15
    3  A    between atoms: N_1  and  C_18
    4  A    between atoms: C_9  and  C_15
                            x       y       z     vdW  Elec       q    Type
                         _______ _______ _______ _____ _____    ______ ____

>  <TORSDO>
F 4

$$$$
=
 OpenBabel11052413533D

 27 31  0  0  1  0  0  0  0  0999 V2000
  187.4100  177.7680  143.4240 N   0  0  0  0  0  0  0  0  0  0  0  0
  186.0610  178.1030  143.0260 C   0  0  0  0  0  0  0  0  0  0  0  0
  182.1530  179.0030  142.1300 N   0  0  0  0  0  0  0  0  0  0  0  0
  180.3040  179.2780  143.7830 C   0  0  0  0  0  1  0  0  0  0  0  0
  185.7200  178.2700  141.6600 C   0  0  0  0  0  3  0  0  0  0  0  0
  182.6730  178.7310  144.3430 N   0  0  0  0  0  2  0  0  0  0  0  0
  183.7640  178.5530  143.5830 C   0  0  0  0  0  0  0  0  0  0  0  0
  181.7170  179.0030  143.4170 C   0  0  0  0  0  0  0  0  0  0  0  0
  183.4550  178.7150  142.2700 C   0  0  0  0  0  0  0  0  0  0  0  0
  185.0530  178.2450  144.0080 C   0  0  0  0  0  3  0  0  0  0  0  0
  184.4070  178.5810  141.2650 C   0  0  0  0  0  3  0  0  0  0  0  0
  189.8430  177.8400  143.4390 N   0  0  0  0  0  0  0  0  0  0  0  0
  190.0490  177.7320  141.0040 C   0  0  1  0  0  3  0  0  0  0  0  0
  190.5480  179.0050  143.9680 C   0  0  0  0  0  1  0  0  0  0  0  0
  188.8170  176.9340  140.6180 C   0  0  0  0  0  2  0  0  0  0  0  0
  188.6180  178.3680  142.8450 C   0  0  1  0  0  3  0  0  0  0  0  0
  192.1020  177.2920  142.4130 C   0  0  0  0  0  1  0  0  0  0  0  0
  188.3820  179.3760  140.5650 F   0  0  0  0  0  0  0  0  0  0  0  0
  188.6760  178.2630  141.3280 C   0  0  1  0  0  0  0  0  0  0  0  0
  190.5790  177.2130  142.3250 C   0  0  1  0  0  3  0  0  0  0  0  0
  187.6280  176.7480  144.4450 C   0  0  0  0  0  2  0  0  0  0  0  0
  187.9860  178.5040  148.3010 N   0  0  0  0  0  0  0  0  0  0  0  0
  187.7590  177.3820  145.7890 C   0  0  0  0  0  0  0  0  0  0  0  0
  186.6770  178.0650  146.3510 C   0  0  0  0  0  3  0  0  0  0  0  0
  186.8130  178.6280  147.6220 C   0  0  0  0  0  3  0  0  0  0  0  0
  189.0470  177.8380  147.7730 C   0  0  0  0  0  3  0  0  0  0  0  0
  188.9520  177.2610  146.5060 C   0  0  0  0  0  3  0  0  0  0  0  0
  1 21  1  0  0  0  0
  2  1  1  0  0  0  0
  2 10  1  0  0  0  0
  3  9  1  0  0  0  0
  3  8  2  0  0  0  0
  5  2  2  0  0  0  0
  7 10  2  0  0  0  0
  7  6  1  0  0  0  0
  8  4  1  0  0  0  0
  8  6  1  0  0  0  0
  9  7  1  0  0  0  0
 11  5  1  0  0  0  0
 11  9  2  0  0  0  0
 12 14  1  0  0  0  0
 13 15  1  6  0  0  0
 13 19  1  0  0  0  0
 13 20  1  0  0  0  0
 15 19  1  0  0  0  0
 16  1  1  1  0  0  0
 16 12  1  0  0  0  0
 19 18  1  6  0  0  0
 19 16  1  0  0  0  0
 20 17  1  1  0  0  0
 20 12  1  0  0  0  0
 21 23  1  0  0  0  0
 23 24  2  0  0  0  0
 23 27  1  0  0  0  0
 24 25  1  0  0  0  0
 25 22  2  0  0  0  0
 26 22  1  0  0  0  0
 27 26  2  0  0  0  0
M  END
>  <MODEL>
8

>  <REMARK>
 VINA RESULT:      -6.9      2.338      5.518
  Name = 
  4 active torsions:
  status: ('A' for Active; 'I' for Inactive)
    1  A    between atoms: N_1  and  C_2
    2  A    between atoms: N_1  and  C_15
    3  A    between atoms: N_1  and  C_18
    4  A    between atoms: C_9  and  C_15
                            x       y       z     vdW  Elec       q    Type
                         _______ _______ _______ _____ _____    ______ ____

>  <TORSDO>
F 4

$$$$
=
 OpenBabel11052413533D

 27 31  0  0  1  0  0  0  0  0999 V2000
  189.4170  177.6880  143.9150 N   0  0  0  0  0  0  0  0  0  0  0  0
  189.4170  177.6930  142.4690 C   0  0  0  0  0  0  0  0  0  0  0  0
  189.6110  177.5500  138.3670 N   0  0  0  0  0  0  0  0  0  0  0  0
  190.9530  175.9280  137.0260 C   0  0  0  0  0  1  0  0  0  0  0  0
  188.6620  178.6470  141.7400 C   0  0  0  0  0  3  0  0  0  0  0  0
  190.8450  176.0030  139.5180 N   0  0  0  0  0  2  0  0  0  0  0  0
  190.1840  176.7980  140.3710 C   0  0  0  0  0  0  0  0  0  0  0  0
  190.4670  176.4960  138.3100 C   0  0  0  0  0  0  0  0  0  0  0  0
  189.4500  177.7160  139.6870 C   0  0  0  0  0  0  0  0  0  0  0  0
  190.1980  176.7500  141.7620 C   0  0  0  0  0  3  0  0  0  0  0  0
  188.6700  178.6680  140.3340 C   0  0  0  0  0  3  0  0  0  0  0  0
  187.9340  178.2280  145.7680 N   0  0  0  0  0  0  0  0  0  0  0  0
  185.8980  177.5900  144.5720 C   0  0  1  0  0  3  0  0  0  0  0  0
  188.0380  177.5110  147.0360 C   0  0  0  0  0  1  0  0  0  0  0  0
  186.2720  177.8890  143.1310 C   0  0  0  0  0  2  0  0  0  0  0  0
  188.2860  177.2510  144.7420 C   0  0  1  0  0  3  0  0  0  0  0  0
  185.6800  178.9560  146.6880 C   0  0  0  0  0  1  0  0  0  0  0  0
  186.7650  175.5340  143.7360 F   0  0  0  0  0  0  0  0  0  0  0  0
  187.0560  176.8700  143.9290 C   0  0  1  0  0  0  0  0  0  0  0  0
  186.5440  178.6220  145.4730 C   0  0  1  0  0  3  0  0  0  0  0  0
  190.5900  178.1690  144.6370 C   0  0  0  0  0  2  0  0  0  0  0  0
  192.4320  174.9240  146.6780 N   0  0  0  0  0  0  0  0  0  0  0  0
  191.2550  177.0400  145.3520 C   0  0  0  0  0  0  0  0  0  0  0  0
  191.4150  177.0850  146.7390 C   0  0  0  0  0  3  0  0  0  0  0  0
  192.0150  176.0050  147.3900 C   0  0  0  0  0  3  0  0  0  0  0  0
  192.2790  174.8590  145.3280 C   0  0  0  0  0  3  0  0  0  0  0  0
  191.6840  175.9180  144.6390 C   0  0  0  0  0  3  0  0  0  0  0  0
  1 21  1  0  0  0  0
  2  1  1  0  0  0  0
  3  9  1  0  0  0  0
  4  8  1  0  0  0  0
  5  2  2  0  0  0  0
  6  7  1  0  0  0  0
  7 10  2  0  0  0  0
  8  3  2  0  0  0  0
  8  6  1  0  0  0  0
  9 11  2  0  0  0  0
  9  7  1  0  0  0  0
 10  2  1  0  0  0  0
 11  5  1  0  0  0  0
 12 14  1  0  0  0  0
 13 15  1  6  0  0  0
 13 20  1  0  0  0  0
 15 19  1  0  0  0  0
 16  1  1  6  0  0  0
 16 12  1  0  0  0  0
 19 18  1  6  0  0  0
 19 13  1  0  0  0  0
 19 16  1  0  0  0  0
 20 12  1  0  0  0  0
 20 17  1  1  0  0  0
 21 23  1  0  0  0  0
 22 25  1  0  0  0  0
 23 24  1  0  0  0  0
 24 25  2  0  0  0  0
 26 22  2  0  0  0  0
 27 26  1  0  0  0  0
 27 23  2  0  0  0  0
M  END
>  <MODEL>
9

>  <REMARK>
 VINA RESULT:      -6.9      1.638      4.497
  Name = 
  4 active torsions:
  status: ('A' for Active; 'I' for Inactive)
    1  A    between atoms: N_1  and  C_2
    2  A    between atoms: N_1  and  C_15
    3  A    between atoms: N_1  and  C_18
    4  A    between atoms: C_9  and  C_15
                            x       y       z     vdW  Elec       q    Type
                         _______ _______ _______ _____ _____    ______ ____

>  <TORSDO>
F 4

$$$$
