=
 OpenBabel11052413543D

 27 30  0  0  1  0  0  0  0  0999 V2000
  184.5080  178.8500  141.1430 C   0  0  2  0  0  3  0  0  0  0  0  0
  185.7840  179.0420  140.5530 O   0  0  0  0  0  0  0  0  0  0  0  0
  186.1360  178.8800  142.6830 C   0  0  2  0  0  3  0  0  0  0  0  0
  184.6690  179.1610  144.9780 C   0  0  1  0  0  3  0  0  0  0  0  0
  183.8160  179.0520  146.0780 O   0  0  0  0  0  1  0  0  0  0  0  0
  184.7450  178.4200  142.5510 C   0  0  1  0  0  3  0  0  0  0  0  0
  186.7030  178.6320  141.4340 O   0  0  0  0  0  0  0  0  0  0  0  0
  185.8240  178.1390  145.0890 C   0  0  0  0  0  2  0  0  0  0  0  0
  182.7110  178.3370  143.7870 O   0  0  0  0  0  1  0  0  0  0  0  0
  183.8870  179.0740  143.6350 C   0  0  1  0  0  3  0  0  0  0  0  0
  186.7980  178.1900  143.8870 C   0  0  1  0  0  3  0  0  0  0  0  0
  187.2610  176.7730  143.5640 C   0  0  0  0  0  2  0  0  0  0  0  0
  190.2770  178.5260  143.7330 C   0  0  0  0  0  2  0  0  0  0  0  0
  191.4360  177.5950  143.3440 C   0  0  0  0  0  2  0  0  0  0  0  0
  191.0220  176.1260  143.1940 C   0  0  0  0  0  2  0  0  0  0  0  0
  188.6900  176.5480  144.0320 C   0  0  1  0  0  3  0  0  0  0  0  0
  189.5380  175.9920  142.8790 C   0  0  0  0  0  2  0  0  0  0  0  0
  189.2490  177.8420  144.6460 C   0  0  1  0  0  3  0  0  0  0  0  0
  188.7290  177.2150  147.0130 C   0  0  0  0  0  1  0  0  0  0  0  0
  189.8300  177.5470  146.0230 C   0  0  0  0  0  2  0  0  0  0  0  0
  183.6930  177.8140  140.3650 C   0  0  0  0  0  2  0  0  0  0  0  0
  179.5120  178.6780  140.4220 C   0  0  0  0  0  3  0  0  0  0  0  0
  182.2270  178.1100  140.3660 C   0  0  0  0  0  0  0  0  0  0  0  0
  181.3050  177.0750  140.1840 C   0  0  0  0  0  3  0  0  0  0  0  0
  179.9410  177.3670  140.2100 C   0  0  0  0  0  3  0  0  0  0  0  0
  180.4630  179.6840  140.6060 C   0  0  0  0  0  3  0  0  0  0  0  0
  181.7880  179.3830  140.5750 N   0  0  0  0  0  0  0  0  0  0  0  0
  1 21  1  6  0  0  0
  1  6  1  0  0  0  0
  2  1  1  0  0  0  0
  2  7  1  0  0  0  0
  3  7  1  6  0  0  0
  3 11  1  0  0  0  0
  4  8  1  0  0  0  0
  4  5  1  1  0  0  0
  6  3  1  0  0  0  0
  6 10  1  0  0  0  0
 10  9  1  0  0  0  0
 10  4  1  0  0  0  0
 11  8  1  0  0  0  0
 12 11  1  0  0  0  0
 12 16  1  0  0  0  0
 13 18  1  0  0  0  0
 14 13  1  0  0  0  0
 15 14  1  0  0  0  0
 16 18  1  0  0  0  0
 17 15  1  0  0  0  0
 17 16  1  0  0  0  0
 18 20  1  0  0  0  0
 20 19  1  0  0  0  0
 21 23  1  0  0  0  0
 22 26  1  0  0  0  0
 23 27  1  0  0  0  0
 24 25  1  0  0  0  0
 24 23  2  0  0  0  0
 25 22  2  0  0  0  0
 27 26  2  0  0  0  0
M  END
>  <MODEL>
1

>  <REMARK>
 VINA RESULT:      -8.6      0.000      0.000
  Name = 
  5 active torsions:
  status: ('A' for Active; 'I' for Inactive)
    1  A    between atoms: C_1  and  C_15
    2  A    between atoms: C_9  and  C_15
    3  A    between atoms: C_12  and  C_14
    4  A    between atoms: C_12  and  C_26
    5  A    between atoms: C_17  and  C_21
                            x       y       z     vdW  Elec       q    Type
                         _______ _______ _______ _____ _____    ______ ____

>  <TORSDO>
F 5

$$$$
=
 OpenBabel11052413543D

 27 30  0  0  1  0  0  0  0  0999 V2000
  190.1510  176.4300  142.8970 C   0  0  2  0  0  3  0  0  0  0  0  0
  188.8840  175.9300  142.5020 O   0  0  0  0  0  0  0  0  0  0  0  0
  188.6860  176.4540  144.5930 C   0  0  2  0  0  3  0  0  0  0  0  0
  190.3630  176.8640  146.7190 C   0  0  1  0  0  3  0  0  0  0  0  0
  191.2720  177.3190  147.6760 O   0  0  0  0  0  1  0  0  0  0  0  0
  189.9600  177.0890  144.2220 C   0  0  1  0  0  3  0  0  0  0  0  0
  187.9840  176.3590  143.3930 O   0  0  0  0  0  0  0  0  0  0  0  0
  189.0620  177.6960  146.7730 C   0  0  0  0  0  2  0  0  0  0  0  0
  192.0430  177.7270  145.1830 O   0  0  0  0  0  1  0  0  0  0  0  0
  191.0040  176.8020  145.3010 C   0  0  1  0  0  3  0  0  0  0  0  0
  188.0150  177.2590  145.7190 C   0  0  1  0  0  3  0  0  0  0  0  0
  187.2880  178.4950  145.1990 C   0  0  0  0  0  2  0  0  0  0  0  0
  184.5550  180.0430  143.6710 C   0  0  0  0  0  2  0  0  0  0  0  0
  183.2620  179.6340  144.3940 C   0  0  0  0  0  2  0  0  0  0  0  0
  183.4610  178.5210  145.4300 C   0  0  0  0  0  2  0  0  0  0  0  0
  185.8640  178.1560  144.7890 C   0  0  1  0  0  3  0  0  0  0  0  0
  184.8970  178.4780  145.9370 C   0  0  0  0  0  2  0  0  0  0  0  0
  185.5190  178.8640  143.4690 C   0  0  1  0  0  3  0  0  0  0  0  0
  184.6230  178.5220  141.1560 C   0  0  0  0  0  1  0  0  0  0  0  0
  184.9640  177.8520  142.4740 C   0  0  0  0  0  2  0  0  0  0  0  0
  190.7070  177.4040  141.8570 C   0  0  0  0  0  2  0  0  0  0  0  0
  188.9340  176.9650  137.9980 C   0  0  0  0  0  3  0  0  0  0  0  0
  190.0690  177.2460  140.5130 C   0  0  0  0  0  0  0  0  0  0  0  0
  188.9940  178.0610  140.1510 C   0  0  0  0  0  3  0  0  0  0  0  0
  188.4240  177.9140  138.8850 C   0  0  0  0  0  3  0  0  0  0  0  0
  190.0130  176.1730  138.3940 C   0  0  0  0  0  3  0  0  0  0  0  0
  190.5540  176.3280  139.6310 N   0  0  0  0  0  0  0  0  0  0  0  0
  1 21  1  6  0  0  0
  1  6  1  0  0  0  0
  2  1  1  0  0  0  0
  2  7  1  0  0  0  0
  3  7  1  6  0  0  0
  3 11  1  0  0  0  0
  4  8  1  0  0  0  0
  4  5  1  1  0  0  0
  6  3  1  0  0  0  0
  6 10  1  0  0  0  0
  9 10  1  0  0  0  0
 10  4  1  0  0  0  0
 11  8  1  0  0  0  0
 12 11  1  0  0  0  0
 13 14  1  0  0  0  0
 14 15  1  0  0  0  0
 15 17  1  0  0  0  0
 16 12  1  0  0  0  0
 16 17  1  0  0  0  0
 18 13  1  0  0  0  0
 18 16  1  0  0  0  0
 19 20  1  0  0  0  0
 20 18  1  0  0  0  0
 22 26  2  0  0  0  0
 22 25  1  0  0  0  0
 23 21  1  0  0  0  0
 24 23  1  0  0  0  0
 25 24  2  0  0  0  0
 26 27  1  0  0  0  0
 27 23  2  0  0  0  0
M  END
>  <MODEL>
2

>  <REMARK>
 VINA RESULT:      -7.8      3.454      6.850
  Name = 
  5 active torsions:
  status: ('A' for Active; 'I' for Inactive)
    1  A    between atoms: C_1  and  C_15
    2  A    between atoms: C_9  and  C_15
    3  A    between atoms: C_12  and  C_14
    4  A    between atoms: C_12  and  C_26
    5  A    between atoms: C_17  and  C_21
                            x       y       z     vdW  Elec       q    Type
                         _______ _______ _______ _____ _____    ______ ____

>  <TORSDO>
F 5

$$$$
=
 OpenBabel11052413543D

 27 30  0  0  1  0  0  0  0  0999 V2000
  186.7540  178.6580  139.4190 C   0  0  2  0  0  3  0  0  0  0  0  0
  188.1540  178.8000  139.5930 O   0  0  0  0  0  0  0  0  0  0  0  0
  187.3150  178.7220  141.5870 C   0  0  2  0  0  3  0  0  0  0  0  0
  184.8650  179.1300  142.7420 C   0  0  1  0  0  3  0  0  0  0  0  0
  183.5550  179.0850  143.2220 O   0  0  0  0  0  1  0  0  0  0  0  0
  186.1890  178.2840  140.7480 C   0  0  1  0  0  3  0  0  0  0  0  0
  188.4480  178.4100  140.8390 O   0  0  0  0  0  0  0  0  0  0  0  0
  185.7440  178.0910  143.4770 C   0  0  0  0  0  2  0  0  0  0  0  0
  183.8080  178.2950  140.7140 O   0  0  0  0  0  1  0  0  0  0  0  0
  184.9140  179.0010  141.1910 C   0  0  1  0  0  3  0  0  0  0  0  0
  187.2090  178.0710  142.9770 C   0  0  1  0  0  3  0  0  0  0  0  0
  187.7160  176.6330  142.9860 C   0  0  0  0  0  2  0  0  0  0  0  0
  190.4730  178.5760  143.8970 C   0  0  0  0  0  2  0  0  0  0  0  0
  191.7440  177.7130  143.8640 C   0  0  0  0  0  2  0  0  0  0  0  0
  191.4680  176.2190  143.6590 C   0  0  0  0  0  2  0  0  0  0  0  0
  188.9770  176.5070  143.8270 C   0  0  1  0  0  3  0  0  0  0  0  0
  190.1330  175.9850  142.9630 C   0  0  0  0  0  2  0  0  0  0  0  0
  189.2760  177.8450  144.5240 C   0  0  1  0  0  3  0  0  0  0  0  0
  188.1480  177.5240  146.7350 C   0  0  0  0  0  1  0  0  0  0  0  0
  189.4810  177.6110  146.0150 C   0  0  0  0  0  2  0  0  0  0  0  0
  186.4360  177.6070  138.3530 C   0  0  0  0  0  2  0  0  0  0  0  0
  189.8590  176.5920  136.0120 C   0  0  0  0  0  3  0  0  0  0  0  0
  187.6240  177.2500  137.5170 C   0  0  0  0  0  0  0  0  0  0  0  0
  188.0010  178.0730  136.4520 C   0  0  0  0  0  3  0  0  0  0  0  0
  189.1240  177.7360  135.6960 C   0  0  0  0  0  3  0  0  0  0  0  0
  189.4560  175.7980  137.0870 C   0  0  0  0  0  3  0  0  0  0  0  0
  188.3570  176.1400  137.8110 N   0  0  0  0  0  0  0  0  0  0  0  0
  1 21  1  6  0  0  0
  1  2  1  0  0  0  0
  1  6  1  0  0  0  0
  2  7  1  0  0  0  0
  3  7  1  6  0  0  0
  3 11  1  0  0  0  0
  4  5  1  1  0  0  0
  4  8  1  0  0  0  0
  6 10  1  0  0  0  0
  6  3  1  0  0  0  0
  9 10  1  0  0  0  0
 10  4  1  0  0  0  0
 11 12  1  0  0  0  0
 11  8  1  0  0  0  0
 12 16  1  0  0  0  0
 13 18  1  0  0  0  0
 14 13  1  0  0  0  0
 15 14  1  0  0  0  0
 16 18  1  0  0  0  0
 17 15  1  0  0  0  0
 17 16  1  0  0  0  0
 18 20  1  0  0  0  0
 20 19  1  0  0  0  0
 22 26  1  0  0  0  0
 23 27  1  0  0  0  0
 23 21  1  0  0  0  0
 24 23  2  0  0  0  0
 25 22  2  0  0  0  0
 25 24  1  0  0  0  0
 26 27  2  0  0  0  0
M  END
>  <MODEL>
3

>  <REMARK>
 VINA RESULT:      -7.6      3.322      4.627
  Name = 
  5 active torsions:
  status: ('A' for Active; 'I' for Inactive)
    1  A    between atoms: C_1  and  C_15
    2  A    between atoms: C_9  and  C_15
    3  A    between atoms: C_12  and  C_14
    4  A    between atoms: C_12  and  C_26
    5  A    between atoms: C_17  and  C_21
                            x       y       z     vdW  Elec       q    Type
                         _______ _______ _______ _____ _____    ______ ____

>  <TORSDO>
F 5

$$$$
=
 OpenBabel11052413543D

 27 30  0  0  1  0  0  0  0  0999 V2000
  185.6610  178.7710  145.2400 C   0  0  2  0  0  3  0  0  0  0  0  0
  184.6100  179.4600  145.8960 O   0  0  0  0  0  0  0  0  0  0  0  0
  184.1130  179.4930  143.7900 C   0  0  2  0  0  3  0  0  0  0  0  0
  185.4460  179.1870  141.4170 C   0  0  1  0  0  3  0  0  0  0  0  0
  186.1210  178.7570  140.2730 O   0  0  0  0  0  1  0  0  0  0  0  0
  185.1970  178.5000  143.8490 C   0  0  1  0  0  3  0  0  0  0  0  0
  183.5600  179.4780  145.0690 O   0  0  0  0  0  0  0  0  0  0  0  0
  183.9690  178.7310  141.3740 C   0  0  0  0  0  2  0  0  0  0  0  0
  186.9510  177.6120  142.5050 O   0  0  0  0  0  1  0  0  0  0  0  0
  186.1910  178.7640  142.7170 C   0  0  1  0  0  3  0  0  0  0  0  0
  183.1650  179.1560  142.6270 C   0  0  1  0  0  3  0  0  0  0  0  0
  182.1780  178.0490  142.9820 C   0  0  0  0  0  2  0  0  0  0  0  0
  180.4400  179.5050  140.3240 C   0  0  0  0  0  2  0  0  0  0  0  0
  179.4070  180.5030  140.8710 C   0  0  0  0  0  2  0  0  0  0  0  0
  179.2500  180.4540  142.3960 C   0  0  0  0  0  2  0  0  0  0  0  0
  180.7560  178.4550  142.6320 C   0  0  1  0  0  3  0  0  0  0  0  0
  180.5000  179.9030  143.0700 C   0  0  0  0  0  2  0  0  0  0  0  0
  180.4930  178.2020  141.1380 C   0  0  1  0  0  3  0  0  0  0  0  0
  179.5400  175.9150  140.7860 C   0  0  0  0  0  1  0  0  0  0  0  0
  179.2180  177.3860  140.9720 C   0  0  0  0  0  2  0  0  0  0  0  0
  186.0190  177.4790  145.9780 C   0  0  0  0  0  2  0  0  0  0  0  0
  189.8970  177.5560  147.7620 C   0  0  0  0  0  3  0  0  0  0  0  0
  187.3760  177.5260  146.6060 C   0  0  0  0  0  0  0  0  0  0  0  0
  187.5180  177.9460  147.9310 C   0  0  0  0  0  3  0  0  0  0  0  0
  188.7890  177.9620  148.5070 C   0  0  0  0  0  3  0  0  0  0  0  0
  189.7140  177.1370  146.4430 C   0  0  0  0  0  3  0  0  0  0  0  0
  188.4690  177.1300  145.8970 N   0  0  0  0  0  0  0  0  0  0  0  0
  1  2  1  0  0  0  0
  1 21  1  1  0  0  0
  3  6  1  0  0  0  0
  3  7  1  1  0  0  0
  4  5  1  6  0  0  0
  4 10  1  0  0  0  0
  6  1  1  0  0  0  0
  7  2  1  0  0  0  0
  8  4  1  0  0  0  0
  8 11  1  0  0  0  0
  9 10  1  0  0  0  0
 10  6  1  0  0  0  0
 11 12  1  0  0  0  0
 11  3  1  0  0  0  0
 13 14  1  0  0  0  0
 13 18  1  0  0  0  0
 14 15  1  0  0  0  0
 15 17  1  0  0  0  0
 16 12  1  0  0  0  0
 16 17  1  0  0  0  0
 18 16  1  0  0  0  0
 19 20  1  0  0  0  0
 20 18  1  0  0  0  0
 21 23  1  0  0  0  0
 22 25  1  0  0  0  0
 23 24  1  0  0  0  0
 24 25  2  0  0  0  0
 26 22  2  0  0  0  0
 27 26  1  0  0  0  0
 27 23  2  0  0  0  0
M  END
>  <MODEL>
4

>  <REMARK>
 VINA RESULT:      -7.5      2.511      8.346
  Name = 
  5 active torsions:
  status: ('A' for Active; 'I' for Inactive)
    1  A    between atoms: C_1  and  C_15
    2  A    between atoms: C_9  and  C_15
    3  A    between atoms: C_12  and  C_14
    4  A    between atoms: C_12  and  C_26
    5  A    between atoms: C_17  and  C_21
                            x       y       z     vdW  Elec       q    Type
                         _______ _______ _______ _____ _____    ______ ____

>  <TORSDO>
F 5

$$$$
=
 OpenBabel11052413543D

 27 30  0  0  1  0  0  0  0  0999 V2000
  188.5210  177.7960  142.1450 C   0  0  2  0  0  3  0  0  0  0  0  0
  187.5140  178.3390  141.3080 O   0  0  0  0  0  0  0  0  0  0  0  0
  189.2030  177.9370  140.0150 C   0  0  2  0  0  3  0  0  0  0  0  0
  191.8990  177.5540  140.3090 C   0  0  1  0  0  3  0  0  0  0  0  0
  193.1980  177.1030  140.5530 O   0  0  0  0  0  1  0  0  0  0  0  0
  189.5630  177.2190  141.2480 C   0  0  1  0  0  3  0  0  0  0  0  0
  187.8110  178.0050  140.0480 O   0  0  0  0  0  0  0  0  0  0  0  0
  191.2800  176.7930  139.1140 C   0  0  0  0  0  2  0  0  0  0  0  0
  191.4810  176.5250  142.4760 O   0  0  0  0  0  1  0  0  0  0  0  0
  191.0240  177.5070  141.5960 C   0  0  1  0  0  3  0  0  0  0  0  0
  189.8280  177.2280  138.8010 C   0  0  1  0  0  3  0  0  0  0  0  0
  189.0270  176.0060  138.3650 C   0  0  0  0  0  2  0  0  0  0  0  0
  187.4730  178.4350  136.3930 C   0  0  0  0  0  2  0  0  0  0  0  0
  186.3930  177.7750  135.5210 C   0  0  0  0  0  2  0  0  0  0  0  0
  186.4120  176.2430  135.5710 C   0  0  0  0  0  2  0  0  0  0  0  0
  188.5180  176.1690  136.9420 C   0  0  1  0  0  3  0  0  0  0  0  0
  187.0490  175.7320  136.8570 C   0  0  0  0  0  2  0  0  0  0  0  0
  188.7660  177.6080  136.4600 C   0  0  1  0  0  3  0  0  0  0  0  0
  190.3230  176.3250  134.9780 C   0  0  0  0  0  1  0  0  0  0  0  0
  189.4850  177.5820  135.1170 C   0  0  0  0  0  2  0  0  0  0  0  0
  187.9420  176.7410  143.0900 C   0  0  0  0  0  2  0  0  0  0  0  0
  188.4140  177.7250  147.2190 C   0  0  0  0  0  3  0  0  0  0  0  0
  188.1010  177.1040  144.5330 C   0  0  0  0  0  0  0  0  0  0  0  0
  186.9920  177.5200  145.2750 C   0  0  0  0  0  3  0  0  0  0  0  0
  187.1550  177.8350  146.6250 C   0  0  0  0  0  3  0  0  0  0  0  0
  189.4970  177.3000  146.4460 C   0  0  0  0  0  3  0  0  0  0  0  0
  189.3200  177.0010  145.1320 N   0  0  0  0  0  0  0  0  0  0  0  0
  1 21  1  1  0  0  0
  2  1  1  0  0  0  0
  3  7  1  6  0  0  0
  3  6  1  0  0  0  0
  4  5  1  1  0  0  0
  4 10  1  0  0  0  0
  6 10  1  0  0  0  0
  6  1  1  0  0  0  0
  7  2  1  0  0  0  0
  8  4  1  0  0  0  0
 10  9  1  0  0  0  0
 11  8  1  0  0  0  0
 11  3  1  0  0  0  0
 12 11  1  0  0  0  0
 13 18  1  0  0  0  0
 14 15  1  0  0  0  0
 14 13  1  0  0  0  0
 15 17  1  0  0  0  0
 16 12  1  0  0  0  0
 17 16  1  0  0  0  0
 18 16  1  0  0  0  0
 19 20  1  0  0  0  0
 20 18  1  0  0  0  0
 21 23  1  0  0  0  0
 23 27  2  0  0  0  0
 23 24  1  0  0  0  0
 24 25  2  0  0  0  0
 25 22  1  0  0  0  0
 26 22  2  0  0  0  0
 27 26  1  0  0  0  0
M  END
>  <MODEL>
5

>  <REMARK>
 VINA RESULT:      -7.4      4.641      8.073
  Name = 
  5 active torsions:
  status: ('A' for Active; 'I' for Inactive)
    1  A    between atoms: C_1  and  C_15
    2  A    between atoms: C_9  and  C_15
    3  A    between atoms: C_12  and  C_14
    4  A    between atoms: C_12  and  C_26
    5  A    between atoms: C_17  and  C_21
                            x       y       z     vdW  Elec       q    Type
                         _______ _______ _______ _____ _____    ______ ____

>  <TORSDO>
F 5

$$$$
=
 OpenBabel11052413543D

 27 30  0  0  1  0  0  0  0  0999 V2000
  183.9700  178.9180  140.8460 C   0  0  2  0  0  3  0  0  0  0  0  0
  185.1460  179.3590  140.1880 O   0  0  0  0  0  0  0  0  0  0  0  0
  185.6380  179.2930  142.2950 C   0  0  2  0  0  3  0  0  0  0  0  0
  184.2710  179.2950  144.6680 C   0  0  1  0  0  3  0  0  0  0  0  0
  183.5180  179.0260  145.8130 O   0  0  0  0  0  1  0  0  0  0  0  0
  184.3640  178.5590  142.2400 C   0  0  1  0  0  3  0  0  0  0  0  0
  186.1750  179.1530  141.0170 O   0  0  0  0  0  0  0  0  0  0  0  0
  185.6130  178.5290  144.7140 C   0  0  0  0  0  2  0  0  0  0  0  0
  182.4600  178.0790  143.5850 O   0  0  0  0  0  1  0  0  0  0  0  0
  183.4520  179.0370  143.3690 C   0  0  1  0  0  3  0  0  0  0  0  0
  186.4910  178.7640  143.4600 C   0  0  1  0  0  3  0  0  0  0  0  0
  187.2140  177.4670  143.1110 C   0  0  0  0  0  2  0  0  0  0  0  0
  190.1480  175.5740  143.0130 C   0  0  0  0  0  2  0  0  0  0  0  0
  191.2230  176.2470  143.8810 C   0  0  0  0  0  2  0  0  0  0  0  0
  190.8270  177.6420  144.3810 C   0  0  0  0  0  2  0  0  0  0  0  0
  188.7150  177.6890  143.0190 C   0  0  1  0  0  3  0  0  0  0  0  0
  189.3140  177.8120  144.4270 C   0  0  0  0  0  2  0  0  0  0  0  0
  189.3550  176.5810  142.1660 C   0  0  1  0  0  3  0  0  0  0  0  0
  189.4240  177.4230  139.8100 C   0  0  0  0  0  1  0  0  0  0  0  0
  190.2230  177.2070  141.0810 C   0  0  0  0  0  2  0  0  0  0  0  0
  183.3410  177.7310  140.1140 C   0  0  0  0  0  2  0  0  0  0  0  0
  179.3300  178.5370  138.8910 C   0  0  0  0  0  3  0  0  0  0  0  0
  181.9320  177.9940  139.6850 C   0  0  0  0  0  0  0  0  0  0  0  0
  180.8670  177.5510  140.4740 C   0  0  0  0  0  3  0  0  0  0  0  0
  179.5600  177.8240  140.0690 C   0  0  0  0  0  3  0  0  0  0  0  0
  180.4200  178.9690  138.1320 C   0  0  0  0  0  3  0  0  0  0  0  0
  181.6870  178.6910  138.5400 N   0  0  0  0  0  0  0  0  0  0  0  0
  1 21  1  6  0  0  0
  1  6  1  0  0  0  0
  2  1  1  0  0  0  0
  2  7  1  0  0  0  0
  3  7  1  6  0  0  0
  3 11  1  0  0  0  0
  4  8  1  0  0  0  0
  4  5  1  1  0  0  0
  6  3  1  0  0  0  0
  6 10  1  0  0  0  0
 10  9  1  0  0  0  0
 10  4  1  0  0  0  0
 11  8  1  0  0  0  0
 12 11  1  0  0  0  0
 13 14  1  0  0  0  0
 14 15  1  0  0  0  0
 15 17  1  0  0  0  0
 16 12  1  0  0  0  0
 16 17  1  0  0  0  0
 18 13  1  0  0  0  0
 18 16  1  0  0  0  0
 19 20  1  0  0  0  0
 20 18  1  0  0  0  0
 22 25  1  0  0  0  0
 23 21  1  0  0  0  0
 23 24  1  0  0  0  0
 25 24  2  0  0  0  0
 26 27  1  0  0  0  0
 26 22  2  0  0  0  0
 27 23  2  0  0  0  0
M  END
>  <MODEL>
6

>  <REMARK>
 VINA RESULT:      -7.2      1.248      2.181
  Name = 
  5 active torsions:
  status: ('A' for Active; 'I' for Inactive)
    1  A    between atoms: C_1  and  C_15
    2  A    between atoms: C_9  and  C_15
    3  A    between atoms: C_12  and  C_14
    4  A    between atoms: C_12  and  C_26
    5  A    between atoms: C_17  and  C_21
                            x       y       z     vdW  Elec       q    Type
                         _______ _______ _______ _____ _____    ______ ____

>  <TORSDO>
F 5

$$$$
=
 OpenBabel11052413543D

 27 30  0  0  1  0  0  0  0  0999 V2000
  187.3730  177.3760  145.2490 C   0  0  2  0  0  3  0  0  0  0  0  0
  187.8930  176.3870  144.3770 O   0  0  0  0  0  0  0  0  0  0  0  0
  186.2520  177.3110  143.3110 C   0  0  2  0  0  3  0  0  0  0  0  0
  184.0360  178.7900  143.9460 C   0  0  1  0  0  3  0  0  0  0  0  0
  183.0920  179.7540  144.3040 O   0  0  0  0  0  1  0  0  0  0  0  0
  186.4650  178.2340  144.4360 C   0  0  1  0  0  3  0  0  0  0  0  0
  187.4840  176.6830  143.1390 O   0  0  0  0  0  0  0  0  0  0  0  0
  184.6270  179.1050  142.5520 C   0  0  0  0  0  2  0  0  0  0  0  0
  185.2670  179.7730  145.8020 O   0  0  0  0  0  1  0  0  0  0  0  0
  185.1160  178.6050  145.0520 C   0  0  1  0  0  3  0  0  0  0  0  0
  185.7000  178.0850  142.1010 C   0  0  1  0  0  3  0  0  0  0  0  0
  186.7930  178.8220  141.3340 C   0  0  0  0  0  2  0  0  0  0  0  0
  189.0530  179.1020  138.6850 C   0  0  0  0  0  2  0  0  0  0  0  0
  188.4330  178.4970  137.4150 C   0  0  0  0  0  2  0  0  0  0  0  0
  187.1160  177.7540  137.6660 C   0  0  0  0  0  2  0  0  0  0  0  0
  187.2900  177.9900  140.1630 C   0  0  1  0  0  3  0  0  0  0  0  0
  186.4210  178.2550  138.9250 C   0  0  0  0  0  2  0  0  0  0  0  0
  188.7880  178.2500  139.9360 C   0  0  1  0  0  3  0  0  0  0  0  0
  191.0150  177.1270  140.1510 C   0  0  0  0  0  1  0  0  0  0  0  0
  189.5360  176.9240  139.8790 C   0  0  0  0  0  2  0  0  0  0  0  0
  188.4990  178.1920  145.8890 C   0  0  0  0  0  2  0  0  0  0  0  0
  192.0610  175.8940  146.3980 C   0  0  0  0  0  3  0  0  0  0  0  0
  189.7540  177.4000  146.0800 C   0  0  0  0  0  0  0  0  0  0  0  0
  190.0860  176.9130  147.3470 C   0  0  0  0  0  3  0  0  0  0  0  0
  191.2500  176.1580  147.5020 C   0  0  0  0  0  3  0  0  0  0  0  0
  191.6930  176.3930  145.1470 C   0  0  0  0  0  3  0  0  0  0  0  0
  190.5580  177.1280  145.0140 N   0  0  0  0  0  0  0  0  0  0  0  0
  1 21  1  6  0  0  0
  2  1  1  0  0  0  0
  3  7  1  6  0  0  0
  3  6  1  0  0  0  0
  4  5  1  1  0  0  0
  4 10  1  0  0  0  0
  6 10  1  0  0  0  0
  6  1  1  0  0  0  0
  7  2  1  0  0  0  0
  8  4  1  0  0  0  0
 10  9  1  0  0  0  0
 11  8  1  0  0  0  0
 11  3  1  0  0  0  0
 12 11  1  0  0  0  0
 13 18  1  0  0  0  0
 14 15  1  0  0  0  0
 14 13  1  0  0  0  0
 15 17  1  0  0  0  0
 16 12  1  0  0  0  0
 17 16  1  0  0  0  0
 18 16  1  0  0  0  0
 20 18  1  0  0  0  0
 20 19  1  0  0  0  0
 21 23  1  0  0  0  0
 22 25  1  0  0  0  0
 23 24  1  0  0  0  0
 24 25  2  0  0  0  0
 26 22  2  0  0  0  0
 27 26  1  0  0  0  0
 27 23  2  0  0  0  0
M  END
>  <MODEL>
7

>  <REMARK>
 VINA RESULT:      -7.2      3.292      6.973
  Name = 
  5 active torsions:
  status: ('A' for Active; 'I' for Inactive)
    1  A    between atoms: C_1  and  C_15
    2  A    between atoms: C_9  and  C_15
    3  A    between atoms: C_12  and  C_14
    4  A    between atoms: C_12  and  C_26
    5  A    between atoms: C_17  and  C_21
                            x       y       z     vdW  Elec       q    Type
                         _______ _______ _______ _____ _____    ______ ____

>  <TORSDO>
F 5

$$$$
=
 OpenBabel11052413543D

 27 30  0  0  1  0  0  0  0  0999 V2000
  188.5510  177.8780  142.2230 C   0  0  2  0  0  3  0  0  0  0  0  0
  187.5660  178.4770  141.3970 O   0  0  0  0  0  0  0  0  0  0  0  0
  189.2370  178.0340  140.0950 C   0  0  2  0  0  3  0  0  0  0  0  0
  191.9160  177.5410  140.3790 C   0  0  1  0  0  3  0  0  0  0  0  0
  193.1960  177.0350  140.6130 O   0  0  0  0  0  1  0  0  0  0  0  0
  189.5700  177.2790  141.3130 C   0  0  1  0  0  3  0  0  0  0  0  0
  187.8500  178.1560  140.1300 O   0  0  0  0  0  0  0  0  0  0  0  0
  191.2690  176.8290  139.1690 C   0  0  0  0  0  2  0  0  0  0  0  0
  191.4590  176.4860  142.5260 O   0  0  0  0  0  1  0  0  0  0  0  0
  191.0400  177.5030  141.6660 C   0  0  1  0  0  3  0  0  0  0  0  0
  189.8340  177.3260  138.8670 C   0  0  1  0  0  3  0  0  0  0  0  0
  188.9860  176.1450  138.4070 C   0  0  0  0  0  2  0  0  0  0  0  0
  186.1380  175.3980  136.5270 C   0  0  0  0  0  2  0  0  0  0  0  0
  186.5530  174.9930  135.1030 C   0  0  0  0  0  2  0  0  0  0  0  0
  188.0410  175.2190  134.8080 C   0  0  0  0  0  2  0  0  0  0  0  0
  188.4500  176.3740  137.0030 C   0  0  1  0  0  3  0  0  0  0  0  0
  188.8720  175.2190  136.0850 C   0  0  0  0  0  2  0  0  0  0  0  0
  186.9310  176.6030  137.0550 C   0  0  1  0  0  3  0  0  0  0  0  0
  187.5550  178.9910  136.6360 C   0  0  0  0  0  1  0  0  0  0  0  0
  186.5780  177.8790  136.3010 C   0  0  0  0  0  2  0  0  0  0  0  0
  187.9310  176.8280  143.1470 C   0  0  0  0  0  2  0  0  0  0  0  0
  188.2660  177.8120  147.2890 C   0  0  0  0  0  3  0  0  0  0  0  0
  188.0410  177.1910  144.5940 C   0  0  0  0  0  0  0  0  0  0  0  0
  186.9010  177.5630  145.3100 C   0  0  0  0  0  3  0  0  0  0  0  0
  187.0190  177.8780  146.6650 C   0  0  0  0  0  3  0  0  0  0  0  0
  189.3820  177.4290  146.5420 C   0  0  0  0  0  3  0  0  0  0  0  0
  189.2490  177.1300  145.2230 N   0  0  0  0  0  0  0  0  0  0  0  0
  1 21  1  6  0  0  0
  2  1  1  0  0  0  0
  3  7  1  6  0  0  0
  3  6  1  0  0  0  0
  4  5  1  1  0  0  0
  4 10  1  0  0  0  0
  6 10  1  0  0  0  0
  6  1  1  0  0  0  0
  7  2  1  0  0  0  0
  8  4  1  0  0  0  0
 10  9  1  0  0  0  0
 11  8  1  0  0  0  0
 11  3  1  0  0  0  0
 12 11  1  0  0  0  0
 13 18  1  0  0  0  0
 14 13  1  0  0  0  0
 15 14  1  0  0  0  0
 15 17  1  0  0  0  0
 16 18  1  0  0  0  0
 16 12  1  0  0  0  0
 17 16  1  0  0  0  0
 20 19  1  0  0  0  0
 20 18  1  0  0  0  0
 21 23  1  0  0  0  0
 23 27  2  0  0  0  0
 23 24  1  0  0  0  0
 24 25  2  0  0  0  0
 25 22  1  0  0  0  0
 26 22  2  0  0  0  0
 27 26  1  0  0  0  0
M  END
>  <MODEL>
8

>  <REMARK>
 VINA RESULT:      -7.1      4.486      8.004
  Name = 
  5 active torsions:
  status: ('A' for Active; 'I' for Inactive)
    1  A    between atoms: C_1  and  C_15
    2  A    between atoms: C_9  and  C_15
    3  A    between atoms: C_12  and  C_14
    4  A    between atoms: C_12  and  C_26
    5  A    between atoms: C_17  and  C_21
                            x       y       z     vdW  Elec       q    Type
                         _______ _______ _______ _____ _____    ______ ____

>  <TORSDO>
F 5

$$$$
=
 OpenBabel11052413543D

 27 30  0  0  1  0  0  0  0  0999 V2000
  188.1640  178.0830  142.3270 C   0  0  2  0  0  3  0  0  0  0  0  0
  187.1890  178.9020  141.7030 O   0  0  0  0  0  0  0  0  0  0  0  0
  188.6120  178.3920  140.1540 C   0  0  2  0  0  3  0  0  0  0  0  0
  191.2030  177.5110  140.0300 C   0  0  1  0  0  3  0  0  0  0  0  0
  192.4120  176.8130  140.0420 O   0  0  0  0  0  1  0  0  0  0  0  0
  188.9690  177.4610  141.2360 C   0  0  1  0  0  3  0  0  0  0  0  0
  187.2720  178.6950  140.3840 O   0  0  0  0  0  0  0  0  0  0  0  0
  190.3190  177.0380  138.8530 C   0  0  0  0  0  2  0  0  0  0  0  0
  190.8480  176.2850  142.1040 O   0  0  0  0  0  1  0  0  0  0  0  0
  190.4870  177.4420  141.4120 C   0  0  1  0  0  3  0  0  0  0  0  0
  188.9500  177.7570  138.7930 C   0  0  1  0  0  3  0  0  0  0  0  0
  187.8870  176.7630  138.3360 C   0  0  0  0  0  2  0  0  0  0  0  0
  185.5930  175.7550  135.9020 C   0  0  0  0  0  2  0  0  0  0  0  0
  185.7610  176.6250  134.6450 C   0  0  0  0  0  2  0  0  0  0  0  0
  186.7080  177.8140  134.8420 C   0  0  0  0  0  2  0  0  0  0  0  0
  186.9610  177.3920  137.3070 C   0  0  1  0  0  3  0  0  0  0  0  0
  187.6990  177.5620  135.9710 C   0  0  0  0  0  2  0  0  0  0  0  0
  185.6650  176.5710  137.2010 C   0  0  1  0  0  3  0  0  0  0  0  0
  184.5160  178.2430  138.6690 C   0  0  0  0  0  1  0  0  0  0  0  0
  184.4610  177.4930  137.3500 C   0  0  0  0  0  2  0  0  0  0  0  0
  187.5080  177.0260  143.2180 C   0  0  0  0  0  2  0  0  0  0  0  0
  188.0700  177.7440  147.3890 C   0  0  0  0  0  3  0  0  0  0  0  0
  187.6990  177.2960  144.6770 C   0  0  0  0  0  0  0  0  0  0  0  0
  186.6140  177.6970  145.4610 C   0  0  0  0  0  3  0  0  0  0  0  0
  186.8060  177.9240  146.8250 C   0  0  0  0  0  3  0  0  0  0  0  0
  189.1280  177.3370  146.5750 C   0  0  0  0  0  3  0  0  0  0  0  0
  188.9230  177.1230  145.2480 N   0  0  0  0  0  0  0  0  0  0  0  0
  1 21  1  6  0  0  0
  2  1  1  0  0  0  0
  3  7  1  6  0  0  0
  3  6  1  0  0  0  0
  4  5  1  1  0  0  0
  4 10  1  0  0  0  0
  6 10  1  0  0  0  0
  6  1  1  0  0  0  0
  7  2  1  0  0  0  0
  8  4  1  0  0  0  0
 10  9  1  0  0  0  0
 11  8  1  0  0  0  0
 11  3  1  0  0  0  0
 12 11  1  0  0  0  0
 13 18  1  0  0  0  0
 14 15  1  0  0  0  0
 14 13  1  0  0  0  0
 15 17  1  0  0  0  0
 16 12  1  0  0  0  0
 17 16  1  0  0  0  0
 18 16  1  0  0  0  0
 18 20  1  0  0  0  0
 20 19  1  0  0  0  0
 21 23  1  0  0  0  0
 23 27  2  0  0  0  0
 23 24  1  0  0  0  0
 24 25  2  0  0  0  0
 25 22  1  0  0  0  0
 26 22  2  0  0  0  0
 27 26  1  0  0  0  0
M  END
>  <MODEL>
9

>  <REMARK>
 VINA RESULT:      -7.1      4.027      7.875
  Name = 
  5 active torsions:
  status: ('A' for Active; 'I' for Inactive)
    1  A    between atoms: C_1  and  C_15
    2  A    between atoms: C_9  and  C_15
    3  A    between atoms: C_12  and  C_14
    4  A    between atoms: C_12  and  C_26
    5  A    between atoms: C_17  and  C_21
                            x       y       z     vdW  Elec       q    Type
                         _______ _______ _______ _____ _____    ______ ____

>  <TORSDO>
F 5

$$$$
