=
 OpenBabel11052412583D

 31 35  0  0  1  0  0  0  0  0999 V2000
  186.6270  178.2470  138.8460 C   0  0  2  0  0  3  0  0  0  0  0  0
  184.2210  178.3690  141.8190 N   0  0  0  0  0  0  0  0  0  0  0  0
  182.8920  178.1760  141.2670 C   0  0  0  0  0  0  0  0  0  0  0  0
  181.5770  177.0220  139.4030 C   0  0  0  0  0  3  0  0  0  0  0  0
  185.4340  178.0460  141.0340 C   0  0  1  0  0  3  0  0  0  0  0  0
  187.9350  178.5540  139.5790 C   0  0  0  0  0  2  0  0  0  0  0  0
  182.7610  177.4100  140.1750 C   0  0  0  0  0  3  0  0  0  0  0  0
  185.6410  178.6860  143.9520 C   0  0  1  0  0  3  0  0  0  0  0  0
  186.6290  178.8820  137.6050 O   0  0  0  0  0  1  0  0  0  0  0  0
  181.9840  179.2630  143.2270 C   0  0  0  0  0  3  0  0  0  0  0  0
  180.3280  177.4560  139.5130 C   0  0  0  0  0  3  0  0  0  0  0  0
  186.7020  177.9310  143.1630 C   0  0  0  0  0  2  0  0  0  0  0  0
  184.3200  178.7290  143.2190 C   0  0  0  0  0  0  0  0  0  0  0  0
  185.4250  178.7250  139.6620 C   0  0  0  0  0  2  0  0  0  0  0  0
  179.7900  178.4380  140.4530 C   0  0  0  0  0  3  0  0  0  0  0  0
  186.7210  178.4620  141.7500 C   0  0  1  0  0  3  0  0  0  0  0  0
  187.9270  177.9410  140.9800 C   0  0  0  0  0  2  0  0  0  0  0  0
  183.2730  179.1780  143.8440 N   0  0  0  0  0  0  0  0  0  0  0  0
  181.7540  178.7820  142.0050 C   0  0  0  0  0  0  0  0  0  0  0  0
  180.3900  178.9880  141.5030 C   0  0  0  0  0  3  0  0  0  0  0  0
  185.4790  178.0520  145.3290 C   0  0  0  0  0  2  0  0  0  0  0  0
  185.6920  179.2860  147.3500 O   0  0  0  0  0  1  0  0  0  0  0  0
  186.4310  178.6780  146.3360 C   0  0  1  0  0  3  0  0  0  0  0  0
  187.2930  177.6520  146.9100 N   0  0  0  0  0  2  0  0  0  0  0  0
  190.8910  176.6160  146.9480 C   0  0  0  0  0  0  0  0  0  0  0  0
  190.4170  177.7900  144.8860 C   0  0  0  0  0  3  0  0  0  0  0  0
  191.7860  175.9480  147.7740 O   0  0  0  0  0  1  0  0  0  0  0  0
  189.5640  176.7870  147.3500 C   0  0  0  0  0  3  0  0  0  0  0  0
  189.0890  177.9610  145.2870 C   0  0  0  0  0  3  0  0  0  0  0  0
  188.6550  177.4600  146.5190 C   0  0  0  0  0  0  0  0  0  0  0  0
  191.3180  177.1170  145.7160 C   0  0  0  0  0  3  0  0  0  0  0  0
  1  9  1  6  0  0  0
  1  6  1  0  0  0  0
  1 14  1  0  0  0  0
  2 13  1  0  0  0  0
  3  2  1  0  0  0  0
  3 19  1  0  0  0  0
  4 11  2  0  0  0  0
  4  7  1  0  0  0  0
  5 14  1  6  0  0  0
  5 16  1  0  0  0  0
  5  2  1  0  0  0  0
  6 17  1  0  0  0  0
  7  3  2  0  0  0  0
  8 21  1  1  0  0  0
 10 18  1  0  0  0  0
 11 15  1  0  0  0  0
 12  8  1  0  0  0  0
 13 18  2  0  0  0  0
 13  8  1  0  0  0  0
 15 20  2  0  0  0  0
 16 17  1  6  0  0  0
 16 12  1  0  0  0  0
 19 10  2  0  0  0  0
 20 19  1  0  0  0  0
 21 23  1  0  0  0  0
 23 24  1  0  0  0  0
 23 22  1  1  0  0  0
 25 28  1  0  0  0  0
 25 27  1  0  0  0  0
 26 29  2  0  0  0  0
 26 31  1  0  0  0  0
 29 30  1  0  0  0  0
 30 24  1  0  0  0  0
 30 28  2  0  0  0  0
 31 25  2  0  0  0  0
M  END
>  <MODEL>
1

>  <REMARK>
 VINA RESULT:      -9.3      0.000      0.000
  Name = 
  4 active torsions:
  status: ('A' for Active; 'I' for Inactive)
    1  A    between atoms: N_3  and  C_9
    2  A    between atoms: N_3  and  C_22
    3  A    between atoms: C_9  and  C_23
    4  A    between atoms: C_15  and  C_23
                            x       y       z     vdW  Elec       q    Type
                         _______ _______ _______ _____ _____    ______ ____

>  <TORSDO>
F 4

$$$$
=
 OpenBabel11052412583D

 31 35  0  0  1  0  0  0  0  0999 V2000
  189.8470  177.1320  140.2160 C   0  0  2  0  0  3  0  0  0  0  0  0
  188.0180  177.8060  143.5090 N   0  0  0  0  0  0  0  0  0  0  0  0
  188.9980  177.6020  144.5600 C   0  0  0  0  0  0  0  0  0  0  0  0
  191.4810  177.7970  145.1350 C   0  0  0  0  0  3  0  0  0  0  0  0
  188.4290  177.9720  142.0950 C   0  0  1  0  0  3  0  0  0  0  0  0
  188.6730  177.2960  139.2480 C   0  0  0  0  0  2  0  0  0  0  0  0
  190.2810  177.8830  144.2970 C   0  0  0  0  0  3  0  0  0  0  0  0
  185.5980  178.4940  142.9230 C   0  0  1  0  0  3  0  0  0  0  0  0
  190.6640  176.0890  139.7840 O   0  0  0  0  0  1  0  0  0  0  0  0
  187.1760  177.2100  146.1010 C   0  0  0  0  0  3  0  0  0  0  0  0
  191.6180  177.2730  146.3460 C   0  0  0  0  0  3  0  0  0  0  0  0
  186.2330  179.0360  141.6490 C   0  0  0  0  0  2  0  0  0  0  0  0
  186.6400  178.0080  143.9060 C   0  0  0  0  0  0  0  0  0  0  0  0
  189.3450  176.8370  141.6290 C   0  0  0  0  0  2  0  0  0  0  0  0
  190.5960  176.6480  147.1850 C   0  0  0  0  0  3  0  0  0  0  0  0
  187.2330  178.0260  141.1420 C   0  0  1  0  0  3  0  0  0  0  0  0
  187.7120  178.3780  139.7400 C   0  0  0  0  0  2  0  0  0  0  0  0
  186.2620  177.6890  145.1080 N   0  0  0  0  0  0  0  0  0  0  0  0
  188.4920  177.1680  145.8870 C   0  0  0  0  0  0  0  0  0  0  0  0
  189.2830  176.6120  146.9910 C   0  0  0  0  0  3  0  0  0  0  0  0
  184.7160  179.5660  143.5530 C   0  0  0  0  0  2  0  0  0  0  0  0
  183.2980  179.2490  145.4330 O   0  0  0  0  0  1  0  0  0  0  0  0
  183.4170  178.9710  144.0720 C   0  0  1  0  0  3  0  0  0  0  0  0
  182.2840  179.5450  143.3570 N   0  0  0  0  0  2  0  0  0  0  0  0
  181.4650  177.8260  140.1330 C   0  0  0  0  0  0  0  0  0  0  0  0
  179.4980  177.8650  141.5430 C   0  0  0  0  0  3  0  0  0  0  0  0
  182.0840  177.4740  138.9410 O   0  0  0  0  0  1  0  0  0  0  0  0
  182.1880  178.4970  141.1230 C   0  0  0  0  0  3  0  0  0  0  0  0
  180.2210  178.5360  142.5340 C   0  0  0  0  0  3  0  0  0  0  0  0
  181.5690  178.8530  142.3310 C   0  0  0  0  0  0  0  0  0  0  0  0
  180.1210  177.5100  140.3430 C   0  0  0  0  0  3  0  0  0  0  0  0
  1  9  1  6  0  0  0
  1 14  1  0  0  0  0
  2 13  1  0  0  0  0
  2  3  1  0  0  0  0
  3 19  1  0  0  0  0
  4 11  2  0  0  0  0
  5 14  1  6  0  0  0
  5  2  1  0  0  0  0
  6 17  1  0  0  0  0
  6  1  1  0  0  0  0
  7  3  2  0  0  0  0
  7  4  1  0  0  0  0
  8 21  1  1  0  0  0
  8 13  1  0  0  0  0
 11 15  1  0  0  0  0
 12  8  1  0  0  0  0
 13 18  2  0  0  0  0
 16 17  1  6  0  0  0
 16 12  1  0  0  0  0
 16  5  1  0  0  0  0
 18 10  1  0  0  0  0
 19 10  2  0  0  0  0
 19 20  1  0  0  0  0
 20 15  2  0  0  0  0
 21 23  1  0  0  0  0
 23 22  1  1  0  0  0
 24 23  1  0  0  0  0
 25 31  2  0  0  0  0
 25 28  1  0  0  0  0
 26 29  2  0  0  0  0
 27 25  1  0  0  0  0
 28 30  2  0  0  0  0
 30 29  1  0  0  0  0
 30 24  1  0  0  0  0
 31 26  1  0  0  0  0
M  END
>  <MODEL>
2

>  <REMARK>
 VINA RESULT:      -9.2      2.134      7.728
  Name = 
  4 active torsions:
  status: ('A' for Active; 'I' for Inactive)
    1  A    between atoms: N_3  and  C_9
    2  A    between atoms: N_3  and  C_22
    3  A    between atoms: C_9  and  C_23
    4  A    between atoms: C_15  and  C_23
                            x       y       z     vdW  Elec       q    Type
                         _______ _______ _______ _____ _____    ______ ____

>  <TORSDO>
F 4

$$$$
=
 OpenBabel11052412583D

 31 35  0  0  1  0  0  0  0  0999 V2000
  186.6040  178.0050  146.7930 C   0  0  2  0  0  3  0  0  0  0  0  0
  187.0690  177.9690  142.9950 N   0  0  0  0  0  0  0  0  0  0  0  0
  188.3930  177.4210  142.7590 C   0  0  0  0  0  0  0  0  0  0  0  0
  190.1390  175.7820  143.6510 C   0  0  0  0  0  3  0  0  0  0  0  0
  186.3990  177.8240  144.3080 C   0  0  1  0  0  3  0  0  0  0  0  0
  185.2320  178.6800  146.8630 C   0  0  0  0  0  2  0  0  0  0  0  0
  188.8700  176.5150  143.6220 C   0  0  0  0  0  3  0  0  0  0  0  0
  184.8860  178.8570  141.9390 C   0  0  1  0  0  3  0  0  0  0  0  0
  187.4020  178.4620  147.8390 O   0  0  0  0  0  1  0  0  0  0  0  0
  188.3990  178.5210  140.6060 C   0  0  0  0  0  3  0  0  0  0  0  0
  191.2140  175.9420  142.8900 C   0  0  0  0  0  3  0  0  0  0  0  0
  184.2340  178.2590  143.1790 C   0  0  0  0  0  2  0  0  0  0  0  0
  186.3570  178.5160  141.8580 C   0  0  0  0  0  0  0  0  0  0  0  0
  187.2870  178.3060  145.4590 C   0  0  0  0  0  2  0  0  0  0  0  0
  191.4170  176.8920  141.7980 C   0  0  0  0  0  3  0  0  0  0  0  0
  185.0820  178.5990  144.3800 C   0  0  1  0  0  3  0  0  0  0  0  0
  184.3610  178.2630  145.6790 C   0  0  0  0  0  2  0  0  0  0  0  0
  187.0040  178.7990  140.7670 N   0  0  0  0  0  0  0  0  0  0  0  0
  189.0960  177.8520  141.5230 C   0  0  0  0  0  0  0  0  0  0  0  0
  190.5240  177.6880  141.2220 C   0  0  0  0  0  3  0  0  0  0  0  0
  184.1480  178.3820  140.6920 C   0  0  0  0  0  2  0  0  0  0  0  0
  184.4040  180.1080  139.0790 O   0  0  0  0  0  1  0  0  0  0  0  0
  183.4900  179.5450  139.9690 C   0  0  1  0  0  3  0  0  0  0  0  0
  182.3200  179.0790  139.2350 N   0  0  0  0  0  2  0  0  0  0  0  0
  179.6450  177.7790  141.5100 C   0  0  0  0  0  0  0  0  0  0  0  0
  180.0550  176.1670  139.7520 C   0  0  0  0  0  3  0  0  0  0  0  0
  178.9580  178.1630  142.6540 O   0  0  0  0  0  1  0  0  0  0  0  0
  180.6190  178.6210  140.9650 C   0  0  0  0  0  3  0  0  0  0  0  0
  181.0290  177.0080  139.2060 C   0  0  0  0  0  3  0  0  0  0  0  0
  181.3150  178.2390  139.8080 C   0  0  0  0  0  0  0  0  0  0  0  0
  179.3620  176.5530  140.9030 C   0  0  0  0  0  3  0  0  0  0  0  0
  1  6  1  0  0  0  0
  1  9  1  1  0  0  0
  2  5  1  0  0  0  0
  3  2  1  0  0  0  0
  3  7  2  0  0  0  0
  5 16  1  0  0  0  0
  5 14  1  1  0  0  0
  7  4  1  0  0  0  0
  8 21  1  6  0  0  0
  8 12  1  0  0  0  0
 10 18  1  0  0  0  0
 10 19  2  0  0  0  0
 11  4  2  0  0  0  0
 13  8  1  0  0  0  0
 13  2  1  0  0  0  0
 14  1  1  0  0  0  0
 15 11  1  0  0  0  0
 16 12  1  6  0  0  0
 16 17  1  0  0  0  0
 17  6  1  0  0  0  0
 18 13  2  0  0  0  0
 19  3  1  0  0  0  0
 20 19  1  0  0  0  0
 20 15  2  0  0  0  0
 23 22  1  6  0  0  0
 23 21  1  0  0  0  0
 24 30  1  0  0  0  0
 24 23  1  0  0  0  0
 25 27  1  0  0  0  0
 26 31  1  0  0  0  0
 28 25  1  0  0  0  0
 29 26  2  0  0  0  0
 29 30  1  0  0  0  0
 30 28  2  0  0  0  0
 31 25  2  0  0  0  0
M  END
>  <MODEL>
3

>  <REMARK>
 VINA RESULT:      -9.1      2.396      8.501
  Name = 
  4 active torsions:
  status: ('A' for Active; 'I' for Inactive)
    1  A    between atoms: N_3  and  C_9
    2  A    between atoms: N_3  and  C_22
    3  A    between atoms: C_9  and  C_23
    4  A    between atoms: C_15  and  C_23
                            x       y       z     vdW  Elec       q    Type
                         _______ _______ _______ _____ _____    ______ ____

>  <TORSDO>
F 4

$$$$
=
 OpenBabel11052412583D

 31 35  0  0  1  0  0  0  0  0999 V2000
  186.5240  178.0230  146.7090 C   0  0  2  0  0  3  0  0  0  0  0  0
  186.8160  177.9800  142.8940 N   0  0  0  0  0  0  0  0  0  0  0  0
  188.1040  177.3800  142.5980 C   0  0  0  0  0  0  0  0  0  0  0  0
  189.8220  175.6690  143.4080 C   0  0  0  0  0  3  0  0  0  0  0  0
  186.2000  177.8580  144.2360 C   0  0  1  0  0  3  0  0  0  0  0  0
  185.1850  178.7530  146.8430 C   0  0  0  0  0  2  0  0  0  0  0  0
  188.5830  176.4530  143.4380 C   0  0  0  0  0  3  0  0  0  0  0  0
  184.6240  178.9570  141.9390 C   0  0  1  0  0  3  0  0  0  0  0  0
  187.3860  178.4460  147.7190 O   0  0  0  0  0  1  0  0  0  0  0  0
  188.0570  178.4850  140.4480 C   0  0  0  0  0  3  0  0  0  0  0  0
  190.8660  175.7890  142.6000 C   0  0  0  0  0  3  0  0  0  0  0  0
  184.0050  178.3830  143.2070 C   0  0  0  0  0  2  0  0  0  0  0  0
  186.0750  178.5580  141.7910 C   0  0  0  0  0  0  0  0  0  0  0  0
  187.1580  178.3010  145.3460 C   0  0  0  0  0  2  0  0  0  0  0  0
  191.0590  176.7330  141.5010 C   0  0  0  0  0  3  0  0  0  0  0  0
  184.9200  178.6850  144.3690 C   0  0  1  0  0  3  0  0  0  0  0  0
  184.2460  178.3740  145.6980 C   0  0  0  0  0  2  0  0  0  0  0  0
  186.6830  178.8180  140.6730 N   0  0  0  0  0  0  0  0  0  0  0  0
  188.7680  177.7850  141.3320 C   0  0  0  0  0  0  0  0  0  0  0  0
  190.1720  177.5650  140.9670 C   0  0  0  0  0  3  0  0  0  0  0  0
  183.8120  178.5160  140.7270 C   0  0  0  0  0  2  0  0  0  0  0  0
  184.2790  180.0790  138.9980 O   0  0  0  0  0  1  0  0  0  0  0  0
  183.3130  179.7140  139.9360 C   0  0  1  0  0  3  0  0  0  0  0  0
  182.0720  179.3770  139.2500 N   0  0  0  0  0  2  0  0  0  0  0  0
  180.6810  182.2830  137.3420 C   0  0  0  0  0  0  0  0  0  0  0  0
  180.6820  180.3200  135.9250 C   0  0  0  0  0  3  0  0  0  0  0  0
  180.4070  183.6310  137.5290 O   0  0  0  0  0  1  0  0  0  0  0  0
  181.2330  181.5310  138.3830 C   0  0  0  0  0  3  0  0  0  0  0  0
  181.2340  179.5680  136.9660 C   0  0  0  0  0  3  0  0  0  0  0  0
  181.5130  180.1690  138.1990 C   0  0  0  0  0  0  0  0  0  0  0  0
  180.4060  181.6780  136.1130 C   0  0  0  0  0  3  0  0  0  0  0  0
  1  6  1  0  0  0  0
  1  9  1  1  0  0  0
  2  5  1  0  0  0  0
  3  2  1  0  0  0  0
  3  7  2  0  0  0  0
  4  7  1  0  0  0  0
  5 16  1  0  0  0  0
  5 14  1  1  0  0  0
  8 21  1  6  0  0  0
  8 12  1  0  0  0  0
 10 18  1  0  0  0  0
 10 19  2  0  0  0  0
 11  4  2  0  0  0  0
 13  8  1  0  0  0  0
 13  2  1  0  0  0  0
 14  1  1  0  0  0  0
 15 11  1  0  0  0  0
 16 12  1  6  0  0  0
 16 17  1  0  0  0  0
 17  6  1  0  0  0  0
 18 13  2  0  0  0  0
 19  3  1  0  0  0  0
 20 19  1  0  0  0  0
 20 15  2  0  0  0  0
 23 22  1  6  0  0  0
 23 21  1  0  0  0  0
 24 23  1  0  0  0  0
 25 27  1  0  0  0  0
 25 28  1  0  0  0  0
 26 31  1  0  0  0  0
 26 29  2  0  0  0  0
 29 30  1  0  0  0  0
 30 28  2  0  0  0  0
 30 24  1  0  0  0  0
 31 25  2  0  0  0  0
M  END
>  <MODEL>
4

>  <REMARK>
 VINA RESULT:      -9.1      2.975      9.124
  Name = 
  4 active torsions:
  status: ('A' for Active; 'I' for Inactive)
    1  A    between atoms: N_3  and  C_9
    2  A    between atoms: N_3  and  C_22
    3  A    between atoms: C_9  and  C_23
    4  A    between atoms: C_15  and  C_23
                            x       y       z     vdW  Elec       q    Type
                         _______ _______ _______ _____ _____    ______ ____

>  <TORSDO>
F 4

$$$$
=
 OpenBabel11052412583D

 31 35  0  0  1  0  0  0  0  0999 V2000
  182.4610  176.8960  138.1940 C   0  0  2  0  0  3  0  0  0  0  0  0
  185.4190  178.2420  140.2130 N   0  0  0  0  0  0  0  0  0  0  0  0
  186.5250  178.3510  139.2800 C   0  0  0  0  0  0  0  0  0  0  0  0
  187.1310  178.8130  136.8400 C   0  0  0  0  0  3  0  0  0  0  0  0
  184.0240  178.0860  139.7400 C   0  0  1  0  0  3  0  0  0  0  0  0
  181.4380  176.7590  139.3230 C   0  0  0  0  0  2  0  0  0  0  0  0
  186.2510  178.6290  137.9980 C   0  0  0  0  0  3  0  0  0  0  0  0
  184.5910  178.6380  142.6280 C   0  0  1  0  0  3  0  0  0  0  0  0
  182.3270  175.8260  137.3110 O   0  0  0  0  0  1  0  0  0  0  0  0
  188.0430  178.2430  141.1580 C   0  0  0  0  0  3  0  0  0  0  0  0
  188.4370  178.6040  136.7410 C   0  0  0  0  0  3  0  0  0  0  0  0
  183.2490  178.8900  141.9540 C   0  0  0  0  0  2  0  0  0  0  0  0
  185.7020  178.4590  141.6180 C   0  0  0  0  0  0  0  0  0  0  0  0
  183.8830  176.9230  138.7530 C   0  0  0  0  0  2  0  0  0  0  0  0
  189.3620  178.1450  137.7760 C   0  0  0  0  0  3  0  0  0  0  0  0
  183.0410  177.8430  140.8870 C   0  0  1  0  0  3  0  0  0  0  0  0
  181.6150  177.8730  140.3540 C   0  0  0  0  0  2  0  0  0  0  0  0
  186.9300  178.4190  142.0410 N   0  0  0  0  0  0  0  0  0  0  0  0
  187.8980  178.2220  139.8340 C   0  0  0  0  0  0  0  0  0  0  0  0
  189.1330  177.9930  139.0750 C   0  0  0  0  0  3  0  0  0  0  0  0
  184.9070  179.7800  143.5870 C   0  0  0  0  0  2  0  0  0  0  0  0
  183.5770  179.0840  145.4290 O   0  0  0  0  0  1  0  0  0  0  0  0
  184.8950  179.3030  145.0300 C   0  0  1  0  0  3  0  0  0  0  0  0
  185.6520  178.0640  145.1520 N   0  0  0  0  0  2  0  0  0  0  0  0
  189.1630  177.3430  146.2360 C   0  0  0  0  0  0  0  0  0  0  0  0
  187.8880  178.1470  148.1300 C   0  0  0  0  0  3  0  0  0  0  0  0
  190.3580  176.8830  145.6980 O   0  0  0  0  0  1  0  0  0  0  0  0
  188.0330  177.4670  145.4230 C   0  0  0  0  0  3  0  0  0  0  0  0
  186.7570  178.2710  147.3170 C   0  0  0  0  0  3  0  0  0  0  0  0
  186.8240  177.9340  145.9610 C   0  0  0  0  0  0  0  0  0  0  0  0
  189.0910  177.6840  147.5890 C   0  0  0  0  0  3  0  0  0  0  0  0
  1  9  1  6  0  0  0
  1 14  1  0  0  0  0
  1  6  1  0  0  0  0
  2 13  1  0  0  0  0
  3 19  1  0  0  0  0
  3  2  1  0  0  0  0
  4  7  1  0  0  0  0
  5 14  1  6  0  0  0
  5  2  1  0  0  0  0
  5 16  1  0  0  0  0
  6 17  1  0  0  0  0
  7  3  2  0  0  0  0
  8 21  1  1  0  0  0
 10 18  1  0  0  0  0
 11  4  2  0  0  0  0
 11 15  1  0  0  0  0
 12  8  1  0  0  0  0
 13 18  2  0  0  0  0
 13  8  1  0  0  0  0
 15 20  2  0  0  0  0
 16 17  1  6  0  0  0
 16 12  1  0  0  0  0
 19 10  2  0  0  0  0
 20 19  1  0  0  0  0
 21 23  1  0  0  0  0
 23 24  1  0  0  0  0
 23 22  1  6  0  0  0
 24 30  1  0  0  0  0
 25 31  1  0  0  0  0
 27 25  1  0  0  0  0
 28 30  1  0  0  0  0
 28 25  2  0  0  0  0
 29 26  1  0  0  0  0
 30 29  2  0  0  0  0
 31 26  2  0  0  0  0
M  END
>  <MODEL>
5

>  <REMARK>
 VINA RESULT:      -9.0      1.852      4.756
  Name = 
  4 active torsions:
  status: ('A' for Active; 'I' for Inactive)
    1  A    between atoms: N_3  and  C_9
    2  A    between atoms: N_3  and  C_22
    3  A    between atoms: C_9  and  C_23
    4  A    between atoms: C_15  and  C_23
                            x       y       z     vdW  Elec       q    Type
                         _______ _______ _______ _____ _____    ______ ____

>  <TORSDO>
F 4

$$$$
=
 OpenBabel11052412583D

 31 35  0  0  1  0  0  0  0  0999 V2000
  187.5190  178.1760  139.5780 C   0  0  2  0  0  3  0  0  0  0  0  0
  185.5180  178.1720  142.8400 N   0  0  0  0  0  0  0  0  0  0  0  0
  184.1220  178.2620  142.4530 C   0  0  0  0  0  0  0  0  0  0  0  0
  182.4330  177.6180  140.6460 C   0  0  0  0  0  3  0  0  0  0  0  0
  186.5660  177.8060  141.8590 C   0  0  1  0  0  3  0  0  0  0  0  0
  188.9340  178.1710  140.1600 C   0  0  0  0  0  2  0  0  0  0  0  0
  183.7450  177.7050  141.2950 C   0  0  0  0  0  3  0  0  0  0  0  0
  187.2060  177.9410  144.7820 C   0  0  1  0  0  3  0  0  0  0  0  0
  187.4830  178.9910  138.4480 O   0  0  0  0  0  1  0  0  0  0  0  0
  183.6330  179.1460  144.6500 C   0  0  0  0  0  3  0  0  0  0  0  0
  181.2930  178.2050  140.9850 C   0  0  0  0  0  3  0  0  0  0  0  0
  188.0320  177.1750  143.7570 C   0  0  0  0  0  2  0  0  0  0  0  0
  185.8340  178.2890  144.2490 C   0  0  0  0  0  0  0  0  0  0  0  0
  186.5120  178.6870  140.6080 C   0  0  0  0  0  2  0  0  0  0  0  0
  181.0320  179.0930  142.1160 C   0  0  0  0  0  3  0  0  0  0  0  0
  187.9760  177.9140  142.4430 C   0  0  1  0  0  3  0  0  0  0  0  0
  188.9860  177.3530  141.4500 C   0  0  0  0  0  2  0  0  0  0  0  0
  184.9520  178.7790  145.0680 N   0  0  0  0  0  0  0  0  0  0  0  0
  183.1900  178.9020  143.4170 C   0  0  0  0  0  0  0  0  0  0  0  0
  181.8290  179.3780  143.1390 C   0  0  0  0  0  3  0  0  0  0  0  0
  187.1000  177.1280  146.0670 C   0  0  0  0  0  2  0  0  0  0  0  0
  187.9860  176.8940  148.2600 O   0  0  0  0  0  1  0  0  0  0  0  0
  187.8680  177.7910  147.1990 C   0  0  1  0  0  3  0  0  0  0  0  0
  189.1960  178.1790  146.7400 N   0  0  0  0  0  2  0  0  0  0  0  0
  191.6990  175.8480  145.2170 C   0  0  0  0  0  0  0  0  0  0  0  0
  192.0400  175.9360  147.6120 C   0  0  0  0  0  3  0  0  0  0  0  0
  192.0550  175.3540  143.9690 O   0  0  0  0  0  1  0  0  0  0  0  0
  190.6410  176.7530  145.3340 C   0  0  0  0  0  3  0  0  0  0  0  0
  190.9810  176.8420  147.7300 C   0  0  0  0  0  3  0  0  0  0  0  0
  190.2780  177.2560  146.5930 C   0  0  0  0  0  0  0  0  0  0  0  0
  192.3990  175.4400  146.3560 C   0  0  0  0  0  3  0  0  0  0  0  0
  1  9  1  6  0  0  0
  1  6  1  0  0  0  0
  1 14  1  0  0  0  0
  2 13  1  0  0  0  0
  3  2  1  0  0  0  0
  3 19  1  0  0  0  0
  4 11  2  0  0  0  0
  4  7  1  0  0  0  0
  5 14  1  6  0  0  0
  5 16  1  0  0  0  0
  5  2  1  0  0  0  0
  6 17  1  0  0  0  0
  7  3  2  0  0  0  0
  8 21  1  1  0  0  0
 10 18  1  0  0  0  0
 11 15  1  0  0  0  0
 12  8  1  0  0  0  0
 13  8  1  0  0  0  0
 13 18  2  0  0  0  0
 15 20  2  0  0  0  0
 16 17  1  6  0  0  0
 16 12  1  0  0  0  0
 19 10  2  0  0  0  0
 20 19  1  0  0  0  0
 21 23  1  0  0  0  0
 23 22  1  1  0  0  0
 24 23  1  0  0  0  0
 25 28  2  0  0  0  0
 25 31  1  0  0  0  0
 26 29  1  0  0  0  0
 27 25  1  0  0  0  0
 28 30  1  0  0  0  0
 30 24  1  0  0  0  0
 30 29  2  0  0  0  0
 31 26  2  0  0  0  0
M  END
>  <MODEL>
6

>  <REMARK>
 VINA RESULT:      -9.0      1.562      2.115
  Name = 
  4 active torsions:
  status: ('A' for Active; 'I' for Inactive)
    1  A    between atoms: N_3  and  C_9
    2  A    between atoms: N_3  and  C_22
    3  A    between atoms: C_9  and  C_23
    4  A    between atoms: C_15  and  C_23
                            x       y       z     vdW  Elec       q    Type
                         _______ _______ _______ _____ _____    ______ ____

>  <TORSDO>
F 4

$$$$
=
 OpenBabel11052412583D

 31 35  0  0  1  0  0  0  0  0999 V2000
  188.8430  177.1080  135.9510 C   0  0  2  0  0  3  0  0  0  0  0  0
  186.4240  178.0030  138.7770 N   0  0  0  0  0  0  0  0  0  0  0  0
  185.0910  177.8950  138.2130 C   0  0  0  0  0  0  0  0  0  0  0  0
  183.6670  176.6370  136.5030 C   0  0  0  0  0  3  0  0  0  0  0  0
  187.5980  177.4080  138.0980 C   0  0  1  0  0  3  0  0  0  0  0  0
  190.1670  177.3570  136.6760 C   0  0  0  0  0  2  0  0  0  0  0  0
  184.8790  176.9890  137.2490 C   0  0  0  0  0  3  0  0  0  0  0  0
  187.8380  178.4710  140.8880 C   0  0  1  0  0  3  0  0  0  0  0  0
  188.9490  177.5320  134.6280 O   0  0  0  0  0  1  0  0  0  0  0  0
  184.3010  179.3850  139.9460 C   0  0  0  0  0  3  0  0  0  0  0  0
  182.4850  177.2390  136.4980 C   0  0  0  0  0  3  0  0  0  0  0  0
  188.8040  177.4710  140.2640 C   0  0  0  0  0  2  0  0  0  0  0  0
  186.5460  178.5640  140.1080 C   0  0  0  0  0  0  0  0  0  0  0  0
  187.7010  177.8570  136.6370 C   0  0  0  0  0  2  0  0  0  0  0  0
  182.0640  178.4170  137.2540 C   0  0  0  0  0  3  0  0  0  0  0  0
  188.9150  177.7650  138.7880 C   0  0  1  0  0  3  0  0  0  0  0  0
  190.0550  176.9810  138.1530 C   0  0  0  0  0  2  0  0  0  0  0  0
  185.5560  179.2360  140.6170 N   0  0  0  0  0  0  0  0  0  0  0  0
  184.0300  178.7500  138.8050 C   0  0  0  0  0  0  0  0  0  0  0  0
  182.7140  179.0450  138.2270 C   0  0  0  0  0  3  0  0  0  0  0  0
  187.5700  178.0880  142.3390 C   0  0  0  0  0  2  0  0  0  0  0  0
  189.6450  178.5060  143.4220 O   0  0  0  0  0  1  0  0  0  0  0  0
  188.8070  177.4810  142.9820 C   0  0  1  0  0  3  0  0  0  0  0  0
  188.4220  176.6480  144.1140 N   0  0  0  0  0  2  0  0  0  0  0  0
  186.6020  178.3240  146.9250 C   0  0  0  0  0  0  0  0  0  0  0  0
  188.7610  177.5610  147.7100 C   0  0  0  0  0  3  0  0  0  0  0  0
  185.3900  178.9570  147.1650 O   0  0  0  0  0  1  0  0  0  0  0  0
  186.8840  177.8150  145.6550 C   0  0  0  0  0  3  0  0  0  0  0  0
  189.0430  177.0500  146.4390 C   0  0  0  0  0  3  0  0  0  0  0  0
  188.1070  177.1730  145.4070 C   0  0  0  0  0  0  0  0  0  0  0  0
  187.5400  178.1970  147.9530 C   0  0  0  0  0  3  0  0  0  0  0  0
  1  9  1  6  0  0  0
  1 14  1  0  0  0  0
  1  6  1  0  0  0  0
  2 13  1  0  0  0  0
  3  2  1  0  0  0  0
  3 19  1  0  0  0  0
  4  7  1  0  0  0  0
  5 14  1  6  0  0  0
  5  2  1  0  0  0  0
  5 16  1  0  0  0  0
  6 17  1  0  0  0  0
  7  3  2  0  0  0  0
  8 21  1  1  0  0  0
 10 18  1  0  0  0  0
 11  4  2  0  0  0  0
 11 15  1  0  0  0  0
 12  8  1  0  0  0  0
 13 18  2  0  0  0  0
 13  8  1  0  0  0  0
 15 20  2  0  0  0  0
 16 17  1  6  0  0  0
 16 12  1  0  0  0  0
 19 10  2  0  0  0  0
 20 19  1  0  0  0  0
 21 23  1  0  0  0  0
 23 22  1  1  0  0  0
 23 24  1  0  0  0  0
 24 30  1  0  0  0  0
 25 27  1  0  0  0  0
 25 31  1  0  0  0  0
 26 31  2  0  0  0  0
 28 25  2  0  0  0  0
 29 26  1  0  0  0  0
 30 28  1  0  0  0  0
 30 29  2  0  0  0  0
M  END
>  <MODEL>
7

>  <REMARK>
 VINA RESULT:      -8.8      2.580      3.944
  Name = 
  4 active torsions:
  status: ('A' for Active; 'I' for Inactive)
    1  A    between atoms: N_3  and  C_9
    2  A    between atoms: N_3  and  C_22
    3  A    between atoms: C_9  and  C_23
    4  A    between atoms: C_15  and  C_23
                            x       y       z     vdW  Elec       q    Type
                         _______ _______ _______ _____ _____    ______ ____

>  <TORSDO>
F 4

$$$$
=
 OpenBabel11052412583D

 31 35  0  0  1  0  0  0  0  0999 V2000
  190.0930  177.1060  139.8650 C   0  0  2  0  0  3  0  0  0  0  0  0
  188.0600  177.7650  143.0390 N   0  0  0  0  0  0  0  0  0  0  0  0
  188.9950  177.6520  144.1430 C   0  0  0  0  0  0  0  0  0  0  0  0
  191.4290  178.0120  144.8350 C   0  0  0  0  0  3  0  0  0  0  0  0
  188.5330  177.9140  141.6430 C   0  0  1  0  0  3  0  0  0  0  0  0
  188.9630  177.1700  138.8340 C   0  0  0  0  0  2  0  0  0  0  0  0
  190.2720  178.0020  143.9360 C   0  0  0  0  0  3  0  0  0  0  0  0
  185.6380  178.2890  142.3110 C   0  0  1  0  0  3  0  0  0  0  0  0
  190.9910  176.1010  139.5080 O   0  0  0  0  0  1  0  0  0  0  0  0
  187.1220  177.1970  145.6040 C   0  0  0  0  0  3  0  0  0  0  0  0
  191.5340  177.5340  146.0680 C   0  0  0  0  0  3  0  0  0  0  0  0
  186.3050  178.8300  141.0530 C   0  0  0  0  0  2  0  0  0  0  0  0
  186.6540  177.8960  143.3600 C   0  0  0  0  0  0  0  0  0  0  0  0
  189.5370  176.8220  141.2600 C   0  0  0  0  0  2  0  0  0  0  0  0
  190.5090  176.8740  146.8740 C   0  0  0  0  0  3  0  0  0  0  0  0
  187.3870  177.8670  140.6300 C   0  0  1  0  0  3  0  0  0  0  0  0
  187.9160  178.2060  139.2430 C   0  0  0  0  0  2  0  0  0  0  0  0
  186.2340  177.5900  144.5520 N   0  0  0  0  0  0  0  0  0  0  0  0
  188.4470  177.2280  145.4580 C   0  0  0  0  0  0  0  0  0  0  0  0
  189.2120  176.7540  146.6170 C   0  0  0  0  0  3  0  0  0  0  0  0
  184.6630  179.3250  142.8610 C   0  0  0  0  0  2  0  0  0  0  0  0
  182.6980  179.2630  144.1970 O   0  0  0  0  0  1  0  0  0  0  0  0
  183.2770  178.7270  143.0470 C   0  0  1  0  0  3  0  0  0  0  0  0
  182.4430  179.0340  141.8930 N   0  0  0  0  0  2  0  0  0  0  0  0
  183.0480  176.7020  139.0270 C   0  0  0  0  0  0  0  0  0  0  0  0
  183.1570  178.9870  138.2370 C   0  0  0  0  0  3  0  0  0  0  0  0
  183.1240  175.3380  138.7770 O   0  0  0  0  0  1  0  0  0  0  0  0
  182.7840  177.1610  140.3200 C   0  0  0  0  0  3  0  0  0  0  0  0
  182.8940  179.4480  139.5310 C   0  0  0  0  0  3  0  0  0  0  0  0
  182.7050  178.5380  140.5770 C   0  0  0  0  0  0  0  0  0  0  0  0
  183.2330  177.6140  137.9850 C   0  0  0  0  0  3  0  0  0  0  0  0
  1  9  1  6  0  0  0
  1 14  1  0  0  0  0
  2 13  1  0  0  0  0
  2  3  1  0  0  0  0
  3 19  1  0  0  0  0
  4 11  2  0  0  0  0
  5 14  1  6  0  0  0
  5  2  1  0  0  0  0
  6 17  1  0  0  0  0
  6  1  1  0  0  0  0
  7  3  2  0  0  0  0
  7  4  1  0  0  0  0
  8 21  1  1  0  0  0
  8 13  1  0  0  0  0
 11 15  1  0  0  0  0
 12  8  1  0  0  0  0
 13 18  2  0  0  0  0
 16 17  1  6  0  0  0
 16 12  1  0  0  0  0
 16  5  1  0  0  0  0
 18 10  1  0  0  0  0
 19 10  2  0  0  0  0
 19 20  1  0  0  0  0
 20 15  2  0  0  0  0
 21 23  1  0  0  0  0
 23 22  1  1  0  0  0
 24 23  1  0  0  0  0
 25 28  1  0  0  0  0
 26 29  2  0  0  0  0
 27 25  1  0  0  0  0
 28 30  2  0  0  0  0
 29 30  1  0  0  0  0
 30 24  1  0  0  0  0
 31 26  1  0  0  0  0
 31 25  2  0  0  0  0
M  END
>  <MODEL>
8

>  <REMARK>
 VINA RESULT:      -8.8      2.405      7.512
  Name = 
  4 active torsions:
  status: ('A' for Active; 'I' for Inactive)
    1  A    between atoms: N_3  and  C_9
    2  A    between atoms: N_3  and  C_22
    3  A    between atoms: C_9  and  C_23
    4  A    between atoms: C_15  and  C_23
                            x       y       z     vdW  Elec       q    Type
                         _______ _______ _______ _____ _____    ______ ____

>  <TORSDO>
F 4

$$$$
=
 OpenBabel11052412583D

 31 35  0  0  1  0  0  0  0  0999 V2000
  191.9010  176.9310  139.9970 C   0  0  2  0  0  3  0  0  0  0  0  0
  188.1620  177.5650  139.4830 N   0  0  0  0  0  0  0  0  0  0  0  0
  187.8680  177.1430  138.1260 C   0  0  0  0  0  0  0  0  0  0  0  0
  188.5110  175.4820  136.2930 C   0  0  0  0  0  3  0  0  0  0  0  0
  189.4160  177.1610  140.1590 C   0  0  1  0  0  3  0  0  0  0  0  0
  192.0530  177.5030  141.4080 C   0  0  0  0  0  2  0  0  0  0  0  0
  188.5770  176.1330  137.6050 C   0  0  0  0  0  3  0  0  0  0  0  0
  187.2210  178.4890  141.7040 C   0  0  1  0  0  3  0  0  0  0  0  0
  193.0270  177.2510  139.2410 O   0  0  0  0  0  1  0  0  0  0  0  0
  185.9300  178.5900  138.1600 C   0  0  0  0  0  3  0  0  0  0  0  0
  187.8120  175.8310  135.2210 C   0  0  0  0  0  3  0  0  0  0  0  0
  188.3280  177.6530  142.3330 C   0  0  0  0  0  2  0  0  0  0  0  0
  187.1170  178.2530  140.2140 C   0  0  0  0  0  0  0  0  0  0  0  0
  190.6520  177.4930  139.3170 C   0  0  0  0  0  2  0  0  0  0  0  0
  186.9000  176.9620  135.0620 C   0  0  0  0  0  3  0  0  0  0  0  0
  189.5880  177.8340  141.5220 C   0  0  1  0  0  3  0  0  0  0  0  0
  190.7950  177.2410  142.2370 C   0  0  0  0  0  2  0  0  0  0  0  0
  186.1050  178.7540  139.5710 N   0  0  0  0  0  0  0  0  0  0  0  0
  186.7380  177.8170  137.4340 C   0  0  0  0  0  0  0  0  0  0  0  0
  186.4460  177.7900  135.9960 C   0  0  0  0  0  3  0  0  0  0  0  0
  185.8960  178.1880  142.3950 C   0  0  0  0  0  2  0  0  0  0  0  0
  184.6170  179.5630  143.8530 O   0  0  0  0  0  1  0  0  0  0  0  0
  185.8210  178.8670  143.7540 C   0  0  1  0  0  3  0  0  0  0  0  0
  185.8960  177.8700  144.8140 N   0  0  0  0  0  2  0  0  0  0  0  0
  189.2000  177.4710  146.5310 C   0  0  0  0  0  0  0  0  0  0  0  0
  187.5560  178.2530  148.1270 C   0  0  0  0  0  3  0  0  0  0  0  0
  190.5000  177.0830  146.2360 O   0  0  0  0  0  1  0  0  0  0  0  0
  188.2260  177.4730  145.5280 C   0  0  0  0  0  3  0  0  0  0  0  0
  186.5820  178.2540  147.1240 C   0  0  0  0  0  3  0  0  0  0  0  0
  186.9120  177.8660  145.8210 C   0  0  0  0  0  0  0  0  0  0  0  0
  188.8650  177.8620  147.8300 C   0  0  0  0  0  3  0  0  0  0  0  0
  1  9  1  6  0  0  0
  1  6  1  0  0  0  0
  2  5  1  0  0  0  0
  2 13  1  0  0  0  0
  3  2  1  0  0  0  0
  4  7  1  0  0  0  0
  5 14  1  6  0  0  0
  5 16  1  0  0  0  0
  6 17  1  0  0  0  0
  7  3  2  0  0  0  0
  8 12  1  0  0  0  0
  8 21  1  1  0  0  0
 10 18  1  0  0  0  0
 11  4  2  0  0  0  0
 13  8  1  0  0  0  0
 14  1  1  0  0  0  0
 15 11  1  0  0  0  0
 15 20  2  0  0  0  0
 16 17  1  1  0  0  0
 16 12  1  0  0  0  0
 18 13  2  0  0  0  0
 19  3  1  0  0  0  0
 19 10  2  0  0  0  0
 20 19  1  0  0  0  0
 21 23  1  0  0  0  0
 23 22  1  6  0  0  0
 23 24  1  0  0  0  0
 24 30  1  0  0  0  0
 25 31  1  0  0  0  0
 27 25  1  0  0  0  0
 28 30  1  0  0  0  0
 28 25  2  0  0  0  0
 29 26  1  0  0  0  0
 30 29  2  0  0  0  0
 31 26  2  0  0  0  0
M  END
>  <MODEL>
9

>  <REMARK>
 VINA RESULT:      -8.7      3.148      5.040
  Name = 
  4 active torsions:
  status: ('A' for Active; 'I' for Inactive)
    1  A    between atoms: N_3  and  C_9
    2  A    between atoms: N_3  and  C_22
    3  A    between atoms: C_9  and  C_23
    4  A    between atoms: C_15  and  C_23
                            x       y       z     vdW  Elec       q    Type
                         _______ _______ _______ _____ _____    ______ ____

>  <TORSDO>
F 4

$$$$
