=
 OpenBabel11052414173D

 34 40  0  0  1  0  0  0  0  0999 V2000
  188.9040  177.1670  146.3140 C   0  0  0  0  0  0  0  0  0  0  0  0
  190.7290  176.9850  144.6720 C   0  0  0  0  0  0  0  0  0  0  0  0
  188.4650  177.4640  143.9520 C   0  0  0  0  0  0  0  0  0  0  0  0
  188.2620  177.7410  141.6010 C   0  0  0  0  0  0  0  0  0  0  0  0
  191.1710  176.6930  147.0390 C   0  0  0  0  0  3  0  0  0  0  0  0
  191.6270  176.7300  145.7120 C   0  0  0  0  0  3  0  0  0  0  0  0
  190.2270  177.2940  142.3990 C   0  0  0  0  0  0  0  0  0  0  0  0
  189.3620  177.2030  144.9900 C   0  0  2  0  0  3  0  0  0  0  0  0
  189.1160  177.7150  140.4960 C   0  0  0  0  0  3  0  0  0  0  0  0
  189.8170  176.9110  147.3400 C   0  0  0  0  0  3  0  0  0  0  0  0
  187.1010  177.7000  144.1820 C   0  0  0  0  0  0  0  0  0  0  0  0
  187.5430  177.3950  146.5760 C   0  0  0  0  0  3  0  0  0  0  0  0
  191.1510  177.0350  143.3660 N   0  0  0  0  0  0  0  0  0  0  0  0
  186.7860  178.0100  141.6770 C   0  0  0  0  0  3  0  0  0  0  0  0
  186.2730  177.9610  143.1290 C   0  0  0  0  0  0  0  0  0  0  0  0
  190.3830  177.4150  141.0320 C   0  0  0  0  0  0  0  0  0  0  0  0
  188.9520  177.4970  142.7060 N   0  0  0  0  0  0  0  0  0  0  0  0
  186.6490  177.6600  145.5190 C   0  0  0  0  0  3  0  0  0  0  0  0
  182.6290  178.6780  142.2310 C   0  0  0  0  0  0  0  0  0  0  0  0
  182.2930  179.5110  143.3050 O   0  0  0  0  0  0  0  0  0  0  0  0
  184.8110  178.2150  143.3650 C   0  0  2  0  0  3  0  0  0  0  0  0
  183.1210  179.6440  144.4610 C   0  0  0  0  0  2  0  0  0  0  0  0
  184.0340  178.1820  142.0510 C   0  0  0  0  0  2  0  0  0  0  0  0
  184.5950  179.5350  144.0960 C   0  0  0  0  0  2  0  0  0  0  0  0
  181.7670  178.4200  141.3520 O   0  0  0  0  0  0  0  0  0  0  0  0
  191.6580  177.3180  140.2680 C   0  0  0  0  0  2  0  0  0  0  0  0
  191.3600  177.1450  138.7880 C   0  0  0  0  0  2  0  0  0  0  0  0
  190.2030  174.8100  137.1840 C   0  0  0  0  0  1  0  0  0  0  0  0
  192.0180  175.8820  138.2470 C   0  0  1  0  0  3  0  0  0  0  0  0
  191.4320  175.5470  136.9370 N   0  0  0  0  0  0  0  0  0  0  0  0
  193.6620  175.3080  135.9090 C   0  0  0  0  0  2  0  0  0  0  0  0
  193.9240  176.4480  136.7930 N   0  0  0  0  0  2  0  0  0  0  0  0
  193.5410  176.0940  138.1570 C   0  0  0  0  0  2  0  0  0  0  0  0
  192.3130  174.6380  136.2060 C   0  0  0  0  0  2  0  0  0  0  0  0
  1 12  1  0  0  0  0
  1 10  2  0  0  0  0
  2  8  1  0  0  0  0
  2  6  1  0  0  0  0
  3 11  2  0  0  0  0
  4 14  1  0  0  0  0
  4 17  1  0  0  0  0
  5 10  1  0  0  0  0
  6  5  2  0  0  0  0
  7 17  1  0  0  0  0
  7 13  1  0  0  0  0
  8  3  1  1  0  0  0
  8  1  1  0  0  0  0
  9 16  1  0  0  0  0
  9  4  2  0  0  0  0
 11 18  1  0  0  0  0
 13  2  2  0  0  0  0
 14 15  2  0  0  0  0
 15 11  1  0  0  0  0
 16  7  2  0  0  0  0
 17  3  1  0  0  0  0
 18 12  2  0  0  0  0
 19 20  1  0  0  0  0
 20 22  1  0  0  0  0
 21 15  1  6  0  0  0
 21 24  1  0  0  0  0
 23 19  1  0  0  0  0
 23 21  1  0  0  0  0
 24 22  1  0  0  0  0
 25 19  2  0  0  0  0
 26 16  1  0  0  0  0
 27 26  1  0  0  0  0
 29 27  1  6  0  0  0
 30 28  1  0  0  0  0
 30 29  1  0  0  0  0
 31 34  1  0  0  0  0
 31 32  1  0  0  0  0
 32 33  1  0  0  0  0
 33 29  1  0  0  0  0
 34 30  1  0  0  0  0
M  END
>  <MODEL>
1

>  <REMARK>
 VINA RESULT:     -10.9      0.000      0.000
  Name = 
  4 active torsions:
  status: ('A' for Active; 'I' for Inactive)
    1  A    between atoms: C_3  and  C_13
    2  A    between atoms: C_3  and  C_17
    3  A    between atoms: C_12  and  C_28
    4  A    between atoms: C_17  and  C_29
                            x       y       z     vdW  Elec       q    Type
                         _______ _______ _______ _____ _____    ______ ____

>  <TORSDO>
F 4

$$$$
=
 OpenBabel11052414173D

 34 40  0  0  1  0  0  0  0  0999 V2000
  185.3520  178.2440  143.4650 C   0  0  0  0  0  0  0  0  0  0  0  0
  185.8200  178.6080  141.0750 C   0  0  0  0  0  0  0  0  0  0  0  0
  187.5860  177.9240  142.5890 C   0  0  0  0  0  0  0  0  0  0  0  0
  189.6890  177.6460  141.5190 C   0  0  0  0  0  0  0  0  0  0  0  0
  183.5800  178.9230  141.9510 C   0  0  0  0  0  3  0  0  0  0  0  0
  184.4780  178.9380  140.8710 C   0  0  0  0  0  3  0  0  0  0  0  0
  188.0100  178.2690  140.2980 C   0  0  0  0  0  0  0  0  0  0  0  0
  186.2460  178.2610  142.3850 C   0  0  0  0  0  0  0  0  0  0  0  0
  190.1930  177.7590  140.2210 C   0  0  0  0  0  3  0  0  0  0  0  0
  184.0130  178.5770  143.2420 C   0  0  0  0  0  3  0  0  0  0  0  0
  188.0840  177.5610  143.8490 C   0  0  0  0  0  0  0  0  0  0  0  0
  185.8220  177.8880  144.7390 C   0  0  0  0  0  3  0  0  0  0  0  0
  186.7160  178.6060  140.0340 N   0  0  0  0  0  0  0  0  0  0  0  0
  190.3750  177.2400  142.7920 C   0  0  0  0  0  2  0  0  0  0  0  0
  189.4010  177.2310  143.9860 C   0  0  0  0  0  0  0  0  0  0  0  0
  189.0930  178.1730  139.4460 C   0  0  0  0  0  0  0  0  0  0  0  0
  188.3970  177.9460  141.5250 N   0  0  0  0  0  0  0  0  0  0  0  0
  187.1760  177.5490  144.9300 C   0  0  0  0  0  3  0  0  0  0  0  0
  190.2030  177.5900  147.7040 C   0  0  0  0  0  0  0  0  0  0  0  0
  191.4510  176.9560  147.7260 O   0  0  0  0  0  0  0  0  0  0  0  0
  189.9440  176.8400  145.3300 C   0  0  2  0  0  3  0  0  0  0  0  0
  191.9350  176.1760  146.6320 C   0  0  0  0  0  2  0  0  0  0  0  0
  189.4760  177.8120  146.4110 C   0  0  0  0  0  2  0  0  0  0  0  0
  191.4650  176.7460  145.3010 C   0  0  0  0  0  2  0  0  0  0  0  0
  189.7290  178.0650  148.7680 O   0  0  0  0  0  0  0  0  0  0  0  0
  189.0920  178.3930  137.9730 C   0  0  0  0  0  2  0  0  0  0  0  0
  189.0360  177.0570  137.2510 C   0  0  0  0  0  2  0  0  0  0  0  0
  188.5050  175.0590  134.9950 C   0  0  0  0  0  1  0  0  0  0  0  0
  188.0890  177.1250  136.0590 C   0  0  1  0  0  3  0  0  0  0  0  0
  187.5350  175.7850  135.7980 N   0  0  0  0  0  0  0  0  0  0  0  0
  185.2310  176.6640  135.7260 C   0  0  0  0  0  2  0  0  0  0  0  0
  185.7720  177.4920  136.8070 N   0  0  0  0  0  2  0  0  0  0  0  0
  186.9830  178.1590  136.3380 C   0  0  0  0  0  2  0  0  0  0  0  0
  186.3260  175.8880  134.9820 C   0  0  0  0  0  2  0  0  0  0  0  0
  1 12  1  0  0  0  0
  2  8  1  0  0  0  0
  3 11  1  0  0  0  0
  4 17  1  0  0  0  0
  4 14  1  0  0  0  0
  5 10  1  0  0  0  0
  6  2  1  0  0  0  0
  6  5  2  0  0  0  0
  7 17  1  0  0  0  0
  8  3  2  0  0  0  0
  8  1  1  0  0  0  0
  9  4  2  0  0  0  0
 10  1  2  0  0  0  0
 11 15  2  0  0  0  0
 11 18  1  0  0  0  0
 12 18  2  0  0  0  0
 13  7  1  0  0  0  0
 13  2  2  0  0  0  0
 14 15  1  0  0  0  0
 16  9  1  0  0  0  0
 16  7  2  0  0  0  0
 17  3  1  0  0  0  0
 19 20  1  0  0  0  0
 19 25  2  0  0  0  0
 21 15  1  6  0  0  0
 21 23  1  0  0  0  0
 22 20  1  0  0  0  0
 23 19  1  0  0  0  0
 24 21  1  0  0  0  0
 24 22  1  0  0  0  0
 26 16  1  0  0  0  0
 27 26  1  0  0  0  0
 28 30  1  0  0  0  0
 29 33  1  0  0  0  0
 29 27  1  1  0  0  0
 30 29  1  0  0  0  0
 31 32  1  0  0  0  0
 33 32  1  0  0  0  0
 34 31  1  0  0  0  0
 34 30  1  0  0  0  0
M  END
>  <MODEL>
2

>  <REMARK>
 VINA RESULT:     -10.5      3.383      6.030
  Name = 
  4 active torsions:
  status: ('A' for Active; 'I' for Inactive)
    1  A    between atoms: C_3  and  C_13
    2  A    between atoms: C_3  and  C_17
    3  A    between atoms: C_12  and  C_28
    4  A    between atoms: C_17  and  C_29
                            x       y       z     vdW  Elec       q    Type
                         _______ _______ _______ _____ _____    ______ ____

>  <TORSDO>
F 4

$$$$
=
 OpenBabel11052414173D

 34 40  0  0  1  0  0  0  0  0999 V2000
  189.5900  177.3710  145.4230 C   0  0  0  0  0  0  0  0  0  0  0  0
  187.2490  177.7360  146.0940 C   0  0  0  0  0  0  0  0  0  0  0  0
  187.9050  177.8990  143.7670 C   0  0  0  0  0  0  0  0  0  0  0  0
  186.0960  178.4020  142.3100 C   0  0  0  0  0  0  0  0  0  0  0  0
  188.9350  177.2010  147.7540 C   0  0  0  0  0  3  0  0  0  0  0  0
  187.6030  177.4990  147.4250 C   0  0  0  0  0  3  0  0  0  0  0  0
  185.6700  178.2360  144.4290 C   0  0  0  0  0  0  0  0  0  0  0  0
  188.2590  177.6690  145.0980 C   0  0  2  0  0  3  0  0  0  0  0  0
  184.7220  178.6210  142.4330 C   0  0  0  0  0  3  0  0  0  0  0  0
  189.9240  177.1370  146.7590 C   0  0  0  0  0  3  0  0  0  0  0  0
  188.8400  177.8420  142.7220 C   0  0  0  0  0  0  0  0  0  0  0  0
  190.5490  177.3110  144.3990 C   0  0  0  0  0  3  0  0  0  0  0  0
  185.9520  178.0210  145.7450 N   0  0  0  0  0  0  0  0  0  0  0  0
  186.9680  178.3810  141.0870 C   0  0  0  0  0  3  0  0  0  0  0  0
  188.4340  178.0660  141.4380 C   0  0  0  0  0  0  0  0  0  0  0  0
  184.4670  178.5190  143.8140 C   0  0  0  0  0  0  0  0  0  0  0  0
  186.6210  178.1700  143.5060 N   0  0  0  0  0  0  0  0  0  0  0  0
  190.1780  177.5440  143.0600 C   0  0  0  0  0  3  0  0  0  0  0  0
  189.6630  177.9880  137.8220 C   0  0  0  0  0  0  0  0  0  0  0  0
  190.7420  177.1070  137.9700 O   0  0  0  0  0  0  0  0  0  0  0  0
  189.4280  178.0060  140.3130 C   0  0  2  0  0  3  0  0  0  0  0  0
  191.2580  176.7350  139.2490 C   0  0  0  0  0  2  0  0  0  0  0  0
  188.7510  178.2880  138.9730 C   0  0  0  0  0  2  0  0  0  0  0  0
  190.1490  176.6640  140.2890 C   0  0  0  0  0  2  0  0  0  0  0  0
  189.3990  178.4590  136.6860 O   0  0  0  0  0  0  0  0  0  0  0  0
  183.1330  178.6260  144.4690 C   0  0  0  0  0  2  0  0  0  0  0  0
  182.2330  179.5430  143.6580 C   0  0  0  0  0  2  0  0  0  0  0  0
  179.3050  178.9830  144.3500 C   0  0  0  0  0  1  0  0  0  0  0  0
  181.1670  178.7420  142.9190 C   0  0  1  0  0  3  0  0  0  0  0  0
  179.8610  179.4050  143.0750 N   0  0  0  0  0  0  0  0  0  0  0  0
  179.4330  179.3090  140.6470 C   0  0  0  0  0  2  0  0  0  0  0  0
  180.8710  179.5940  140.6280 N   0  0  0  0  0  2  0  0  0  0  0  0
  181.5660  178.5990  141.4390 C   0  0  0  0  0  2  0  0  0  0  0  0
  178.9310  178.9370  142.0490 C   0  0  0  0  0  2  0  0  0  0  0  0
  1 10  2  0  0  0  0
  2  6  1  0  0  0  0
  4  9  2  0  0  0  0
  4 17  1  0  0  0  0
  6  5  2  0  0  0  0
  7 13  1  0  0  0  0
  8  3  1  6  0  0  0
  8  1  1  0  0  0  0
  8  2  1  0  0  0  0
  9 16  1  0  0  0  0
 10  5  1  0  0  0  0
 11 18  1  0  0  0  0
 11  3  2  0  0  0  0
 12  1  1  0  0  0  0
 13  2  2  0  0  0  0
 14 15  2  0  0  0  0
 14  4  1  0  0  0  0
 15 11  1  0  0  0  0
 16  7  2  0  0  0  0
 16 26  1  0  0  0  0
 17  3  1  0  0  0  0
 17  7  1  0  0  0  0
 18 12  2  0  0  0  0
 19 20  1  0  0  0  0
 19 23  1  0  0  0  0
 20 22  1  0  0  0  0
 21 15  1  1  0  0  0
 22 24  1  0  0  0  0
 23 21  1  0  0  0  0
 24 21  1  0  0  0  0
 25 19  2  0  0  0  0
 27 26  1  0  0  0  0
 29 30  1  0  0  0  0
 29 27  1  1  0  0  0
 30 28  1  0  0  0  0
 31 34  1  0  0  0  0
 32 31  1  0  0  0  0
 32 33  1  0  0  0  0
 33 29  1  0  0  0  0
 34 30  1  0  0  0  0
M  END
>  <MODEL>
3

>  <REMARK>
 VINA RESULT:     -10.5      3.640      8.146
  Name = 
  4 active torsions:
  status: ('A' for Active; 'I' for Inactive)
    1  A    between atoms: C_3  and  C_13
    2  A    between atoms: C_3  and  C_17
    3  A    between atoms: C_12  and  C_28
    4  A    between atoms: C_17  and  C_29
                            x       y       z     vdW  Elec       q    Type
                         _______ _______ _______ _____ _____    ______ ____

>  <TORSDO>
F 4

$$$$
=
 OpenBabel11052414173D

 34 40  0  0  1  0  0  0  0  0999 V2000
  189.9560  176.9620  145.8760 C   0  0  0  0  0  0  0  0  0  0  0  0
  187.6880  177.8800  146.1550 C   0  0  0  0  0  0  0  0  0  0  0  0
  188.6000  177.4940  143.9430 C   0  0  0  0  0  0  0  0  0  0  0  0
  187.0970  178.0600  142.1920 C   0  0  0  0  0  0  0  0  0  0  0  0
  189.0440  177.3420  148.0940 C   0  0  0  0  0  3  0  0  0  0  0  0
  187.8450  177.8230  147.5420 C   0  0  0  0  0  3  0  0  0  0  0  0
  186.4300  178.3620  144.2320 C   0  0  0  0  0  0  0  0  0  0  0  0
  188.7580  177.4440  145.3290 C   0  0  2  0  0  3  0  0  0  0  0  0
  185.7950  178.5550  142.0890 C   0  0  0  0  0  3  0  0  0  0  0  0
  190.0950  176.9130  147.2660 C   0  0  0  0  0  3  0  0  0  0  0  0
  189.6050  177.0730  143.0580 C   0  0  0  0  0  0  0  0  0  0  0  0
  190.9810  176.5380  145.0160 C   0  0  0  0  0  3  0  0  0  0  0  0
  186.5230  178.3380  145.5910 N   0  0  0  0  0  0  0  0  0  0  0  0
  188.0660  177.6540  141.1180 C   0  0  0  0  0  3  0  0  0  0  0  0
  189.3890  177.1350  141.7120 C   0  0  0  0  0  0  0  0  0  0  0  0
  185.3830  178.7530  143.4210 C   0  0  0  0  0  0  0  0  0  0  0  0
  187.4360  177.9520  143.4690 N   0  0  0  0  0  0  0  0  0  0  0  0
  190.8070  176.5920  143.6190 C   0  0  0  0  0  3  0  0  0  0  0  0
  192.7200  177.2450  139.8440 C   0  0  0  0  0  0  0  0  0  0  0  0
  192.2980  176.7490  138.6040 O   0  0  0  0  0  0  0  0  0  0  0  0
  190.4580  176.6860  140.7560 C   0  0  2  0  0  3  0  0  0  0  0  0
  191.0260  176.1270  138.4190 C   0  0  0  0  0  2  0  0  0  0  0  0
  191.7350  177.5020  140.9450 C   0  0  0  0  0  2  0  0  0  0  0  0
  189.9700  176.7590  139.3140 C   0  0  0  0  0  2  0  0  0  0  0  0
  193.9250  177.5700  140.0040 O   0  0  0  0  0  0  0  0  0  0  0  0
  184.0420  179.2280  143.8620 C   0  0  0  0  0  2  0  0  0  0  0  0
  182.9700  178.2650  143.3810 C   0  0  0  0  0  2  0  0  0  0  0  0
  182.6070  179.0030  140.4330 C   0  0  0  0  0  1  0  0  0  0  0  0
  181.8490  179.0140  142.6690 C   0  0  1  0  0  3  0  0  0  0  0  0
  181.6310  178.4180  141.3390 N   0  0  0  0  0  0  0  0  0  0  0  0
  179.2000  178.2500  141.7230 C   0  0  0  0  0  2  0  0  0  0  0  0
  179.6800  177.9160  143.0670 N   0  0  0  0  0  2  0  0  0  0  0  0
  180.5740  178.9720  143.5320 C   0  0  0  0  0  2  0  0  0  0  0  0
  180.3170  178.7980  140.8240 C   0  0  0  0  0  2  0  0  0  0  0  0
  1 10  2  0  0  0  0
  2  6  1  0  0  0  0
  4 17  1  0  0  0  0
  6  5  2  0  0  0  0
  7 13  1  0  0  0  0
  8  3  1  1  0  0  0
  8  1  1  0  0  0  0
  8  2  1  0  0  0  0
  9  4  2  0  0  0  0
  9 16  1  0  0  0  0
 10  5  1  0  0  0  0
 11 18  1  0  0  0  0
 11  3  2  0  0  0  0
 12  1  1  0  0  0  0
 13  2  2  0  0  0  0
 14 15  2  0  0  0  0
 14  4  1  0  0  0  0
 15 11  1  0  0  0  0
 16 26  1  0  0  0  0
 16  7  2  0  0  0  0
 17  3  1  0  0  0  0
 17  7  1  0  0  0  0
 18 12  2  0  0  0  0
 19 25  2  0  0  0  0
 19 23  1  0  0  0  0
 20 19  1  0  0  0  0
 21 23  1  0  0  0  0
 21 15  1  1  0  0  0
 22 20  1  0  0  0  0
 22 24  1  0  0  0  0
 24 21  1  0  0  0  0
 27 26  1  0  0  0  0
 28 30  1  0  0  0  0
 29 27  1  1  0  0  0
 29 33  1  0  0  0  0
 30 29  1  0  0  0  0
 31 32  1  0  0  0  0
 32 33  1  0  0  0  0
 34 30  1  0  0  0  0
 34 31  1  0  0  0  0
M  END
>  <MODEL>
4

>  <REMARK>
 VINA RESULT:     -10.4      3.764      8.141
  Name = 
  4 active torsions:
  status: ('A' for Active; 'I' for Inactive)
    1  A    between atoms: C_3  and  C_13
    2  A    between atoms: C_3  and  C_17
    3  A    between atoms: C_12  and  C_28
    4  A    between atoms: C_17  and  C_29
                            x       y       z     vdW  Elec       q    Type
                         _______ _______ _______ _____ _____    ______ ____

>  <TORSDO>
F 4

$$$$
=
 OpenBabel11052414173D

 34 40  0  0  1  0  0  0  0  0999 V2000
  186.1750  178.1430  146.3760 C   0  0  0  0  0  0  0  0  0  0  0  0
  188.1250  177.7350  144.9290 C   0  0  0  0  0  0  0  0  0  0  0  0
  185.9700  178.2920  143.9690 C   0  0  0  0  0  0  0  0  0  0  0  0
  185.9970  178.4090  141.5960 C   0  0  0  0  0  0  0  0  0  0  0  0
  188.3330  177.5900  147.3420 C   0  0  0  0  0  3  0  0  0  0  0  0
  188.9070  177.5040  146.0630 C   0  0  0  0  0  3  0  0  0  0  0  0
  187.8490  177.9070  142.6030 C   0  0  0  0  0  0  0  0  0  0  0  0
  186.7520  178.0550  145.1020 C   0  0  2  0  0  3  0  0  0  0  0  0
  186.9430  178.2530  140.5810 C   0  0  0  0  0  3  0  0  0  0  0  0
  186.9740  177.9090  147.4990 C   0  0  0  0  0  3  0  0  0  0  0  0
  184.6090  178.6240  144.0540 C   0  0  0  0  0  0  0  0  0  0  0  0
  184.8140  178.4690  146.4930 C   0  0  0  0  0  3  0  0  0  0  0  0
  188.6640  177.6650  143.6680 N   0  0  0  0  0  0  0  0  0  0  0  0
  184.5410  178.7690  141.5150 C   0  0  0  0  0  3  0  0  0  0  0  0
  183.8980  178.8560  142.9120 C   0  0  0  0  0  0  0  0  0  0  0  0
  188.1350  177.9190  141.2520 C   0  0  0  0  0  0  0  0  0  0  0  0
  186.5680  178.2060  142.7750 N   0  0  0  0  0  0  0  0  0  0  0  0
  184.0380  178.7080  145.3420 C   0  0  0  0  0  3  0  0  0  0  0  0
  180.2090  178.4320  143.8140 C   0  0  0  0  0  0  0  0  0  0  0  0
  179.6330  179.0120  142.6780 O   0  0  0  0  0  0  0  0  0  0  0  0
  182.4410  179.2120  142.9920 C   0  0  2  0  0  3  0  0  0  0  0  0
  180.3890  179.7790  141.7400 C   0  0  0  0  0  2  0  0  0  0  0  0
  181.6950  178.2520  143.9170 C   0  0  0  0  0  2  0  0  0  0  0  0
  181.8060  179.2400  141.6070 C   0  0  0  0  0  2  0  0  0  0  0  0
  179.4680  177.9690  144.7180 O   0  0  0  0  0  0  0  0  0  0  0  0
  189.4640  177.6920  140.6190 C   0  0  0  0  0  2  0  0  0  0  0  0
  189.4260  178.1370  139.1670 C   0  0  0  0  0  2  0  0  0  0  0  0
  188.5020  177.7050  136.2810 C   0  0  0  0  0  1  0  0  0  0  0  0
  189.5960  176.9460  138.2300 C   0  0  1  0  0  3  0  0  0  0  0  0
  189.8090  177.4320  136.8560 N   0  0  0  0  0  0  0  0  0  0  0  0
  191.7890  175.9880  136.5670 C   0  0  0  0  0  2  0  0  0  0  0  0
  191.9780  176.3810  137.9660 N   0  0  0  0  0  2  0  0  0  0  0  0
  190.7660  176.0710  138.7180 C   0  0  0  0  0  2  0  0  0  0  0  0
  190.4030  176.3780  136.0340 C   0  0  0  0  0  2  0  0  0  0  0  0
  1 12  1  0  0  0  0
  1 10  2  0  0  0  0
  2  8  1  0  0  0  0
  2  6  1  0  0  0  0
  3 11  2  0  0  0  0
  4 17  1  0  0  0  0
  5 10  1  0  0  0  0
  6  5  2  0  0  0  0
  7 17  1  0  0  0  0
  7 13  1  0  0  0  0
  8  3  1  1  0  0  0
  8  1  1  0  0  0  0
  9 16  1  0  0  0  0
  9  4  2  0  0  0  0
 11 18  1  0  0  0  0
 13  2  2  0  0  0  0
 14  4  1  0  0  0  0
 14 15  2  0  0  0  0
 15 11  1  0  0  0  0
 16  7  2  0  0  0  0
 17  3  1  0  0  0  0
 18 12  2  0  0  0  0
 19 23  1  0  0  0  0
 19 25  2  0  0  0  0
 20 19  1  0  0  0  0
 21 15  1  6  0  0  0
 21 23  1  0  0  0  0
 22 20  1  0  0  0  0
 24 22  1  0  0  0  0
 24 21  1  0  0  0  0
 26 16  1  0  0  0  0
 27 26  1  0  0  0  0
 28 30  1  0  0  0  0
 29 33  1  0  0  0  0
 29 27  1  1  0  0  0
 30 29  1  0  0  0  0
 31 32  1  0  0  0  0
 32 33  1  0  0  0  0
 34 31  1  0  0  0  0
 34 30  1  0  0  0  0
M  END
>  <MODEL>
5

>  <REMARK>
 VINA RESULT:     -10.3      1.724      2.788
  Name = 
  4 active torsions:
  status: ('A' for Active; 'I' for Inactive)
    1  A    between atoms: C_3  and  C_13
    2  A    between atoms: C_3  and  C_17
    3  A    between atoms: C_12  and  C_28
    4  A    between atoms: C_17  and  C_29
                            x       y       z     vdW  Elec       q    Type
                         _______ _______ _______ _____ _____    ______ ____

>  <TORSDO>
F 4

$$$$
=
 OpenBabel11052414173D

 34 40  0  0  1  0  0  0  0  0999 V2000
  185.2120  178.3010  143.3240 C   0  0  0  0  0  0  0  0  0  0  0  0
  185.7370  178.6450  140.9430 C   0  0  0  0  0  0  0  0  0  0  0  0
  187.4620  177.9570  142.5000 C   0  0  0  0  0  0  0  0  0  0  0  0
  189.5860  177.6530  141.4800 C   0  0  0  0  0  0  0  0  0  0  0  0
  183.4810  178.9850  141.7660 C   0  0  0  0  0  3  0  0  0  0  0  0
  184.4030  178.9850  140.7070 C   0  0  0  0  0  3  0  0  0  0  0  0
  187.9410  178.2810  140.2170 C   0  0  0  0  0  0  0  0  0  0  0  0
  186.1300  178.3030  142.2650 C   0  0  0  0  0  0  0  0  0  0  0  0
  190.1200  177.7530  140.1930 C   0  0  0  0  0  3  0  0  0  0  0  0
  183.8820  178.6450  143.0690 C   0  0  0  0  0  3  0  0  0  0  0  0
  187.9290  177.5970  143.7740 C   0  0  0  0  0  0  0  0  0  0  0  0
  185.6510  177.9500  144.6110 C   0  0  0  0  0  3  0  0  0  0  0  0
  186.6560  178.6290  139.9230 N   0  0  0  0  0  0  0  0  0  0  0  0
  190.2410  177.2500  142.7710 C   0  0  0  0  0  2  0  0  0  0  0  0
  189.2400  177.2570  143.9420 C   0  0  0  0  0  0  0  0  0  0  0  0
  189.0410  178.1700  139.3910 C   0  0  0  0  0  0  0  0  0  0  0  0
  188.2980  177.9640  141.4550 N   0  0  0  0  0  0  0  0  0  0  0  0
  186.9970  177.6010  144.8340 C   0  0  0  0  0  3  0  0  0  0  0  0
  189.9370  177.6230  147.6810 C   0  0  0  0  0  0  0  0  0  0  0  0
  191.1890  176.9990  147.7370 O   0  0  0  0  0  0  0  0  0  0  0  0
  189.7490  176.8710  145.3020 C   0  0  2  0  0  3  0  0  0  0  0  0
  191.7090  176.2230  146.6570 C   0  0  0  0  0  2  0  0  0  0  0  0
  189.2440  177.8400  146.3680 C   0  0  0  0  0  2  0  0  0  0  0  0
  191.2710  176.7890  145.3140 C   0  0  0  0  0  2  0  0  0  0  0  0
  189.4320  178.0950  148.7310 O   0  0  0  0  0  0  0  0  0  0  0  0
  189.0750  178.3810  137.9170 C   0  0  0  0  0  2  0  0  0  0  0  0
  188.2660  177.2980  137.2220 C   0  0  0  0  0  2  0  0  0  0  0  0
  187.4360  174.3750  136.8600 C   0  0  0  0  0  1  0  0  0  0  0  0
  189.1020  176.0380  137.0280 C   0  0  1  0  0  3  0  0  0  0  0  0
  188.4120  175.1330  136.0930 N   0  0  0  0  0  0  0  0  0  0  0  0
  190.4510  174.8490  134.7340 C   0  0  0  0  0  2  0  0  0  0  0  0
  190.5820  176.2690  135.0730 N   0  0  0  0  0  2  0  0  0  0  0  0
  190.5050  176.4250  136.5220 C   0  0  0  0  0  2  0  0  0  0  0  0
  189.3520  174.1540  135.5500 C   0  0  0  0  0  2  0  0  0  0  0  0
  1 12  1  0  0  0  0
  2  8  1  0  0  0  0
  3 11  1  0  0  0  0
  4 14  1  0  0  0  0
  5 10  1  0  0  0  0
  6  2  1  0  0  0  0
  6  5  2  0  0  0  0
  7 17  1  0  0  0  0
  8  3  2  0  0  0  0
  8  1  1  0  0  0  0
  9  4  2  0  0  0  0
 10  1  2  0  0  0  0
 11 15  2  0  0  0  0
 11 18  1  0  0  0  0
 12 18  2  0  0  0  0
 13  7  1  0  0  0  0
 13  2  2  0  0  0  0
 14 15  1  0  0  0  0
 16  9  1  0  0  0  0
 16  7  2  0  0  0  0
 17  4  1  0  0  0  0
 17  3  1  0  0  0  0
 19 20  1  0  0  0  0
 19 25  2  0  0  0  0
 21 15  1  6  0  0  0
 21 24  1  0  0  0  0
 21 23  1  0  0  0  0
 22 20  1  0  0  0  0
 23 19  1  0  0  0  0
 24 22  1  0  0  0  0
 26 16  1  0  0  0  0
 27 26  1  0  0  0  0
 29 27  1  6  0  0  0
 30 28  1  0  0  0  0
 30 29  1  0  0  0  0
 31 32  1  0  0  0  0
 31 34  1  0  0  0  0
 32 33  1  0  0  0  0
 33 29  1  0  0  0  0
 34 30  1  0  0  0  0
M  END
>  <MODEL>
6

>  <REMARK>
 VINA RESULT:     -10.3      2.944      5.506
  Name = 
  4 active torsions:
  status: ('A' for Active; 'I' for Inactive)
    1  A    between atoms: C_3  and  C_13
    2  A    between atoms: C_3  and  C_17
    3  A    between atoms: C_12  and  C_28
    4  A    between atoms: C_17  and  C_29
                            x       y       z     vdW  Elec       q    Type
                         _______ _______ _______ _____ _____    ______ ____

>  <TORSDO>
F 4

$$$$
=
 OpenBabel11052414173D

 34 40  0  0  1  0  0  0  0  0999 V2000
  185.7790  178.1920  145.9590 C   0  0  0  0  0  0  0  0  0  0  0  0
  185.6470  178.5400  143.5250 C   0  0  0  0  0  0  0  0  0  0  0  0
  187.6970  177.7500  144.5500 C   0  0  0  0  0  0  0  0  0  0  0  0
  189.4420  177.3570  142.9860 C   0  0  0  0  0  0  0  0  0  0  0  0
  183.7230  178.9780  144.9350 C   0  0  0  0  0  3  0  0  0  0  0  0
  184.3180  178.9470  143.6630 C   0  0  0  0  0  3  0  0  0  0  0  0
  187.5470  178.0800  142.2220 C   0  0  0  0  0  0  0  0  0  0  0  0
  186.3700  178.1630  144.6880 C   0  0  0  0  0  0  0  0  0  0  0  0
  189.6070  177.4480  141.6020 C   0  0  0  0  0  3  0  0  0  0  0  0
  184.4480  178.6020  146.0780 C   0  0  0  0  0  3  0  0  0  0  0  0
  188.4760  177.3530  145.6470 C   0  0  0  0  0  0  0  0  0  0  0  0
  186.5350  177.8040  147.0760 C   0  0  0  0  0  3  0  0  0  0  0  0
  186.2500  178.4920  142.2920 N   0  0  0  0  0  0  0  0  0  0  0  0
  190.4040  176.9070  144.0480 C   0  0  0  0  0  2  0  0  0  0  0  0
  189.7650  176.9480  145.4490 C   0  0  0  0  0  0  0  0  0  0  0  0
  188.3720  177.9270  141.1260 C   0  0  0  0  0  0  0  0  0  0  0  0
  188.2130  177.7310  143.3150 N   0  0  0  0  0  0  0  0  0  0  0  0
  187.8720  177.3870  146.9220 C   0  0  0  0  0  3  0  0  0  0  0  0
  191.9990  177.3560  148.5210 C   0  0  0  0  0  0  0  0  0  0  0  0
  192.8530  176.2650  148.3240 O   0  0  0  0  0  0  0  0  0  0  0  0
  190.6070  176.5200  146.6170 C   0  0  2  0  0  3  0  0  0  0  0  0
  192.5760  175.2350  147.3730 C   0  0  0  0  0  2  0  0  0  0  0  0
  190.9600  177.7150  147.5010 C   0  0  0  0  0  2  0  0  0  0  0  0
  191.8640  175.7950  146.1500 C   0  0  0  0  0  2  0  0  0  0  0  0
  192.1680  178.1030  149.5190 O   0  0  0  0  0  0  0  0  0  0  0  0
  188.0110  178.1540  139.6990 C   0  0  0  0  0  2  0  0  0  0  0  0
  189.2260  178.6460  138.9310 C   0  0  0  0  0  2  0  0  0  0  0  0
  190.4120  175.9020  138.2740 C   0  0  0  0  0  1  0  0  0  0  0  0
  189.3640  177.9080  137.6040 C   0  0  1  0  0  3  0  0  0  0  0  0
  189.1510  176.4670  137.8210 N   0  0  0  0  0  0  0  0  0  0  0  0
  187.5270  176.3450  135.9680 C   0  0  0  0  0  2  0  0  0  0  0  0
  187.1680  177.6550  136.5180 N   0  0  0  0  0  2  0  0  0  0  0  0
  188.3630  178.4900  136.5870 C   0  0  0  0  0  2  0  0  0  0  0  0
  188.8390  175.8050  136.5560 C   0  0  0  0  0  2  0  0  0  0  0  0
  1 10  2  0  0  0  0
  1 12  1  0  0  0  0
  2  6  1  0  0  0  0
  2  8  1  0  0  0  0
  3  8  2  0  0  0  0
  3 11  1  0  0  0  0
  4 17  1  0  0  0  0
  4 14  1  0  0  0  0
  5 10  1  0  0  0  0
  6  5  2  0  0  0  0
  7 13  1  0  0  0  0
  7 17  1  0  0  0  0
  8  1  1  0  0  0  0
  9  4  2  0  0  0  0
 11 18  1  0  0  0  0
 13  2  2  0  0  0  0
 14 15  1  0  0  0  0
 15 11  2  0  0  0  0
 16  9  1  0  0  0  0
 16  7  2  0  0  0  0
 17  3  1  0  0  0  0
 18 12  2  0  0  0  0
 19 25  2  0  0  0  0
 20 19  1  0  0  0  0
 21 15  1  6  0  0  0
 21 23  1  0  0  0  0
 22 20  1  0  0  0  0
 23 19  1  0  0  0  0
 24 21  1  0  0  0  0
 24 22  1  0  0  0  0
 26 16  1  0  0  0  0
 27 26  1  0  0  0  0
 29 30  1  0  0  0  0
 29 27  1  1  0  0  0
 30 28  1  0  0  0  0
 31 32  1  0  0  0  0
 31 34  1  0  0  0  0
 32 33  1  0  0  0  0
 33 29  1  0  0  0  0
 34 30  1  0  0  0  0
M  END
>  <MODEL>
7

>  <REMARK>
 VINA RESULT:     -10.1      3.541      6.055
  Name = 
  4 active torsions:
  status: ('A' for Active; 'I' for Inactive)
    1  A    between atoms: C_3  and  C_13
    2  A    between atoms: C_3  and  C_17
    3  A    between atoms: C_12  and  C_28
    4  A    between atoms: C_17  and  C_29
                            x       y       z     vdW  Elec       q    Type
                         _______ _______ _______ _____ _____    ______ ____

>  <TORSDO>
F 4

$$$$
=
 OpenBabel11052414173D

 34 40  0  0  1  0  0  0  0  0999 V2000
  186.7510  178.0640  146.5100 C   0  0  0  0  0  0  0  0  0  0  0  0
  188.8820  177.4940  145.4160 C   0  0  0  0  0  0  0  0  0  0  0  0
  186.9320  178.0670  144.0960 C   0  0  0  0  0  0  0  0  0  0  0  0
  187.3340  178.0310  141.7550 C   0  0  0  0  0  0  0  0  0  0  0  0
  188.7040  177.4970  147.8350 C   0  0  0  0  0  3  0  0  0  0  0  0
  189.4670  177.3080  146.6710 C   0  0  0  0  0  3  0  0  0  0  0  0
  188.9820  177.5270  143.0700 C   0  0  0  0  0  0  0  0  0  0  0  0
  187.5150  177.8740  145.3500 C   0  0  2  0  0  3  0  0  0  0  0  0
  188.4200  177.7760  140.9130 C   0  0  0  0  0  3  0  0  0  0  0  0
  187.3530  177.8730  147.7560 C   0  0  0  0  0  3  0  0  0  0  0  0
  185.5910  178.4530  143.9450 C   0  0  0  0  0  0  0  0  0  0  0  0
  185.4050  178.4460  146.3900 C   0  0  0  0  0  3  0  0  0  0  0  0
  189.6080  177.3240  144.2630 N   0  0  0  0  0  0  0  0  0  0  0  0
  185.9270  178.4370  141.4230 C   0  0  0  0  0  3  0  0  0  0  0  0
  185.0780  178.6370  142.6930 C   0  0  0  0  0  0  0  0  0  0  0  0
  189.4750  177.4420  141.7830 C   0  0  0  0  0  0  0  0  0  0  0  0
  187.7050  177.8830  143.0190 N   0  0  0  0  0  0  0  0  0  0  0  0
  184.8300  178.6390  145.1190 C   0  0  0  0  0  3  0  0  0  0  0  0
  181.3230  178.7160  143.3950 C   0  0  0  0  0  0  0  0  0  0  0  0
  180.8530  178.8480  142.0830 O   0  0  0  0  0  0  0  0  0  0  0  0
  183.6440  179.0490  142.5210 C   0  0  2  0  0  3  0  0  0  0  0  0
  181.7100  179.1800  140.9900 C   0  0  0  0  0  2  0  0  0  0  0  0
  182.7860  178.5340  143.6740 C   0  0  0  0  0  2  0  0  0  0  0  0
  183.0960  178.5800  141.1780 C   0  0  0  0  0  2  0  0  0  0  0  0
  180.5010  178.6530  144.3450 O   0  0  0  0  0  0  0  0  0  0  0  0
  190.8750  177.1280  141.3830 C   0  0  0  0  0  2  0  0  0  0  0  0
  191.1090  177.5570  139.9440 C   0  0  0  0  0  2  0  0  0  0  0  0
  189.5560  176.0340  137.7900 C   0  0  0  0  0  1  0  0  0  0  0  0
  191.5050  176.3640  139.0810 C   0  0  1  0  0  3  0  0  0  0  0  0
  190.9250  176.5210  137.7350 N   0  0  0  0  0  0  0  0  0  0  0  0
  193.0990  176.0710  136.6580 C   0  0  0  0  0  2  0  0  0  0  0  0
  193.5570  176.8540  137.8100 N   0  0  0  0  0  2  0  0  0  0  0  0
  193.0400  176.2510  139.0350 C   0  0  0  0  0  2  0  0  0  0  0  0
  191.6240  175.6620  136.7810 C   0  0  0  0  0  2  0  0  0  0  0  0
  1 10  2  0  0  0  0
  2  6  1  0  0  0  0
  4 17  1  0  0  0  0
  6  5  2  0  0  0  0
  7 13  1  0  0  0  0
  8  3  1  1  0  0  0
  8  2  1  0  0  0  0
  8  1  1  0  0  0  0
  9  4  2  0  0  0  0
  9 16  1  0  0  0  0
 10  5  1  0  0  0  0
 11  3  2  0  0  0  0
 11 18  1  0  0  0  0
 12  1  1  0  0  0  0
 13  2  2  0  0  0  0
 14  4  1  0  0  0  0
 14 15  2  0  0  0  0
 15 11  1  0  0  0  0
 16  7  2  0  0  0  0
 17  7  1  0  0  0  0
 17  3  1  0  0  0  0
 18 12  2  0  0  0  0
 19 23  1  0  0  0  0
 19 25  2  0  0  0  0
 20 19  1  0  0  0  0
 21 15  1  1  0  0  0
 21 23  1  0  0  0  0
 22 24  1  0  0  0  0
 22 20  1  0  0  0  0
 24 21  1  0  0  0  0
 26 16  1  0  0  0  0
 27 26  1  0  0  0  0
 29 27  1  1  0  0  0
 30 28  1  0  0  0  0
 30 29  1  0  0  0  0
 31 34  1  0  0  0  0
 31 32  1  0  0  0  0
 32 33  1  0  0  0  0
 33 29  1  0  0  0  0
 34 30  1  0  0  0  0
M  END
>  <MODEL>
8

>  <REMARK>
 VINA RESULT:      -9.8      1.242      1.943
  Name = 
  4 active torsions:
  status: ('A' for Active; 'I' for Inactive)
    1  A    between atoms: C_3  and  C_13
    2  A    between atoms: C_3  and  C_17
    3  A    between atoms: C_12  and  C_28
    4  A    between atoms: C_17  and  C_29
                            x       y       z     vdW  Elec       q    Type
                         _______ _______ _______ _____ _____    ______ ____

>  <TORSDO>
F 4

$$$$
=
 OpenBabel11052414173D

 34 40  0  0  1  0  0  0  0  0999 V2000
  190.0050  177.2620  140.3640 C   0  0  0  0  0  0  0  0  0  0  0  0
  187.9820  178.0740  139.2190 C   0  0  0  0  0  0  0  0  0  0  0  0
  188.0000  177.7640  141.6230 C   0  0  0  0  0  0  0  0  0  0  0  0
  185.9410  178.3370  142.6620 C   0  0  0  0  0  0  0  0  0  0  0  0
  189.9920  177.5760  137.9560 C   0  0  0  0  0  3  0  0  0  0  0  0
  188.6570  178.0090  137.9980 C   0  0  0  0  0  3  0  0  0  0  0  0
  186.0780  178.5480  140.5100 C   0  0  0  0  0  0  0  0  0  0  0  0
  188.6720  177.6940  140.4010 C   0  0  0  0  0  0  0  0  0  0  0  0
  184.6980  178.8280  142.2560 C   0  0  0  0  0  3  0  0  0  0  0  0
  190.6640  177.2040  139.1330 C   0  0  0  0  0  3  0  0  0  0  0  0
  188.6130  177.4170  142.8370 C   0  0  0  0  0  0  0  0  0  0  0  0
  190.6440  176.9040  141.5610 C   0  0  0  0  0  3  0  0  0  0  0  0
  186.6780  178.5020  139.2870 N   0  0  0  0  0  0  0  0  0  0  0  0
  186.4480  178.0030  144.0370 C   0  0  0  0  0  2  0  0  0  0  0  0
  187.9090  177.5160  144.0020 C   0  0  0  0  0  0  0  0  0  0  0  0
  184.8030  178.9490  140.8570 C   0  0  0  0  0  0  0  0  0  0  0  0
  186.7310  178.1920  141.6080 N   0  0  0  0  0  0  0  0  0  0  0  0
  189.9540  176.9820  142.7880 C   0  0  0  0  0  3  0  0  0  0  0  0
  188.4290  177.4560  147.7860 C   0  0  0  0  0  0  0  0  0  0  0  0
  189.8290  177.4390  147.8200 O   0  0  0  0  0  0  0  0  0  0  0  0
  188.5560  177.1480  145.3060 C   0  0  2  0  0  3  0  0  0  0  0  0
  190.6210  177.1800  146.6600 C   0  0  0  0  0  2  0  0  0  0  0  0
  187.6920  177.5860  146.4860 C   0  0  0  0  0  2  0  0  0  0  0  0
  189.9590  177.7350  145.4070 C   0  0  0  0  0  2  0  0  0  0  0  0
  187.7830  177.4600  148.8650 O   0  0  0  0  0  0  0  0  0  0  0  0
  183.7540  179.4790  139.9420 C   0  0  0  0  0  2  0  0  0  0  0  0
  183.0450  178.3280  139.2490 C   0  0  0  0  0  2  0  0  0  0  0  0
  180.8080  176.3730  138.5130 C   0  0  0  0  0  1  0  0  0  0  0  0
  181.5410  178.3940  139.4880 C   0  0  1  0  0  3  0  0  0  0  0  0
  181.0330  177.0440  139.7840 N   0  0  0  0  0  0  0  0  0  0  0  0
  179.8400  177.8440  141.7890 C   0  0  0  0  0  2  0  0  0  0  0  0
  181.0530  178.6620  141.8870 N   0  0  0  0  0  2  0  0  0  0  0  0
  181.2460  179.3830  140.6320 C   0  0  0  0  0  2  0  0  0  0  0  0
  179.7270  177.1270  140.4370 C   0  0  0  0  0  2  0  0  0  0  0  0
  1  8  1  0  0  0  0
  1 12  1  0  0  0  0
  2 13  2  0  0  0  0
  2  8  1  0  0  0  0
  3 11  1  0  0  0  0
  4 14  1  0  0  0  0
  5  6  2  0  0  0  0
  5 10  1  0  0  0  0
  6  2  1  0  0  0  0
  7 16  2  0  0  0  0
  7 17  1  0  0  0  0
  8  3  2  0  0  0  0
  9  4  2  0  0  0  0
 10  1  2  0  0  0  0
 11 15  2  0  0  0  0
 12 18  2  0  0  0  0
 13  7  1  0  0  0  0
 15 14  1  0  0  0  0
 16  9  1  0  0  0  0
 17  3  1  0  0  0  0
 17  4  1  0  0  0  0
 18 11  1  0  0  0  0
 19 20  1  0  0  0  0
 19 25  2  0  0  0  0
 21 15  1  6  0  0  0
 21 24  1  0  0  0  0
 21 23  1  0  0  0  0
 22 20  1  0  0  0  0
 23 19  1  0  0  0  0
 24 22  1  0  0  0  0
 26 16  1  0  0  0  0
 27 26  1  0  0  0  0
 28 30  1  0  0  0  0
 29 27  1  1  0  0  0
 29 30  1  0  0  0  0
 29 33  1  0  0  0  0
 30 34  1  0  0  0  0
 31 32  1  0  0  0  0
 33 32  1  0  0  0  0
 34 31  1  0  0  0  0
M  END
>  <MODEL>
9

>  <REMARK>
 VINA RESULT:      -9.7      3.467      7.979
  Name = 
  4 active torsions:
  status: ('A' for Active; 'I' for Inactive)
    1  A    between atoms: C_3  and  C_13
    2  A    between atoms: C_3  and  C_17
    3  A    between atoms: C_12  and  C_28
    4  A    between atoms: C_17  and  C_29
                            x       y       z     vdW  Elec       q    Type
                         _______ _______ _______ _____ _____    ______ ____

>  <TORSDO>
F 4

$$$$
