=
 OpenBabel11052412443D

 25 28  0  0  1  0  0  0  0  0999 V2000
  187.7550  176.7740  143.3160 C   0  0  0  0  0  0  0  0  0  0  0  0
  188.8080  177.2670  142.4620 N   0  0  0  0  0  0  0  0  0  0  0  0
  190.8510  176.3180  144.8260 C   0  0  1  0  0  3  0  0  0  0  0  0
  190.9780  178.6800  144.0470 C   0  0  2  0  0  3  0  0  0  0  0  0
  190.6070  175.5360  142.4630 C   0  0  0  0  0  2  0  0  0  0  0  0
  191.6450  177.7690  143.0770 C   0  0  0  0  0  0  0  0  0  0  0  0
  192.2670  178.1600  142.1030 O   0  0  0  0  0  0  0  0  0  0  0  0
  190.6350  177.7660  145.2320 C   0  0  2  0  0  0  0  0  0  0  0  0
  189.0640  178.6900  142.2490 C   0  0  0  0  0  2  0  0  0  0  0  0
  187.7480  175.5540  143.6360 O   0  0  0  0  0  0  0  0  0  0  0  0
  191.4950  176.3280  143.4390 C   0  0  1  0  0  3  0  0  0  0  0  0
  191.7880  176.9640  145.8490 C   0  0  1  0  0  3  0  0  0  0  0  0
  189.7170  179.3610  143.4690 C   0  0  0  0  0  2  0  0  0  0  0  0
  189.5920  176.3470  141.6400 C   0  0  0  0  0  2  0  0  0  0  0  0
  189.3660  177.9910  146.0530 C   0  0  0  0  0  1  0  0  0  0  0  0
  186.6700  177.6500  143.8240 C   0  0  0  0  0  0  0  0  0  0  0  0
  184.6640  179.3570  144.8120 C   0  0  0  0  0  3  0  0  0  0  0  0
  185.8170  178.3400  142.9380 C   0  0  0  0  0  0  0  0  0  0  0  0
  184.8180  179.1830  143.4360 C   0  0  0  0  0  3  0  0  0  0  0  0
  185.5110  178.6880  145.6970 C   0  0  0  0  0  3  0  0  0  0  0  0
  185.9290  178.1850  141.5950 F   0  0  0  0  0  0  0  0  0  0  0  0
  186.5100  177.8450  145.2060 C   0  0  0  0  0  3  0  0  0  0  0  0
  191.5020  176.4440  147.2260 C   0  0  0  0  0  0  0  0  0  0  0  0
  190.8250  175.2440  147.3990 O   0  0  0  0  0  0  0  0  0  0  0  0
  191.9170  177.0760  148.2330 O   0  0  0  0  0  1  0  0  0  0  0  0
  1 10  2  0  0  0  0
  1 16  1  0  0  0  0
  2  1  1  0  0  0  0
  3  8  1  0  0  0  0
  3 12  1  0  0  0  0
  4  8  1  0  0  0  0
  5 11  1  0  0  0  0
  6 11  1  0  0  0  0
  6  4  1  0  0  0  0
  7  6  2  0  0  0  0
  8 12  1  0  0  0  0
  8 15  1  0  0  0  0
  9  2  1  0  0  0  0
  9 13  1  0  0  0  0
 11  3  1  0  0  0  0
 12 23  1  0  0  0  0
 13  4  1  0  0  0  0
 14  2  1  0  0  0  0
 14  5  1  0  0  0  0
 16 22  1  0  0  0  0
 17 20  1  0  0  0  0
 18 19  1  0  0  0  0
 18 16  2  0  0  0  0
 19 17  2  0  0  0  0
 21 18  1  0  0  0  0
 22 20  2  0  0  0  0
 23 24  2  0  0  0  0
 23 25  1  0  0  0  0
M  END
>  <MODEL>
1

>  <REMARK>
 VINA RESULT:      -7.2      0.000      0.000
  Name = 
  2 active torsions:
  status: ('A' for Active; 'I' for Inactive)
    1  A    between atoms: C_1  and  C_5
    2  A    between atoms: C_2  and  C_21
                            x       y       z     vdW  Elec       q    Type
                         _______ _______ _______ _____ _____    ______ ____

>  <TORSDO>
F 2

$$$$
=
 OpenBabel11052412443D

 25 28  0  0  1  0  0  0  0  0999 V2000
  187.7040  176.8080  143.2190 C   0  0  0  0  0  0  0  0  0  0  0  0
  188.7960  177.2190  142.3690 N   0  0  0  0  0  0  0  0  0  0  0  0
  190.7390  176.4040  144.8640 C   0  0  1  0  0  3  0  0  0  0  0  0
  190.9410  178.7010  143.9240 C   0  0  2  0  0  3  0  0  0  0  0  0
  190.5560  175.4580  142.5560 C   0  0  0  0  0  2  0  0  0  0  0  0
  191.6210  177.7100  143.0460 C   0  0  0  0  0  0  0  0  0  0  0  0
  192.2830  178.0190  142.0680 O   0  0  0  0  0  0  0  0  0  0  0  0
  190.5400  177.8810  145.1590 C   0  0  2  0  0  0  0  0  0  0  0  0
  189.0890  178.6180  142.0650 C   0  0  0  0  0  2  0  0  0  0  0  0
  187.6610  175.6140  143.6250 O   0  0  0  0  0  0  0  0  0  0  0  0
  191.4280  176.3020  143.5030 C   0  0  1  0  0  3  0  0  0  0  0  0
  191.6550  177.1040  145.8710 C   0  0  1  0  0  3  0  0  0  0  0  0
  189.7150  179.3620  143.2550 C   0  0  0  0  0  2  0  0  0  0  0  0
  189.5870  176.2280  141.6430 C   0  0  0  0  0  2  0  0  0  0  0  0
  189.2490  178.1880  145.9170 C   0  0  0  0  0  1  0  0  0  0  0  0
  186.6220  177.7380  143.6260 C   0  0  0  0  0  0  0  0  0  0  0  0
  184.5250  179.4630  144.3580 C   0  0  0  0  0  3  0  0  0  0  0  0
  186.1590  177.7780  144.9580 C   0  0  0  0  0  0  0  0  0  0  0  0
  185.1200  178.6420  145.3160 C   0  0  0  0  0  3  0  0  0  0  0  0
  184.9670  179.4230  143.0350 C   0  0  0  0  0  3  0  0  0  0  0  0
  186.7230  177.0030  145.9180 F   0  0  0  0  0  0  0  0  0  0  0  0
  186.0050  178.5630  142.6720 C   0  0  0  0  0  3  0  0  0  0  0  0
  191.3120  176.6890  147.2700 C   0  0  0  0  0  0  0  0  0  0  0  0
  190.3880  175.6780  147.4990 O   0  0  0  0  0  0  0  0  0  0  0  0
  191.8980  177.2300  148.2450 O   0  0  0  0  0  1  0  0  0  0  0  0
  1 10  2  0  0  0  0
  1 16  1  0  0  0  0
  2  1  1  0  0  0  0
  3  8  1  0  0  0  0
  3 12  1  0  0  0  0
  4  8  1  0  0  0  0
  5 11  1  0  0  0  0
  6 11  1  0  0  0  0
  6  4  1  0  0  0  0
  7  6  2  0  0  0  0
  8 12  1  0  0  0  0
  8 15  1  0  0  0  0
  9  2  1  0  0  0  0
  9 13  1  0  0  0  0
 11  3  1  0  0  0  0
 12 23  1  0  0  0  0
 13  4  1  0  0  0  0
 14  2  1  0  0  0  0
 14  5  1  0  0  0  0
 16 18  1  0  0  0  0
 17 19  1  0  0  0  0
 18 19  2  0  0  0  0
 18 21  1  0  0  0  0
 20 17  2  0  0  0  0
 22 20  1  0  0  0  0
 22 16  2  0  0  0  0
 23 24  2  0  0  0  0
 23 25  1  0  0  0  0
M  END
>  <MODEL>
2

>  <REMARK>
 VINA RESULT:      -6.9      0.954      1.348
  Name = 
  2 active torsions:
  status: ('A' for Active; 'I' for Inactive)
    1  A    between atoms: C_1  and  C_5
    2  A    between atoms: C_2  and  C_21
                            x       y       z     vdW  Elec       q    Type
                         _______ _______ _______ _____ _____    ______ ____

>  <TORSDO>
F 2

$$$$
=
 OpenBabel11052412443D

 25 28  0  0  1  0  0  0  0  0999 V2000
  183.7610  179.3640  138.9450 C   0  0  0  0  0  0  0  0  0  0  0  0
  182.9880  178.3600  138.2550 N   0  0  0  0  0  0  0  0  0  0  0  0
  180.5320  179.2330  140.2230 C   0  0  1  0  0  3  0  0  0  0  0  0
  181.1780  176.8290  140.1530 C   0  0  2  0  0  3  0  0  0  0  0  0
  180.7720  179.3870  137.7390 C   0  0  0  0  0  2  0  0  0  0  0  0
  180.3740  177.1940  138.9550 C   0  0  0  0  0  0  0  0  0  0  0  0
  179.9930  176.3830  138.1260 O   0  0  0  0  0  0  0  0  0  0  0  0
  181.1210  178.0880  141.0300 C   0  0  2  0  0  0  0  0  0  0  0  0
  183.1800  176.9250  138.4560 C   0  0  0  0  0  2  0  0  0  0  0  0
  183.3800  180.5660  138.9020 O   0  0  0  0  0  0  0  0  0  0  0  0
  180.0610  178.6520  138.8900 C   0  0  1  0  0  3  0  0  0  0  0  0
  179.7280  178.6310  141.3770 C   0  0  1  0  0  3  0  0  0  0  0  0
  182.6340  176.4400  139.8090 C   0  0  0  0  0  2  0  0  0  0  0  0
  182.0550  178.7360  137.1950 C   0  0  0  0  0  2  0  0  0  0  0  0
  182.3120  178.4940  141.8960 C   0  0  0  0  0  1  0  0  0  0  0  0
  184.9980  179.0350  139.6960 C   0  0  0  0  0  0  0  0  0  0  0  0
  187.3080  178.3560  141.1500 C   0  0  0  0  0  3  0  0  0  0  0  0
  186.1460  178.5540  139.0320 C   0  0  0  0  0  0  0  0  0  0  0  0
  187.2940  178.2230  139.7610 C   0  0  0  0  0  3  0  0  0  0  0  0
  186.1740  178.8190  141.8170 C   0  0  0  0  0  3  0  0  0  0  0  0
  186.1710  178.4240  137.6820 F   0  0  0  0  0  0  0  0  0  0  0  0
  185.0260  179.1520  141.0950 C   0  0  0  0  0  3  0  0  0  0  0  0
  179.7120  179.5640  142.5500 C   0  0  0  0  0  0  0  0  0  0  0  0
  179.8790  180.9310  142.3660 O   0  0  0  0  0  0  0  0  0  0  0  0
  179.5020  179.1130  143.7070 O   0  0  0  0  0  1  0  0  0  0  0  0
  1 16  1  0  0  0  0
  2  9  1  0  0  0  0
  2  1  1  0  0  0  0
  3  8  1  0  0  0  0
  3 12  1  0  0  0  0
  4  8  1  0  0  0  0
  5 11  1  0  0  0  0
  6  4  1  0  0  0  0
  7  6  2  0  0  0  0
  8 12  1  0  0  0  0
  8 15  1  0  0  0  0
  9 13  1  0  0  0  0
 10  1  2  0  0  0  0
 11  6  1  0  0  0  0
 11  3  1  0  0  0  0
 12 23  1  0  0  0  0
 13  4  1  0  0  0  0
 14  5  1  0  0  0  0
 14  2  1  0  0  0  0
 16 22  1  0  0  0  0
 17 20  1  0  0  0  0
 18 16  2  0  0  0  0
 18 19  1  0  0  0  0
 19 17  2  0  0  0  0
 21 18  1  0  0  0  0
 22 20  2  0  0  0  0
 23 25  1  0  0  0  0
 24 23  2  0  0  0  0
M  END
>  <MODEL>
3

>  <REMARK>
 VINA RESULT:      -5.7      6.080      9.433
  Name = 
  2 active torsions:
  status: ('A' for Active; 'I' for Inactive)
    1  A    between atoms: C_1  and  C_5
    2  A    between atoms: C_2  and  C_21
                            x       y       z     vdW  Elec       q    Type
                         _______ _______ _______ _____ _____    ______ ____

>  <TORSDO>
F 2

$$$$
=
 OpenBabel11052412443D

 25 28  0  0  1  0  0  0  0  0999 V2000
  183.9460  178.5670  140.3490 C   0  0  0  0  0  0  0  0  0  0  0  0
  183.4320  177.4580  139.5810 N   0  0  0  0  0  0  0  0  0  0  0  0
  181.6960  179.6930  137.9510 C   0  0  1  0  0  3  0  0  0  0  0  0
  180.4740  177.7800  138.9740 C   0  0  2  0  0  3  0  0  0  0  0  0
  183.5060  178.1480  137.1830 C   0  0  0  0  0  2  0  0  0  0  0  0
  181.1520  177.3600  137.7170 C   0  0  0  0  0  0  0  0  0  0  0  0
  181.0150  176.2580  137.2120 O   0  0  0  0  0  0  0  0  0  0  0  0
  180.6850  179.3000  139.0140 C   0  0  2  0  0  0  0  0  0  0  0  0
  182.4650  176.4980  140.1100 C   0  0  0  0  0  2  0  0  0  0  0  0
  184.5830  179.4790  139.7540 O   0  0  0  0  0  0  0  0  0  0  0  0
  181.9960  178.4410  137.1260 C   0  0  1  0  0  3  0  0  0  0  0  0
  180.2300  180.0980  137.7850 C   0  0  1  0  0  3  0  0  0  0  0  0
  181.0520  177.0910  140.2320 C   0  0  0  0  0  2  0  0  0  0  0  0
  183.9750  177.1540  138.2580 C   0  0  0  0  0  2  0  0  0  0  0  0
  180.8750  180.0290  140.3440 C   0  0  0  0  0  1  0  0  0  0  0  0
  183.7600  178.6680  141.8180 C   0  0  0  0  0  0  0  0  0  0  0  0
  183.3650  178.8010  144.5990 C   0  0  0  0  0  3  0  0  0  0  0  0
  184.8220  178.3980  142.7050 C   0  0  0  0  0  0  0  0  0  0  0  0
  184.6210  178.4730  144.0880 C   0  0  0  0  0  3  0  0  0  0  0  0
  182.3040  179.0570  143.7300 C   0  0  0  0  0  3  0  0  0  0  0  0
  186.0600  178.0880  142.2430 F   0  0  0  0  0  0  0  0  0  0  0  0
  182.5000  178.9860  142.3490 C   0  0  0  0  0  3  0  0  0  0  0  0
  180.0570  181.5650  138.0400 C   0  0  0  0  0  0  0  0  0  0  0  0
  181.1190  182.4420  137.8550 O   0  0  0  0  0  0  0  0  0  0  0  0
  178.9320  182.0130  138.3820 O   0  0  0  0  0  1  0  0  0  0  0  0
  1 16  1  0  0  0  0
  2  9  1  0  0  0  0
  2  1  1  0  0  0  0
  3  8  1  0  0  0  0
  4  8  1  0  0  0  0
  4 13  1  0  0  0  0
  5 14  1  0  0  0  0
  6  4  1  0  0  0  0
  7  6  2  0  0  0  0
  8 15  1  0  0  0  0
  9 13  1  0  0  0  0
 10  1  2  0  0  0  0
 11  5  1  0  0  0  0
 11  6  1  0  0  0  0
 11  3  1  0  0  0  0
 12  3  1  0  0  0  0
 12 23  1  0  0  0  0
 12  8  1  0  0  0  0
 14  2  1  0  0  0  0
 16 22  2  0  0  0  0
 16 18  1  0  0  0  0
 18 19  2  0  0  0  0
 19 17  1  0  0  0  0
 20 17  2  0  0  0  0
 21 18  1  0  0  0  0
 22 20  1  0  0  0  0
 23 25  1  0  0  0  0
 24 23  2  0  0  0  0
M  END
>  <MODEL>
4

>  <REMARK>
 VINA RESULT:      -5.4      6.124      9.732
  Name = 
  2 active torsions:
  status: ('A' for Active; 'I' for Inactive)
    1  A    between atoms: C_1  and  C_5
    2  A    between atoms: C_2  and  C_21
                            x       y       z     vdW  Elec       q    Type
                         _______ _______ _______ _____ _____    ______ ____

>  <TORSDO>
F 2

$$$$
=
 OpenBabel11052412443D

 25 28  0  0  1  0  0  0  0  0999 V2000
  187.7930  177.0210  143.6360 C   0  0  0  0  0  0  0  0  0  0  0  0
  188.6270  177.7890  142.7440 N   0  0  0  0  0  0  0  0  0  0  0  0
  190.9620  175.6110  143.4280 C   0  0  1  0  0  3  0  0  0  0  0  0
  191.4710  178.0230  143.7820 C   0  0  2  0  0  3  0  0  0  0  0  0
  189.8100  176.1530  141.2760 C   0  0  0  0  0  2  0  0  0  0  0  0
  191.5430  177.6760  142.3360 C   0  0  0  0  0  0  0  0  0  0  0  0
  191.9190  178.4530  141.4740 O   0  0  0  0  0  0  0  0  0  0  0  0
  191.2740  176.6670  144.4750 C   0  0  2  0  0  0  0  0  0  0  0  0
  189.1770  179.0980  143.0930 C   0  0  0  0  0  2  0  0  0  0  0  0
  187.5580  175.8110  143.3640 O   0  0  0  0  0  0  0  0  0  0  0  0
  191.1310  176.2680  142.0580 C   0  0  1  0  0  3  0  0  0  0  0  0
  192.3030  175.5710  144.1650 C   0  0  1  0  0  3  0  0  0  0  0  0
  190.3230  179.0040  144.1120 C   0  0  0  0  0  2  0  0  0  0  0  0
  188.8490  177.3500  141.3680 C   0  0  0  0  0  2  0  0  0  0  0  0
  190.4240  176.5500  145.7390 C   0  0  0  0  0  1  0  0  0  0  0  0
  187.1890  177.6060  144.8590 C   0  0  0  0  0  0  0  0  0  0  0  0
  186.1020  178.7610  147.1820 C   0  0  0  0  0  3  0  0  0  0  0  0
  185.9870  178.3410  144.7980 C   0  0  0  0  0  0  0  0  0  0  0  0
  185.4480  178.9080  145.9570 C   0  0  0  0  0  3  0  0  0  0  0  0
  187.2980  178.0470  147.2510 C   0  0  0  0  0  3  0  0  0  0  0  0
  185.3190  178.4930  143.6270 F   0  0  0  0  0  0  0  0  0  0  0  0
  187.8400  177.4780  146.0970 C   0  0  0  0  0  3  0  0  0  0  0  0
  192.3220  174.4530  145.1630 C   0  0  0  0  0  0  0  0  0  0  0  0
  192.5330  174.7140  146.5110 O   0  0  0  0  0  1  0  0  0  0  0  0
  192.1000  173.2720  144.7850 O   0  0  0  0  0  0  0  0  0  0  0  0
  1 16  1  0  0  0  0
  2  9  1  0  0  0  0
  2  1  1  0  0  0  0
  3 12  1  0  0  0  0
  3  8  1  0  0  0  0
  4 13  1  0  0  0  0
  4  8  1  0  0  0  0
  5 14  1  0  0  0  0
  5 11  1  0  0  0  0
  6  4  1  0  0  0  0
  7  6  2  0  0  0  0
  8 15  1  0  0  0  0
  9 13  1  0  0  0  0
 10  1  2  0  0  0  0
 11  6  1  0  0  0  0
 11  3  1  0  0  0  0
 12  8  1  0  0  0  0
 12 23  1  0  0  0  0
 14  2  1  0  0  0  0
 16 22  1  0  0  0  0
 17 20  1  0  0  0  0
 18 16  2  0  0  0  0
 18 19  1  0  0  0  0
 19 17  2  0  0  0  0
 21 18  1  0  0  0  0
 22 20  2  0  0  0  0
 23 24  1  0  0  0  0
 25 23  2  0  0  0  0
M  END
>  <MODEL>
5

>  <REMARK>
 VINA RESULT:      -5.2      1.393      1.958
  Name = 
  2 active torsions:
  status: ('A' for Active; 'I' for Inactive)
    1  A    between atoms: C_1  and  C_5
    2  A    between atoms: C_2  and  C_21
                            x       y       z     vdW  Elec       q    Type
                         _______ _______ _______ _____ _____    ______ ____

>  <TORSDO>
F 2

$$$$
=
 OpenBabel11052412443D

 25 28  0  0  1  0  0  0  0  0999 V2000
  188.1170  176.7390  142.7500 C   0  0  0  0  0  0  0  0  0  0  0  0
  189.4680  177.1810  142.4980 N   0  0  0  0  0  0  0  0  0  0  0  0
  189.9570  176.7530  145.6990 C   0  0  1  0  0  3  0  0  0  0  0  0
  190.5000  178.9770  144.7180 C   0  0  2  0  0  3  0  0  0  0  0  0
  190.9780  175.6140  143.7200 C   0  0  0  0  0  2  0  0  0  0  0  0
  191.5660  177.9870  144.4020 C   0  0  0  0  0  0  0  0  0  0  0  0
  192.6110  178.2770  143.8430 O   0  0  0  0  0  0  0  0  0  0  0  0
  189.5760  178.2240  145.6860 C   0  0  2  0  0  0  0  0  0  0  0  0
  189.8140  178.5730  142.2160 C   0  0  0  0  0  2  0  0  0  0  0  0
  187.9300  175.5830  143.2180 O   0  0  0  0  0  0  0  0  0  0  0  0
  191.2320  176.6080  144.8670 C   0  0  1  0  0  3  0  0  0  0  0  0
  190.2260  177.6130  146.9350 C   0  0  1  0  0  3  0  0  0  0  0  0
  189.7370  179.4650  143.4660 C   0  0  0  0  0  2  0  0  0  0  0  0
  190.5560  176.2140  142.3690 C   0  0  0  0  0  2  0  0  0  0  0  0
  188.0680  178.4680  145.6790 C   0  0  0  0  0  1  0  0  0  0  0  0
  186.9370  177.5940  142.4690 C   0  0  0  0  0  0  0  0  0  0  0  0
  184.7280  179.2640  141.9790 C   0  0  0  0  0  3  0  0  0  0  0  0
  186.7490  178.1780  141.1990 C   0  0  0  0  0  0  0  0  0  0  0  0
  185.6440  179.0030  140.9600 C   0  0  0  0  0  3  0  0  0  0  0  0
  184.9120  178.7020  143.2420 C   0  0  0  0  0  3  0  0  0  0  0  0
  187.6130  177.9360  140.1810 F   0  0  0  0  0  0  0  0  0  0  0  0
  186.0110  177.8760  143.4860 C   0  0  0  0  0  3  0  0  0  0  0  0
  189.2550  177.2820  148.0280 C   0  0  0  0  0  0  0  0  0  0  0  0
  188.9040  178.2370  148.9730 O   0  0  0  0  0  1  0  0  0  0  0  0
  188.7190  176.1430  148.0650 O   0  0  0  0  0  0  0  0  0  0  0  0
  1 10  2  0  0  0  0
  2  1  1  0  0  0  0
  3 12  1  0  0  0  0
  4  8  1  0  0  0  0
  5 11  1  0  0  0  0
  6  4  1  0  0  0  0
  6 11  1  0  0  0  0
  7  6  2  0  0  0  0
  8  3  1  0  0  0  0
  8 12  1  0  0  0  0
  9  2  1  0  0  0  0
  9 13  1  0  0  0  0
 11  3  1  0  0  0  0
 12 23  1  0  0  0  0
 13  4  1  0  0  0  0
 14  2  1  0  0  0  0
 14  5  1  0  0  0  0
 15  8  1  0  0  0  0
 16  1  1  0  0  0  0
 16 22  1  0  0  0  0
 17 20  1  0  0  0  0
 18 16  2  0  0  0  0
 19 18  1  0  0  0  0
 19 17  2  0  0  0  0
 20 22  2  0  0  0  0
 21 18  1  0  0  0  0
 23 25  2  0  0  0  0
 23 24  1  0  0  0  0
M  END
>  <MODEL>
6

>  <REMARK>
 VINA RESULT:      -5.0      1.455      1.898
  Name = 
  2 active torsions:
  status: ('A' for Active; 'I' for Inactive)
    1  A    between atoms: C_1  and  C_5
    2  A    between atoms: C_2  and  C_21
                            x       y       z     vdW  Elec       q    Type
                         _______ _______ _______ _____ _____    ______ ____

>  <TORSDO>
F 2

$$$$
=
 OpenBabel11052412443D

 25 28  0  0  1  0  0  0  0  0999 V2000
  180.2500  179.0290  138.1880 C   0  0  0  0  0  0  0  0  0  0  0  0
  180.6660  177.7300  137.7160 N   0  0  0  0  0  0  0  0  0  0  0  0
  182.6270  177.6690  140.3280 C   0  0  1  0  0  3  0  0  0  0  0  0
  183.6490  177.2990  138.0870 C   0  0  2  0  0  3  0  0  0  0  0  0
  180.6900  176.2170  139.7020 C   0  0  0  0  0  2  0  0  0  0  0  0
  182.9510  176.0710  138.5570 C   0  0  0  0  0  0  0  0  0  0  0  0
  182.9900  175.0040  137.9650 O   0  0  0  0  0  0  0  0  0  0  0  0
  183.5830  178.2430  139.2950 C   0  0  2  0  0  0  0  0  0  0  0  0
  181.5310  177.5410  136.5530 C   0  0  0  0  0  2  0  0  0  0  0  0
  179.7090  179.1220  139.3250 O   0  0  0  0  0  0  0  0  0  0  0  0
  182.2210  176.2760  139.8430 C   0  0  1  0  0  3  0  0  0  0  0  0
  184.1270  177.7090  140.6270 C   0  0  1  0  0  3  0  0  0  0  0  0
  182.9920  177.9260  136.8360 C   0  0  0  0  0  2  0  0  0  0  0  0
  180.1150  176.5120  138.3060 C   0  0  0  0  0  2  0  0  0  0  0  0
  183.4450  179.7530  139.1020 C   0  0  0  0  0  1  0  0  0  0  0  0
  180.4250  180.2600  137.3790 C   0  0  0  0  0  0  0  0  0  0  0  0
  180.6860  182.5910  135.8260 C   0  0  0  0  0  3  0  0  0  0  0  0
  180.6710  181.5060  137.9930 C   0  0  0  0  0  0  0  0  0  0  0  0
  180.8060  182.6600  137.2150 C   0  0  0  0  0  3  0  0  0  0  0  0
  180.4310  181.3660  135.2100 C   0  0  0  0  0  3  0  0  0  0  0  0
  180.8050  181.6080  139.3390 F   0  0  0  0  0  0  0  0  0  0  0  0
  180.2960  180.2100  135.9810 C   0  0  0  0  0  3  0  0  0  0  0  0
  184.4340  178.7770  141.6330 C   0  0  0  0  0  0  0  0  0  0  0  0
  185.5940  179.5350  141.5250 O   0  0  0  0  0  0  0  0  0  0  0  0
  183.6150  179.0200  142.5580 O   0  0  0  0  0  1  0  0  0  0  0  0
  1 10  2  0  0  0  0
  2  1  1  0  0  0  0
  2 14  1  0  0  0  0
  3 12  1  0  0  0  0
  4  6  1  0  0  0  0
  4  8  1  0  0  0  0
  5 11  1  0  0  0  0
  6 11  1  0  0  0  0
  7  6  2  0  0  0  0
  8  3  1  0  0  0  0
  8 12  1  0  0  0  0
  9 13  1  0  0  0  0
  9  2  1  0  0  0  0
 11  3  1  0  0  0  0
 12 23  1  0  0  0  0
 13  4  1  0  0  0  0
 14  5  1  0  0  0  0
 15  8  1  0  0  0  0
 16 18  1  0  0  0  0
 16  1  1  0  0  0  0
 17 19  1  0  0  0  0
 18 21  1  0  0  0  0
 19 18  2  0  0  0  0
 20 17  2  0  0  0  0
 20 22  1  0  0  0  0
 22 16  2  0  0  0  0
 23 25  1  0  0  0  0
 24 23  2  0  0  0  0
M  END
>  <MODEL>
7

>  <REMARK>
 VINA RESULT:      -4.9      6.858      9.636
  Name = 
  2 active torsions:
  status: ('A' for Active; 'I' for Inactive)
    1  A    between atoms: C_1  and  C_5
    2  A    between atoms: C_2  and  C_21
                            x       y       z     vdW  Elec       q    Type
                         _______ _______ _______ _____ _____    ______ ____

>  <TORSDO>
F 2

$$$$
=
 OpenBabel11052412443D

 25 28  0  0  1  0  0  0  0  0999 V2000
  181.0800  178.0130  140.8840 C   0  0  0  0  0  0  0  0  0  0  0  0
  180.2620  178.9930  140.2110 N   0  0  0  0  0  0  0  0  0  0  0  0
  181.2530  177.5740  137.4410 C   0  0  1  0  0  3  0  0  0  0  0  0
  181.5930  180.0290  137.6860 C   0  0  2  0  0  3  0  0  0  0  0  0
  178.9750  177.7730  138.4550 C   0  0  0  0  0  2  0  0  0  0  0  0
  180.1730  179.7240  137.3590 C   0  0  0  0  0  0  0  0  0  0  0  0
  179.3350  180.5810  137.1270 O   0  0  0  0  0  0  0  0  0  0  0  0
  182.2970  178.6710  137.5620 C   0  0  2  0  0  0  0  0  0  0  0  0
  180.6320  180.4030  140.1010 C   0  0  0  0  0  2  0  0  0  0  0  0
  180.8170  176.7880  140.7310 O   0  0  0  0  0  0  0  0  0  0  0  0
  179.8910  178.2590  137.3170 C   0  0  1  0  0  3  0  0  0  0  0  0
  182.1300  177.9180  136.2360 C   0  0  1  0  0  3  0  0  0  0  0  0
  181.7710  180.6380  139.0960 C   0  0  0  0  0  2  0  0  0  0  0  0
  178.9310  178.6420  139.7220 C   0  0  0  0  0  2  0  0  0  0  0  0
  183.4660  178.3080  138.4780 C   0  0  0  0  0  1  0  0  0  0  0  0
  182.2150  178.3940  141.7610 C   0  0  0  0  0  0  0  0  0  0  0  0
  184.3840  179.1680  143.3760 C   0  0  0  0  0  3  0  0  0  0  0  0
  181.9940  178.9940  143.0180 C   0  0  0  0  0  0  0  0  0  0  0  0
  183.0770  179.3710  143.8190 C   0  0  0  0  0  3  0  0  0  0  0  0
  184.6140  178.5870  142.1280 C   0  0  0  0  0  3  0  0  0  0  0  0
  180.7360  179.1940  143.4870 F   0  0  0  0  0  0  0  0  0  0  0  0
  183.5370  178.2070  141.3250 C   0  0  0  0  0  3  0  0  0  0  0  0
  183.1540  176.8470  136.0080 C   0  0  0  0  0  0  0  0  0  0  0  0
  182.9390  175.5560  136.4730 O   0  0  0  0  0  1  0  0  0  0  0  0
  184.1970  177.1070  135.3520 O   0  0  0  0  0  0  0  0  0  0  0  0
  1 16  1  0  0  0  0
  2  1  1  0  0  0  0
  3  8  1  0  0  0  0
  4 13  1  0  0  0  0
  5 14  1  0  0  0  0
  6  4  1  0  0  0  0
  7  6  2  0  0  0  0
  8  4  1  0  0  0  0
  8 15  1  0  0  0  0
  9  2  1  0  0  0  0
 10  1  2  0  0  0  0
 11  6  1  0  0  0  0
 11  3  1  0  0  0  0
 11  5  1  0  0  0  0
 12  3  1  0  0  0  0
 12  8  1  0  0  0  0
 13  9  1  0  0  0  0
 14  2  1  0  0  0  0
 16 18  1  0  0  0  0
 17 19  1  0  0  0  0
 18 21  1  0  0  0  0
 18 19  2  0  0  0  0
 20 17  2  0  0  0  0
 22 16  2  0  0  0  0
 22 20  1  0  0  0  0
 23 12  1  0  0  0  0
 23 24  1  0  0  0  0
 25 23  2  0  0  0  0
M  END
>  <MODEL>
8

>  <REMARK>
 VINA RESULT:      -4.8      6.908     10.155
  Name = 
  2 active torsions:
  status: ('A' for Active; 'I' for Inactive)
    1  A    between atoms: C_1  and  C_5
    2  A    between atoms: C_2  and  C_21
                            x       y       z     vdW  Elec       q    Type
                         _______ _______ _______ _____ _____    ______ ____

>  <TORSDO>
F 2

$$$$
=
 OpenBabel11052412443D

 25 28  0  0  1  0  0  0  0  0999 V2000
  180.9690  178.6520  141.1230 C   0  0  0  0  0  0  0  0  0  0  0  0
  180.8710  179.5000  139.9590 N   0  0  0  0  0  0  0  0  0  0  0  0
  180.4840  176.7340  138.2650 C   0  0  1  0  0  3  0  0  0  0  0  0
  182.2940  178.2940  137.5630 C   0  0  2  0  0  3  0  0  0  0  0  0
  178.9360  178.6660  138.6210 C   0  0  0  0  0  2  0  0  0  0  0  0
  180.9670  178.7860  137.1020 C   0  0  0  0  0  0  0  0  0  0  0  0
  180.8220  179.7580  136.3780 O   0  0  0  0  0  0  0  0  0  0  0  0
  181.9890  176.9070  138.1450 C   0  0  2  0  0  0  0  0  0  0  0  0
  182.0210  180.1820  139.3680 C   0  0  0  0  0  2  0  0  0  0  0  0
  179.9910  177.9150  141.4260 O   0  0  0  0  0  0  0  0  0  0  0  0
  179.8350  177.9480  137.5980 C   0  0  1  0  0  3  0  0  0  0  0  0
  181.2590  175.9140  137.2310 C   0  0  1  0  0  3  0  0  0  0  0  0
  182.9520  179.2210  138.6110 C   0  0  0  0  0  2  0  0  0  0  0  0
  179.5680  179.8370  139.3910 C   0  0  0  0  0  2  0  0  0  0  0  0
  182.7670  176.3750  139.3480 C   0  0  0  0  0  1  0  0  0  0  0  0
  182.1770  178.6220  141.9840 C   0  0  0  0  0  0  0  0  0  0  0  0
  184.4950  178.6220  143.5780 C   0  0  0  0  0  3  0  0  0  0  0  0
  182.1140  179.0060  143.3400 C   0  0  0  0  0  0  0  0  0  0  0  0
  183.2690  178.9970  144.1290 C   0  0  0  0  0  3  0  0  0  0  0  0
  184.5710  178.2530  142.2350 C   0  0  0  0  0  3  0  0  0  0  0  0
  180.9370  179.3650  143.9110 F   0  0  0  0  0  0  0  0  0  0  0  0
  183.4210  178.2580  141.4430 C   0  0  0  0  0  3  0  0  0  0  0  0
  181.3700  174.4850  137.6700 C   0  0  0  0  0  0  0  0  0  0  0  0
  180.4300  173.9380  138.5350 O   0  0  0  0  0  1  0  0  0  0  0  0
  182.2960  173.7610  137.2190 O   0  0  0  0  0  0  0  0  0  0  0  0
  1 10  2  0  0  0  0
  1 16  1  0  0  0  0
  2  1  1  0  0  0  0
  4  8  1  0  0  0  0
  4 13  1  0  0  0  0
  5 14  1  0  0  0  0
  6  4  1  0  0  0  0
  6 11  1  0  0  0  0
  7  6  2  0  0  0  0
  8  3  1  0  0  0  0
  8 15  1  0  0  0  0
  9  2  1  0  0  0  0
 11  3  1  0  0  0  0
 11  5  1  0  0  0  0
 12 23  1  0  0  0  0
 12  8  1  0  0  0  0
 12  3  1  0  0  0  0
 13  9  1  0  0  0  0
 14  2  1  0  0  0  0
 16 18  1  0  0  0  0
 17 19  1  0  0  0  0
 18 21  1  0  0  0  0
 18 19  2  0  0  0  0
 20 17  2  0  0  0  0
 22 16  2  0  0  0  0
 22 20  1  0  0  0  0
 23 24  1  0  0  0  0
 25 23  2  0  0  0  0
M  END
>  <MODEL>
9

>  <REMARK>
 VINA RESULT:      -4.8      6.985      9.984
  Name = 
  2 active torsions:
  status: ('A' for Active; 'I' for Inactive)
    1  A    between atoms: C_1  and  C_5
    2  A    between atoms: C_2  and  C_21
                            x       y       z     vdW  Elec       q    Type
                         _______ _______ _______ _____ _____    ______ ____

>  <TORSDO>
F 2

$$$$
