=
 OpenBabel11052413383D

 27 31  0  0  1  0  0  0  0  0999 V2000
  190.4820  177.9770  143.5050 C   0  0  0  0  0  2  0  0  0  0  0  0
  188.4150  177.5340  144.8210 C   0  0  0  0  0  0  0  0  0  0  0  0
  187.5500  177.3630  142.4350 N   0  0  0  0  0  0  0  0  0  0  0  0
  184.6020  178.7920  145.7600 N   0  0  0  0  0  0  0  0  0  0  0  0
  182.6440  179.0700  144.3160 C   0  0  0  0  0  1  0  0  0  0  0  0
  188.1310  177.8800  146.1700 C   0  0  0  0  0  3  0  0  0  0  0  0
  184.9250  178.2970  143.6400 C   0  0  0  0  0  0  0  0  0  0  0  0
  189.8410  177.2630  139.9310 C   0  0  0  0  0  0  0  0  0  0  0  0
  184.6320  178.1120  142.1880 C   0  0  0  0  0  1  0  0  0  0  0  0
  190.2620  177.0850  138.5820 N   0  0  0  0  0  1  0  0  0  0  0  0
  186.1270  178.0790  144.2850 C   0  0  0  0  0  0  0  0  0  0  0  0
  189.7880  177.0220  144.4550 C   0  0  2  0  0  3  0  0  0  0  0  0
  184.0330  178.7230  144.5630 N   0  0  0  0  0  0  0  0  0  0  0  0
  185.8790  178.4010  145.5950 C   0  0  0  0  0  0  0  0  0  0  0  0
  189.9890  177.7020  142.1330 C   0  0  0  0  0  0  0  0  0  0  0  0
  187.3860  177.6610  143.8360 C   0  0  0  0  0  0  0  0  0  0  0  0
  188.6170  177.0910  140.3130 N   0  0  0  0  0  0  0  0  0  0  0  0
  186.8610  178.3190  146.5690 C   0  0  0  0  0  3  0  0  0  0  0  0
  192.1250  177.8560  140.9550 N   0  0  0  0  0  1  0  0  0  0  0  0
  190.7170  177.6460  141.0330 C   0  0  0  0  0  0  0  0  0  0  0  0
  188.6330  177.3580  141.7140 C   0  0  0  0  0  0  0  0  0  0  0  0
  192.3030  175.8790  147.7580 C   0  0  0  0  0  3  0  0  0  0  0  0
  190.6660  176.6470  145.6160 C   0  0  0  0  0  0  0  0  0  0  0  0
  190.5000  177.2370  146.8800 C   0  0  0  0  0  3  0  0  0  0  0  0
  191.3190  176.8540  147.9470 C   0  0  0  0  0  3  0  0  0  0  0  0
  192.4680  175.2850  146.5030 C   0  0  0  0  0  3  0  0  0  0  0  0
  191.6490  175.6680  145.4350 C   0  0  0  0  0  3  0  0  0  0  0  0
  1 12  1  0  0  0  0
  2  6  1  0  0  0  0
  3 16  1  0  0  0  0
  5 13  1  0  0  0  0
  6 18  2  0  0  0  0
  7 11  2  0  0  0  0
  7 13  1  0  0  0  0
  8 17  2  0  0  0  0
  8 20  1  0  0  0  0
  9  7  1  0  0  0  0
 10  8  1  0  0  0  0
 11 14  1  0  0  0  0
 12  2  1  0  0  0  0
 12 23  1  1  0  0  0
 13  4  1  0  0  0  0
 14  4  2  0  0  0  0
 14 18  1  0  0  0  0
 15  1  1  0  0  0  0
 16 11  1  0  0  0  0
 16  2  2  0  0  0  0
 17 21  1  0  0  0  0
 19 20  1  0  0  0  0
 20 15  2  0  0  0  0
 21 15  1  0  0  0  0
 21  3  2  0  0  0  0
 22 25  1  0  0  0  0
 23 24  1  0  0  0  0
 24 25  2  0  0  0  0
 26 22  2  0  0  0  0
 27 23  2  0  0  0  0
 27 26  1  0  0  0  0
M  END
>  <MODEL>
1

>  <REMARK>
 VINA RESULT:     -10.6      0.000      0.000
  Name = 
  1 active torsions:
  status: ('A' for Active; 'I' for Inactive)
    1  A    between atoms: C_9  and  C_15
                            x       y       z     vdW  Elec       q    Type
                         _______ _______ _______ _____ _____    ______ ____

>  <TORSDO>
F 1

$$$$
=
 OpenBabel11052413383D

 27 31  0  0  1  0  0  0  0  0999 V2000
  187.8360  178.7930  140.8290 C   0  0  0  0  0  2  0  0  0  0  0  0
  189.5180  177.4770  142.1090 C   0  0  0  0  0  0  0  0  0  0  0  0
  187.5240  177.4310  143.6880 N   0  0  0  0  0  0  0  0  0  0  0  0
  191.8100  177.2240  145.5280 N   0  0  0  0  0  0  0  0  0  0  0  0
  191.1160  177.0760  147.8720 C   0  0  0  0  0  1  0  0  0  0  0  0
  190.9330  177.4770  141.9750 C   0  0  0  0  0  3  0  0  0  0  0  0
  189.6340  177.2270  145.8610 C   0  0  0  0  0  0  0  0  0  0  0  0
  184.5390  178.5190  142.4890 C   0  0  0  0  0  0  0  0  0  0  0  0
  188.3320  177.2020  146.5910 C   0  0  0  0  0  1  0  0  0  0  0  0
  183.1310  178.7190  142.5430 N   0  0  0  0  0  1  0  0  0  0  0  0
  189.8250  177.3150  144.4960 C   0  0  0  0  0  0  0  0  0  0  0  0
  188.6520  177.5180  140.8720 C   0  0  2  0  0  3  0  0  0  0  0  0
  190.8530  177.1730  146.4460 N   0  0  0  0  0  0  0  0  0  0  0  0
  191.1880  177.3110  144.3380 C   0  0  0  0  0  0  0  0  0  0  0  0
  186.6400  178.6050  141.6880 C   0  0  0  0  0  0  0  0  0  0  0  0
  188.9400  177.4190  143.4160 C   0  0  0  0  0  0  0  0  0  0  0  0
  185.1940  177.8890  143.4100 N   0  0  0  0  0  0  0  0  0  0  0  0
  191.7810  177.3970  143.0880 C   0  0  0  0  0  3  0  0  0  0  0  0
  184.9870  179.6530  140.2250 N   0  0  0  0  0  1  0  0  0  0  0  0
  185.4050  178.9790  141.4090 C   0  0  0  0  0  0  0  0  0  0  0  0
  186.5500  177.9070  142.9680 C   0  0  0  0  0  0  0  0  0  0  0  0
  190.6430  176.8070  137.1210 C   0  0  0  0  0  3  0  0  0  0  0  0
  189.3680  177.2650  139.5750 C   0  0  0  0  0  0  0  0  0  0  0  0
  190.3450  176.2610  139.4610 C   0  0  0  0  0  3  0  0  0  0  0  0
  190.9810  176.0360  138.2370 C   0  0  0  0  0  3  0  0  0  0  0  0
  189.6670  177.8030  137.2280 C   0  0  0  0  0  3  0  0  0  0  0  0
  189.0300  178.0290  138.4530 C   0  0  0  0  0  3  0  0  0  0  0  0
  1 12  1  0  0  0  0
  1 15  1  0  0  0  0
  2 16  2  0  0  0  0
  4 13  1  0  0  0  0
  6  2  1  0  0  0  0
  6 18  2  0  0  0  0
  7 13  1  0  0  0  0
  7  9  1  0  0  0  0
  8 10  1  0  0  0  0
  8 17  2  0  0  0  0
 11  7  2  0  0  0  0
 12 23  1  6  0  0  0
 12  2  1  0  0  0  0
 13  5  1  0  0  0  0
 14 11  1  0  0  0  0
 14  4  2  0  0  0  0
 15 21  1  0  0  0  0
 16  3  1  0  0  0  0
 16 11  1  0  0  0  0
 18 14  1  0  0  0  0
 19 20  1  0  0  0  0
 20 15  2  0  0  0  0
 20  8  1  0  0  0  0
 21 17  1  0  0  0  0
 21  3  2  0  0  0  0
 22 26  2  0  0  0  0
 22 25  1  0  0  0  0
 24 23  1  0  0  0  0
 25 24  2  0  0  0  0
 26 27  1  0  0  0  0
 27 23  2  0  0  0  0
M  END
>  <MODEL>
2

>  <REMARK>
 VINA RESULT:     -10.5      2.166      6.400
  Name = 
  1 active torsions:
  status: ('A' for Active; 'I' for Inactive)
    1  A    between atoms: C_9  and  C_15
                            x       y       z     vdW  Elec       q    Type
                         _______ _______ _______ _____ _____    ______ ____

>  <TORSDO>
F 1

$$$$
=
 OpenBabel11052413383D

 27 31  0  0  1  0  0  0  0  0999 V2000
  184.6530  177.8690  142.4340 C   0  0  0  0  0  2  0  0  0  0  0  0
  187.1440  177.8640  142.4330 C   0  0  0  0  0  0  0  0  0  0  0  0
  186.6330  178.8070  140.1260 N   0  0  0  0  0  0  0  0  0  0  0  0
  190.5790  176.3790  140.7000 N   0  0  0  0  0  0  0  0  0  0  0  0
  191.3910  176.5940  138.4000 C   0  0  0  0  0  1  0  0  0  0  0  0
  188.0290  177.0980  143.2380 C   0  0  0  0  0  3  0  0  0  0  0  0
  189.2790  177.5380  139.3530 C   0  0  0  0  0  0  0  0  0  0  0  0
  183.4260  179.7120  139.4680 C   0  0  0  0  0  0  0  0  0  0  0  0
  188.7890  178.1880  138.1020 C   0  0  0  0  0  1  0  0  0  0  0  0
  182.3970  180.3180  138.6940 N   0  0  0  0  0  1  0  0  0  0  0  0
  188.6620  177.5300  140.5880 C   0  0  0  0  0  0  0  0  0  0  0  0
  185.9030  178.4630  143.0510 C   0  0  2  0  0  3  0  0  0  0  0  0
  190.4310  176.8370  139.4630 N   0  0  0  0  0  0  0  0  0  0  0  0
  189.5020  176.8000  141.3890 C   0  0  0  0  0  0  0  0  0  0  0  0
  184.3870  178.5780  141.1580 C   0  0  0  0  0  0  0  0  0  0  0  0
  187.4550  178.0690  141.0520 C   0  0  0  0  0  0  0  0  0  0  0  0
  184.6750  179.7530  139.1320 N   0  0  0  0  0  0  0  0  0  0  0  0
  189.2150  176.5560  142.7230 C   0  0  0  0  0  3  0  0  0  0  0  0
  181.9650  178.8110  141.3830 N   0  0  0  0  0  1  0  0  0  0  0  0
  183.2120  178.9870  140.7170 C   0  0  0  0  0  0  0  0  0  0  0  0
  185.3540  179.0440  140.1670 C   0  0  0  0  0  0  0  0  0  0  0  0
  185.7140  178.4380  147.3530 C   0  0  0  0  0  3  0  0  0  0  0  0
  185.8540  178.4360  144.5540 C   0  0  0  0  0  0  0  0  0  0  0  0
  187.0170  178.2530  145.3200 C   0  0  0  0  0  3  0  0  0  0  0  0
  186.9450  178.2510  146.7160 C   0  0  0  0  0  3  0  0  0  0  0  0
  184.5560  178.6280  146.5940 C   0  0  0  0  0  3  0  0  0  0  0  0
  184.6270  178.6290  145.1970 C   0  0  0  0  0  3  0  0  0  0  0  0
  1 12  1  0  0  0  0
  2 12  1  0  0  0  0
  2  6  1  0  0  0  0
  3 21  2  0  0  0  0
  3 16  1  0  0  0  0
  4 14  2  0  0  0  0
  5 13  1  0  0  0  0
  7 13  1  0  0  0  0
  7 11  2  0  0  0  0
  8 20  1  0  0  0  0
  9  7  1  0  0  0  0
 10  8  1  0  0  0  0
 11 16  1  0  0  0  0
 11 14  1  0  0  0  0
 12 23  1  1  0  0  0
 13  4  1  0  0  0  0
 14 18  1  0  0  0  0
 15  1  1  0  0  0  0
 16  2  2  0  0  0  0
 17  8  2  0  0  0  0
 17 21  1  0  0  0  0
 18  6  2  0  0  0  0
 20 15  2  0  0  0  0
 20 19  1  0  0  0  0
 21 15  1  0  0  0  0
 23 27  2  0  0  0  0
 23 24  1  0  0  0  0
 24 25  2  0  0  0  0
 25 22  1  0  0  0  0
 26 22  2  0  0  0  0
 27 26  1  0  0  0  0
M  END
>  <MODEL>
3

>  <REMARK>
 VINA RESULT:     -10.4      2.776      6.367
  Name = 
  1 active torsions:
  status: ('A' for Active; 'I' for Inactive)
    1  A    between atoms: C_9  and  C_15
                            x       y       z     vdW  Elec       q    Type
                         _______ _______ _______ _____ _____    ______ ____

>  <TORSDO>
F 1

$$$$
=
 OpenBabel11052413383D

 27 31  0  0  1  0  0  0  0  0999 V2000
  185.6800  179.1980  144.6330 C   0  0  0  0  0  2  0  0  0  0  0  0
  186.3970  178.1960  142.4690 C   0  0  0  0  0  0  0  0  0  0  0  0
  188.1450  177.2670  144.0670 N   0  0  0  0  0  0  0  0  0  0  0  0
  189.3580  177.9420  139.6100 N   0  0  0  0  0  0  0  0  0  0  0  0
  191.6630  177.1400  139.8090 C   0  0  0  0  0  1  0  0  0  0  0  0
  186.1000  178.6300  141.1490 C   0  0  0  0  0  3  0  0  0  0  0  0
  189.9390  177.2530  141.6180 C   0  0  0  0  0  0  0  0  0  0  0  0
  187.6050  177.6630  147.3970 C   0  0  0  0  0  0  0  0  0  0  0  0
  190.7910  176.7110  142.7170 C   0  0  0  0  0  1  0  0  0  0  0  0
  187.8730  177.4360  148.7760 N   0  0  0  0  0  1  0  0  0  0  0  0
  188.6220  177.6610  141.7050 C   0  0  0  0  0  0  0  0  0  0  0  0
  185.3190  178.2290  143.5260 C   0  0  2  0  0  3  0  0  0  0  0  0
  190.3440  177.4370  140.3410 N   0  0  0  0  0  0  0  0  0  0  0  0
  188.3060  178.0800  140.4380 C   0  0  0  0  0  0  0  0  0  0  0  0
  186.6050  178.5080  145.5670 C   0  0  0  0  0  0  0  0  0  0  0  0
  187.7110  177.7160  142.7680 C   0  0  0  0  0  0  0  0  0  0  0  0
  188.2640  177.0800  146.4480 N   0  0  0  0  0  0  0  0  0  0  0  0
  187.0520  178.5790  140.1220 C   0  0  0  0  0  3  0  0  0  0  0  0
  185.6430  179.3030  147.6670 N   0  0  0  0  0  1  0  0  0  0  0  0
  186.5730  178.5580  146.8850 C   0  0  0  0  0  0  0  0  0  0  0  0
  187.6810  177.5740  145.2430 C   0  0  0  0  0  0  0  0  0  0  0  0
  181.2950  178.8530  142.1260 C   0  0  0  0  0  3  0  0  0  0  0  0
  183.9230  178.4550  143.0160 C   0  0  0  0  0  0  0  0  0  0  0  0
  183.5820  178.1980  141.6770 C   0  0  0  0  0  3  0  0  0  0  0  0
  182.2720  178.3990  141.2350 C   0  0  0  0  0  3  0  0  0  0  0  0
  181.6280  179.1040  143.4600 C   0  0  0  0  0  3  0  0  0  0  0  0
  182.9390  178.9030  143.9040 C   0  0  0  0  0  3  0  0  0  0  0  0
  1 15  1  0  0  0  0
  2 16  2  0  0  0  0
  2 12  1  0  0  0  0
  3 21  2  0  0  0  0
  4 13  1  0  0  0  0
  4 14  2  0  0  0  0
  5 13  1  0  0  0  0
  6  2  1  0  0  0  0
  7 11  2  0  0  0  0
  7  9  1  0  0  0  0
  8 10  1  0  0  0  0
 11 16  1  0  0  0  0
 12 23  1  6  0  0  0
 12  1  1  0  0  0  0
 13  7  1  0  0  0  0
 14 11  1  0  0  0  0
 15 20  2  0  0  0  0
 16  3  1  0  0  0  0
 17  8  2  0  0  0  0
 18 14  1  0  0  0  0
 18  6  2  0  0  0  0
 20  8  1  0  0  0  0
 20 19  1  0  0  0  0
 21 15  1  0  0  0  0
 21 17  1  0  0  0  0
 22 26  1  0  0  0  0
 23 27  1  0  0  0  0
 24 23  2  0  0  0  0
 25 24  1  0  0  0  0
 25 22  2  0  0  0  0
 26 27  2  0  0  0  0
M  END
>  <MODEL>
4

>  <REMARK>
 VINA RESULT:     -10.3      2.214      7.492
  Name = 
  1 active torsions:
  status: ('A' for Active; 'I' for Inactive)
    1  A    between atoms: C_9  and  C_15
                            x       y       z     vdW  Elec       q    Type
                         _______ _______ _______ _____ _____    ______ ____

>  <TORSDO>
F 1

$$$$
=
 OpenBabel11052413383D

 27 31  0  0  1  0  0  0  0  0999 V2000
  188.8820  178.0620  144.8690 C   0  0  0  0  0  2  0  0  0  0  0  0
  187.8260  177.7870  142.6310 C   0  0  0  0  0  0  0  0  0  0  0  0
  189.9240  176.3700  142.3840 N   0  0  0  0  0  0  0  0  0  0  0  0
  188.1680  178.4050  138.5680 N   0  0  0  0  0  0  0  0  0  0  0  0
  189.8260  177.5430  136.9860 C   0  0  0  0  0  1  0  0  0  0  0  0
  186.8710  178.6220  141.9930 C   0  0  0  0  0  3  0  0  0  0  0  0
  189.7110  177.1050  139.4470 C   0  0  0  0  0  0  0  0  0  0  0  0
  191.7110  175.6970  145.1930 C   0  0  0  0  0  0  0  0  0  0  0  0
  190.9150  176.2270  139.5330 C   0  0  0  0  0  1  0  0  0  0  0  0
  192.7280  175.0380  145.9390 N   0  0  0  0  0  1  0  0  0  0  0  0
  188.8780  177.4850  140.4810 C   0  0  0  0  0  0  0  0  0  0  0  0
  187.6990  177.5010  144.1090 C   0  0  2  0  0  3  0  0  0  0  0  0
  189.2480  177.6780  138.3130 N   0  0  0  0  0  0  0  0  0  0  0  0
  187.9390  178.2910  139.8890 C   0  0  0  0  0  0  0  0  0  0  0  0
  190.0030  177.0950  144.7560 C   0  0  0  0  0  0  0  0  0  0  0  0
  188.8840  177.2160  141.8550 C   0  0  0  0  0  0  0  0  0  0  0  0
  191.4720  175.4340  143.9490 N   0  0  0  0  0  0  0  0  0  0  0  0
  186.9190  178.8850  140.6160 C   0  0  0  0  0  3  0  0  0  0  0  0
  190.7910  177.1980  147.0670 N   0  0  0  0  0  1  0  0  0  0  0  0
  190.8220  176.7250  145.7230 C   0  0  0  0  0  0  0  0  0  0  0  0
  190.3900  176.2950  143.5970 C   0  0  0  0  0  0  0  0  0  0  0  0
  183.9400  178.6920  145.8400 C   0  0  0  0  0  3  0  0  0  0  0  0
  186.3900  177.9010  144.7320 C   0  0  0  0  0  0  0  0  0  0  0  0
  186.2470  178.0140  146.1250 C   0  0  0  0  0  3  0  0  0  0  0  0
  185.0240  178.4060  146.6760 C   0  0  0  0  0  3  0  0  0  0  0  0
  184.0800  178.5860  144.4520 C   0  0  0  0  0  3  0  0  0  0  0  0
  185.3040  178.1930  143.9010 C   0  0  0  0  0  3  0  0  0  0  0  0
  2 12  1  0  0  0  0
  3 21  2  0  0  0  0
  4 14  2  0  0  0  0
  5 13  1  0  0  0  0
  6  2  1  0  0  0  0
  7  9  1  0  0  0  0
  7 11  2  0  0  0  0
  8 20  1  0  0  0  0
  8 10  1  0  0  0  0
 11 16  1  0  0  0  0
 12 23  1  1  0  0  0
 12  1  1  0  0  0  0
 13  4  1  0  0  0  0
 13  7  1  0  0  0  0
 14 11  1  0  0  0  0
 14 18  1  0  0  0  0
 15  1  1  0  0  0  0
 15 20  2  0  0  0  0
 16  3  1  0  0  0  0
 16  2  2  0  0  0  0
 17  8  2  0  0  0  0
 18  6  2  0  0  0  0
 20 19  1  0  0  0  0
 21 17  1  0  0  0  0
 21 15  1  0  0  0  0
 22 25  1  0  0  0  0
 23 24  1  0  0  0  0
 24 25  2  0  0  0  0
 26 22  2  0  0  0  0
 27 26  1  0  0  0  0
 27 23  2  0  0  0  0
M  END
>  <MODEL>
5

>  <REMARK>
 VINA RESULT:     -10.0      2.315      6.002
  Name = 
  1 active torsions:
  status: ('A' for Active; 'I' for Inactive)
    1  A    between atoms: C_9  and  C_15
                            x       y       z     vdW  Elec       q    Type
                         _______ _______ _______ _____ _____    ______ ____

>  <TORSDO>
F 1

$$$$
=
 OpenBabel11052413383D

 27 31  0  0  1  0  0  0  0  0999 V2000
  184.9470  179.3240  144.3840 C   0  0  0  0  0  2  0  0  0  0  0  0
  185.3080  178.4700  142.0730 C   0  0  0  0  0  0  0  0  0  0  0  0
  187.3570  177.5650  143.2790 N   0  0  0  0  0  0  0  0  0  0  0  0
  187.7130  178.5230  138.7240 N   0  0  0  0  0  0  0  0  0  0  0  0
  190.0520  177.8440  138.4630 C   0  0  0  0  0  1  0  0  0  0  0  0
  184.7580  178.9500  140.8540 C   0  0  0  0  0  3  0  0  0  0  0  0
  188.6780  177.7710  140.5540 C   0  0  0  0  0  0  0  0  0  0  0  0
  187.4090  177.7690  146.6680 C   0  0  0  0  0  0  0  0  0  0  0  0
  189.7390  177.2250  141.4510 C   0  0  0  0  0  1  0  0  0  0  0  0
  187.9310  177.4900  147.9630 N   0  0  0  0  0  1  0  0  0  0  0  0
  187.3810  178.0990  140.8960 C   0  0  0  0  0  0  0  0  0  0  0  0
  184.4370  178.3910  143.3040 C   0  0  2  0  0  3  0  0  0  0  0  0
  188.8370  178.0400  139.2370 N   0  0  0  0  0  0  0  0  0  0  0  0
  186.8230  178.5610  139.7320 C   0  0  0  0  0  0  0  0  0  0  0  0
  186.0560  178.6430  145.0970 C   0  0  0  0  0  0  0  0  0  0  0  0
  186.6750  178.0520  142.1050 C   0  0  0  0  0  0  0  0  0  0  0  0
  187.9120  177.2710  145.5860 N   0  0  0  0  0  0  0  0  0  0  0  0
  185.5100  179.0030  139.6720 C   0  0  0  0  0  3  0  0  0  0  0  0
  185.4520  179.2800  147.3770 N   0  0  0  0  0  1  0  0  0  0  0  0
  186.2600  178.6270  146.4010 C   0  0  0  0  0  0  0  0  0  0  0  0
  187.0990  177.7890  144.5340 C   0  0  0  0  0  0  0  0  0  0  0  0
  180.2020  178.8390  142.6710 C   0  0  0  0  0  3  0  0  0  0  0  0
  182.9630  178.5630  143.0640 C   0  0  0  0  0  0  0  0  0  0  0  0
  182.4370  178.6280  141.7630 C   0  0  0  0  0  3  0  0  0  0  0  0
  181.0600  178.7680  141.5690 C   0  0  0  0  0  3  0  0  0  0  0  0
  180.7210  178.7680  143.9670 C   0  0  0  0  0  3  0  0  0  0  0  0
  182.0990  178.6280  144.1620 C   0  0  0  0  0  3  0  0  0  0  0  0
  1 15  1  0  0  0  0
  2 16  2  0  0  0  0
  2 12  1  0  0  0  0
  3 21  2  0  0  0  0
  4 13  1  0  0  0  0
  4 14  2  0  0  0  0
  5 13  1  0  0  0  0
  6  2  1  0  0  0  0
  7 11  2  0  0  0  0
  7  9  1  0  0  0  0
  8 10  1  0  0  0  0
 11 16  1  0  0  0  0
 12 23  1  6  0  0  0
 12  1  1  0  0  0  0
 13  7  1  0  0  0  0
 14 11  1  0  0  0  0
 15 20  2  0  0  0  0
 16  3  1  0  0  0  0
 17  8  2  0  0  0  0
 18 14  1  0  0  0  0
 18  6  2  0  0  0  0
 20  8  1  0  0  0  0
 20 19  1  0  0  0  0
 21 15  1  0  0  0  0
 21 17  1  0  0  0  0
 22 26  1  0  0  0  0
 23 27  1  0  0  0  0
 24 23  2  0  0  0  0
 25 24  1  0  0  0  0
 25 22  2  0  0  0  0
 26 27  2  0  0  0  0
M  END
>  <MODEL>
6

>  <REMARK>
 VINA RESULT:      -9.5      2.596      7.644
  Name = 
  1 active torsions:
  status: ('A' for Active; 'I' for Inactive)
    1  A    between atoms: C_9  and  C_15
                            x       y       z     vdW  Elec       q    Type
                         _______ _______ _______ _____ _____    ______ ____

>  <TORSDO>
F 1

$$$$
=
 OpenBabel11052413383D

 27 31  0  0  1  0  0  0  0  0999 V2000
  187.3070  177.3280  142.9980 C   0  0  0  0  0  2  0  0  0  0  0  0
  188.9310  177.6490  141.1380 C   0  0  0  0  0  0  0  0  0  0  0  0
  186.8120  178.6450  140.1440 N   0  0  0  0  0  0  0  0  0  0  0  0
  189.9260  176.7250  137.2440 N   0  0  0  0  0  0  0  0  0  0  0  0
  188.7070  177.1720  135.1670 C   0  0  0  0  0  1  0  0  0  0  0  0
  190.1510  176.9610  140.8980 C   0  0  0  0  0  3  0  0  0  0  0  0
  188.0090  177.7770  137.4920 C   0  0  0  0  0  0  0  0  0  0  0  0
  184.1820  179.1580  142.2310 C   0  0  0  0  0  0  0  0  0  0  0  0
  186.7140  178.4270  137.1310 C   0  0  0  0  0  1  0  0  0  0  0  0
  182.8990  179.6670  142.5760 N   0  0  0  0  0  1  0  0  0  0  0  0
  188.5400  177.6200  138.7570 C   0  0  0  0  0  0  0  0  0  0  0  0
  188.5630  178.0450  142.5480 C   0  0  2  0  0  3  0  0  0  0  0  0
  188.8740  177.2270  136.6100 N   0  0  0  0  0  0  0  0  0  0  0  0
  189.7260  176.9620  138.5540 C   0  0  0  0  0  0  0  0  0  0  0  0
  186.1360  178.0670  142.4610 C   0  0  0  0  0  0  0  0  0  0  0  0
  188.0810  177.9690  140.0330 C   0  0  0  0  0  0  0  0  0  0  0  0
  184.7410  179.3810  141.0850 N   0  0  0  0  0  0  0  0  0  0  0  0
  190.5590  176.6080  139.6040 C   0  0  0  0  0  3  0  0  0  0  0  0
  184.7160  177.9680  144.4470 N   0  0  0  0  0  1  0  0  0  0  0  0
  185.0180  178.3430  143.1060 C   0  0  0  0  0  0  0  0  0  0  0  0
  185.9970  178.7100  141.1560 C   0  0  0  0  0  0  0  0  0  0  0  0
  191.6820  177.6960  145.4960 C   0  0  0  0  0  3  0  0  0  0  0  0
  189.6690  177.9280  143.5600 C   0  0  0  0  0  0  0  0  0  0  0  0
  190.7760  178.7930  143.5360 C   0  0  0  0  0  3  0  0  0  0  0  0
  191.7800  178.6740  144.5010 C   0  0  0  0  0  3  0  0  0  0  0  0
  190.5780  176.8380  145.5260 C   0  0  0  0  0  3  0  0  0  0  0  0
  189.5730  176.9560  144.5610 C   0  0  0  0  0  3  0  0  0  0  0  0
  2 12  1  0  0  0  0
  3 21  2  0  0  0  0
  4 14  2  0  0  0  0
  5 13  1  0  0  0  0
  6  2  1  0  0  0  0
  7 11  2  0  0  0  0
  8 10  1  0  0  0  0
  8 20  1  0  0  0  0
  9  7  1  0  0  0  0
 11 16  1  0  0  0  0
 12  1  1  0  0  0  0
 12 23  1  1  0  0  0
 13  4  1  0  0  0  0
 13  7  1  0  0  0  0
 14 11  1  0  0  0  0
 14 18  1  0  0  0  0
 15  1  1  0  0  0  0
 15 20  2  0  0  0  0
 16  3  1  0  0  0  0
 16  2  2  0  0  0  0
 17 21  1  0  0  0  0
 17  8  2  0  0  0  0
 18  6  2  0  0  0  0
 20 19  1  0  0  0  0
 21 15  1  0  0  0  0
 22 26  1  0  0  0  0
 23 27  1  0  0  0  0
 24 23  2  0  0  0  0
 24 25  1  0  0  0  0
 25 22  2  0  0  0  0
 27 26  2  0  0  0  0
M  END
>  <MODEL>
7

>  <REMARK>
 VINA RESULT:      -9.5      2.050      6.011
  Name = 
  1 active torsions:
  status: ('A' for Active; 'I' for Inactive)
    1  A    between atoms: C_9  and  C_15
                            x       y       z     vdW  Elec       q    Type
                         _______ _______ _______ _____ _____    ______ ____

>  <TORSDO>
F 1

$$$$
=
 OpenBabel11052413383D

 27 31  0  0  1  0  0  0  0  0999 V2000
  187.1580  177.0680  144.4160 C   0  0  0  0  0  2  0  0  0  0  0  0
  189.0500  177.3420  142.8200 C   0  0  0  0  0  0  0  0  0  0  0  0
  187.1940  178.6210  141.6390 N   0  0  0  0  0  0  0  0  0  0  0  0
  190.4870  176.5860  139.0290 N   0  0  0  0  0  0  0  0  0  0  0  0
  189.6190  177.2980  136.8530 C   0  0  0  0  0  1  0  0  0  0  0  0
  190.2210  176.5480  142.6880 C   0  0  0  0  0  3  0  0  0  0  0  0
  188.6630  177.8150  139.1070 C   0  0  0  0  0  0  0  0  0  0  0  0
  184.3590  179.2640  143.3940 C   0  0  0  0  0  0  0  0  0  0  0  0
  187.4990  178.6190  138.6320 C   0  0  0  0  0  1  0  0  0  0  0  0
  183.0940  179.8810  143.6070 N   0  0  0  0  0  1  0  0  0  0  0  0
  188.9950  177.5160  140.4140 C   0  0  0  0  0  0  0  0  0  0  0  0
  188.5270  177.6780  144.1960 C   0  0  2  0  0  3  0  0  0  0  0  0
  189.5870  177.2380  138.3050 N   0  0  0  0  0  0  0  0  0  0  0  0
  190.1300  176.7530  140.3160 C   0  0  0  0  0  0  0  0  0  0  0  0
  186.1500  177.9610  143.7910 C   0  0  0  0  0  0  0  0  0  0  0  0
  188.3960  177.8250  141.6420 C   0  0  0  0  0  0  0  0  0  0  0  0
  185.0910  179.5040  142.3550 N   0  0  0  0  0  0  0  0  0  0  0  0
  190.7700  176.2430  141.4350 C   0  0  0  0  0  3  0  0  0  0  0  0
  184.4630  177.8770  145.5570 N   0  0  0  0  0  1  0  0  0  0  0  0
  184.9840  178.3090  144.3030 C   0  0  0  0  0  0  0  0  0  0  0  0
  186.2560  178.7020  142.5370 C   0  0  0  0  0  0  0  0  0  0  0  0
  191.1790  176.8650  147.4900 C   0  0  0  0  0  3  0  0  0  0  0  0
  189.4650  177.3780  145.3320 C   0  0  0  0  0  0  0  0  0  0  0  0
  190.8270  177.1190  145.1080 C   0  0  0  0  0  3  0  0  0  0  0  0
  191.6800  176.8610  146.1860 C   0  0  0  0  0  3  0  0  0  0  0  0
  189.8240  177.1290  147.7180 C   0  0  0  0  0  3  0  0  0  0  0  0
  188.9700  177.3860  146.6410 C   0  0  0  0  0  3  0  0  0  0  0  0
  2 12  1  0  0  0  0
  3 16  1  0  0  0  0
  3 21  2  0  0  0  0
  4 14  2  0  0  0  0
  5 13  1  0  0  0  0
  6  2  1  0  0  0  0
  7 11  2  0  0  0  0
  8 10  1  0  0  0  0
  8 20  1  0  0  0  0
  9  7  1  0  0  0  0
 11 16  1  0  0  0  0
 12  1  1  0  0  0  0
 12 23  1  1  0  0  0
 13  4  1  0  0  0  0
 13  7  1  0  0  0  0
 14 11  1  0  0  0  0
 14 18  1  0  0  0  0
 15 20  2  0  0  0  0
 15  1  1  0  0  0  0
 16  2  2  0  0  0  0
 17 21  1  0  0  0  0
 17  8  2  0  0  0  0
 18  6  2  0  0  0  0
 20 19  1  0  0  0  0
 21 15  1  0  0  0  0
 22 26  1  0  0  0  0
 23 27  1  0  0  0  0
 24 23  2  0  0  0  0
 24 25  1  0  0  0  0
 25 22  2  0  0  0  0
 27 26  2  0  0  0  0
M  END
>  <MODEL>
8

>  <REMARK>
 VINA RESULT:      -9.5      1.410      5.514
  Name = 
  1 active torsions:
  status: ('A' for Active; 'I' for Inactive)
    1  A    between atoms: C_9  and  C_15
                            x       y       z     vdW  Elec       q    Type
                         _______ _______ _______ _____ _____    ______ ____

>  <TORSDO>
F 1

$$$$
=
 OpenBabel11052413383D

 27 31  0  0  1  0  0  0  0  0999 V2000
  186.8760  178.9830  141.5460 C   0  0  0  0  0  2  0  0  0  0  0  0
  184.7840  178.3710  142.7500 C   0  0  0  0  0  0  0  0  0  0  0  0
  184.0880  178.0580  140.3230 N   0  0  0  0  0  0  0  0  0  0  0  0
  180.8160  179.2710  143.4230 N   0  0  0  0  0  0  0  0  0  0  0  0
  178.9330  179.3190  141.8580 C   0  0  0  0  0  1  0  0  0  0  0  0
  184.3850  178.7200  144.0680 C   0  0  0  0  0  3  0  0  0  0  0  0
  181.3160  178.7580  141.3420 C   0  0  0  0  0  0  0  0  0  0  0  0
  186.5300  178.1230  137.9630 C   0  0  0  0  0  0  0  0  0  0  0  0
  181.1330  178.5100  139.8810 C   0  0  0  0  0  1  0  0  0  0  0  0
  187.0480  177.9550  136.6480 N   0  0  0  0  0  1  0  0  0  0  0  0
  182.4910  178.6760  142.0630 C   0  0  0  0  0  0  0  0  0  0  0  0
  186.2200  177.9880  142.4810 C   0  0  2  0  0  3  0  0  0  0  0  0
  180.3320  179.1170  142.1970 N   0  0  0  0  0  0  0  0  0  0  0  0
  182.1330  179.0030  143.3460 C   0  0  0  0  0  0  0  0  0  0  0  0
  186.4980  178.6280  140.1560 C   0  0  0  0  0  0  0  0  0  0  0  0
  183.8100  178.3720  141.7020 C   0  0  0  0  0  0  0  0  0  0  0  0
  185.3070  177.8410  138.2770 N   0  0  0  0  0  0  0  0  0  0  0  0
  183.0560  179.0420  144.3790 C   0  0  0  0  0  3  0  0  0  0  0  0
  188.6770  178.9620  139.1020 N   0  0  0  0  0  1  0  0  0  0  0  0
  187.2950  178.6170  139.1030 C   0  0  0  0  0  0  0  0  0  0  0  0
  185.2100  178.1420  139.6680 C   0  0  0  0  0  0  0  0  0  0  0  0
  188.6530  177.1960  145.9450 C   0  0  0  0  0  3  0  0  0  0  0  0
  187.0570  177.7290  143.7030 C   0  0  0  0  0  0  0  0  0  0  0  0
  186.5000  177.7660  144.9930 C   0  0  0  0  0  3  0  0  0  0  0  0
  187.2990  177.5030  146.1100 C   0  0  0  0  0  3  0  0  0  0  0  0
  189.2090  177.1520  144.6630 C   0  0  0  0  0  3  0  0  0  0  0  0
  188.4110  177.4160  143.5450 C   0  0  0  0  0  3  0  0  0  0  0  0
  1 12  1  0  0  0  0
  2  6  1  0  0  0  0
  3 16  1  0  0  0  0
  5 13  1  0  0  0  0
  6 18  2  0  0  0  0
  7 11  2  0  0  0  0
  7 13  1  0  0  0  0
  8 17  2  0  0  0  0
  8 20  1  0  0  0  0
  9  7  1  0  0  0  0
 10  8  1  0  0  0  0
 11 14  1  0  0  0  0
 12  2  1  0  0  0  0
 12 23  1  1  0  0  0
 13  4  1  0  0  0  0
 14  4  2  0  0  0  0
 14 18  1  0  0  0  0
 15  1  1  0  0  0  0
 16 11  1  0  0  0  0
 16  2  2  0  0  0  0
 17 21  1  0  0  0  0
 19 20  1  0  0  0  0
 20 15  2  0  0  0  0
 21 15  1  0  0  0  0
 21  3  2  0  0  0  0
 22 25  1  0  0  0  0
 23 24  1  0  0  0  0
 24 25  2  0  0  0  0
 26 22  2  0  0  0  0
 27 23  2  0  0  0  0
 27 26  1  0  0  0  0
M  END
>  <MODEL>
9

>  <REMARK>
 VINA RESULT:      -9.1      2.667      4.234
  Name = 
  1 active torsions:
  status: ('A' for Active; 'I' for Inactive)
    1  A    between atoms: C_9  and  C_15
                            x       y       z     vdW  Elec       q    Type
                         _______ _______ _______ _____ _____    ______ ____

>  <TORSDO>
F 1

$$$$
