=
 OpenBabel11052413413D

 27 31  0  0  1  0  0  0  0  0999 V2000
  182.1700  178.5310  138.6850 C   0  0  2  0  0  0  0  0  0  0  0  0
  182.1530  178.8780  141.2150 C   0  0  1  0  0  3  0  0  0  0  0  0
  184.3240  178.4010  140.0590 C   0  0  0  0  0  2  0  0  0  0  0  0
  184.2020  179.1710  145.0330 C   0  0  0  0  0  2  0  0  0  0  0  0
  186.2920  178.8130  146.0690 O   0  0  0  0  0  0  0  0  0  0  0  0
  181.3390  178.7910  142.5060 C   0  0  0  0  0  2  0  0  0  0  0  0
  185.6450  177.9580  142.7080 C   0  0  0  0  0  2  0  0  0  0  0  0
  185.3410  176.8740  137.5870 O   0  0  0  0  0  1  0  0  0  0  0  0
  185.9830  177.5030  144.1330 C   0  0  0  0  0  2  0  0  0  0  0  0
  183.6000  177.8720  136.2840 C   0  0  0  0  0  2  0  0  0  0  0  0
  183.5190  178.1750  141.3410 C   0  0  1  0  0  3  0  0  0  0  0  0
  181.3580  178.3680  139.9930 C   0  0  2  0  0  3  0  0  0  0  0  0
  185.5530  178.5250  145.1430 C   0  0  0  0  0  0  0  0  0  0  0  0
  183.4340  178.6120  143.8390 C   0  0  2  0  0  3  0  0  0  0  0  0
  182.3300  180.0250  138.4060 C   0  0  0  0  0  1  0  0  0  0  0  0
  184.2930  178.6930  142.5610 C   0  0  1  0  0  3  0  0  0  0  0  0
  184.4240  177.9240  137.5770 C   0  0  1  0  0  3  0  0  0  0  0  0
  182.1330  179.3810  143.6630 C   0  0  0  0  0  2  0  0  0  0  0  0
  182.2670  177.1620  136.4950 C   0  0  0  0  0  2  0  0  0  0  0  0
  181.3940  177.9350  137.4910 C   0  0  0  0  0  2  0  0  0  0  0  0
  183.5610  177.8630  138.8470 C   0  0  2  0  0  3  0  0  0  0  0  0
  179.6440  174.4520  140.5920 C   0  0  0  0  0  3  0  0  0  0  0  0
  180.7770  176.9850  140.1940 C   0  0  0  0  0  0  0  0  0  0  0  0
  181.4900  175.8270  139.8430 C   0  0  0  0  0  3  0  0  0  0  0  0
  180.9240  174.5650  140.0420 C   0  0  0  0  0  3  0  0  0  0  0  0
  178.9310  175.6020  140.9430 C   0  0  0  0  0  3  0  0  0  0  0  0
  179.4970  176.8640  140.7440 C   0  0  0  0  0  3  0  0  0  0  0  0
  1 15  1  6  0  0  0
  1 21  1  0  0  0  0
  1 12  1  0  0  0  0
  2 11  1  0  0  0  0
  2  6  1  1  0  0  0
  4 13  1  0  0  0  0
  6 18  1  0  0  0  0
  7  9  1  0  0  0  0
  9 13  1  0  0  0  0
 10 19  1  0  0  0  0
 10 17  1  0  0  0  0
 11  3  1  6  0  0  0
 11 16  1  0  0  0  0
 12 23  1  1  0  0  0
 12  2  1  0  0  0  0
 13  5  2  0  0  0  0
 14 18  1  6  0  0  0
 14  4  1  0  0  0  0
 16  7  1  1  0  0  0
 16 14  1  0  0  0  0
 17  8  1  6  0  0  0
 17 21  1  0  0  0  0
 19 20  1  0  0  0  0
 20  1  1  0  0  0  0
 21  3  1  1  0  0  0
 22 26  1  0  0  0  0
 23 27  1  0  0  0  0
 24 25  1  0  0  0  0
 24 23  2  0  0  0  0
 25 22  2  0  0  0  0
 27 26  2  0  0  0  0
M  END
>  <MODEL>
1

>  <REMARK>
 VINA RESULT:      -6.7      0.000      0.000
  Name = 
  1 active torsions:
  status: ('A' for Active; 'I' for Inactive)
    1  A    between atoms: C_9  and  C_15
                            x       y       z     vdW  Elec       q    Type
                         _______ _______ _______ _____ _____    ______ ____

>  <TORSDO>
F 1

$$$$
=
 OpenBabel11052413413D

 27 31  0  0  1  0  0  0  0  0999 V2000
  188.4940  177.8280  137.2610 C   0  0  2  0  0  0  0  0  0  0  0  0
  186.5720  178.5180  138.7940 C   0  0  1  0  0  3  0  0  0  0  0  0
  188.7420  177.7820  139.8070 C   0  0  0  0  0  2  0  0  0  0  0  0
  184.9200  179.2310  142.7470 C   0  0  0  0  0  2  0  0  0  0  0  0
  185.3590  178.9180  145.0440 O   0  0  0  0  0  0  0  0  0  0  0  0
  185.0570  178.6490  138.9560 C   0  0  0  0  0  2  0  0  0  0  0  0
  187.4450  177.6430  142.5010 C   0  0  0  0  0  2  0  0  0  0  0  0
  191.0740  175.8830  139.1500 O   0  0  0  0  0  1  0  0  0  0  0  0
  186.4870  177.3710  143.6670 C   0  0  0  0  0  2  0  0  0  0  0  0
  191.1460  176.7770  136.9320 C   0  0  0  0  0  2  0  0  0  0  0  0
  187.2210  177.7740  139.9770 C   0  0  1  0  0  3  0  0  0  0  0  0
  186.9570  177.8850  137.4390 C   0  0  2  0  0  3  0  0  0  0  0  0
  185.5800  178.5420  143.9050 C   0  0  0  0  0  0  0  0  0  0  0  0
  185.2940  178.5530  141.4330 C   0  0  2  0  0  3  0  0  0  0  0  0
  189.0140  179.2600  137.1440 C   0  0  0  0  0  1  0  0  0  0  0  0
  186.8250  178.4150  141.3140 C   0  0  1  0  0  3  0  0  0  0  0  0
  190.6610  176.9660  138.3740 C   0  0  1  0  0  3  0  0  0  0  0  0
  184.7330  179.3520  140.2660 C   0  0  0  0  0  2  0  0  0  0  0  0
  190.0610  176.1690  136.0490 C   0  0  0  0  0  2  0  0  0  0  0  0
  188.8580  177.1120  135.9420 C   0  0  0  0  0  2  0  0  0  0  0  0
  189.1350  177.1220  138.4850 C   0  0  2  0  0  3  0  0  0  0  0  0
  184.8950  174.1770  136.6490 C   0  0  0  0  0  3  0  0  0  0  0  0
  186.2530  176.5730  137.1720 C   0  0  0  0  0  0  0  0  0  0  0  0
  186.8290  175.3410  137.5210 C   0  0  0  0  0  3  0  0  0  0  0  0
  186.1520  174.1480  137.2600 C   0  0  0  0  0  3  0  0  0  0  0  0
  184.3160  175.4000  136.3000 C   0  0  0  0  0  3  0  0  0  0  0  0
  184.9940  176.5940  136.5610 C   0  0  0  0  0  3  0  0  0  0  0  0
  1 15  1  6  0  0  0
  1 12  1  0  0  0  0
  1 21  1  0  0  0  0
  2  6  1  1  0  0  0
  2 11  1  0  0  0  0
  4 13  1  0  0  0  0
  6 18  1  0  0  0  0
  7  9  1  0  0  0  0
  9 13  1  0  0  0  0
 10 17  1  0  0  0  0
 11  3  1  6  0  0  0
 11 16  1  0  0  0  0
 12 23  1  1  0  0  0
 12  2  1  0  0  0  0
 13  5  2  0  0  0  0
 14 18  1  6  0  0  0
 14  4  1  0  0  0  0
 16 14  1  0  0  0  0
 16  7  1  1  0  0  0
 17 21  1  0  0  0  0
 17  8  1  1  0  0  0
 19 10  1  0  0  0  0
 20 19  1  0  0  0  0
 20  1  1  0  0  0  0
 21  3  1  1  0  0  0
 22 25  1  0  0  0  0
 23 24  1  0  0  0  0
 25 24  2  0  0  0  0
 26 27  1  0  0  0  0
 26 22  2  0  0  0  0
 27 23  2  0  0  0  0
M  END
>  <MODEL>
2

>  <REMARK>
 VINA RESULT:      -6.4      3.669      5.450
  Name = 
  1 active torsions:
  status: ('A' for Active; 'I' for Inactive)
    1  A    between atoms: C_9  and  C_15
                            x       y       z     vdW  Elec       q    Type
                         _______ _______ _______ _____ _____    ______ ____

>  <TORSDO>
F 1

$$$$
=
 OpenBabel11052413413D

 27 31  0  0  1  0  0  0  0  0999 V2000
  181.5630  176.8610  138.7990 C   0  0  2  0  0  0  0  0  0  0  0  0
  180.5670  179.1030  139.5100 C   0  0  1  0  0  3  0  0  0  0  0  0
  181.1120  178.7160  137.0960 C   0  0  0  0  0  2  0  0  0  0  0  0
  179.0790  183.0760  138.5820 C   0  0  0  0  0  2  0  0  0  0  0  0
  178.9410  184.6650  136.8430 O   0  0  0  0  0  0  0  0  0  0  0  0
  180.3920  180.1160  140.6420 C   0  0  0  0  0  2  0  0  0  0  0  0
  180.7090  181.6280  136.5310 C   0  0  0  0  0  2  0  0  0  0  0  0
  183.1260  177.1120  135.4080 O   0  0  0  0  0  1  0  0  0  0  0  0
  180.7380  183.1610  136.5810 C   0  0  0  0  0  2  0  0  0  0  0  0
  182.6840  175.1850  136.7550 C   0  0  0  0  0  2  0  0  0  0  0  0
  181.0720  179.7620  138.2120 C   0  0  1  0  0  3  0  0  0  0  0  0
  181.4570  177.9130  139.9310 C   0  0  2  0  0  3  0  0  0  0  0  0
  179.5340  183.7010  137.2950 C   0  0  0  0  0  0  0  0  0  0  0  0
  180.0050  181.9320  138.9820 C   0  0  2  0  0  3  0  0  0  0  0  0
  180.1870  176.2260  138.6080 C   0  0  0  0  0  1  0  0  0  0  0  0
  180.1780  180.9440  137.8110 C   0  0  1  0  0  3  0  0  0  0  0  0
  182.2120  176.5760  136.3140 C   0  0  1  0  0  3  0  0  0  0  0  0
  179.4440  181.2240  140.2060 C   0  0  0  0  0  2  0  0  0  0  0  0
  183.4420  175.2410  138.0770 C   0  0  0  0  0  2  0  0  0  0  0  0
  182.5260  175.7260  139.2060 C   0  0  0  0  0  2  0  0  0  0  0  0
  182.0220  177.5510  137.4870 C   0  0  2  0  0  3  0  0  0  0  0  0
  185.2320  179.1150  141.6420 C   0  0  0  0  0  3  0  0  0  0  0  0
  182.7890  178.3390  140.5080 C   0  0  0  0  0  0  0  0  0  0  0  0
  183.8570  178.7330  139.6870 C   0  0  0  0  0  3  0  0  0  0  0  0
  185.0740  179.1200  140.2530 C   0  0  0  0  0  3  0  0  0  0  0  0
  184.1720  178.7230  142.4640 C   0  0  0  0  0  3  0  0  0  0  0  0
  182.9540  178.3360  141.8980 C   0  0  0  0  0  3  0  0  0  0  0  0
  1 15  1  6  0  0  0
  1 20  1  0  0  0  0
  1 12  1  0  0  0  0
  2 12  1  0  0  0  0
  2  6  1  1  0  0  0
  5 13  2  0  0  0  0
  7  9  1  0  0  0  0
  9 13  1  0  0  0  0
 10 19  1  0  0  0  0
 11  3  1  6  0  0  0
 11  2  1  0  0  0  0
 12 23  1  6  0  0  0
 13  4  1  0  0  0  0
 14  4  1  6  0  0  0
 14 18  1  0  0  0  0
 16  7  1  6  0  0  0
 16 11  1  0  0  0  0
 16 14  1  0  0  0  0
 17  8  1  6  0  0  0
 17 10  1  0  0  0  0
 17 21  1  0  0  0  0
 18  6  1  0  0  0  0
 19 20  1  0  0  0  0
 21  3  1  6  0  0  0
 21  1  1  0  0  0  0
 22 26  1  0  0  0  0
 23 27  1  0  0  0  0
 24 25  1  0  0  0  0
 24 23  2  0  0  0  0
 25 22  2  0  0  0  0
 27 26  2  0  0  0  0
M  END
>  <MODEL>
3

>  <REMARK>
 VINA RESULT:      -6.3      2.976      6.004
  Name = 
  1 active torsions:
  status: ('A' for Active; 'I' for Inactive)
    1  A    between atoms: C_9  and  C_15
                            x       y       z     vdW  Elec       q    Type
                         _______ _______ _______ _____ _____    ______ ____

>  <TORSDO>
F 1

$$$$
=
 OpenBabel11052413413D

 27 31  0  0  1  0  0  0  0  0999 V2000
  188.5420  177.8290  136.7630 C   0  0  2  0  0  0  0  0  0  0  0  0
  187.7190  178.1950  139.1520 C   0  0  1  0  0  3  0  0  0  0  0  0
  189.9360  177.0900  138.7770 C   0  0  0  0  0  2  0  0  0  0  0  0
  188.2620  177.9210  143.4530 C   0  0  0  0  0  2  0  0  0  0  0  0
  189.6560  176.9800  145.1080 O   0  0  0  0  0  0  0  0  0  0  0  0
  186.5070  178.3660  140.0690 C   0  0  0  0  0  2  0  0  0  0  0  0
  190.0440  176.3120  141.6660 C   0  0  0  0  0  2  0  0  0  0  0  0
  191.3030  175.3030  136.6770 O   0  0  0  0  0  1  0  0  0  0  0  0
  189.7100  175.7950  143.0700 C   0  0  0  0  0  2  0  0  0  0  0  0
  190.4940  176.7510  134.9530 C   0  0  0  0  0  2  0  0  0  0  0  0
  188.6970  177.1250  139.6750 C   0  0  1  0  0  3  0  0  0  0  0  0
  187.3050  177.9250  137.6890 C   0  0  2  0  0  3  0  0  0  0  0  0
  189.2480  176.9100  143.9610 C   0  0  0  0  0  0  0  0  0  0  0  0
  187.8490  177.5970  142.0200 C   0  0  2  0  0  3  0  0  0  0  0  0
  189.1980  179.2060  136.6980 C   0  0  0  0  0  1  0  0  0  0  0  0
  189.0950  177.4080  141.1310 C   0  0  1  0  0  3  0  0  0  0  0  0
  190.7810  176.5760  136.4490 C   0  0  1  0  0  3  0  0  0  0  0  0
  186.9650  178.7100  141.4780 C   0  0  0  0  0  2  0  0  0  0  0  0
  189.0320  176.4650  134.6230 C   0  0  0  0  0  2  0  0  0  0  0  0
  188.1130  177.4710  135.3240 C   0  0  0  0  0  2  0  0  0  0  0  0
  189.5400  176.7850  137.3320 C   0  0  2  0  0  3  0  0  0  0  0  0
  184.5840  174.6000  137.2800 C   0  0  0  0  0  3  0  0  0  0  0  0
  186.3320  176.7750  137.5460 C   0  0  0  0  0  0  0  0  0  0  0  0
  184.9440  176.9800  137.5390 C   0  0  0  0  0  3  0  0  0  0  0  0
  184.0730  175.8960  137.4060 C   0  0  0  0  0  3  0  0  0  0  0  0
  185.9650  174.3910  137.2870 C   0  0  0  0  0  3  0  0  0  0  0  0
  186.8370  175.4760  137.4200 C   0  0  0  0  0  3  0  0  0  0  0  0
  1 15  1  6  0  0  0
  1 21  1  0  0  0  0
  1 12  1  0  0  0  0
  2 11  1  0  0  0  0
  2  6  1  1  0  0  0
  4 13  1  0  0  0  0
  6 18  1  0  0  0  0
  7  9  1  0  0  0  0
  9 13  1  0  0  0  0
 10 17  1  0  0  0  0
 11  3  1  6  0  0  0
 11 16  1  0  0  0  0
 12 23  1  1  0  0  0
 12  2  1  0  0  0  0
 13  5  2  0  0  0  0
 14 18  1  6  0  0  0
 14  4  1  0  0  0  0
 16  7  1  1  0  0  0
 16 14  1  0  0  0  0
 17  8  1  6  0  0  0
 17 21  1  0  0  0  0
 19 10  1  0  0  0  0
 19 20  1  0  0  0  0
 20  1  1  0  0  0  0
 21  3  1  1  0  0  0
 22 26  2  0  0  0  0
 22 25  1  0  0  0  0
 24 23  1  0  0  0  0
 25 24  2  0  0  0  0
 26 27  1  0  0  0  0
 27 23  2  0  0  0  0
M  END
>  <MODEL>
4

>  <REMARK>
 VINA RESULT:      -6.1      4.181      5.957
  Name = 
  1 active torsions:
  status: ('A' for Active; 'I' for Inactive)
    1  A    between atoms: C_9  and  C_15
                            x       y       z     vdW  Elec       q    Type
                         _______ _______ _______ _____ _____    ______ ____

>  <TORSDO>
F 1

$$$$
=
 OpenBabel11052413413D

 27 31  0  0  1  0  0  0  0  0999 V2000
  186.9980  176.9200  136.0000 C   0  0  2  0  0  0  0  0  0  0  0  0
  184.5150  177.3440  136.4170 C   0  0  1  0  0  3  0  0  0  0  0  0
  186.1830  178.0290  138.1560 C   0  0  0  0  0  2  0  0  0  0  0  0
  181.2710  178.8890  138.8570 C   0  0  0  0  0  2  0  0  0  0  0  0
  180.7870  179.7520  140.9990 O   0  0  0  0  0  0  0  0  0  0  0  0
  183.0810  176.9090  136.1120 C   0  0  0  0  0  2  0  0  0  0  0  0
  183.9620  178.5010  140.1080 C   0  0  0  0  0  2  0  0  0  0  0  0
  188.9430  177.1410  139.1900 O   0  0  0  0  0  1  0  0  0  0  0  0
  182.7000  178.3730  140.9690 C   0  0  0  0  0  2  0  0  0  0  0  0
  189.7140  176.9890  136.9300 C   0  0  0  0  0  2  0  0  0  0  0  0
  184.7720  177.4810  137.9300 C   0  0  1  0  0  3  0  0  0  0  0  0
  185.5550  176.4230  135.7420 C   0  0  2  0  0  3  0  0  0  0  0  0
  181.5350  179.0660  140.3240 C   0  0  0  0  0  0  0  0  0  0  0  0
  182.2950  177.9430  138.2360 C   0  0  2  0  0  3  0  0  0  0  0  0
  187.1810  178.2530  135.2760 C   0  0  0  0  0  1  0  0  0  0  0  0
  183.7270  178.3970  138.5840 C   0  0  1  0  0  3  0  0  0  0  0  0
  188.6500  177.5420  137.8870 C   0  0  1  0  0  3  0  0  0  0  0  0
  182.0970  177.8930  136.7290 C   0  0  0  0  0  2  0  0  0  0  0  0
  189.2570  175.6930  136.2690 C   0  0  0  0  0  2  0  0  0  0  0  0
  188.0240  175.9390  135.3930 C   0  0  0  0  0  2  0  0  0  0  0  0
  187.2230  177.1030  137.5240 C   0  0  2  0  0  3  0  0  0  0  0  0
  184.9300  172.2280  136.5430 C   0  0  0  0  0  3  0  0  0  0  0  0
  185.3400  174.9560  136.0460 C   0  0  0  0  0  0  0  0  0  0  0  0
  185.4730  174.4450  137.3470 C   0  0  0  0  0  3  0  0  0  0  0  0
  185.2690  173.0860  137.5930 C   0  0  0  0  0  3  0  0  0  0  0  0
  184.7970  172.7320  135.2460 C   0  0  0  0  0  3  0  0  0  0  0  0
  185.0020  174.0920  134.9990 C   0  0  0  0  0  3  0  0  0  0  0  0
  1 15  1  6  0  0  0
  1 21  1  0  0  0  0
  2  6  1  1  0  0  0
  2 11  1  0  0  0  0
  4 13  1  0  0  0  0
  6 18  1  0  0  0  0
  7  9  1  0  0  0  0
 10 17  1  0  0  0  0
 11  3  1  6  0  0  0
 11 16  1  0  0  0  0
 12  1  1  0  0  0  0
 12 23  1  1  0  0  0
 12  2  1  0  0  0  0
 13  9  1  0  0  0  0
 13  5  2  0  0  0  0
 14 18  1  6  0  0  0
 14 16  1  0  0  0  0
 14  4  1  0  0  0  0
 16  7  1  1  0  0  0
 17  8  1  1  0  0  0
 19 10  1  0  0  0  0
 20  1  1  0  0  0  0
 20 19  1  0  0  0  0
 21 17  1  0  0  0  0
 21  3  1  6  0  0  0
 22 25  1  0  0  0  0
 23 24  1  0  0  0  0
 24 25  2  0  0  0  0
 26 22  2  0  0  0  0
 27 26  1  0  0  0  0
 27 23  2  0  0  0  0
M  END
>  <MODEL>
5

>  <REMARK>
 VINA RESULT:      -6.0      3.490      5.972
  Name = 
  1 active torsions:
  status: ('A' for Active; 'I' for Inactive)
    1  A    between atoms: C_9  and  C_15
                            x       y       z     vdW  Elec       q    Type
                         _______ _______ _______ _____ _____    ______ ____

>  <TORSDO>
F 1

$$$$
=
 OpenBabel11052413413D

 27 31  0  0  1  0  0  0  0  0999 V2000
  181.1530  178.2660  140.0890 C   0  0  2  0  0  0  0  0  0  0  0  0
  182.3140  177.7420  137.8770 C   0  0  1  0  0  3  0  0  0  0  0  0
  183.6800  177.8890  139.9720 C   0  0  0  0  0  2  0  0  0  0  0  0
  185.8720  176.7870  135.5750 C   0  0  0  0  0  2  0  0  0  0  0  0
  188.2230  176.6690  135.7250 O   0  0  0  0  0  0  0  0  0  0  0  0
  182.2770  177.8830  136.3550 C   0  0  0  0  0  2  0  0  0  0  0  0
  186.1920  177.8770  138.3430 C   0  0  0  0  0  2  0  0  0  0  0  0
  183.6300  179.3780  142.6660 O   0  0  0  0  0  1  0  0  0  0  0  0
  187.2700  178.1540  137.2890 C   0  0  0  0  0  2  0  0  0  0  0  0
  181.3140  178.8230  142.9020 C   0  0  0  0  0  2  0  0  0  0  0  0
  183.6740  178.1650  138.4670 C   0  0  1  0  0  3  0  0  0  0  0  0
  181.1410  178.4810  138.5560 C   0  0  2  0  0  3  0  0  0  0  0  0
  187.1990  177.1580  136.1690 C   0  0  0  0  0  0  0  0  0  0  0  0
  184.7450  177.5670  136.2450 C   0  0  2  0  0  3  0  0  0  0  0  0
  180.8530  176.7940  140.3670 C   0  0  0  0  0  1  0  0  0  0  0  0
  184.8280  177.4220  137.7780 C   0  0  1  0  0  3  0  0  0  0  0  0
  182.6380  178.5210  142.1880 C   0  0  1  0  0  3  0  0  0  0  0  0
  183.4020  177.0710  135.7290 C   0  0  0  0  0  2  0  0  0  0  0  0
  180.4300  179.7520  142.0770 C   0  0  0  0  0  2  0  0  0  0  0  0
  180.0270  179.0850  140.7580 C   0  0  0  0  0  2  0  0  0  0  0  0
  182.5450  178.6480  140.6590 C   0  0  2  0  0  3  0  0  0  0  0  0
  180.7500  182.5960  137.3140 C   0  0  0  0  0  3  0  0  0  0  0  0
  181.0240  179.9290  138.1340 C   0  0  0  0  0  0  0  0  0  0  0  0
  181.9320  180.9040  138.5770 C   0  0  0  0  0  3  0  0  0  0  0  0
  181.7950  182.2320  138.1680 C   0  0  0  0  0  3  0  0  0  0  0  0
  179.8430  181.6300  136.8700 C   0  0  0  0  0  3  0  0  0  0  0  0
  179.9800  180.3010  137.2790 C   0  0  0  0  0  3  0  0  0  0  0  0
  1 15  1  1  0  0  0
  1 21  1  0  0  0  0
  1 20  1  0  0  0  0
  2  6  1  6  0  0  0
  2 11  1  0  0  0  0
  2 12  1  0  0  0  0
  4 13  1  0  0  0  0
  5 13  2  0  0  0  0
  9  7  1  0  0  0  0
 11  3  1  1  0  0  0
 12 23  1  1  0  0  0
 12  1  1  0  0  0  0
 13  9  1  0  0  0  0
 14  4  1  6  0  0  0
 14 16  1  0  0  0  0
 16  7  1  1  0  0  0
 16 11  1  0  0  0  0
 17  8  1  1  0  0  0
 17 10  1  0  0  0  0
 18 14  1  0  0  0  0
 18  6  1  0  0  0  0
 19 10  1  0  0  0  0
 20 19  1  0  0  0  0
 21  3  1  6  0  0  0
 21 17  1  0  0  0  0
 22 25  1  0  0  0  0
 23 24  1  0  0  0  0
 25 24  2  0  0  0  0
 26 27  1  0  0  0  0
 26 22  2  0  0  0  0
 27 23  2  0  0  0  0
M  END
>  <MODEL>
6

>  <REMARK>
 VINA RESULT:      -5.8      2.126      6.188
  Name = 
  1 active torsions:
  status: ('A' for Active; 'I' for Inactive)
    1  A    between atoms: C_9  and  C_15
                            x       y       z     vdW  Elec       q    Type
                         _______ _______ _______ _____ _____    ______ ____

>  <TORSDO>
F 1

$$$$
=
 OpenBabel11052413413D

 27 31  0  0  1  0  0  0  0  0999 V2000
  188.7780  177.2230  137.1530 C   0  0  2  0  0  0  0  0  0  0  0  0
  186.4180  177.2530  136.1780 C   0  0  1  0  0  3  0  0  0  0  0  0
  186.7590  177.8780  138.5800 C   0  0  0  0  0  2  0  0  0  0  0  0
  182.1520  177.9780  136.5500 C   0  0  0  0  0  2  0  0  0  0  0  0
  180.4620  178.4380  138.1310 O   0  0  0  0  0  0  0  0  0  0  0  0
  185.4710  176.6870  135.1190 C   0  0  0  0  0  2  0  0  0  0  0  0
  183.8020  177.7580  139.0370 C   0  0  0  0  0  2  0  0  0  0  0  0
  188.6760  177.2100  140.8940 O   0  0  0  0  0  1  0  0  0  0  0  0
  182.3280  177.3390  139.0650 C   0  0  0  0  0  2  0  0  0  0  0  0
  190.5300  177.5030  139.4110 C   0  0  0  0  0  2  0  0  0  0  0  0
  185.8110  177.1920  137.5930 C   0  0  1  0  0  3  0  0  0  0  0  0
  187.8110  176.5880  136.1250 C   0  0  2  0  0  3  0  0  0  0  0  0
  181.5680  177.9640  137.9330 C   0  0  0  0  0  0  0  0  0  0  0  0
  183.5070  177.2780  136.5320 C   0  0  2  0  0  3  0  0  0  0  0  0
  189.0550  178.6620  136.7210 C   0  0  0  0  0  1  0  0  0  0  0  0
  184.4270  177.8560  137.6260 C   0  0  1  0  0  3  0  0  0  0  0  0
  189.0400  177.7620  139.6660 C   0  0  1  0  0  3  0  0  0  0  0  0
  184.1440  177.4300  135.1580 C   0  0  0  0  0  2  0  0  0  0  0  0
  190.7450  176.2730  138.5340 C   0  0  0  0  0  2  0  0  0  0  0  0
  190.1350  176.4860  137.1450 C   0  0  0  0  0  2  0  0  0  0  0  0
  188.1300  177.2010  138.5620 C   0  0  2  0  0  3  0  0  0  0  0  0
  187.6850  172.2750  136.2230 C   0  0  0  0  0  3  0  0  0  0  0  0
  187.7530  175.0770  136.1790 C   0  0  0  0  0  0  0  0  0  0  0  0
  187.0630  174.4010  137.1980 C   0  0  0  0  0  3  0  0  0  0  0  0
  187.0290  173.0050  137.2190 C   0  0  0  0  0  3  0  0  0  0  0  0
  188.3730  172.9430  135.2060 C   0  0  0  0  0  3  0  0  0  0  0  0
  188.4070  174.3400  135.1850 C   0  0  0  0  0  3  0  0  0  0  0  0
  1 15  1  6  0  0  0
  1 21  1  0  0  0  0
  2  6  1  6  0  0  0
  2 11  1  0  0  0  0
  4 13  1  0  0  0  0
  6 18  1  0  0  0  0
  7  9  1  0  0  0  0
 10 17  1  0  0  0  0
 11 16  1  0  0  0  0
 11  3  1  1  0  0  0
 12  2  1  0  0  0  0
 12 23  1  1  0  0  0
 12  1  1  0  0  0  0
 13  5  2  0  0  0  0
 13  9  1  0  0  0  0
 14 18  1  6  0  0  0
 14  4  1  0  0  0  0
 14 16  1  0  0  0  0
 16  7  1  1  0  0  0
 17  8  1  1  0  0  0
 19 10  1  0  0  0  0
 20  1  1  0  0  0  0
 20 19  1  0  0  0  0
 21  3  1  6  0  0  0
 21 17  1  0  0  0  0
 22 25  1  0  0  0  0
 23 24  1  0  0  0  0
 24 25  2  0  0  0  0
 26 22  2  0  0  0  0
 27 26  1  0  0  0  0
 27 23  2  0  0  0  0
M  END
>  <MODEL>
7

>  <REMARK>
 VINA RESULT:      -5.7      4.211      7.554
  Name = 
  1 active torsions:
  status: ('A' for Active; 'I' for Inactive)
    1  A    between atoms: C_9  and  C_15
                            x       y       z     vdW  Elec       q    Type
                         _______ _______ _______ _____ _____    ______ ____

>  <TORSDO>
F 1

$$$$
=
 OpenBabel11052413413D

 27 31  0  0  1  0  0  0  0  0999 V2000
  186.9300  177.2130  135.7280 C   0  0  2  0  0  0  0  0  0  0  0  0
  185.1300  177.7080  137.4690 C   0  0  1  0  0  3  0  0  0  0  0  0
  187.5340  178.1210  138.0420 C   0  0  0  0  0  2  0  0  0  0  0  0
  183.9080  179.1360  141.3850 C   0  0  0  0  0  2  0  0  0  0  0  0
  184.7550  179.7860  143.4890 O   0  0  0  0  0  0  0  0  0  0  0  0
  183.7260  177.3780  137.9780 C   0  0  0  0  0  2  0  0  0  0  0  0
  186.7920  178.4880  140.9190 C   0  0  0  0  0  2  0  0  0  0  0  0
  190.3080  176.9960  137.3250 O   0  0  0  0  0  1  0  0  0  0  0  0
  186.1960  178.3290  142.3230 C   0  0  0  0  0  2  0  0  0  0  0  0
  189.7060  177.0520  135.0100 C   0  0  0  0  0  2  0  0  0  0  0  0
  186.1810  177.6690  138.5960 C   0  0  1  0  0  3  0  0  0  0  0  0
  185.5380  176.8160  136.2770 C   0  0  2  0  0  3  0  0  0  0  0  0
  184.9430  179.1410  142.4720 C   0  0  0  0  0  0  0  0  0  0  0  0
  184.3300  178.2140  140.2450 C   0  0  2  0  0  3  0  0  0  0  0  0
  186.8200  178.6050  135.1090 C   0  0  0  0  0  1  0  0  0  0  0  0
  185.7570  178.5590  139.7740 C   0  0  1  0  0  3  0  0  0  0  0  0
  189.3950  177.5490  136.4270 C   0  0  1  0  0  3  0  0  0  0  0  0
  183.3400  178.3360  139.0960 C   0  0  0  0  0  2  0  0  0  0  0  0
  188.8370  175.8570  134.6300 C   0  0  0  0  0  2  0  0  0  0  0  0
  187.3580  176.2540  134.5950 C   0  0  0  0  0  2  0  0  0  0  0  0
  187.9650  177.2200  136.8840 C   0  0  2  0  0  3  0  0  0  0  0  0
  185.0260  172.5990  137.0360 C   0  0  0  0  0  3  0  0  0  0  0  0
  185.3800  175.3370  136.5550 C   0  0  0  0  0  0  0  0  0  0  0  0
  186.3460  174.6140  137.2720 C   0  0  0  0  0  3  0  0  0  0  0  0
  186.1690  173.2490  137.5110 C   0  0  0  0  0  3  0  0  0  0  0  0
  184.0610  173.3150  136.3220 C   0  0  0  0  0  3  0  0  0  0  0  0
  184.2380  174.6800  136.0820 C   0  0  0  0  0  3  0  0  0  0  0  0
  1 15  1  6  0  0  0
  1 12  1  0  0  0  0
  1 21  1  0  0  0  0
  2  6  1  1  0  0  0
  2 11  1  0  0  0  0
  4 13  1  0  0  0  0
  6 18  1  0  0  0  0
  7  9  1  0  0  0  0
  9 13  1  0  0  0  0
 10 17  1  0  0  0  0
 11  3  1  6  0  0  0
 11 16  1  0  0  0  0
 12 23  1  1  0  0  0
 12  2  1  0  0  0  0
 13  5  2  0  0  0  0
 14 18  1  6  0  0  0
 14  4  1  0  0  0  0
 16 14  1  0  0  0  0
 16  7  1  1  0  0  0
 17 21  1  0  0  0  0
 17  8  1  1  0  0  0
 19 10  1  0  0  0  0
 20 19  1  0  0  0  0
 20  1  1  0  0  0  0
 21  3  1  1  0  0  0
 22 25  1  0  0  0  0
 23 24  1  0  0  0  0
 24 25  2  0  0  0  0
 26 22  2  0  0  0  0
 27 26  1  0  0  0  0
 27 23  2  0  0  0  0
M  END
>  <MODEL>
8

>  <REMARK>
 VINA RESULT:      -5.6      3.437      5.198
  Name = 
  1 active torsions:
  status: ('A' for Active; 'I' for Inactive)
    1  A    between atoms: C_9  and  C_15
                            x       y       z     vdW  Elec       q    Type
                         _______ _______ _______ _____ _____    ______ ____

>  <TORSDO>
F 1

$$$$
=
 OpenBabel11052413413D

 27 31  0  0  1  0  0  0  0  0999 V2000
  181.7120  178.5030  139.3920 C   0  0  2  0  0  0  0  0  0  0  0  0
  183.8210  177.7730  138.1510 C   0  0  1  0  0  3  0  0  0  0  0  0
  181.9890  176.1080  138.5360 C   0  0  0  0  0  2  0  0  0  0  0  0
  186.1520  174.7800  136.0350 C   0  0  0  0  0  2  0  0  0  0  0  0
  186.2200  172.4790  135.5230 O   0  0  0  0  0  0  0  0  0  0  0  0
  185.3150  178.0110  137.9310 C   0  0  0  0  0  2  0  0  0  0  0  0
  183.8090  173.8940  137.6730 C   0  0  0  0  0  2  0  0  0  0  0  0
  179.7830  175.5340  140.6050 O   0  0  0  0  0  1  0  0  0  0  0  0
  185.0050  172.9530  137.4870 C   0  0  0  0  0  2  0  0  0  0  0  0
  179.1730  177.8470  140.5610 C   0  0  0  0  0  2  0  0  0  0  0  0
  183.5050  176.2930  138.4430 C   0  0  1  0  0  3  0  0  0  0  0  0
  183.2390  178.7060  139.2350 C   0  0  2  0  0  3  0  0  0  0  0  0
  185.8150  173.3400  136.2840 C   0  0  0  0  0  0  0  0  0  0  0  0
  185.5940  175.6640  137.1470 C   0  0  2  0  0  3  0  0  0  0  0  0
  181.0330  178.9810  138.1100 C   0  0  0  0  0  1  0  0  0  0  0  0
  184.0930  175.3800  137.3570 C   0  0  1  0  0  3  0  0  0  0  0  0
  179.9160  176.7050  139.8590 C   0  0  1  0  0  3  0  0  0  0  0  0
  185.8220  177.1280  136.8000 C   0  0  0  0  0  2  0  0  0  0  0  0
  180.1150  178.6900  141.4150 C   0  0  0  0  0  2  0  0  0  0  0  0
  181.1660  179.3800  140.5400 C   0  0  0  0  0  2  0  0  0  0  0  0
  181.4080  177.0010  139.6330 C   0  0  2  0  0  3  0  0  0  0  0  0
  185.4900  178.5980  142.9160 C   0  0  0  0  0  3  0  0  0  0  0  0
  184.0080  178.6610  140.5380 C   0  0  0  0  0  0  0  0  0  0  0  0
  183.3960  178.2840  141.7430 C   0  0  0  0  0  3  0  0  0  0  0  0
  184.1350  178.2530  142.9280 C   0  0  0  0  0  3  0  0  0  0  0  0
  186.1040  178.9740  141.7190 C   0  0  0  0  0  3  0  0  0  0  0  0
  185.3640  179.0050  140.5330 C   0  0  0  0  0  3  0  0  0  0  0  0
  1 15  1  6  0  0  0
  1 21  1  0  0  0  0
  1 20  1  0  0  0  0
  2  6  1  1  0  0  0
  2 11  1  0  0  0  0
  2 12  1  0  0  0  0
  4 13  1  0  0  0  0
  5 13  2  0  0  0  0
  9  7  1  0  0  0  0
 10 19  1  0  0  0  0
 11  3  1  6  0  0  0
 12  1  1  0  0  0  0
 12 23  1  1  0  0  0
 13  9  1  0  0  0  0
 14  4  1  6  0  0  0
 14 16  1  0  0  0  0
 16  7  1  1  0  0  0
 16 11  1  0  0  0  0
 17 10  1  0  0  0  0
 17  8  1  1  0  0  0
 18 14  1  0  0  0  0
 18  6  1  0  0  0  0
 20 19  1  0  0  0  0
 21  3  1  6  0  0  0
 21 17  1  0  0  0  0
 22 25  1  0  0  0  0
 23 24  1  0  0  0  0
 24 25  2  0  0  0  0
 26 22  2  0  0  0  0
 27 23  2  0  0  0  0
 27 26  1  0  0  0  0
M  END
>  <MODEL>
9

>  <REMARK>
 VINA RESULT:      -5.4      2.602      6.356
  Name = 
  1 active torsions:
  status: ('A' for Active; 'I' for Inactive)
    1  A    between atoms: C_9  and  C_15
                            x       y       z     vdW  Elec       q    Type
                         _______ _______ _______ _____ _____    ______ ____

>  <TORSDO>
F 1

$$$$
