=
 OpenBabel11052413463D

 27 30  0  0  1  0  0  0  0  0999 V2000
  188.4590  177.9750  142.3280 C   0  0  2  0  0  3  0  0  0  0  0  0
  188.7730  177.8230  140.9060 N   0  0  0  0  0  0  0  0  0  0  0  0
  186.8720  178.7980  140.0140 O   0  0  0  0  0  0  0  0  0  0  0  0
  190.2900  176.8280  136.7890 C   0  0  0  0  0  3  0  0  0  0  0  0
  188.7890  177.5710  135.0790 F   0  0  0  0  0  0  0  0  0  0  0  0
  189.8530  177.2120  140.4270 N   0  0  0  0  0  2  0  0  0  0  0  0
  188.2110  177.9840  137.3650 C   0  0  0  0  0  0  0  0  0  0  0  0
  187.0530  178.5950  137.0090 F   0  0  0  0  0  0  0  0  0  0  0  0
  188.5750  177.8460  138.7030 C   0  0  0  0  0  0  0  0  0  0  0  0
  189.0910  177.4650  136.3960 C   0  0  0  0  0  0  0  0  0  0  0  0
  189.7390  177.2290  139.0840 C   0  0  0  0  0  0  0  0  0  0  0  0
  187.9790  178.2100  139.8840 C   0  0  0  0  0  0  0  0  0  0  0  0
  190.6290  176.7020  138.1510 C   0  0  0  0  0  3  0  0  0  0  0  0
  191.8760  177.5500  144.9110 C   0  0  0  0  0  3  0  0  0  0  0  0
  189.6510  177.7990  143.2250 C   0  0  0  0  0  0  0  0  0  0  0  0
  189.9560  176.5640  143.8160 C   0  0  0  0  0  3  0  0  0  0  0  0
  191.0660  176.4400  144.6560 C   0  0  0  0  0  3  0  0  0  0  0  0
  191.5740  178.7840  144.3270 C   0  0  0  0  0  3  0  0  0  0  0  0
  190.4640  178.9070  143.4880 C   0  0  0  0  0  3  0  0  0  0  0  0
  187.2170  177.1810  142.7580 C   0  0  0  0  0  2  0  0  0  0  0  0
  185.0380  178.8970  146.5040 C   0  0  0  0  0  2  0  0  0  0  0  0
  183.9760  178.7210  145.4450 C   0  0  0  0  0  2  0  0  0  0  0  0
  186.3950  177.8530  143.8100 C   0  0  0  0  0  0  0  0  0  0  0  0
  186.1440  177.9060  146.3550 C   0  0  0  0  0  3  0  0  0  0  0  0
  184.4500  179.4530  144.2120 C   0  0  0  0  0  2  0  0  0  0  0  0
  185.3940  178.6390  143.3880 C   0  0  0  0  0  3  0  0  0  0  0  0
  186.7140  177.4990  145.2160 C   0  0  0  0  0  3  0  0  0  0  0  0
  1 20  1  1  0  0  0
  1 15  1  0  0  0  0
  2  1  1  0  0  0  0
  4 13  1  0  0  0  0
  5 10  1  0  0  0  0
  6  2  1  0  0  0  0
  7  9  2  0  0  0  0
  8  7  1  0  0  0  0
  9 11  1  0  0  0  0
  9 12  1  0  0  0  0
 10  4  2  0  0  0  0
 10  7  1  0  0  0  0
 11  6  1  0  0  0  0
 12  3  2  0  0  0  0
 12  2  1  0  0  0  0
 13 11  2  0  0  0  0
 15 19  2  0  0  0  0
 15 16  1  0  0  0  0
 16 17  2  0  0  0  0
 17 14  1  0  0  0  0
 18 14  2  0  0  0  0
 19 18  1  0  0  0  0
 20 23  1  0  0  0  0
 22 21  1  0  0  0  0
 23 27  1  0  0  0  0
 24 21  1  0  0  0  0
 25 22  1  0  0  0  0
 26 23  2  0  0  0  0
 26 25  1  0  0  0  0
 27 24  2  0  0  0  0
M  END
>  <MODEL>
1

>  <REMARK>
 VINA RESULT:      -9.3      0.000      0.000
  Name = 
  4 active torsions:
  status: ('A' for Active; 'I' for Inactive)
    1  A    between atoms: C_1  and  C_15
    2  A    between atoms: C_1  and  C_18
    3  A    between atoms: N_2  and  C_15
    4  A    between atoms: C_9  and  C_15
                            x       y       z     vdW  Elec       q    Type
                         _______ _______ _______ _____ _____    ______ ____

>  <TORSDO>
F 4

$$$$
=
 OpenBabel11052413463D

 27 30  0  0  1  0  0  0  0  0999 V2000
  188.3600  178.0050  142.6280 C   0  0  2  0  0  3  0  0  0  0  0  0
  188.7120  177.8590  141.2140 N   0  0  0  0  0  0  0  0  0  0  0  0
  190.1750  176.0740  141.3910 O   0  0  0  0  0  0  0  0  0  0  0  0
  189.4780  178.1490  136.7900 C   0  0  0  0  0  3  0  0  0  0  0  0
  191.0280  176.4850  136.0400 F   0  0  0  0  0  0  0  0  0  0  0  0
  188.2810  178.6540  140.2370 N   0  0  0  0  0  2  0  0  0  0  0  0
  190.4480  176.5430  138.3620 C   0  0  0  0  0  0  0  0  0  0  0  0
  191.2600  175.4910  138.6370 F   0  0  0  0  0  0  0  0  0  0  0  0
  189.7020  177.1620  139.3620 C   0  0  0  0  0  0  0  0  0  0  0  0
  190.3270  177.0490  137.0540 C   0  0  0  0  0  0  0  0  0  0  0  0
  188.8780  178.2290  139.1060 C   0  0  0  0  0  0  0  0  0  0  0  0
  189.5790  176.9530  140.7120 C   0  0  0  0  0  0  0  0  0  0  0  0
  188.7390  178.7550  137.8240 C   0  0  0  0  0  3  0  0  0  0  0  0
  191.7450  177.7780  145.2780 C   0  0  0  0  0  3  0  0  0  0  0  0
  189.5480  177.9520  143.5460 C   0  0  0  0  0  0  0  0  0  0  0  0
  190.6430  178.8150  143.3900 C   0  0  0  0  0  3  0  0  0  0  0  0
  191.7380  178.7290  144.2540 C   0  0  0  0  0  3  0  0  0  0  0  0
  190.6590  176.9130  145.4350 C   0  0  0  0  0  3  0  0  0  0  0  0
  189.5650  176.9990  144.5710 C   0  0  0  0  0  3  0  0  0  0  0  0
  187.1880  177.1080  143.0510 C   0  0  0  0  0  2  0  0  0  0  0  0
  183.6270  179.3570  145.0490 C   0  0  0  0  0  2  0  0  0  0  0  0
  183.0370  178.5750  143.9000 C   0  0  0  0  0  2  0  0  0  0  0  0
  185.9690  177.8590  143.4800 C   0  0  0  0  0  0  0  0  0  0  0  0
  184.8350  178.6890  145.6180 C   0  0  0  0  0  3  0  0  0  0  0  0
  183.8130  178.9510  142.6600 C   0  0  0  0  0  2  0  0  0  0  0  0
  185.0860  178.1780  142.5230 C   0  0  0  0  0  3  0  0  0  0  0  0
  185.8170  178.0860  144.9380 C   0  0  0  0  0  3  0  0  0  0  0  0
  1 20  1  1  0  0  0
  1 15  1  0  0  0  0
  2  1  1  0  0  0  0
  4 10  2  0  0  0  0
  4 13  1  0  0  0  0
  5 10  1  0  0  0  0
  6  2  1  0  0  0  0
  7  8  1  0  0  0  0
  7  9  2  0  0  0  0
  9 12  1  0  0  0  0
 10  7  1  0  0  0  0
 11  9  1  0  0  0  0
 11  6  1  0  0  0  0
 12  2  1  0  0  0  0
 12  3  2  0  0  0  0
 13 11  2  0  0  0  0
 14 18  1  0  0  0  0
 15 19  1  0  0  0  0
 16 15  2  0  0  0  0
 16 17  1  0  0  0  0
 17 14  2  0  0  0  0
 19 18  2  0  0  0  0
 20 23  1  0  0  0  0
 21 24  1  0  0  0  0
 22 21  1  0  0  0  0
 23 27  1  0  0  0  0
 25 22  1  0  0  0  0
 26 25  1  0  0  0  0
 26 23  2  0  0  0  0
 27 24  2  0  0  0  0
M  END
>  <MODEL>
2

>  <REMARK>
 VINA RESULT:      -9.0      1.607      2.200
  Name = 
  4 active torsions:
  status: ('A' for Active; 'I' for Inactive)
    1  A    between atoms: C_1  and  C_15
    2  A    between atoms: C_1  and  C_18
    3  A    between atoms: N_2  and  C_15
    4  A    between atoms: C_9  and  C_15
                            x       y       z     vdW  Elec       q    Type
                         _______ _______ _______ _____ _____    ______ ____

>  <TORSDO>
F 4

$$$$
=
 OpenBabel11052413463D

 27 30  0  0  1  0  0  0  0  0999 V2000
  188.1100  177.6480  142.9220 C   0  0  2  0  0  3  0  0  0  0  0  0
  188.4980  177.6120  141.5110 N   0  0  0  0  0  0  0  0  0  0  0  0
  190.1240  175.9690  141.6290 O   0  0  0  0  0  0  0  0  0  0  0  0
  189.3100  178.2090  137.1260 C   0  0  0  0  0  3  0  0  0  0  0  0
  191.0260  176.7440  136.3270 F   0  0  0  0  0  0  0  0  0  0  0  0
  188.0100  178.4130  140.5670 N   0  0  0  0  0  2  0  0  0  0  0  0
  190.4030  176.6220  138.6350 C   0  0  0  0  0  0  0  0  0  0  0  0
  191.3080  175.6400  138.8730 F   0  0  0  0  0  0  0  0  0  0  0  0
  189.5840  177.1130  139.6480 C   0  0  0  0  0  0  0  0  0  0  0  0
  190.2560  177.1830  137.3520 C   0  0  0  0  0  0  0  0  0  0  0  0
  188.6650  178.1080  139.4290 C   0  0  0  0  0  0  0  0  0  0  0  0
  189.4580  176.8220  140.9830 C   0  0  0  0  0  0  0  0  0  0  0  0
  188.4970  178.6860  138.1730 C   0  0  0  0  0  3  0  0  0  0  0  0
  183.9920  178.7020  143.6040 C   0  0  0  0  0  3  0  0  0  0  0  0
  186.6670  178.0060  143.1350 C   0  0  0  0  0  0  0  0  0  0  0  0
  185.7900  178.2110  142.0590 C   0  0  0  0  0  3  0  0  0  0  0  0
  184.4560  178.5570  142.2930 C   0  0  0  0  0  3  0  0  0  0  0  0
  184.8630  178.5030  144.6790 C   0  0  0  0  0  3  0  0  0  0  0  0
  186.1960  178.1570  144.4440 C   0  0  0  0  0  3  0  0  0  0  0  0
  189.0970  178.4340  143.7980 C   0  0  0  0  0  2  0  0  0  0  0  0
  190.5600  176.1050  147.5610 C   0  0  0  0  0  2  0  0  0  0  0  0
  191.8010  176.6550  146.9000 C   0  0  0  0  0  2  0  0  0  0  0  0
  189.7400  177.6200  144.8740 C   0  0  0  0  0  0  0  0  0  0  0  0
  189.3680  176.9710  147.3200 C   0  0  0  0  0  3  0  0  0  0  0  0
  191.7770  176.2010  145.4600 C   0  0  0  0  0  2  0  0  0  0  0  0
  190.9350  177.0810  144.5930 C   0  0  0  0  0  3  0  0  0  0  0  0
  189.0310  177.5790  146.1770 C   0  0  0  0  0  3  0  0  0  0  0  0
  1 15  1  0  0  0  0
  1 20  1  1  0  0  0
  2  1  1  0  0  0  0
  4 10  2  0  0  0  0
  4 13  1  0  0  0  0
  5 10  1  0  0  0  0
  6  2  1  0  0  0  0
  7  8  1  0  0  0  0
  7  9  2  0  0  0  0
  9 12  1  0  0  0  0
 10  7  1  0  0  0  0
 11  9  1  0  0  0  0
 11  6  1  0  0  0  0
 12  2  1  0  0  0  0
 12  3  2  0  0  0  0
 13 11  2  0  0  0  0
 14 18  1  0  0  0  0
 15 19  1  0  0  0  0
 16 17  1  0  0  0  0
 16 15  2  0  0  0  0
 17 14  2  0  0  0  0
 19 18  2  0  0  0  0
 20 23  1  0  0  0  0
 22 21  1  0  0  0  0
 23 27  1  0  0  0  0
 24 21  1  0  0  0  0
 25 22  1  0  0  0  0
 26 23  2  0  0  0  0
 26 25  1  0  0  0  0
 27 24  2  0  0  0  0
M  END
>  <MODEL>
3

>  <REMARK>
 VINA RESULT:      -8.5      1.977      4.542
  Name = 
  4 active torsions:
  status: ('A' for Active; 'I' for Inactive)
    1  A    between atoms: C_1  and  C_15
    2  A    between atoms: C_1  and  C_18
    3  A    between atoms: N_2  and  C_15
    4  A    between atoms: C_9  and  C_15
                            x       y       z     vdW  Elec       q    Type
                         _______ _______ _______ _____ _____    ______ ____

>  <TORSDO>
F 4

$$$$
=
 OpenBabel11052413463D

 27 30  0  0  1  0  0  0  0  0999 V2000
  186.7690  178.0260  143.2250 C   0  0  2  0  0  3  0  0  0  0  0  0
  185.4170  178.2130  142.6950 N   0  0  0  0  0  0  0  0  0  0  0  0
  184.4020  179.0570  144.5970 O   0  0  0  0  0  0  0  0  0  0  0  0
  181.5060  178.3070  140.4720 C   0  0  0  0  0  3  0  0  0  0  0  0
  179.7250  179.1520  141.8300 F   0  0  0  0  0  0  0  0  0  0  0  0
  185.0270  177.8770  141.4680 N   0  0  0  0  0  2  0  0  0  0  0  0
  181.9170  179.0030  142.7820 C   0  0  0  0  0  0  0  0  0  0  0  0
  181.4830  179.4960  143.9700 F   0  0  0  0  0  0  0  0  0  0  0  0
  183.2510  178.6520  142.5880 C   0  0  0  0  0  0  0  0  0  0  0  0
  181.0350  178.8260  141.6990 C   0  0  0  0  0  0  0  0  0  0  0  0
  183.7090  178.1490  141.3970 C   0  0  0  0  0  0  0  0  0  0  0  0
  184.3590  178.6770  143.3960 C   0  0  0  0  0  0  0  0  0  0  0  0
  182.8620  177.9590  140.3080 C   0  0  0  0  0  3  0  0  0  0  0  0
  189.7760  177.5120  140.1880 C   0  0  0  0  0  3  0  0  0  0  0  0
  187.8120  177.8720  142.1560 C   0  0  0  0  0  0  0  0  0  0  0  0
  187.7780  178.6280  140.9740 C   0  0  0  0  0  3  0  0  0  0  0  0
  188.7570  178.4490  139.9940 C   0  0  0  0  0  3  0  0  0  0  0  0
  189.8130  176.7530  141.3610 C   0  0  0  0  0  3  0  0  0  0  0  0
  188.8330  176.9320  142.3410 C   0  0  0  0  0  3  0  0  0  0  0  0
  186.8380  176.9700  144.3380 C   0  0  0  0  0  2  0  0  0  0  0  0
  189.2930  178.2380  148.0920 C   0  0  0  0  0  2  0  0  0  0  0  0
  187.9310  177.8330  148.6000 C   0  0  0  0  0  2  0  0  0  0  0  0
  187.4310  177.4690  145.6170 C   0  0  0  0  0  0  0  0  0  0  0  0
  189.6700  177.4970  146.8520 C   0  0  0  0  0  3  0  0  0  0  0  0
  186.9110  178.6340  147.8260 C   0  0  0  0  0  2  0  0  0  0  0  0
  186.5880  178.0240  146.4990 C   0  0  0  0  0  3  0  0  0  0  0  0
  188.8770  177.2050  145.8150 C   0  0  0  0  0  3  0  0  0  0  0  0
  1 20  1  1  0  0  0
  2  1  1  0  0  0  0
  2 12  1  0  0  0  0
  4 10  1  0  0  0  0
  6  2  1  0  0  0  0
  7  8  1  0  0  0  0
  9  7  1  0  0  0  0
  9 12  1  0  0  0  0
 10  5  1  0  0  0  0
 10  7  2  0  0  0  0
 11  6  1  0  0  0  0
 11  9  2  0  0  0  0
 12  3  2  0  0  0  0
 13  4  2  0  0  0  0
 13 11  1  0  0  0  0
 14 18  1  0  0  0  0
 15 19  1  0  0  0  0
 15  1  1  0  0  0  0
 16 15  2  0  0  0  0
 17 14  2  0  0  0  0
 17 16  1  0  0  0  0
 18 19  2  0  0  0  0
 20 23  1  0  0  0  0
 21 22  1  0  0  0  0
 23 27  1  0  0  0  0
 23 26  2  0  0  0  0
 24 21  1  0  0  0  0
 25 22  1  0  0  0  0
 26 25  1  0  0  0  0
 27 24  2  0  0  0  0
M  END
>  <MODEL>
4

>  <REMARK>
 VINA RESULT:      -8.4      3.705      5.852
  Name = 
  4 active torsions:
  status: ('A' for Active; 'I' for Inactive)
    1  A    between atoms: C_1  and  C_15
    2  A    between atoms: C_1  and  C_18
    3  A    between atoms: N_2  and  C_15
    4  A    between atoms: C_9  and  C_15
                            x       y       z     vdW  Elec       q    Type
                         _______ _______ _______ _____ _____    ______ ____

>  <TORSDO>
F 4

$$$$
=
 OpenBabel11052413463D

 27 30  0  0  1  0  0  0  0  0999 V2000
  187.7470  177.7860  142.7690 C   0  0  2  0  0  3  0  0  0  0  0  0
  186.3190  178.0990  142.6830 N   0  0  0  0  0  0  0  0  0  0  0  0
  185.9400  178.6540  144.8980 O   0  0  0  0  0  0  0  0  0  0  0  0
  181.9630  178.6750  141.7130 C   0  0  0  0  0  3  0  0  0  0  0  0
  180.7000  179.3430  143.6340 F   0  0  0  0  0  0  0  0  0  0  0  0
  185.5790  177.9790  141.5840 N   0  0  0  0  0  2  0  0  0  0  0  0
  183.0520  178.9730  143.8850 C   0  0  0  0  0  0  0  0  0  0  0  0
  183.0050  179.2800  145.2060 F   0  0  0  0  0  0  0  0  0  0  0  0
  184.2490  178.6170  143.2670 C   0  0  0  0  0  0  0  0  0  0  0  0
  181.8930  179.0030  143.0870 C   0  0  0  0  0  0  0  0  0  0  0  0
  184.3170  178.3000  141.9340 C   0  0  0  0  0  0  0  0  0  0  0  0
  185.5370  178.4760  143.7180 C   0  0  0  0  0  0  0  0  0  0  0  0
  183.1890  178.3160  141.1180 C   0  0  0  0  0  3  0  0  0  0  0  0
  189.7770  177.7930  138.9730 C   0  0  0  0  0  3  0  0  0  0  0  0
  188.4440  177.8140  141.4390 C   0  0  0  0  0  0  0  0  0  0  0  0
  188.0060  178.6370  140.3910 C   0  0  0  0  0  3  0  0  0  0  0  0
  188.6710  178.6280  139.1620 C   0  0  0  0  0  3  0  0  0  0  0  0
  190.2150  176.9680  140.0130 C   0  0  0  0  0  3  0  0  0  0  0  0
  189.5490  176.9780  141.2420 C   0  0  0  0  0  3  0  0  0  0  0  0
  188.0380  176.5380  143.6150 C   0  0  0  0  0  2  0  0  0  0  0  0
  191.6800  176.9560  146.4940 C   0  0  0  0  0  2  0  0  0  0  0  0
  190.5220  176.4960  147.3470 C   0  0  0  0  0  2  0  0  0  0  0  0
  189.0560  176.7530  144.6890 C   0  0  0  0  0  0  0  0  0  0  0  0
  191.5660  176.4690  145.0880 C   0  0  0  0  0  3  0  0  0  0  0  0
  189.3870  177.4640  147.1160 C   0  0  0  0  0  2  0  0  0  0  0  0
  188.5980  177.1430  145.8880 C   0  0  0  0  0  3  0  0  0  0  0  0
  190.4580  176.4140  144.3410 C   0  0  0  0  0  3  0  0  0  0  0  0
  1 20  1  6  0  0  0
  2  1  1  0  0  0  0
  2 12  1  0  0  0  0
  4 10  1  0  0  0  0
  6 11  1  0  0  0  0
  6  2  1  0  0  0  0
  7  8  1  0  0  0  0
  9 12  1  0  0  0  0
  9  7  1  0  0  0  0
 10  5  1  0  0  0  0
 10  7  2  0  0  0  0
 11  9  2  0  0  0  0
 12  3  2  0  0  0  0
 13  4  2  0  0  0  0
 13 11  1  0  0  0  0
 14 17  2  0  0  0  0
 14 18  1  0  0  0  0
 15  1  1  0  0  0  0
 16 15  2  0  0  0  0
 17 16  1  0  0  0  0
 18 19  2  0  0  0  0
 19 15  1  0  0  0  0
 20 23  1  0  0  0  0
 21 22  1  0  0  0  0
 23 26  2  0  0  0  0
 24 21  1  0  0  0  0
 25 22  1  0  0  0  0
 26 25  1  0  0  0  0
 27 23  1  0  0  0  0
 27 24  2  0  0  0  0
M  END
>  <MODEL>
5

>  <REMARK>
 VINA RESULT:      -8.4      3.560      6.284
  Name = 
  4 active torsions:
  status: ('A' for Active; 'I' for Inactive)
    1  A    between atoms: C_1  and  C_15
    2  A    between atoms: C_1  and  C_18
    3  A    between atoms: N_2  and  C_15
    4  A    between atoms: C_9  and  C_15
                            x       y       z     vdW  Elec       q    Type
                         _______ _______ _______ _____ _____    ______ ____

>  <TORSDO>
F 4

$$$$
=
 OpenBabel11052413463D

 27 30  0  0  1  0  0  0  0  0999 V2000
  187.6190  178.1330  143.2990 C   0  0  2  0  0  3  0  0  0  0  0  0
  186.4830  178.4100  142.4170 N   0  0  0  0  0  0  0  0  0  0  0  0
  184.7740  178.2280  143.9670 O   0  0  0  0  0  0  0  0  0  0  0  0
  183.5140  179.1160  139.1100 C   0  0  0  0  0  3  0  0  0  0  0  0
  181.2600  179.1040  139.9150 F   0  0  0  0  0  0  0  0  0  0  0  0
  186.5710  178.6170  141.1050 N   0  0  0  0  0  2  0  0  0  0  0  0
  183.0350  178.7530  141.4830 C   0  0  0  0  0  0  0  0  0  0  0  0
  182.1610  178.6280  142.5130 F   0  0  0  0  0  0  0  0  0  0  0  0
  184.4090  178.6490  141.6830 C   0  0  0  0  0  0  0  0  0  0  0  0
  182.5870  178.9930  140.1700 C   0  0  0  0  0  0  0  0  0  0  0  0
  185.3100  178.7690  140.6550 C   0  0  0  0  0  0  0  0  0  0  0  0
  185.1850  178.4160  142.7910 C   0  0  0  0  0  0  0  0  0  0  0  0
  184.8990  179.0030  139.3460 C   0  0  0  0  0  3  0  0  0  0  0  0
  191.3210  177.3610  141.2430 C   0  0  0  0  0  3  0  0  0  0  0  0
  188.8960  177.8600  142.5580 C   0  0  0  0  0  0  0  0  0  0  0  0
  188.9140  177.1370  141.3560 C   0  0  0  0  0  3  0  0  0  0  0  0
  190.1230  176.8890  140.7000 C   0  0  0  0  0  3  0  0  0  0  0  0
  191.3090  178.0790  142.4420 C   0  0  0  0  0  3  0  0  0  0  0  0
  190.1000  178.3260  143.0980 C   0  0  0  0  0  3  0  0  0  0  0  0
  187.2910  177.1140  144.4000 C   0  0  0  0  0  2  0  0  0  0  0  0
  189.3720  178.0290  148.4690 C   0  0  0  0  0  2  0  0  0  0  0  0
  187.9310  177.7180  148.7960 C   0  0  0  0  0  2  0  0  0  0  0  0
  187.7640  177.5120  145.7610 C   0  0  0  0  0  0  0  0  0  0  0  0
  189.8350  177.3090  147.2470 C   0  0  0  0  0  3  0  0  0  0  0  0
  187.0750  178.6290  147.9490 C   0  0  0  0  0  2  0  0  0  0  0  0
  186.8670  178.1000  146.5660 C   0  0  0  0  0  3  0  0  0  0  0  0
  189.1510  177.1230  146.1120 C   0  0  0  0  0  3  0  0  0  0  0  0
  1 20  1  6  0  0  0
  2 12  1  0  0  0  0
  2  1  1  0  0  0  0
  4 13  2  0  0  0  0
  4 10  1  0  0  0  0
  5 10  1  0  0  0  0
  6  2  1  0  0  0  0
  7  9  1  0  0  0  0
  7  8  1  0  0  0  0
  9 12  1  0  0  0  0
 10  7  2  0  0  0  0
 11  6  1  0  0  0  0
 11  9  2  0  0  0  0
 12  3  2  0  0  0  0
 13 11  1  0  0  0  0
 14 18  1  0  0  0  0
 15 19  1  0  0  0  0
 15  1  1  0  0  0  0
 16 15  2  0  0  0  0
 17 14  2  0  0  0  0
 17 16  1  0  0  0  0
 18 19  2  0  0  0  0
 20 23  1  0  0  0  0
 21 22  1  0  0  0  0
 23 27  1  0  0  0  0
 23 26  2  0  0  0  0
 24 21  1  0  0  0  0
 25 22  1  0  0  0  0
 26 25  1  0  0  0  0
 27 24  2  0  0  0  0
M  END
>  <MODEL>
6

>  <REMARK>
 VINA RESULT:      -8.2      3.217      4.738
  Name = 
  4 active torsions:
  status: ('A' for Active; 'I' for Inactive)
    1  A    between atoms: C_1  and  C_15
    2  A    between atoms: C_1  and  C_18
    3  A    between atoms: N_2  and  C_15
    4  A    between atoms: C_9  and  C_15
                            x       y       z     vdW  Elec       q    Type
                         _______ _______ _______ _____ _____    ______ ____

>  <TORSDO>
F 4

$$$$
=
 OpenBabel11052413463D

 27 30  0  0  1  0  0  0  0  0999 V2000
  186.7500  177.8220  143.0680 C   0  0  2  0  0  3  0  0  0  0  0  0
  185.5620  178.1470  142.2750 N   0  0  0  0  0  0  0  0  0  0  0  0
  186.6100  178.8390  140.3310 O   0  0  0  0  0  0  0  0  0  0  0  0
  181.5280  179.1280  140.5420 C   0  0  0  0  0  3  0  0  0  0  0  0
  181.6960  179.9810  138.3120 F   0  0  0  0  0  0  0  0  0  0  0  0
  184.3090  178.0760  142.7170 N   0  0  0  0  0  2  0  0  0  0  0  0
  183.7090  179.3780  139.4590 C   0  0  0  0  0  0  0  0  0  0  0  0
  184.4740  179.7340  138.3970 F   0  0  0  0  0  0  0  0  0  0  0  0
  184.2790  178.8770  140.6270 C   0  0  0  0  0  0  0  0  0  0  0  0
  182.3060  179.5010  139.4220 C   0  0  0  0  0  0  0  0  0  0  0  0
  183.5230  178.5160  141.7130 C   0  0  0  0  0  0  0  0  0  0  0  0
  185.5730  178.6360  141.0160 C   0  0  0  0  0  0  0  0  0  0  0  0
  182.1360  178.6280  141.7110 C   0  0  0  0  0  3  0  0  0  0  0  0
  186.2950  178.4680  147.3000 C   0  0  0  0  0  3  0  0  0  0  0  0
  186.5660  178.0590  144.5400 C   0  0  0  0  0  0  0  0  0  0  0  0
  185.6780  179.0290  145.0280 C   0  0  0  0  0  3  0  0  0  0  0  0
  185.5420  179.2320  146.4040 C   0  0  0  0  0  3  0  0  0  0  0  0
  187.1840  177.5030  146.8190 C   0  0  0  0  0  3  0  0  0  0  0  0
  187.3200  177.3000  145.4430 C   0  0  0  0  0  3  0  0  0  0  0  0
  188.0420  178.4110  142.4850 C   0  0  0  0  0  2  0  0  0  0  0  0
  191.6810  175.8870  143.9400 C   0  0  0  0  0  2  0  0  0  0  0  0
  191.4290  176.9180  145.0140 C   0  0  0  0  0  2  0  0  0  0  0  0
  189.2920  177.7990  143.0290 C   0  0  0  0  0  0  0  0  0  0  0  0
  190.4280  175.5150  143.2190 C   0  0  0  0  0  3  0  0  0  0  0  0
  191.4280  178.2700  144.3430 C   0  0  0  0  0  2  0  0  0  0  0  0
  190.1080  178.6040  143.7250 C   0  0  0  0  0  3  0  0  0  0  0  0
  189.4490  176.3380  142.8260 C   0  0  0  0  0  3  0  0  0  0  0  0
  1 20  1  6  0  0  0
  1 15  1  0  0  0  0
  2  6  1  0  0  0  0
  2  1  1  0  0  0  0
  3 12  2  0  0  0  0
  4 13  1  0  0  0  0
  5 10  1  0  0  0  0
  7  9  2  0  0  0  0
  8  7  1  0  0  0  0
  9 12  1  0  0  0  0
  9 11  1  0  0  0  0
 10  7  1  0  0  0  0
 10  4  2  0  0  0  0
 11  6  1  0  0  0  0
 12  2  1  0  0  0  0
 13 11  2  0  0  0  0
 15 16  2  0  0  0  0
 15 19  1  0  0  0  0
 16 17  1  0  0  0  0
 17 14  2  0  0  0  0
 18 14  1  0  0  0  0
 19 18  2  0  0  0  0
 20 23  1  0  0  0  0
 21 22  1  0  0  0  0
 23 26  2  0  0  0  0
 24 21  1  0  0  0  0
 25 22  1  0  0  0  0
 26 25  1  0  0  0  0
 27 23  1  0  0  0  0
 27 24  2  0  0  0  0
M  END
>  <MODEL>
7

>  <REMARK>
 VINA RESULT:      -8.0      3.028      5.735
  Name = 
  4 active torsions:
  status: ('A' for Active; 'I' for Inactive)
    1  A    between atoms: C_1  and  C_15
    2  A    between atoms: C_1  and  C_18
    3  A    between atoms: N_2  and  C_15
    4  A    between atoms: C_9  and  C_15
                            x       y       z     vdW  Elec       q    Type
                         _______ _______ _______ _____ _____    ______ ____

>  <TORSDO>
F 4

$$$$
=
 OpenBabel11052413463D

 27 30  0  0  1  0  0  0  0  0999 V2000
  189.3110  177.3450  143.7630 C   0  0  2  0  0  3  0  0  0  0  0  0
  190.0740  177.2960  142.5150 N   0  0  0  0  0  0  0  0  0  0  0  0
  188.3120  177.1050  141.0260 O   0  0  0  0  0  0  0  0  0  0  0  0
  193.0490  176.9860  139.1530 C   0  0  0  0  0  3  0  0  0  0  0  0
  191.9740  176.7560  137.0270 F   0  0  0  0  0  0  0  0  0  0  0  0
  191.4020  177.2980  142.4340 N   0  0  0  0  0  2  0  0  0  0  0  0
  190.6080  176.9430  138.9830 C   0  0  0  0  0  0  0  0  0  0  0  0
  189.4690  176.8520  138.2510 F   0  0  0  0  0  0  0  0  0  0  0  0
  190.5680  177.0880  140.3680 C   0  0  0  0  0  0  0  0  0  0  0  0
  191.8750  176.8940  138.3710 C   0  0  0  0  0  0  0  0  0  0  0  0
  191.7080  177.1780  141.1270 C   0  0  0  0  0  0  0  0  0  0  0  0
  189.5450  177.1610  141.2790 C   0  0  0  0  0  0  0  0  0  0  0  0
  192.9750  177.1290  140.5530 C   0  0  0  0  0  3  0  0  0  0  0  0
  191.6130  176.4720  147.2940 C   0  0  0  0  0  3  0  0  0  0  0  0
  190.1370  177.0360  144.9800 C   0  0  0  0  0  0  0  0  0  0  0  0
  191.3180  176.2840  144.9000 C   0  0  0  0  0  3  0  0  0  0  0  0
  192.0550  176.0040  146.0540 C   0  0  0  0  0  3  0  0  0  0  0  0
  190.4350  177.2190  147.3800 C   0  0  0  0  0  3  0  0  0  0  0  0
  189.6990  177.4990  146.2250 C   0  0  0  0  0  3  0  0  0  0  0  0
  187.9810  176.5820  143.6860 C   0  0  0  0  0  2  0  0  0  0  0  0
  184.2040  179.1470  144.6260 C   0  0  0  0  0  2  0  0  0  0  0  0
  185.1760  179.4030  145.7530 C   0  0  0  0  0  2  0  0  0  0  0  0
  186.8060  177.3470  144.2050 C   0  0  0  0  0  0  0  0  0  0  0  0
  184.9040  178.8260  143.3470 C   0  0  0  0  0  3  0  0  0  0  0  0
  185.5680  178.0590  146.3180 C   0  0  0  0  0  2  0  0  0  0  0  0
  186.6600  177.4030  145.5370 C   0  0  0  0  0  3  0  0  0  0  0  0
  185.9820  178.0490  143.1910 C   0  0  0  0  0  3  0  0  0  0  0  0
  1 20  1  6  0  0  0
  1 15  1  0  0  0  0
  2  1  1  0  0  0  0
  3 12  2  0  0  0  0
  4 13  1  0  0  0  0
  5 10  1  0  0  0  0
  6  2  1  0  0  0  0
  7  9  2  0  0  0  0
  8  7  1  0  0  0  0
  9 11  1  0  0  0  0
  9 12  1  0  0  0  0
 10  7  1  0  0  0  0
 10  4  2  0  0  0  0
 11  6  1  0  0  0  0
 12  2  1  0  0  0  0
 13 11  2  0  0  0  0
 14 18  1  0  0  0  0
 15 19  1  0  0  0  0
 16 15  2  0  0  0  0
 16 17  1  0  0  0  0
 17 14  2  0  0  0  0
 19 18  2  0  0  0  0
 20 23  1  0  0  0  0
 21 22  1  0  0  0  0
 22 25  1  0  0  0  0
 23 26  2  0  0  0  0
 24 21  1  0  0  0  0
 26 25  1  0  0  0  0
 27 24  2  0  0  0  0
 27 23  1  0  0  0  0
M  END
>  <MODEL>
8

>  <REMARK>
 VINA RESULT:      -8.0      1.988      2.672
  Name = 
  4 active torsions:
  status: ('A' for Active; 'I' for Inactive)
    1  A    between atoms: C_1  and  C_15
    2  A    between atoms: C_1  and  C_18
    3  A    between atoms: N_2  and  C_15
    4  A    between atoms: C_9  and  C_15
                            x       y       z     vdW  Elec       q    Type
                         _______ _______ _______ _____ _____    ______ ____

>  <TORSDO>
F 4

$$$$
=
 OpenBabel11052413463D

 27 30  0  0  1  0  0  0  0  0999 V2000
  188.3300  177.5880  141.9820 C   0  0  2  0  0  3  0  0  0  0  0  0
  187.0920  177.8640  142.7140 N   0  0  0  0  0  0  0  0  0  0  0  0
  185.6920  178.2550  140.9130 O   0  0  0  0  0  0  0  0  0  0  0  0
  183.7710  178.8040  145.6000 C   0  0  0  0  0  3  0  0  0  0  0  0
  181.7340  179.3570  144.4700 F   0  0  0  0  0  0  0  0  0  0  0  0
  186.9860  177.9090  144.0390 N   0  0  0  0  0  2  0  0  0  0  0  0
  183.6590  178.8120  143.1550 C   0  0  0  0  0  0  0  0  0  0  0  0
  182.9750  178.9940  141.9970 F   0  0  0  0  0  0  0  0  0  0  0  0
  185.0010  178.4380  143.1520 C   0  0  0  0  0  0  0  0  0  0  0  0
  183.0390  178.9950  144.4060 C   0  0  0  0  0  0  0  0  0  0  0  0
  185.7110  178.2530  144.3110 C   0  0  0  0  0  0  0  0  0  0  0  0
  185.9070  178.1890  142.1530 C   0  0  0  0  0  0  0  0  0  0  0  0
  185.1280  178.4290  145.5630 C   0  0  0  0  0  3  0  0  0  0  0  0
  191.6810  176.6210  144.5050 C   0  0  0  0  0  3  0  0  0  0  0  0
  189.4940  177.2740  142.8770 C   0  0  0  0  0  0  0  0  0  0  0  0
  190.1340  178.2660  143.6350 C   0  0  0  0  0  3  0  0  0  0  0  0
  191.2240  177.9410  144.4470 C   0  0  0  0  0  3  0  0  0  0  0  0
  191.0500  175.6290  143.7490 C   0  0  0  0  0  3  0  0  0  0  0  0
  189.9600  175.9560  142.9370 C   0  0  0  0  0  3  0  0  0  0  0  0
  188.6280  178.6270  140.8910 C   0  0  0  0  0  2  0  0  0  0  0  0
  190.1760  176.5920  136.9940 C   0  0  0  0  0  2  0  0  0  0  0  0
  189.4280  177.8270  136.5530 C   0  0  0  0  0  2  0  0  0  0  0  0
  188.9250  178.0360  139.5500 C   0  0  0  0  0  0  0  0  0  0  0  0
  190.7870  176.7620  138.3460 C   0  0  0  0  0  3  0  0  0  0  0  0
  188.0520  177.7580  137.1700 C   0  0  0  0  0  2  0  0  0  0  0  0
  188.0280  178.2570  138.5790 C   0  0  0  0  0  3  0  0  0  0  0  0
  190.2340  177.3510  139.4110 C   0  0  0  0  0  3  0  0  0  0  0  0
  1 20  1  1  0  0  0
  1  2  1  0  0  0  0
  1 15  1  0  0  0  0
  2  6  1  0  0  0  0
  3 12  2  0  0  0  0
  6 11  1  0  0  0  0
  7 10  1  0  0  0  0
  8  7  1  0  0  0  0
  9  7  2  0  0  0  0
  9 11  1  0  0  0  0
 10  5  1  0  0  0  0
 10  4  2  0  0  0  0
 11 13  2  0  0  0  0
 12  2  1  0  0  0  0
 12  9  1  0  0  0  0
 13  4  1  0  0  0  0
 15 19  2  0  0  0  0
 15 16  1  0  0  0  0
 16 17  2  0  0  0  0
 17 14  1  0  0  0  0
 18 14  2  0  0  0  0
 19 18  1  0  0  0  0
 21 24  1  0  0  0  0
 22 21  1  0  0  0  0
 22 25  1  0  0  0  0
 23 20  1  0  0  0  0
 24 27  2  0  0  0  0
 25 26  1  0  0  0  0
 26 23  2  0  0  0  0
 27 23  1  0  0  0  0
M  END
>  <MODEL>
9

>  <REMARK>
 VINA RESULT:      -7.9      2.474      6.639
  Name = 
  4 active torsions:
  status: ('A' for Active; 'I' for Inactive)
    1  A    between atoms: C_1  and  C_15
    2  A    between atoms: C_1  and  C_18
    3  A    between atoms: N_2  and  C_15
    4  A    between atoms: C_9  and  C_15
                            x       y       z     vdW  Elec       q    Type
                         _______ _______ _______ _____ _____    ______ ____

>  <TORSDO>
F 4

$$$$
