=
 OpenBabel11052412433D

 25 27  0  0  1  0  0  0  0  0999 V2000
  186.7500  177.9650  143.9120 C   0  0  1  0  0  3  0  0  0  0  0  0
  186.1390  176.8500  145.9700 O   0  0  0  0  0  1  0  0  0  0  0  0
  185.6340  179.1930  145.7610 C   0  0  2  0  0  3  0  0  0  0  0  0
  185.3210  179.2050  147.1210 O   0  0  0  0  0  1  0  0  0  0  0  0
  185.5140  177.7360  143.2770 O   0  0  0  0  0  0  0  0  0  0  0  0
  184.3600  179.0800  144.9280 C   0  0  0  0  0  2  0  0  0  0  0  0
  184.7410  178.9010  143.4540 C   0  0  2  0  0  3  0  0  0  0  0  0
  186.6070  178.0550  145.4390 C   0  0  2  0  0  3  0  0  0  0  0  0
  187.8590  177.0030  143.4450 C   0  0  2  0  0  3  0  0  0  0  0  0
  187.8330  178.2570  141.1320 C   0  0  0  0  0  1  0  0  0  0  0  0
  189.0590  177.1360  144.3150 C   0  0  0  0  0  0  0  0  0  0  0  0
  191.5360  177.4360  145.5340 C   0  0  0  0  0  3  0  0  0  0  0  0
  190.1700  177.3910  143.5600 C   0  0  0  0  0  0  0  0  0  0  0  0
  191.4280  177.5510  144.1390 C   0  0  0  0  0  3  0  0  0  0  0  0
  190.3960  177.1640  146.3130 C   0  0  0  0  0  3  0  0  0  0  0  0
  188.4580  177.1830  142.0080 C   0  0  1  0  0  3  0  0  0  0  0  0
  189.8840  177.4550  142.1790 N   0  0  0  0  0  2  0  0  0  0  0  0
  189.1410  177.0070  145.7030 C   0  0  0  0  0  3  0  0  0  0  0  0
  183.5020  178.8580  142.5690 C   0  0  0  0  0  2  0  0  0  0  0  0
  183.8070  178.2740  141.1940 C   0  0  0  0  0  2  0  0  0  0  0  0
  183.2020  179.7150  139.2160 C   0  0  0  0  0  0  0  0  0  0  0  0
  182.2530  180.1710  138.3080 O   0  0  0  0  0  0  0  0  0  0  0  0
  184.3810  180.1560  139.1510 O   0  0  0  0  0  1  0  0  0  0  0  0
  182.8400  178.7540  140.2180 N   0  0  0  0  0  0  0  0  0  0  0  0
  181.4590  178.3190  140.3460 C   0  0  0  0  0  1  0  0  0  0  0  0
  1  5  1  6  0  0  0
  1  8  1  0  0  0  0
  3  4  1  1  0  0  0
  5  7  1  0  0  0  0
  6  3  1  0  0  0  0
  7 19  1  6  0  0  0
  7  6  1  0  0  0  0
  8  3  1  0  0  0  0
  8  2  1  6  0  0  0
  9  1  1  0  0  0  0
  9 11  1  1  0  0  0
 11 18  1  0  0  0  0
 12 15  1  0  0  0  0
 13 14  1  0  0  0  0
 13 11  2  0  0  0  0
 14 12  2  0  0  0  0
 16 10  1  1  0  0  0
 16 17  1  0  0  0  0
 16  9  1  0  0  0  0
 17 13  1  0  0  0  0
 18 15  2  0  0  0  0
 20 19  1  0  0  0  0
 21 24  1  0  0  0  0
 22 21  2  0  0  0  0
 23 21  1  0  0  0  0
 24 25  1  0  0  0  0
 24 20  1  0  0  0  0
M  END
>  <MODEL>
1

>  <REMARK>
 VINA RESULT:      -8.6      0.000      0.000
  Name = 
  4 active torsions:
  status: ('A' for Active; 'I' for Inactive)
    1  A    between atoms: C_1  and  C_3
    2  A    between atoms: C_6  and  C_15
    3  A    between atoms: C_6  and  C_23
    4  A    between atoms: C_15  and  N_21
                            x       y       z     vdW  Elec       q    Type
                         _______ _______ _______ _____ _____    ______ ____

>  <TORSDO>
F 4

$$$$
=
 OpenBabel11052412433D

 25 27  0  0  1  0  0  0  0  0999 V2000
  186.8180  177.8820  143.9260 C   0  0  1  0  0  3  0  0  0  0  0  0
  186.1500  176.7990  145.9840 O   0  0  0  0  0  1  0  0  0  0  0  0
  185.6200  179.1290  145.7110 C   0  0  2  0  0  3  0  0  0  0  0  0
  185.2590  179.1640  147.0580 O   0  0  0  0  0  1  0  0  0  0  0  0
  185.6070  177.6230  143.2530 O   0  0  0  0  0  0  0  0  0  0  0  0
  184.3770  178.9820  144.8360 C   0  0  0  0  0  2  0  0  0  0  0  0
  184.8130  178.7790  143.3800 C   0  0  2  0  0  3  0  0  0  0  0  0
  186.6200  178.0000  145.4450 C   0  0  2  0  0  3  0  0  0  0  0  0
  187.9560  176.9290  143.5180 C   0  0  2  0  0  3  0  0  0  0  0  0
  188.0250  178.1670  141.1970 C   0  0  0  0  0  1  0  0  0  0  0  0
  189.1130  177.0790  144.4410 C   0  0  0  0  0  0  0  0  0  0  0  0
  191.5280  177.4110  145.7700 C   0  0  0  0  0  3  0  0  0  0  0  0
  190.2550  177.3400  143.7360 C   0  0  0  0  0  0  0  0  0  0  0  0
  191.4840  177.5150  144.3710 C   0  0  0  0  0  3  0  0  0  0  0  0
  190.3560  177.1330  146.4990 C   0  0  0  0  0  3  0  0  0  0  0  0
  188.6180  177.1050  142.1090 C   0  0  1  0  0  3  0  0  0  0  0  0
  190.0320  177.3920  142.3430 N   0  0  0  0  0  2  0  0  0  0  0  0
  189.1320  176.9600  145.8330 C   0  0  0  0  0  3  0  0  0  0  0  0
  183.6060  178.7000  142.4530 C   0  0  0  0  0  2  0  0  0  0  0  0
  182.3150  179.0840  143.1680 C   0  0  0  0  0  2  0  0  0  0  0  0
  180.0070  178.1340  142.8210 C   0  0  0  0  0  0  0  0  0  0  0  0
  178.9320  177.8660  141.9810 O   0  0  0  0  0  0  0  0  0  0  0  0
  179.9510  177.7760  144.0280 O   0  0  0  0  0  1  0  0  0  0  0  0
  181.1680  178.8090  142.3160 N   0  0  0  0  0  0  0  0  0  0  0  0
  181.2640  179.1360  140.9030 C   0  0  0  0  0  1  0  0  0  0  0  0
  1  5  1  6  0  0  0
  1  8  1  0  0  0  0
  3  4  1  1  0  0  0
  5  7  1  0  0  0  0
  6  3  1  0  0  0  0
  7 19  1  6  0  0  0
  7  6  1  0  0  0  0
  8  3  1  0  0  0  0
  8  2  1  6  0  0  0
  9  1  1  0  0  0  0
  9 11  1  1  0  0  0
 11 18  1  0  0  0  0
 12 15  1  0  0  0  0
 13 14  1  0  0  0  0
 13 11  2  0  0  0  0
 14 12  2  0  0  0  0
 16 10  1  1  0  0  0
 16 17  1  0  0  0  0
 16  9  1  0  0  0  0
 17 13  1  0  0  0  0
 18 15  2  0  0  0  0
 19 20  1  0  0  0  0
 21 23  1  0  0  0  0
 22 21  2  0  0  0  0
 24 21  1  0  0  0  0
 24 20  1  0  0  0  0
 25 24  1  0  0  0  0
M  END
>  <MODEL>
2

>  <REMARK>
 VINA RESULT:      -8.3      1.791      2.192
  Name = 
  4 active torsions:
  status: ('A' for Active; 'I' for Inactive)
    1  A    between atoms: C_1  and  C_3
    2  A    between atoms: C_6  and  C_15
    3  A    between atoms: C_6  and  C_23
    4  A    between atoms: C_15  and  N_21
                            x       y       z     vdW  Elec       q    Type
                         _______ _______ _______ _____ _____    ______ ____

>  <TORSDO>
F 4

$$$$
=
 OpenBabel11052412433D

 25 27  0  0  1  0  0  0  0  0999 V2000
  188.6130  177.6220  143.3250 C   0  0  1  0  0  3  0  0  0  0  0  0
  186.3150  176.8850  143.1580 O   0  0  0  0  0  1  0  0  0  0  0  0
  186.8860  179.0240  142.2170 C   0  0  2  0  0  3  0  0  0  0  0  0
  185.5220  179.2740  142.0610 O   0  0  0  0  0  1  0  0  0  0  0  0
  189.0070  177.0760  142.0870 O   0  0  0  0  0  0  0  0  0  0  0  0
  187.4880  178.5430  140.9000 C   0  0  0  0  0  2  0  0  0  0  0  0
  188.9410  178.1180  141.1410 C   0  0  2  0  0  3  0  0  0  0  0  0
  187.1260  178.0090  143.3390 C   0  0  2  0  0  3  0  0  0  0  0  0
  189.0470  176.7680  144.5300 C   0  0  2  0  0  3  0  0  0  0  0  0
  191.5420  177.2670  143.8590 C   0  0  0  0  0  1  0  0  0  0  0  0
  188.5190  177.3500  145.7930 C   0  0  0  0  0  0  0  0  0  0  0  0
  187.9780  178.4070  148.3030 C   0  0  0  0  0  3  0  0  0  0  0  0
  189.5340  177.5570  146.6850 C   0  0  0  0  0  0  0  0  0  0  0  0
  189.2990  178.0890  147.9520 C   0  0  0  0  0  3  0  0  0  0  0  0
  186.9290  178.1860  147.3920 C   0  0  0  0  0  3  0  0  0  0  0  0
  190.5760  176.6190  144.8370 C   0  0  1  0  0  3  0  0  0  0  0  0
  190.7910  177.1650  146.1760 N   0  0  0  0  0  2  0  0  0  0  0  0
  187.1940  177.6480  146.1220 C   0  0  0  0  0  3  0  0  0  0  0  0
  189.6120  177.6980  139.8390 C   0  0  0  0  0  2  0  0  0  0  0  0
  190.8370  176.8250  140.0880 C   0  0  0  0  0  2  0  0  0  0  0  0
  192.9630  176.8320  138.7350 C   0  0  0  0  0  0  0  0  0  0  0  0
  193.6190  176.6230  137.5270 O   0  0  0  0  0  0  0  0  0  0  0  0
  193.6200  177.2350  139.7320 O   0  0  0  0  0  1  0  0  0  0  0  0
  191.5530  176.5940  138.8420 N   0  0  0  0  0  0  0  0  0  0  0  0
  190.7850  176.2190  137.6660 C   0  0  0  0  0  1  0  0  0  0  0  0
  1  5  1  6  0  0  0
  1  8  1  0  0  0  0
  1  9  1  0  0  0  0
  3  4  1  6  0  0  0
  3  8  1  0  0  0  0
  6  7  1  0  0  0  0
  6  3  1  0  0  0  0
  7 19  1  6  0  0  0
  7  5  1  0  0  0  0
  8  2  1  6  0  0  0
  9 16  1  0  0  0  0
  9 11  1  1  0  0  0
 11 18  2  0  0  0  0
 11 13  1  0  0  0  0
 13 14  2  0  0  0  0
 14 12  1  0  0  0  0
 15 12  2  0  0  0  0
 16 10  1  6  0  0  0
 16 17  1  0  0  0  0
 17 13  1  0  0  0  0
 18 15  1  0  0  0  0
 19 20  1  0  0  0  0
 21 24  1  0  0  0  0
 21 23  1  0  0  0  0
 22 21  2  0  0  0  0
 24 20  1  0  0  0  0
 25 24  1  0  0  0  0
M  END
>  <MODEL>
3

>  <REMARK>
 VINA RESULT:      -8.2      3.629      5.889
  Name = 
  4 active torsions:
  status: ('A' for Active; 'I' for Inactive)
    1  A    between atoms: C_1  and  C_3
    2  A    between atoms: C_6  and  C_15
    3  A    between atoms: C_6  and  C_23
    4  A    between atoms: C_15  and  N_21
                            x       y       z     vdW  Elec       q    Type
                         _______ _______ _______ _____ _____    ______ ____

>  <TORSDO>
F 4

$$$$
=
 OpenBabel11052412433D

 25 27  0  0  1  0  0  0  0  0999 V2000
  188.3670  177.6570  143.2430 C   0  0  1  0  0  3  0  0  0  0  0  0
  186.0120  177.1030  143.2180 O   0  0  0  0  0  1  0  0  0  0  0  0
  186.6950  179.1760  142.2070 C   0  0  2  0  0  3  0  0  0  0  0  0
  185.3480  179.5310  142.1220 O   0  0  0  0  0  1  0  0  0  0  0  0
  188.6460  177.0640  141.9960 O   0  0  0  0  0  0  0  0  0  0  0  0
  187.1820  178.6290  140.8680 C   0  0  0  0  0  2  0  0  0  0  0  0
  188.6090  178.0950  141.0360 C   0  0  2  0  0  3  0  0  0  0  0  0
  186.9180  178.1610  143.3320 C   0  0  2  0  0  3  0  0  0  0  0  0
  188.8000  176.7890  144.4390 C   0  0  2  0  0  3  0  0  0  0  0  0
  191.2940  177.2330  143.7300 C   0  0  0  0  0  1  0  0  0  0  0  0
  188.3050  177.3780  145.7120 C   0  0  0  0  0  0  0  0  0  0  0  0
  187.8290  178.4370  148.2340 C   0  0  0  0  0  3  0  0  0  0  0  0
  189.3390  177.5580  146.5890 C   0  0  0  0  0  0  0  0  0  0  0  0
  189.1370  178.0900  147.8610 C   0  0  0  0  0  3  0  0  0  0  0  0
  186.7600  178.2440  147.3390 C   0  0  0  0  0  3  0  0  0  0  0  0
  190.3300  176.6030  144.7210 C   0  0  1  0  0  3  0  0  0  0  0  0
  190.5790  177.1390  146.0580 N   0  0  0  0  0  2  0  0  0  0  0  0
  186.9930  177.7050  146.0630 C   0  0  0  0  0  3  0  0  0  0  0  0
  189.1700  177.6040  139.7070 C   0  0  0  0  0  2  0  0  0  0  0  0
  189.0600  178.6650  138.6180 C   0  0  0  0  0  2  0  0  0  0  0  0
  187.2190  178.2510  136.9470 C   0  0  0  0  0  0  0  0  0  0  0  0
  186.7740  177.6540  135.7730 O   0  0  0  0  0  0  0  0  0  0  0  0
  186.4200  178.9510  137.6250 O   0  0  0  0  0  1  0  0  0  0  0  0
  188.5730  178.0680  137.3820 N   0  0  0  0  0  0  0  0  0  0  0  0
  189.4630  177.1860  136.6460 C   0  0  0  0  0  1  0  0  0  0  0  0
  1  5  1  6  0  0  0
  1  8  1  0  0  0  0
  1  9  1  0  0  0  0
  3  4  1  6  0  0  0
  3  8  1  0  0  0  0
  6  7  1  0  0  0  0
  6  3  1  0  0  0  0
  7 19  1  6  0  0  0
  7  5  1  0  0  0  0
  8  2  1  6  0  0  0
  9 16  1  0  0  0  0
  9 11  1  1  0  0  0
 11 18  2  0  0  0  0
 11 13  1  0  0  0  0
 13 14  2  0  0  0  0
 14 12  1  0  0  0  0
 15 12  2  0  0  0  0
 16 10  1  6  0  0  0
 16 17  1  0  0  0  0
 17 13  1  0  0  0  0
 18 15  1  0  0  0  0
 20 19  1  0  0  0  0
 21 24  1  0  0  0  0
 21 23  1  0  0  0  0
 22 21  2  0  0  0  0
 24 20  1  0  0  0  0
 25 24  1  0  0  0  0
M  END
>  <MODEL>
4

>  <REMARK>
 VINA RESULT:      -8.0      2.933      4.457
  Name = 
  4 active torsions:
  status: ('A' for Active; 'I' for Inactive)
    1  A    between atoms: C_1  and  C_3
    2  A    between atoms: C_6  and  C_15
    3  A    between atoms: C_6  and  C_23
    4  A    between atoms: C_15  and  N_21
                            x       y       z     vdW  Elec       q    Type
                         _______ _______ _______ _____ _____    ______ ____

>  <TORSDO>
F 4

$$$$
=
 OpenBabel11052412433D

 25 27  0  0  1  0  0  0  0  0999 V2000
  187.3850  177.9610  141.8290 C   0  0  1  0  0  3  0  0  0  0  0  0
  186.0520  179.9780  141.7340 O   0  0  0  0  0  1  0  0  0  0  0  0
  185.0540  178.0090  142.6900 C   0  0  2  0  0  3  0  0  0  0  0  0
  183.8270  178.6730  142.6760 O   0  0  0  0  0  1  0  0  0  0  0  0
  187.8980  178.2130  143.1170 O   0  0  0  0  0  0  0  0  0  0  0  0
  185.6790  178.0850  144.0800 C   0  0  0  0  0  2  0  0  0  0  0  0
  187.0930  177.4960  144.0250 C   0  0  2  0  0  3  0  0  0  0  0  0
  185.9960  178.5850  141.6280 C   0  0  2  0  0  3  0  0  0  0  0  0
  188.3840  178.2870  140.7040 C   0  0  2  0  0  3  0  0  0  0  0  0
  190.0990  176.6900  141.9000 C   0  0  0  0  0  1  0  0  0  0  0  0
  187.8290  177.8780  139.3850 C   0  0  0  0  0  0  0  0  0  0  0  0
  187.2050  176.8900  136.8660 C   0  0  0  0  0  3  0  0  0  0  0  0
  188.7040  177.0540  138.7340 C   0  0  0  0  0  0  0  0  0  0  0  0
  188.4220  176.5370  137.4700 C   0  0  0  0  0  3  0  0  0  0  0  0
  186.3050  177.7460  137.5300 C   0  0  0  0  0  3  0  0  0  0  0  0
  189.7870  177.5880  140.7150 C   0  0  1  0  0  3  0  0  0  0  0  0
  189.8830  176.8190  139.4750 N   0  0  0  0  0  2  0  0  0  0  0  0
  186.6160  178.2530  138.8020 C   0  0  0  0  0  3  0  0  0  0  0  0
  187.7350  177.4810  145.4070 C   0  0  0  0  0  2  0  0  0  0  0  0
  189.2070  177.8760  145.3530 C   0  0  0  0  0  2  0  0  0  0  0  0
  191.1320  176.7530  146.5300 C   0  0  0  0  0  0  0  0  0  0  0  0
  191.7480  176.3480  147.7090 O   0  0  0  0  0  1  0  0  0  0  0  0
  191.6790  176.4890  145.4260 O   0  0  0  0  0  0  0  0  0  0  0  0
  189.8840  177.4590  146.5730 N   0  0  0  0  0  0  0  0  0  0  0  0
  189.2130  177.6790  147.8430 C   0  0  0  0  0  1  0  0  0  0  0  0
  1  5  1  1  0  0  0
  3  4  1  1  0  0  0
  3  6  1  0  0  0  0
  5  7  1  0  0  0  0
  7  6  1  0  0  0  0
  7 19  1  1  0  0  0
  8  2  1  1  0  0  0
  8  1  1  0  0  0  0
  8  3  1  0  0  0  0
  9 11  1  6  0  0  0
  9 16  1  0  0  0  0
  9  1  1  0  0  0  0
 12 14  2  0  0  0  0
 12 15  1  0  0  0  0
 13 11  2  0  0  0  0
 13 17  1  0  0  0  0
 14 13  1  0  0  0  0
 15 18  2  0  0  0  0
 16 10  1  1  0  0  0
 17 16  1  0  0  0  0
 18 11  1  0  0  0  0
 20 19  1  0  0  0  0
 20 24  1  0  0  0  0
 21 24  1  0  0  0  0
 21 22  1  0  0  0  0
 23 21  2  0  0  0  0
 24 25  1  0  0  0  0
M  END
>  <MODEL>
5

>  <REMARK>
 VINA RESULT:      -7.8      2.851      6.885
  Name = 
  4 active torsions:
  status: ('A' for Active; 'I' for Inactive)
    1  A    between atoms: C_1  and  C_3
    2  A    between atoms: C_6  and  C_15
    3  A    between atoms: C_6  and  C_23
    4  A    between atoms: C_15  and  N_21
                            x       y       z     vdW  Elec       q    Type
                         _______ _______ _______ _____ _____    ______ ____

>  <TORSDO>
F 4

$$$$
=
 OpenBabel11052412433D

 25 27  0  0  1  0  0  0  0  0999 V2000
  188.7180  177.6800  144.0270 C   0  0  1  0  0  3  0  0  0  0  0  0
  190.4590  178.9240  142.8980 O   0  0  0  0  0  1  0  0  0  0  0  0
  189.4750  177.0570  141.7430 C   0  0  2  0  0  3  0  0  0  0  0  0
  190.4850  177.1690  140.7870 O   0  0  0  0  0  1  0  0  0  0  0  0
  187.6590  178.4460  143.5000 O   0  0  0  0  0  0  0  0  0  0  0  0
  188.2020  177.7380  141.2480 C   0  0  0  0  0  2  0  0  0  0  0  0
  187.1680  177.7470  142.3790 C   0  0  2  0  0  3  0  0  0  0  0  0
  189.9300  177.6440  143.0830 C   0  0  2  0  0  3  0  0  0  0  0  0
  189.0700  178.0500  145.4790 C   0  0  2  0  0  3  0  0  0  0  0  0
  186.5690  177.5330  146.1110 C   0  0  0  0  0  1  0  0  0  0  0  0
  190.1370  177.1520  145.9980 C   0  0  0  0  0  0  0  0  0  0  0  0
  191.8360  175.4070  147.3310 C   0  0  0  0  0  3  0  0  0  0  0  0
  189.7390  176.5630  147.1660 C   0  0  0  0  0  0  0  0  0  0  0  0
  190.5650  175.6800  147.8600 C   0  0  0  0  0  3  0  0  0  0  0  0
  192.2530  176.0190  146.1340 C   0  0  0  0  0  3  0  0  0  0  0  0
  187.9600  177.9310  146.5780 C   0  0  1  0  0  3  0  0  0  0  0  0
  188.4440  176.9630  147.5610 N   0  0  0  0  0  2  0  0  0  0  0  0
  191.4010  176.9060  145.4560 C   0  0  0  0  0  3  0  0  0  0  0  0
  185.8490  178.3510  141.9120 C   0  0  0  0  0  2  0  0  0  0  0  0
  185.1490  179.1180  143.0290 C   0  0  0  0  0  2  0  0  0  0  0  0
  182.9000  178.9060  144.1470 C   0  0  0  0  0  0  0  0  0  0  0  0
  181.5320  178.6760  144.0590 O   0  0  0  0  0  0  0  0  0  0  0  0
  183.4190  179.1170  145.2750 O   0  0  0  0  0  1  0  0  0  0  0  0
  183.7110  178.9000  142.9640 N   0  0  0  0  0  0  0  0  0  0  0  0
  183.1230  178.5640  141.6780 C   0  0  0  0  0  1  0  0  0  0  0  0
  1  5  1  6  0  0  0
  1  9  1  0  0  0  0
  3  4  1  6  0  0  0
  3  8  1  0  0  0  0
  6  3  1  0  0  0  0
  6  7  1  0  0  0  0
  7 19  1  6  0  0  0
  7  5  1  0  0  0  0
  8  2  1  6  0  0  0
  8  1  1  0  0  0  0
  9 11  1  1  0  0  0
  9 16  1  0  0  0  0
 11 13  1  0  0  0  0
 12 14  1  0  0  0  0
 13 17  1  0  0  0  0
 13 14  2  0  0  0  0
 15 12  2  0  0  0  0
 16 10  1  6  0  0  0
 16 17  1  0  0  0  0
 18 11  2  0  0  0  0
 18 15  1  0  0  0  0
 19 20  1  0  0  0  0
 21 23  1  0  0  0  0
 22 21  2  0  0  0  0
 24 20  1  0  0  0  0
 24 21  1  0  0  0  0
 25 24  1  0  0  0  0
M  END
>  <MODEL>
6

>  <REMARK>
 VINA RESULT:      -7.7      2.551      4.329
  Name = 
  4 active torsions:
  status: ('A' for Active; 'I' for Inactive)
    1  A    between atoms: C_1  and  C_3
    2  A    between atoms: C_6  and  C_15
    3  A    between atoms: C_6  and  C_23
    4  A    between atoms: C_15  and  N_21
                            x       y       z     vdW  Elec       q    Type
                         _______ _______ _______ _____ _____    ______ ____

>  <TORSDO>
F 4

$$$$
=
 OpenBabel11052412433D

 25 27  0  0  1  0  0  0  0  0999 V2000
  187.7850  177.7570  144.5000 C   0  0  1  0  0  3  0  0  0  0  0  0
  187.9630  176.0030  142.8440 O   0  0  0  0  0  1  0  0  0  0  0  0
  189.2130  178.0260  142.4840 C   0  0  2  0  0  3  0  0  0  0  0  0
  189.4910  177.5770  141.1920 O   0  0  0  0  0  1  0  0  0  0  0  0
  188.8880  177.3200  145.2600 O   0  0  0  0  0  0  0  0  0  0  0  0
  190.3930  177.7350  143.4080 C   0  0  0  0  0  2  0  0  0  0  0  0
  189.9970  178.0850  144.8470 C   0  0  2  0  0  3  0  0  0  0  0  0
  187.9250  177.3890  143.0150 C   0  0  2  0  0  3  0  0  0  0  0  0
  186.4300  177.3630  145.1140 C   0  0  2  0  0  3  0  0  0  0  0  0
  187.2280  178.4940  147.3510 C   0  0  0  0  0  1  0  0  0  0  0  0
  185.3150  177.9920  144.3560 C   0  0  0  0  0  0  0  0  0  0  0  0
  183.0850  179.3150  143.3620 C   0  0  0  0  0  3  0  0  0  0  0  0
  184.5030  178.6990  145.1990 C   0  0  0  0  0  0  0  0  0  0  0  0
  183.3780  179.3780  144.7340 C   0  0  0  0  0  3  0  0  0  0  0  0
  183.9130  178.5790  142.4930 C   0  0  0  0  0  3  0  0  0  0  0  0
  186.1190  177.7860  146.5910 C   0  0  1  0  0  3  0  0  0  0  0  0
  184.9340  178.6400  146.5420 N   0  0  0  0  0  2  0  0  0  0  0  0
  185.0400  177.9040  142.9890 C   0  0  0  0  0  3  0  0  0  0  0  0
  191.1670  177.8820  145.8020 C   0  0  0  0  0  2  0  0  0  0  0  0
  190.8040  176.9530  146.9560 C   0  0  0  0  0  2  0  0  0  0  0  0
  192.8010  176.1670  148.2780 C   0  0  0  0  0  0  0  0  0  0  0  0
  193.8300  175.2530  148.4690 O   0  0  0  0  0  0  0  0  0  0  0  0
  192.6890  177.1430  149.0660 O   0  0  0  0  0  1  0  0  0  0  0  0
  191.8790  176.0000  147.1910 N   0  0  0  0  0  0  0  0  0  0  0  0
  192.0690  174.9250  146.2320 C   0  0  0  0  0  1  0  0  0  0  0  0
  1  9  1  0  0  0  0
  1  5  1  1  0  0  0
  3  4  1  6  0  0  0
  3  8  1  0  0  0  0
  3  6  1  0  0  0  0
  6  7  1  0  0  0  0
  7  5  1  0  0  0  0
  7 19  1  1  0  0  0
  8  2  1  1  0  0  0
  8  1  1  0  0  0  0
  9 11  1  6  0  0  0
  9 16  1  0  0  0  0
 11 13  1  0  0  0  0
 12 14  1  0  0  0  0
 13 17  1  0  0  0  0
 14 13  2  0  0  0  0
 15 18  1  0  0  0  0
 15 12  2  0  0  0  0
 16 10  1  6  0  0  0
 17 16  1  0  0  0  0
 18 11  2  0  0  0  0
 19 20  1  0  0  0  0
 20 24  1  0  0  0  0
 21 22  2  0  0  0  0
 21 23  1  0  0  0  0
 24 21  1  0  0  0  0
 25 24  1  0  0  0  0
M  END
>  <MODEL>
7

>  <REMARK>
 VINA RESULT:      -7.7      3.289      8.158
  Name = 
  4 active torsions:
  status: ('A' for Active; 'I' for Inactive)
    1  A    between atoms: C_1  and  C_3
    2  A    between atoms: C_6  and  C_15
    3  A    between atoms: C_6  and  C_23
    4  A    between atoms: C_15  and  N_21
                            x       y       z     vdW  Elec       q    Type
                         _______ _______ _______ _____ _____    ______ ____

>  <TORSDO>
F 4

$$$$
=
 OpenBabel11052412433D

 25 27  0  0  1  0  0  0  0  0999 V2000
  185.3030  178.4830  143.7540 C   0  0  1  0  0  3  0  0  0  0  0  0
  185.3140  180.2190  145.4400 O   0  0  0  0  0  1  0  0  0  0  0  0
  185.2390  177.9300  146.1760 C   0  0  2  0  0  3  0  0  0  0  0  0
  184.9730  178.3960  147.4640 O   0  0  0  0  0  1  0  0  0  0  0  0
  186.7030  178.3310  143.7260 O   0  0  0  0  0  0  0  0  0  0  0  0
  186.7210  177.5930  146.0320 C   0  0  0  0  0  2  0  0  0  0  0  0
  187.0140  177.2450  144.5690 C   0  0  2  0  0  3  0  0  0  0  0  0
  184.8010  178.9570  145.1270 C   0  0  2  0  0  3  0  0  0  0  0  0
  184.7570  179.3070  142.5740 C   0  0  2  0  0  3  0  0  0  0  0  0
  186.6640  178.2600  141.0930 C   0  0  0  0  0  1  0  0  0  0  0  0
  183.3460  178.9310  142.2880 C   0  0  0  0  0  0  0  0  0  0  0  0
  180.8590  178.1770  141.3110 C   0  0  0  0  0  3  0  0  0  0  0  0
  183.2020  178.5780  140.9750 C   0  0  0  0  0  0  0  0  0  0  0  0
  181.9690  178.1910  140.4520 C   0  0  0  0  0  3  0  0  0  0  0  0
  181.0020  178.5490  142.6610 C   0  0  0  0  0  3  0  0  0  0  0  0
  185.4400  179.1570  141.1710 C   0  0  1  0  0  3  0  0  0  0  0  0
  184.4120  178.6680  140.2540 N   0  0  0  0  0  2  0  0  0  0  0  0
  182.2560  178.9360  143.1610 C   0  0  0  0  0  3  0  0  0  0  0  0
  188.4680  176.8290  144.3850 C   0  0  0  0  0  2  0  0  0  0  0  0
  189.4170  177.7090  145.1900 C   0  0  0  0  0  2  0  0  0  0  0  0
  191.1450  176.7790  146.7710 C   0  0  0  0  0  0  0  0  0  0  0  0
  192.3530  176.1220  146.9800 O   0  0  0  0  0  0  0  0  0  0  0  0
  190.4790  177.1750  147.7640 O   0  0  0  0  0  1  0  0  0  0  0  0
  190.6670  177.0060  145.4380 N   0  0  0  0  0  0  0  0  0  0  0  0
  191.4840  176.6290  144.2960 C   0  0  0  0  0  1  0  0  0  0  0  0
  1  5  1  1  0  0  0
  1  8  1  0  0  0  0
  3  4  1  1  0  0  0
  5  7  1  0  0  0  0
  6  3  1  0  0  0  0
  7 19  1  1  0  0  0
  7  6  1  0  0  0  0
  8  2  1  1  0  0  0
  8  3  1  0  0  0  0
  9 11  1  6  0  0  0
  9  1  1  0  0  0  0
 11 18  1  0  0  0  0
 12 15  1  0  0  0  0
 13 11  2  0  0  0  0
 14 13  1  0  0  0  0
 14 12  2  0  0  0  0
 15 18  2  0  0  0  0
 16 10  1  1  0  0  0
 16  9  1  0  0  0  0
 17 13  1  0  0  0  0
 17 16  1  0  0  0  0
 19 20  1  0  0  0  0
 20 24  1  0  0  0  0
 21 22  2  0  0  0  0
 21 23  1  0  0  0  0
 24 21  1  0  0  0  0
 25 24  1  0  0  0  0
M  END
>  <MODEL>
8

>  <REMARK>
 VINA RESULT:      -7.6      2.278      7.305
  Name = 
  4 active torsions:
  status: ('A' for Active; 'I' for Inactive)
    1  A    between atoms: C_1  and  C_3
    2  A    between atoms: C_6  and  C_15
    3  A    between atoms: C_6  and  C_23
    4  A    between atoms: C_15  and  N_21
                            x       y       z     vdW  Elec       q    Type
                         _______ _______ _______ _____ _____    ______ ____

>  <TORSDO>
F 4

$$$$
=
 OpenBabel11052412433D

 25 27  0  0  1  0  0  0  0  0999 V2000
  189.6210  176.8650  144.7680 C   0  0  1  0  0  3  0  0  0  0  0  0
  189.6110  179.2840  144.8060 O   0  0  0  0  0  1  0  0  0  0  0  0
  191.6680  178.1720  144.2440 C   0  0  2  0  0  3  0  0  0  0  0  0
  192.3160  179.4030  144.3510 O   0  0  0  0  0  1  0  0  0  0  0  0
  189.3000  176.7630  143.3990 O   0  0  0  0  0  0  0  0  0  0  0  0
  191.3690  177.8590  142.7800 C   0  0  0  0  0  2  0  0  0  0  0  0
  190.5140  176.5890  142.7060 C   0  0  2  0  0  3  0  0  0  0  0  0
  190.3890  178.1570  145.0860 C   0  0  2  0  0  3  0  0  0  0  0  0
  188.4170  176.6120  145.6940 C   0  0  2  0  0  3  0  0  0  0  0  0
  189.9190  177.4180  147.6990 C   0  0  0  0  0  1  0  0  0  0  0  0
  187.2620  177.4550  145.2850 C   0  0  0  0  0  0  0  0  0  0  0  0
  185.0930  179.1600  144.9730 C   0  0  0  0  0  3  0  0  0  0  0  0
  186.8100  178.1920  146.3440 C   0  0  0  0  0  0  0  0  0  0  0  0
  185.7250  179.0600  146.2220 C   0  0  0  0  0  3  0  0  0  0  0  0
  185.5490  178.3950  143.8830 C   0  0  0  0  0  3  0  0  0  0  0  0
  188.5570  176.9430  147.2190 C   0  0  1  0  0  3  0  0  0  0  0  0
  187.5480  177.9550  147.5240 N   0  0  0  0  0  2  0  0  0  0  0  0
  186.6430  177.5280  144.0340 C   0  0  0  0  0  3  0  0  0  0  0  0
  190.2480  176.1910  141.2600 C   0  0  0  0  0  2  0  0  0  0  0  0
  190.3540  177.3820  140.3150 C   0  0  0  0  0  2  0  0  0  0  0  0
  188.0420  178.3740  140.1550 C   0  0  0  0  0  0  0  0  0  0  0  0
  186.8450  178.5240  139.4650 O   0  0  0  0  0  0  0  0  0  0  0  0
  188.1890  178.9460  141.2680 O   0  0  0  0  0  1  0  0  0  0  0  0
  189.0970  177.5730  139.6040 N   0  0  0  0  0  0  0  0  0  0  0  0
  188.8880  176.8420  138.3660 C   0  0  0  0  0  1  0  0  0  0  0  0
  1  5  1  6  0  0  0
  1  8  1  0  0  0  0
  1  9  1  0  0  0  0
  3  4  1  6  0  0  0
  3  8  1  0  0  0  0
  6  3  1  0  0  0  0
  7 19  1  6  0  0  0
  7  6  1  0  0  0  0
  7  5  1  0  0  0  0
  8  2  1  6  0  0  0
  9 11  1  6  0  0  0
  9 16  1  0  0  0  0
 11 13  1  0  0  0  0
 12 14  1  0  0  0  0
 13 17  1  0  0  0  0
 14 13  2  0  0  0  0
 15 18  1  0  0  0  0
 15 12  2  0  0  0  0
 16 17  1  0  0  0  0
 16 10  1  6  0  0  0
 18 11  2  0  0  0  0
 20 19  1  0  0  0  0
 21 23  1  0  0  0  0
 22 21  2  0  0  0  0
 24 21  1  0  0  0  0
 24 20  1  0  0  0  0
 25 24  1  0  0  0  0
M  END
>  <MODEL>
9

>  <REMARK>
 VINA RESULT:      -7.4      3.001      5.607
  Name = 
  4 active torsions:
  status: ('A' for Active; 'I' for Inactive)
    1  A    between atoms: C_1  and  C_3
    2  A    between atoms: C_6  and  C_15
    3  A    between atoms: C_6  and  C_23
    4  A    between atoms: C_15  and  N_21
                            x       y       z     vdW  Elec       q    Type
                         _______ _______ _______ _____ _____    ______ ____

>  <TORSDO>
F 4

$$$$
