=
 OpenBabel11052412453D

 25 29  0  0  1  0  0  0  0  0999 V2000
  189.3690  176.2260  143.9720 C   0  0  2  0  0  3  0  0  0  0  0  0
  189.8230  177.4330  144.7790 C   0  0  1  0  0  3  0  0  0  0  0  0
  191.8190  175.7950  143.7550 N   0  0  0  0  0  2  0  0  0  0  0  0
  188.1480  177.1040  141.9170 N   0  0  2  0  0  0  0  0  0  0  0  0
  187.3190  176.8920  147.4340 C   0  0  0  0  0  2  0  0  0  0  0  0
  188.9170  178.9930  140.8000 C   0  0  0  0  0  2  0  0  0  0  0  0
  191.6660  175.8040  145.1520 N   0  0  0  0  0  2  0  0  0  0  0  0
  189.2990  176.7840  141.0730 C   0  0  1  0  0  3  0  0  0  0  0  0
  189.4670  177.8550  140.1610 O   0  0  0  0  0  0  0  0  0  0  0  0
  191.0250  177.1390  147.0460 C   0  0  0  0  0  0  0  0  0  0  0  0
  192.0630  176.9770  147.7380 O   0  0  0  0  0  0  0  0  0  0  0  0
  187.5630  178.3350  147.8620 C   0  0  1  0  0  3  0  0  0  0  0  0
  188.7120  178.1330  145.5560 C   0  0  0  0  0  2  0  0  0  0  0  0
  188.2220  178.5380  142.0700 C   0  0  0  0  0  2  0  0  0  0  0  0
  190.5130  175.7390  143.0740 C   0  0  2  0  0  3  0  0  0  0  0  0
  190.6120  176.6310  141.8510 C   0  0  0  0  0  2  0  0  0  0  0  0
  189.7760  177.2990  147.7050 N   0  0  0  0  0  2  0  0  0  0  0  0
  188.0510  176.4090  143.2110 C   0  0  0  0  0  2  0  0  0  0  0  0
  188.5650  177.6050  146.9810 C   0  0  2  0  0  0  0  0  0  0  0  0
  191.1340  177.1110  145.5550 C   0  0  2  0  0  3  0  0  0  0  0  0
  186.5810  179.2440  147.1180 C   0  0  0  0  0  2  0  0  0  0  0  0
  185.3410  178.5760  146.9170 O   0  0  0  0  0  0  0  0  0  0  0  0
  184.6100  178.7080  145.7380 C   0  0  0  0  0  0  0  0  0  0  0  0
  185.2510  178.3620  144.4340 C   0  0  0  0  0  1  0  0  0  0  0  0
  183.4060  179.0900  145.7490 O   0  0  0  0  0  0  0  0  0  0  0  0
  1 18  1  6  0  0  0
  1  2  1  0  0  0  0
  2 20  1  0  0  0  0
  2 13  1  1  0  0  0
  3  7  1  0  0  0  0
  4 14  1  1  0  0  0
  4 18  1  0  0  0  0
  5 12  1  0  0  0  0
  6 14  1  0  0  0  0
  8 16  1  1  0  0  0
  8  4  1  0  0  0  0
  9  6  1  0  0  0  0
  9  8  1  0  0  0  0
 10 17  1  0  0  0  0
 10 11  2  0  0  0  0
 12 21  1  6  0  0  0
 15 16  1  6  0  0  0
 15  3  1  0  0  0  0
 15  1  1  0  0  0  0
 19 13  1  6  0  0  0
 19  5  1  0  0  0  0
 19 17  1  0  0  0  0
 19 12  1  0  0  0  0
 20  7  1  1  0  0  0
 20 10  1  0  0  0  0
 22 21  1  0  0  0  0
 23 25  2  0  0  0  0
 23 22  1  0  0  0  0
 24 23  1  0  0  0  0
M  END
>  <MODEL>
1

>  <REMARK>
 VINA RESULT:      -7.9      0.000      0.000
  Name = 
  3 active torsions:
  status: ('A' for Active; 'I' for Inactive)
    1  A    between atoms: C_2  and  O_21
    2  A    between atoms: C_15  and  C_25
    3  A    between atoms: O_21  and  C_25
                            x       y       z     vdW  Elec       q    Type
                         _______ _______ _______ _____ _____    ______ ____

>  <TORSDO>
F 3

$$$$
=
 OpenBabel11052412453D

 25 29  0  0  1  0  0  0  0  0999 V2000
  188.1390  176.9000  142.4810 C   0  0  2  0  0  3  0  0  0  0  0  0
  188.0550  178.2350  141.7570 C   0  0  1  0  0  3  0  0  0  0  0  0
  186.4510  177.9320  144.0040 N   0  0  0  0  0  2  0  0  0  0  0  0
  190.5180  176.6620  143.3580 N   0  0  2  0  0  0  0  0  0  0  0  0
  187.9240  176.6810  138.4140 C   0  0  0  0  0  2  0  0  0  0  0  0
  191.6490  178.4970  144.2280 C   0  0  0  0  0  2  0  0  0  0  0  0
  185.7910  178.0200  142.7660 N   0  0  0  0  0  2  0  0  0  0  0  0
  190.0670  176.9610  144.7160 C   0  0  1  0  0  3  0  0  0  0  0  0
  191.0320  177.8140  145.3050 O   0  0  0  0  0  0  0  0  0  0  0  0
  185.8880  178.9620  140.5560 C   0  0  0  0  0  0  0  0  0  0  0  0
  184.7550  179.5110  140.5470 O   0  0  0  0  0  0  0  0  0  0  0  0
  188.3090  178.0410  137.8430 C   0  0  1  0  0  3  0  0  0  0  0  0
  188.7220  178.2580  140.3850 C   0  0  0  0  0  2  0  0  0  0  0  0
  191.1570  177.8830  142.9300 C   0  0  0  0  0  2  0  0  0  0  0  0
  187.6330  177.0540  143.9200 C   0  0  2  0  0  3  0  0  0  0  0  0
  188.7160  177.6850  144.7730 C   0  0  0  0  0  2  0  0  0  0  0  0
  186.4160  178.4540  139.3390 N   0  0  0  0  0  2  0  0  0  0  0  0
  189.5010  176.1990  142.4000 C   0  0  0  0  0  2  0  0  0  0  0  0
  187.7540  177.9190  139.2530 C   0  0  2  0  0  0  0  0  0  0  0  0
  186.6160  178.8220  141.8540 C   0  0  2  0  0  3  0  0  0  0  0  0
  189.8350  178.1230  137.7470 C   0  0  0  0  0  2  0  0  0  0  0  0
  190.3480  177.0050  137.0320 O   0  0  0  0  0  0  0  0  0  0  0  0
  191.3220  176.1650  137.5690 C   0  0  0  0  0  0  0  0  0  0  0  0
  192.7560  176.3760  137.2060 C   0  0  0  0  0  1  0  0  0  0  0  0
  191.0220  175.2420  138.3770 O   0  0  0  0  0  0  0  0  0  0  0  0
  1 18  1  1  0  0  0
  1 15  1  0  0  0  0
  2 13  1  6  0  0  0
  2 20  1  0  0  0  0
  2  1  1  0  0  0  0
  4 18  1  6  0  0  0
  4  8  1  0  0  0  0
  6  9  1  0  0  0  0
  7  3  1  0  0  0  0
  8 16  1  6  0  0  0
  8  9  1  0  0  0  0
 11 10  2  0  0  0  0
 12 21  1  1  0  0  0
 12  5  1  0  0  0  0
 12 19  1  0  0  0  0
 14  4  1  0  0  0  0
 14  6  1  0  0  0  0
 15  3  1  0  0  0  0
 15 16  1  1  0  0  0
 17 10  1  0  0  0  0
 19  5  1  1  0  0  0
 19 17  1  0  0  0  0
 19 13  1  0  0  0  0
 20 10  1  6  0  0  0
 20  7  1  0  0  0  0
 22 23  1  0  0  0  0
 22 21  1  0  0  0  0
 23 25  2  0  0  0  0
 24 23  1  0  0  0  0
M  END
>  <MODEL>
2

>  <REMARK>
 VINA RESULT:      -7.6      2.813      7.371
  Name = 
  3 active torsions:
  status: ('A' for Active; 'I' for Inactive)
    1  A    between atoms: C_2  and  O_21
    2  A    between atoms: C_15  and  C_25
    3  A    between atoms: O_21  and  C_25
                            x       y       z     vdW  Elec       q    Type
                         _______ _______ _______ _____ _____    ______ ____

>  <TORSDO>
F 3

$$$$
=
 OpenBabel11052412453D

 25 29  0  0  1  0  0  0  0  0999 V2000
  189.1900  176.8850  141.2670 C   0  0  2  0  0  3  0  0  0  0  0  0
  189.9190  177.8860  140.3840 C   0  0  1  0  0  3  0  0  0  0  0  0
  187.4010  178.6270  141.2930 N   0  0  0  0  0  2  0  0  0  0  0  0
  190.5740  176.5930  143.3850 N   0  0  2  0  0  0  0  0  0  0  0  0
  191.0040  175.3190  137.9660 C   0  0  0  0  0  2  0  0  0  0  0  0
  191.6300  178.4150  144.3690 C   0  0  0  0  0  2  0  0  0  0  0  0
  187.5280  178.3860  139.9140 N   0  0  0  0  0  2  0  0  0  0  0  0
  189.6220  177.4070  144.1410 C   0  0  1  0  0  3  0  0  0  0  0  0
  190.3720  178.2490  144.9980 O   0  0  0  0  0  0  0  0  0  0  0  0
  189.0260  178.4850  138.0360 C   0  0  0  0  0  0  0  0  0  0  0  0
  188.3010  179.1670  137.2660 O   0  0  0  0  0  0  0  0  0  0  0  0
  192.0390  176.3220  137.4710 C   0  0  1  0  0  3  0  0  0  0  0  0
  191.1540  177.3320  139.6790 C   0  0  0  0  0  2  0  0  0  0  0  0
  191.6950  177.4780  143.1770 C   0  0  0  0  0  2  0  0  0  0  0  0
  188.1070  177.6000  142.0830 C   0  0  2  0  0  3  0  0  0  0  0  0
  188.7460  178.3090  143.2610 C   0  0  0  0  0  2  0  0  0  0  0  0
  189.9010  177.5140  137.4780 N   0  0  0  0  0  2  0  0  0  0  0  0
  190.0940  175.9950  142.1280 C   0  0  0  0  0  2  0  0  0  0  0  0
  190.8420  176.7800  138.2890 C   0  0  2  0  0  0  0  0  0  0  0  0
  188.9070  178.6870  139.5130 C   0  0  2  0  0  3  0  0  0  0  0  0
  193.3350  176.1270  138.2630 C   0  0  0  0  0  2  0  0  0  0  0  0
  194.3940  175.7420  137.3940 O   0  0  0  0  0  0  0  0  0  0  0  0
  195.2580  174.6920  137.6980 C   0  0  0  0  0  0  0  0  0  0  0  0
  194.7000  173.3300  137.9500 C   0  0  0  0  0  1  0  0  0  0  0  0
  196.5100  174.8610  137.7410 O   0  0  0  0  0  0  0  0  0  0  0  0
  1 15  1  0  0  0  0
  1 18  1  1  0  0  0
  2 13  1  6  0  0  0
  2  1  1  0  0  0  0
  3 15  1  0  0  0  0
  4 18  1  6  0  0  0
  4  8  1  0  0  0  0
  6  9  1  0  0  0  0
  7  3  1  0  0  0  0
  8 16  1  6  0  0  0
  8  9  1  0  0  0  0
 11 10  2  0  0  0  0
 12  5  1  0  0  0  0
 12 21  1  1  0  0  0
 12 19  1  0  0  0  0
 14  4  1  0  0  0  0
 14  6  1  0  0  0  0
 15 16  1  1  0  0  0
 17 10  1  0  0  0  0
 17 19  1  0  0  0  0
 19  5  1  1  0  0  0
 19 13  1  0  0  0  0
 20 10  1  6  0  0  0
 20  7  1  0  0  0  0
 20  2  1  0  0  0  0
 22 23  1  0  0  0  0
 22 21  1  0  0  0  0
 23 25  2  0  0  0  0
 23 24  1  0  0  0  0
M  END
>  <MODEL>
3

>  <REMARK>
 VINA RESULT:      -7.5      3.680      8.619
  Name = 
  3 active torsions:
  status: ('A' for Active; 'I' for Inactive)
    1  A    between atoms: C_2  and  O_21
    2  A    between atoms: C_15  and  C_25
    3  A    between atoms: O_21  and  C_25
                            x       y       z     vdW  Elec       q    Type
                         _______ _______ _______ _____ _____    ______ ____

>  <TORSDO>
F 3

$$$$
=
 OpenBabel11052412453D

 25 29  0  0  1  0  0  0  0  0999 V2000
  187.1760  177.0390  144.2700 C   0  0  2  0  0  3  0  0  0  0  0  0
  186.6230  178.4500  144.1400 C   0  0  1  0  0  3  0  0  0  0  0  0
  187.0430  177.5080  146.7190 N   0  0  0  0  0  2  0  0  0  0  0  0
  189.4880  177.0310  143.2020 N   0  0  2  0  0  0  0  0  0  0  0  0
  184.1780  177.5030  141.5440 C   0  0  0  0  0  2  0  0  0  0  0  0
  190.9220  178.8420  143.4690 C   0  0  0  0  0  2  0  0  0  0  0  0
  185.7070  177.7060  146.3300 N   0  0  0  0  0  2  0  0  0  0  0  0
  190.1180  177.0130  144.5220 C   0  0  1  0  0  3  0  0  0  0  0  0
  191.2280  177.8920  144.4750 O   0  0  0  0  0  0  0  0  0  0  0  0
  184.2400  179.0230  144.9540 C   0  0  0  0  0  0  0  0  0  0  0  0
  183.4290  179.3780  145.8480 O   0  0  0  0  0  0  0  0  0  0  0  0
  184.0660  178.9850  141.2070 C   0  0  1  0  0  3  0  0  0  0  0  0
  186.1400  178.8180  142.7400 C   0  0  0  0  0  2  0  0  0  0  0  0
  189.6580  178.3940  142.7590 C   0  0  0  0  0  2  0  0  0  0  0  0
  187.8220  176.8570  145.6490 C   0  0  2  0  0  3  0  0  0  0  0  0
  189.1980  177.4930  145.6520 C   0  0  0  0  0  2  0  0  0  0  0  0
  183.7620  178.8250  143.6310 N   0  0  0  0  0  2  0  0  0  0  0  0
  188.0870  176.5880  143.1220 C   0  0  0  0  0  2  0  0  0  0  0  0
  184.6540  178.5330  142.5340 C   0  0  2  0  0  0  0  0  0  0  0  0
  185.6660  178.7740  145.3260 C   0  0  2  0  0  3  0  0  0  0  0  0
  185.0920  179.3230  140.1210 C   0  0  0  0  0  2  0  0  0  0  0  0
  184.4880  180.1010  139.0940 O   0  0  0  0  0  0  0  0  0  0  0  0
  183.2170  179.8140  138.5970 C   0  0  0  0  0  0  0  0  0  0  0  0
  182.1340  180.8350  138.7180 C   0  0  0  0  0  1  0  0  0  0  0  0
  182.9670  178.7170  138.0220 O   0  0  0  0  0  0  0  0  0  0  0  0
  1 18  1  6  0  0  0
  1 15  1  0  0  0  0
  2 13  1  6  0  0  0
  2  1  1  0  0  0  0
  2 20  1  0  0  0  0
  4 14  1  1  0  0  0
  4  8  1  0  0  0  0
  6  9  1  0  0  0  0
  7  3  1  0  0  0  0
  8 16  1  1  0  0  0
  9  8  1  0  0  0  0
 10 11  2  0  0  0  0
 12 21  1  6  0  0  0
 12  5  1  0  0  0  0
 12 19  1  0  0  0  0
 14  6  1  0  0  0  0
 15 16  1  6  0  0  0
 15  3  1  0  0  0  0
 17 10  1  0  0  0  0
 18  4  1  0  0  0  0
 19  5  1  6  0  0  0
 19 13  1  0  0  0  0
 19 17  1  0  0  0  0
 20 10  1  6  0  0  0
 20  7  1  0  0  0  0
 22 21  1  0  0  0  0
 23 24  1  0  0  0  0
 23 22  1  0  0  0  0
 25 23  2  0  0  0  0
M  END
>  <MODEL>
4

>  <REMARK>
 VINA RESULT:      -7.2      3.433      5.772
  Name = 
  3 active torsions:
  status: ('A' for Active; 'I' for Inactive)
    1  A    between atoms: C_2  and  O_21
    2  A    between atoms: C_15  and  C_25
    3  A    between atoms: O_21  and  C_25
                            x       y       z     vdW  Elec       q    Type
                         _______ _______ _______ _____ _____    ______ ____

>  <TORSDO>
F 3

$$$$
=
 OpenBabel11052412453D

 25 29  0  0  1  0  0  0  0  0999 V2000
  185.6370  179.3050  144.0240 C   0  0  2  0  0  3  0  0  0  0  0  0
  186.0860  177.8840  144.3240 C   0  0  1  0  0  3  0  0  0  0  0  0
  184.2400  179.0020  146.0710 N   0  0  0  0  0  2  0  0  0  0  0  0
  184.4430  179.2640  141.7750 N   0  0  2  0  0  0  0  0  0  0  0  0
  189.6450  178.6280  143.6980 C   0  0  0  0  0  2  0  0  0  0  0  0
  183.0530  177.4900  141.2050 C   0  0  0  0  0  2  0  0  0  0  0  0
  185.5280  178.7650  146.5820 N   0  0  0  0  0  2  0  0  0  0  0  0
  183.1460  179.3780  142.4400 C   0  0  1  0  0  3  0  0  0  0  0  0
  182.2490  178.5080  141.7730 O   0  0  0  0  0  0  0  0  0  0  0  0
  187.4620  177.3430  146.4420 C   0  0  0  0  0  0  0  0  0  0  0  0
  187.5500  177.0420  147.6600 O   0  0  0  0  0  0  0  0  0  0  0  0
  189.8650  177.1250  143.5690 C   0  0  1  0  0  3  0  0  0  0  0  0
  187.2980  177.4170  143.5220 C   0  0  0  0  0  2  0  0  0  0  0  0
  184.5090  177.8750  141.3850 C   0  0  0  0  0  2  0  0  0  0  0  0
  184.2990  179.5870  144.7190 C   0  0  2  0  0  3  0  0  0  0  0  0
  183.1710  178.9670  143.9180 C   0  0  0  0  0  2  0  0  0  0  0  0
  188.6510  177.4460  145.6710 N   0  0  0  0  0  2  0  0  0  0  0  0
  185.6280  179.6860  142.5390 C   0  0  0  0  0  2  0  0  0  0  0  0
  188.6190  177.6720  144.2450 C   0  0  2  0  0  0  0  0  0  0  0  0
  186.1150  177.6300  145.8600 C   0  0  2  0  0  3  0  0  0  0  0  0
  189.6890  176.7240  142.1020 C   0  0  0  0  0  2  0  0  0  0  0  0
  190.9410  176.7540  141.4260 O   0  0  0  0  0  0  0  0  0  0  0  0
  191.0560  177.1570  140.0970 C   0  0  0  0  0  0  0  0  0  0  0  0
  189.8510  177.6680  139.3770 C   0  0  0  0  0  1  0  0  0  0  0  0
  192.1650  177.1250  139.4930 O   0  0  0  0  0  0  0  0  0  0  0  0
  1 18  1  6  0  0  0
  1  2  1  0  0  0  0
  1 15  1  0  0  0  0
  2 13  1  1  0  0  0
  2 20  1  0  0  0  0
  3  7  1  0  0  0  0
  4 14  1  1  0  0  0
  4  8  1  0  0  0  0
  4 18  1  0  0  0  0
  5 19  1  0  0  0  0
  6 14  1  0  0  0  0
  6  9  1  0  0  0  0
  8 16  1  1  0  0  0
  9  8  1  0  0  0  0
 10 11  2  0  0  0  0
 12 21  1  6  0  0  0
 12  5  1  0  0  0  0
 12 19  1  0  0  0  0
 15 16  1  6  0  0  0
 15  3  1  0  0  0  0
 17 10  1  0  0  0  0
 19 13  1  6  0  0  0
 19 17  1  0  0  0  0
 20 10  1  1  0  0  0
 20  7  1  0  0  0  0
 22 21  1  0  0  0  0
 23 22  1  0  0  0  0
 24 23  1  0  0  0  0
 25 23  2  0  0  0  0
M  END
>  <MODEL>
5

>  <REMARK>
 VINA RESULT:      -7.2      2.759      6.145
  Name = 
  3 active torsions:
  status: ('A' for Active; 'I' for Inactive)
    1  A    between atoms: C_2  and  O_21
    2  A    between atoms: C_15  and  C_25
    3  A    between atoms: O_21  and  C_25
                            x       y       z     vdW  Elec       q    Type
                         _______ _______ _______ _____ _____    ______ ____

>  <TORSDO>
F 3

$$$$
=
 OpenBabel11052412453D

 25 29  0  0  1  0  0  0  0  0999 V2000
  187.2050  177.0350  144.3360 C   0  0  2  0  0  3  0  0  0  0  0  0
  186.6560  178.4460  144.1960 C   0  0  1  0  0  3  0  0  0  0  0  0
  187.0260  177.5030  146.7820 N   0  0  0  0  0  2  0  0  0  0  0  0
  189.5370  177.0250  143.3120 N   0  0  2  0  0  0  0  0  0  0  0  0
  184.2590  177.5030  141.5540 C   0  0  0  0  0  2  0  0  0  0  0  0
  190.9670  178.8330  143.6060 C   0  0  0  0  0  2  0  0  0  0  0  0
  185.6980  177.7030  146.3680 N   0  0  0  0  0  2  0  0  0  0  0  0
  190.1410  177.0050  144.6440 C   0  0  1  0  0  3  0  0  0  0  0  0
  191.2530  177.8840  144.6180 O   0  0  0  0  0  0  0  0  0  0  0  0
  184.2580  179.0220  144.9650 C   0  0  0  0  0  0  0  0  0  0  0  0
  183.4310  179.3780  145.8430 O   0  0  0  0  0  0  0  0  0  0  0  0
  184.1560  178.9850  141.2140 C   0  0  1  0  0  3  0  0  0  0  0  0
  186.2000  178.8150  142.7870 C   0  0  0  0  0  2  0  0  0  0  0  0
  189.7160  178.3880  142.8720 C   0  0  0  0  0  2  0  0  0  0  0  0
  187.8240  176.8520  145.7270 C   0  0  2  0  0  3  0  0  0  0  0  0
  189.2010  177.4860  145.7560 C   0  0  0  0  0  2  0  0  0  0  0  0
  183.8060  178.8260  143.6320 N   0  0  0  0  0  2  0  0  0  0  0  0
  188.1370  176.5830  143.2050 C   0  0  0  0  0  2  0  0  0  0  0  0
  184.7180  178.5320  142.5520 C   0  0  2  0  0  0  0  0  0  0  0  0
  185.6770  178.7720  145.3630 C   0  0  2  0  0  3  0  0  0  0  0  0
  185.2020  179.3230  140.1480 C   0  0  0  0  0  2  0  0  0  0  0  0
  184.7210  178.9780  138.8550 O   0  0  0  0  0  0  0  0  0  0  0  0
  185.4880  178.2490  137.9480 C   0  0  0  0  0  0  0  0  0  0  0  0
  184.9230  177.0090  137.3360 C   0  0  0  0  0  1  0  0  0  0  0  0
  186.6460  178.6280  137.6110 O   0  0  0  0  0  0  0  0  0  0  0  0
  1 18  1  6  0  0  0
  1 15  1  0  0  0  0
  2 13  1  6  0  0  0
  2  1  1  0  0  0  0
  2 20  1  0  0  0  0
  4 14  1  1  0  0  0
  4  8  1  0  0  0  0
  6  9  1  0  0  0  0
  7  3  1  0  0  0  0
  8 16  1  1  0  0  0
  9  8  1  0  0  0  0
 10 11  2  0  0  0  0
 12 21  1  6  0  0  0
 12  5  1  0  0  0  0
 12 19  1  0  0  0  0
 14  6  1  0  0  0  0
 15 16  1  6  0  0  0
 15  3  1  0  0  0  0
 17 10  1  0  0  0  0
 18  4  1  0  0  0  0
 19  5  1  6  0  0  0
 19 13  1  0  0  0  0
 19 17  1  0  0  0  0
 20 10  1  6  0  0  0
 20  7  1  0  0  0  0
 22 21  1  0  0  0  0
 23 22  1  0  0  0  0
 24 23  1  0  0  0  0
 25 23  2  0  0  0  0
M  END
>  <MODEL>
6

>  <REMARK>
 VINA RESULT:      -6.9      2.969      5.877
  Name = 
  3 active torsions:
  status: ('A' for Active; 'I' for Inactive)
    1  A    between atoms: C_2  and  O_21
    2  A    between atoms: C_15  and  C_25
    3  A    between atoms: O_21  and  C_25
                            x       y       z     vdW  Elec       q    Type
                         _______ _______ _______ _____ _____    ______ ____

>  <TORSDO>
F 3

$$$$
=
 OpenBabel11052412453D

 25 29  0  0  1  0  0  0  0  0999 V2000
  186.7140  177.3200  143.4770 C   0  0  2  0  0  3  0  0  0  0  0  0
  187.7110  178.4040  143.0970 C   0  0  1  0  0  3  0  0  0  0  0  0
  185.1990  178.5530  141.9210 N   0  0  0  0  0  2  0  0  0  0  0  0
  186.2640  177.5430  145.9730 N   0  0  2  0  0  0  0  0  0  0  0  0
  190.4930  176.0200  142.6610 C   0  0  0  0  0  2  0  0  0  0  0  0
  186.0910  179.6400  146.9620 C   0  0  0  0  0  2  0  0  0  0  0  0
  186.2760  178.2510  141.0700 N   0  0  0  0  0  2  0  0  0  0  0  0
  184.9590  178.1460  145.7030 C   0  0  1  0  0  3  0  0  0  0  0  0
  184.7850  179.2100  146.6210 O   0  0  0  0  0  0  0  0  0  0  0  0
  188.6270  178.5840  140.6890 C   0  0  0  0  0  0  0  0  0  0  0  0
  188.5580  179.0030  139.5050 O   0  0  0  0  0  0  0  0  0  0  0  0
  191.4380  177.2120  142.7610 C   0  0  1  0  0  3  0  0  0  0  0  0
  189.1470  178.1280  143.5320 C   0  0  0  0  0  2  0  0  0  0  0  0
  187.0860  178.6640  146.3630 C   0  0  0  0  0  2  0  0  0  0  0  0
  185.2870  177.7990  143.1850 C   0  0  2  0  0  3  0  0  0  0  0  0
  184.8290  178.7300  144.2900 C   0  0  0  0  0  2  0  0  0  0  0  0
  189.7610  177.8260  141.0860 N   0  0  0  0  0  2  0  0  0  0  0  0
  186.8740  176.7530  144.8920 C   0  0  0  0  0  2  0  0  0  0  0  0
  189.9630  177.4140  142.4550 C   0  0  2  0  0  0  0  0  0  0  0  0
  187.4930  178.8580  141.6240 C   0  0  2  0  0  3  0  0  0  0  0  0
  191.8330  177.4080  144.2270 C   0  0  0  0  0  2  0  0  0  0  0  0
  191.6810  176.1920  144.9490 O   0  0  0  0  0  0  0  0  0  0  0  0
  191.5500  176.1640  146.3370 C   0  0  0  0  0  0  0  0  0  0  0  0
  190.3330  176.7530  146.9720 C   0  0  0  0  0  1  0  0  0  0  0  0
  192.4290  175.6290  147.0700 O   0  0  0  0  0  0  0  0  0  0  0  0
  1 18  1  1  0  0  0
  2  1  1  0  0  0  0
  2 13  1  6  0  0  0
  3 15  1  0  0  0  0
  4 18  1  6  0  0  0
  4 14  1  0  0  0  0
  5 12  1  0  0  0  0
  7 20  1  0  0  0  0
  7  3  1  0  0  0  0
  8 16  1  6  0  0  0
  8  4  1  0  0  0  0
  8  9  1  0  0  0  0
  9  6  1  0  0  0  0
 10 17  1  0  0  0  0
 11 10  2  0  0  0  0
 12 21  1  1  0  0  0
 14  6  1  0  0  0  0
 15  1  1  0  0  0  0
 15 16  1  1  0  0  0
 17 19  1  0  0  0  0
 19  5  1  1  0  0  0
 19 12  1  0  0  0  0
 19 13  1  0  0  0  0
 20 10  1  6  0  0  0
 20  2  1  0  0  0  0
 21 22  1  0  0  0  0
 22 23  1  0  0  0  0
 23 24  1  0  0  0  0
 23 25  2  0  0  0  0
M  END
>  <MODEL>
7

>  <REMARK>
 VINA RESULT:      -6.8      1.984      6.267
  Name = 
  3 active torsions:
  status: ('A' for Active; 'I' for Inactive)
    1  A    between atoms: C_2  and  O_21
    2  A    between atoms: C_15  and  C_25
    3  A    between atoms: O_21  and  C_25
                            x       y       z     vdW  Elec       q    Type
                         _______ _______ _______ _____ _____    ______ ____

>  <TORSDO>
F 3

$$$$
=
 OpenBabel11052412453D

 25 29  0  0  1  0  0  0  0  0999 V2000
  187.7520  178.7930  142.3640 C   0  0  2  0  0  3  0  0  0  0  0  0
  186.5950  177.8480  142.6510 C   0  0  1  0  0  3  0  0  0  0  0  0
  187.0760  178.4570  139.9830 N   0  0  0  0  0  2  0  0  0  0  0  0
  189.8830  177.6430  143.1500 N   0  0  2  0  0  0  0  0  0  0  0  0
  185.3150  179.8870  145.4470 C   0  0  0  0  0  2  0  0  0  0  0  0
  190.1800  175.3590  142.8380 C   0  0  0  0  0  2  0  0  0  0  0  0
  185.8840  178.9530  140.5380 N   0  0  0  0  0  2  0  0  0  0  0  0
  190.2550  177.3460  141.7670 C   0  0  1  0  0  3  0  0  0  0  0  0
  190.7780  176.0300  141.7420 O   0  0  0  0  0  0  0  0  0  0  0  0
  184.1570  178.5440  142.1600 C   0  0  0  0  0  0  0  0  0  0  0  0
  183.1650  178.6430  141.3930 O   0  0  0  0  0  0  0  0  0  0  0  0
  184.5310  178.6580  145.8920 C   0  0  1  0  0  3  0  0  0  0  0  0
  186.1870  177.7690  144.1190 C   0  0  0  0  0  2  0  0  0  0  0  0
  189.4130  176.3770  143.6600 C   0  0  0  0  0  2  0  0  0  0  0  0
  188.2100  178.6300  140.9100 C   0  0  2  0  0  3  0  0  0  0  0  0
  189.0760  177.3920  140.7870 C   0  0  0  0  0  2  0  0  0  0  0  0
  184.0230  178.9520  143.5150 N   0  0  0  0  0  2  0  0  0  0  0  0
  188.9110  178.7270  143.3650 C   0  0  0  0  0  2  0  0  0  0  0  0
  185.0800  178.7580  144.4780 C   0  0  2  0  0  0  0  0  0  0  0  0
  185.4540  178.0460  141.6090 C   0  0  2  0  0  3  0  0  0  0  0  0
  185.3890  177.8510  146.8700 C   0  0  0  0  0  2  0  0  0  0  0  0
  186.4330  178.6600  147.3980 O   0  0  0  0  0  0  0  0  0  0  0  0
  187.6280  178.1170  147.8660 C   0  0  0  0  0  0  0  0  0  0  0  0
  188.5890  177.5110  146.8950 C   0  0  0  0  0  1  0  0  0  0  0  0
  187.9300  178.1470  149.0920 O   0  0  0  0  0  0  0  0  0  0  0  0
  1  2  1  0  0  0  0
  1 18  1  1  0  0  0
  2 13  1  1  0  0  0
  3  7  1  0  0  0  0
  3 15  1  0  0  0  0
  4 18  1  6  0  0  0
  4 14  1  0  0  0  0
  5 12  1  0  0  0  0
  6 14  1  0  0  0  0
  8 16  1  6  0  0  0
  8  4  1  0  0  0  0
  9  8  1  0  0  0  0
  9  6  1  0  0  0  0
 10 17  1  0  0  0  0
 11 10  2  0  0  0  0
 12 21  1  1  0  0  0
 15 16  1  1  0  0  0
 15  1  1  0  0  0  0
 17 19  1  0  0  0  0
 19 13  1  6  0  0  0
 19  5  1  0  0  0  0
 19 12  1  0  0  0  0
 20  7  1  6  0  0  0
 20 10  1  0  0  0  0
 20  2  1  0  0  0  0
 21 22  1  0  0  0  0
 22 23  1  0  0  0  0
 23 25  2  0  0  0  0
 24 23  1  0  0  0  0
M  END
>  <MODEL>
8

>  <REMARK>
 VINA RESULT:      -6.5      2.133      5.023
  Name = 
  3 active torsions:
  status: ('A' for Active; 'I' for Inactive)
    1  A    between atoms: C_2  and  O_21
    2  A    between atoms: C_15  and  C_25
    3  A    between atoms: O_21  and  C_25
                            x       y       z     vdW  Elec       q    Type
                         _______ _______ _______ _____ _____    ______ ____

>  <TORSDO>
F 3

$$$$
=
 OpenBabel11052412453D

 25 29  0  0  1  0  0  0  0  0999 V2000
  189.9170  176.7010  140.4890 C   0  0  2  0  0  3  0  0  0  0  0  0
  189.7360  177.9810  141.2910 C   0  0  1  0  0  3  0  0  0  0  0  0
  192.3250  177.3620  140.4970 N   0  0  0  0  0  2  0  0  0  0  0  0
  188.6310  176.9830  138.3100 N   0  0  2  0  0  0  0  0  0  0  0  0
  187.4720  176.4040  143.7410 C   0  0  0  0  0  2  0  0  0  0  0  0
  188.6180  179.0250  137.1990 C   0  0  0  0  0  2  0  0  0  0  0  0
  192.0560  177.2970  141.8750 N   0  0  0  0  0  2  0  0  0  0  0  0
  189.8800  177.1910  137.5780 C   0  0  1  0  0  3  0  0  0  0  0  0
  189.6580  178.2360  136.6480 O   0  0  0  0  0  0  0  0  0  0  0  0
  190.7350  178.2180  143.6610 C   0  0  0  0  0  0  0  0  0  0  0  0
  191.6750  178.5130  144.4430 O   0  0  0  0  0  0  0  0  0  0  0  0
  187.0360  177.8100  144.1380 C   0  0  1  0  0  3  0  0  0  0  0  0
  188.3670  178.1330  141.9460 C   0  0  0  0  0  2  0  0  0  0  0  0
  188.0710  178.3090  138.4200 C   0  0  0  0  0  2  0  0  0  0  0  0
  191.2360  176.7560  139.7090 C   0  0  2  0  0  3  0  0  0  0  0  0
  191.0560  177.6110  138.4700 C   0  0  0  0  0  2  0  0  0  0  0  0
  189.4840  177.8240  144.2050 N   0  0  0  0  0  2  0  0  0  0  0  0
  188.7230  176.3060  139.6130 C   0  0  0  0  0  2  0  0  0  0  0  0
  188.3300  177.5850  143.3710 C   0  0  2  0  0  0  0  0  0  0  0  0
  190.9820  178.2480  142.1860 C   0  0  2  0  0  3  0  0  0  0  0  0
  185.8330  178.2150  143.2830 C   0  0  0  0  0  2  0  0  0  0  0  0
  185.1210  179.2800  143.9010 O   0  0  0  0  0  0  0  0  0  0  0  0
  183.9640  179.0640  144.6490 C   0  0  0  0  0  0  0  0  0  0  0  0
  182.6610  178.8700  143.9450 C   0  0  0  0  0  1  0  0  0  0  0  0
  183.9970  179.0020  145.9100 O   0  0  0  0  0  0  0  0  0  0  0  0
  1 18  1  6  0  0  0
  1  2  1  0  0  0  0
  2 13  1  1  0  0  0
  2 20  1  0  0  0  0
  3  7  1  0  0  0  0
  4 14  1  1  0  0  0
  4 18  1  0  0  0  0
  5 12  1  0  0  0  0
  6 14  1  0  0  0  0
  8  4  1  0  0  0  0
  8 16  1  1  0  0  0
  9  6  1  0  0  0  0
  9  8  1  0  0  0  0
 10 17  1  0  0  0  0
 10 11  2  0  0  0  0
 12 21  1  6  0  0  0
 15 16  1  6  0  0  0
 15  1  1  0  0  0  0
 15  3  1  0  0  0  0
 19 13  1  6  0  0  0
 19  5  1  0  0  0  0
 19 12  1  0  0  0  0
 19 17  1  0  0  0  0
 20  7  1  1  0  0  0
 20 10  1  0  0  0  0
 21 22  1  0  0  0  0
 22 23  1  0  0  0  0
 23 25  2  0  0  0  0
 24 23  1  0  0  0  0
M  END
>  <MODEL>
9

>  <REMARK>
 VINA RESULT:      -6.4      2.508      3.445
  Name = 
  3 active torsions:
  status: ('A' for Active; 'I' for Inactive)
    1  A    between atoms: C_2  and  O_21
    2  A    between atoms: C_15  and  C_25
    3  A    between atoms: O_21  and  C_25
                            x       y       z     vdW  Elec       q    Type
                         _______ _______ _______ _____ _____    ______ ____

>  <TORSDO>
F 3

$$$$
