=
 OpenBabel11052415583D

 34 39  0  0  1  0  0  0  0  0999 V2000
  182.8040  179.1660  139.3480 C   0  0  1  0  0  3  0  0  0  0  0  0
  183.1430  178.5080  143.0960 C   0  0  0  0  0  2  0  0  0  0  0  0
  184.4330  177.3250  138.4950 C   0  0  2  0  0  3  0  0  0  0  0  0
  181.1740  178.6020  141.6740 C   0  0  0  0  0  2  0  0  0  0  0  0
  183.2360  175.5420  136.3970 C   0  0  0  0  0  2  0  0  0  0  0  0
  187.5450  177.5600  135.4310 C   0  0  0  0  0  0  0  0  0  0  0  0
  182.2250  177.5280  137.6380 C   0  0  2  0  0  3  0  0  0  0  0  0
  183.3690  178.3700  138.1460 C   0  0  1  0  0  3  0  0  0  0  0  0
  187.8020  178.0490  136.7950 C   0  0  0  0  0  0  0  0  0  0  0  0
  186.6680  178.1760  137.7670 C   0  0  0  0  0  2  0  0  0  0  0  0
  188.4820  177.4720  134.5940 O   0  0  0  0  0  0  0  0  0  0  0  0
  185.5440  177.1920  137.4450 C   0  0  2  0  0  3  0  0  0  0  0  0
  181.0900  177.7500  138.6120 C   0  0  2  0  0  3  0  0  0  0  0  0
  179.8800  177.7780  137.9170 O   0  0  0  0  0  1  0  0  0  0  0  0
  180.5310  179.2060  140.4410 C   0  0  2  0  0  3  0  0  0  0  0  0
  181.3370  179.0430  139.2280 N   0  0  1  0  0  0  0  0  0  0  0  0
  188.9620  178.4000  137.1390 O   0  0  0  0  0  0  0  0  0  0  0  0
  184.3180  179.3290  143.6100 C   0  0  0  0  0  2  0  0  0  0  0  0
  185.6650  178.8980  143.0150 C   0  0  2  0  0  3  0  0  0  0  0  0
  185.0970  177.3620  135.9720 C   0  0  2  0  0  3  0  0  0  0  0  0
  185.6440  178.5180  141.5310 C   0  0  0  0  0  2  0  0  0  0  0  0
  183.8720  176.5790  135.4620 C   0  0  0  0  0  2  0  0  0  0  0  0
  186.2250  177.1480  135.0700 N   0  0  0  0  0  2  0  0  0  0  0  0
  182.7410  176.1000  137.7400 C   0  0  2  0  0  3  0  0  0  0  0  0
  183.8000  176.0860  138.6570 O   0  0  0  0  0  0  0  0  0  0  0  0
  182.5860  179.1100  141.8050 C   0  0  2  0  0  3  0  0  0  0  0  0
  184.6750  179.3740  140.7300 C   0  0  0  0  0  2  0  0  0  0  0  0
  183.3780  178.7010  140.6360 N   0  0  2  0  0  0  0  0  0  0  0  0
  186.2870  177.8080  143.8240 C   0  0  0  0  0  0  0  0  0  0  0  0
  187.0310  176.9630  143.2630 O   0  0  0  0  0  0  0  0  0  0  0  0
  186.0500  177.7200  145.2270 N   0  0  0  0  0  1  0  0  0  0  0  0
  179.1750  180.8610  141.8380 C   0  0  0  0  0  1  0  0  0  0  0  0
  180.0260  180.6480  140.5970 C   0  0  0  0  0  3  0  0  0  0  0  0
  179.2720  181.1040  139.3610 C   0  0  0  0  0  1  0  0  0  0  0  0
  1 28  1  0  0  0  0
  2 18  1  0  0  0  0
  3 25  1  0  0  0  0
  4 26  1  0  0  0  0
  5 24  1  0  0  0  0
  6  9  1  0  0  0  0
  7 24  1  0  0  0  0
  7  8  1  0  0  0  0
  7 13  1  0  0  0  0
  8  3  1  0  0  0  0
  8  1  1  0  0  0  0
  9 17  2  0  0  0  0
  9 10  1  0  0  0  0
 11  6  2  0  0  0  0
 12 10  1  0  0  0  0
 12  3  1  0  0  0  0
 13 16  1  0  0  0  0
 14 13  1  0  0  0  0
 15 33  1  0  0  0  0
 15  4  1  0  0  0  0
 16  1  1  0  0  0  0
 16 15  1  0  0  0  0
 19 18  1  0  0  0  0
 19 29  1  0  0  0  0
 20 12  1  0  0  0  0
 21 19  1  0  0  0  0
 22 20  1  0  0  0  0
 22  5  1  0  0  0  0
 23  6  1  0  0  0  0
 23 20  1  0  0  0  0
 24 25  1  0  0  0  0
 26  2  1  0  0  0  0
 27 21  1  0  0  0  0
 28 27  1  0  0  0  0
 28 26  1  0  0  0  0
 29 31  1  0  0  0  0
 30 29  2  0  0  0  0
 33 32  1  0  0  0  0
 34 33  1  0  0  0  0
M  END
>  <MODEL>
1

>  <REMARK>
 VINA RESULT:      -6.6      0.000      0.000
  Name = 
  2 active torsions:
  status: ('A' for Active; 'I' for Inactive)
    1  A    between atoms: C_3  and  C_25
    2  A    between atoms: C_12  and  C_19
                            x       y       z     vdW  Elec       q    Type
                         _______ _______ _______ _____ _____    ______ ____

>  <TORSDO>
F 2

$$$$
=
 OpenBabel11052415583D

 34 39  0  0  1  0  0  0  0  0999 V2000
  182.3370  176.4720  138.3520 C   0  0  1  0  0  3  0  0  0  0  0  0
  184.7440  177.1630  135.4670 C   0  0  0  0  0  2  0  0  0  0  0  0
  182.8700  178.5690  139.7960 C   0  0  2  0  0  3  0  0  0  0  0  0
  182.3510  176.7360  135.4680 C   0  0  0  0  0  2  0  0  0  0  0  0
  180.4310  180.1280  140.5940 C   0  0  0  0  0  2  0  0  0  0  0  0
  183.5470  178.8870  144.1050 C   0  0  0  0  0  0  0  0  0  0  0  0
  180.6380  177.9920  139.2140 C   0  0  2  0  0  3  0  0  0  0  0  0
  181.9610  177.3580  139.5640 C   0  0  1  0  0  3  0  0  0  0  0  0
  184.6280  178.4450  143.2100 C   0  0  0  0  0  0  0  0  0  0  0  0
  184.3240  178.1190  141.7790 C   0  0  0  0  0  2  0  0  0  0  0  0
  183.7790  179.1390  145.3170 O   0  0  0  0  0  0  0  0  0  0  0  0
  183.1080  178.8970  141.2760 C   0  0  2  0  0  3  0  0  0  0  0  0
  180.3480  177.5740  137.7910 C   0  0  2  0  0  3  0  0  0  0  0  0
  178.9800  177.3400  137.6450 O   0  0  0  0  0  1  0  0  0  0  0  0
  181.1910  176.0360  136.1480 C   0  0  2  0  0  3  0  0  0  0  0  0
  181.0860  176.3400  137.5770 N   0  0  1  0  0  0  0  0  0  0  0  0
  185.7990  178.2980  143.6490 O   0  0  0  0  0  0  0  0  0  0  0  0
  186.0920  176.5550  135.8270 C   0  0  0  0  0  2  0  0  0  0  0  0
  186.7470  177.2140  137.0480 C   0  0  2  0  0  3  0  0  0  0  0  0
  181.9010  178.6580  142.2180 C   0  0  2  0  0  3  0  0  0  0  0  0
  185.7960  177.5910  138.1890 C   0  0  0  0  0  2  0  0  0  0  0  0
  180.5200  179.2200  141.8280 C   0  0  0  0  0  2  0  0  0  0  0  0
  182.2300  179.0670  143.5800 N   0  0  0  0  0  2  0  0  0  0  0  0
  180.9130  179.4870  139.2840 C   0  0  2  0  0  3  0  0  0  0  0  0
  182.2950  179.6800  139.1640 O   0  0  0  0  0  0  0  0  0  0  0  0
  183.6170  176.4790  136.2420 C   0  0  2  0  0  3  0  0  0  0  0  0
  184.6700  176.5840  138.3570 C   0  0  0  0  0  2  0  0  0  0  0  0
  183.4930  177.0240  137.6020 N   0  0  2  0  0  0  0  0  0  0  0  0
  187.5720  178.3910  136.6460 C   0  0  0  0  0  0  0  0  0  0  0  0
  187.1350  179.5550  136.8440 O   0  0  0  0  0  0  0  0  0  0  0  0
  188.8530  178.2100  136.0470 N   0  0  0  0  0  1  0  0  0  0  0  0
  180.3400  174.1940  134.5940 C   0  0  0  0  0  1  0  0  0  0  0  0
  181.0790  174.5270  135.8800 C   0  0  0  0  0  3  0  0  0  0  0  0
  180.4420  173.8060  137.0520 C   0  0  0  0  0  1  0  0  0  0  0  0
  1  8  1  0  0  0  0
  2 18  1  0  0  0  0
  2 26  1  0  0  0  0
  3 12  1  0  0  0  0
  4 15  1  0  0  0  0
  4 26  1  0  0  0  0
  5 22  1  0  0  0  0
  6 11  2  0  0  0  0
  7 24  1  0  0  0  0
  7  8  1  0  0  0  0
  8  3  1  0  0  0  0
  9 17  2  0  0  0  0
  9  6  1  0  0  0  0
 10  9  1  0  0  0  0
 12 10  1  0  0  0  0
 12 20  1  0  0  0  0
 13  7  1  0  0  0  0
 14 13  1  0  0  0  0
 15 16  1  0  0  0  0
 16 13  1  0  0  0  0
 16  1  1  0  0  0  0
 18 19  1  0  0  0  0
 19 21  1  0  0  0  0
 20 23  1  0  0  0  0
 21 27  1  0  0  0  0
 22 20  1  0  0  0  0
 23  6  1  0  0  0  0
 24  5  1  0  0  0  0
 25 24  1  0  0  0  0
 25  3  1  0  0  0  0
 26 28  1  0  0  0  0
 28  1  1  0  0  0  0
 28 27  1  0  0  0  0
 29 30  2  0  0  0  0
 29 19  1  0  0  0  0
 31 29  1  0  0  0  0
 32 33  1  0  0  0  0
 33 15  1  0  0  0  0
 33 34  1  0  0  0  0
M  END
>  <MODEL>
2

>  <REMARK>
 VINA RESULT:      -6.0      2.005      6.496
  Name = 
  2 active torsions:
  status: ('A' for Active; 'I' for Inactive)
    1  A    between atoms: C_3  and  C_25
    2  A    between atoms: C_12  and  C_19
                            x       y       z     vdW  Elec       q    Type
                         _______ _______ _______ _____ _____    ______ ____

>  <TORSDO>
F 2

$$$$
=
 OpenBabel11052415583D

 34 39  0  0  1  0  0  0  0  0999 V2000
  189.4670  174.4900  137.3780 C   0  0  1  0  0  3  0  0  0  0  0  0
  192.4570  174.2130  135.0160 C   0  0  0  0  0  2  0  0  0  0  0  0
  189.9580  176.8620  138.3270 C   0  0  2  0  0  3  0  0  0  0  0  0
  190.0770  173.9580  134.5970 C   0  0  0  0  0  2  0  0  0  0  0  0
  187.6160  178.7340  138.1470 C   0  0  0  0  0  2  0  0  0  0  0  0
  189.8120  178.2970  142.4560 C   0  0  0  0  0  0  0  0  0  0  0  0
  187.8290  176.2940  137.4320 C   0  0  2  0  0  3  0  0  0  0  0  0
  188.9720  175.6950  138.2140 C   0  0  1  0  0  3  0  0  0  0  0  0
  190.9850  177.5590  141.9630 C   0  0  0  0  0  0  0  0  0  0  0  0
  190.9310  176.8760  140.6300 C   0  0  0  0  0  2  0  0  0  0  0  0
  189.8310  178.8530  143.5860 O   0  0  0  0  0  0  0  0  0  0  0  0
  189.9390  177.5640  139.6910 C   0  0  2  0  0  3  0  0  0  0  0  0
  187.7740  175.5240  136.1320 C   0  0  2  0  0  3  0  0  0  0  0  0
  186.4440  175.3490  135.7520 O   0  0  0  0  0  1  0  0  0  0  0  0
  188.7300  173.5460  135.1580 C   0  0  2  0  0  3  0  0  0  0  0  0
  188.3860  174.2330  136.4050 N   0  0  1  0  0  0  0  0  0  0  0  0
  192.0220  177.4610  142.6720 O   0  0  0  0  0  0  0  0  0  0  0  0
  193.6260  173.6400  135.8070 C   0  0  0  0  0  2  0  0  0  0  0  0
  194.1040  174.5630  136.9360 C   0  0  2  0  0  3  0  0  0  0  0  0
  188.5520  177.6690  140.3720 C   0  0  2  0  0  3  0  0  0  0  0  0
  193.0010  175.2970  137.7060 C   0  0  0  0  0  2  0  0  0  0  0  0
  187.3520  178.1920  139.5590 C   0  0  0  0  0  2  0  0  0  0  0  0
  188.6540  178.4110  141.6250 N   0  0  0  0  0  2  0  0  0  0  0  0
  188.2640  177.7310  137.1810 C   0  0  2  0  0  3  0  0  0  0  0  0
  189.6560  177.7940  137.3250 O   0  0  0  0  0  0  0  0  0  0  0  0
  191.1270  173.8400  135.6710 C   0  0  2  0  0  3  0  0  0  0  0  0
  191.7500  174.4490  137.8690 C   0  0  0  0  0  2  0  0  0  0  0  0
  190.8060  174.7410  136.7880 N   0  0  2  0  0  0  0  0  0  0  0  0
  195.1280  175.5300  136.4420 C   0  0  0  0  0  0  0  0  0  0  0  0
  194.7600  176.6210  135.9340 O   0  0  0  0  0  0  0  0  0  0  0  0
  196.5180  175.2330  136.5470 N   0  0  0  0  0  1  0  0  0  0  0  0
  189.5760  171.2020  134.5940 C   0  0  0  0  0  1  0  0  0  0  0  0
  188.4920  172.0320  135.2610 C   0  0  0  0  0  3  0  0  0  0  0  0
  187.1290  171.6510  134.7140 C   0  0  0  0  0  1  0  0  0  0  0  0
  1  8  1  0  0  0  0
  2 26  1  0  0  0  0
  2 18  1  0  0  0  0
  3 12  1  0  0  0  0
  4 15  1  0  0  0  0
  4 26  1  0  0  0  0
  5 22  1  0  0  0  0
  6 11  2  0  0  0  0
  7  8  1  0  0  0  0
  8  3  1  0  0  0  0
  9  6  1  0  0  0  0
  9 17  2  0  0  0  0
 10  9  1  0  0  0  0
 12 20  1  0  0  0  0
 12 10  1  0  0  0  0
 13 16  1  0  0  0  0
 13  7  1  0  0  0  0
 14 13  1  0  0  0  0
 15 33  1  0  0  0  0
 15 16  1  0  0  0  0
 16  1  1  0  0  0  0
 18 19  1  0  0  0  0
 19 21  1  0  0  0  0
 20 23  1  0  0  0  0
 21 27  1  0  0  0  0
 22 20  1  0  0  0  0
 23  6  1  0  0  0  0
 24 25  1  0  0  0  0
 24  7  1  0  0  0  0
 24  5  1  0  0  0  0
 25  3  1  0  0  0  0
 26 28  1  0  0  0  0
 28  1  1  0  0  0  0
 28 27  1  0  0  0  0
 29 31  1  0  0  0  0
 29 19  1  0  0  0  0
 30 29  2  0  0  0  0
 32 33  1  0  0  0  0
 34 33  1  0  0  0  0
M  END
>  <MODEL>
3

>  <REMARK>
 VINA RESULT:      -5.6      5.025      9.449
  Name = 
  2 active torsions:
  status: ('A' for Active; 'I' for Inactive)
    1  A    between atoms: C_3  and  C_25
    2  A    between atoms: C_12  and  C_19
                            x       y       z     vdW  Elec       q    Type
                         _______ _______ _______ _____ _____    ______ ____

>  <TORSDO>
F 2

$$$$
=
 OpenBabel11052415583D

 34 39  0  0  1  0  0  0  0  0999 V2000
  183.7680  175.3930  137.4800 C   0  0  1  0  0  3  0  0  0  0  0  0
  182.1340  172.2810  135.9850 C   0  0  0  0  0  2  0  0  0  0  0  0
  185.8910  175.4620  135.9770 C   0  0  2  0  0  3  0  0  0  0  0  0
  181.2670  174.5280  136.3050 C   0  0  0  0  0  2  0  0  0  0  0  0
  186.3510  178.1270  134.6720 C   0  0  0  0  0  2  0  0  0  0  0  0
  190.0680  176.1390  137.0820 C   0  0  0  0  0  0  0  0  0  0  0  0
  184.5010  177.3710  136.2590 C   0  0  2  0  0  3  0  0  0  0  0  0
  185.0210  176.1750  137.0170 C   0  0  1  0  0  3  0  0  0  0  0  0
  189.4560  174.8120  137.2510 C   0  0  0  0  0  0  0  0  0  0  0  0
  187.9760  174.6470  137.0900 C   0  0  0  0  0  2  0  0  0  0  0  0
  191.3070  176.3010  137.2400 O   0  0  0  0  0  0  0  0  0  0  0  0
  187.3960  175.7040  136.1500 C   0  0  2  0  0  3  0  0  0  0  0  0
  183.0020  177.1900  136.1880 C   0  0  2  0  0  3  0  0  0  0  0  0
  182.3780  178.4310  136.3140 O   0  0  0  0  0  1  0  0  0  0  0  0
  181.3000  175.7900  137.1460 C   0  0  2  0  0  3  0  0  0  0  0  0
  182.6470  176.3400  137.3130 N   0  0  1  0  0  0  0  0  0  0  0  0
  190.1630  173.8200  137.5730 O   0  0  0  0  0  0  0  0  0  0  0  0
  182.6800  171.0660  136.7230 C   0  0  0  0  0  2  0  0  0  0  0  0
  184.1860  170.8560  136.5140 C   0  0  2  0  0  3  0  0  0  0  0  0
  187.7950  177.1200  136.6360 C   0  0  2  0  0  3  0  0  0  0  0  0
  185.0370  172.1290  136.4900 C   0  0  0  0  0  2  0  0  0  0  0  0
  187.2000  178.3530  135.9310 C   0  0  0  0  0  2  0  0  0  0  0  0
  189.2480  177.2450  136.6970 N   0  0  0  0  0  2  0  0  0  0  0  0
  185.1200  177.2310  134.8750 C   0  0  2  0  0  3  0  0  0  0  0  0
  185.4970  175.8930  134.7030 O   0  0  0  0  0  0  0  0  0  0  0  0
  182.2690  173.5400  136.8420 C   0  0  2  0  0  3  0  0  0  0  0  0
  184.5240  173.1840  137.4570 C   0  0  0  0  0  2  0  0  0  0  0  0
  183.6240  174.1040  136.7580 N   0  0  2  0  0  0  0  0  0  0  0  0
  184.4490  170.0280  135.3000 C   0  0  0  0  0  0  0  0  0  0  0  0
  183.4850  169.6330  134.5940 O   0  0  0  0  0  0  0  0  0  0  0  0
  185.7820  169.6870  134.9290 N   0  0  0  0  0  1  0  0  0  0  0  0
  179.2200  174.9810  138.3910 C   0  0  0  0  0  1  0  0  0  0  0  0
  180.5490  175.7140  138.4840 C   0  0  0  0  0  3  0  0  0  0  0  0
  180.3450  177.0940  139.0790 C   0  0  0  0  0  1  0  0  0  0  0  0
  2 18  1  0  0  0  0
  2 26  1  0  0  0  0
  3 12  1  0  0  0  0
  3  8  1  0  0  0  0
  4 26  1  0  0  0  0
  4 15  1  0  0  0  0
  5 24  1  0  0  0  0
  5 22  1  0  0  0  0
  6 11  2  0  0  0  0
  6  9  1  0  0  0  0
  7  8  1  0  0  0  0
  8  1  1  0  0  0  0
  9 17  2  0  0  0  0
 10  9  1  0  0  0  0
 12 20  1  0  0  0  0
 12 10  1  0  0  0  0
 13  7  1  0  0  0  0
 13 14  1  0  0  0  0
 13 16  1  0  0  0  0
 15 16  1  0  0  0  0
 15 33  1  0  0  0  0
 16  1  1  0  0  0  0
 19 18  1  0  0  0  0
 20 23  1  0  0  0  0
 21 19  1  0  0  0  0
 21 27  1  0  0  0  0
 22 20  1  0  0  0  0
 23  6  1  0  0  0  0
 24  7  1  0  0  0  0
 25 24  1  0  0  0  0
 25  3  1  0  0  0  0
 28 26  1  0  0  0  0
 28 27  1  0  0  0  0
 28  1  1  0  0  0  0
 29 19  1  0  0  0  0
 30 29  2  0  0  0  0
 31 29  1  0  0  0  0
 32 33  1  0  0  0  0
 33 34  1  0  0  0  0
M  END
>  <MODEL>
4

>  <REMARK>
 VINA RESULT:      -5.2      4.020      6.386
  Name = 
  2 active torsions:
  status: ('A' for Active; 'I' for Inactive)
    1  A    between atoms: C_3  and  C_25
    2  A    between atoms: C_12  and  C_19
                            x       y       z     vdW  Elec       q    Type
                         _______ _______ _______ _____ _____    ______ ____

>  <TORSDO>
F 2

$$$$
=
 OpenBabel11052415583D

 34 39  0  0  1  0  0  0  0  0999 V2000
  183.2780  178.6540  138.3450 C   0  0  1  0  0  3  0  0  0  0  0  0
  183.1510  178.5480  142.1620 C   0  0  0  0  0  2  0  0  0  0  0  0
  184.9430  176.6900  137.9700 C   0  0  2  0  0  3  0  0  0  0  0  0
  181.3680  178.4560  140.5130 C   0  0  0  0  0  2  0  0  0  0  0  0
  183.9510  174.6330  136.0210 C   0  0  0  0  0  2  0  0  0  0  0  0
  188.4010  176.4380  135.3050 C   0  0  0  0  0  0  0  0  0  0  0  0
  182.8580  176.7910  136.8310 C   0  0  2  0  0  3  0  0  0  0  0  0
  183.9580  177.6850  137.3480 C   0  0  1  0  0  3  0  0  0  0  0  0
  188.5090  177.1180  136.6050 C   0  0  0  0  0  0  0  0  0  0  0  0
  187.2720  177.4000  137.4040 C   0  0  0  0  0  2  0  0  0  0  0  0
  189.4270  176.2180  134.6090 O   0  0  0  0  0  0  0  0  0  0  0  0
  186.1660  176.3910  137.0930 C   0  0  2  0  0  3  0  0  0  0  0  0
  181.6230  177.1660  137.6180 C   0  0  2  0  0  3  0  0  0  0  0  0
  180.5050  177.1060  136.7850 O   0  0  0  0  0  1  0  0  0  0  0  0
  180.8940  178.8800  139.1360 C   0  0  2  0  0  3  0  0  0  0  0  0
  181.8330  178.5320  138.0670 N   0  0  1  0  0  0  0  0  0  0  0  0
  189.6290  177.5030  137.0340 O   0  0  0  0  0  0  0  0  0  0  0  0
  184.2800  179.4220  142.6910 C   0  0  0  0  0  2  0  0  0  0  0  0
  185.6750  178.8930  142.3320 C   0  0  2  0  0  3  0  0  0  0  0  0
  185.9020  176.3500  135.5670 C   0  0  2  0  0  3  0  0  0  0  0  0
  185.8190  178.3000  140.9270 C   0  0  0  0  0  2  0  0  0  0  0  0
  184.7240  175.5150  135.0300 C   0  0  0  0  0  2  0  0  0  0  0  0
  187.1220  175.9940  134.8490 N   0  0  0  0  0  2  0  0  0  0  0  0
  183.3170  175.3870  137.1990 C   0  0  2  0  0  3  0  0  0  0  0  0
  184.2590  175.4950  138.2310 O   0  0  0  0  0  0  0  0  0  0  0  0
  182.7690  178.9610  140.7400 C   0  0  2  0  0  3  0  0  0  0  0  0
  184.9780  179.0410  139.9000 C   0  0  0  0  0  2  0  0  0  0  0  0
  183.6810  178.3760  139.7470 N   0  0  2  0  0  0  0  0  0  0  0  0
  186.1650  177.9260  143.3600 C   0  0  0  0  0  0  0  0  0  0  0  0
  187.0900  177.1240  143.0680 O   0  0  0  0  0  0  0  0  0  0  0  0
  185.5990  177.9080  144.6680 N   0  0  0  0  0  1  0  0  0  0  0  0
  178.9350  180.4620  138.6990 C   0  0  0  0  0  1  0  0  0  0  0  0
  180.4160  180.3350  139.0210 C   0  0  0  0  0  3  0  0  0  0  0  0
  181.2400  181.1060  138.0060 C   0  0  0  0  0  1  0  0  0  0  0  0
  1 28  1  0  0  0  0
  2 18  1  0  0  0  0
  3 25  1  0  0  0  0
  4 26  1  0  0  0  0
  5 24  1  0  0  0  0
  6  9  1  0  0  0  0
  7 24  1  0  0  0  0
  7  8  1  0  0  0  0
  7 13  1  0  0  0  0
  8  3  1  0  0  0  0
  8  1  1  0  0  0  0
  9 17  2  0  0  0  0
  9 10  1  0  0  0  0
 11  6  2  0  0  0  0
 12 10  1  0  0  0  0
 12  3  1  0  0  0  0
 13 16  1  0  0  0  0
 14 13  1  0  0  0  0
 15  4  1  0  0  0  0
 16  1  1  0  0  0  0
 16 15  1  0  0  0  0
 19 18  1  0  0  0  0
 19 29  1  0  0  0  0
 20 12  1  0  0  0  0
 21 19  1  0  0  0  0
 22 20  1  0  0  0  0
 22  5  1  0  0  0  0
 23  6  1  0  0  0  0
 23 20  1  0  0  0  0
 24 25  1  0  0  0  0
 26  2  1  0  0  0  0
 27 21  1  0  0  0  0
 28 27  1  0  0  0  0
 28 26  1  0  0  0  0
 29 31  1  0  0  0  0
 30 29  2  0  0  0  0
 32 33  1  0  0  0  0
 33 15  1  0  0  0  0
 34 33  1  0  0  0  0
M  END
>  <MODEL>
5

>  <REMARK>
 VINA RESULT:      -5.1      1.192      1.310
  Name = 
  2 active torsions:
  status: ('A' for Active; 'I' for Inactive)
    1  A    between atoms: C_3  and  C_25
    2  A    between atoms: C_12  and  C_19
                            x       y       z     vdW  Elec       q    Type
                         _______ _______ _______ _____ _____    ______ ____

>  <TORSDO>
F 2

$$$$
=
 OpenBabel11052415583D

 34 39  0  0  1  0  0  0  0  0999 V2000
  191.7100  176.0900  136.5690 C   0  0  1  0  0  3  0  0  0  0  0  0
  192.2370  172.3730  135.8590 C   0  0  0  0  0  2  0  0  0  0  0  0
  189.5320  175.8980  137.9790 C   0  0  2  0  0  3  0  0  0  0  0  0
  193.7230  174.0260  136.8420 C   0  0  0  0  0  2  0  0  0  0  0  0
  189.6820  177.3240  140.6180 C   0  0  0  0  0  2  0  0  0  0  0  0
  185.8610  178.2650  137.7730 C   0  0  0  0  0  0  0  0  0  0  0  0
  191.4180  177.1170  138.7600 C   0  0  2  0  0  3  0  0  0  0  0  0
  190.6780  176.7880  137.4880 C   0  0  1  0  0  3  0  0  0  0  0  0
  186.0960  177.1680  136.8210 C   0  0  0  0  0  0  0  0  0  0  0  0
  187.4450  176.5190  136.7510 C   0  0  0  0  0  2  0  0  0  0  0  0
  184.7420  178.8400  137.8260 O   0  0  0  0  0  0  0  0  0  0  0  0
  188.1830  176.6200  138.0860 C   0  0  2  0  0  3  0  0  0  0  0  0
  192.7910  176.5010  138.6060 C   0  0  2  0  0  3  0  0  0  0  0  0
  193.7440  177.3420  139.1800 O   0  0  0  0  0  1  0  0  0  0  0  0
  194.1370  175.4830  136.8960 C   0  0  2  0  0  3  0  0  0  0  0  0
  193.0230  176.3930  137.1750 N   0  0  1  0  0  0  0  0  0  0  0  0
  185.1840  176.7980  136.0350 O   0  0  0  0  0  0  0  0  0  0  0  0
  191.4650  172.0260  134.5940 C   0  0  0  0  0  2  0  0  0  0  0  0
  189.9460  172.1820  134.7480 C   0  0  2  0  0  3  0  0  0  0  0  0
  188.2490  178.0990  138.5420 C   0  0  2  0  0  3  0  0  0  0  0  0
  189.4830  173.3910  135.5670 C   0  0  0  0  0  2  0  0  0  0  0  0
  189.0780  178.4660  139.7880 C   0  0  0  0  0  2  0  0  0  0  0  0
  186.9050  178.6530  138.6680 N   0  0  0  0  0  2  0  0  0  0  0  0
  190.6310  176.3960  139.8450 C   0  0  2  0  0  3  0  0  0  0  0  0
  189.8810  175.3820  139.2350 O   0  0  0  0  0  0  0  0  0  0  0  0
  192.5550  173.8680  135.9050 C   0  0  2  0  0  3  0  0  0  0  0  0
  190.3750  174.6050  135.3590 C   0  0  0  0  0  2  0  0  0  0  0  0
  191.4080  174.6470  136.3960 N   0  0  2  0  0  0  0  0  0  0  0  0
  189.3260  170.9290  135.2710 C   0  0  0  0  0  0  0  0  0  0  0  0
  188.3080  170.9980  136.0080 O   0  0  0  0  0  0  0  0  0  0  0  0
  189.8730  169.6550  134.9390 N   0  0  0  0  0  1  0  0  0  0  0  0
  196.3850  175.3790  135.6840 C   0  0  0  0  0  1  0  0  0  0  0  0
  194.9860  175.9740  135.7130 C   0  0  0  0  0  3  0  0  0  0  0  0
  195.0600  177.4890  135.6800 C   0  0  0  0  0  1  0  0  0  0  0  0
  1 16  1  0  0  0  0
  1  8  1  0  0  0  0
  2 26  1  0  0  0  0
  3 12  1  0  0  0  0
  3 25  1  0  0  0  0
  4 15  1  0  0  0  0
  6 11  2  0  0  0  0
  6 23  1  0  0  0  0
  7 24  1  0  0  0  0
  8  3  1  0  0  0  0
  8  7  1  0  0  0  0
  9  6  1  0  0  0  0
 10  9  1  0  0  0  0
 10 12  1  0  0  0  0
 12 20  1  0  0  0  0
 13  7  1  0  0  0  0
 13 14  1  0  0  0  0
 15 16  1  0  0  0  0
 16 13  1  0  0  0  0
 17  9  2  0  0  0  0
 18 19  1  0  0  0  0
 18  2  1  0  0  0  0
 19 29  1  0  0  0  0
 19 21  1  0  0  0  0
 20 23  1  0  0  0  0
 20 22  1  0  0  0  0
 22  5  1  0  0  0  0
 24  5  1  0  0  0  0
 25 24  1  0  0  0  0
 26 28  1  0  0  0  0
 26  4  1  0  0  0  0
 27 21  1  0  0  0  0
 27 28  1  0  0  0  0
 28  1  1  0  0  0  0
 29 30  2  0  0  0  0
 31 29  1  0  0  0  0
 32 33  1  0  0  0  0
 33 15  1  0  0  0  0
 34 33  1  0  0  0  0
M  END
>  <MODEL>
6

>  <REMARK>
 VINA RESULT:      -5.1      5.336     10.439
  Name = 
  2 active torsions:
  status: ('A' for Active; 'I' for Inactive)
    1  A    between atoms: C_3  and  C_25
    2  A    between atoms: C_12  and  C_19
                            x       y       z     vdW  Elec       q    Type
                         _______ _______ _______ _____ _____    ______ ____

>  <TORSDO>
F 2

$$$$
=
 OpenBabel11052415583D

 34 39  0  0  1  0  0  0  0  0999 V2000
  190.2100  176.5740  136.7930 C   0  0  1  0  0  3  0  0  0  0  0  0
  188.6900  177.1330  140.2530 C   0  0  0  0  0  2  0  0  0  0  0  0
  191.7810  174.5880  137.3900 C   0  0  2  0  0  3  0  0  0  0  0  0
  187.6310  176.7410  138.1000 C   0  0  0  0  0  2  0  0  0  0  0  0
  191.4550  172.2140  135.5790 C   0  0  0  0  0  2  0  0  0  0  0  0
  195.9550  173.9020  136.2760 C   0  0  0  0  0  0  0  0  0  0  0  0
  190.2670  174.4720  135.5600 C   0  0  2  0  0  3  0  0  0  0  0  0
  191.1510  175.4500  136.2930 C   0  0  1  0  0  3  0  0  0  0  0  0
  195.6170  174.7990  137.3930 C   0  0  0  0  0  0  0  0  0  0  0  0
  194.1930  175.2060  137.6180 C   0  0  0  0  0  2  0  0  0  0  0  0
  197.1500  173.5720  136.0560 O   0  0  0  0  0  0  0  0  0  0  0  0
  193.2210  174.1500  137.0900 C   0  0  2  0  0  3  0  0  0  0  0  0
  188.8530  174.9690  135.7600 C   0  0  2  0  0  3  0  0  0  0  0  0
  188.1170  174.7550  134.5940 O   0  0  0  0  0  1  0  0  0  0  0  0
  187.7190  176.9150  136.5960 C   0  0  2  0  0  3  0  0  0  0  0  0
  188.9630  176.3940  136.0230 N   0  0  1  0  0  0  0  0  0  0  0  0
  196.5230  175.2610  138.1360 O   0  0  0  0  0  0  0  0  0  0  0  0
  189.5950  178.0950  141.0110 C   0  0  0  0  0  2  0  0  0  0  0  0
  190.9910  177.5220  141.2860 C   0  0  2  0  0  3  0  0  0  0  0  0
  193.5320  173.8410  135.6040 C   0  0  2  0  0  3  0  0  0  0  0  0
  191.6050  176.6950  140.1530 C   0  0  0  0  0  2  0  0  0  0  0  0
  192.5860  172.9160  134.8150 C   0  0  0  0  0  2  0  0  0  0  0  0
  194.9070  173.3750  135.4590 N   0  0  0  0  0  2  0  0  0  0  0  0
  190.4780  173.1570  136.2980 C   0  0  2  0  0  3  0  0  0  0  0  0
  190.9820  173.4510  137.5720 O   0  0  0  0  0  0  0  0  0  0  0  0
  188.8790  177.2900  138.7430 C   0  0  2  0  0  3  0  0  0  0  0  0
  191.2420  177.2380  138.7800 C   0  0  0  0  0  2  0  0  0  0  0  0
  190.0560  176.5470  138.2690 N   0  0  2  0  0  0  0  0  0  0  0  0
  191.0150  176.7530  142.5660 C   0  0  0  0  0  0  0  0  0  0  0  0
  190.4670  175.6220  142.6220 O   0  0  0  0  0  0  0  0  0  0  0  0
  191.6570  177.2860  143.7210 N   0  0  0  0  0  1  0  0  0  0  0  0
  186.3130  179.0320  136.8640 C   0  0  0  0  0  1  0  0  0  0  0  0
  187.4010  178.3240  136.0730 C   0  0  0  0  0  3  0  0  0  0  0  0
  187.0430  178.2960  134.5990 C   0  0  0  0  0  1  0  0  0  0  0  0
  1 28  1  0  0  0  0
  2 18  1  0  0  0  0
  3 25  1  0  0  0  0
  4 26  1  0  0  0  0
  5 24  1  0  0  0  0
  6  9  1  0  0  0  0
  7 13  1  0  0  0  0
  7  8  1  0  0  0  0
  7 24  1  0  0  0  0
  8  1  1  0  0  0  0
  8  3  1  0  0  0  0
  9 10  1  0  0  0  0
  9 17  2  0  0  0  0
 11  6  2  0  0  0  0
 12  3  1  0  0  0  0
 12 10  1  0  0  0  0
 13 16  1  0  0  0  0
 14 13  1  0  0  0  0
 15  4  1  0  0  0  0
 16 15  1  0  0  0  0
 16  1  1  0  0  0  0
 18 19  1  0  0  0  0
 19 29  1  0  0  0  0
 20 12  1  0  0  0  0
 21 19  1  0  0  0  0
 22  5  1  0  0  0  0
 22 20  1  0  0  0  0
 23 20  1  0  0  0  0
 23  6  1  0  0  0  0
 24 25  1  0  0  0  0
 26  2  1  0  0  0  0
 27 21  1  0  0  0  0
 28 26  1  0  0  0  0
 28 27  1  0  0  0  0
 29 30  2  0  0  0  0
 29 31  1  0  0  0  0
 33 15  1  0  0  0  0
 33 32  1  0  0  0  0
 34 33  1  0  0  0  0
M  END
>  <MODEL>
7

>  <REMARK>
 VINA RESULT:      -5.0      5.441      8.058
  Name = 
  2 active torsions:
  status: ('A' for Active; 'I' for Inactive)
    1  A    between atoms: C_3  and  C_25
    2  A    between atoms: C_12  and  C_19
                            x       y       z     vdW  Elec       q    Type
                         _______ _______ _______ _____ _____    ______ ____

>  <TORSDO>
F 2

$$$$
=
 OpenBabel11052415583D

 34 39  0  0  1  0  0  0  0  0999 V2000
  184.8870  177.2510  136.5330 C   0  0  1  0  0  3  0  0  0  0  0  0
  183.7730  178.0500  140.0990 C   0  0  0  0  0  2  0  0  0  0  0  0
  186.7750  175.5530  137.1010 C   0  0  2  0  0  3  0  0  0  0  0  0
  182.5030  177.2730  138.1770 C   0  0  0  0  0  2  0  0  0  0  0  0
  186.5350  172.9520  135.6180 C   0  0  0  0  0  2  0  0  0  0  0  0
  190.8200  175.2330  135.4690 C   0  0  0  0  0  0  0  0  0  0  0  0
  185.0630  175.0350  135.5340 C   0  0  2  0  0  3  0  0  0  0  0  0
  185.8960  176.1940  136.0220 C   0  0  1  0  0  3  0  0  0  0  0  0
  190.5150  176.2140  136.5220 C   0  0  0  0  0  0  0  0  0  0  0  0
  189.0910  176.4750  136.9080 C   0  0  0  0  0  2  0  0  0  0  0  0
  192.0090  175.0210  135.1130 O   0  0  0  0  0  0  0  0  0  0  0  0
  188.2080  175.2550  136.6420 C   0  0  2  0  0  3  0  0  0  0  0  0
  183.6340  175.3820  135.8840 C   0  0  2  0  0  3  0  0  0  0  0  0
  182.7860  174.9410  134.8680 O   0  0  0  0  0  1  0  0  0  0  0  0
  182.3690  177.2690  136.6670 C   0  0  2  0  0  3  0  0  0  0  0  0
  183.5850  176.8320  135.9770 N   0  0  1  0  0  0  0  0  0  0  0  0
  191.4400  176.8680  137.0720 O   0  0  0  0  0  0  0  0  0  0  0  0
  184.6320  179.1970  140.6110 C   0  0  0  0  0  2  0  0  0  0  0  0
  186.1170  178.8320  140.7380 C   0  0  2  0  0  3  0  0  0  0  0  0
  188.3600  174.8040  135.1680 C   0  0  2  0  0  3  0  0  0  0  0  0
  186.6820  177.9490  139.6210 C   0  0  0  0  0  2  0  0  0  0  0  0
  187.4510  173.6830  134.6270 C   0  0  0  0  0  2  0  0  0  0  0  0
  189.7540  174.4880  134.8730 N   0  0  0  0  0  2  0  0  0  0  0  0
  185.5430  173.8550  136.3680 C   0  0  2  0  0  3  0  0  0  0  0  0
  186.1660  174.3610  137.5160 O   0  0  0  0  0  0  0  0  0  0  0  0
  183.7390  178.0400  138.5700 C   0  0  2  0  0  3  0  0  0  0  0  0
  186.0720  178.2730  138.2670 C   0  0  0  0  0  2  0  0  0  0  0  0
  184.9330  177.3890  138.0100 N   0  0  2  0  0  0  0  0  0  0  0  0
  186.4110  178.2350  142.0750 C   0  0  0  0  0  0  0  0  0  0  0  0
  187.5160  177.6650  142.2730 O   0  0  0  0  0  0  0  0  0  0  0  0
  185.4560  178.3100  143.1300 N   0  0  0  0  0  1  0  0  0  0  0  0
  180.6160  179.1230  136.8190 C   0  0  0  0  0  1  0  0  0  0  0  0
  181.7990  178.5560  136.0500 C   0  0  0  0  0  3  0  0  0  0  0  0
  181.4260  178.3490  134.5940 C   0  0  0  0  0  1  0  0  0  0  0  0
  1 28  1  0  0  0  0
  2 18  1  0  0  0  0
  3 25  1  0  0  0  0
  4 26  1  0  0  0  0
  5 24  1  0  0  0  0
  6  9  1  0  0  0  0
  7 13  1  0  0  0  0
  7  8  1  0  0  0  0
  7 24  1  0  0  0  0
  8  1  1  0  0  0  0
  8  3  1  0  0  0  0
  9 10  1  0  0  0  0
  9 17  2  0  0  0  0
 11  6  2  0  0  0  0
 12 10  1  0  0  0  0
 12  3  1  0  0  0  0
 13 16  1  0  0  0  0
 14 13  1  0  0  0  0
 15  4  1  0  0  0  0
 16  1  1  0  0  0  0
 16 15  1  0  0  0  0
 18 19  1  0  0  0  0
 19 29  1  0  0  0  0
 20 12  1  0  0  0  0
 21 19  1  0  0  0  0
 22 20  1  0  0  0  0
 22  5  1  0  0  0  0
 23 20  1  0  0  0  0
 23  6  1  0  0  0  0
 24 25  1  0  0  0  0
 26  2  1  0  0  0  0
 27 21  1  0  0  0  0
 28 27  1  0  0  0  0
 28 26  1  0  0  0  0
 29 30  2  0  0  0  0
 29 31  1  0  0  0  0
 33 15  1  0  0  0  0
 33 32  1  0  0  0  0
 34 33  1  0  0  0  0
M  END
>  <MODEL>
8

>  <REMARK>
 VINA RESULT:      -4.9      2.620      3.861
  Name = 
  2 active torsions:
  status: ('A' for Active; 'I' for Inactive)
    1  A    between atoms: C_3  and  C_25
    2  A    between atoms: C_12  and  C_19
                            x       y       z     vdW  Elec       q    Type
                         _______ _______ _______ _____ _____    ______ ____

>  <TORSDO>
F 2

$$$$
=
 OpenBabel11052415583D

 34 39  0  0  1  0  0  0  0  0999 V2000
  185.6330  176.8840  136.4750 C   0  0  1  0  0  3  0  0  0  0  0  0
  185.8470  173.0800  136.7550 C   0  0  0  0  0  2  0  0  0  0  0  0
  183.4760  177.2440  137.8840 C   0  0  2  0  0  3  0  0  0  0  0  0
  187.4800  174.8030  137.2760 C   0  0  0  0  0  2  0  0  0  0  0  0
  183.7930  179.2870  140.0620 C   0  0  0  0  0  2  0  0  0  0  0  0
  180.0020  179.7720  137.0670 C   0  0  0  0  0  0  0  0  0  0  0  0
  185.4690  178.4640  138.3240 C   0  0  2  0  0  3  0  0  0  0  0  0
  184.6790  177.8790  137.1800 C   0  0  1  0  0  3  0  0  0  0  0  0
  180.1290  178.4500  136.4330 C   0  0  0  0  0  0  0  0  0  0  0  0
  181.4200  177.6960  136.5360 C   0  0  0  0  0  2  0  0  0  0  0  0
  178.9340  180.4310  136.9680 O   0  0  0  0  0  0  0  0  0  0  0  0
  182.1910  178.0790  137.7990 C   0  0  2  0  0  3  0  0  0  0  0  0
  186.7850  177.7190  138.3360 C   0  0  2  0  0  3  0  0  0  0  0  0
  187.8140  178.5980  138.6730 O   0  0  0  0  0  1  0  0  0  0  0  0
  188.0100  176.1850  136.9500 C   0  0  2  0  0  3  0  0  0  0  0  0
  186.9780  177.2250  136.9830 N   0  0  1  0  0  0  0  0  0  0  0  0
  179.1750  177.9660  135.7690 O   0  0  0  0  0  0  0  0  0  0  0  0
  185.0230  172.4820  135.6220 C   0  0  0  0  0  2  0  0  0  0  0  0
  183.5260  172.7980  135.7290 C   0  0  2  0  0  3  0  0  0  0  0  0
  182.3850  179.6140  137.8560 C   0  0  2  0  0  3  0  0  0  0  0  0
  183.1770  174.2120  136.2060 C   0  0  0  0  0  2  0  0  0  0  0  0
  183.2660  180.2210  138.9640 C   0  0  0  0  0  2  0  0  0  0  0  0
  181.0920  180.2910  137.8320 N   0  0  0  0  0  2  0  0  0  0  0  0
  184.6490  178.1160  139.5580 C   0  0  2  0  0  3  0  0  0  0  0  0
  183.8080  177.0440  139.2310 O   0  0  0  0  0  0  0  0  0  0  0  0
  186.2840  174.5050  136.4110 C   0  0  2  0  0  3  0  0  0  0  0  0
  184.1590  175.2520  135.6900 C   0  0  0  0  0  2  0  0  0  0  0  0
  185.2140  175.4760  136.6830 N   0  0  2  0  0  0  0  0  0  0  0  0
  182.8190  171.7780  136.5600 C   0  0  0  0  0  0  0  0  0  0  0  0
  183.3690  170.6690  136.7840 O   0  0  0  0  0  0  0  0  0  0  0  0
  181.5310  172.0520  137.1050 N   0  0  0  0  0  1  0  0  0  0  0  0
  190.1860  175.5260  135.7830 C   0  0  0  0  0  1  0  0  0  0  0  0
  188.8710  176.2810  135.6810 C   0  0  0  0  0  3  0  0  0  0  0  0
  189.1260  177.7270  135.2970 C   0  0  0  0  0  1  0  0  0  0  0  0
  1 28  1  0  0  0  0
  1 16  1  0  0  0  0
  1  8  1  0  0  0  0
  3 25  1  0  0  0  0
  6 23  1  0  0  0  0
  7 13  1  0  0  0  0
  7 24  1  0  0  0  0
  8  3  1  0  0  0  0
  8  7  1  0  0  0  0
  9 10  1  0  0  0  0
  9  6  1  0  0  0  0
 10 12  1  0  0  0  0
 11  6  2  0  0  0  0
 12 20  1  0  0  0  0
 12  3  1  0  0  0  0
 13 14  1  0  0  0  0
 15 16  1  0  0  0  0
 15  4  1  0  0  0  0
 16 13  1  0  0  0  0
 17  9  2  0  0  0  0
 18 19  1  0  0  0  0
 18  2  1  0  0  0  0
 19 21  1  0  0  0  0
 19 29  1  0  0  0  0
 20 22  1  0  0  0  0
 22  5  1  0  0  0  0
 23 20  1  0  0  0  0
 24  5  1  0  0  0  0
 25 24  1  0  0  0  0
 26 28  1  0  0  0  0
 26  2  1  0  0  0  0
 26  4  1  0  0  0  0
 27 21  1  0  0  0  0
 27 28  1  0  0  0  0
 29 30  2  0  0  0  0
 29 31  1  0  0  0  0
 33 32  1  0  0  0  0
 33 15  1  0  0  0  0
 34 33  1  0  0  0  0
M  END
>  <MODEL>
9

>  <REMARK>
 VINA RESULT:      -4.9      2.962      7.744
  Name = 
  2 active torsions:
  status: ('A' for Active; 'I' for Inactive)
    1  A    between atoms: C_3  and  C_25
    2  A    between atoms: C_12  and  C_19
                            x       y       z     vdW  Elec       q    Type
                         _______ _______ _______ _____ _____    ______ ____

>  <TORSDO>
F 2

$$$$
