=
 OpenBabel11052412403D

 25 29  0  0  1  0  0  0  0  0999 V2000
  187.8650  177.6010  144.8710 N   0  0  0  0  0  0  0  0  0  0  0  0
  186.4490  177.6020  144.4890 C   0  0  2  0  0  3  0  0  0  0  0  0
  187.3750  178.0120  147.1880 C   0  0  0  0  0  3  0  0  0  0  0  0
  188.9020  176.8080  144.2220 C   0  0  2  0  0  3  0  0  0  0  0  0
  191.4390  178.0480  143.4270 C   0  0  0  0  0  2  0  0  0  0  0  0
  186.0260  178.4570  146.7880 C   0  0  0  0  0  3  0  0  0  0  0  0
  190.1120  176.8070  145.2040 C   0  0  1  0  0  3  0  0  0  0  0  0
  191.1400  177.9070  144.9090 C   0  0  0  0  0  2  0  0  0  0  0  0
  184.2940  178.8490  145.1020 C   0  0  0  0  0  0  0  0  0  0  0  0
  183.3480  179.1730  146.0180 F   0  0  0  0  0  0  0  0  0  0  0  0
  186.2310  178.1660  143.1100 C   0  0  0  0  0  3  0  0  0  0  0  0
  190.1560  178.4140  142.7070 C   0  0  0  0  0  2  0  0  0  0  0  0
  188.2290  177.6270  146.2420 C   0  0  0  0  0  0  0  0  0  0  0  0
  189.5190  177.1080  146.5020 N   0  0  0  0  0  2  0  0  0  0  0  0
  184.0620  179.0630  143.8040 C   0  0  0  0  0  3  0  0  0  0  0  0
  189.1990  177.2360  142.7800 C   0  0  0  0  0  2  0  0  0  0  0  0
  185.0940  178.7870  142.7720 C   0  0  0  0  0  0  0  0  0  0  0  0
  185.6030  178.3250  145.5220 C   0  0  0  0  0  0  0  0  0  0  0  0
  184.9400  179.2340  141.4190 N   0  0  0  0  0  2  0  0  0  0  0  0
  184.1550  178.6040  140.3970 C   0  0  0  0  0  0  0  0  0  0  0  0
  183.5880  177.4970  140.6020 O   0  0  0  0  0  0  0  0  0  0  0  0
  182.7010  179.8650  138.6990 C   0  0  1  0  0  3  0  0  0  0  0  0
  183.0930  178.5120  138.1420 C   0  0  0  0  0  2  0  0  0  0  0  0
  181.6090  179.6700  139.7430 C   0  0  0  0  0  1  0  0  0  0  0  0
  184.0680  179.2500  139.0430 C   0  0  2  0  0  3  0  0  0  0  0  0
  1 13  1  0  0  0  0
  2 11  1  6  0  0  0
  2  1  1  0  0  0  0
  2 18  1  0  0  0  0
  4 16  1  6  0  0  0
  4  1  1  0  0  0  0
  4  7  1  0  0  0  0
  5  8  1  0  0  0  0
  6  3  1  0  0  0  0
  7  8  1  6  0  0  0
  7 14  1  0  0  0  0
  9 18  1  0  0  0  0
  9 10  1  0  0  0  0
 12 16  1  0  0  0  0
 12  5  1  0  0  0  0
 13 14  1  0  0  0  0
 13  3  2  0  0  0  0
 15  9  2  0  0  0  0
 17 11  2  0  0  0  0
 17 15  1  0  0  0  0
 18  6  2  0  0  0  0
 19 17  1  0  0  0  0
 20 21  2  0  0  0  0
 20 19  1  0  0  0  0
 22 25  1  0  0  0  0
 22 24  1  1  0  0  0
 23 22  1  0  0  0  0
 23 25  1  0  0  0  0
 25 20  1  1  0  0  0
M  END
>  <MODEL>
1

>  <REMARK>
 VINA RESULT:      -9.5      0.000      0.000
  Name = 
  2 active torsions:
  status: ('A' for Active; 'I' for Inactive)
    1  A    between atoms: N_6  and  C_23
    2  A    between atoms: C_15  and  C_21
                            x       y       z     vdW  Elec       q    Type
                         _______ _______ _______ _____ _____    ______ ____

>  <TORSDO>
F 2

$$$$
=
 OpenBabel11052412403D

 25 29  0  0  1  0  0  0  0  0999 V2000
  185.7790  178.5840  144.0980 N   0  0  0  0  0  0  0  0  0  0  0  0
  187.2320  178.4460  143.9430 C   0  0  2  0  0  3  0  0  0  0  0  0
  185.8430  178.0280  146.4340 C   0  0  0  0  0  3  0  0  0  0  0  0
  184.9460  179.5110  143.3410 C   0  0  2  0  0  3  0  0  0  0  0  0
  182.4620  178.5870  142.0850 C   0  0  0  0  0  2  0  0  0  0  0  0
  187.1880  177.4560  146.2270 C   0  0  0  0  0  3  0  0  0  0  0  0
  183.6000  179.6020  144.1180 C   0  0  1  0  0  3  0  0  0  0  0  0
  182.5280  178.6330  143.6010 C   0  0  0  0  0  2  0  0  0  0  0  0
  189.1230  176.9490  144.8150 C   0  0  0  0  0  0  0  0  0  0  0  0
  189.8700  176.4860  145.8480 F   0  0  0  0  0  0  0  0  0  0  0  0
  187.6130  177.9190  142.5860 C   0  0  0  0  0  3  0  0  0  0  0  0
  183.8010  178.1140  141.5560 C   0  0  0  0  0  2  0  0  0  0  0  0
  185.1970  178.5410  145.3900 C   0  0  0  0  0  0  0  0  0  0  0  0
  183.9400  179.1860  145.4730 N   0  0  0  0  0  2  0  0  0  0  0  0
  189.5400  176.7640  143.5590 C   0  0  0  0  0  3  0  0  0  0  0  0
  184.8460  179.1770  141.8470 C   0  0  0  0  0  2  0  0  0  0  0  0
  188.7220  177.1920  142.3960 C   0  0  0  0  0  0  0  0  0  0  0  0
  187.8210  177.5930  145.0530 C   0  0  0  0  0  0  0  0  0  0  0  0
  189.0490  176.7880  141.0600 N   0  0  0  0  0  2  0  0  0  0  0  0
  190.2930  177.0090  140.3810 C   0  0  0  0  0  0  0  0  0  0  0  0
  191.2080  177.6970  140.9090 O   0  0  0  0  0  0  0  0  0  0  0  0
  189.9690  177.3720  137.8620 C   0  0  1  0  0  3  0  0  0  0  0  0
  189.1360  176.1960  138.3270 C   0  0  0  0  0  2  0  0  0  0  0  0
  189.2910  178.6620  138.3050 C   0  0  0  0  0  1  0  0  0  0  0  0
  190.4740  176.4620  138.9940 C   0  0  2  0  0  3  0  0  0  0  0  0
  1 13  1  0  0  0  0
  2 11  1  6  0  0  0
  2  1  1  0  0  0  0
  2 18  1  0  0  0  0
  4 16  1  6  0  0  0
  4  1  1  0  0  0  0
  4  7  1  0  0  0  0
  5  8  1  0  0  0  0
  6  3  1  0  0  0  0
  7  8  1  6  0  0  0
  7 14  1  0  0  0  0
  9 18  1  0  0  0  0
  9 10  1  0  0  0  0
 12 16  1  0  0  0  0
 12  5  1  0  0  0  0
 13 14  1  0  0  0  0
 13  3  2  0  0  0  0
 15  9  2  0  0  0  0
 17 11  2  0  0  0  0
 17 15  1  0  0  0  0
 18  6  2  0  0  0  0
 19 17  1  0  0  0  0
 20 21  2  0  0  0  0
 20 19  1  0  0  0  0
 22 24  1  1  0  0  0
 22 23  1  0  0  0  0
 22 25  1  0  0  0  0
 23 25  1  0  0  0  0
 25 20  1  1  0  0  0
M  END
>  <MODEL>
2

>  <REMARK>
 VINA RESULT:      -8.9      3.216      5.761
  Name = 
  2 active torsions:
  status: ('A' for Active; 'I' for Inactive)
    1  A    between atoms: N_6  and  C_23
    2  A    between atoms: C_15  and  C_21
                            x       y       z     vdW  Elec       q    Type
                         _______ _______ _______ _____ _____    ______ ____

>  <TORSDO>
F 2

$$$$
=
 OpenBabel11052412403D

 25 29  0  0  1  0  0  0  0  0999 V2000
  187.5070  177.6450  144.7700 N   0  0  0  0  0  0  0  0  0  0  0  0
  186.5510  177.6270  143.6580 C   0  0  2  0  0  3  0  0  0  0  0  0
  185.8600  178.4090  146.3450 C   0  0  0  0  0  3  0  0  0  0  0  0
  188.6390  176.7370  144.9100 C   0  0  2  0  0  3  0  0  0  0  0  0
  191.3040  177.7760  145.5570 C   0  0  0  0  0  2  0  0  0  0  0  0
  185.0150  178.8260  145.2080 C   0  0  0  0  0  3  0  0  0  0  0  0
  189.0910  176.8500  146.3960 C   0  0  1  0  0  3  0  0  0  0  0  0
  190.2200  177.8660  146.6160 C   0  0  0  0  0  2  0  0  0  0  0  0
  184.5640  179.0090  142.8090 C   0  0  0  0  0  0  0  0  0  0  0  0
  183.3090  179.4910  142.9890 F   0  0  0  0  0  0  0  0  0  0  0  0
  187.1960  177.9860  142.3460 C   0  0  0  0  0  3  0  0  0  0  0  0
  190.6840  178.0650  144.2040 C   0  0  0  0  0  2  0  0  0  0  0  0
  187.0490  177.8650  146.0940 C   0  0  0  0  0  0  0  0  0  0  0  0
  187.9140  177.3560  147.0910 N   0  0  0  0  0  2  0  0  0  0  0  0
  185.1160  179.0340  141.5920 C   0  0  0  0  0  3  0  0  0  0  0  0
  189.7300  176.9380  143.8510 C   0  0  0  0  0  2  0  0  0  0  0  0
  186.5110  178.5800  141.3610 C   0  0  0  0  0  0  0  0  0  0  0  0
  185.3560  178.5190  143.9480 C   0  0  0  0  0  0  0  0  0  0  0  0
  187.1820  178.8240  140.1180 N   0  0  0  0  0  2  0  0  0  0  0  0
  188.3920  178.2030  139.6630 C   0  0  0  0  0  0  0  0  0  0  0  0
  189.0400  177.4200  140.4090 O   0  0  0  0  0  0  0  0  0  0  0  0
  188.4510  177.6230  137.1640 C   0  0  1  0  0  3  0  0  0  0  0  0
  189.8280  177.4500  137.7680 C   0  0  0  0  0  2  0  0  0  0  0  0
  187.5760  176.4500  137.5870 C   0  0  0  0  0  1  0  0  0  0  0  0
  188.9220  178.5460  138.3000 C   0  0  2  0  0  3  0  0  0  0  0  0
  1  4  1  0  0  0  0
  1 13  1  0  0  0  0
  2 11  1  6  0  0  0
  2 18  1  0  0  0  0
  2  1  1  0  0  0  0
  4 16  1  6  0  0  0
  4  7  1  0  0  0  0
  5  8  1  0  0  0  0
  6  3  1  0  0  0  0
  7  8  1  6  0  0  0
  7 14  1  0  0  0  0
  9 10  1  0  0  0  0
  9 18  1  0  0  0  0
 12  5  1  0  0  0  0
 13  3  2  0  0  0  0
 13 14  1  0  0  0  0
 15  9  2  0  0  0  0
 16 12  1  0  0  0  0
 17 15  1  0  0  0  0
 17 11  2  0  0  0  0
 18  6  2  0  0  0  0
 19 17  1  0  0  0  0
 20 19  1  0  0  0  0
 20 21  2  0  0  0  0
 22 24  1  1  0  0  0
 22 23  1  0  0  0  0
 22 25  1  0  0  0  0
 23 25  1  0  0  0  0
 25 20  1  1  0  0  0
M  END
>  <MODEL>
3

>  <REMARK>
 VINA RESULT:      -8.5      2.626      3.311
  Name = 
  2 active torsions:
  status: ('A' for Active; 'I' for Inactive)
    1  A    between atoms: N_6  and  C_23
    2  A    between atoms: C_15  and  C_21
                            x       y       z     vdW  Elec       q    Type
                         _______ _______ _______ _____ _____    ______ ____

>  <TORSDO>
F 2

$$$$
=
 OpenBabel11052412403D

 25 29  0  0  1  0  0  0  0  0999 V2000
  186.5800  178.2520  142.7090 N   0  0  0  0  0  0  0  0  0  0  0  0
  187.9540  178.1880  142.1990 C   0  0  2  0  0  3  0  0  0  0  0  0
  187.1720  177.2410  144.8070 C   0  0  0  0  0  3  0  0  0  0  0  0
  185.6120  179.2870  142.3660 C   0  0  2  0  0  3  0  0  0  0  0  0
  182.8870  178.5630  141.5590 C   0  0  0  0  0  2  0  0  0  0  0  0
  188.4210  176.7600  144.1840 C   0  0  0  0  0  3  0  0  0  0  0  0
  184.4850  179.1840  143.4360 C   0  0  1  0  0  3  0  0  0  0  0  0
  183.3040  178.3080  142.9960 C   0  0  0  0  0  2  0  0  0  0  0  0
  189.9660  176.6000  142.2910 C   0  0  0  0  0  0  0  0  0  0  0  0
  190.9230  175.9620  143.0090 F   0  0  0  0  0  0  0  0  0  0  0  0
  188.0000  177.9540  140.7120 C   0  0  0  0  0  3  0  0  0  0  0  0
  184.0580  178.2440  140.6510 C   0  0  0  0  0  2  0  0  0  0  0  0
  186.3120  177.9350  144.0650 C   0  0  0  0  0  0  0  0  0  0  0  0
  185.1210  178.5150  144.5630 N   0  0  0  0  0  2  0  0  0  0  0  0
  190.0770  176.6820  140.9620 C   0  0  0  0  0  3  0  0  0  0  0  0
  185.1630  179.2570  140.9000 C   0  0  0  0  0  2  0  0  0  0  0  0
  189.0200  177.3110  140.1290 C   0  0  0  0  0  0  0  0  0  0  0  0
  188.7680  177.1470  142.9480 C   0  0  0  0  0  0  0  0  0  0  0  0
  189.0210  177.1910  138.7010 N   0  0  0  0  0  2  0  0  0  0  0  0
  189.0800  178.2660  137.7540 C   0  0  0  0  0  0  0  0  0  0  0  0
  189.0390  179.4680  138.1310 O   0  0  0  0  0  0  0  0  0  0  0  0
  187.7560  177.7770  135.6110 C   0  0  1  0  0  3  0  0  0  0  0  0
  188.5670  176.5610  136.0070 C   0  0  0  0  0  2  0  0  0  0  0  0
  186.5490  177.8860  136.5320 C   0  0  0  0  0  1  0  0  0  0  0  0
  189.1270  177.9450  136.2870 C   0  0  2  0  0  3  0  0  0  0  0  0
  1 13  1  0  0  0  0
  2 11  1  6  0  0  0
  2  1  1  0  0  0  0
  2 18  1  0  0  0  0
  4 16  1  6  0  0  0
  4  1  1  0  0  0  0
  4  7  1  0  0  0  0
  5  8  1  0  0  0  0
  6  3  1  0  0  0  0
  7  8  1  6  0  0  0
  7 14  1  0  0  0  0
  9 18  1  0  0  0  0
  9 10  1  0  0  0  0
 12 16  1  0  0  0  0
 12  5  1  0  0  0  0
 13 14  1  0  0  0  0
 13  3  2  0  0  0  0
 15  9  2  0  0  0  0
 17 11  2  0  0  0  0
 17 15  1  0  0  0  0
 18  6  2  0  0  0  0
 19 17  1  0  0  0  0
 20 21  2  0  0  0  0
 20 19  1  0  0  0  0
 22 23  1  0  0  0  0
 22 25  1  0  0  0  0
 22 24  1  1  0  0  0
 23 25  1  0  0  0  0
 25 20  1  1  0  0  0
M  END
>  <MODEL>
4

>  <REMARK>
 VINA RESULT:      -8.4      3.625      5.697
  Name = 
  2 active torsions:
  status: ('A' for Active; 'I' for Inactive)
    1  A    between atoms: N_6  and  C_23
    2  A    between atoms: C_15  and  C_21
                            x       y       z     vdW  Elec       q    Type
                         _______ _______ _______ _____ _____    ______ ____

>  <TORSDO>
F 2

$$$$
=
 OpenBabel11052412403D

 25 29  0  0  1  0  0  0  0  0999 V2000
  187.5990  178.3100  139.8390 N   0  0  0  0  0  0  0  0  0  0  0  0
  187.3380  178.6330  141.2460 C   0  0  2  0  0  3  0  0  0  0  0  0
  185.3050  178.6400  139.2030 C   0  0  0  0  0  3  0  0  0  0  0  0
  188.8500  178.5800  139.1410 C   0  0  2  0  0  3  0  0  0  0  0  0
  190.1240  176.4950  137.5180 C   0  0  0  0  0  2  0  0  0  0  0  0
  184.9290  178.5280  140.6260 C   0  0  0  0  0  3  0  0  0  0  0  0
  188.5220  178.4650  137.6230 C   0  0  1  0  0  3  0  0  0  0  0  0
  188.8050  177.0740  137.0400 C   0  0  0  0  0  2  0  0  0  0  0  0
  185.4970  178.2630  142.9930 C   0  0  0  0  0  0  0  0  0  0  0  0
  184.2240  178.4650  143.4150 F   0  0  0  0  0  0  0  0  0  0  0  0
  188.2090  177.8390  142.1830 C   0  0  0  0  0  3  0  0  0  0  0  0
  190.0730  176.3580  139.0270 C   0  0  0  0  0  2  0  0  0  0  0  0
  186.5870  178.5140  138.8660 C   0  0  0  0  0  0  0  0  0  0  0  0
  187.0810  178.6780  137.5510 N   0  0  0  0  0  2  0  0  0  0  0  0
  186.4180  177.8170  143.8520 C   0  0  0  0  0  3  0  0  0  0  0  0
  190.0340  177.7460  139.6440 C   0  0  0  0  0  2  0  0  0  0  0  0
  187.8070  177.5160  143.4190 C   0  0  0  0  0  0  0  0  0  0  0  0
  185.8670  178.4650  141.5830 C   0  0  0  0  0  0  0  0  0  0  0  0
  188.7240  176.8190  144.2720 N   0  0  0  0  0  2  0  0  0  0  0  0
  189.8130  177.3940  145.0060 C   0  0  0  0  0  0  0  0  0  0  0  0
  190.1170  178.6100  144.8720 O   0  0  0  0  0  0  0  0  0  0  0  0
  190.1270  176.3740  147.3400 C   0  0  1  0  0  3  0  0  0  0  0  0
  191.2770  177.3060  147.0230 C   0  0  0  0  0  2  0  0  0  0  0  0
  188.8990  177.2080  147.6850 C   0  0  0  0  0  1  0  0  0  0  0  0
  190.6400  176.5110  145.8970 C   0  0  2  0  0  3  0  0  0  0  0  0
  1  2  1  0  0  0  0
  2 18  1  0  0  0  0
  2 11  1  1  0  0  0
  3  6  1  0  0  0  0
  4 16  1  1  0  0  0
  4  1  1  0  0  0  0
  5 12  1  0  0  0  0
  6 18  2  0  0  0  0
  7  8  1  1  0  0  0
  7  4  1  0  0  0  0
  8  5  1  0  0  0  0
  9 10  1  0  0  0  0
  9 15  2  0  0  0  0
 11 17  2  0  0  0  0
 12 16  1  0  0  0  0
 13  3  2  0  0  0  0
 13  1  1  0  0  0  0
 14  7  1  0  0  0  0
 14 13  1  0  0  0  0
 17 15  1  0  0  0  0
 17 19  1  0  0  0  0
 18  9  1  0  0  0  0
 19 20  1  0  0  0  0
 21 20  2  0  0  0  0
 22 24  1  6  0  0  0
 23 22  1  0  0  0  0
 25 20  1  6  0  0  0
 25 23  1  0  0  0  0
 25 22  1  0  0  0  0
M  END
>  <MODEL>
5

>  <REMARK>
 VINA RESULT:      -8.3      3.224      7.001
  Name = 
  2 active torsions:
  status: ('A' for Active; 'I' for Inactive)
    1  A    between atoms: N_6  and  C_23
    2  A    between atoms: C_15  and  C_21
                            x       y       z     vdW  Elec       q    Type
                         _______ _______ _______ _____ _____    ______ ____

>  <TORSDO>
F 2

$$$$
=
 OpenBabel11052412403D

 25 29  0  0  1  0  0  0  0  0999 V2000
  183.2090  178.7180  141.9960 N   0  0  0  0  0  0  0  0  0  0  0  0
  184.3810  178.9660  142.8430 C   0  0  2  0  0  3  0  0  0  0  0  0
  181.6630  179.1420  143.7870 C   0  0  0  0  0  3  0  0  0  0  0  0
  183.1420  178.9950  140.5670 C   0  0  2  0  0  3  0  0  0  0  0  0
  182.1050  176.9740  138.7110 C   0  0  0  0  0  2  0  0  0  0  0  0
  182.7730  178.9580  144.7430 C   0  0  0  0  0  3  0  0  0  0  0  0
  181.6270  178.9760  140.2030 C   0  0  1  0  0  3  0  0  0  0  0  0
  181.1390  177.6130  139.6920 C   0  0  0  0  0  2  0  0  0  0  0  0
  185.1300  178.5450  145.2590 C   0  0  0  0  0  0  0  0  0  0  0  0
  184.9700  178.7550  146.5890 F   0  0  0  0  0  0  0  0  0  0  0  0
  185.5520  178.0980  142.4640 C   0  0  0  0  0  3  0  0  0  0  0  0
  183.4310  176.7530  139.4120 C   0  0  0  0  0  2  0  0  0  0  0  0
  181.9090  179.0030  142.4860 C   0  0  0  0  0  0  0  0  0  0  0  0
  180.9510  179.2290  141.4690 N   0  0  0  0  0  2  0  0  0  0  0  0
  186.2740  178.0260  144.8020 C   0  0  0  0  0  3  0  0  0  0  0  0
  184.0550  178.1030  139.7170 C   0  0  0  0  0  2  0  0  0  0  0  0
  186.4680  177.7160  143.3630 C   0  0  0  0  0  0  0  0  0  0  0  0
  184.0360  178.8170  144.3140 C   0  0  0  0  0  0  0  0  0  0  0  0
  187.5890  176.9480  142.9060 N   0  0  0  0  0  2  0  0  0  0  0  0
  188.8610  177.4600  142.4850 C   0  0  0  0  0  0  0  0  0  0  0  0
  189.0630  178.7010  142.3920 O   0  0  0  0  0  0  0  0  0  0  0  0
  190.8980  176.0840  143.2190 C   0  0  1  0  0  3  0  0  0  0  0  0
  191.3160  177.1280  142.2060 C   0  0  0  0  0  2  0  0  0  0  0  0
  190.6650  176.7660  144.5610 C   0  0  0  0  0  1  0  0  0  0  0  0
  189.9410  176.4950  142.0890 C   0  0  2  0  0  3  0  0  0  0  0  0
  1 13  1  0  0  0  0
  1  2  1  0  0  0  0
  2 11  1  6  0  0  0
  2 18  1  0  0  0  0
  3  6  1  0  0  0  0
  4 16  1  6  0  0  0
  4  1  1  0  0  0  0
  5 12  1  0  0  0  0
  5  8  1  0  0  0  0
  7  8  1  1  0  0  0
  7  4  1  0  0  0  0
  7 14  1  0  0  0  0
  9 10  1  0  0  0  0
 11 17  2  0  0  0  0
 12 16  1  0  0  0  0
 13  3  2  0  0  0  0
 14 13  1  0  0  0  0
 15  9  2  0  0  0  0
 17 15  1  0  0  0  0
 18  6  2  0  0  0  0
 18  9  1  0  0  0  0
 19 17  1  0  0  0  0
 20 19  1  0  0  0  0
 21 20  2  0  0  0  0
 22 24  1  1  0  0  0
 23 22  1  0  0  0  0
 25 23  1  0  0  0  0
 25 20  1  1  0  0  0
 25 22  1  0  0  0  0
M  END
>  <MODEL>
6

>  <REMARK>
 VINA RESULT:      -8.2      2.035      6.914
  Name = 
  2 active torsions:
  status: ('A' for Active; 'I' for Inactive)
    1  A    between atoms: N_6  and  C_23
    2  A    between atoms: C_15  and  C_21
                            x       y       z     vdW  Elec       q    Type
                         _______ _______ _______ _____ _____    ______ ____

>  <TORSDO>
F 2

$$$$
=
 OpenBabel11052412403D

 25 29  0  0  1  0  0  0  0  0999 V2000
  188.9300  177.1450  142.1230 N   0  0  0  0  0  0  0  0  0  0  0  0
  188.9960  176.8290  140.6930 C   0  0  2  0  0  3  0  0  0  0  0  0
  187.0150  178.5720  141.8520 C   0  0  0  0  0  3  0  0  0  0  0  0
  189.3240  176.2390  143.1950 C   0  0  2  0  0  3  0  0  0  0  0  0
  191.0600  177.1760  145.3660 C   0  0  0  0  0  2  0  0  0  0  0  0
  187.3130  178.6410  140.4080 C   0  0  0  0  0  3  0  0  0  0  0  0
  188.6980  176.8250  144.4960 C   0  0  1  0  0  3  0  0  0  0  0  0
  189.6530  177.7380  145.2760 C   0  0  0  0  0  2  0  0  0  0  0  0
  188.6320  178.0080  138.4450 C   0  0  0  0  0  0  0  0  0  0  0  0
  187.8080  178.6420  137.5740 F   0  0  0  0  0  0  0  0  0  0  0  0
  190.4120  176.6360  140.2170 C   0  0  0  0  0  3  0  0  0  0  0  0
  191.6120  177.0280  143.9620 C   0  0  0  0  0  2  0  0  0  0  0  0
  187.8200  177.8610  142.6400 C   0  0  0  0  0  0  0  0  0  0  0  0
  187.5980  177.6560  144.0220 N   0  0  0  0  0  2  0  0  0  0  0  0
  189.8140  177.5480  138.0240 C   0  0  0  0  0  3  0  0  0  0  0  0
  190.8290  175.9460  143.2390 C   0  0  0  0  0  2  0  0  0  0  0  0
  190.7770  176.9090  138.9570 C   0  0  0  0  0  0  0  0  0  0  0  0
  188.2730  177.8770  139.8660 C   0  0  0  0  0  0  0  0  0  0  0  0
  192.1280  176.6320  138.5660 N   0  0  0  0  0  2  0  0  0  0  0  0
  192.6170  175.4140  137.9880 C   0  0  0  0  0  0  0  0  0  0  0  0
  191.8690  174.4080  137.8620 O   0  0  0  0  0  0  0  0  0  0  0  0
  194.3590  175.6680  136.1200 C   0  0  1  0  0  3  0  0  0  0  0  0
  194.2870  174.2230  136.5690 C   0  0  0  0  0  2  0  0  0  0  0  0
  193.1420  175.9770  135.2580 C   0  0  0  0  0  1  0  0  0  0  0  0
  194.0630  175.3250  137.5900 C   0  0  2  0  0  3  0  0  0  0  0  0
  1 13  1  0  0  0  0
  1  4  1  0  0  0  0
  2 11  1  6  0  0  0
  2  1  1  0  0  0  0
  3 13  2  0  0  0  0
  4 16  1  1  0  0  0
  4  7  1  0  0  0  0
  6  3  1  0  0  0  0
  7  8  1  6  0  0  0
  8  5  1  0  0  0  0
  9 18  1  0  0  0  0
 10  9  1  0  0  0  0
 12  5  1  0  0  0  0
 13 14  1  0  0  0  0
 14  7  1  0  0  0  0
 15  9  2  0  0  0  0
 15 17  1  0  0  0  0
 16 12  1  0  0  0  0
 17 11  2  0  0  0  0
 18  6  2  0  0  0  0
 18  2  1  0  0  0  0
 19 17  1  0  0  0  0
 20 19  1  0  0  0  0
 21 20  2  0  0  0  0
 22 24  1  6  0  0  0
 22 23  1  0  0  0  0
 22 25  1  0  0  0  0
 23 25  1  0  0  0  0
 25 20  1  6  0  0  0
M  END
>  <MODEL>
7

>  <REMARK>
 VINA RESULT:      -7.8      5.073      7.262
  Name = 
  2 active torsions:
  status: ('A' for Active; 'I' for Inactive)
    1  A    between atoms: N_6  and  C_23
    2  A    between atoms: C_15  and  C_21
                            x       y       z     vdW  Elec       q    Type
                         _______ _______ _______ _____ _____    ______ ____

>  <TORSDO>
F 2

$$$$
=
 OpenBabel11052412403D

 25 29  0  0  1  0  0  0  0  0999 V2000
  189.2010  177.7560  140.4490 N   0  0  0  0  0  0  0  0  0  0  0  0
  188.4640  178.3250  139.3150 C   0  0  2  0  0  3  0  0  0  0  0  0
  190.9770  176.9390  139.0520 C   0  0  0  0  0  3  0  0  0  0  0  0
  189.1990  178.3020  141.8010 C   0  0  2  0  0  3  0  0  0  0  0  0
  188.7550  176.5460  144.1080 C   0  0  0  0  0  2  0  0  0  0  0  0
  190.0840  177.0880  137.8860 C   0  0  0  0  0  3  0  0  0  0  0  0
  190.4120  177.6450  142.5250 C   0  0  1  0  0  3  0  0  0  0  0  0
  190.0410  176.3840  143.3170 C   0  0  0  0  0  2  0  0  0  0  0  0
  187.9570  177.7490  136.8680 C   0  0  0  0  0  0  0  0  0  0  0  0
  188.3900  177.5280  135.6020 F   0  0  0  0  0  0  0  0  0  0  0  0
  186.9720  178.2480  139.5090 C   0  0  0  0  0  3  0  0  0  0  0  0
  187.6240  176.8280  143.1400 C   0  0  0  0  0  2  0  0  0  0  0  0
  190.5130  177.2530  140.2600 C   0  0  0  0  0  0  0  0  0  0  0  0
  191.2920  177.2280  141.4400 N   0  0  0  0  0  2  0  0  0  0  0  0
  186.6600  177.9720  137.0960 C   0  0  0  0  0  3  0  0  0  0  0  0
  187.8440  178.1940  142.5120 C   0  0  0  0  0  2  0  0  0  0  0  0
  186.1300  178.1500  138.4730 C   0  0  0  0  0  0  0  0  0  0  0  0
  188.8860  177.6790  138.0080 C   0  0  0  0  0  0  0  0  0  0  0  0
  184.7220  178.1510  138.7390 N   0  0  0  0  0  2  0  0  0  0  0  0
  183.8940  179.3030  138.9520 C   0  0  0  0  0  0  0  0  0  0  0  0
  184.3930  180.4590  139.0160 O   0  0  0  0  0  0  0  0  0  0  0  0
  182.0090  178.7300  140.5970 C   0  0  1  0  0  3  0  0  0  0  0  0
  182.0940  177.6720  139.5180 C   0  0  0  0  0  2  0  0  0  0  0  0
  183.1560  178.5270  141.5780 C   0  0  0  0  0  1  0  0  0  0  0  0
  182.4190  179.1120  139.1650 C   0  0  2  0  0  3  0  0  0  0  0  0
  1  4  1  0  0  0  0
  2 11  1  1  0  0  0
  2  1  1  0  0  0  0
  3 13  2  0  0  0  0
  4 16  1  1  0  0  0
  4  7  1  0  0  0  0
  6 18  2  0  0  0  0
  6  3  1  0  0  0  0
  7  8  1  6  0  0  0
  8  5  1  0  0  0  0
  9 15  2  0  0  0  0
  9 18  1  0  0  0  0
 10  9  1  0  0  0  0
 12  5  1  0  0  0  0
 13  1  1  0  0  0  0
 13 14  1  0  0  0  0
 14  7  1  0  0  0  0
 15 17  1  0  0  0  0
 16 12  1  0  0  0  0
 17 19  1  0  0  0  0
 17 11  2  0  0  0  0
 18  2  1  0  0  0  0
 19 20  1  0  0  0  0
 20 21  2  0  0  0  0
 22 24  1  1  0  0  0
 23 22  1  0  0  0  0
 25 20  1  1  0  0  0
 25 23  1  0  0  0  0
 25 22  1  0  0  0  0
M  END
>  <MODEL>
8

>  <REMARK>
 VINA RESULT:      -7.7      3.766      5.512
  Name = 
  2 active torsions:
  status: ('A' for Active; 'I' for Inactive)
    1  A    between atoms: N_6  and  C_23
    2  A    between atoms: C_15  and  C_21
                            x       y       z     vdW  Elec       q    Type
                         _______ _______ _______ _____ _____    ______ ____

>  <TORSDO>
F 2

$$$$
=
 OpenBabel11052412403D

 25 29  0  0  1  0  0  0  0  0999 V2000
  185.2370  177.9610  138.8700 N   0  0  0  0  0  0  0  0  0  0  0  0
  185.3000  178.6670  140.1550 C   0  0  2  0  0  3  0  0  0  0  0  0
  182.8700  177.5850  139.0440 C   0  0  0  0  0  3  0  0  0  0  0  0
  186.0960  178.2380  137.7260 C   0  0  2  0  0  3  0  0  0  0  0  0
  187.4290  176.0440  136.3060 C   0  0  0  0  0  2  0  0  0  0  0  0
  182.9640  177.8720  140.4890 C   0  0  0  0  0  3  0  0  0  0  0  0
  185.4030  177.5660  136.5030 C   0  0  1  0  0  3  0  0  0  0  0  0
  185.9180  176.1500  136.2110 C   0  0  0  0  0  2  0  0  0  0  0  0
  184.2310  178.5220  142.4810 C   0  0  0  0  0  0  0  0  0  0  0  0
  183.1310  178.5850  143.2720 F   0  0  0  0  0  0  0  0  0  0  0  0
  186.5980  178.4220  140.8770 C   0  0  0  0  0  3  0  0  0  0  0  0
  187.8510  176.4030  137.7170 C   0  0  0  0  0  2  0  0  0  0  0  0
  183.9790  177.6220  138.3100 C   0  0  0  0  0  0  0  0  0  0  0  0
  184.0080  177.4420  136.9070 N   0  0  0  0  0  2  0  0  0  0  0  0
  185.4470  178.5820  143.0320 C   0  0  0  0  0  3  0  0  0  0  0  0
  187.5690  177.8770  137.9540 C   0  0  0  0  0  2  0  0  0  0  0  0
  186.6790  178.4480  142.2130 C   0  0  0  0  0  0  0  0  0  0  0  0
  184.1070  178.3200  141.0290 C   0  0  0  0  0  0  0  0  0  0  0  0
  187.9670  178.2740  142.8190 N   0  0  0  0  0  2  0  0  0  0  0  0
  188.5500  177.0350  143.2450 C   0  0  0  0  0  0  0  0  0  0  0  0
  187.8950  175.9590  143.1990 O   0  0  0  0  0  0  0  0  0  0  0  0
  190.0240  177.2470  145.3350 C   0  0  1  0  0  3  0  0  0  0  0  0
  190.2950  178.3990  144.3900 C   0  0  0  0  0  2  0  0  0  0  0  0
  188.6960  177.4910  146.0410 C   0  0  0  0  0  1  0  0  0  0  0  0
  189.9400  177.0400  143.8140 C   0  0  2  0  0  3  0  0  0  0  0  0
  1  2  1  0  0  0  0
  2 11  1  1  0  0  0
  2 18  1  0  0  0  0
  3  6  1  0  0  0  0
  4 16  1  1  0  0  0
  4  1  1  0  0  0  0
  5 12  1  0  0  0  0
  6 18  2  0  0  0  0
  7  8  1  1  0  0  0
  7 14  1  0  0  0  0
  7  4  1  0  0  0  0
  8  5  1  0  0  0  0
  9 15  2  0  0  0  0
  9 10  1  0  0  0  0
 11 17  2  0  0  0  0
 12 16  1  0  0  0  0
 13  1  1  0  0  0  0
 13  3  2  0  0  0  0
 14 13  1  0  0  0  0
 17 19  1  0  0  0  0
 17 15  1  0  0  0  0
 18  9  1  0  0  0  0
 19 20  1  0  0  0  0
 21 20  2  0  0  0  0
 22 24  1  1  0  0  0
 23 22  1  0  0  0  0
 25 20  1  1  0  0  0
 25 23  1  0  0  0  0
 25 22  1  0  0  0  0
M  END
>  <MODEL>
9

>  <REMARK>
 VINA RESULT:      -7.5      2.771      7.105
  Name = 
  2 active torsions:
  status: ('A' for Active; 'I' for Inactive)
    1  A    between atoms: N_6  and  C_23
    2  A    between atoms: C_15  and  C_21
                            x       y       z     vdW  Elec       q    Type
                         _______ _______ _______ _____ _____    ______ ____

>  <TORSDO>
F 2

$$$$
