=
 OpenBabel11052416523D

 32 38  0  0  1  0  0  0  0  0999 V2000
  187.2820  178.8970  144.4780 C   0  0  0  0  0  2  0  0  0  0  0  0
  187.4610  177.1010  146.3260 C   0  0  1  0  0  3  0  0  0  0  0  0
  186.0530  177.6290  146.6740 C   0  0  1  0  0  3  0  0  0  0  0  0
  188.1540  177.9550  148.6700 C   0  0  2  0  0  3  0  0  0  0  0  0
  187.4500  179.2050  148.1380 C   0  0  0  0  0  2  0  0  0  0  0  0
  186.0620  178.8640  147.5920 C   0  0  0  0  0  2  0  0  0  0  0  0
  189.7430  177.0080  147.5600 C   0  0  0  0  0  2  0  0  0  0  0  0
  185.9670  178.1820  144.1590 C   0  0  1  0  0  3  0  0  0  0  0  0
  185.1750  177.8820  145.4430 C   0  0  0  0  0  2  0  0  0  0  0  0
  189.6580  178.1320  148.5810 C   0  0  0  0  0  2  0  0  0  0  0  0
  188.2120  178.0010  145.3080 C   0  0  1  0  0  3  0  0  0  0  0  0
  188.2360  176.8220  147.6410 C   0  0  2  0  0  3  0  0  0  0  0  0
  190.0660  178.3240  142.1320 O   0  0  0  0  0  0  0  0  0  0  0  0
  190.8350  179.1070  144.2290 C   0  0  0  0  0  2  0  0  0  0  0  0
  189.5180  177.0530  141.9290 C   0  0  0  0  0  2  0  0  0  0  0  0
  188.2200  175.2750  143.0730 C   0  0  0  0  0  1  0  0  0  0  0  0
  188.5560  176.7520  143.0670 C   0  0  1  0  0  3  0  0  0  0  0  0
  189.1490  177.1620  144.4270 C   0  0  1  0  0  3  0  0  0  0  0  0
  191.1000  178.1670  143.0720 C   0  0  1  0  0  3  0  0  0  0  0  0
  190.6310  177.6160  144.4340 C   0  0  1  0  0  3  0  0  0  0  0  0
  183.4040  177.9850  141.7990 C   0  0  0  0  0  3  0  0  0  0  0  0
  185.1250  178.9260  143.1040 C   0  0  1  0  0  0  0  0  0  0  0  0
  185.1970  180.4340  143.3080 C   0  0  0  0  0  1  0  0  0  0  0  0
  184.4400  178.0510  140.9850 C   0  0  0  0  0  3  0  0  0  0  0  0
  185.6320  178.6170  141.6910 C   0  0  0  0  0  2  0  0  0  0  0  0
  183.7370  178.4710  143.0850 N   0  0  0  0  0  0  0  0  0  0  0  0
  182.7900  178.5190  144.1930 C   0  0  0  0  0  2  0  0  0  0  0  0
  180.0170  178.1140  143.9960 S   0  0  0  0  0  0  0  0  0  0  0  0
  181.2320  180.0280  142.9470 N   0  0  0  0  0  0  0  0  0  0  0  0
  179.0650  179.1880  143.1160 C   0  0  0  0  0  3  0  0  0  0  0  0
  181.4440  178.9400  143.7130 C   0  0  0  0  0  0  0  0  0  0  0  0
  179.9190  180.1710  142.6180 C   0  0  0  0  0  3  0  0  0  0  0  0
  1 11  1  0  0  0  0
  2  3  1  0  0  0  0
  2 12  1  0  0  0  0
  3  6  1  0  0  0  0
  5  4  1  0  0  0  0
  6  5  1  0  0  0  0
  7 12  1  0  0  0  0
  7 10  1  0  0  0  0
  8  1  1  0  0  0  0
  8  9  1  0  0  0  0
  9  3  1  0  0  0  0
 10  4  1  0  0  0  0
 11  2  1  0  0  0  0
 12  4  1  0  0  0  0
 13 19  1  0  0  0  0
 14 20  1  0  0  0  0
 15 13  1  0  0  0  0
 15 17  1  0  0  0  0
 17 16  1  0  0  0  0
 17 18  1  0  0  0  0
 18 20  1  0  0  0  0
 18 11  1  0  0  0  0
 19 14  1  0  0  0  0
 19 20  1  0  0  0  0
 21 26  1  0  0  0  0
 22 23  1  0  0  0  0
 22  8  1  0  0  0  0
 24 25  1  0  0  0  0
 24 21  2  0  0  0  0
 25 22  1  0  0  0  0
 26 22  1  0  0  0  0
 26 27  1  0  0  0  0
 29 31  2  0  0  0  0
 30 28  1  0  0  0  0
 31 28  1  0  0  0  0
 31 27  1  0  0  0  0
 32 29  1  0  0  0  0
 32 30  2  0  0  0  0
M  END
>  <MODEL>
1

>  <REMARK>
 VINA RESULT:      -6.4      0.000      0.000
  Name = 
  4 active torsions:
  status: ('A' for Active; 'I' for Inactive)
    1  A    between atoms: C_8  and  C_28
    2  A    between atoms: C_16  and  C_31
    3  A    between atoms: C_19  and  C_24
    4  A    between atoms: N_23  and  C_24
                            x       y       z     vdW  Elec       q    Type
                         _______ _______ _______ _____ _____    ______ ____

>  <TORSDO>
F 4

$$$$
=
 OpenBabel11052416523D

 32 38  0  0  1  0  0  0  0  0999 V2000
  189.5780  176.5280  140.0680 C   0  0  0  0  0  2  0  0  0  0  0  0
  189.1190  178.4830  138.4440 C   0  0  1  0  0  3  0  0  0  0  0  0
  188.2250  178.9570  139.6090 C   0  0  1  0  0  3  0  0  0  0  0  0
  186.9260  178.3260  137.0750 C   0  0  2  0  0  3  0  0  0  0  0  0
  186.5060  177.5500  138.3250 C   0  0  0  0  0  2  0  0  0  0  0  0
  186.8120  178.3460  139.5950 C   0  0  0  0  0  2  0  0  0  0  0  0
  188.7050  177.7960  135.9750 C   0  0  0  0  0  2  0  0  0  0  0  0
  189.9230  177.6540  141.0450 C   0  0  1  0  0  3  0  0  0  0  0  0
  188.8720  178.7770  140.9880 C   0  0  0  0  0  2  0  0  0  0  0  0
  187.2490  177.3590  135.9510 C   0  0  0  0  0  2  0  0  0  0  0  0
  189.6170  177.0240  138.6160 C   0  0  1  0  0  3  0  0  0  0  0  0
  188.3940  178.7690  137.1020 C   0  0  2  0  0  3  0  0  0  0  0  0
  191.9810  174.2960  137.8410 O   0  0  0  0  0  0  0  0  0  0  0  0
  190.1480  174.9190  136.4800 C   0  0  0  0  0  2  0  0  0  0  0  0
  192.8850  175.2090  138.3950 C   0  0  0  0  0  2  0  0  0  0  0  0
  193.0480  177.5370  139.2350 C   0  0  0  0  0  1  0  0  0  0  0  0
  192.1030  176.3880  138.9510 C   0  0  1  0  0  3  0  0  0  0  0  0
  191.0020  176.8410  137.9770 C   0  0  1  0  0  3  0  0  0  0  0  0
  191.6530  174.7840  136.5630 C   0  0  1  0  0  3  0  0  0  0  0  0
  190.9930  176.1780  136.5770 C   0  0  1  0  0  3  0  0  0  0  0  0
  189.3640  178.1470  144.4540 C   0  0  0  0  0  3  0  0  0  0  0  0
  190.1680  177.1460  142.4790 C   0  0  1  0  0  0  0  0  0  0  0  0
  190.5930  175.6820  142.4770 C   0  0  0  0  0  1  0  0  0  0  0  0
  190.6310  178.5090  144.3900 C   0  0  0  0  0  3  0  0  0  0  0  0
  191.2770  177.9570  143.1570 C   0  0  0  0  0  2  0  0  0  0  0  0
  189.0080  177.3490  143.3420 N   0  0  0  0  0  0  0  0  0  0  0  0
  187.6700  176.8030  143.1450 C   0  0  0  0  0  2  0  0  0  0  0  0
  186.3400  177.7000  145.4510 S   0  0  0  0  0  0  0  0  0  0  0  0
  185.8220  178.4880  143.1370 N   0  0  0  0  0  0  0  0  0  0  0  0
  185.0960  178.8290  145.3250 C   0  0  0  0  0  3  0  0  0  0  0  0
  186.6500  177.6640  143.8070 C   0  0  0  0  0  0  0  0  0  0  0  0
  184.9650  179.1370  143.9720 C   0  0  0  0  0  3  0  0  0  0  0  0
  1  8  1  0  0  0  0
  2 11  1  0  0  0  0
  2  3  1  0  0  0  0
  3  9  1  0  0  0  0
  4 12  1  0  0  0  0
  4  5  1  0  0  0  0
  5  6  1  0  0  0  0
  6  3  1  0  0  0  0
  7 12  1  0  0  0  0
  8 22  1  0  0  0  0
  9  8  1  0  0  0  0
 10  7  1  0  0  0  0
 10  4  1  0  0  0  0
 11  1  1  0  0  0  0
 12  2  1  0  0  0  0
 13 15  1  0  0  0  0
 14 19  1  0  0  0  0
 14 20  1  0  0  0  0
 15 17  1  0  0  0  0
 17 16  1  0  0  0  0
 18 11  1  0  0  0  0
 18 17  1  0  0  0  0
 19 20  1  0  0  0  0
 19 13  1  0  0  0  0
 20 18  1  0  0  0  0
 22 25  1  0  0  0  0
 22 26  1  0  0  0  0
 23 22  1  0  0  0  0
 24 21  2  0  0  0  0
 25 24  1  0  0  0  0
 26 21  1  0  0  0  0
 27 26  1  0  0  0  0
 27 31  1  0  0  0  0
 29 31  2  0  0  0  0
 29 32  1  0  0  0  0
 30 28  1  0  0  0  0
 31 28  1  0  0  0  0
 32 30  2  0  0  0  0
M  END
>  <MODEL>
2

>  <REMARK>
 VINA RESULT:      -6.1      3.913      7.475
  Name = 
  4 active torsions:
  status: ('A' for Active; 'I' for Inactive)
    1  A    between atoms: C_8  and  C_28
    2  A    between atoms: C_16  and  C_31
    3  A    between atoms: C_19  and  C_24
    4  A    between atoms: N_23  and  C_24
                            x       y       z     vdW  Elec       q    Type
                         _______ _______ _______ _____ _____    ______ ____

>  <TORSDO>
F 4

$$$$
=
 OpenBabel11052416523D

 32 38  0  0  1  0  0  0  0  0999 V2000
  188.8850  178.3420  142.2830 C   0  0  0  0  0  2  0  0  0  0  0  0
  186.7060  177.3360  143.2380 C   0  0  1  0  0  3  0  0  0  0  0  0
  186.1310  177.8800  141.9130 C   0  0  1  0  0  3  0  0  0  0  0  0
  185.1030  179.0060  144.4000 C   0  0  2  0  0  3  0  0  0  0  0  0
  185.7670  179.9450  143.3910 C   0  0  0  0  0  2  0  0  0  0  0  0
  185.7150  179.3600  141.9780 C   0  0  0  0  0  2  0  0  0  0  0  0
  186.2800  177.8080  145.7550 C   0  0  0  0  0  2  0  0  0  0  0  0
  188.5310  177.4940  141.0610 C   0  0  1  0  0  3  0  0  0  0  0  0
  187.0410  177.6310  140.7040 C   0  0  0  0  0  2  0  0  0  0  0  0
  185.7060  179.2160  145.7760 C   0  0  0  0  0  2  0  0  0  0  0  0
  188.1400  177.8510  143.5330 C   0  0  1  0  0  3  0  0  0  0  0  0
  185.6800  177.5850  144.3750 C   0  0  2  0  0  3  0  0  0  0  0  0
  191.2790  177.6330  145.4640 O   0  0  0  0  0  0  0  0  0  0  0  0
  189.2120  178.3920  146.3310 C   0  0  0  0  0  2  0  0  0  0  0  0
  191.4220  176.4730  144.6960 C   0  0  0  0  0  2  0  0  0  0  0  0
  190.2110  175.0360  143.0760 C   0  0  0  0  0  1  0  0  0  0  0  0
  190.2950  176.4240  143.6770 C   0  0  1  0  0  3  0  0  0  0  0  0
  188.9460  176.8030  144.3140 C   0  0  1  0  0  3  0  0  0  0  0  0
  190.3050  177.3490  146.4370 C   0  0  1  0  0  3  0  0  0  0  0  0
  188.9260  176.9780  145.8530 C   0  0  1  0  0  3  0  0  0  0  0  0
  190.8340  176.1850  138.7880 C   0  0  0  0  0  3  0  0  0  0  0  0
  189.4550  177.7670  139.8570 C   0  0  1  0  0  0  0  0  0  0  0  0
  189.0480  179.0460  139.1330 C   0  0  0  0  0  1  0  0  0  0  0  0
  191.6560  176.8830  139.5480 C   0  0  0  0  0  3  0  0  0  0  0  0
  190.9080  177.9280  140.3160 C   0  0  0  0  0  2  0  0  0  0  0  0
  189.5020  176.6390  138.9300 N   0  0  0  0  0  0  0  0  0  0  0  0
  188.3760  176.0550  138.2120 C   0  0  0  0  0  2  0  0  0  0  0  0
  186.7290  177.5580  136.5020 S   0  0  0  0  0  0  0  0  0  0  0  0
  189.0510  176.8330  135.9330 N   0  0  0  0  0  0  0  0  0  0  0  0
  187.2840  178.0140  134.9790 C   0  0  0  0  0  3  0  0  0  0  0  0
  188.1450  176.7740  136.9270 C   0  0  0  0  0  0  0  0  0  0  0  0
  188.5820  177.5210  134.8560 C   0  0  0  0  0  3  0  0  0  0  0  0
  1 11  1  0  0  0  0
  2 11  1  0  0  0  0
  2 12  1  0  0  0  0
  3  6  1  0  0  0  0
  3  2  1  0  0  0  0
  4 10  1  0  0  0  0
  5  4  1  0  0  0  0
  6  5  1  0  0  0  0
  7 10  1  0  0  0  0
  8  1  1  0  0  0  0
  9  8  1  0  0  0  0
  9  3  1  0  0  0  0
 11 18  1  0  0  0  0
 12  4  1  0  0  0  0
 12  7  1  0  0  0  0
 13 19  1  0  0  0  0
 14 19  1  0  0  0  0
 15 13  1  0  0  0  0
 16 17  1  0  0  0  0
 17 18  1  0  0  0  0
 17 15  1  0  0  0  0
 18 20  1  0  0  0  0
 20 14  1  0  0  0  0
 20 19  1  0  0  0  0
 21 26  1  0  0  0  0
 21 24  2  0  0  0  0
 22 25  1  0  0  0  0
 22  8  1  0  0  0  0
 23 22  1  0  0  0  0
 24 25  1  0  0  0  0
 26 22  1  0  0  0  0
 27 26  1  0  0  0  0
 28 31  1  0  0  0  0
 29 31  2  0  0  0  0
 30 28  1  0  0  0  0
 31 27  1  0  0  0  0
 32 30  2  0  0  0  0
 32 29  1  0  0  0  0
M  END
>  <MODEL>
3

>  <REMARK>
 VINA RESULT:      -6.1      3.819      6.198
  Name = 
  4 active torsions:
  status: ('A' for Active; 'I' for Inactive)
    1  A    between atoms: C_8  and  C_28
    2  A    between atoms: C_16  and  C_31
    3  A    between atoms: C_19  and  C_24
    4  A    between atoms: N_23  and  C_24
                            x       y       z     vdW  Elec       q    Type
                         _______ _______ _______ _____ _____    ______ ____

>  <TORSDO>
F 4

$$$$
=
 OpenBabel11052416523D

 32 38  0  0  1  0  0  0  0  0999 V2000
  189.2020  174.5000  137.2260 C   0  0  0  0  0  2  0  0  0  0  0  0
  191.1840  175.4810  135.8930 C   0  0  1  0  0  3  0  0  0  0  0  0
  191.0280  174.1620  135.1070 C   0  0  1  0  0  3  0  0  0  0  0  0
  193.5310  174.5980  136.5390 C   0  0  2  0  0  3  0  0  0  0  0  0
  192.6870  173.3740  136.8980 C   0  0  0  0  0  2  0  0  0  0  0  0
  191.7770  172.9730  135.7360 C   0  0  0  0  0  2  0  0  0  0  0  0
  193.0630  176.5500  137.3300 C   0  0  0  0  0  2  0  0  0  0  0  0
  188.5670  174.3670  135.8420 C   0  0  1  0  0  3  0  0  0  0  0  0
  189.5670  173.7880  134.8270 C   0  0  0  0  0  2  0  0  0  0  0  0
  193.8920  175.3650  137.7980 C   0  0  0  0  0  2  0  0  0  0  0  0
  190.3630  175.5050  137.2090 C   0  0  1  0  0  3  0  0  0  0  0  0
  192.6950  175.7930  136.0640 C   0  0  2  0  0  3  0  0  0  0  0  0
  188.2010  177.2300  139.6550 O   0  0  0  0  0  0  0  0  0  0  0  0
  190.4550  176.6220  140.0400 C   0  0  0  0  0  2  0  0  0  0  0  0
  187.7540  177.8650  138.4910 C   0  0  0  0  0  2  0  0  0  0  0  0
  188.2260  178.0620  136.0640 C   0  0  0  0  0  1  0  0  0  0  0  0
  188.4040  177.1940  137.2920 C   0  0  1  0  0  3  0  0  0  0  0  0
  189.9000  176.9310  137.5380 C   0  0  1  0  0  3  0  0  0  0  0  0
  189.4690  177.7660  139.9410 C   0  0  1  0  0  3  0  0  0  0  0  0
  190.5110  177.5350  138.8270 C   0  0  1  0  0  3  0  0  0  0  0  0
  185.3880  174.0630  137.2510 C   0  0  0  0  0  3  0  0  0  0  0  0
  187.2350  173.5900  135.8680 C   0  0  1  0  0  0  0  0  0  0  0  0
  187.0520  172.7720  134.5950 C   0  0  0  0  0  1  0  0  0  0  0  0
  185.9770  173.0300  137.8230 C   0  0  0  0  0  3  0  0  0  0  0  0
  187.1960  172.6250  137.0570 C   0  0  0  0  0  2  0  0  0  0  0  0
  186.0890  174.4670  136.0910 N   0  0  0  0  0  0  0  0  0  0  0  0
  185.6720  175.5840  135.2520 C   0  0  0  0  0  2  0  0  0  0  0  0
  182.9100  176.0670  135.4290 S   0  0  0  0  0  0  0  0  0  0  0  0
  184.6300  177.2390  136.8110 N   0  0  0  0  0  0  0  0  0  0  0  0
  182.3200  177.2180  136.5070 C   0  0  0  0  0  3  0  0  0  0  0  0
  184.5110  176.2910  135.8610 C   0  0  0  0  0  0  0  0  0  0  0  0
  183.4220  177.7510  137.1740 C   0  0  0  0  0  3  0  0  0  0  0  0
  2 12  1  0  0  0  0
  2 11  1  0  0  0  0
  3  6  1  0  0  0  0
  3  2  1  0  0  0  0
  4  5  1  0  0  0  0
  4 10  1  0  0  0  0
  6  5  1  0  0  0  0
  7 10  1  0  0  0  0
  8 22  1  0  0  0  0
  8  1  1  0  0  0  0
  9  3  1  0  0  0  0
  9  8  1  0  0  0  0
 11  1  1  0  0  0  0
 11 18  1  0  0  0  0
 12  4  1  0  0  0  0
 12  7  1  0  0  0  0
 13 19  1  0  0  0  0
 15 13  1  0  0  0  0
 16 17  1  0  0  0  0
 17 18  1  0  0  0  0
 17 15  1  0  0  0  0
 18 20  1  0  0  0  0
 19 14  1  0  0  0  0
 20 19  1  0  0  0  0
 20 14  1  0  0  0  0
 21 24  2  0  0  0  0
 22 26  1  0  0  0  0
 22 25  1  0  0  0  0
 23 22  1  0  0  0  0
 25 24  1  0  0  0  0
 26 21  1  0  0  0  0
 27 31  1  0  0  0  0
 27 26  1  0  0  0  0
 28 31  1  0  0  0  0
 28 30  1  0  0  0  0
 29 32  1  0  0  0  0
 30 32  2  0  0  0  0
 31 29  2  0  0  0  0
M  END
>  <MODEL>
4

>  <REMARK>
 VINA RESULT:      -5.9      6.319      9.305
  Name = 
  4 active torsions:
  status: ('A' for Active; 'I' for Inactive)
    1  A    between atoms: C_8  and  C_28
    2  A    between atoms: C_16  and  C_31
    3  A    between atoms: C_19  and  C_24
    4  A    between atoms: N_23  and  C_24
                            x       y       z     vdW  Elec       q    Type
                         _______ _______ _______ _____ _____    ______ ____

>  <TORSDO>
F 4

$$$$
=
 OpenBabel11052416523D

 32 38  0  0  1  0  0  0  0  0999 V2000
  182.2590  176.2880  139.1140 C   0  0  0  0  0  2  0  0  0  0  0  0
  180.9240  178.4150  139.7180 C   0  0  1  0  0  3  0  0  0  0  0  0
  182.3050  179.0760  139.5190 C   0  0  1  0  0  3  0  0  0  0  0  0
  181.1100  179.2080  142.1760 C   0  0  2  0  0  3  0  0  0  0  0  0
  182.4730  178.5300  142.0200 C   0  0  0  0  0  2  0  0  0  0  0  0
  183.1990  179.0360  140.7710 C   0  0  0  0  0  2  0  0  0  0  0  0
  179.2820  178.1610  141.7120 C   0  0  0  0  0  2  0  0  0  0  0  0
  182.6760  177.1110  137.8940 C   0  0  1  0  0  3  0  0  0  0  0  0
  183.0670  178.5420  138.2990 C   0  0  0  0  0  2  0  0  0  0  0  0
  180.1660  178.2980  142.9410 C   0  0  0  0  0  2  0  0  0  0  0  0
  180.9950  176.8650  139.7660 C   0  0  1  0  0  3  0  0  0  0  0  0
  180.2200  179.0710  140.9350 C   0  0  2  0  0  3  0  0  0  0  0  0
  179.7710  173.5720  138.6320 O   0  0  0  0  0  0  0  0  0  0  0  0
  179.8100  174.2940  140.8860 C   0  0  0  0  0  2  0  0  0  0  0  0
  179.2940  174.3510  137.5730 C   0  0  0  0  0  2  0  0  0  0  0  0
  179.0570  176.7050  136.8270 C   0  0  0  0  0  1  0  0  0  0  0  0
  179.8220  175.7670  137.7370 C   0  0  1  0  0  3  0  0  0  0  0  0
  179.7120  176.2430  139.1960 C   0  0  1  0  0  3  0  0  0  0  0  0
  178.9380  173.8410  139.7330 C   0  0  1  0  0  3  0  0  0  0  0  0
  178.9430  175.3190  140.1750 C   0  0  1  0  0  3  0  0  0  0  0  0
  185.2440  177.4850  135.5600 C   0  0  0  0  0  3  0  0  0  0  0  0
  183.7640  176.4180  137.0500 C   0  0  1  0  0  0  0  0  0  0  0  0
  184.1000  175.0410  137.6110 C   0  0  0  0  0  1  0  0  0  0  0  0
  184.3260  176.9400  134.7840 C   0  0  0  0  0  3  0  0  0  0  0  0
  183.2910  176.2350  135.6040 C   0  0  0  0  0  2  0  0  0  0  0  0
  184.9690  177.2340  136.9240 N   0  0  0  0  0  0  0  0  0  0  0  0
  185.8120  177.7150  138.0130 C   0  0  0  0  0  2  0  0  0  0  0  0
  188.3030  176.6100  137.3330 S   0  0  0  0  0  0  0  0  0  0  0  0
  187.8020  179.0570  137.3100 N   0  0  0  0  0  0  0  0  0  0  0  0
  189.5810  177.6130  136.8890 C   0  0  0  0  0  3  0  0  0  0  0  0
  187.2210  177.8660  137.5550 C   0  0  0  0  0  0  0  0  0  0  0  0
  189.1040  178.9220  136.9380 C   0  0  0  0  0  3  0  0  0  0  0  0
  1 11  1  0  0  0  0
  2 11  1  0  0  0  0
  2 12  1  0  0  0  0
  3  2  1  0  0  0  0
  3  6  1  0  0  0  0
  4 10  1  0  0  0  0
  5  4  1  0  0  0  0
  6  5  1  0  0  0  0
  7 10  1  0  0  0  0
  8  9  1  0  0  0  0
  8  1  1  0  0  0  0
  9  3  1  0  0  0  0
 12  7  1  0  0  0  0
 12  4  1  0  0  0  0
 13 19  1  0  0  0  0
 15 17  1  0  0  0  0
 15 13  1  0  0  0  0
 16 17  1  0  0  0  0
 17 18  1  0  0  0  0
 18 11  1  0  0  0  0
 18 20  1  0  0  0  0
 19 20  1  0  0  0  0
 19 14  1  0  0  0  0
 20 14  1  0  0  0  0
 21 26  1  0  0  0  0
 22 23  1  0  0  0  0
 22  8  1  0  0  0  0
 24 21  2  0  0  0  0
 24 25  1  0  0  0  0
 25 22  1  0  0  0  0
 26 22  1  0  0  0  0
 26 27  1  0  0  0  0
 28 31  1  0  0  0  0
 29 31  2  0  0  0  0
 30 32  2  0  0  0  0
 30 28  1  0  0  0  0
 31 27  1  0  0  0  0
 32 29  1  0  0  0  0
M  END
>  <MODEL>
5

>  <REMARK>
 VINA RESULT:      -5.7      6.430      9.639
  Name = 
  4 active torsions:
  status: ('A' for Active; 'I' for Inactive)
    1  A    between atoms: C_8  and  C_28
    2  A    between atoms: C_16  and  C_31
    3  A    between atoms: C_19  and  C_24
    4  A    between atoms: N_23  and  C_24
                            x       y       z     vdW  Elec       q    Type
                         _______ _______ _______ _____ _____    ______ ____

>  <TORSDO>
F 4

$$$$
=
 OpenBabel11052416523D

 32 38  0  0  1  0  0  0  0  0999 V2000
  182.2600  175.8020  138.7800 C   0  0  0  0  0  2  0  0  0  0  0  0
  180.4590  175.0470  137.0900 C   0  0  1  0  0  3  0  0  0  0  0  0
  179.5200  175.6820  138.1370 C   0  0  1  0  0  3  0  0  0  0  0  0
  179.2560  172.8210  137.6370 C   0  0  2  0  0  3  0  0  0  0  0  0
  179.5920  173.2870  139.0550 C   0  0  0  0  0  2  0  0  0  0  0  0
  179.1340  174.7290  139.2830 C   0  0  0  0  0  2  0  0  0  0  0  0
  180.7820  172.6610  136.1210 C   0  0  0  0  0  2  0  0  0  0  0  0
  181.5700  177.1600  138.6390 C   0  0  1  0  0  3  0  0  0  0  0  0
  180.0400  177.0110  138.6980 C   0  0  0  0  0  2  0  0  0  0  0  0
  180.2330  171.7440  137.2020 C   0  0  0  0  0  2  0  0  0  0  0  0
  181.9140  174.8800  137.6020 C   0  0  1  0  0  3  0  0  0  0  0  0
  179.8080  173.7480  136.5470 C   0  0  2  0  0  3  0  0  0  0  0  0
  185.5190  175.5120  137.1120 O   0  0  0  0  0  0  0  0  0  0  0  0
  184.5730  173.3960  137.5930 C   0  0  0  0  0  2  0  0  0  0  0  0
  185.0160  176.3870  136.1430 C   0  0  0  0  0  2  0  0  0  0  0  0
  182.9090  177.0710  135.0270 C   0  0  0  0  0  1  0  0  0  0  0  0
  183.5010  176.4240  136.2620 C   0  0  1  0  0  3  0  0  0  0  0  0
  182.9180  175.0120  136.4470 C   0  0  1  0  0  3  0  0  0  0  0  0
  185.3660  174.2130  136.5950 C   0  0  1  0  0  3  0  0  0  0  0  0
  183.9020  173.8250  136.2990 C   0  0  1  0  0  3  0  0  0  0  0  0
  183.2240  180.2010  139.0830 C   0  0  0  0  0  3  0  0  0  0  0  0
  182.1010  178.2060  139.6390 C   0  0  1  0  0  0  0  0  0  0  0  0
  181.4290  178.0560  140.9990 C   0  0  0  0  0  1  0  0  0  0  0  0
  184.1790  179.3780  139.4710 C   0  0  0  0  0  3  0  0  0  0  0  0
  183.6110  178.0440  139.8400 C   0  0  0  0  0  2  0  0  0  0  0  0
  181.9590  179.5710  139.1380 N   0  0  0  0  0  0  0  0  0  0  0  0
  180.7160  180.2360  138.7670 C   0  0  0  0  0  2  0  0  0  0  0  0
  180.6520  182.2290  136.7870 S   0  0  0  0  0  0  0  0  0  0  0  0
  180.8210  179.7820  136.3100 N   0  0  0  0  0  0  0  0  0  0  0  0
  180.7140  181.8050  135.1580 C   0  0  0  0  0  3  0  0  0  0  0  0
  180.7510  180.6510  137.3360 C   0  0  0  0  0  0  0  0  0  0  0  0
  180.8050  180.4150  135.1050 C   0  0  0  0  0  3  0  0  0  0  0  0
  2 11  1  0  0  0  0
  2  3  1  0  0  0  0
  3  9  1  0  0  0  0
  3  6  1  0  0  0  0
  4  5  1  0  0  0  0
  5  6  1  0  0  0  0
  7 12  1  0  0  0  0
  7 10  1  0  0  0  0
  8  9  1  0  0  0  0
  8  1  1  0  0  0  0
  8 22  1  0  0  0  0
 10  4  1  0  0  0  0
 11  1  1  0  0  0  0
 12  2  1  0  0  0  0
 12  4  1  0  0  0  0
 15 17  1  0  0  0  0
 15 13  1  0  0  0  0
 16 17  1  0  0  0  0
 17 18  1  0  0  0  0
 18 11  1  0  0  0  0
 19 13  1  0  0  0  0
 19 14  1  0  0  0  0
 20 18  1  0  0  0  0
 20 19  1  0  0  0  0
 20 14  1  0  0  0  0
 21 26  1  0  0  0  0
 21 24  2  0  0  0  0
 22 25  1  0  0  0  0
 22 23  1  0  0  0  0
 24 25  1  0  0  0  0
 26 22  1  0  0  0  0
 27 26  1  0  0  0  0
 28 31  1  0  0  0  0
 29 31  2  0  0  0  0
 30 28  1  0  0  0  0
 31 27  1  0  0  0  0
 32 30  2  0  0  0  0
 32 29  1  0  0  0  0
M  END
>  <MODEL>
6

>  <REMARK>
 VINA RESULT:      -5.6      6.637      9.556
  Name = 
  4 active torsions:
  status: ('A' for Active; 'I' for Inactive)
    1  A    between atoms: C_8  and  C_28
    2  A    between atoms: C_16  and  C_31
    3  A    between atoms: C_19  and  C_24
    4  A    between atoms: N_23  and  C_24
                            x       y       z     vdW  Elec       q    Type
                         _______ _______ _______ _____ _____    ______ ____

>  <TORSDO>
F 4

$$$$
=
 OpenBabel11052416523D

 32 38  0  0  1  0  0  0  0  0999 V2000
  185.5010  175.3550  135.6660 C   0  0  0  0  0  2  0  0  0  0  0  0
  184.8020  173.4280  137.2380 C   0  0  1  0  0  3  0  0  0  0  0  0
  186.2880  173.0440  137.0730 C   0  0  1  0  0  3  0  0  0  0  0  0
  184.2860  171.1640  136.0930 C   0  0  2  0  0  3  0  0  0  0  0  0
  185.3070  171.7270  135.1020 C   0  0  0  0  0  2  0  0  0  0  0  0
  186.5740  172.1920  135.8240 C   0  0  0  0  0  2  0  0  0  0  0  0
  182.5390  172.2960  136.6610 C   0  0  0  0  0  2  0  0  0  0  0  0
  186.5920  175.5780  136.7150 C   0  0  1  0  0  3  0  0  0  0  0  0
  187.2390  174.2460  137.1320 C   0  0  0  0  0  2  0  0  0  0  0  0
  182.8830  171.3300  135.5380 C   0  0  0  0  0  2  0  0  0  0  0  0
  184.3440  174.5230  136.2390 C   0  0  1  0  0  3  0  0  0  0  0  0
  183.9410  172.1370  137.2270 C   0  0  2  0  0  3  0  0  0  0  0  0
  182.4250  177.5670  135.4090 O   0  0  0  0  0  0  0  0  0  0  0  0
  181.8840  175.3860  134.6650 C   0  0  0  0  0  2  0  0  0  0  0  0
  182.7550  177.8780  136.7320 C   0  0  0  0  0  2  0  0  0  0  0  0
  183.8050  176.9200  138.7660 C   0  0  0  0  0  1  0  0  0  0  0  0
  183.7070  176.8160  137.2580 C   0  0  1  0  0  3  0  0  0  0  0  0
  183.2470  175.4030  136.8570 C   0  0  1  0  0  3  0  0  0  0  0  0
  181.4220  176.5830  135.4690 C   0  0  1  0  0  3  0  0  0  0  0  0
  181.8580  175.2860  136.1810 C   0  0  1  0  0  3  0  0  0  0  0  0
  188.1590  178.6100  137.4430 C   0  0  0  0  0  3  0  0  0  0  0  0
  187.6310  176.6300  136.2810 C   0  0  1  0  0  0  0  0  0  0  0  0
  188.6120  176.0470  135.2700 C   0  0  0  0  0  1  0  0  0  0  0  0
  187.3810  179.0030  136.4530 C   0  0  0  0  0  3  0  0  0  0  0  0
  186.9420  177.8330  135.6290 C   0  0  0  0  0  2  0  0  0  0  0  0
  188.3410  177.2070  137.4200 N   0  0  0  0  0  0  0  0  0  0  0  0
  189.1530  176.4890  138.3940 C   0  0  0  0  0  2  0  0  0  0  0  0
  190.2690  177.1270  140.8920 S   0  0  0  0  0  0  0  0  0  0  0  0
  187.9660  177.7780  140.1770 N   0  0  0  0  0  0  0  0  0  0  0  0
  189.3690  177.9880  142.0250 C   0  0  0  0  0  3  0  0  0  0  0  0
  189.0640  177.1380  139.7310 C   0  0  0  0  0  0  0  0  0  0  0  0
  188.1310  178.2540  141.4420 C   0  0  0  0  0  3  0  0  0  0  0  0
  1 11  1  0  0  0  0
  1  8  1  0  0  0  0
  3  9  1  0  0  0  0
  3  2  1  0  0  0  0
  4 12  1  0  0  0  0
  5  6  1  0  0  0  0
  5  4  1  0  0  0  0
  6  3  1  0  0  0  0
  7 12  1  0  0  0  0
  8  9  1  0  0  0  0
 10  4  1  0  0  0  0
 10  7  1  0  0  0  0
 11 18  1  0  0  0  0
 11  2  1  0  0  0  0
 12  2  1  0  0  0  0
 13 19  1  0  0  0  0
 13 15  1  0  0  0  0
 14 19  1  0  0  0  0
 14 20  1  0  0  0  0
 15 17  1  0  0  0  0
 17 16  1  0  0  0  0
 18 17  1  0  0  0  0
 19 20  1  0  0  0  0
 20 18  1  0  0  0  0
 22  8  1  0  0  0  0
 22 26  1  0  0  0  0
 23 22  1  0  0  0  0
 24 21  2  0  0  0  0
 25 22  1  0  0  0  0
 25 24  1  0  0  0  0
 26 21  1  0  0  0  0
 26 27  1  0  0  0  0
 27 31  1  0  0  0  0
 28 30  1  0  0  0  0
 29 32  1  0  0  0  0
 31 29  2  0  0  0  0
 31 28  1  0  0  0  0
 32 30  2  0  0  0  0
M  END
>  <MODEL>
7

>  <REMARK>
 VINA RESULT:      -5.6      6.387     10.452
  Name = 
  4 active torsions:
  status: ('A' for Active; 'I' for Inactive)
    1  A    between atoms: C_8  and  C_28
    2  A    between atoms: C_16  and  C_31
    3  A    between atoms: C_19  and  C_24
    4  A    between atoms: N_23  and  C_24
                            x       y       z     vdW  Elec       q    Type
                         _______ _______ _______ _____ _____    ______ ____

>  <TORSDO>
F 4

$$$$
=
 OpenBabel11052416523D

 32 38  0  0  1  0  0  0  0  0999 V2000
  182.3900  176.4360  138.3430 C   0  0  0  0  0  2  0  0  0  0  0  0
  180.6720  175.2700  136.8060 C   0  0  1  0  0  3  0  0  0  0  0  0
  179.6770  176.0600  137.6830 C   0  0  1  0  0  3  0  0  0  0  0  0
  179.5470  173.1480  137.7710 C   0  0  2  0  0  3  0  0  0  0  0  0
  179.8210  173.9070  139.0710 C   0  0  0  0  0  2  0  0  0  0  0  0
  179.2970  175.3420  138.9900 C   0  0  0  0  0  2  0  0  0  0  0  0
  181.1220  172.7550  136.3510 C   0  0  0  0  0  2  0  0  0  0  0  0
  181.6480  177.7030  137.9140 C   0  0  1  0  0  3  0  0  0  0  0  0
  180.1240  177.4980  137.9710 C   0  0  0  0  0  2  0  0  0  0  0  0
  180.5800  172.0520  137.5850 C   0  0  0  0  0  2  0  0  0  0  0  0
  182.1170  175.2790  137.3710 C   0  0  1  0  0  3  0  0  0  0  0  0
  180.0910  173.8590  136.5270 C   0  0  2  0  0  3  0  0  0  0  0  0
  185.7620  175.6360  136.9050 O   0  0  0  0  0  0  0  0  0  0  0  0
  184.6790  173.6470  137.5940 C   0  0  0  0  0  2  0  0  0  0  0  0
  185.3330  176.4240  135.8320 C   0  0  0  0  0  2  0  0  0  0  0  0
  183.2930  177.1030  134.5940 C   0  0  0  0  0  1  0  0  0  0  0  0
  183.8210  176.5650  135.9080 C   0  0  1  0  0  3  0  0  0  0  0  0
  183.1480  175.2200  136.2340 C   0  0  1  0  0  3  0  0  0  0  0  0
  185.5390  174.2980  136.5310 C   0  0  1  0  0  3  0  0  0  0  0  0
  184.0600  173.9680  136.2430 C   0  0  1  0  0  3  0  0  0  0  0  0
  180.8060  180.1760  140.2280 C   0  0  0  0  0  3  0  0  0  0  0  0
  182.1060  178.9540  138.6900 C   0  0  1  0  0  0  0  0  0  0  0  0
  183.6260  179.0570  138.7160 C   0  0  0  0  0  1  0  0  0  0  0  0
  180.7810  180.8970  139.1240 C   0  0  0  0  0  3  0  0  0  0  0  0
  181.5580  180.2260  138.0350 C   0  0  0  0  0  2  0  0  0  0  0  0
  181.5600  178.9940  140.0440 N   0  0  0  0  0  0  0  0  0  0  0  0
  181.7620  178.0020  141.0930 C   0  0  0  0  0  2  0  0  0  0  0  0
  184.3060  178.6280  142.1070 S   0  0  0  0  0  0  0  0  0  0  0  0
  182.1710  179.0020  143.3480 N   0  0  0  0  0  0  0  0  0  0  0  0
  184.4640  179.2860  143.6490 C   0  0  0  0  0  3  0  0  0  0  0  0
  182.6360  178.5480  142.1690 C   0  0  0  0  0  0  0  0  0  0  0  0
  183.1760  179.4160  144.1680 C   0  0  0  0  0  3  0  0  0  0  0  0
  2 11  1  0  0  0  0
  2  3  1  0  0  0  0
  3  9  1  0  0  0  0
  3  6  1  0  0  0  0
  4  5  1  0  0  0  0
  6  5  1  0  0  0  0
  7 12  1  0  0  0  0
  7 10  1  0  0  0  0
  8  9  1  0  0  0  0
  8  1  1  0  0  0  0
  8 22  1  0  0  0  0
 10  4  1  0  0  0  0
 11  1  1  0  0  0  0
 12  2  1  0  0  0  0
 12  4  1  0  0  0  0
 15 17  1  0  0  0  0
 15 13  1  0  0  0  0
 16 17  1  0  0  0  0
 17 18  1  0  0  0  0
 18 20  1  0  0  0  0
 18 11  1  0  0  0  0
 19 13  1  0  0  0  0
 19 14  1  0  0  0  0
 20 19  1  0  0  0  0
 20 14  1  0  0  0  0
 22 23  1  0  0  0  0
 22 26  1  0  0  0  0
 24 21  2  0  0  0  0
 25 22  1  0  0  0  0
 25 24  1  0  0  0  0
 26 21  1  0  0  0  0
 26 27  1  0  0  0  0
 27 31  1  0  0  0  0
 28 31  1  0  0  0  0
 28 30  1  0  0  0  0
 29 32  1  0  0  0  0
 30 32  2  0  0  0  0
 31 29  2  0  0  0  0
M  END
>  <MODEL>
8

>  <REMARK>
 VINA RESULT:      -5.6      5.152      9.163
  Name = 
  4 active torsions:
  status: ('A' for Active; 'I' for Inactive)
    1  A    between atoms: C_8  and  C_28
    2  A    between atoms: C_16  and  C_31
    3  A    between atoms: C_19  and  C_24
    4  A    between atoms: N_23  and  C_24
                            x       y       z     vdW  Elec       q    Type
                         _______ _______ _______ _____ _____    ______ ____

>  <TORSDO>
F 4

$$$$
=
 OpenBabel11052416523D

 32 38  0  0  1  0  0  0  0  0999 V2000
  188.9550  176.4240  136.2440 C   0  0  0  0  0  2  0  0  0  0  0  0
  190.3540  174.4770  137.2040 C   0  0  1  0  0  3  0  0  0  0  0  0
  190.9870  175.6230  138.0230 C   0  0  1  0  0  3  0  0  0  0  0  0
  192.7100  174.1630  136.1770 C   0  0  2  0  0  3  0  0  0  0  0  0
  192.5440  175.6720  135.9840 C   0  0  0  0  0  2  0  0  0  0  0  0
  192.1290  176.3510  137.2910 C   0  0  0  0  0  2  0  0  0  0  0  0
  191.2280  172.7740  135.4520 C   0  0  0  0  0  2  0  0  0  0  0  0
  188.6730  176.7150  137.7190 C   0  0  1  0  0  3  0  0  0  0  0  0
  189.9620  176.6320  138.5550 C   0  0  0  0  0  2  0  0  0  0  0  0
  192.4590  173.4440  134.8640 C   0  0  0  0  0  2  0  0  0  0  0  0
  189.4520  174.9850  136.0480 C   0  0  1  0  0  3  0  0  0  0  0  0
  191.4680  173.4880  136.7720 C   0  0  2  0  0  3  0  0  0  0  0  0
  185.7820  174.8420  136.4250 O   0  0  0  0  0  0  0  0  0  0  0  0
  186.9120  175.8260  134.5940 C   0  0  0  0  0  2  0  0  0  0  0  0
  186.0980  173.5850  136.9500 C   0  0  0  0  0  2  0  0  0  0  0  0
  187.9950  172.0200  137.2760 C   0  0  0  0  0  1  0  0  0  0  0  0
  187.6100  173.4670  137.0510 C   0  0  1  0  0  3  0  0  0  0  0  0
  188.3000  174.0040  135.7840 C   0  0  1  0  0  3  0  0  0  0  0  0
  185.9470  174.7450  135.0320 C   0  0  1  0  0  3  0  0  0  0  0  0
  187.3810  174.3810  134.5950 C   0  0  1  0  0  3  0  0  0  0  0  0
  186.3210  178.4640  139.6140 C   0  0  0  0  0  3  0  0  0  0  0  0
  187.9150  178.0400  137.9320 C   0  0  1  0  0  0  0  0  0  0  0  0
  188.6270  179.1970  137.2390 C   0  0  0  0  0  1  0  0  0  0  0  0
  185.6080  178.2570  138.5240 C   0  0  0  0  0  3  0  0  0  0  0  0
  186.4970  177.9490  137.3600 C   0  0  0  0  0  2  0  0  0  0  0  0
  187.7040  178.3340  139.3470 N   0  0  0  0  0  0  0  0  0  0  0  0
  188.7360  178.5090  140.3630 C   0  0  0  0  0  2  0  0  0  0  0  0
  189.0690  176.4980  142.2970 S   0  0  0  0  0  0  0  0  0  0  0  0
  187.2860  178.2460  142.3840 N   0  0  0  0  0  0  0  0  0  0  0  0
  188.0210  176.4080  143.6120 C   0  0  0  0  0  3  0  0  0  0  0  0
  188.3330  177.8480  141.6360 C   0  0  0  0  0  0  0  0  0  0  0  0
  187.1130  177.4570  143.4790 C   0  0  0  0  0  3  0  0  0  0  0  0
  1  8  1  0  0  0  0
  2  3  1  0  0  0  0
  3  9  1  0  0  0  0
  4 12  1  0  0  0  0
  5  4  1  0  0  0  0
  5  6  1  0  0  0  0
  6  3  1  0  0  0  0
  7 12  1  0  0  0  0
  8 22  1  0  0  0  0
  8  9  1  0  0  0  0
 10  7  1  0  0  0  0
 10  4  1  0  0  0  0
 11  1  1  0  0  0  0
 11  2  1  0  0  0  0
 12  2  1  0  0  0  0
 13 15  1  0  0  0  0
 14 20  1  0  0  0  0
 14 19  1  0  0  0  0
 15 17  1  0  0  0  0
 17 16  1  0  0  0  0
 18 11  1  0  0  0  0
 18 17  1  0  0  0  0
 19 13  1  0  0  0  0
 20 19  1  0  0  0  0
 20 18  1  0  0  0  0
 22 26  1  0  0  0  0
 23 22  1  0  0  0  0
 24 21  2  0  0  0  0
 25 22  1  0  0  0  0
 25 24  1  0  0  0  0
 26 21  1  0  0  0  0
 26 27  1  0  0  0  0
 27 31  1  0  0  0  0
 28 30  1  0  0  0  0
 29 32  1  0  0  0  0
 31 28  1  0  0  0  0
 31 29  2  0  0  0  0
 32 30  2  0  0  0  0
M  END
>  <MODEL>
9

>  <REMARK>
 VINA RESULT:      -5.5      5.787      9.206
  Name = 
  4 active torsions:
  status: ('A' for Active; 'I' for Inactive)
    1  A    between atoms: C_8  and  C_28
    2  A    between atoms: C_16  and  C_31
    3  A    between atoms: C_19  and  C_24
    4  A    between atoms: N_23  and  C_24
                            x       y       z     vdW  Elec       q    Type
                         _______ _______ _______ _____ _____    ______ ____

>  <TORSDO>
F 4

$$$$
