=
 OpenBabel11052413323D

 28 32  0  0  1  0  0  0  0  0999 V2000
  190.7040  176.2670  137.4950 N   0  0  0  0  0  0  0  0  0  0  0  0
  189.9560  176.8920  139.6380 C   0  0  1  0  0  3  0  0  0  0  0  0
  189.6460  177.9250  138.6580 C   0  0  0  0  0  0  0  0  0  0  0  0
  189.0410  179.0050  138.8840 O   0  0  0  0  0  0  0  0  0  0  0  0
  190.0580  177.5080  137.3930 N   0  0  0  0  0  2  0  0  0  0  0  0
  190.6240  175.8430  138.8530 N   0  0  0  0  0  2  0  0  0  0  0  0
  192.0630  177.5250  140.5140 O   0  0  0  0  0  0  0  0  0  0  0  0
  190.8660  177.3970  140.7220 C   0  0  0  0  0  0  0  0  0  0  0  0
  191.3120  176.8530  145.7510 C   0  0  0  0  0  3  0  0  0  0  0  0
  188.9600  176.8650  144.6060 C   0  0  1  0  0  3  0  0  0  0  0  0
  190.9610  175.7510  143.5590 C   0  0  0  0  0  2  0  0  0  0  0  0
  189.2920  177.3950  147.0260 C   0  0  0  0  0  0  0  0  0  0  0  0
  190.5000  176.8530  144.4940 C   0  0  2  0  0  0  0  0  0  0  0  0
  188.8380  177.3490  142.1720 C   0  0  0  0  0  2  0  0  0  0  0  0
  188.4850  177.3110  145.9630 C   0  0  0  0  0  3  0  0  0  0  0  0
  191.2320  177.2030  143.1990 C   0  0  2  0  0  3  0  0  0  0  0  0
  188.3080  177.7320  143.5390 C   0  0  0  0  0  2  0  0  0  0  0  0
  188.7270  177.8090  148.3360 C   0  0  0  0  0  1  0  0  0  0  0  0
  190.7350  177.1140  146.9230 C   0  0  0  0  0  3  0  0  0  0  0  0
  190.3150  177.7330  142.0730 C   0  0  1  0  0  3  0  0  0  0  0  0
  190.0290  175.2960  136.6150 C   0  0  0  0  0  2  0  0  0  0  0  0
  188.8540  174.5190  137.2360 C   0  0  2  0  0  3  0  0  0  0  0  0
  186.5190  172.9620  136.7050 C   0  0  0  0  0  0  0  0  0  0  0  0
  188.8780  173.1250  136.9050 O   0  0  0  0  0  0  0  0  0  0  0  0
  187.5190  175.1690  136.9770 C   0  0  0  0  0  3  0  0  0  0  0  0
  186.4320  174.4290  136.7590 C   0  0  0  0  0  3  0  0  0  0  0  0
  185.2880  172.1500  136.5270 C   0  0  0  0  0  1  0  0  0  0  0  0
  187.7090  172.3650  136.7570 C   0  0  0  0  0  3  0  0  0  0  0  0
  1  6  1  0  0  0  0
  2  8  1  1  0  0  0
  3  4  2  0  0  0  0
  3  2  1  0  0  0  0
  5  1  1  0  0  0  0
  5  3  1  0  0  0  0
  6  2  1  0  0  0  0
  7  8  2  0  0  0  0
  9 19  2  0  0  0  0
 10 17  1  6  0  0  0
 10 15  1  0  0  0  0
 12 18  1  0  0  0  0
 13 11  1  6  0  0  0
 13 10  1  0  0  0  0
 13  9  1  0  0  0  0
 14 17  1  0  0  0  0
 15 12  2  0  0  0  0
 16 11  1  6  0  0  0
 16 13  1  0  0  0  0
 19 12  1  0  0  0  0
 20  8  1  6  0  0  0
 20 14  1  0  0  0  0
 20 16  1  0  0  0  0
 21  1  1  0  0  0  0
 22 21  1  6  0  0  0
 23 28  2  0  0  0  0
 23 26  1  0  0  0  0
 24 22  1  0  0  0  0
 25 22  1  0  0  0  0
 26 25  2  0  0  0  0
 27 23  1  0  0  0  0
 28 24  1  0  0  0  0
M  END
>  <MODEL>
1

>  <REMARK>
 VINA RESULT:      -9.0      0.000      0.000
  Name = 
  4 active torsions:
  status: ('A' for Active; 'I' for Inactive)
    1  A    between atoms: N_1  and  C_2
    2  A    between atoms: C_2  and  C_3
    3  A    between atoms: C_16  and  C_20
    4  A    between atoms: C_20  and  C_25
                            x       y       z     vdW  Elec       q    Type
                         _______ _______ _______ _____ _____    ______ ____

>  <TORSDO>
F 4

$$$$
=
 OpenBabel11052413323D

 28 32  0  0  1  0  0  0  0  0999 V2000
  190.2650  176.6920  141.3660 N   0  0  0  0  0  0  0  0  0  0  0  0
  188.8990  177.9440  142.8190 C   0  0  1  0  0  3  0  0  0  0  0  0
  190.3050  178.2690  143.0200 C   0  0  0  0  0  0  0  0  0  0  0  0
  190.7640  179.1140  143.8320 O   0  0  0  0  0  0  0  0  0  0  0  0
  191.0850  177.5480  142.1170 N   0  0  0  0  0  2  0  0  0  0  0  0
  188.9140  176.9390  141.7460 N   0  0  0  0  0  2  0  0  0  0  0  0
  188.9560  176.8400  144.9130 O   0  0  0  0  0  0  0  0  0  0  0  0
  188.2680  177.3790  144.0600 C   0  0  0  0  0  0  0  0  0  0  0  0
  183.7600  178.4680  141.9890 C   0  0  0  0  0  3  0  0  0  0  0  0
  184.2850  179.1030  144.4720 C   0  0  1  0  0  3  0  0  0  0  0  0
  186.0060  179.2890  142.6420 C   0  0  0  0  0  2  0  0  0  0  0  0
  181.9560  178.8530  143.6010 C   0  0  0  0  0  0  0  0  0  0  0  0
  184.7540  178.5650  143.1030 C   0  0  2  0  0  0  0  0  0  0  0  0
  186.4360  178.3390  145.4530 C   0  0  0  0  0  2  0  0  0  0  0  0
  182.7880  179.0540  144.6270 C   0  0  0  0  0  3  0  0  0  0  0  0
  186.0640  177.7960  142.9280 C   0  0  2  0  0  3  0  0  0  0  0  0
  184.9320  178.3690  145.6370 C   0  0  0  0  0  2  0  0  0  0  0  0
  180.4900  178.8590  143.8420 C   0  0  0  0  0  1  0  0  0  0  0  0
  182.4580  178.5990  142.2380 C   0  0  0  0  0  3  0  0  0  0  0  0
  186.7840  177.4580  144.2540 C   0  0  1  0  0  3  0  0  0  0  0  0
  190.4530  176.9740  139.9330 C   0  0  0  0  0  2  0  0  0  0  0  0
  189.1810  177.3130  139.1340 C   0  0  2  0  0  3  0  0  0  0  0  0
  188.0710  177.7130  136.5320 C   0  0  0  0  0  0  0  0  0  0  0  0
  188.7780  176.2490  138.2610 O   0  0  0  0  0  0  0  0  0  0  0  0
  189.2610  178.6500  138.4440 C   0  0  0  0  0  3  0  0  0  0  0  0
  188.7130  178.8300  137.2420 C   0  0  0  0  0  3  0  0  0  0  0  0
  187.4090  177.9450  135.2230 C   0  0  0  0  0  1  0  0  0  0  0  0
  188.1370  176.4810  137.0370 C   0  0  0  0  0  3  0  0  0  0  0  0
  1  6  1  0  0  0  0
  1  5  1  0  0  0  0
  2  3  1  0  0  0  0
  2  8  1  1  0  0  0
  3  4  2  0  0  0  0
  5  3  1  0  0  0  0
  6  2  1  0  0  0  0
  8  7  2  0  0  0  0
  9 19  2  0  0  0  0
 10 15  1  1  0  0  0
 10 17  1  0  0  0  0
 11 13  1  0  0  0  0
 12 18  1  0  0  0  0
 12 15  2  0  0  0  0
 13  9  1  6  0  0  0
 13 10  1  0  0  0  0
 14 17  1  0  0  0  0
 16 11  1  6  0  0  0
 16 13  1  0  0  0  0
 16 20  1  0  0  0  0
 19 12  1  0  0  0  0
 20  8  1  6  0  0  0
 20 14  1  0  0  0  0
 21  1  1  0  0  0  0
 22 21  1  6  0  0  0
 23 28  2  0  0  0  0
 23 26  1  0  0  0  0
 24 22  1  0  0  0  0
 25 22  1  0  0  0  0
 26 25  2  0  0  0  0
 27 23  1  0  0  0  0
 28 24  1  0  0  0  0
M  END
>  <MODEL>
2

>  <REMARK>
 VINA RESULT:      -9.0      3.686      5.544
  Name = 
  4 active torsions:
  status: ('A' for Active; 'I' for Inactive)
    1  A    between atoms: N_1  and  C_2
    2  A    between atoms: C_2  and  C_3
    3  A    between atoms: C_16  and  C_20
    4  A    between atoms: C_20  and  C_25
                            x       y       z     vdW  Elec       q    Type
                         _______ _______ _______ _____ _____    ______ ____

>  <TORSDO>
F 4

$$$$
=
 OpenBabel11052413323D

 28 32  0  0  1  0  0  0  0  0999 V2000
  189.3860  176.2560  137.0950 N   0  0  0  0  0  0  0  0  0  0  0  0
  189.0340  177.2910  139.1800 C   0  0  1  0  0  3  0  0  0  0  0  0
  189.1190  178.2830  138.1160 C   0  0  0  0  0  0  0  0  0  0  0  0
  189.0010  179.5290  138.2500 O   0  0  0  0  0  0  0  0  0  0  0  0
  189.2810  177.6390  136.8900 N   0  0  0  0  0  2  0  0  0  0  0  0
  189.1990  176.0060  138.4850 N   0  0  0  0  0  2  0  0  0  0  0  0
  191.2890  177.3570  139.9010 O   0  0  0  0  0  0  0  0  0  0  0  0
  190.1120  177.4750  140.2100 C   0  0  0  0  0  0  0  0  0  0  0  0
  191.1670  176.7430  145.1230 C   0  0  0  0  0  3  0  0  0  0  0  0
  188.6920  176.8960  144.2900 C   0  0  1  0  0  3  0  0  0  0  0  0
  190.4890  175.7320  142.9650 C   0  0  0  0  0  2  0  0  0  0  0  0
  189.3520  177.3300  146.6610 C   0  0  0  0  0  0  0  0  0  0  0  0
  190.2030  176.8210  143.9820 C   0  0  2  0  0  0  0  0  0  0  0  0
  188.2850  177.4660  141.9060 C   0  0  0  0  0  2  0  0  0  0  0  0
  188.4140  177.3160  145.7090 C   0  0  0  0  0  3  0  0  0  0  0  0
  190.7810  177.1830  142.6130 C   0  0  2  0  0  3  0  0  0  0  0  0
  187.9510  177.8250  143.3400 C   0  0  0  0  0  2  0  0  0  0  0  0
  188.9780  177.7230  148.0440 C   0  0  0  0  0  1  0  0  0  0  0  0
  190.7560  176.9900  146.3670 C   0  0  0  0  0  3  0  0  0  0  0  0
  189.7530  177.7890  141.6300 C   0  0  1  0  0  3  0  0  0  0  0  0
  188.3470  175.5690  136.3080 C   0  0  0  0  0  2  0  0  0  0  0  0
  187.2800  174.8040  137.1120 C   0  0  2  0  0  3  0  0  0  0  0  0
  185.0540  173.0190  136.9680 C   0  0  0  0  0  0  0  0  0  0  0  0
  187.3990  173.3820  136.9740 O   0  0  0  0  0  0  0  0  0  0  0  0
  185.8830  175.3100  136.8620 C   0  0  0  0  0  3  0  0  0  0  0  0
  184.8490  174.4680  136.8260 C   0  0  0  0  0  3  0  0  0  0  0  0
  183.8860  172.1010  136.9910 C   0  0  0  0  0  1  0  0  0  0  0  0
  186.2910  172.5250  137.0160 C   0  0  0  0  0  3  0  0  0  0  0  0
  1  6  1  0  0  0  0
  2  8  1  1  0  0  0
  3  4  2  0  0  0  0
  3  2  1  0  0  0  0
  5  1  1  0  0  0  0
  5  3  1  0  0  0  0
  6  2  1  0  0  0  0
  7  8  2  0  0  0  0
  9 19  2  0  0  0  0
 10 17  1  6  0  0  0
 10 15  1  0  0  0  0
 12 18  1  0  0  0  0
 13 11  1  6  0  0  0
 13 10  1  0  0  0  0
 13  9  1  0  0  0  0
 14 17  1  0  0  0  0
 15 12  2  0  0  0  0
 16 11  1  6  0  0  0
 16 13  1  0  0  0  0
 19 12  1  0  0  0  0
 20  8  1  6  0  0  0
 20 14  1  0  0  0  0
 20 16  1  0  0  0  0
 21  1  1  0  0  0  0
 22 21  1  6  0  0  0
 23 27  1  0  0  0  0
 23 28  2  0  0  0  0
 24 28  1  0  0  0  0
 24 22  1  0  0  0  0
 25 22  1  0  0  0  0
 26 25  2  0  0  0  0
 26 23  1  0  0  0  0
M  END
>  <MODEL>
3

>  <REMARK>
 VINA RESULT:      -8.6      0.942      1.082
  Name = 
  4 active torsions:
  status: ('A' for Active; 'I' for Inactive)
    1  A    between atoms: N_1  and  C_2
    2  A    between atoms: C_2  and  C_3
    3  A    between atoms: C_16  and  C_20
    4  A    between atoms: C_20  and  C_25
                            x       y       z     vdW  Elec       q    Type
                         _______ _______ _______ _____ _____    ______ ____

>  <TORSDO>
F 4

$$$$
=
 OpenBabel11052413323D

 28 32  0  0  1  0  0  0  0  0999 V2000
  183.0350  177.2800  139.4860 N   0  0  0  0  0  0  0  0  0  0  0  0
  184.1280  178.8800  140.8240 C   0  0  1  0  0  3  0  0  0  0  0  0
  183.9560  179.3710  139.4640 C   0  0  0  0  0  0  0  0  0  0  0  0
  184.3080  180.4990  139.0310 O   0  0  0  0  0  0  0  0  0  0  0  0
  183.2670  178.4240  138.7080 N   0  0  0  0  0  2  0  0  0  0  0  0
  183.5170  177.5420  140.8010 N   0  0  0  0  0  2  0  0  0  0  0  0
  186.4360  178.6200  140.3610 O   0  0  0  0  0  0  0  0  0  0  0  0
  185.5760  178.7890  141.2130 C   0  0  0  0  0  0  0  0  0  0  0  0
  188.9910  177.5710  144.7680 C   0  0  0  0  0  3  0  0  0  0  0  0
  186.4320  177.5770  145.3120 C   0  0  1  0  0  3  0  0  0  0  0  0
  187.3390  176.7680  143.1050 C   0  0  0  0  0  2  0  0  0  0  0  0
  188.1920  177.7810  147.0750 C   0  0  0  0  0  0  0  0  0  0  0  0
  187.5800  177.6910  144.2860 C   0  0  2  0  0  0  0  0  0  0  0  0
  184.8610  178.3910  143.5680 C   0  0  0  0  0  2  0  0  0  0  0  0
  186.9020  177.7910  146.7260 C   0  0  0  0  0  3  0  0  0  0  0  0
  187.3770  178.2730  142.8870 C   0  0  2  0  0  3  0  0  0  0  0  0
  185.2900  178.5370  145.0140 C   0  0  0  0  0  2  0  0  0  0  0  0
  188.5610  177.9630  148.5030 C   0  0  0  0  0  1  0  0  0  0  0  0
  189.2610  177.6210  146.0730 C   0  0  0  0  0  3  0  0  0  0  0  0
  185.9790  178.8900  142.6520 C   0  0  1  0  0  3  0  0  0  0  0  0
  181.5890  176.9990  139.5170 C   0  0  0  0  0  2  0  0  0  0  0  0
  181.0620  176.0270  138.4460 C   0  0  2  0  0  3  0  0  0  0  0  0
  180.6960  173.2860  137.7310 C   0  0  0  0  0  0  0  0  0  0  0  0
  179.9860  175.2100  138.9240 O   0  0  0  0  0  0  0  0  0  0  0  0
  182.1590  175.2360  137.7820 C   0  0  0  0  0  3  0  0  0  0  0  0
  181.9650  173.9650  137.4270 C   0  0  0  0  0  3  0  0  0  0  0  0
  180.4700  171.8920  137.2710 C   0  0  0  0  0  1  0  0  0  0  0  0
  179.7730  173.9020  138.4680 C   0  0  0  0  0  3  0  0  0  0  0  0
  1 21  1  0  0  0  0
  1  6  1  0  0  0  0
  2  8  1  6  0  0  0
  3  2  1  0  0  0  0
  4  3  2  0  0  0  0
  5  3  1  0  0  0  0
  5  1  1  0  0  0  0
  6  2  1  0  0  0  0
  7  8  2  0  0  0  0
  9 19  2  0  0  0  0
 10 17  1  6  0  0  0
 10 15  1  0  0  0  0
 12 18  1  0  0  0  0
 13 11  1  6  0  0  0
 13  9  1  0  0  0  0
 13 10  1  0  0  0  0
 14 17  1  0  0  0  0
 15 12  2  0  0  0  0
 16 11  1  6  0  0  0
 16 13  1  0  0  0  0
 19 12  1  0  0  0  0
 20  8  1  6  0  0  0
 20 16  1  0  0  0  0
 20 14  1  0  0  0  0
 22 24  1  0  0  0  0
 22 21  1  1  0  0  0
 23 28  2  0  0  0  0
 25 22  1  0  0  0  0
 26 23  1  0  0  0  0
 26 25  2  0  0  0  0
 27 23  1  0  0  0  0
 28 24  1  0  0  0  0
M  END
>  <MODEL>
4

>  <REMARK>
 VINA RESULT:      -8.6      4.599      5.531
  Name = 
  4 active torsions:
  status: ('A' for Active; 'I' for Inactive)
    1  A    between atoms: N_1  and  C_2
    2  A    between atoms: C_2  and  C_3
    3  A    between atoms: C_16  and  C_20
    4  A    between atoms: C_20  and  C_25
                            x       y       z     vdW  Elec       q    Type
                         _______ _______ _______ _____ _____    ______ ____

>  <TORSDO>
F 4

$$$$
=
 OpenBabel11052413323D

 28 32  0  0  1  0  0  0  0  0999 V2000
  190.7200  176.3280  137.4990 N   0  0  0  0  0  0  0  0  0  0  0  0
  189.9550  176.8900  139.6530 C   0  0  1  0  0  3  0  0  0  0  0  0
  189.6310  177.9400  138.6970 C   0  0  0  0  0  0  0  0  0  0  0  0
  189.0070  179.0050  138.9460 O   0  0  0  0  0  0  0  0  0  0  0  0
  190.0540  177.5600  137.4250 N   0  0  0  0  0  2  0  0  0  0  0  0
  190.6430  175.8710  138.8460 N   0  0  0  0  0  2  0  0  0  0  0  0
  192.0540  177.5030  140.5630 O   0  0  0  0  0  0  0  0  0  0  0  0
  190.8520  177.3840  140.7520 C   0  0  0  0  0  0  0  0  0  0  0  0
  191.2480  176.8670  145.7880 C   0  0  0  0  0  3  0  0  0  0  0  0
  188.9080  176.8550  144.6180 C   0  0  1  0  0  3  0  0  0  0  0  0
  190.9310  175.7520  143.5980 C   0  0  0  0  0  2  0  0  0  0  0  0
  189.2090  177.3980  147.0390 C   0  0  0  0  0  0  0  0  0  0  0  0
  190.4500  176.8550  144.5230 C   0  0  2  0  0  0  0  0  0  0  0  0
  188.8090  177.3260  142.1800 C   0  0  0  0  0  2  0  0  0  0  0  0
  188.4150  177.3020  145.9680 C   0  0  0  0  0  3  0  0  0  0  0  0
  191.1930  177.2050  143.2340 C   0  0  2  0  0  3  0  0  0  0  0  0
  188.2610  177.7110  143.5400 C   0  0  0  0  0  2  0  0  0  0  0  0
  188.6260  177.8130  148.3410 C   0  0  0  0  0  1  0  0  0  0  0  0
  190.6560  177.1280  146.9530 C   0  0  0  0  0  3  0  0  0  0  0  0
  190.2840  177.7220  142.0960 C   0  0  1  0  0  3  0  0  0  0  0  0
  190.0650  175.3670  136.5940 C   0  0  0  0  0  2  0  0  0  0  0  0
  191.0000  174.5020  135.7290 C   0  0  2  0  0  3  0  0  0  0  0  0
  193.6830  173.6010  135.3400 C   0  0  0  0  0  0  0  0  0  0  0  0
  191.6020  173.4320  136.4690 O   0  0  0  0  0  0  0  0  0  0  0  0
  191.9970  175.3180  134.9470 C   0  0  0  0  0  3  0  0  0  0  0  0
  193.2380  174.8710  134.7490 C   0  0  0  0  0  3  0  0  0  0  0  0
  195.0470  173.0850  135.0560 C   0  0  0  0  0  1  0  0  0  0  0  0
  192.8830  172.9420  136.1780 C   0  0  0  0  0  3  0  0  0  0  0  0
  1  6  1  0  0  0  0
  2  8  1  1  0  0  0
  3  4  2  0  0  0  0
  3  2  1  0  0  0  0
  5  1  1  0  0  0  0
  5  3  1  0  0  0  0
  6  2  1  0  0  0  0
  7  8  2  0  0  0  0
  9 19  2  0  0  0  0
 10 17  1  6  0  0  0
 10 15  1  0  0  0  0
 12 18  1  0  0  0  0
 13 11  1  6  0  0  0
 13 10  1  0  0  0  0
 13  9  1  0  0  0  0
 14 17  1  0  0  0  0
 15 12  2  0  0  0  0
 16 11  1  6  0  0  0
 16 13  1  0  0  0  0
 19 12  1  0  0  0  0
 20  8  1  6  0  0  0
 20 14  1  0  0  0  0
 20 16  1  0  0  0  0
 21  1  1  0  0  0  0
 22 24  1  0  0  0  0
 22 21  1  1  0  0  0
 23 28  2  0  0  0  0
 25 22  1  0  0  0  0
 26 25  2  0  0  0  0
 26 23  1  0  0  0  0
 27 23  1  0  0  0  0
 28 24  1  0  0  0  0
M  END
>  <MODEL>
5

>  <REMARK>
 VINA RESULT:      -8.6      1.864      3.098
  Name = 
  4 active torsions:
  status: ('A' for Active; 'I' for Inactive)
    1  A    between atoms: N_1  and  C_2
    2  A    between atoms: C_2  and  C_3
    3  A    between atoms: C_16  and  C_20
    4  A    between atoms: C_20  and  C_25
                            x       y       z     vdW  Elec       q    Type
                         _______ _______ _______ _____ _____    ______ ____

>  <TORSDO>
F 4

$$$$
=
 OpenBabel11052413323D

 28 32  0  0  1  0  0  0  0  0999 V2000
  184.9150  179.4310  139.3550 N   0  0  0  0  0  0  0  0  0  0  0  0
  184.7210  178.2270  141.3690 C   0  0  1  0  0  3  0  0  0  0  0  0
  183.6620  177.8580  140.4390 C   0  0  0  0  0  0  0  0  0  0  0  0
  182.7630  177.0000  140.6380 O   0  0  0  0  0  0  0  0  0  0  0  0
  183.8290  178.5520  139.2410 N   0  0  0  0  0  2  0  0  0  0  0  0
  185.5080  179.2290  140.6350 N   0  0  0  0  0  2  0  0  0  0  0  0
  183.0120  179.1790  142.7030 O   0  0  0  0  0  0  0  0  0  0  0  0
  184.1760  178.8140  142.6400 C   0  0  0  0  0  0  0  0  0  0  0  0
  188.5350  177.5250  144.9040 C   0  0  0  0  0  3  0  0  0  0  0  0
  186.3330  177.8020  146.2900 C   0  0  1  0  0  3  0  0  0  0  0  0
  186.3580  176.7690  143.9930 C   0  0  0  0  0  2  0  0  0  0  0  0
  188.6070  177.9590  147.3150 C   0  0  0  0  0  0  0  0  0  0  0  0
  187.0550  177.7420  144.9260 C   0  0  2  0  0  0  0  0  0  0  0  0
  184.3050  178.6390  145.1240 C   0  0  0  0  0  2  0  0  0  0  0  0
  187.2800  178.0640  147.4310 C   0  0  0  0  0  3  0  0  0  0  0  0
  186.4120  178.2460  143.6340 C   0  0  2  0  0  3  0  0  0  0  0  0
  185.2220  178.8410  146.3140 C   0  0  0  0  0  2  0  0  0  0  0  0
  189.4630  178.2000  148.5050 C   0  0  0  0  0  1  0  0  0  0  0  0
  189.2460  177.6360  146.0260 C   0  0  0  0  0  3  0  0  0  0  0  0
  185.0620  178.9720  143.8370 C   0  0  1  0  0  3  0  0  0  0  0  0
  185.8890  179.1410  138.2880 C   0  0  0  0  0  2  0  0  0  0  0  0
  186.9960  178.1290  138.6360 C   0  0  2  0  0  3  0  0  0  0  0  0
  189.5230  177.0450  137.8620 C   0  0  0  0  0  0  0  0  0  0  0  0
  188.2550  178.7590  138.9050 O   0  0  0  0  0  0  0  0  0  0  0  0
  187.0950  177.0030  137.6390 C   0  0  0  0  0  3  0  0  0  0  0  0
  188.2800  176.4880  137.3090 C   0  0  0  0  0  3  0  0  0  0  0  0
  190.8300  176.4180  137.5350 C   0  0  0  0  0  1  0  0  0  0  0  0
  189.4820  178.1480  138.6090 C   0  0  0  0  0  3  0  0  0  0  0  0
  1  6  1  0  0  0  0
  2  8  1  1  0  0  0
  3  4  2  0  0  0  0
  3  2  1  0  0  0  0
  5  1  1  0  0  0  0
  5  3  1  0  0  0  0
  6  2  1  0  0  0  0
  8  7  2  0  0  0  0
  9 13  1  0  0  0  0
  9 19  2  0  0  0  0
 10 17  1  6  0  0  0
 10 15  1  0  0  0  0
 12 15  2  0  0  0  0
 12 18  1  0  0  0  0
 13 11  1  6  0  0  0
 13 10  1  0  0  0  0
 14 17  1  0  0  0  0
 16 20  1  0  0  0  0
 16 11  1  6  0  0  0
 16 13  1  0  0  0  0
 19 12  1  0  0  0  0
 20  8  1  6  0  0  0
 20 14  1  0  0  0  0
 21  1  1  0  0  0  0
 22 21  1  6  0  0  0
 22 24  1  0  0  0  0
 23 28  2  0  0  0  0
 25 22  1  0  0  0  0
 26 25  2  0  0  0  0
 26 23  1  0  0  0  0
 27 23  1  0  0  0  0
 28 24  1  0  0  0  0
M  END
>  <MODEL>
6

>  <REMARK>
 VINA RESULT:      -8.5      3.673      5.267
  Name = 
  4 active torsions:
  status: ('A' for Active; 'I' for Inactive)
    1  A    between atoms: N_1  and  C_2
    2  A    between atoms: C_2  and  C_3
    3  A    between atoms: C_16  and  C_20
    4  A    between atoms: C_20  and  C_25
                            x       y       z     vdW  Elec       q    Type
                         _______ _______ _______ _____ _____    ______ ____

>  <TORSDO>
F 4

$$$$
=
 OpenBabel11052413323D

 28 32  0  0  1  0  0  0  0  0999 V2000
  191.2180  176.6000  137.9980 N   0  0  0  0  0  0  0  0  0  0  0  0
  189.7890  176.9600  139.8340 C   0  0  1  0  0  3  0  0  0  0  0  0
  189.5810  177.9730  138.8080 C   0  0  0  0  0  0  0  0  0  0  0  0
  188.7460  178.9130  138.8510 O   0  0  0  0  0  0  0  0  0  0  0  0
  190.4060  177.7080  137.7160 N   0  0  0  0  0  2  0  0  0  0  0  0
  190.8380  176.0940  139.2740 N   0  0  0  0  0  2  0  0  0  0  0  0
  191.4340  177.6860  141.3760 O   0  0  0  0  0  0  0  0  0  0  0  0
  190.2430  177.5590  141.1350 C   0  0  0  0  0  0  0  0  0  0  0  0
  188.9170  177.6180  146.0370 C   0  0  0  0  0  3  0  0  0  0  0  0
  187.1200  177.2900  144.1650 C   0  0  1  0  0  3  0  0  0  0  0  0
  189.4110  176.2520  144.0290 C   0  0  0  0  0  2  0  0  0  0  0  0
  186.5540  178.1130  146.4560 C   0  0  0  0  0  0  0  0  0  0  0  0
  188.5990  177.4050  144.5910 C   0  0  2  0  0  0  0  0  0  0  0  0
  187.8390  177.4880  141.7950 C   0  0  0  0  0  2  0  0  0  0  0  0
  186.1780  177.8380  145.2030 C   0  0  0  0  0  3  0  0  0  0  0  0
  189.7230  177.6750  143.5900 C   0  0  2  0  0  3  0  0  0  0  0  0
  186.8450  177.9700  142.8320 C   0  0  0  0  0  2  0  0  0  0  0  0
  185.5460  178.6160  147.4250 C   0  0  0  0  0  1  0  0  0  0  0  0
  187.9530  177.9540  146.8940 C   0  0  0  0  0  3  0  0  0  0  0  0
  189.2360  177.9910  142.1570 C   0  0  1  0  0  3  0  0  0  0  0  0
  191.0160  175.5740  136.9600 C   0  0  0  0  0  2  0  0  0  0  0  0
  192.2860  174.8820  136.4320 C   0  0  2  0  0  3  0  0  0  0  0  0
  195.0850  174.4750  136.8340 C   0  0  0  0  0  0  0  0  0  0  0  0
  192.8350  173.9470  137.3700 O   0  0  0  0  0  0  0  0  0  0  0  0
  193.3050  175.8540  135.8980 C   0  0  0  0  0  3  0  0  0  0  0  0
  194.6100  175.6370  136.0680 C   0  0  0  0  0  3  0  0  0  0  0  0
  196.5420  174.2110  136.9580 C   0  0  0  0  0  1  0  0  0  0  0  0
  194.2100  173.6930  137.4650 C   0  0  0  0  0  3  0  0  0  0  0  0
  1  6  1  0  0  0  0
  2  8  1  1  0  0  0
  3  4  2  0  0  0  0
  3  2  1  0  0  0  0
  5  1  1  0  0  0  0
  5  3  1  0  0  0  0
  6  2  1  0  0  0  0
  8  7  2  0  0  0  0
  9 19  2  0  0  0  0
 10 17  1  6  0  0  0
 10 13  1  0  0  0  0
 10 15  1  0  0  0  0
 12 19  1  0  0  0  0
 12 18  1  0  0  0  0
 13 11  1  1  0  0  0
 13  9  1  0  0  0  0
 14 20  1  0  0  0  0
 14 17  1  0  0  0  0
 15 12  2  0  0  0  0
 16 11  1  6  0  0  0
 16 13  1  0  0  0  0
 20  8  1  6  0  0  0
 20 16  1  0  0  0  0
 21  1  1  0  0  0  0
 22 21  1  1  0  0  0
 22 24  1  0  0  0  0
 23 27  1  0  0  0  0
 23 28  2  0  0  0  0
 24 28  1  0  0  0  0
 25 26  2  0  0  0  0
 25 22  1  0  0  0  0
 26 23  1  0  0  0  0
M  END
>  <MODEL>
7

>  <REMARK>
 VINA RESULT:      -8.4      2.563      4.000
  Name = 
  4 active torsions:
  status: ('A' for Active; 'I' for Inactive)
    1  A    between atoms: N_1  and  C_2
    2  A    between atoms: C_2  and  C_3
    3  A    between atoms: C_16  and  C_20
    4  A    between atoms: C_20  and  C_25
                            x       y       z     vdW  Elec       q    Type
                         _______ _______ _______ _____ _____    ______ ____

>  <TORSDO>
F 4

$$$$
=
 OpenBabel11052413323D

 28 32  0  0  1  0  0  0  0  0999 V2000
  187.6050  177.0140  136.8810 N   0  0  0  0  0  0  0  0  0  0  0  0
  187.2480  177.5010  139.1570 C   0  0  1  0  0  3  0  0  0  0  0  0
  186.3270  178.2520  138.3150 C   0  0  0  0  0  0  0  0  0  0  0  0
  185.4330  179.0440  138.7130 O   0  0  0  0  0  0  0  0  0  0  0  0
  186.5300  177.9100  136.9790 N   0  0  0  0  0  2  0  0  0  0  0  0
  188.0430  176.7130  138.2040 N   0  0  0  0  0  2  0  0  0  0  0  0
  189.0550  179.0080  139.4280 O   0  0  0  0  0  0  0  0  0  0  0  0
  188.1390  178.4030  139.9640 C   0  0  0  0  0  0  0  0  0  0  0  0
  189.8400  177.3990  144.6420 C   0  0  0  0  0  3  0  0  0  0  0  0
  187.2810  177.3330  144.1020 C   0  0  1  0  0  3  0  0  0  0  0  0
  189.0210  176.4950  142.4850 C   0  0  0  0  0  2  0  0  0  0  0  0
  188.1690  177.6450  146.4180 C   0  0  0  0  0  0  0  0  0  0  0  0
  188.7440  177.4580  143.6250 C   0  0  2  0  0  0  0  0  0  0  0  0
  186.5370  178.0450  141.8410 C   0  0  0  0  0  2  0  0  0  0  0  0
  187.1320  177.6010  145.5760 C   0  0  0  0  0  3  0  0  0  0  0  0
  189.1140  177.9940  142.2420 C   0  0  2  0  0  3  0  0  0  0  0  0
  186.3390  178.2450  143.3310 C   0  0  0  0  0  2  0  0  0  0  0  0
  187.9230  177.8780  147.8640 C   0  0  0  0  0  1  0  0  0  0  0  0
  189.5560  177.4940  145.9410 C   0  0  0  0  0  3  0  0  0  0  0  0
  187.9200  178.5560  141.4380 C   0  0  1  0  0  3  0  0  0  0  0  0
  187.1550  175.7880  136.2000 C   0  0  0  0  0  2  0  0  0  0  0  0
  185.8870  175.1220  136.7670 C   0  0  2  0  0  3  0  0  0  0  0  0
  184.2690  172.7680  136.7790 C   0  0  0  0  0  0  0  0  0  0  0  0
  186.1780  173.9530  137.5430 O   0  0  0  0  0  0  0  0  0  0  0  0
  184.8280  174.8920  135.7200 C   0  0  0  0  0  3  0  0  0  0  0  0
  184.0600  173.8020  135.7540 C   0  0  0  0  0  3  0  0  0  0  0  0
  183.3640  171.5920  136.8440 C   0  0  0  0  0  1  0  0  0  0  0  0
  185.3070  172.8570  137.6110 C   0  0  0  0  0  3  0  0  0  0  0  0
  1  5  1  0  0  0  0
  1  6  1  0  0  0  0
  2  8  1  6  0  0  0
  3  4  2  0  0  0  0
  3  2  1  0  0  0  0
  5  3  1  0  0  0  0
  6  2  1  0  0  0  0
  7  8  2  0  0  0  0
  9 19  2  0  0  0  0
 10 17  1  6  0  0  0
 10 15  1  0  0  0  0
 12 18  1  0  0  0  0
 13 11  1  6  0  0  0
 13 10  1  0  0  0  0
 13  9  1  0  0  0  0
 14 17  1  0  0  0  0
 15 12  2  0  0  0  0
 16 11  1  6  0  0  0
 16 13  1  0  0  0  0
 19 12  1  0  0  0  0
 20  8  1  6  0  0  0
 20 14  1  0  0  0  0
 20 16  1  0  0  0  0
 21  1  1  0  0  0  0
 22 21  1  6  0  0  0
 22 24  1  0  0  0  0
 23 27  1  0  0  0  0
 23 28  2  0  0  0  0
 24 28  1  0  0  0  0
 25 26  2  0  0  0  0
 25 22  1  0  0  0  0
 26 23  1  0  0  0  0
M  END
>  <MODEL>
8

>  <REMARK>
 VINA RESULT:      -8.3      1.957      2.604
  Name = 
  4 active torsions:
  status: ('A' for Active; 'I' for Inactive)
    1  A    between atoms: N_1  and  C_2
    2  A    between atoms: C_2  and  C_3
    3  A    between atoms: C_16  and  C_20
    4  A    between atoms: C_20  and  C_25
                            x       y       z     vdW  Elec       q    Type
                         _______ _______ _______ _____ _____    ______ ____

>  <TORSDO>
F 4

$$$$
=
 OpenBabel11052413323D

 28 32  0  0  1  0  0  0  0  0999 V2000
  190.4800  176.9120  141.3060 N   0  0  0  0  0  0  0  0  0  0  0  0
  189.0250  177.9890  142.8120 C   0  0  1  0  0  3  0  0  0  0  0  0
  190.4130  178.3260  143.1000 C   0  0  0  0  0  0  0  0  0  0  0  0
  190.8170  179.1030  144.0040 O   0  0  0  0  0  0  0  0  0  0  0  0
  191.2460  177.7120  142.1660 N   0  0  0  0  0  2  0  0  0  0  0  0
  189.1080  177.0890  141.6520 N   0  0  0  0  0  2  0  0  0  0  0  0
  189.0240  176.6350  144.7550 O   0  0  0  0  0  0  0  0  0  0  0  0
  188.3620  177.2950  143.9680 C   0  0  0  0  0  0  0  0  0  0  0  0
  183.8800  178.4680  141.8890 C   0  0  0  0  0  3  0  0  0  0  0  0
  184.4030  179.0730  144.3800 C   0  0  1  0  0  3  0  0  0  0  0  0
  186.1340  179.2500  142.5590 C   0  0  0  0  0  2  0  0  0  0  0  0
  182.0740  178.8640  143.4970 C   0  0  0  0  0  0  0  0  0  0  0  0
  184.8700  178.5400  143.0080 C   0  0  2  0  0  0  0  0  0  0  0  0
  186.5390  178.2690  145.3630 C   0  0  0  0  0  2  0  0  0  0  0  0
  182.9050  179.0440  144.5280 C   0  0  0  0  0  3  0  0  0  0  0  0
  186.1700  177.7540  142.8320 C   0  0  2  0  0  3  0  0  0  0  0  0
  185.0340  178.3190  145.5410 C   0  0  0  0  0  2  0  0  0  0  0  0
  180.6070  178.8880  143.7330 C   0  0  0  0  0  1  0  0  0  0  0  0
  182.5780  178.6150  142.1340 C   0  0  0  0  0  3  0  0  0  0  0  0
  186.8790  177.3930  144.1570 C   0  0  1  0  0  3  0  0  0  0  0  0
  190.7150  177.3310  139.9140 C   0  0  0  0  0  2  0  0  0  0  0  0
  191.3940  176.2970  138.9980 C   0  0  2  0  0  3  0  0  0  0  0  0
  192.4560  175.7960  136.3940 C   0  0  0  0  0  0  0  0  0  0  0  0
  192.6980  176.7110  138.5690 O   0  0  0  0  0  0  0  0  0  0  0  0
  190.5100  175.8480  137.8630 C   0  0  0  0  0  3  0  0  0  0  0  0
  191.0240  175.5900  136.6600 C   0  0  0  0  0  3  0  0  0  0  0  0
  193.0240  175.4420  135.0680 C   0  0  0  0  0  1  0  0  0  0  0  0
  193.2300  176.3550  137.3230 C   0  0  0  0  0  3  0  0  0  0  0  0
  1  6  1  0  0  0  0
  1  5  1  0  0  0  0
  2  3  1  0  0  0  0
  2  8  1  1  0  0  0
  3  4  2  0  0  0  0
  5  3  1  0  0  0  0
  6  2  1  0  0  0  0
  8  7  2  0  0  0  0
  9 19  2  0  0  0  0
 10 15  1  6  0  0  0
 10 17  1  0  0  0  0
 11 13  1  0  0  0  0
 12 18  1  0  0  0  0
 12 15  2  0  0  0  0
 13  9  1  6  0  0  0
 13 10  1  0  0  0  0
 14 17  1  0  0  0  0
 16 11  1  6  0  0  0
 16 13  1  0  0  0  0
 16 20  1  0  0  0  0
 19 12  1  0  0  0  0
 20  8  1  6  0  0  0
 20 14  1  0  0  0  0
 21  1  1  0  0  0  0
 22 21  1  6  0  0  0
 23 26  1  0  0  0  0
 23 28  2  0  0  0  0
 24 22  1  0  0  0  0
 25 22  1  0  0  0  0
 26 25  2  0  0  0  0
 27 23  1  0  0  0  0
 28 24  1  0  0  0  0
M  END
>  <MODEL>
9

>  <REMARK>
 VINA RESULT:      -8.3      3.669      5.794
  Name = 
  4 active torsions:
  status: ('A' for Active; 'I' for Inactive)
    1  A    between atoms: N_1  and  C_2
    2  A    between atoms: C_2  and  C_3
    3  A    between atoms: C_16  and  C_20
    4  A    between atoms: C_20  and  C_25
                            x       y       z     vdW  Elec       q    Type
                         _______ _______ _______ _____ _____    ______ ____

>  <TORSDO>
F 4

$$$$
