=
 OpenBabel11052414213D

 34 38  0  0  1  0  0  0  0  0999 V2000
  187.9050  177.7480  147.3860 C   0  0  0  0  0  0  0  0  0  0  0  0
  190.3110  177.5080  147.0790 C   0  0  0  0  0  0  0  0  0  0  0  0
  188.8160  176.7680  145.2160 C   0  0  1  0  0  3  0  0  0  0  0  0
  189.7590  176.7680  142.9010 N   0  0  0  0  0  0  0  0  0  0  0  0
  189.4320  178.3220  149.1810 C   0  0  0  0  0  3  0  0  0  0  0  0
  190.5240  177.9760  148.3770 C   0  0  0  0  0  3  0  0  0  0  0  0
  191.2580  177.0590  144.8690 C   0  0  0  0  0  3  0  0  0  0  0  0
  188.9990  177.3600  146.5920 C   0  0  0  0  0  0  0  0  0  0  0  0
  191.7200  177.8030  142.1340 O   0  0  0  0  0  0  0  0  0  0  0  0
  188.1280  178.2140  148.6850 C   0  0  0  0  0  3  0  0  0  0  0  0
  187.3770  176.8070  144.6650 C   0  0  2  0  0  3  0  0  0  0  0  0
  186.5040  177.6270  146.8660 C   0  0  0  0  0  2  0  0  0  0  0  0
  191.4510  177.1990  146.1890 C   0  0  0  0  0  3  0  0  0  0  0  0
  188.5180  176.0980  142.4990 C   0  0  0  0  0  2  0  0  0  0  0  0
  187.2870  176.7690  143.1270 C   0  0  2  0  0  3  0  0  0  0  0  0
  190.7250  177.0680  141.8770 C   0  0  0  0  0  0  0  0  0  0  0  0
  189.8930  177.3140  144.2650 C   0  0  2  0  0  3  0  0  0  0  0  0
  186.4690  177.8330  145.3530 C   0  0  0  0  0  2  0  0  0  0  0  0
  190.6670  177.2880  139.4960 C   0  0  0  0  0  3  0  0  0  0  0  0
  190.5400  176.5520  140.5530 N   0  0  0  0  0  0  0  0  0  0  0  0
  188.1210  176.2970  138.3230 F   0  0  0  0  0  0  0  0  0  0  0  0
  190.4600  176.7360  138.1510 C   0  0  0  0  0  0  0  0  0  0  0  0
  189.0960  176.8090  137.4870 C   0  0  1  0  0  3  0  0  0  0  0  0
  190.2910  176.3310  135.3320 C   0  0  0  0  0  2  0  0  0  0  0  0
  191.4700  175.7480  136.0970 C   0  0  0  0  0  2  0  0  0  0  0  0
  191.5410  176.3130  137.4860 C   0  0  0  0  0  3  0  0  0  0  0  0
  189.0250  176.0850  136.1390 C   0  0  0  0  0  2  0  0  0  0  0  0
  186.8710  178.0940  142.4580 C   0  0  1  0  0  3  0  0  0  0  0  0
  187.4240  178.3470  141.0420 C   0  0  1  0  0  3  0  0  0  0  0  0
  186.3510  178.5510  139.9860 C   0  0  0  0  0  1  0  0  0  0  0  0
  188.2810  179.4460  141.0550 O   0  0  0  0  0  1  0  0  0  0  0  0
  184.3990  178.0500  141.8070 C   0  0  0  0  0  1  0  0  0  0  0  0
  185.3440  180.0530  142.9530 C   0  0  0  0  0  1  0  0  0  0  0  0
  185.4400  178.5470  142.7960 C   0  0  0  0  0  3  0  0  0  0  0  0
  1 10  1  0  0  0  0
  2  6  2  0  0  0  0
  3  8  1  1  0  0  0
  4 17  1  0  0  0  0
  6  5  1  0  0  0  0
  7 13  2  0  0  0  0
  8  2  1  0  0  0  0
  8  1  2  0  0  0  0
 10  5  2  0  0  0  0
 11  3  1  0  0  0  0
 11 18  1  6  0  0  0
 12  1  1  0  0  0  0
 13  2  1  0  0  0  0
 14  4  1  0  0  0  0
 14 15  1  0  0  0  0
 15 28  1  6  0  0  0
 15 11  1  0  0  0  0
 16  9  2  0  0  0  0
 16  4  1  0  0  0  0
 17  7  1  1  0  0  0
 17  3  1  0  0  0  0
 18 12  1  0  0  0  0
 19 20  2  0  0  0  0
 20 16  1  0  0  0  0
 22 19  1  0  0  0  0
 23 22  1  0  0  0  0
 23 21  1  1  0  0  0
 24 25  1  0  0  0  0
 24 27  1  0  0  0  0
 25 26  1  0  0  0  0
 26 22  2  0  0  0  0
 27 23  1  0  0  0  0
 28 34  1  6  0  0  0
 29 30  1  6  0  0  0
 29 31  1  0  0  0  0
 29 28  1  0  0  0  0
 32 34  1  0  0  0  0
 34 33  1  0  0  0  0
M  END
>  <MODEL>
1

>  <REMARK>
 VINA RESULT:      -8.3      0.000      0.000
  Name = 
  5 active torsions:
  status: ('A' for Active; 'I' for Inactive)
    1  A    between atoms: C_3  and  C_13
    2  A    between atoms: C_7  and  C_23
    3  A    between atoms: N_17  and  C_29
    4  A    between atoms: C_23  and  C_27
    5  A    between atoms: C_23  and  C_28
                            x       y       z     vdW  Elec       q    Type
                         _______ _______ _______ _____ _____    ______ ____

>  <TORSDO>
F 5

$$$$
=
 OpenBabel11052414213D

 34 38  0  0  1  0  0  0  0  0999 V2000
  187.9330  177.7220  147.4180 C   0  0  0  0  0  0  0  0  0  0  0  0
  190.3380  177.5280  147.0720 C   0  0  0  0  0  0  0  0  0  0  0  0
  188.8280  176.7850  145.2230 C   0  0  1  0  0  3  0  0  0  0  0  0
  189.7350  176.8300  142.8950 N   0  0  0  0  0  0  0  0  0  0  0  0
  189.4770  178.3010  149.1980 C   0  0  0  0  0  3  0  0  0  0  0  0
  190.5620  177.9840  148.3730 C   0  0  0  0  0  3  0  0  0  0  0  0
  191.2580  177.1240  144.8430 C   0  0  0  0  0  3  0  0  0  0  0  0
  189.0210  177.3630  146.6040 C   0  0  0  0  0  0  0  0  0  0  0  0
  191.6650  177.9090  142.1120 O   0  0  0  0  0  0  0  0  0  0  0  0
  188.1670  178.1760  148.7200 C   0  0  0  0  0  3  0  0  0  0  0  0
  187.3790  176.8050  144.6950 C   0  0  2  0  0  3  0  0  0  0  0  0
  186.5260  177.5820  146.9180 C   0  0  0  0  0  2  0  0  0  0  0  0
  191.4690  177.2510  146.1620 C   0  0  0  0  0  3  0  0  0  0  0  0
  188.4990  176.1430  142.5030 C   0  0  0  0  0  2  0  0  0  0  0  0
  187.2670  176.7840  143.1570 C   0  0  2  0  0  3  0  0  0  0  0  0
  190.6800  177.1600  141.8600 C   0  0  0  0  0  0  0  0  0  0  0  0
  189.8800  177.3610  144.2630 C   0  0  2  0  0  3  0  0  0  0  0  0
  186.4640  177.8060  145.4090 C   0  0  0  0  0  2  0  0  0  0  0  0
  190.4850  177.4250  139.4910 C   0  0  0  0  0  3  0  0  0  0  0  0
  190.4840  176.6570  140.5320 N   0  0  0  0  0  0  0  0  0  0  0  0
  191.8840  175.1290  138.2230 F   0  0  0  0  0  0  0  0  0  0  0  0
  190.2700  176.8850  138.1430 C   0  0  0  0  0  0  0  0  0  0  0  0
  190.5930  175.4340  137.8320 C   0  0  1  0  0  3  0  0  0  0  0  0
  189.1730  175.7180  135.7820 C   0  0  0  0  0  2  0  0  0  0  0  0
  189.3440  177.2290  135.8540 C   0  0  0  0  0  2  0  0  0  0  0  0
  189.6440  177.6680  137.2580 C   0  0  0  0  0  3  0  0  0  0  0  0
  190.4220  175.0650  136.3550 C   0  0  0  0  0  2  0  0  0  0  0  0
  186.8180  178.1100  142.5120 C   0  0  1  0  0  3  0  0  0  0  0  0
  187.4050  178.4250  141.1220 C   0  0  1  0  0  3  0  0  0  0  0  0
  186.3590  178.6330  140.0400 C   0  0  0  0  0  1  0  0  0  0  0  0
  188.2270  179.5490  141.1980 O   0  0  0  0  0  1  0  0  0  0  0  0
  184.3800  178.0440  141.7410 C   0  0  0  0  0  1  0  0  0  0  0  0
  185.2060  179.9800  143.0790 C   0  0  0  0  0  1  0  0  0  0  0  0
  185.3590  178.4940  142.8140 C   0  0  0  0  0  3  0  0  0  0  0  0
  1 10  1  0  0  0  0
  2  6  2  0  0  0  0
  3  8  1  1  0  0  0
  4 17  1  0  0  0  0
  6  5  1  0  0  0  0
  7 13  2  0  0  0  0
  8  2  1  0  0  0  0
  8  1  2  0  0  0  0
 10  5  2  0  0  0  0
 11  3  1  0  0  0  0
 11 18  1  6  0  0  0
 12  1  1  0  0  0  0
 13  2  1  0  0  0  0
 14  4  1  0  0  0  0
 14 15  1  0  0  0  0
 15 28  1  6  0  0  0
 15 11  1  0  0  0  0
 16  9  2  0  0  0  0
 16  4  1  0  0  0  0
 17  7  1  1  0  0  0
 17  3  1  0  0  0  0
 18 12  1  0  0  0  0
 19 20  2  0  0  0  0
 20 16  1  0  0  0  0
 22 19  1  0  0  0  0
 23 22  1  0  0  0  0
 23 21  1  6  0  0  0
 24 25  1  0  0  0  0
 24 27  1  0  0  0  0
 25 26  1  0  0  0  0
 26 22  2  0  0  0  0
 27 23  1  0  0  0  0
 28 34  1  6  0  0  0
 29 30  1  6  0  0  0
 29 31  1  0  0  0  0
 29 28  1  0  0  0  0
 32 34  1  0  0  0  0
 34 33  1  0  0  0  0
M  END
>  <MODEL>
2

>  <REMARK>
 VINA RESULT:      -8.2      0.813      1.046
  Name = 
  5 active torsions:
  status: ('A' for Active; 'I' for Inactive)
    1  A    between atoms: C_3  and  C_13
    2  A    between atoms: C_7  and  C_23
    3  A    between atoms: N_17  and  C_29
    4  A    between atoms: C_23  and  C_27
    5  A    between atoms: C_23  and  C_28
                            x       y       z     vdW  Elec       q    Type
                         _______ _______ _______ _____ _____    ______ ____

>  <TORSDO>
F 5

$$$$
=
 OpenBabel11052414213D

 34 38  0  0  1  0  0  0  0  0999 V2000
  187.7260  177.6500  142.5590 C   0  0  0  0  0  0  0  0  0  0  0  0
  185.6870  178.1110  143.8130 C   0  0  0  0  0  0  0  0  0  0  0  0
  185.7750  178.8310  141.4200 C   0  0  1  0  0  3  0  0  0  0  0  0
  183.6080  179.0480  140.1940 N   0  0  0  0  0  0  0  0  0  0  0  0
  187.5890  177.1020  144.9180 C   0  0  0  0  0  3  0  0  0  0  0  0
  186.2770  177.5860  144.9650 C   0  0  0  0  0  3  0  0  0  0  0  0
  183.6290  178.7680  142.6680 C   0  0  0  0  0  3  0  0  0  0  0  0
  186.4230  178.1760  142.6160 C   0  0  0  0  0  0  0  0  0  0  0  0
  181.5000  178.2300  140.8190 O   0  0  0  0  0  0  0  0  0  0  0  0
  188.3090  177.1290  143.7180 C   0  0  0  0  0  3  0  0  0  0  0  0
  186.5510  178.7030  140.0940 C   0  0  2  0  0  3  0  0  0  0  0  0
  188.5080  177.6840  141.2800 C   0  0  0  0  0  2  0  0  0  0  0  0
  184.2810  178.5670  143.8230 C   0  0  0  0  0  3  0  0  0  0  0  0
  184.3950  179.6330  139.1030 C   0  0  0  0  0  2  0  0  0  0  0  0
  185.6720  178.8250  138.8330 C   0  0  2  0  0  3  0  0  0  0  0  0
  182.1910  178.8920  139.9950 C   0  0  0  0  0  0  0  0  0  0  0  0
  184.2910  178.4350  141.3480 C   0  0  2  0  0  3  0  0  0  0  0  0
  187.5780  177.5660  140.0750 C   0  0  0  0  0  2  0  0  0  0  0  0
  181.3630  180.7400  138.7210 C   0  0  0  0  0  3  0  0  0  0  0  0
  181.5680  179.4680  138.8390 N   0  0  0  0  0  0  0  0  0  0  0  0
  179.3580  182.9320  138.6260 F   0  0  0  0  0  0  0  0  0  0  0  0
  180.7130  181.3020  137.5310 C   0  0  0  0  0  0  0  0  0  0  0  0
  180.1870  182.7270  137.5380 C   0  0  1  0  0  3  0  0  0  0  0  0
  180.1430  182.5600  135.0340 C   0  0  0  0  0  2  0  0  0  0  0  0
  180.1340  181.0400  135.1200 C   0  0  0  0  0  2  0  0  0  0  0  0
  180.7420  180.5720  136.4100 C   0  0  0  0  0  3  0  0  0  0  0  0
  179.4350  183.1150  136.2610 C   0  0  0  0  0  2  0  0  0  0  0  0
  185.4460  177.5120  138.0590 C   0  0  1  0  0  3  0  0  0  0  0  0
  183.9870  177.0290  137.9460 C   0  0  1  0  0  3  0  0  0  0  0  0
  183.3670  177.2470  136.5760 C   0  0  0  0  0  1  0  0  0  0  0  0
  183.9040  175.6800  138.2860 O   0  0  0  0  0  1  0  0  0  0  0  0
  187.2850  176.0880  136.9960 C   0  0  0  0  0  1  0  0  0  0  0  0
  187.2330  178.5490  136.5940 C   0  0  0  0  0  1  0  0  0  0  0  0
  186.3950  177.3140  136.8640 C   0  0  0  0  0  3  0  0  0  0  0  0
  1  8  2  0  0  0  0
  1 10  1  0  0  0  0
  2 13  1  0  0  0  0
  2  6  2  0  0  0  0
  3  8  1  1  0  0  0
  4 17  1  0  0  0  0
  5  6  1  0  0  0  0
  7 13  2  0  0  0  0
  8  2  1  0  0  0  0
 10  5  2  0  0  0  0
 11 18  1  1  0  0  0
 11  3  1  0  0  0  0
 12  1  1  0  0  0  0
 14  4  1  0  0  0  0
 15 28  1  1  0  0  0
 15 14  1  0  0  0  0
 15 11  1  0  0  0  0
 16  4  1  0  0  0  0
 16  9  2  0  0  0  0
 17  3  1  0  0  0  0
 17  7  1  1  0  0  0
 18 12  1  0  0  0  0
 19 20  2  0  0  0  0
 20 16  1  0  0  0  0
 22 23  1  0  0  0  0
 22 19  1  0  0  0  0
 23 21  1  1  0  0  0
 24 25  1  0  0  0  0
 24 27  1  0  0  0  0
 25 26  1  0  0  0  0
 26 22  2  0  0  0  0
 27 23  1  0  0  0  0
 28 34  1  6  0  0  0
 29 30  1  6  0  0  0
 29 28  1  0  0  0  0
 29 31  1  0  0  0  0
 33 34  1  0  0  0  0
 34 32  1  0  0  0  0
M  END
>  <MODEL>
3

>  <REMARK>
 VINA RESULT:      -8.2      4.982      7.841
  Name = 
  5 active torsions:
  status: ('A' for Active; 'I' for Inactive)
    1  A    between atoms: C_3  and  C_13
    2  A    between atoms: C_7  and  C_23
    3  A    between atoms: N_17  and  C_29
    4  A    between atoms: C_23  and  C_27
    5  A    between atoms: C_23  and  C_28
                            x       y       z     vdW  Elec       q    Type
                         _______ _______ _______ _____ _____    ______ ____

>  <TORSDO>
F 5

$$$$
=
 OpenBabel11052414213D

 34 38  0  0  1  0  0  0  0  0999 V2000
  191.1590  176.7310  142.8480 C   0  0  0  0  0  0  0  0  0  0  0  0
  190.2440  177.5780  140.7530 C   0  0  0  0  0  0  0  0  0  0  0  0
  188.6340  176.8910  142.5390 C   0  0  1  0  0  3  0  0  0  0  0  0
  186.3730  177.9570  142.5340 N   0  0  0  0  0  0  0  0  0  0  0  0
  192.6360  177.3070  141.0110 C   0  0  0  0  0  3  0  0  0  0  0  0
  191.5350  177.6830  140.2310 C   0  0  0  0  0  3  0  0  0  0  0  0
  187.8920  178.2240  140.5790 C   0  0  0  0  0  3  0  0  0  0  0  0
  190.0510  177.0690  142.0510 C   0  0  0  0  0  0  0  0  0  0  0  0
  185.6730  179.8660  141.3660 O   0  0  0  0  0  0  0  0  0  0  0  0
  192.4480  176.8380  142.3160 C   0  0  0  0  0  3  0  0  0  0  0  0
  188.4890  176.5120  144.0260 C   0  0  2  0  0  3  0  0  0  0  0  0
  190.9670  176.2190  144.2440 C   0  0  0  0  0  2  0  0  0  0  0  0
  189.0730  178.0310  139.9730 C   0  0  0  0  0  3  0  0  0  0  0  0
  186.0250  176.9980  143.5890 C   0  0  0  0  0  2  0  0  0  0  0  0
  187.1330  176.9000  144.6480 C   0  0  2  0  0  3  0  0  0  0  0  0
  185.3710  178.9070  142.1300 C   0  0  0  0  0  0  0  0  0  0  0  0
  187.7710  178.0780  142.0810 C   0  0  2  0  0  3  0  0  0  0  0  0
  189.7220  176.8330  144.8780 C   0  0  0  0  0  2  0  0  0  0  0  0
  182.9950  178.8690  141.8530 C   0  0  0  0  0  3  0  0  0  0  0  0
  184.0310  178.7800  142.6230 N   0  0  0  0  0  0  0  0  0  0  0  0
  182.2010  178.3260  144.6650 F   0  0  0  0  0  0  0  0  0  0  0  0
  181.6330  178.7460  142.3860 C   0  0  0  0  0  0  0  0  0  0  0  0
  181.3460  179.0420  143.8480 C   0  0  1  0  0  3  0  0  0  0  0  0
  178.9310  179.1990  143.1820 C   0  0  0  0  0  2  0  0  0  0  0  0
  179.2090  178.3900  141.9240 C   0  0  0  0  0  2  0  0  0  0  0  0
  180.6470  178.5160  141.5110 C   0  0  0  0  0  3  0  0  0  0  0  0
  179.9010  178.7520  144.2650 C   0  0  0  0  0  2  0  0  0  0  0  0
  187.1760  178.0810  145.6380 C   0  0  1  0  0  3  0  0  0  0  0  0
  185.8430  178.8130  145.8850 C   0  0  1  0  0  3  0  0  0  0  0  0
  184.8790  178.0590  146.7850 C   0  0  0  0  0  1  0  0  0  0  0  0
  186.0870  180.0780  146.4180 O   0  0  0  0  0  1  0  0  0  0  0  0
  187.8440  176.6520  147.6500 C   0  0  0  0  0  1  0  0  0  0  0  0
  188.2370  179.1140  147.6920 C   0  0  0  0  0  1  0  0  0  0  0  0
  188.1500  177.8820  146.8120 C   0  0  0  0  0  3  0  0  0  0  0  0
  1 12  1  0  0  0  0
  2  8  1  0  0  0  0
  3  8  1  1  0  0  0
  3 11  1  0  0  0  0
  4 14  1  0  0  0  0
  5 10  2  0  0  0  0
  6  2  2  0  0  0  0
  6  5  1  0  0  0  0
  8  1  2  0  0  0  0
  9 16  2  0  0  0  0
 10  1  1  0  0  0  0
 11 15  1  0  0  0  0
 11 18  1  1  0  0  0
 12 18  1  0  0  0  0
 13  7  2  0  0  0  0
 13  2  1  0  0  0  0
 14 15  1  0  0  0  0
 15 28  1  6  0  0  0
 16  4  1  0  0  0  0
 16 20  1  0  0  0  0
 17  7  1  6  0  0  0
 17  4  1  0  0  0  0
 17  3  1  0  0  0  0
 19 22  1  0  0  0  0
 19 20  2  0  0  0  0
 22 23  1  0  0  0  0
 23 27  1  0  0  0  0
 23 21  1  1  0  0  0
 24 27  1  0  0  0  0
 25 24  1  0  0  0  0
 26 25  1  0  0  0  0
 26 22  2  0  0  0  0
 28 29  1  0  0  0  0
 28 34  1  1  0  0  0
 29 31  1  0  0  0  0
 29 30  1  1  0  0  0
 34 32  1  0  0  0  0
 34 33  1  0  0  0  0
M  END
>  <MODEL>
4

>  <REMARK>
 VINA RESULT:      -7.0      3.114      7.367
  Name = 
  5 active torsions:
  status: ('A' for Active; 'I' for Inactive)
    1  A    between atoms: C_3  and  C_13
    2  A    between atoms: C_7  and  C_23
    3  A    between atoms: N_17  and  C_29
    4  A    between atoms: C_23  and  C_27
    5  A    between atoms: C_23  and  C_28
                            x       y       z     vdW  Elec       q    Type
                         _______ _______ _______ _____ _____    ______ ____

>  <TORSDO>
F 5

$$$$
=
 OpenBabel11052414213D

 34 38  0  0  1  0  0  0  0  0999 V2000
  189.0710  177.2320  142.0180 C   0  0  0  0  0  0  0  0  0  0  0  0
  187.0920  177.7890  143.3280 C   0  0  0  0  0  0  0  0  0  0  0  0
  187.1160  178.4400  140.9140 C   0  0  1  0  0  3  0  0  0  0  0  0
  184.9150  178.6900  139.7570 N   0  0  0  0  0  0  0  0  0  0  0  0
  189.0010  176.7520  144.3950 C   0  0  0  0  0  3  0  0  0  0  0  0
  187.7060  177.2780  144.4730 C   0  0  0  0  0  3  0  0  0  0  0  0
  185.0150  178.4780  142.2360 C   0  0  0  0  0  3  0  0  0  0  0  0
  187.7870  177.7990  142.1040 C   0  0  0  0  0  0  0  0  0  0  0  0
  182.8070  177.9550  140.4770 O   0  0  0  0  0  0  0  0  0  0  0  0
  189.6790  176.7250  143.1700 C   0  0  0  0  0  3  0  0  0  0  0  0
  187.8410  178.2530  139.5660 C   0  0  2  0  0  3  0  0  0  0  0  0
  189.8080  177.2070  140.7120 C   0  0  0  0  0  2  0  0  0  0  0  0
  185.7010  178.2880  143.3730 C   0  0  0  0  0  3  0  0  0  0  0  0
  185.6800  179.2220  138.6240 C   0  0  0  0  0  2  0  0  0  0  0  0
  186.9230  178.3680  138.3330 C   0  0  2  0  0  3  0  0  0  0  0  0
  183.4880  178.5730  139.6110 C   0  0  0  0  0  0  0  0  0  0  0  0
  185.6200  178.0890  140.9040 C   0  0  2  0  0  3  0  0  0  0  0  0
  188.8320  177.0850  139.5440 C   0  0  0  0  0  2  0  0  0  0  0  0
  181.6610  178.7720  138.0790 C   0  0  0  0  0  3  0  0  0  0  0  0
  182.8420  179.1360  138.4620 N   0  0  0  0  0  0  0  0  0  0  0  0
  181.3510  177.5230  135.3990 F   0  0  0  0  0  0  0  0  0  0  0  0
  181.0280  179.3570  136.8910 C   0  0  0  0  0  0  0  0  0  0  0  0
  180.4300  178.4670  135.8160 C   0  0  1  0  0  3  0  0  0  0  0  0
  179.2070  180.5100  135.0210 C   0  0  0  0  0  2  0  0  0  0  0  0
  180.2150  181.4060  135.7260 C   0  0  0  0  0  2  0  0  0  0  0  0
  180.8660  180.6850  136.8710 C   0  0  0  0  0  3  0  0  0  0  0  0
  179.9160  179.2330  134.5940 C   0  0  0  0  0  2  0  0  0  0  0  0
  186.6300  177.0420  137.6040 C   0  0  1  0  0  3  0  0  0  0  0  0
  185.1440  176.6690  137.4350 C   0  0  1  0  0  3  0  0  0  0  0  0
  184.5460  177.0960  136.1060 C   0  0  0  0  0  1  0  0  0  0  0  0
  184.9760  175.2950  137.6020 O   0  0  0  0  0  1  0  0  0  0  0  0
  188.4540  175.4740  136.7370 C   0  0  0  0  0  1  0  0  0  0  0  0
  188.5130  177.8950  136.1400 C   0  0  0  0  0  1  0  0  0  0  0  0
  187.6180  176.7150  136.4710 C   0  0  0  0  0  3  0  0  0  0  0  0
  1  8  2  0  0  0  0
  1 10  1  0  0  0  0
  2 13  1  0  0  0  0
  2  6  2  0  0  0  0
  3  8  1  1  0  0  0
  4 17  1  0  0  0  0
  5  6  1  0  0  0  0
  7 13  2  0  0  0  0
  8  2  1  0  0  0  0
 10  5  2  0  0  0  0
 11 18  1  1  0  0  0
 11  3  1  0  0  0  0
 12  1  1  0  0  0  0
 14  4  1  0  0  0  0
 15 28  1  1  0  0  0
 15 14  1  0  0  0  0
 15 11  1  0  0  0  0
 16  4  1  0  0  0  0
 16  9  2  0  0  0  0
 17  3  1  0  0  0  0
 17  7  1  1  0  0  0
 18 12  1  0  0  0  0
 19 20  2  0  0  0  0
 20 16  1  0  0  0  0
 22 19  1  0  0  0  0
 23 21  1  6  0  0  0
 23 22  1  0  0  0  0
 24 25  1  0  0  0  0
 25 26  1  0  0  0  0
 26 22  2  0  0  0  0
 27 24  1  0  0  0  0
 27 23  1  0  0  0  0
 28 34  1  6  0  0  0
 29 30  1  6  0  0  0
 29 31  1  0  0  0  0
 29 28  1  0  0  0  0
 33 34  1  0  0  0  0
 34 32  1  0  0  0  0
M  END
>  <MODEL>
5

>  <REMARK>
 VINA RESULT:      -6.8      4.466      7.360
  Name = 
  5 active torsions:
  status: ('A' for Active; 'I' for Inactive)
    1  A    between atoms: C_3  and  C_13
    2  A    between atoms: C_7  and  C_23
    3  A    between atoms: N_17  and  C_29
    4  A    between atoms: C_23  and  C_27
    5  A    between atoms: C_23  and  C_28
                            x       y       z     vdW  Elec       q    Type
                         _______ _______ _______ _____ _____    ______ ____

>  <TORSDO>
F 5

$$$$
=
 OpenBabel11052414213D

 34 38  0  0  1  0  0  0  0  0999 V2000
  188.8160  177.6530  136.1760 C   0  0  0  0  0  0  0  0  0  0  0  0
  190.5600  176.4910  137.4210 C   0  0  0  0  0  0  0  0  0  0  0  0
  189.0620  178.0460  138.6830 C   0  0  1  0  0  3  0  0  0  0  0  0
  188.7460  177.6250  141.1260 N   0  0  0  0  0  0  0  0  0  0  0  0
  190.3960  176.2190  135.0210 C   0  0  0  0  0  3  0  0  0  0  0  0
  191.0270  175.9200  136.2350 C   0  0  0  0  0  3  0  0  0  0  0  0
  190.5310  176.4310  139.8650 C   0  0  0  0  0  3  0  0  0  0  0  0
  189.4750  177.3870  137.3890 C   0  0  0  0  0  0  0  0  0  0  0  0
  189.2880  175.6960  142.3460 O   0  0  0  0  0  0  0  0  0  0  0  0
  189.2920  177.0780  134.9930 C   0  0  0  0  0  3  0  0  0  0  0  0
  187.7570  178.8640  138.6210 C   0  0  2  0  0  3  0  0  0  0  0  0
  187.6380  178.5790  136.1350 C   0  0  0  0  0  2  0  0  0  0  0  0
  191.1680  176.1390  138.7210 C   0  0  0  0  0  3  0  0  0  0  0  0
  188.0280  178.9030  141.1550 C   0  0  0  0  0  2  0  0  0  0  0  0
  187.0470  179.0250  139.9800 C   0  0  2  0  0  3  0  0  0  0  0  0
  188.8460  176.8790  142.3530 C   0  0  0  0  0  0  0  0  0  0  0  0
  189.1430  177.0320  139.8350 C   0  0  2  0  0  3  0  0  0  0  0  0
  186.8480  178.5070  137.4400 C   0  0  0  0  0  2  0  0  0  0  0  0
  187.6120  176.8740  144.4030 C   0  0  0  0  0  3  0  0  0  0  0  0
  188.4140  177.4750  143.5830 N   0  0  0  0  0  0  0  0  0  0  0  0
  188.9130  176.6980  147.0690 F   0  0  0  0  0  0  0  0  0  0  0  0
  187.1760  177.5120  145.6510 C   0  0  0  0  0  0  0  0  0  0  0  0
  188.1770  177.8240  146.7490 C   0  0  1  0  0  3  0  0  0  0  0  0
  186.4350  179.3680  147.6870 C   0  0  0  0  0  2  0  0  0  0  0  0
  185.3460  178.6280  146.9240 C   0  0  0  0  0  2  0  0  0  0  0  0
  185.9100  177.9400  145.7140 C   0  0  0  0  0  3  0  0  0  0  0  0
  187.5400  178.3800  148.0270 C   0  0  0  0  0  2  0  0  0  0  0  0
  185.7490  178.2110  140.1450 C   0  0  1  0  0  3  0  0  0  0  0  0
  185.2200  178.0530  141.5830 C   0  0  1  0  0  3  0  0  0  0  0  0
  185.2110  179.3430  142.3860 C   0  0  0  0  0  1  0  0  0  0  0  0
  183.9370  177.5080  141.5610 O   0  0  0  0  0  1  0  0  0  0  0  0
  183.8960  179.6430  139.1180 C   0  0  0  0  0  1  0  0  0  0  0  0
  183.8600  177.1680  138.8170 C   0  0  0  0  0  1  0  0  0  0  0  0
  184.7440  178.3880  138.9930 C   0  0  0  0  0  3  0  0  0  0  0  0
  1  8  1  0  0  0  0
  2 13  1  0  0  0  0
  3  8  1  6  0  0  0
  3 17  1  0  0  0  0
  4 14  1  0  0  0  0
  4 16  1  0  0  0  0
  5  6  2  0  0  0  0
  6  2  1  0  0  0  0
  8  2  2  0  0  0  0
  9 16  2  0  0  0  0
 10  5  1  0  0  0  0
 10  1  2  0  0  0  0
 11 18  1  6  0  0  0
 11  3  1  0  0  0  0
 11 15  1  0  0  0  0
 12  1  1  0  0  0  0
 12 18  1  0  0  0  0
 13  7  2  0  0  0  0
 15 28  1  1  0  0  0
 15 14  1  0  0  0  0
 16 20  1  0  0  0  0
 17  7  1  1  0  0  0
 17  4  1  0  0  0  0
 19 22  1  0  0  0  0
 20 19  2  0  0  0  0
 22 26  2  0  0  0  0
 22 23  1  0  0  0  0
 23 21  1  1  0  0  0
 23 27  1  0  0  0  0
 24 27  1  0  0  0  0
 25 24  1  0  0  0  0
 26 25  1  0  0  0  0
 28 34  1  6  0  0  0
 28 29  1  0  0  0  0
 29 30  1  6  0  0  0
 31 29  1  0  0  0  0
 33 34  1  0  0  0  0
 34 32  1  0  0  0  0
M  END
>  <MODEL>
6

>  <REMARK>
 VINA RESULT:      -6.6      2.327      8.104
  Name = 
  5 active torsions:
  status: ('A' for Active; 'I' for Inactive)
    1  A    between atoms: C_3  and  C_13
    2  A    between atoms: C_7  and  C_23
    3  A    between atoms: N_17  and  C_29
    4  A    between atoms: C_23  and  C_27
    5  A    between atoms: C_23  and  C_28
                            x       y       z     vdW  Elec       q    Type
                         _______ _______ _______ _____ _____    ______ ____

>  <TORSDO>
F 5

$$$$
=
 OpenBabel11052414213D

 34 38  0  0  1  0  0  0  0  0999 V2000
  189.5290  177.1200  137.5980 C   0  0  0  0  0  0  0  0  0  0  0  0
  189.8080  177.6580  139.9590 C   0  0  0  0  0  0  0  0  0  0  0  0
  187.6790  178.3510  138.8460 C   0  0  1  0  0  3  0  0  0  0  0  0
  185.6540  178.6270  140.2850 N   0  0  0  0  0  0  0  0  0  0  0  0
  191.6080  176.5980  138.7350 C   0  0  0  0  0  3  0  0  0  0  0  0
  191.0990  177.1250  139.9280 C   0  0  0  0  0  3  0  0  0  0  0  0
  187.9050  178.3700  141.3190 C   0  0  0  0  0  3  0  0  0  0  0  0
  189.0330  177.6870  138.7840 C   0  0  0  0  0  0  0  0  0  0  0  0
  185.3270  177.8830  142.4850 O   0  0  0  0  0  0  0  0  0  0  0  0
  190.8230  176.5900  137.5760 C   0  0  0  0  0  3  0  0  0  0  0  0
  186.8040  178.1860  137.5880 C   0  0  2  0  0  3  0  0  0  0  0  0
  188.6990  177.1150  136.3490 C   0  0  0  0  0  2  0  0  0  0  0  0
  189.2260  178.1590  141.2210 C   0  0  0  0  0  3  0  0  0  0  0  0
  185.0000  179.1760  139.0920 C   0  0  0  0  0  2  0  0  0  0  0  0
  185.2900  178.3240  137.8480 C   0  0  2  0  0  3  0  0  0  0  0  0
  184.8750  178.5150  141.4900 C   0  0  0  0  0  0  0  0  0  0  0  0
  186.9860  178.0040  140.1730 C   0  0  2  0  0  3  0  0  0  0  0  0
  187.2140  177.0160  136.6870 C   0  0  0  0  0  2  0  0  0  0  0  0
  182.5190  178.4260  141.8960 C   0  0  0  0  0  3  0  0  0  0  0  0
  183.5670  179.1000  141.5470 N   0  0  0  0  0  0  0  0  0  0  0  0
  180.4770  178.1850  144.0430 F   0  0  0  0  0  0  0  0  0  0  0  0
  181.1900  179.0480  141.9360 C   0  0  0  0  0  0  0  0  0  0  0  0
  180.5060  179.3260  143.2630 C   0  0  1  0  0  3  0  0  0  0  0  0
  179.0010  180.8770  141.9860 C   0  0  0  0  0  2  0  0  0  0  0  0
  179.3440  180.1650  140.6860 C   0  0  0  0  0  2  0  0  0  0  0  0
  180.6830  179.4910  140.7800 C   0  0  0  0  0  3  0  0  0  0  0  0
  179.0800  179.8680  143.1220 C   0  0  0  0  0  2  0  0  0  0  0  0
  184.4860  177.0120  137.7700 C   0  0  1  0  0  3  0  0  0  0  0  0
  183.2200  176.9350  138.6450 C   0  0  1  0  0  3  0  0  0  0  0  0
  181.9590  177.4260  137.9550 C   0  0  0  0  0  1  0  0  0  0  0  0
  183.0280  175.6270  139.0900 O   0  0  0  0  0  1  0  0  0  0  0  0
  183.6420  177.1280  135.3590 C   0  0  0  0  0  1  0  0  0  0  0  0
  184.0390  174.9100  136.4280 C   0  0  0  0  0  1  0  0  0  0  0  0
  184.4740  176.3630  136.3750 C   0  0  0  0  0  3  0  0  0  0  0  0
  1  8  1  0  0  0  0
  2 13  1  0  0  0  0
  3  8  1  6  0  0  0
  3 17  1  0  0  0  0
  4 16  1  0  0  0  0
  5  6  2  0  0  0  0
  6  2  1  0  0  0  0
  8  2  2  0  0  0  0
 10  1  2  0  0  0  0
 10  5  1  0  0  0  0
 11 18  1  1  0  0  0
 11 15  1  0  0  0  0
 11  3  1  0  0  0  0
 12 18  1  0  0  0  0
 12  1  1  0  0  0  0
 13  7  2  0  0  0  0
 14  4  1  0  0  0  0
 15 28  1  1  0  0  0
 15 14  1  0  0  0  0
 16 20  1  0  0  0  0
 16  9  2  0  0  0  0
 17  4  1  0  0  0  0
 17  7  1  1  0  0  0
 19 22  1  0  0  0  0
 20 19  2  0  0  0  0
 22 23  1  0  0  0  0
 23 21  1  1  0  0  0
 24 27  1  0  0  0  0
 25 26  1  0  0  0  0
 25 24  1  0  0  0  0
 26 22  2  0  0  0  0
 27 23  1  0  0  0  0
 28 34  1  6  0  0  0
 28 29  1  0  0  0  0
 29 30  1  6  0  0  0
 29 31  1  0  0  0  0
 32 34  1  0  0  0  0
 34 33  1  0  0  0  0
M  END
>  <MODEL>
7

>  <REMARK>
 VINA RESULT:      -6.5      4.397      8.551
  Name = 
  5 active torsions:
  status: ('A' for Active; 'I' for Inactive)
    1  A    between atoms: C_3  and  C_13
    2  A    between atoms: C_7  and  C_23
    3  A    between atoms: N_17  and  C_29
    4  A    between atoms: C_23  and  C_27
    5  A    between atoms: C_23  and  C_28
                            x       y       z     vdW  Elec       q    Type
                         _______ _______ _______ _____ _____    ______ ____

>  <TORSDO>
F 5

$$$$
=
 OpenBabel11052414213D

 34 38  0  0  1  0  0  0  0  0999 V2000
  190.1570  177.4220  144.5690 C   0  0  0  0  0  0  0  0  0  0  0  0
  190.1620  177.5830  142.1370 C   0  0  0  0  0  0  0  0  0  0  0  0
  187.9700  177.2000  143.2780 C   0  0  1  0  0  3  0  0  0  0  0  0
  185.9000  177.9550  142.0990 N   0  0  0  0  0  0  0  0  0  0  0  0
  192.2470  177.6710  143.3620 C   0  0  0  0  0  3  0  0  0  0  0  0
  191.5540  177.7000  142.1470 C   0  0  0  0  0  3  0  0  0  0  0  0
  188.0780  177.8820  140.8930 C   0  0  0  0  0  3  0  0  0  0  0  0
  189.4640  177.4090  143.3470 C   0  0  0  0  0  0  0  0  0  0  0  0
  185.7250  179.4000  140.2610 O   0  0  0  0  0  0  0  0  0  0  0  0
  191.5510  177.5380  144.5690 C   0  0  0  0  0  3  0  0  0  0  0  0
  187.2400  177.2050  144.6360 C   0  0  2  0  0  3  0  0  0  0  0  0
  189.4210  177.2710  145.8660 C   0  0  0  0  0  2  0  0  0  0  0  0
  189.4030  177.6780  140.8720 C   0  0  0  0  0  3  0  0  0  0  0  0
  185.1600  177.2690  143.1640 C   0  0  0  0  0  2  0  0  0  0  0  0
  185.7470  177.5800  144.5480 C   0  0  2  0  0  3  0  0  0  0  0  0
  185.1430  178.6440  141.0880 C   0  0  0  0  0  0  0  0  0  0  0  0
  187.3620  178.1180  142.2060 C   0  0  2  0  0  3  0  0  0  0  0  0
  188.0230  177.8790  145.7680 C   0  0  0  0  0  2  0  0  0  0  0  0
  183.1340  177.6590  140.2410 C   0  0  0  0  0  3  0  0  0  0  0  0
  183.7190  178.4930  141.0400 N   0  0  0  0  0  0  0  0  0  0  0  0
  181.4920  176.2860  138.1790 F   0  0  0  0  0  0  0  0  0  0  0  0
  181.6720  177.5330  140.2050 C   0  0  0  0  0  0  0  0  0  0  0  0
  181.0150  176.3760  139.4730 C   0  0  1  0  0  3  0  0  0  0  0  0
  178.9410  176.9350  140.7710 C   0  0  0  0  0  2  0  0  0  0  0  0
  179.4620  178.3410  141.0300 C   0  0  0  0  0  2  0  0  0  0  0  0
  180.9620  178.3780  140.9600 C   0  0  0  0  0  3  0  0  0  0  0  0
  179.4850  176.4580  139.4340 C   0  0  0  0  0  2  0  0  0  0  0  0
  185.3840  178.9730  145.0970 C   0  0  1  0  0  3  0  0  0  0  0  0
  184.5570  179.8800  144.1660 C   0  0  1  0  0  3  0  0  0  0  0  0
  183.0540  179.7460  144.3440 C   0  0  0  0  0  1  0  0  0  0  0  0
  184.9310  181.2120  144.3440 O   0  0  0  0  0  1  0  0  0  0  0  0
  186.2100  179.6620  147.4170 C   0  0  0  0  0  1  0  0  0  0  0  0
  184.8060  177.6170  147.1580 C   0  0  0  0  0  1  0  0  0  0  0  0
  185.1050  179.0000  146.6110 C   0  0  0  0  0  3  0  0  0  0  0  0
  1 10  1  0  0  0  0
  1 12  1  0  0  0  0
  2  6  2  0  0  0  0
  2  8  1  0  0  0  0
  3  8  1  1  0  0  0
  3 11  1  0  0  0  0
  4 17  1  0  0  0  0
  4 14  1  0  0  0  0
  5 10  2  0  0  0  0
  6  5  1  0  0  0  0
  8  1  2  0  0  0  0
  9 16  2  0  0  0  0
 11 18  1  1  0  0  0
 13  7  2  0  0  0  0
 13  2  1  0  0  0  0
 14 15  1  0  0  0  0
 15 11  1  0  0  0  0
 15 28  1  6  0  0  0
 16  4  1  0  0  0  0
 17  7  1  6  0  0  0
 17  3  1  0  0  0  0
 18 12  1  0  0  0  0
 19 20  2  0  0  0  0
 20 16  1  0  0  0  0
 22 19  1  0  0  0  0
 22 26  2  0  0  0  0
 23 21  1  6  0  0  0
 23 22  1  0  0  0  0
 24 25  1  0  0  0  0
 26 25  1  0  0  0  0
 27 23  1  0  0  0  0
 27 24  1  0  0  0  0
 28 34  1  1  0  0  0
 29 31  1  0  0  0  0
 29 30  1  1  0  0  0
 29 28  1  0  0  0  0
 34 33  1  0  0  0  0
 34 32  1  0  0  0  0
M  END
>  <MODEL>
8

>  <REMARK>
 VINA RESULT:      -6.5      3.081      6.392
  Name = 
  5 active torsions:
  status: ('A' for Active; 'I' for Inactive)
    1  A    between atoms: C_3  and  C_13
    2  A    between atoms: C_7  and  C_23
    3  A    between atoms: N_17  and  C_29
    4  A    between atoms: C_23  and  C_27
    5  A    between atoms: C_23  and  C_28
                            x       y       z     vdW  Elec       q    Type
                         _______ _______ _______ _____ _____    ______ ____

>  <TORSDO>
F 5

$$$$
=
 OpenBabel11052414213D

 34 38  0  0  1  0  0  0  0  0999 V2000
  190.6020  176.7240  135.4200 C   0  0  0  0  0  0  0  0  0  0  0  0
  191.9350  176.0820  137.3570 C   0  0  0  0  0  0  0  0  0  0  0  0
  189.9910  177.6110  137.7300 C   0  0  1  0  0  3  0  0  0  0  0  0
  188.9360  177.6150  139.9950 N   0  0  0  0  0  0  0  0  0  0  0  0
  192.5780  175.3440  135.1430 C   0  0  0  0  0  3  0  0  0  0  0  0
  192.8030  175.3730  136.5250 C   0  0  0  0  0  3  0  0  0  0  0  0
  191.1210  176.4780  139.6290 C   0  0  0  0  0  3  0  0  0  0  0  0
  190.8510  176.7880  136.8010 C   0  0  0  0  0  0  0  0  0  0  0  0
  189.2020  176.0490  141.7210 O   0  0  0  0  0  0  0  0  0  0  0  0
  191.4780  176.0130  134.5940 C   0  0  0  0  0  3  0  0  0  0  0  0
  188.7170  178.2050  137.0980 C   0  0  2  0  0  3  0  0  0  0  0  0
  189.4310  177.4450  134.8210 C   0  0  0  0  0  2  0  0  0  0  0  0
  192.1140  176.0720  138.8240 C   0  0  0  0  0  3  0  0  0  0  0  0
  188.1480  178.7580  139.5210 C   0  0  0  0  0  2  0  0  0  0  0  0
  187.5940  178.5130  138.1090 C   0  0  2  0  0  3  0  0  0  0  0  0
  188.6910  177.1350  141.3300 C   0  0  0  0  0  0  0  0  0  0  0  0
  189.7740  176.8540  139.0500 C   0  0  2  0  0  3  0  0  0  0  0  0
  188.2700  177.5050  135.8100 C   0  0  0  0  0  2  0  0  0  0  0  0
  186.9630  177.3150  142.9750 C   0  0  0  0  0  3  0  0  0  0  0  0
  187.8380  177.8820  142.2080 N   0  0  0  0  0  0  0  0  0  0  0  0
  184.8770  179.2730  142.1700 F   0  0  0  0  0  0  0  0  0  0  0  0
  186.0950  178.1050  143.8570 C   0  0  0  0  0  0  0  0  0  0  0  0
  184.7440  178.5990  143.3700 C   0  0  1  0  0  3  0  0  0  0  0  0
  184.1820  178.9740  145.7870 C   0  0  0  0  0  2  0  0  0  0  0  0
  185.6620  179.0010  146.1430 C   0  0  0  0  0  2  0  0  0  0  0  0
  186.4700  178.2380  145.1340 C   0  0  0  0  0  3  0  0  0  0  0  0
  184.0190  179.5040  144.3710 C   0  0  0  0  0  2  0  0  0  0  0  0
  186.3810  177.5650  138.0550 C   0  0  1  0  0  3  0  0  0  0  0  0
  185.0060  178.1980  138.3450 C   0  0  1  0  0  3  0  0  0  0  0  0
  184.1110  177.3550  139.2370 C   0  0  0  0  0  1  0  0  0  0  0  0
  185.1740  179.4610  138.9120 O   0  0  0  0  0  1  0  0  0  0  0  0
  185.2770  176.3900  136.0700 C   0  0  0  0  0  1  0  0  0  0  0  0
  186.7770  175.1060  137.5930 C   0  0  0  0  0  1  0  0  0  0  0  0
  186.4890  176.4650  136.9840 C   0  0  0  0  0  3  0  0  0  0  0  0
  1  8  1  0  0  0  0
  2 13  1  0  0  0  0
  3  8  1  6  0  0  0
  3 17  1  0  0  0  0
  4 16  1  0  0  0  0
  5  6  2  0  0  0  0
  6  2  1  0  0  0  0
  8  2  2  0  0  0  0
 10  5  1  0  0  0  0
 10  1  2  0  0  0  0
 11 18  1  6  0  0  0
 11  3  1  0  0  0  0
 11 15  1  0  0  0  0
 12  1  1  0  0  0  0
 12 18  1  0  0  0  0
 13  7  2  0  0  0  0
 14  4  1  0  0  0  0
 15 28  1  1  0  0  0
 15 14  1  0  0  0  0
 16  9  2  0  0  0  0
 16 20  1  0  0  0  0
 17  7  1  1  0  0  0
 17  4  1  0  0  0  0
 19 22  1  0  0  0  0
 20 19  2  0  0  0  0
 22 26  2  0  0  0  0
 23 21  1  6  0  0  0
 23 22  1  0  0  0  0
 23 27  1  0  0  0  0
 24 25  1  0  0  0  0
 26 25  1  0  0  0  0
 27 24  1  0  0  0  0
 28 34  1  6  0  0  0
 28 29  1  0  0  0  0
 29 31  1  0  0  0  0
 29 30  1  1  0  0  0
 32 34  1  0  0  0  0
 34 33  1  0  0  0  0
M  END
>  <MODEL>
9

>  <REMARK>
 VINA RESULT:      -6.4      2.796      8.293
  Name = 
  5 active torsions:
  status: ('A' for Active; 'I' for Inactive)
    1  A    between atoms: C_3  and  C_13
    2  A    between atoms: C_7  and  C_23
    3  A    between atoms: N_17  and  C_29
    4  A    between atoms: C_23  and  C_27
    5  A    between atoms: C_23  and  C_28
                            x       y       z     vdW  Elec       q    Type
                         _______ _______ _______ _____ _____    ______ ____

>  <TORSDO>
F 5

$$$$
