=
 OpenBabel11052415553D

 34 39  0  0  0  0  0  0  0  0999 V2000
  187.0650  178.1760  144.3520 C   0  0  0  0  0  0  0  0  0  0  0  0
  183.3900  179.0810  144.7850 C   0  0  0  0  0  3  0  0  0  0  0  0
  185.1860  178.9600  146.3950 O   0  0  0  0  0  0  0  0  0  0  0  0
  189.5620  176.9670  145.2140 C   0  0  0  0  0  2  0  0  0  0  0  0
  187.6180  177.0140  143.6610 N   0  0  0  0  0  2  0  0  0  0  0  0
  188.6250  177.5740  146.2210 C   0  0  0  0  0  0  0  0  0  0  0  0
  188.0800  178.0870  148.5270 C   0  0  0  0  0  3  0  0  0  0  0  0
  188.9720  177.5820  147.5750 C   0  0  0  0  0  3  0  0  0  0  0  0
  189.0150  177.0420  143.8520 N   0  0  0  0  0  0  0  0  0  0  0  0
  186.4650  178.5500  146.7810 C   0  0  0  0  0  0  0  0  0  0  0  0
  187.3770  178.0820  145.8200 C   0  0  0  0  0  0  0  0  0  0  0  0
  186.8260  178.5640  148.1310 C   0  0  0  0  0  3  0  0  0  0  0  0
  182.9030  178.9250  143.4830 C   0  0  0  0  0  0  0  0  0  0  0  0
  183.7740  178.4960  142.4700 C   0  0  0  0  0  3  0  0  0  0  0  0
  184.7270  178.8030  145.0820 C   0  0  0  0  0  0  0  0  0  0  0  0
  185.1140  178.2240  142.7570 C   0  0  0  0  0  2  0  0  0  0  0  0
  185.5960  178.3570  144.0660 C   0  0  0  0  0  0  0  0  0  0  0  0
  192.1140  177.3170  141.7610 C   0  0  0  0  0  3  0  0  0  0  0  0
  189.4030  176.6880  141.4370 C   0  0  0  0  0  3  0  0  0  0  0  0
  191.9910  176.6270  138.1240 C   0  0  0  0  0  0  0  0  0  0  0  0
  192.4810  176.9620  139.3930 C   0  0  0  0  0  3  0  0  0  0  0  0
  191.6250  176.9840  140.4980 C   0  0  0  0  0  0  0  0  0  0  0  0
  189.7680  176.3330  139.0700 C   0  0  0  0  0  3  0  0  0  0  0  0
  190.2580  176.6660  140.3340 C   0  0  0  0  0  0  0  0  0  0  0  0
  190.6320  176.3130  137.9700 C   0  0  0  0  0  3  0  0  0  0  0  0
  189.8900  177.0250  142.7110 C   0  0  0  0  0  0  0  0  0  0  0  0
  191.2520  177.3360  142.8610 C   0  0  0  0  0  3  0  0  0  0  0  0
  192.8970  176.6060  136.9650 C   0  0  0  0  0  0  0  0  0  0  0  0
  192.4590  176.1080  135.7430 O   0  0  0  0  0  0  0  0  0  0  0  0
  194.0770  177.0360  137.0680 O   0  0  0  0  0  1  0  0  0  0  0  0
  181.5180  179.2160  143.2210 N   0  0  0  0  0  2  0  0  0  0  0  0
  180.4320  178.3340  143.4020 N   0  0  0  0  0  0  0  0  0  0  0  0
  179.8060  178.0790  142.1130 C   0  0  0  0  0  1  0  0  0  0  0  0
  179.4520  178.9580  144.2790 C   0  0  0  0  0  1  0  0  0  0  0  0
  1 11  1  0  0  0  0
  2 15  2  0  0  0  0
  3 10  1  0  0  0  0
  4  6  1  0  0  0  0
  5  9  1  0  0  0  0
  5  1  1  0  0  0  0
  6  8  1  0  0  0  0
  8  7  2  0  0  0  0
  9  4  1  0  0  0  0
 10 12  2  0  0  0  0
 11  6  2  0  0  0  0
 11 10  1  0  0  0  0
 12  7  1  0  0  0  0
 13  2  1  0  0  0  0
 14 16  1  0  0  0  0
 14 13  2  0  0  0  0
 15  3  1  0  0  0  0
 16 17  1  0  0  0  0
 17  1  2  0  0  0  0
 17 15  1  0  0  0  0
 18 27  1  0  0  0  0
 19 26  1  0  0  0  0
 20 21  2  0  0  0  0
 21 22  1  0  0  0  0
 22 18  2  0  0  0  0
 23 24  1  0  0  0  0
 24 22  1  0  0  0  0
 24 19  2  0  0  0  0
 25 20  1  0  0  0  0
 25 23  2  0  0  0  0
 26 27  2  0  0  0  0
 26  9  1  0  0  0  0
 28 30  1  0  0  0  0
 28 20  1  0  0  0  0
 29 28  2  0  0  0  0
 31 32  1  0  0  0  0
 31 13  1  0  0  0  0
 32 34  1  0  0  0  0
 33 32  1  0  0  0  0
M  END
>  <MODEL>
1

>  <REMARK>
 VINA RESULT:     -10.7      0.000      0.000
  Name = 
  4 active torsions:
  status: ('A' for Active; 'I' for Inactive)
    1  A    between atoms: N_3  and  N_25
    2  A    between atoms: C_7  and  C_11
    3  A    between atoms: N_18  and  C_30
    4  A    between atoms: C_23  and  N_25
                            x       y       z     vdW  Elec       q    Type
                         _______ _______ _______ _____ _____    ______ ____

>  <TORSDO>
F 4

$$$$
=
 OpenBabel11052415553D

 34 39  0  0  0  0  0  0  0  0999 V2000
  188.9480  177.3050  143.6000 C   0  0  0  0  0  0  0  0  0  0  0  0
  191.8620  176.7160  141.2180 C   0  0  0  0  0  3  0  0  0  0  0  0
  191.6710  176.3540  143.5980 O   0  0  0  0  0  0  0  0  0  0  0  0
  187.7940  178.0730  146.1530 C   0  0  0  0  0  2  0  0  0  0  0  0
  188.1360  178.5130  143.7270 N   0  0  0  0  0  2  0  0  0  0  0  0
  189.1320  177.3890  146.1000 C   0  0  0  0  0  0  0  0  0  0  0  0
  191.0820  176.5180  147.2460 C   0  0  0  0  0  3  0  0  0  0  0  0
  189.8090  177.0960  147.2870 C   0  0  0  0  0  3  0  0  0  0  0  0
  187.2520  178.3070  144.8070 N   0  0  0  0  0  0  0  0  0  0  0  0
  191.0300  176.5530  144.8240 C   0  0  0  0  0  0  0  0  0  0  0  0
  189.7350  177.0940  144.8650 C   0  0  0  0  0  0  0  0  0  0  0  0
  191.6940  176.2530  146.0170 C   0  0  0  0  0  3  0  0  0  0  0  0
  191.3310  177.1600  140.0030 C   0  0  0  0  0  0  0  0  0  0  0  0
  190.0270  177.6770  139.9700 C   0  0  0  0  0  3  0  0  0  0  0  0
  191.1110  176.7970  142.3940 C   0  0  0  0  0  0  0  0  0  0  0  0
  189.2670  177.7520  141.1400 C   0  0  0  0  0  2  0  0  0  0  0  0
  189.8080  177.3320  142.3610 C   0  0  0  0  0  0  0  0  0  0  0  0
  183.6020  178.7770  145.5170 C   0  0  0  0  0  3  0  0  0  0  0  0
  185.2880  178.4030  143.3100 C   0  0  0  0  0  3  0  0  0  0  0  0
  181.1430  178.8290  142.7470 C   0  0  0  0  0  0  0  0  0  0  0  0
  181.6850  178.8740  144.0380 C   0  0  0  0  0  3  0  0  0  0  0  0
  183.0620  178.7320  144.2310 C   0  0  0  0  0  0  0  0  0  0  0  0
  183.3730  178.4990  141.8310 C   0  0  0  0  0  3  0  0  0  0  0  0
  183.9120  178.5440  143.1180 C   0  0  0  0  0  0  0  0  0  0  0  0
  181.9940  178.6420  141.6460 C   0  0  0  0  0  3  0  0  0  0  0  0
  185.8350  178.4450  144.6040 C   0  0  0  0  0  0  0  0  0  0  0  0
  184.9790  178.6350  145.7010 C   0  0  0  0  0  3  0  0  0  0  0  0
  179.6920  178.9790  142.5500 C   0  0  0  0  0  0  0  0  0  0  0  0
  179.0910  180.2240  142.6970 O   0  0  0  0  0  1  0  0  0  0  0  0
  178.9820  177.9830  142.2490 O   0  0  0  0  0  0  0  0  0  0  0  0
  192.1400  177.0640  138.8160 N   0  0  0  0  0  2  0  0  0  0  0  0
  192.4970  175.8770  138.1440 N   0  0  0  0  0  0  0  0  0  0  0  0
  193.4040  176.2010  137.0520 C   0  0  0  0  0  1  0  0  0  0  0  0
  191.2990  175.2660  137.5860 C   0  0  0  0  0  1  0  0  0  0  0  0
  1  5  1  0  0  0  0
  1 11  1  0  0  0  0
  2 15  2  0  0  0  0
  3 10  1  0  0  0  0
  5  9  1  0  0  0  0
  6  4  1  0  0  0  0
  6  8  1  0  0  0  0
  7  8  2  0  0  0  0
  9  4  1  0  0  0  0
 10 11  1  0  0  0  0
 10 12  2  0  0  0  0
 11  6  2  0  0  0  0
 12  7  1  0  0  0  0
 13  2  1  0  0  0  0
 14 13  2  0  0  0  0
 14 16  1  0  0  0  0
 15  3  1  0  0  0  0
 16 17  1  0  0  0  0
 17 15  1  0  0  0  0
 17  1  2  0  0  0  0
 18 27  1  0  0  0  0
 19 26  1  0  0  0  0
 20 21  2  0  0  0  0
 21 22  1  0  0  0  0
 22 18  2  0  0  0  0
 23 24  1  0  0  0  0
 24 19  2  0  0  0  0
 24 22  1  0  0  0  0
 25 23  2  0  0  0  0
 25 20  1  0  0  0  0
 26  9  1  0  0  0  0
 26 27  2  0  0  0  0
 28 29  1  0  0  0  0
 28 20  1  0  0  0  0
 30 28  2  0  0  0  0
 31 13  1  0  0  0  0
 32 31  1  0  0  0  0
 33 32  1  0  0  0  0
 34 32  1  0  0  0  0
M  END
>  <MODEL>
2

>  <REMARK>
 VINA RESULT:     -10.5      2.923      8.866
  Name = 
  4 active torsions:
  status: ('A' for Active; 'I' for Inactive)
    1  A    between atoms: N_3  and  N_25
    2  A    between atoms: C_7  and  C_11
    3  A    between atoms: N_18  and  C_30
    4  A    between atoms: C_23  and  N_25
                            x       y       z     vdW  Elec       q    Type
                         _______ _______ _______ _____ _____    ______ ____

>  <TORSDO>
F 4

$$$$
=
 OpenBabel11052415553D

 34 39  0  0  1  0  0  0  0  0999 V2000
  188.0270  177.5970  143.2760 C   0  0  0  0  0  0  0  0  0  0  0  0
  188.9190  177.4010  146.9750 C   0  0  0  0  0  3  0  0  0  0  0  0
  186.7990  177.7780  145.8810 O   0  0  0  0  0  0  0  0  0  0  0  0
  186.5440  178.6580  141.0150 C   0  0  0  0  0  2  0  0  0  0  0  0
  188.6920  178.3890  142.2440 N   0  0  0  0  0  2  0  0  0  0  0  0
  185.8900  178.5420  142.3640 C   0  0  2  0  0  3  0  0  0  0  0  0
  183.9550  178.8750  143.7850 C   0  0  0  0  0  3  0  0  0  0  0  0
  184.5530  178.9190  142.5220 C   0  0  0  0  0  3  0  0  0  0  0  0
  187.9490  178.2280  141.0550 N   0  0  0  0  0  0  0  0  0  0  0  0
  186.0390  178.1080  144.7550 C   0  0  0  0  0  0  0  0  0  0  0  0
  186.6280  178.1120  143.4800 C   0  0  0  0  0  0  0  0  0  0  0  0
  184.6980  178.4760  144.9010 C   0  0  0  0  0  3  0  0  0  0  0  0
  190.3020  177.1990  146.9240 C   0  0  0  0  0  0  0  0  0  0  0  0
  190.9450  177.1550  145.6780 C   0  0  0  0  0  3  0  0  0  0  0  0
  188.1810  177.5700  145.8000 C   0  0  0  0  0  0  0  0  0  0  0  0
  190.2130  177.3150  144.4990 C   0  0  0  0  0  3  0  0  0  0  0  0
  188.8320  177.5410  144.5500 C   0  0  0  0  0  0  0  0  0  0  0  0
  188.5200  177.2210  137.4910 C   0  0  0  0  0  3  0  0  0  0  0  0
  189.9590  177.3890  139.8890 C   0  0  0  0  0  3  0  0  0  0  0  0
  191.8510  176.0340  136.3880 C   0  0  0  0  0  0  0  0  0  0  0  0
  190.5000  176.4020  136.3580 C   0  0  0  0  0  3  0  0  0  0  0  0
  189.8660  176.8540  137.5200 C   0  0  0  0  0  0  0  0  0  0  0  0
  191.9390  176.5710  138.7590 C   0  0  0  0  0  3  0  0  0  0  0  0
  190.5930  176.9380  138.7290 C   0  0  0  0  0  0  0  0  0  0  0  0
  192.5660  176.1210  137.5920 C   0  0  0  0  0  3  0  0  0  0  0  0
  188.6040  177.7570  139.8650 C   0  0  0  0  0  0  0  0  0  0  0  0
  187.8940  177.6710  138.6560 C   0  0  0  0  0  3  0  0  0  0  0  0
  192.5130  175.5610  135.1610 C   0  0  0  0  0  0  0  0  0  0  0  0
  192.1470  174.3450  134.5940 O   0  0  0  0  0  0  0  0  0  0  0  0
  193.4160  176.2490  134.6150 O   0  0  0  0  0  1  0  0  0  0  0  0
  191.0240  177.0350  148.1580 N   0  0  0  0  0  2  0  0  0  0  0  0
  192.4220  176.9020  148.2940 N   0  0  0  0  0  0  0  0  0  0  0  0
  192.7750  175.4910  148.2280 C   0  0  0  0  0  1  0  0  0  0  0  0
  192.8270  177.4220  149.5920 C   0  0  0  0  0  1  0  0  0  0  0  0
  1 11  2  0  0  0  0
  1 17  1  0  0  0  0
  4  9  1  0  0  0  0
  5  1  1  0  0  0  0
  6  4  1  1  0  0  0
  6  8  1  0  0  0  0
  6 11  1  0  0  0  0
  7 12  1  0  0  0  0
  8  7  2  0  0  0  0
  9  5  1  0  0  0  0
 10 12  2  0  0  0  0
 10  3  1  0  0  0  0
 11 10  1  0  0  0  0
 13  2  1  0  0  0  0
 13 31  1  0  0  0  0
 14 13  2  0  0  0  0
 15  3  1  0  0  0  0
 15  2  2  0  0  0  0
 16 17  2  0  0  0  0
 16 14  1  0  0  0  0
 17 15  1  0  0  0  0
 18 22  2  0  0  0  0
 18 27  1  0  0  0  0
 20 25  1  0  0  0  0
 21 20  2  0  0  0  0
 21 22  1  0  0  0  0
 22 24  1  0  0  0  0
 24 23  1  0  0  0  0
 24 19  2  0  0  0  0
 25 23  2  0  0  0  0
 26 19  1  0  0  0  0
 26  9  1  0  0  0  0
 27 26  2  0  0  0  0
 28 20  1  0  0  0  0
 29 28  2  0  0  0  0
 30 28  1  0  0  0  0
 31 32  1  0  0  0  0
 32 34  1  0  0  0  0
 33 32  1  0  0  0  0
M  END
>  <MODEL>
3

>  <REMARK>
 VINA RESULT:      -9.5      2.566      6.076
  Name = 
  4 active torsions:
  status: ('A' for Active; 'I' for Inactive)
    1  A    between atoms: N_3  and  N_25
    2  A    between atoms: C_7  and  C_11
    3  A    between atoms: N_18  and  C_30
    4  A    between atoms: C_23  and  N_25
                            x       y       z     vdW  Elec       q    Type
                         _______ _______ _______ _____ _____    ______ ____

>  <TORSDO>
F 4

$$$$
=
 OpenBabel11052415553D

 34 39  0  0  1  0  0  0  0  0999 V2000
  186.2920  178.0990  140.4090 C   0  0  0  0  0  0  0  0  0  0  0  0
  182.5560  178.7060  139.9800 C   0  0  0  0  0  3  0  0  0  0  0  0
  184.2880  178.3030  138.3450 O   0  0  0  0  0  0  0  0  0  0  0  0
  189.0740  178.3520  139.6110 C   0  0  0  0  0  2  0  0  0  0  0  0
  187.2340  178.8860  141.2000 N   0  0  0  0  0  2  0  0  0  0  0  0
  187.9920  178.2550  138.5710 C   0  0  0  0  0  0  0  0  0  0  0  0
  187.3280  178.2300  136.2400 C   0  0  0  0  0  3  0  0  0  0  0  0
  188.3310  178.2560  137.2150 C   0  0  0  0  0  3  0  0  0  0  0  0
  188.5190  178.3500  140.9720 N   0  0  0  0  0  0  0  0  0  0  0  0
  185.6320  178.2350  137.9700 C   0  0  2  0  0  3  0  0  0  0  0  0
  186.6390  178.2190  138.9500 C   0  0  0  0  0  0  0  0  0  0  0  0
  185.9810  178.2260  136.6170 C   0  0  0  0  0  3  0  0  0  0  0  0
  182.1450  178.9000  141.3020 C   0  0  0  0  0  0  0  0  0  0  0  0
  183.0980  178.8590  142.3310 C   0  0  0  0  0  3  0  0  0  0  0  0
  183.9030  178.4850  139.6780 C   0  0  0  0  0  0  0  0  0  0  0  0
  184.4450  178.6300  142.0390 C   0  0  0  0  0  3  0  0  0  0  0  0
  184.8600  178.4600  140.7120 C   0  0  0  0  0  0  0  0  0  0  0  0
  191.4300  177.0730  142.9580 C   0  0  0  0  0  3  0  0  0  0  0  0
  188.7930  177.9170  143.3890 C   0  0  0  0  0  3  0  0  0  0  0  0
  191.1590  176.6590  146.6290 C   0  0  0  0  0  0  0  0  0  0  0  0
  191.6870  176.6560  145.3310 C   0  0  0  0  0  3  0  0  0  0  0  0
  190.9040  177.0740  144.2500 C   0  0  0  0  0  0  0  0  0  0  0  0
  189.0480  177.5010  145.7610 C   0  0  0  0  0  3  0  0  0  0  0  0
  189.5750  177.5000  144.4690 C   0  0  0  0  0  0  0  0  0  0  0  0
  189.8380  177.0830  146.8370 C   0  0  0  0  0  3  0  0  0  0  0  0
  189.3180  177.9150  142.0860 C   0  0  0  0  0  0  0  0  0  0  0  0
  190.6410  177.4920  141.8830 C   0  0  0  0  0  3  0  0  0  0  0  0
  191.9880  176.2180  147.7620 C   0  0  0  0  0  0  0  0  0  0  0  0
  192.4290  177.1390  148.7070 O   0  0  0  0  0  1  0  0  0  0  0  0
  192.3080  175.0060  147.8880 O   0  0  0  0  0  0  0  0  0  0  0  0
  180.7500  179.1300  141.5680 N   0  0  0  0  0  2  0  0  0  0  0  0
  180.2030  180.2330  142.2570 N   0  0  0  0  0  0  0  0  0  0  0  0
  179.4810  179.7540  143.4270 C   0  0  0  0  0  1  0  0  0  0  0  0
  179.2660  180.9250  141.3840 C   0  0  0  0  0  1  0  0  0  0  0  0
  1 17  1  0  0  0  0
  1  5  1  0  0  0  0
  2 13  1  0  0  0  0
  3 15  1  0  0  0  0
  4  9  1  0  0  0  0
  6 11  1  0  0  0  0
  6  4  1  0  0  0  0
  7 12  2  0  0  0  0
  7  8  1  0  0  0  0
  8  6  2  0  0  0  0
  9  5  1  0  0  0  0
  9 26  1  0  0  0  0
 10 12  1  6  0  0  0
 10  3  1  0  0  0  0
 10 11  1  0  0  0  0
 11  1  2  0  0  0  0
 13 31  1  0  0  0  0
 13 14  2  0  0  0  0
 15  2  2  0  0  0  0
 15 17  1  0  0  0  0
 16 14  1  0  0  0  0
 17 16  2  0  0  0  0
 18 22  1  0  0  0  0
 19 24  1  0  0  0  0
 20 25  1  0  0  0  0
 20 28  1  0  0  0  0
 21 20  2  0  0  0  0
 22 24  2  0  0  0  0
 22 21  1  0  0  0  0
 23 25  2  0  0  0  0
 24 23  1  0  0  0  0
 26 19  2  0  0  0  0
 27 26  1  0  0  0  0
 27 18  2  0  0  0  0
 28 30  2  0  0  0  0
 28 29  1  0  0  0  0
 31 32  1  0  0  0  0
 32 33  1  0  0  0  0
 34 32  1  0  0  0  0
M  END
>  <MODEL>
4

>  <REMARK>
 VINA RESULT:      -9.3      3.458      6.647
  Name = 
  4 active torsions:
  status: ('A' for Active; 'I' for Inactive)
    1  A    between atoms: N_3  and  N_25
    2  A    between atoms: C_7  and  C_11
    3  A    between atoms: N_18  and  C_30
    4  A    between atoms: C_23  and  N_25
                            x       y       z     vdW  Elec       q    Type
                         _______ _______ _______ _____ _____    ______ ____

>  <TORSDO>
F 4

$$$$
=
 OpenBabel11052415553D

 34 39  0  0  1  0  0  0  0  0999 V2000
  189.6310  176.7640  138.4480 C   0  0  0  0  0  0  0  0  0  0  0  0
  187.3740  176.6860  135.3800 C   0  0  0  0  0  3  0  0  0  0  0  0
  189.6960  176.0780  135.6470 O   0  0  0  0  0  0  0  0  0  0  0  0
  192.1740  177.1680  139.7930 C   0  0  0  0  0  2  0  0  0  0  0  0
  189.8220  177.8710  139.3820 N   0  0  0  0  0  2  0  0  0  0  0  0
  192.1340  176.6220  138.3920 C   0  0  0  0  0  0  0  0  0  0  0  0
  193.3040  175.8320  136.4220 C   0  0  0  0  0  3  0  0  0  0  0  0
  193.3260  176.2810  137.7470 C   0  0  0  0  0  3  0  0  0  0  0  0
  190.8260  177.4790  140.2910 N   0  0  0  0  0  0  0  0  0  0  0  0
  190.8970  176.0960  136.3620 C   0  0  0  0  0  0  0  0  0  0  0  0
  190.9130  176.5060  137.7050 C   0  0  0  0  0  0  0  0  0  0  0  0
  192.0920  175.7460  135.7290 C   0  0  0  0  0  3  0  0  0  0  0  0
  186.1760  177.1930  135.8950 C   0  0  0  0  0  0  0  0  0  0  0  0
  186.1170  177.5850  137.2400 C   0  0  0  0  0  3  0  0  0  0  0  0
  188.5080  176.5810  136.1900 C   0  0  1  0  0  3  0  0  0  0  0  0
  187.2440  177.4750  138.0590 C   0  0  0  0  0  3  0  0  0  0  0  0
  188.4500  176.9910  137.5380 C   0  0  0  0  0  0  0  0  0  0  0  0
  191.3680  177.5740  143.9990 C   0  0  0  0  0  3  0  0  0  0  0  0
  189.2360  177.4920  142.1820 C   0  0  0  0  0  3  0  0  0  0  0  0
  188.4790  177.5790  146.3170 C   0  0  0  0  0  0  0  0  0  0  0  0
  189.7980  177.5900  145.8440 C   0  0  0  0  0  3  0  0  0  0  0  0
  190.0550  177.5620  144.4700 C   0  0  0  0  0  0  0  0  0  0  0  0
  187.6650  177.5080  144.0250 C   0  0  0  0  0  3  0  0  0  0  0  0
  188.9790  177.5210  143.5540 C   0  0  0  0  0  0  0  0  0  0  0  0
  187.4170  177.5380  145.4010 C   0  0  0  0  0  3  0  0  0  0  0  0
  190.5570  177.5020  141.7030 C   0  0  0  0  0  0  0  0  0  0  0  0
  191.6170  177.5450  142.6240 C   0  0  0  0  0  3  0  0  0  0  0  0
  188.2150  177.6100  147.7650 C   0  0  0  0  0  0  0  0  0  0  0  0
  188.0530  176.4230  148.4710 O   0  0  0  0  0  1  0  0  0  0  0  0
  188.1320  178.7080  148.3760 O   0  0  0  0  0  0  0  0  0  0  0  0
  185.0340  177.2900  135.0250 N   0  0  0  0  0  2  0  0  0  0  0  0
  183.7450  176.7740  135.2790 N   0  0  0  0  0  0  0  0  0  0  0  0
  183.6630  175.4170  134.7590 C   0  0  0  0  0  1  0  0  0  0  0  0
  182.7590  177.5960  134.5940 C   0  0  0  0  0  1  0  0  0  0  0  0
  1  5  1  0  0  0  0
  2 13  2  0  0  0  0
  3 15  1  0  0  0  0
  3 10  1  0  0  0  0
  4  9  1  0  0  0  0
  5  9  1  0  0  0  0
  6  4  1  0  0  0  0
  7  8  2  0  0  0  0
  8  6  1  0  0  0  0
  9 26  1  0  0  0  0
 10 11  1  0  0  0  0
 11  6  2  0  0  0  0
 11  1  1  0  0  0  0
 12 10  2  0  0  0  0
 12  7  1  0  0  0  0
 13 14  1  0  0  0  0
 14 16  2  0  0  0  0
 15  2  1  6  0  0  0
 15 17  1  0  0  0  0
 17 16  1  0  0  0  0
 17  1  2  0  0  0  0
 18 22  1  0  0  0  0
 19 24  1  0  0  0  0
 20 28  1  0  0  0  0
 21 20  1  0  0  0  0
 22 21  2  0  0  0  0
 23 25  1  0  0  0  0
 24 23  2  0  0  0  0
 24 22  1  0  0  0  0
 25 20  2  0  0  0  0
 26 19  2  0  0  0  0
 26 27  1  0  0  0  0
 27 18  2  0  0  0  0
 28 30  2  0  0  0  0
 28 29  1  0  0  0  0
 31 32  1  0  0  0  0
 31 13  1  0  0  0  0
 33 32  1  0  0  0  0
 34 32  1  0  0  0  0
M  END
>  <MODEL>
5

>  <REMARK>
 VINA RESULT:      -9.0      3.714      8.629
  Name = 
  4 active torsions:
  status: ('A' for Active; 'I' for Inactive)
    1  A    between atoms: N_3  and  N_25
    2  A    between atoms: C_7  and  C_11
    3  A    between atoms: N_18  and  C_30
    4  A    between atoms: C_23  and  N_25
                            x       y       z     vdW  Elec       q    Type
                         _______ _______ _______ _____ _____    ______ ____

>  <TORSDO>
F 4

$$$$
=
 OpenBabel11052415553D

 34 39  0  0  1  0  0  0  0  0999 V2000
  182.6670  178.9160  140.5170 C   0  0  0  0  0  0  0  0  0  0  0  0
  182.2910  178.3560  136.7680 C   0  0  0  0  0  3  0  0  0  0  0  0
  180.9490  179.6360  138.3140 O   0  0  0  0  0  0  0  0  0  0  0  0
  181.6300  179.2820  143.2060 C   0  0  0  0  0  2  0  0  0  0  0  0
  182.8760  177.9040  141.5490 N   0  0  0  0  0  2  0  0  0  0  0  0
  180.8710  179.8130  142.0210 C   0  0  0  0  0  0  0  0  0  0  0  0
  178.9310  180.9540  141.1200 C   0  0  0  0  0  3  0  0  0  0  0  0
  179.6760  180.5120  142.2180 C   0  0  0  0  0  3  0  0  0  0  0  0
  182.8460  178.5680  142.7940 N   0  0  0  0  0  0  0  0  0  0  0  0
  180.5530  179.9720  139.6120 C   0  0  0  0  0  0  0  0  0  0  0  0
  181.3230  179.5640  140.7140 C   0  0  0  0  0  0  0  0  0  0  0  0
  179.3660  180.6790  139.8190 C   0  0  0  0  0  3  0  0  0  0  0  0
  183.3650  177.5000  136.4990 C   0  0  0  0  0  0  0  0  0  0  0  0
  184.1940  177.0860  137.5520 C   0  0  0  0  0  3  0  0  0  0  0  0
  182.0350  178.7870  138.0720 C   0  0  1  0  0  3  0  0  0  0  0  0
  183.9500  177.5200  138.8570 C   0  0  0  0  0  3  0  0  0  0  0  0
  182.8610  178.3570  139.1310 C   0  0  0  0  0  0  0  0  0  0  0  0
  184.8870  178.6610  145.9370 C   0  0  0  0  0  3  0  0  0  0  0  0
  185.2000  177.9610  143.2420 C   0  0  0  0  0  3  0  0  0  0  0  0
  188.4300  177.5820  145.9050 C   0  0  0  0  0  0  0  0  0  0  0  0
  187.1940  178.0590  146.3630 C   0  0  0  0  0  3  0  0  0  0  0  0
  186.1170  178.1870  145.4810 C   0  0  0  0  0  0  0  0  0  0  0  0
  187.5060  177.3580  143.6650 C   0  0  0  0  0  3  0  0  0  0  0  0
  186.2760  177.8330  144.1220 C   0  0  0  0  0  0  0  0  0  0  0  0
  188.5790  177.2330  144.5540 C   0  0  0  0  0  3  0  0  0  0  0  0
  183.9590  178.4410  143.6950 C   0  0  0  0  0  0  0  0  0  0  0  0
  183.8150  178.7860  145.0490 C   0  0  0  0  0  3  0  0  0  0  0  0
  189.5600  177.4490  146.8390 C   0  0  0  0  0  0  0  0  0  0  0  0
  189.4380  177.8890  148.1520 O   0  0  0  0  0  1  0  0  0  0  0  0
  190.6470  176.9380  146.4580 O   0  0  0  0  0  0  0  0  0  0  0  0
  183.5890  177.0750  135.1420 N   0  0  0  0  0  2  0  0  0  0  0  0
  183.3890  175.7750  134.6320 N   0  0  0  0  0  0  0  0  0  0  0  0
  182.2720  175.1560  135.3300 C   0  0  0  0  0  1  0  0  0  0  0  0
  184.5840  174.9800  134.8690 C   0  0  0  0  0  1  0  0  0  0  0  0
  1 11  1  0  0  0  0
  1  5  1  0  0  0  0
  3 10  1  0  0  0  0
  5  9  1  0  0  0  0
  6  8  1  0  0  0  0
  6  4  1  0  0  0  0
  7  8  2  0  0  0  0
  9  4  1  0  0  0  0
  9 26  1  0  0  0  0
 10 12  2  0  0  0  0
 10 11  1  0  0  0  0
 11  6  2  0  0  0  0
 12  7  1  0  0  0  0
 13  2  2  0  0  0  0
 13 14  1  0  0  0  0
 14 16  2  0  0  0  0
 15  2  1  1  0  0  0
 15  3  1  0  0  0  0
 15 17  1  0  0  0  0
 16 17  1  0  0  0  0
 17  1  2  0  0  0  0
 19 26  2  0  0  0  0
 19 24  1  0  0  0  0
 20 21  1  0  0  0  0
 20 28  1  0  0  0  0
 22 18  1  0  0  0  0
 22 21  2  0  0  0  0
 23 24  2  0  0  0  0
 23 25  1  0  0  0  0
 24 22  1  0  0  0  0
 25 20  2  0  0  0  0
 26 27  1  0  0  0  0
 27 18  2  0  0  0  0
 28 29  1  0  0  0  0
 30 28  2  0  0  0  0
 31 13  1  0  0  0  0
 32 34  1  0  0  0  0
 32 31  1  0  0  0  0
 32 33  1  0  0  0  0
M  END
>  <MODEL>
6

>  <REMARK>
 VINA RESULT:      -8.5      4.448      8.380
  Name = 
  4 active torsions:
  status: ('A' for Active; 'I' for Inactive)
    1  A    between atoms: N_3  and  N_25
    2  A    between atoms: C_7  and  C_11
    3  A    between atoms: N_18  and  C_30
    4  A    between atoms: C_23  and  N_25
                            x       y       z     vdW  Elec       q    Type
                         _______ _______ _______ _____ _____    ______ ____

>  <TORSDO>
F 4

$$$$
=
 OpenBabel11052415553D

 34 39  0  0  1  0  0  0  0  0999 V2000
  185.8130  178.0890  142.2670 C   0  0  0  0  0  0  0  0  0  0  0  0
  185.3790  178.2690  146.0480 C   0  0  0  0  0  3  0  0  0  0  0  0
  183.7520  178.3740  144.2650 O   0  0  0  0  0  0  0  0  0  0  0  0
  185.1510  178.8320  139.5380 C   0  0  0  0  0  2  0  0  0  0  0  0
  186.7510  178.8490  141.4440 N   0  0  0  0  0  2  0  0  0  0  0  0
  184.0770  178.7710  140.5900 C   0  0  2  0  0  3  0  0  0  0  0  0
  181.7550  179.0500  141.2260 C   0  0  0  0  0  3  0  0  0  0  0  0
  182.7510  179.0440  140.2440 C   0  0  0  0  0  3  0  0  0  0  0  0
  186.4750  178.5300  140.0980 N   0  0  0  0  0  0  0  0  0  0  0  0
  183.4120  178.5450  142.9210 C   0  0  0  0  0  0  0  0  0  0  0  0
  184.4050  178.4970  141.9290 C   0  0  0  0  0  0  0  0  0  0  0  0
  182.0860  178.8080  142.5630 C   0  0  0  0  0  3  0  0  0  0  0  0
  186.7020  178.1830  146.4900 C   0  0  0  0  0  0  0  0  0  0  0  0
  187.7380  178.0940  145.5490 C   0  0  0  0  0  3  0  0  0  0  0  0
  185.0850  178.2790  144.6810 C   0  0  0  0  0  0  0  0  0  0  0  0
  187.4530  178.0950  144.1810 C   0  0  0  0  0  3  0  0  0  0  0  0
  186.1290  178.2050  143.7370 C   0  0  0  0  0  0  0  0  0  0  0  0
  188.2950  177.2830  137.0680 C   0  0  0  0  0  3  0  0  0  0  0  0
  188.8080  177.7810  139.7770 C   0  0  0  0  0  3  0  0  0  0  0  0
  191.8640  176.3160  137.2890 C   0  0  0  0  0  0  0  0  0  0  0  0
  190.5860  176.5560  136.7650 C   0  0  0  0  0  3  0  0  0  0  0  0
  189.5670  177.0430  137.5890 C   0  0  0  0  0  0  0  0  0  0  0  0
  191.0990  177.0550  139.4770 C   0  0  0  0  0  3  0  0  0  0  0  0
  189.8270  177.2950  138.9550 C   0  0  0  0  0  0  0  0  0  0  0  0
  192.1130  176.5680  138.6460 C   0  0  0  0  0  3  0  0  0  0  0  0
  187.5250  178.0220  139.2570 C   0  0  0  0  0  0  0  0  0  0  0  0
  187.2810  177.7700  137.8970 C   0  0  0  0  0  3  0  0  0  0  0  0
  192.9330  175.8030  136.4160 C   0  0  0  0  0  0  0  0  0  0  0  0
  194.2050  176.3630  136.4650 O   0  0  0  0  0  1  0  0  0  0  0  0
  192.7070  174.8550  135.6190 O   0  0  0  0  0  0  0  0  0  0  0  0
  186.9610  178.1820  147.9060 N   0  0  0  0  0  2  0  0  0  0  0  0
  188.0340  177.5370  148.5580 N   0  0  0  0  0  0  0  0  0  0  0  0
  189.1270  178.4840  148.7260 C   0  0  0  0  0  1  0  0  0  0  0  0
  188.4990  176.4320  147.7320 C   0  0  0  0  0  1  0  0  0  0  0  0
  1 17  1  0  0  0  0
  2 13  1  0  0  0  0
  3 15  1  0  0  0  0
  4  9  1  0  0  0  0
  5  1  1  0  0  0  0
  6  4  1  1  0  0  0
  6 11  1  0  0  0  0
  7 12  1  0  0  0  0
  8  6  1  0  0  0  0
  8  7  2  0  0  0  0
  9  5  1  0  0  0  0
 10  3  1  0  0  0  0
 11  1  2  0  0  0  0
 11 10  1  0  0  0  0
 12 10  2  0  0  0  0
 13 31  1  0  0  0  0
 14 13  2  0  0  0  0
 15  2  2  0  0  0  0
 16 14  1  0  0  0  0
 17 16  2  0  0  0  0
 17 15  1  0  0  0  0
 18 22  2  0  0  0  0
 18 27  1  0  0  0  0
 20 25  1  0  0  0  0
 21 20  2  0  0  0  0
 21 22  1  0  0  0  0
 22 24  1  0  0  0  0
 24 23  1  0  0  0  0
 24 19  2  0  0  0  0
 25 23  2  0  0  0  0
 26 19  1  0  0  0  0
 26  9  1  0  0  0  0
 27 26  2  0  0  0  0
 28 29  1  0  0  0  0
 28 20  1  0  0  0  0
 30 28  2  0  0  0  0
 31 32  1  0  0  0  0
 32 33  1  0  0  0  0
 34 32  1  0  0  0  0
M  END
>  <MODEL>
7

>  <REMARK>
 VINA RESULT:      -8.4      2.304      5.483
  Name = 
  4 active torsions:
  status: ('A' for Active; 'I' for Inactive)
    1  A    between atoms: N_3  and  N_25
    2  A    between atoms: C_7  and  C_11
    3  A    between atoms: N_18  and  C_30
    4  A    between atoms: C_23  and  N_25
                            x       y       z     vdW  Elec       q    Type
                         _______ _______ _______ _____ _____    ______ ____

>  <TORSDO>
F 4

$$$$
=
 OpenBabel11052415553D

 34 39  0  0  1  0  0  0  0  0999 V2000
  186.1010  177.6350  138.5920 C   0  0  0  0  0  0  0  0  0  0  0  0
  182.7320  177.6700  136.8140 C   0  0  0  0  0  3  0  0  0  0  0  0
  184.9650  177.3300  135.9580 O   0  0  0  0  0  0  0  0  0  0  0  0
  188.9490  178.1800  138.7730 C   0  0  0  0  0  2  0  0  0  0  0  0
  186.6200  178.6280  139.5290 N   0  0  0  0  0  2  0  0  0  0  0  0
  188.3270  177.8190  137.4520 C   0  0  0  0  0  0  0  0  0  0  0  0
  188.5540  177.4430  135.0680 C   0  0  0  0  0  3  0  0  0  0  0  0
  189.1310  177.7160  136.3130 C   0  0  0  0  0  3  0  0  0  0  0  0
  187.9430  178.2520  139.8430 N   0  0  0  0  0  0  0  0  0  0  0  0
  186.3550  177.4070  136.0850 C   0  0  2  0  0  3  0  0  0  0  0  0
  186.9380  177.6390  137.3420 C   0  0  0  0  0  0  0  0  0  0  0  0
  187.1680  177.2950  134.9540 C   0  0  0  0  0  3  0  0  0  0  0  0
  181.8570  177.9510  137.8680 C   0  0  0  0  0  0  0  0  0  0  0  0
  182.3750  178.1560  139.1550 C   0  0  0  0  0  3  0  0  0  0  0  0
  184.1120  177.6050  137.0330 C   0  0  0  0  0  0  0  0  0  0  0  0
  183.7510  178.0840  139.3840 C   0  0  0  0  0  3  0  0  0  0  0  0
  184.6300  177.8270  138.3240 C   0  0  0  0  0  0  0  0  0  0  0  0
  190.0550  177.6940  142.8890 C   0  0  0  0  0  3  0  0  0  0  0  0
  187.3550  178.0590  142.2350 C   0  0  0  0  0  3  0  0  0  0  0  0
  188.4960  177.5100  146.2440 C   0  0  0  0  0  0  0  0  0  0  0  0
  189.4650  177.5110  145.2310 C   0  0  0  0  0  3  0  0  0  0  0  0
  189.0900  177.6930  143.8970 C   0  0  0  0  0  0  0  0  0  0  0  0
  186.7630  177.8750  144.5760 C   0  0  0  0  0  3  0  0  0  0  0  0
  187.7290  177.8770  143.5680 C   0  0  0  0  0  0  0  0  0  0  0  0
  187.1460  177.6930  145.9090 C   0  0  0  0  0  3  0  0  0  0  0  0
  188.3230  178.0590  141.2160 C   0  0  0  0  0  0  0  0  0  0  0  0
  189.6730  177.8770  141.5570 C   0  0  0  0  0  3  0  0  0  0  0  0
  188.8970  177.3180  147.6470 C   0  0  0  0  0  0  0  0  0  0  0  0
  187.9310  177.1440  148.6330 O   0  0  0  0  0  1  0  0  0  0  0  0
  190.1140  177.3100  147.9690 O   0  0  0  0  0  0  0  0  0  0  0  0
  180.4450  178.0140  137.5970 N   0  0  0  0  0  2  0  0  0  0  0  0
  179.7640  179.0760  136.9650 N   0  0  0  0  0  0  0  0  0  0  0  0
  179.6200  178.7720  135.5480 C   0  0  0  0  0  1  0  0  0  0  0  0
  180.5480  180.2950  137.1020 C   0  0  0  0  0  1  0  0  0  0  0  0
  1  5  1  0  0  0  0
  2 15  2  0  0  0  0
  2 13  1  0  0  0  0
  3 10  1  0  0  0  0
  3 15  1  0  0  0  0
  4  9  1  0  0  0  0
  5  9  1  0  0  0  0
  6  4  1  0  0  0  0
  7  8  1  0  0  0  0
  8  6  2  0  0  0  0
  9 26  1  0  0  0  0
 10 12  1  6  0  0  0
 10 11  1  0  0  0  0
 11  6  1  0  0  0  0
 11  1  2  0  0  0  0
 12  7  2  0  0  0  0
 13 14  2  0  0  0  0
 14 16  1  0  0  0  0
 15 17  1  0  0  0  0
 17  1  1  0  0  0  0
 17 16  2  0  0  0  0
 18 22  1  0  0  0  0
 19 24  1  0  0  0  0
 20 28  1  0  0  0  0
 21 20  2  0  0  0  0
 22 21  1  0  0  0  0
 23 25  2  0  0  0  0
 24 22  2  0  0  0  0
 24 23  1  0  0  0  0
 25 20  1  0  0  0  0
 26 27  1  0  0  0  0
 26 19  2  0  0  0  0
 27 18  2  0  0  0  0
 28 30  2  0  0  0  0
 28 29  1  0  0  0  0
 31 13  1  0  0  0  0
 32 34  1  0  0  0  0
 32 31  1  0  0  0  0
 33 32  1  0  0  0  0
M  END
>  <MODEL>
8

>  <REMARK>
 VINA RESULT:      -8.4      3.970      7.920
  Name = 
  4 active torsions:
  status: ('A' for Active; 'I' for Inactive)
    1  A    between atoms: N_3  and  N_25
    2  A    between atoms: C_7  and  C_11
    3  A    between atoms: N_18  and  C_30
    4  A    between atoms: C_23  and  N_25
                            x       y       z     vdW  Elec       q    Type
                         _______ _______ _______ _____ _____    ______ ____

>  <TORSDO>
F 4

$$$$
=
 OpenBabel11052415553D

 34 39  0  0  1  0  0  0  0  0999 V2000
  187.0220  178.2830  141.1320 C   0  0  0  0  0  0  0  0  0  0  0  0
  187.5650  178.4270  137.3640 C   0  0  0  0  0  3  0  0  0  0  0  0
  185.6520  179.0340  138.7070 O   0  0  0  0  0  0  0  0  0  0  0  0
  185.4090  177.8540  143.5100 C   0  0  0  0  0  2  0  0  0  0  0  0
  187.2790  177.1550  142.0230 N   0  0  0  0  0  2  0  0  0  0  0  0
  184.7900  178.4320  142.2670 C   0  0  0  0  0  0  0  0  0  0  0  0
  182.8390  179.2710  141.0980 C   0  0  0  0  0  3  0  0  0  0  0  0
  183.4390  178.7920  142.2670 C   0  0  0  0  0  3  0  0  0  0  0  0
  186.8270  177.5280  143.3070 N   0  0  0  0  0  0  0  0  0  0  0  0
  184.9300  179.0020  139.9040 C   0  0  0  0  0  0  0  0  0  0  0  0
  185.5440  178.5610  141.0880 C   0  0  0  0  0  0  0  0  0  0  0  0
  183.5820  179.3700  139.9170 C   0  0  0  0  0  3  0  0  0  0  0  0
  188.8570  177.9050  137.2430 C   0  0  0  0  0  0  0  0  0  0  0  0
  189.5380  177.4810  138.3930 C   0  0  0  0  0  3  0  0  0  0  0  0
  186.9490  178.5160  138.6160 C   0  0  1  0  0  3  0  0  0  0  0  0
  188.9330  177.5750  139.6490 C   0  0  0  0  0  3  0  0  0  0  0  0
  187.6290  178.0740  139.7680 C   0  0  0  0  0  0  0  0  0  0  0  0
  188.1870  177.8700  146.7830 C   0  0  0  0  0  3  0  0  0  0  0  0
  189.0280  176.9530  144.2720 C   0  0  0  0  0  3  0  0  0  0  0  0
  191.6410  176.7830  147.5620 C   0  0  0  0  0  0  0  0  0  0  0  0
  190.3470  177.2990  147.7180 C   0  0  0  0  0  3  0  0  0  0  0  0
  189.4750  177.3570  146.6270 C   0  0  0  0  0  0  0  0  0  0  0  0
  191.1890  176.3820  145.2050 C   0  0  0  0  0  3  0  0  0  0  0  0
  189.9000  176.8940  145.3620 C   0  0  0  0  0  0  0  0  0  0  0  0
  192.0550  176.3260  146.3010 C   0  0  0  0  0  3  0  0  0  0  0  0
  187.7310  177.4710  144.4240 C   0  0  0  0  0  0  0  0  0  0  0  0
  187.3200  177.9250  145.6880 C   0  0  0  0  0  3  0  0  0  0  0  0
  192.5550  176.7240  148.7140 C   0  0  0  0  0  0  0  0  0  0  0  0
  192.7370  177.8420  149.5210 O   0  0  0  0  0  1  0  0  0  0  0  0
  193.1800  175.6630  148.9800 O   0  0  0  0  0  0  0  0  0  0  0  0
  189.4520  177.8260  135.9350 N   0  0  0  0  0  2  0  0  0  0  0  0
  189.5230  176.6770  135.1190 N   0  0  0  0  0  0  0  0  0  0  0  0
  188.4430  175.7700  135.4790 C   0  0  0  0  0  1  0  0  0  0  0  0
  190.7920  176.0040  135.3510 C   0  0  0  0  0  1  0  0  0  0  0  0
  1  5  1  0  0  0  0
  3 10  1  0  0  0  0
  5  9  1  0  0  0  0
  6  4  1  0  0  0  0
  7  8  2  0  0  0  0
  8  6  1  0  0  0  0
  9  4  1  0  0  0  0
  9 26  1  0  0  0  0
 10 12  2  0  0  0  0
 10 11  1  0  0  0  0
 11  1  1  0  0  0  0
 11  6  2  0  0  0  0
 12  7  1  0  0  0  0
 13  2  2  0  0  0  0
 13 14  1  0  0  0  0
 14 16  2  0  0  0  0
 15  2  1  6  0  0  0
 15  3  1  0  0  0  0
 15 17  1  0  0  0  0
 16 17  1  0  0  0  0
 17  1  2  0  0  0  0
 19 26  2  0  0  0  0
 19 24  1  0  0  0  0
 20 21  1  0  0  0  0
 20 28  1  0  0  0  0
 22 18  1  0  0  0  0
 22 21  2  0  0  0  0
 23 24  2  0  0  0  0
 23 25  1  0  0  0  0
 24 22  1  0  0  0  0
 25 20  2  0  0  0  0
 26 27  1  0  0  0  0
 27 18  2  0  0  0  0
 28 30  2  0  0  0  0
 28 29  1  0  0  0  0
 31 13  1  0  0  0  0
 32 34  1  0  0  0  0
 32 33  1  0  0  0  0
 32 31  1  0  0  0  0
M  END
>  <MODEL>
9

>  <REMARK>
 VINA RESULT:      -8.4      3.770      8.105
  Name = 
  4 active torsions:
  status: ('A' for Active; 'I' for Inactive)
    1  A    between atoms: N_3  and  N_25
    2  A    between atoms: C_7  and  C_11
    3  A    between atoms: N_18  and  C_30
    4  A    between atoms: C_23  and  N_25
                            x       y       z     vdW  Elec       q    Type
                         _______ _______ _______ _____ _____    ______ ____

>  <TORSDO>
F 4

$$$$
