=
 OpenBabel11052415533D

 34 40  0  0  1  0  0  0  0  0999 V2000
  187.1270  178.0380  144.2430 C   0  0  0  0  0  0  0  0  0  0  0  0
  183.4910  178.8920  145.0710 C   0  0  0  0  0  2  0  0  0  0  0  0
  185.4790  178.3980  146.4910 C   0  0  0  0  0  3  0  0  0  0  0  0
  189.8350  177.4440  144.5240 N   0  0  0  0  0  0  0  0  0  0  0  0
  187.9770  177.8440  143.1460 O   0  0  0  0  0  0  0  0  0  0  0  0
  189.0150  177.6290  145.6850 C   0  0  0  0  0  0  0  0  0  0  0  0
  188.7450  177.6970  148.0940 C   0  0  0  0  0  3  0  0  0  0  0  0
  189.5600  177.5150  146.9680 C   0  0  0  0  0  3  0  0  0  0  0  0
  189.3400  177.5450  143.3220 C   0  0  0  0  0  0  0  0  0  0  0  0
  186.8330  178.1070  146.6630 C   0  0  0  0  0  0  0  0  0  0  0  0
  187.6540  177.9260  145.5350 C   0  0  0  0  0  0  0  0  0  0  0  0
  187.3850  177.9930  147.9430 C   0  0  0  0  0  3  0  0  0  0  0  0
  182.9270  178.5620  143.6920 C   0  0  2  0  0  3  0  0  0  0  0  0
  183.8580  179.1150  142.6190 C   0  0  0  0  0  2  0  0  0  0  0  0
  184.9360  178.5010  145.2050 C   0  0  0  0  0  0  0  0  0  0  0  0
  185.1930  178.3810  142.6760 C   0  0  0  0  0  2  0  0  0  0  0  0
  185.7670  178.3400  144.0680 C   0  0  0  0  0  0  0  0  0  0  0  0
  192.4160  177.3840  141.1370 C   0  0  0  0  0  3  0  0  0  0  0  0
  189.6550  176.9520  140.9130 C   0  0  0  0  0  3  0  0  0  0  0  0
  192.1520  176.4080  137.5730 C   0  0  0  0  0  0  0  0  0  0  0  0
  192.6970  176.8060  138.8010 C   0  0  0  0  0  3  0  0  0  0  0  0
  191.8720  176.9880  139.9140 C   0  0  0  0  0  0  0  0  0  0  0  0
  189.9360  176.3740  138.5770 C   0  0  0  0  0  3  0  0  0  0  0  0
  190.4810  176.7700  139.8010 C   0  0  0  0  0  0  0  0  0  0  0  0
  190.7690  176.1940  137.4680 C   0  0  0  0  0  3  0  0  0  0  0  0
  190.2010  177.3500  142.1430 C   0  0  0  0  0  0  0  0  0  0  0  0
  191.5830  177.5640  142.2460 C   0  0  0  0  0  3  0  0  0  0  0  0
  193.0270  176.2180  136.4040 C   0  0  0  0  0  0  0  0  0  0  0  0
  192.6230  175.5710  135.4020 O   0  0  0  0  0  0  0  0  0  0  0  0
  194.3100  176.7520  136.3970 O   0  0  0  0  0  1  0  0  0  0  0  0
  181.6090  179.1550  143.5540 N   0  0  0  0  0  2  0  0  0  0  0  0
  180.9690  178.5220  142.4140 C   0  0  1  0  0  3  0  0  0  0  0  0
  179.5830  178.1820  142.7650 N   0  0  0  0  0  2  0  0  0  0  0  0
  179.8760  179.3620  141.9420 C   0  0  0  0  0  2  0  0  0  0  0  0
  1 11  1  0  0  0  0
  2 15  1  0  0  0  0
  3 10  1  0  0  0  0
  4  6  1  0  0  0  0
  5  9  1  0  0  0  0
  5  1  1  0  0  0  0
  6  8  1  0  0  0  0
  8  7  2  0  0  0  0
  9  4  2  0  0  0  0
 10 12  2  0  0  0  0
 11  6  2  0  0  0  0
 11 10  1  0  0  0  0
 12  7  1  0  0  0  0
 13 31  1  1  0  0  0
 13  2  1  0  0  0  0
 14 16  1  0  0  0  0
 14 13  1  0  0  0  0
 15  3  2  0  0  0  0
 16 17  1  0  0  0  0
 17  1  2  0  0  0  0
 17 15  1  0  0  0  0
 18 27  1  0  0  0  0
 19 26  1  0  0  0  0
 20 21  2  0  0  0  0
 21 22  1  0  0  0  0
 22 18  2  0  0  0  0
 23 24  1  0  0  0  0
 24 22  1  0  0  0  0
 24 19  2  0  0  0  0
 25 20  1  0  0  0  0
 25 23  2  0  0  0  0
 26 27  2  0  0  0  0
 26  9  1  0  0  0  0
 28 20  1  0  0  0  0
 29 28  2  0  0  0  0
 30 28  1  0  0  0  0
 32 33  1  0  0  0  0
 32 31  1  1  0  0  0
 34 32  1  0  0  0  0
 34 33  1  0  0  0  0
M  END
>  <MODEL>
1

>  <REMARK>
 VINA RESULT:     -11.3      0.000      0.000
  Name = 
  4 active torsions:
  status: ('A' for Active; 'I' for Inactive)
    1  A    between atoms: C_3  and  N_25
    2  A    between atoms: C_7  and  C_11
    3  A    between atoms: C_18  and  C_30
    4  A    between atoms: C_23  and  N_25
                            x       y       z     vdW  Elec       q    Type
                         _______ _______ _______ _____ _____    ______ ____

>  <TORSDO>
F 4

$$$$
=
 OpenBabel11052415533D

 34 40  0  0  1  0  0  0  0  0999 V2000
  189.1800  177.4730  143.5740 C   0  0  0  0  0  0  0  0  0  0  0  0
  192.4250  176.8160  141.6590 C   0  0  0  0  0  2  0  0  0  0  0  0
  191.8680  176.8340  144.0880 C   0  0  0  0  0  3  0  0  0  0  0  0
  187.3410  177.7470  145.6500 N   0  0  0  0  0  0  0  0  0  0  0  0
  187.8340  177.7990  143.3550 O   0  0  0  0  0  0  0  0  0  0  0  0
  188.7070  177.4140  145.9360 C   0  0  0  0  0  0  0  0  0  0  0  0
  190.4700  176.9010  147.5200 C   0  0  0  0  0  3  0  0  0  0  0  0
  189.1320  177.2230  147.2540 C   0  0  0  0  0  3  0  0  0  0  0  0
  186.9310  177.9300  144.4250 C   0  0  0  0  0  0  0  0  0  0  0  0
  190.9680  176.9590  145.1490 C   0  0  0  0  0  0  0  0  0  0  0  0
  189.6240  177.2810  144.8860 C   0  0  0  0  0  0  0  0  0  0  0  0
  191.3870  176.7680  146.4700 C   0  0  0  0  0  3  0  0  0  0  0  0
  191.9780  177.4600  140.3510 C   0  0  2  0  0  3  0  0  0  0  0  0
  190.5440  177.0440  140.0460 C   0  0  0  0  0  2  0  0  0  0  0  0
  191.4390  177.0360  142.7710 C   0  0  0  0  0  0  0  0  0  0  0  0
  189.6100  177.6250  141.1020 C   0  0  0  0  0  2  0  0  0  0  0  0
  190.0810  177.3390  142.5050 C   0  0  0  0  0  0  0  0  0  0  0  0
  183.3540  179.0130  144.9670 C   0  0  0  0  0  3  0  0  0  0  0  0
  185.0020  178.1860  142.8550 C   0  0  0  0  0  3  0  0  0  0  0  0
  180.9780  179.1690  142.1290 C   0  0  0  0  0  0  0  0  0  0  0  0
  181.4990  179.2530  143.4270 C   0  0  0  0  0  3  0  0  0  0  0  0
  182.8360  178.9280  143.6730 C   0  0  0  0  0  0  0  0  0  0  0  0
  183.1480  178.4270  141.3150 C   0  0  0  0  0  3  0  0  0  0  0  0
  183.6660  178.5110  142.6090 C   0  0  0  0  0  0  0  0  0  0  0  0
  181.8090  178.7540  141.0760 C   0  0  0  0  0  3  0  0  0  0  0  0
  185.5240  178.2710  144.1550 C   0  0  0  0  0  0  0  0  0  0  0  0
  184.6930  178.6850  145.2060 C   0  0  0  0  0  3  0  0  0  0  0  0
  179.5700  179.5130  141.8760 C   0  0  0  0  0  0  0  0  0  0  0  0
  178.9310  178.9490  140.9480 O   0  0  0  0  0  0  0  0  0  0  0  0
  178.9310  180.4660  142.6590 O   0  0  0  0  0  1  0  0  0  0  0  0
  192.8540  177.0310  139.2750 N   0  0  0  0  0  2  0  0  0  0  0  0
  192.0610  176.2150  138.3730 C   0  0  1  0  0  3  0  0  0  0  0  0
  192.6150  176.3170  137.0150 N   0  0  0  0  0  2  0  0  0  0  0  0
  192.8830  175.1340  137.8440 C   0  0  0  0  0  2  0  0  0  0  0  0
  1 11  1  0  0  0  0
  2 15  1  0  0  0  0
  3 10  1  0  0  0  0
  4  6  1  0  0  0  0
  5  1  1  0  0  0  0
  5  9  1  0  0  0  0
  6  8  1  0  0  0  0
  8  7  2  0  0  0  0
  9  4  2  0  0  0  0
 10 12  2  0  0  0  0
 11 10  1  0  0  0  0
 11  6  2  0  0  0  0
 12  7  1  0  0  0  0
 13 31  1  6  0  0  0
 13  2  1  0  0  0  0
 14 13  1  0  0  0  0
 14 16  1  0  0  0  0
 15  3  2  0  0  0  0
 16 17  1  0  0  0  0
 17 15  1  0  0  0  0
 17  1  2  0  0  0  0
 18 27  1  0  0  0  0
 19 26  1  0  0  0  0
 20 21  2  0  0  0  0
 21 22  1  0  0  0  0
 22 18  2  0  0  0  0
 23 24  1  0  0  0  0
 24 19  2  0  0  0  0
 24 22  1  0  0  0  0
 25 23  2  0  0  0  0
 25 20  1  0  0  0  0
 26  9  1  0  0  0  0
 26 27  2  0  0  0  0
 28 20  1  0  0  0  0
 28 30  1  0  0  0  0
 29 28  2  0  0  0  0
 32 31  1  1  0  0  0
 33 34  1  0  0  0  0
 33 32  1  0  0  0  0
 34 32  1  0  0  0  0
M  END
>  <MODEL>
2

>  <REMARK>
 VINA RESULT:     -11.0      3.100      8.970
  Name = 
  4 active torsions:
  status: ('A' for Active; 'I' for Inactive)
    1  A    between atoms: C_3  and  N_25
    2  A    between atoms: C_7  and  C_11
    3  A    between atoms: C_18  and  C_30
    4  A    between atoms: C_23  and  N_25
                            x       y       z     vdW  Elec       q    Type
                         _______ _______ _______ _____ _____    ______ ____

>  <TORSDO>
F 4

$$$$
=
 OpenBabel11052415533D

 34 40  0  0  1  0  0  0  0  0999 V2000
  186.3310  178.1180  143.3280 C   0  0  0  0  0  0  0  0  0  0  0  0
  182.5980  178.9070  143.6000 C   0  0  0  0  0  2  0  0  0  0  0  0
  184.3810  178.5540  145.3050 C   0  0  0  0  0  3  0  0  0  0  0  0
  188.9870  177.6220  144.0090 N   0  0  0  0  0  0  0  0  0  0  0  0
  187.3280  177.8890  142.3700 O   0  0  0  0  0  0  0  0  0  0  0  0
  188.0100  177.8470  145.0350 C   0  0  0  0  0  0  0  0  0  0  0  0
  187.4100  178.0410  147.3760 C   0  0  0  0  0  3  0  0  0  0  0  0
  188.3760  177.8210  146.3840 C   0  0  0  0  0  3  0  0  0  0  0  0
  188.6600  177.6410  142.7470 C   0  0  0  0  0  0  0  0  0  0  0  0
  185.7050  178.3120  145.6760 C   0  0  0  0  0  0  0  0  0  0  0  0
  186.6770  178.0940  144.6830 C   0  0  0  0  0  0  0  0  0  0  0  0
  186.0780  178.2860  147.0240 C   0  0  0  0  0  3  0  0  0  0  0  0
  182.2370  178.4850  142.1790 C   0  0  2  0  0  3  0  0  0  0  0  0
  183.2940  179.0050  141.2120 C   0  0  0  0  0  2  0  0  0  0  0  0
  184.0190  178.5680  143.9520 C   0  0  0  0  0  0  0  0  0  0  0  0
  184.6250  178.3160  141.4930 C   0  0  0  0  0  2  0  0  0  0  0  0
  185.0020  178.3690  142.9510 C   0  0  0  0  0  0  0  0  0  0  0  0
  192.0210  177.3200  141.0550 C   0  0  0  0  0  3  0  0  0  0  0  0
  189.3070  177.0520  140.4040 C   0  0  0  0  0  3  0  0  0  0  0  0
  192.2520  176.3940  137.4750 C   0  0  0  0  0  0  0  0  0  0  0  0
  192.6240  176.7480  138.7790 C   0  0  0  0  0  3  0  0  0  0  0  0
  191.6490  176.9680  139.7560 C   0  0  0  0  0  0  0  0  0  0  0  0
  189.9100  176.4810  138.1290 C   0  0  0  0  0  3  0  0  0  0  0  0
  190.2820  176.8330  139.4280 C   0  0  0  0  0  0  0  0  0  0  0  0
  190.8920  176.2620  137.1560 C   0  0  0  0  0  3  0  0  0  0  0  0
  189.6800  177.4070  141.7100 C   0  0  0  0  0  0  0  0  0  0  0  0
  191.0390  177.5380  142.0270 C   0  0  0  0  0  3  0  0  0  0  0  0
  193.2840  176.1640  136.4510 C   0  0  0  0  0  0  0  0  0  0  0  0
  192.9680  175.7250  135.3130 O   0  0  0  0  0  0  0  0  0  0  0  0
  194.6190  176.4290  136.7310 O   0  0  0  0  0  1  0  0  0  0  0  0
  180.9370  179.0300  141.8280 N   0  0  0  0  0  2  0  0  0  0  0  0
  180.4650  179.7870  142.9740 C   0  0  1  0  0  3  0  0  0  0  0  0
  179.5870  180.8710  142.5090 N   0  0  0  0  0  2  0  0  0  0  0  0
  179.0180  179.6460  143.0860 C   0  0  0  0  0  2  0  0  0  0  0  0
  1 11  1  0  0  0  0
  2 15  1  0  0  0  0
  3 10  1  0  0  0  0
  4  6  1  0  0  0  0
  5  9  1  0  0  0  0
  5  1  1  0  0  0  0
  6  8  1  0  0  0  0
  8  7  2  0  0  0  0
  9  4  2  0  0  0  0
 10 12  2  0  0  0  0
 11  6  2  0  0  0  0
 11 10  1  0  0  0  0
 12  7  1  0  0  0  0
 13 31  1  6  0  0  0
 13  2  1  0  0  0  0
 14 16  1  0  0  0  0
 14 13  1  0  0  0  0
 15  3  2  0  0  0  0
 16 17  1  0  0  0  0
 17  1  2  0  0  0  0
 17 15  1  0  0  0  0
 18 27  1  0  0  0  0
 19 26  1  0  0  0  0
 20 21  2  0  0  0  0
 21 22  1  0  0  0  0
 22 18  2  0  0  0  0
 23 24  1  0  0  0  0
 24 22  1  0  0  0  0
 24 19  2  0  0  0  0
 25 20  1  0  0  0  0
 25 23  2  0  0  0  0
 26 27  2  0  0  0  0
 26  9  1  0  0  0  0
 28 30  1  0  0  0  0
 28 20  1  0  0  0  0
 29 28  2  0  0  0  0
 32 31  1  6  0  0  0
 32 34  1  0  0  0  0
 33 32  1  0  0  0  0
 33 34  1  0  0  0  0
M  END
>  <MODEL>
3

>  <REMARK>
 VINA RESULT:     -10.9      0.967      1.223
  Name = 
  4 active torsions:
  status: ('A' for Active; 'I' for Inactive)
    1  A    between atoms: C_3  and  N_25
    2  A    between atoms: C_7  and  C_11
    3  A    between atoms: C_18  and  C_30
    4  A    between atoms: C_23  and  N_25
                            x       y       z     vdW  Elec       q    Type
                         _______ _______ _______ _____ _____    ______ ____

>  <TORSDO>
F 4

$$$$
=
 OpenBabel11052415533D

 34 40  0  0  1  0  0  0  0  0999 V2000
  186.8380  177.9980  143.9000 C   0  0  0  0  0  0  0  0  0  0  0  0
  183.3740  178.9370  145.2240 C   0  0  0  0  0  2  0  0  0  0  0  0
  185.5260  178.3880  146.3550 C   0  0  0  0  0  3  0  0  0  0  0  0
  189.5430  177.3350  143.8020 N   0  0  0  0  0  0  0  0  0  0  0  0
  187.5220  177.7870  142.6950 O   0  0  0  0  0  0  0  0  0  0  0  0
  188.8960  177.5350  145.0660 C   0  0  0  0  0  0  0  0  0  0  0  0
  188.9650  177.5990  147.4890 C   0  0  0  0  0  3  0  0  0  0  0  0
  189.6100  177.4020  146.2610 C   0  0  0  0  0  3  0  0  0  0  0  0
  188.8890  177.4540  142.6800 C   0  0  0  0  0  0  0  0  0  0  0  0
  186.8840  178.0620  146.3370 C   0  0  0  0  0  0  0  0  0  0  0  0
  187.5350  177.8660  145.1060 C   0  0  0  0  0  0  0  0  0  0  0  0
  187.6040  177.9290  147.5280 C   0  0  0  0  0  3  0  0  0  0  0  0
  182.6170  178.6280  143.9360 C   0  0  2  0  0  3  0  0  0  0  0  0
  183.4030  179.1630  142.7450 C   0  0  0  0  0  2  0  0  0  0  0  0
  184.8130  178.5100  145.1560 C   0  0  0  0  0  0  0  0  0  0  0  0
  184.7150  178.3960  142.6160 C   0  0  0  0  0  2  0  0  0  0  0  0
  185.4750  178.3340  143.9150 C   0  0  0  0  0  0  0  0  0  0  0  0
  189.4560  176.8840  138.9900 C   0  0  0  0  0  3  0  0  0  0  0  0
  190.9750  177.1980  141.3260 C   0  0  0  0  0  3  0  0  0  0  0  0
  192.8900  176.5920  137.6310 C   0  0  0  0  0  0  0  0  0  0  0  0
  191.4900  176.6370  137.6990 C   0  0  0  0  0  3  0  0  0  0  0  0
  190.8500  176.8380  138.9240 C   0  0  0  0  0  0  0  0  0  0  0  0
  193.0090  176.9510  140.0340 C   0  0  0  0  0  3  0  0  0  0  0  0
  191.6150  176.9960  140.1010 C   0  0  0  0  0  0  0  0  0  0  0  0
  193.6440  176.7490  138.8040 C   0  0  0  0  0  3  0  0  0  0  0  0
  189.5740  177.2430  141.3930 C   0  0  0  0  0  0  0  0  0  0  0  0
  188.8220  177.0850  140.2200 C   0  0  0  0  0  3  0  0  0  0  0  0
  193.5590  176.3800  136.3370 C   0  0  0  0  0  0  0  0  0  0  0  0
  193.0120  175.6820  135.4420 O   0  0  0  0  0  0  0  0  0  0  0  0
  194.8040  176.9470  136.0920 O   0  0  0  0  0  1  0  0  0  0  0  0
  181.3070  179.2540  143.9830 N   0  0  0  0  0  2  0  0  0  0  0  0
  180.3220  178.2060  143.7830 C   0  0  1  0  0  3  0  0  0  0  0  0
  179.0340  178.6400  144.3430 N   0  0  0  0  0  2  0  0  0  0  0  0
  179.2720  178.6890  142.8940 C   0  0  0  0  0  2  0  0  0  0  0  0
  1 17  2  0  0  0  0
  1 11  1  0  0  0  0
  4  6  1  0  0  0  0
  5  1  1  0  0  0  0
  6 11  2  0  0  0  0
  6  8  1  0  0  0  0
  7 12  1  0  0  0  0
  8  7  2  0  0  0  0
  9  5  1  0  0  0  0
  9  4  2  0  0  0  0
 10  3  1  0  0  0  0
 10 12  2  0  0  0  0
 11 10  1  0  0  0  0
 13 31  1  1  0  0  0
 13  2  1  0  0  0  0
 14 13  1  0  0  0  0
 15  2  1  0  0  0  0
 15  3  2  0  0  0  0
 16 14  1  0  0  0  0
 16 17  1  0  0  0  0
 17 15  1  0  0  0  0
 18 27  1  0  0  0  0
 19 26  1  0  0  0  0
 20 21  2  0  0  0  0
 20 25  1  0  0  0  0
 21 22  1  0  0  0  0
 22 18  2  0  0  0  0
 22 24  1  0  0  0  0
 23 24  1  0  0  0  0
 24 19  2  0  0  0  0
 25 23  2  0  0  0  0
 26  9  1  0  0  0  0
 27 26  2  0  0  0  0
 28 20  1  0  0  0  0
 29 28  2  0  0  0  0
 30 28  1  0  0  0  0
 32 31  1  1  0  0  0
 32 33  1  0  0  0  0
 34 32  1  0  0  0  0
 34 33  1  0  0  0  0
M  END
>  <MODEL>
4

>  <REMARK>
 VINA RESULT:     -10.8      0.787      1.438
  Name = 
  4 active torsions:
  status: ('A' for Active; 'I' for Inactive)
    1  A    between atoms: C_3  and  N_25
    2  A    between atoms: C_7  and  C_11
    3  A    between atoms: C_18  and  C_30
    4  A    between atoms: C_23  and  N_25
                            x       y       z     vdW  Elec       q    Type
                         _______ _______ _______ _____ _____    ______ ____

>  <TORSDO>
F 4

$$$$
=
 OpenBabel11052415533D

 34 40  0  0  1  0  0  0  0  0999 V2000
  190.3980  176.7400  138.1160 C   0  0  0  0  0  0  0  0  0  0  0  0
  192.5850  175.6360  135.1790 C   0  0  0  0  0  2  0  0  0  0  0  0
  190.2690  176.5460  135.3150 C   0  0  0  0  0  3  0  0  0  0  0  0
  188.2600  177.7540  139.5890 N   0  0  0  0  0  0  0  0  0  0  0  0
  190.4230  176.8420  139.5140 O   0  0  0  0  0  0  0  0  0  0  0  0
  188.1740  177.6700  138.1600 C   0  0  0  0  0  0  0  0  0  0  0  0
  186.9530  178.0050  136.0930 C   0  0  0  0  0  3  0  0  0  0  0  0
  187.0230  178.0940  137.4900 C   0  0  0  0  0  3  0  0  0  0  0  0
  189.3270  177.3590  140.2280 C   0  0  0  0  0  0  0  0  0  0  0  0
  189.1840  177.0640  136.0260 C   0  0  0  0  0  0  0  0  0  0  0  0
  189.2530  177.1570  137.4280 C   0  0  0  0  0  0  0  0  0  0  0  0
  188.0300  177.4910  135.3620 C   0  0  0  0  0  3  0  0  0  0  0  0
  193.5720  174.8190  136.0070 C   0  0  2  0  0  3  0  0  0  0  0  0
  193.9260  175.5850  137.2750 C   0  0  0  0  0  2  0  0  0  0  0  0
  191.4160  176.1130  135.9920 C   0  0  0  0  0  0  0  0  0  0  0  0
  192.6880  175.7080  138.1580 C   0  0  0  0  0  2  0  0  0  0  0  0
  191.4930  176.2270  137.4030 C   0  0  0  0  0  0  0  0  0  0  0  0
  190.7180  177.6540  143.7270 C   0  0  0  0  0  3  0  0  0  0  0  0
  188.2220  177.4350  142.4700 C   0  0  0  0  0  3  0  0  0  0  0  0
  188.4560  177.7060  146.6600 C   0  0  0  0  0  0  0  0  0  0  0  0
  189.6250  177.7250  145.8880 C   0  0  0  0  0  3  0  0  0  0  0  0
  189.5530  177.6350  144.4950 C   0  0  0  0  0  0  0  0  0  0  0  0
  187.1290  177.5060  144.6300 C   0  0  0  0  0  3  0  0  0  0  0  0
  188.2950  177.5250  143.8620 C   0  0  0  0  0  0  0  0  0  0  0  0
  187.2090  177.5960  146.0240 C   0  0  0  0  0  3  0  0  0  0  0  0
  189.3930  177.4540  141.6960 C   0  0  0  0  0  0  0  0  0  0  0  0
  190.6380  177.5630  142.3330 C   0  0  0  0  0  3  0  0  0  0  0  0
  188.5390  177.8010  148.1260 C   0  0  0  0  0  0  0  0  0  0  0  0
  187.5570  177.4740  148.8450 O   0  0  0  0  0  1  0  0  0  0  0  0
  189.7040  178.2550  148.7330 O   0  0  0  0  0  0  0  0  0  0  0  0
  194.7730  174.5750  135.2270 N   0  0  0  0  0  2  0  0  0  0  0  0
  195.8690  175.2460  135.9040 C   0  0  1  0  0  3  0  0  0  0  0  0
  197.1290  174.5630  135.5770 N   0  0  0  0  0  2  0  0  0  0  0  0
  196.7700  175.8240  134.9150 C   0  0  0  0  0  2  0  0  0  0  0  0
  1  5  1  0  0  0  0
  2 15  1  0  0  0  0
  2 13  1  0  0  0  0
  3 15  2  0  0  0  0
  3 10  1  0  0  0  0
  4  9  2  0  0  0  0
  5  9  1  0  0  0  0
  6  4  1  0  0  0  0
  7  8  2  0  0  0  0
  8  6  1  0  0  0  0
  9 26  1  0  0  0  0
 10 11  1  0  0  0  0
 11  1  1  0  0  0  0
 11  6  2  0  0  0  0
 12 10  2  0  0  0  0
 12  7  1  0  0  0  0
 13 31  1  6  0  0  0
 13 14  1  0  0  0  0
 14 16  1  0  0  0  0
 15 17  1  0  0  0  0
 17  1  2  0  0  0  0
 17 16  1  0  0  0  0
 18 22  1  0  0  0  0
 19 24  1  0  0  0  0
 20 28  1  0  0  0  0
 21 20  2  0  0  0  0
 22 21  1  0  0  0  0
 23 25  2  0  0  0  0
 24 22  2  0  0  0  0
 24 23  1  0  0  0  0
 25 20  1  0  0  0  0
 26 27  1  0  0  0  0
 26 19  2  0  0  0  0
 27 18  2  0  0  0  0
 28 30  2  0  0  0  0
 28 29  1  0  0  0  0
 32 31  1  6  0  0  0
 33 32  1  0  0  0  0
 34 33  1  0  0  0  0
 34 32  1  0  0  0  0
M  END
>  <MODEL>
5

>  <REMARK>
 VINA RESULT:      -9.6      3.776     10.691
  Name = 
  4 active torsions:
  status: ('A' for Active; 'I' for Inactive)
    1  A    between atoms: C_3  and  N_25
    2  A    between atoms: C_7  and  C_11
    3  A    between atoms: C_18  and  C_30
    4  A    between atoms: C_23  and  N_25
                            x       y       z     vdW  Elec       q    Type
                         _______ _______ _______ _____ _____    ______ ____

>  <TORSDO>
F 4

$$$$
=
 OpenBabel11052415533D

 34 40  0  0  1  0  0  0  0  0999 V2000
  189.2110  177.6020  142.4800 C   0  0  0  0  0  0  0  0  0  0  0  0
  192.7560  176.8120  141.2790 C   0  0  0  0  0  2  0  0  0  0  0  0
  191.7630  177.1010  143.5460 C   0  0  0  0  0  3  0  0  0  0  0  0
  187.0220  178.0680  144.1400 N   0  0  0  0  0  0  0  0  0  0  0  0
  187.9270  177.8630  141.9830 O   0  0  0  0  0  0  0  0  0  0  0  0
  188.3130  177.8090  144.7070 C   0  0  0  0  0  0  0  0  0  0  0  0
  189.7590  177.5340  146.6340 C   0  0  0  0  0  3  0  0  0  0  0  0
  188.4910  177.7860  146.0940 C   0  0  0  0  0  3  0  0  0  0  0  0
  186.8420  178.0940  142.8490 C   0  0  0  0  0  0  0  0  0  0  0  0
  190.6830  177.3260  144.4040 C   0  0  0  0  0  0  0  0  0  0  0  0
  189.4090  177.5780  143.8640 C   0  0  0  0  0  0  0  0  0  0  0  0
  190.8540  177.3040  145.7920 C   0  0  0  0  0  3  0  0  0  0  0  0
  192.5520  177.2850  139.8430 C   0  0  2  0  0  3  0  0  0  0  0  0
  191.2000  176.7980  139.3360 C   0  0  0  0  0  2  0  0  0  0  0  0
  191.5810  177.1350  142.1590 C   0  0  0  0  0  0  0  0  0  0  0  0
  190.0860  177.4730  140.1280 C   0  0  0  0  0  2  0  0  0  0  0  0
  190.2930  177.3670  141.6160 C   0  0  0  0  0  0  0  0  0  0  0  0
  183.0880  178.3870  142.5540 C   0  0  0  0  0  3  0  0  0  0  0  0
  185.3620  178.8420  140.9770 C   0  0  0  0  0  3  0  0  0  0  0  0
  181.5290  179.5940  139.4180 C   0  0  0  0  0  0  0  0  0  0  0  0
  181.6740  179.1150  140.7270 C   0  0  0  0  0  3  0  0  0  0  0  0
  182.9450  178.8640  141.2500 C   0  0  0  0  0  0  0  0  0  0  0  0
  183.9470  179.5700  139.1500 C   0  0  0  0  0  3  0  0  0  0  0  0
  184.0910  179.0930  140.4550 C   0  0  0  0  0  0  0  0  0  0  0  0
  182.6720  179.8190  138.6340 C   0  0  0  0  0  3  0  0  0  0  0  0
  185.5070  178.3630  142.2880 C   0  0  0  0  0  0  0  0  0  0  0  0
  184.3640  178.1380  143.0700 C   0  0  0  0  0  3  0  0  0  0  0  0
  180.1870  179.8570  138.8730 C   0  0  0  0  0  0  0  0  0  0  0  0
  179.1650  179.3800  139.4330 O   0  0  0  0  0  1  0  0  0  0  0  0
  180.0360  180.6340  137.7310 O   0  0  0  0  0  0  0  0  0  0  0  0
  193.6130  176.7560  139.0040 N   0  0  0  0  0  2  0  0  0  0  0  0
  193.0540  176.5530  137.6790 C   0  0  1  0  0  3  0  0  0  0  0  0
  194.1340  176.6160  136.6840 N   0  0  0  0  0  2  0  0  0  0  0  0
  193.5860  175.3210  137.1100 C   0  0  0  0  0  2  0  0  0  0  0  0
  1 11  1  0  0  0  0
  2 15  1  0  0  0  0
  3 10  1  0  0  0  0
  4  6  1  0  0  0  0
  5  1  1  0  0  0  0
  5  9  1  0  0  0  0
  6  8  1  0  0  0  0
  8  7  2  0  0  0  0
  9  4  2  0  0  0  0
 10 12  2  0  0  0  0
 11 10  1  0  0  0  0
 11  6  2  0  0  0  0
 12  7  1  0  0  0  0
 13 31  1  6  0  0  0
 13  2  1  0  0  0  0
 14 13  1  0  0  0  0
 14 16  1  0  0  0  0
 15  3  2  0  0  0  0
 16 17  1  0  0  0  0
 17 15  1  0  0  0  0
 17  1  2  0  0  0  0
 18 27  1  0  0  0  0
 19 26  1  0  0  0  0
 20 21  2  0  0  0  0
 21 22  1  0  0  0  0
 22 18  2  0  0  0  0
 23 24  1  0  0  0  0
 24 19  2  0  0  0  0
 24 22  1  0  0  0  0
 25 23  2  0  0  0  0
 25 20  1  0  0  0  0
 26  9  1  0  0  0  0
 26 27  2  0  0  0  0
 28 20  1  0  0  0  0
 28 29  1  0  0  0  0
 30 28  2  0  0  0  0
 32 31  1  1  0  0  0
 33 34  1  0  0  0  0
 33 32  1  0  0  0  0
 34 32  1  0  0  0  0
M  END
>  <MODEL>
6

>  <REMARK>
 VINA RESULT:      -9.1      3.487      8.851
  Name = 
  4 active torsions:
  status: ('A' for Active; 'I' for Inactive)
    1  A    between atoms: C_3  and  N_25
    2  A    between atoms: C_7  and  C_11
    3  A    between atoms: C_18  and  C_30
    4  A    between atoms: C_23  and  N_25
                            x       y       z     vdW  Elec       q    Type
                         _______ _______ _______ _____ _____    ______ ____

>  <TORSDO>
F 4

$$$$
=
 OpenBabel11052415533D

 34 40  0  0  1  0  0  0  0  0999 V2000
  189.2570  176.8500  138.0200 C   0  0  0  0  0  0  0  0  0  0  0  0
  187.1140  176.7600  134.8520 C   0  0  0  0  0  2  0  0  0  0  0  0
  189.5520  176.4380  135.2550 C   0  0  0  0  0  3  0  0  0  0  0  0
  191.4420  176.6870  139.7420 N   0  0  0  0  0  0  0  0  0  0  0  0
  189.1480  177.0580  139.4020 O   0  0  0  0  0  0  0  0  0  0  0  0
  191.6150  176.4680  138.3350 C   0  0  0  0  0  0  0  0  0  0  0  0
  193.0330  175.9590  136.4350 C   0  0  0  0  0  3  0  0  0  0  0  0
  192.8770  176.1690  137.8120 C   0  0  0  0  0  3  0  0  0  0  0  0
  190.2710  176.9680  140.2440 C   0  0  0  0  0  0  0  0  0  0  0  0
  190.6650  176.3440  136.0940 C   0  0  0  0  0  0  0  0  0  0  0  0
  190.5110  176.5530  137.4770 C   0  0  0  0  0  0  0  0  0  0  0  0
  191.9290  176.0460  135.5770 C   0  0  0  0  0  3  0  0  0  0  0  0
  185.9190  177.5030  135.4420 C   0  0  2  0  0  3  0  0  0  0  0  0
  185.6380  176.9790  136.8450 C   0  0  0  0  0  2  0  0  0  0  0  0
  188.2930  176.7460  135.7840 C   0  0  0  0  0  0  0  0  0  0  0  0
  186.8040  177.3330  137.7620 C   0  0  0  0  0  2  0  0  0  0  0  0
  188.1350  176.9360  137.1790 C   0  0  0  0  0  0  0  0  0  0  0  0
  191.1140  177.6750  143.8570 C   0  0  0  0  0  3  0  0  0  0  0  0
  188.8500  177.1350  142.2950 C   0  0  0  0  0  3  0  0  0  0  0  0
  188.4530  177.7750  146.4320 C   0  0  0  0  0  0  0  0  0  0  0  0
  189.7180  177.8300  145.8300 C   0  0  0  0  0  3  0  0  0  0  0  0
  189.8550  177.6180  144.4550 C   0  0  0  0  0  0  0  0  0  0  0  0
  187.4530  177.2900  144.2680 C   0  0  0  0  0  3  0  0  0  0  0  0
  188.7140  177.3460  143.6690 C   0  0  0  0  0  0  0  0  0  0  0  0
  187.3240  177.5030  145.6440 C   0  0  0  0  0  3  0  0  0  0  0  0
  190.1160  177.1910  141.6920 C   0  0  0  0  0  0  0  0  0  0  0  0
  191.2430  177.4610  142.4800 C   0  0  0  0  0  3  0  0  0  0  0  0
  188.3160  177.9980  147.8800 C   0  0  0  0  0  0  0  0  0  0  0  0
  187.1820  177.9630  148.4280 O   0  0  0  0  0  0  0  0  0  0  0  0
  189.4390  178.2530  148.6590 O   0  0  0  0  0  1  0  0  0  0  0  0
  184.7560  177.2950  134.5960 N   0  0  0  0  0  2  0  0  0  0  0  0
  183.6650  176.8800  135.4610 C   0  0  1  0  0  3  0  0  0  0  0  0
  182.4020  177.4270  134.9420 N   0  0  0  0  0  2  0  0  0  0  0  0
  182.7550  176.0190  134.7150 C   0  0  0  0  0  2  0  0  0  0  0  0
  1  5  1  0  0  0  0
  2 13  1  0  0  0  0
  2 15  1  0  0  0  0
  3 15  2  0  0  0  0
  3 10  1  0  0  0  0
  4  9  2  0  0  0  0
  5  9  1  0  0  0  0
  6  4  1  0  0  0  0
  7  8  2  0  0  0  0
  8  6  1  0  0  0  0
  9 26  1  0  0  0  0
 10 11  1  0  0  0  0
 11  1  1  0  0  0  0
 11  6  2  0  0  0  0
 12 10  2  0  0  0  0
 12  7  1  0  0  0  0
 13 31  1  6  0  0  0
 13 14  1  0  0  0  0
 14 16  1  0  0  0  0
 15 17  1  0  0  0  0
 17 16  1  0  0  0  0
 17  1  2  0  0  0  0
 18 22  1  0  0  0  0
 19 24  1  0  0  0  0
 20 28  1  0  0  0  0
 21 20  1  0  0  0  0
 22 21  2  0  0  0  0
 23 25  1  0  0  0  0
 24 23  2  0  0  0  0
 24 22  1  0  0  0  0
 25 20  2  0  0  0  0
 26 19  2  0  0  0  0
 26 27  1  0  0  0  0
 27 18  2  0  0  0  0
 28 29  2  0  0  0  0
 28 30  1  0  0  0  0
 32 31  1  6  0  0  0
 33 32  1  0  0  0  0
 34 33  1  0  0  0  0
 34 32  1  0  0  0  0
M  END
>  <MODEL>
7

>  <REMARK>
 VINA RESULT:      -9.1      3.839      8.626
  Name = 
  4 active torsions:
  status: ('A' for Active; 'I' for Inactive)
    1  A    between atoms: C_3  and  N_25
    2  A    between atoms: C_7  and  C_11
    3  A    between atoms: C_18  and  C_30
    4  A    between atoms: C_23  and  N_25
                            x       y       z     vdW  Elec       q    Type
                         _______ _______ _______ _____ _____    ______ ____

>  <TORSDO>
F 4

$$$$
=
 OpenBabel11052415533D

 34 40  0  0  1  0  0  0  0  0999 V2000
  186.5980  178.2210  139.9780 C   0  0  0  0  0  0  0  0  0  0  0  0
  182.9850  179.0090  139.0010 C   0  0  0  0  0  2  0  0  0  0  0  0
  185.0780  178.7440  137.6740 C   0  0  0  0  0  3  0  0  0  0  0  0
  189.3240  177.6630  139.8100 N   0  0  0  0  0  0  0  0  0  0  0  0
  187.3890  177.9640  141.1070 O   0  0  0  0  0  0  0  0  0  0  0  0
  188.5670  177.9220  138.6200 C   0  0  0  0  0  0  0  0  0  0  0  0
  188.4310  178.1530  136.2100 C   0  0  0  0  0  3  0  0  0  0  0  0
  189.1820  177.8970  137.3650 C   0  0  0  0  0  3  0  0  0  0  0  0
  188.7620  177.6850  140.9870 C   0  0  0  0  0  0  0  0  0  0  0  0
  186.4400  178.4630  137.5570 C   0  0  0  0  0  0  0  0  0  0  0  0
  187.1970  178.2030  138.7140 C   0  0  0  0  0  0  0  0  0  0  0  0
  187.0620  178.4350  136.3050 C   0  0  0  0  0  3  0  0  0  0  0  0
  182.5280  179.4370  140.3930 C   0  0  2  0  0  3  0  0  0  0  0  0
  183.0880  178.4700  141.4290 C   0  0  0  0  0  2  0  0  0  0  0  0
  184.4680  178.7780  138.9330 C   0  0  0  0  0  0  0  0  0  0  0  0
  184.6080  178.5890  141.4680 C   0  0  0  0  0  2  0  0  0  0  0  0
  185.2260  178.4950  140.0970 C   0  0  0  0  0  0  0  0  0  0  0  0
  191.6810  176.7970  143.2140 C   0  0  0  0  0  3  0  0  0  0  0  0
  188.9850  177.5200  143.4730 C   0  0  0  0  0  3  0  0  0  0  0  0
  191.2980  176.7450  146.8980 C   0  0  0  0  0  0  0  0  0  0  0  0
  191.8720  176.6420  145.6240 C   0  0  0  0  0  3  0  0  0  0  0  0
  191.1080  176.8990  144.4830 C   0  0  0  0  0  0  0  0  0  0  0  0
  189.1760  177.3650  145.8830 C   0  0  0  0  0  3  0  0  0  0  0  0
  189.7490  177.2630  144.6130 C   0  0  0  0  0  0  0  0  0  0  0  0
  189.9470  177.1070  147.0210 C   0  0  0  0  0  3  0  0  0  0  0  0
  189.5600  177.4180  142.1970 C   0  0  0  0  0  0  0  0  0  0  0  0
  190.9090  177.0550  142.0760 C   0  0  0  0  0  3  0  0  0  0  0  0
  192.1080  176.4730  148.0970 C   0  0  0  0  0  0  0  0  0  0  0  0
  192.5160  175.3070  148.3410 O   0  0  0  0  0  0  0  0  0  0  0  0
  192.4310  177.5040  148.9720 O   0  0  0  0  0  1  0  0  0  0  0  0
  181.0770  179.4320  140.4480 N   0  0  0  0  0  2  0  0  0  0  0  0
  180.7000  179.3390  141.8470 C   0  0  1  0  0  3  0  0  0  0  0  0
  179.8740  180.5020  142.2030 N   0  0  0  0  0  2  0  0  0  0  0  0
  179.2530  179.1950  141.9520 C   0  0  0  0  0  2  0  0  0  0  0  0
  1 17  1  0  0  0  0
  1  5  1  0  0  0  0
  2 13  1  0  0  0  0
  3 15  1  0  0  0  0
  4  9  2  0  0  0  0
  6 11  1  0  0  0  0
  6  4  1  0  0  0  0
  7 12  2  0  0  0  0
  7  8  1  0  0  0  0
  8  6  2  0  0  0  0
  9  5  1  0  0  0  0
  9 26  1  0  0  0  0
 10  3  2  0  0  0  0
 10 11  1  0  0  0  0
 11  1  2  0  0  0  0
 12 10  1  0  0  0  0
 13 31  1  6  0  0  0
 13 14  1  0  0  0  0
 14 16  1  0  0  0  0
 15  2  1  0  0  0  0
 15 17  2  0  0  0  0
 17 16  1  0  0  0  0
 18 22  1  0  0  0  0
 19 24  1  0  0  0  0
 20 25  1  0  0  0  0
 20 28  1  0  0  0  0
 21 20  2  0  0  0  0
 22 24  2  0  0  0  0
 22 21  1  0  0  0  0
 23 25  2  0  0  0  0
 24 23  1  0  0  0  0
 26 19  2  0  0  0  0
 27 26  1  0  0  0  0
 27 18  2  0  0  0  0
 28 29  2  0  0  0  0
 28 30  1  0  0  0  0
 32 31  1  6  0  0  0
 32 34  1  0  0  0  0
 32 33  1  0  0  0  0
 34 33  1  0  0  0  0
M  END
>  <MODEL>
8

>  <REMARK>
 VINA RESULT:      -9.0      3.131      6.891
  Name = 
  4 active torsions:
  status: ('A' for Active; 'I' for Inactive)
    1  A    between atoms: C_3  and  N_25
    2  A    between atoms: C_7  and  C_11
    3  A    between atoms: C_18  and  C_30
    4  A    between atoms: C_23  and  N_25
                            x       y       z     vdW  Elec       q    Type
                         _______ _______ _______ _____ _____    ______ ____

>  <TORSDO>
F 4

$$$$
=
 OpenBabel11052415533D

 34 40  0  0  1  0  0  0  0  0999 V2000
  189.0570  177.5530  141.2050 C   0  0  0  0  0  0  0  0  0  0  0  0
  191.1110  176.8170  138.0640 C   0  0  0  0  0  2  0  0  0  0  0  0
  191.7340  177.1430  140.4540 C   0  0  0  0  0  3  0  0  0  0  0  0
  188.3620  178.0120  143.8650 N   0  0  0  0  0  0  0  0  0  0  0  0
  187.7350  177.7710  141.6150 O   0  0  0  0  0  0  0  0  0  0  0  0
  189.7340  177.7990  143.5060 C   0  0  0  0  0  0  0  0  0  0  0  0
  192.0730  177.6100  144.1150 C   0  0  0  0  0  3  0  0  0  0  0  0
  190.7360  177.8170  144.4800 C   0  0  0  0  0  3  0  0  0  0  0  0
  187.4170  177.9990  142.9660 C   0  0  0  0  0  0  0  0  0  0  0  0
  191.4160  177.3650  141.7960 C   0  0  0  0  0  0  0  0  0  0  0  0
  190.0740  177.5710  142.1660 C   0  0  0  0  0  0  0  0  0  0  0  0
  192.4130  177.3830  142.7760 C   0  0  0  0  0  3  0  0  0  0  0  0
  190.0410  177.2460  137.0640 C   0  0  2  0  0  3  0  0  0  0  0  0
  188.6860  176.7130  137.5110 C   0  0  0  0  0  2  0  0  0  0  0  0
  190.7280  177.1350  139.4810 C   0  0  0  0  0  0  0  0  0  0  0  0
  188.2830  177.3830  138.8210 C   0  0  0  0  0  2  0  0  0  0  0  0
  189.3750  177.3220  139.8570 C   0  0  0  0  0  0  0  0  0  0  0  0
  184.3630  178.6350  145.0960 C   0  0  0  0  0  3  0  0  0  0  0  0
  184.9930  178.2310  142.3940 C   0  0  0  0  0  3  0  0  0  0  0  0
  181.0020  178.8660  143.5570 C   0  0  0  0  0  0  0  0  0  0  0  0
  182.0210  178.8550  144.5190 C   0  0  0  0  0  3  0  0  0  0  0  0
  183.3490  178.6440  144.1370 C   0  0  0  0  0  0  0  0  0  0  0  0
  182.6510  178.4510  141.8170 C   0  0  0  0  0  3  0  0  0  0  0  0
  183.6660  178.4410  142.7760 C   0  0  0  0  0  0  0  0  0  0  0  0
  181.3240  178.6620  142.2060 C   0  0  0  0  0  3  0  0  0  0  0  0
  186.0140  178.2200  143.3570 C   0  0  0  0  0  0  0  0  0  0  0  0
  185.6900  178.4230  144.7070 C   0  0  0  0  0  3  0  0  0  0  0  0
  179.6050  179.0870  143.9650 C   0  0  0  0  0  0  0  0  0  0  0  0
  178.9810  180.1110  143.5770 O   0  0  0  0  0  0  0  0  0  0  0  0
  178.9620  178.1680  144.7850 O   0  0  0  0  0  1  0  0  0  0  0  0
  190.3690  176.7200  135.7500 N   0  0  0  0  0  2  0  0  0  0  0  0
  191.3540  175.6710  135.9400 C   0  0  1  0  0  3  0  0  0  0  0  0
  191.2540  174.7080  134.8340 N   0  0  0  0  0  2  0  0  0  0  0  0
  192.3250  175.7130  134.8540 C   0  0  0  0  0  2  0  0  0  0  0  0
  1  5  1  0  0  0  0
  1 11  1  0  0  0  0
  2 15  1  0  0  0  0
  3 10  1  0  0  0  0
  5  9  1  0  0  0  0
  6  4  1  0  0  0  0
  6  8  1  0  0  0  0
  7  8  2  0  0  0  0
  9 26  1  0  0  0  0
  9  4  2  0  0  0  0
 10 11  1  0  0  0  0
 10 12  2  0  0  0  0
 11  6  2  0  0  0  0
 12  7  1  0  0  0  0
 13 31  1  6  0  0  0
 13 14  1  0  0  0  0
 13  2  1  0  0  0  0
 14 16  1  0  0  0  0
 15 17  1  0  0  0  0
 15  3  2  0  0  0  0
 16 17  1  0  0  0  0
 17  1  2  0  0  0  0
 19 24  2  0  0  0  0
 19 26  1  0  0  0  0
 20 28  1  0  0  0  0
 20 21  2  0  0  0  0
 22 21  1  0  0  0  0
 22 18  2  0  0  0  0
 23 25  2  0  0  0  0
 23 24  1  0  0  0  0
 24 22  1  0  0  0  0
 25 20  1  0  0  0  0
 26 27  2  0  0  0  0
 27 18  1  0  0  0  0
 28 30  1  0  0  0  0
 29 28  2  0  0  0  0
 32 31  1  6  0  0  0
 33 34  1  0  0  0  0
 33 32  1  0  0  0  0
 34 32  1  0  0  0  0
M  END
>  <MODEL>
9

>  <REMARK>
 VINA RESULT:      -8.8      3.421      9.431
  Name = 
  4 active torsions:
  status: ('A' for Active; 'I' for Inactive)
    1  A    between atoms: C_3  and  N_25
    2  A    between atoms: C_7  and  C_11
    3  A    between atoms: C_18  and  C_30
    4  A    between atoms: C_23  and  N_25
                            x       y       z     vdW  Elec       q    Type
                         _______ _______ _______ _____ _____    ______ ____

>  <TORSDO>
F 4

$$$$
