=
 OpenBabel11052412333D

 30 32  0  0  1  0  0  0  0  0999 V2000
  188.1390  178.5930  141.2020 N   0  0  0  0  0  2  0  0  0  0  0  0
  186.2620  178.4380  139.6300 C   0  0  0  0  0  0  0  0  0  0  0  0
  189.4830  178.2640  141.6650 C   0  0  2  0  0  3  0  0  0  0  0  0
  185.7410  178.0380  138.3970 C   0  0  0  0  0  3  0  0  0  0  0  0
  185.2020  179.2360  140.7800 Cl  0  0  0  0  0  0  0  0  0  0  0  0
  189.8340  177.3370  139.2980 N   0  0  0  0  0  0  0  0  0  0  0  0
  186.5600  177.4040  137.4620 C   0  0  0  0  0  3  0  0  0  0  0  0
  187.6120  178.1960  139.9340 C   0  0  0  0  0  0  0  0  0  0  0  0
  190.3710  177.7130  140.5790 C   0  0  0  0  0  0  0  0  0  0  0  0
  191.6090  177.6110  140.7990 O   0  0  0  0  0  0  0  0  0  0  0  0
  187.9040  177.1690  137.7580 C   0  0  0  0  0  3  0  0  0  0  0  0
  188.4430  177.5620  138.9950 C   0  0  0  0  0  0  0  0  0  0  0  0
  190.7360  176.8100  138.2720 C   0  0  0  0  0  2  0  0  0  0  0  0
  190.7990  175.2920  138.3330 C   0  0  0  0  0  2  0  0  0  0  0  0
  192.0610  174.7910  137.6620 C   0  0  0  0  0  1  0  0  0  0  0  0
  189.4310  177.4370  142.9660 C   0  0  1  0  0  3  0  0  0  0  0  0
  190.9350  179.2920  143.9200 C   0  0  0  0  0  1  0  0  0  0  0  0
  190.1770  177.9980  144.1920 C   0  0  2  0  0  3  0  0  0  0  0  0
  191.1600  177.0770  146.3280 N   0  0  0  0  0  2  0  0  0  0  0  0
  191.5330  176.0190  144.2790 O   0  0  0  0  0  0  0  0  0  0  0  0
  191.0020  176.9750  144.9110 C   0  0  0  0  0  0  0  0  0  0  0  0
  192.5060  175.3130  147.6980 C   0  0  0  0  0  3  0  0  0  0  0  0
  191.8840  176.1290  147.0650 C   0  0  0  0  0  0  0  0  0  0  0  0
  188.0080  177.0180  143.3190 C   0  0  0  0  0  2  0  0  0  0  0  0
  186.4610  177.2570  145.2270 C   0  0  1  0  0  3  0  0  0  0  0  0
  185.8920  178.0530  144.0670 C   0  0  0  0  0  2  0  0  0  0  0  0
  187.3880  178.0060  144.2870 C   0  0  2  0  0  3  0  0  0  0  0  0
  185.0770  178.5650  146.8470 O   0  0  0  0  0  0  0  0  0  0  0  0
  186.3090  178.0240  146.4990 C   0  0  0  0  0  0  0  0  0  0  0  0
  187.2880  178.1470  147.2820 O   0  0  0  0  0  1  0  0  0  0  0  0
  1  3  1  0  0  0  0
  2  8  1  0  0  0  0
  2  5  1  0  0  0  0
  3 16  1  1  0  0  0
  4  2  2  0  0  0  0
  6  9  1  0  0  0  0
  7 11  2  0  0  0  0
  7  4  1  0  0  0  0
  8  1  1  0  0  0  0
  9 10  2  0  0  0  0
  9  3  1  0  0  0  0
 11 12  1  0  0  0  0
 12  6  1  0  0  0  0
 12  8  2  0  0  0  0
 13 14  1  0  0  0  0
 13  6  1  0  0  0  0
 15 14  1  0  0  0  0
 16 24  1  1  0  0  0
 16 18  1  0  0  0  0
 18 17  1  6  0  0  0
 18 21  1  0  0  0  0
 19 23  1  0  0  0  0
 20 21  2  0  0  0  0
 21 19  1  0  0  0  0
 23 22  3  0  0  0  0
 25 29  1  1  0  0  0
 26 27  1  0  0  0  0
 26 25  1  0  0  0  0
 27 24  1  6  0  0  0
 27 25  1  0  0  0  0
 29 28  2  0  0  0  0
 29 30  1  0  0  0  0
M  END
>  <MODEL>
1

>  <REMARK>
 VINA RESULT:      -7.8      0.000      0.000
  Name = 
  9 active torsions:
  status: ('A' for Active; 'I' for Inactive)
    1  A    between atoms: C_3  and  C_11
    2  A    between atoms: C_3  and  N_19
    3  A    between atoms: C_4  and  C_13
    4  A    between atoms: N_5  and  C_21
    5  A    between atoms: C_7  and  C_15
    6  A    between atoms: C_8  and  C_12
    7  A    between atoms: C_8  and  C_13
    8  A    between atoms: C_13  and  C_27
    9  A    between atoms: C_27  and  C_30
                            x       y       z     vdW  Elec       q    Type
                         _______ _______ _______ _____ _____    ______ ____

>  <TORSDO>
F 9

$$$$
=
 OpenBabel11052412333D

 30 32  0  0  1  0  0  0  0  0999 V2000
  186.8680  177.4720  142.9780 N   0  0  0  0  0  2  0  0  0  0  0  0
  184.6910  178.5430  142.6140 C   0  0  0  0  0  0  0  0  0  0  0  0
  188.0230  177.1080  143.7920 C   0  0  2  0  0  3  0  0  0  0  0  0
  183.5500  179.1740  143.1150 C   0  0  0  0  0  3  0  0  0  0  0  0
  184.8440  178.3210  140.8790 Cl  0  0  0  0  0  0  0  0  0  0  0  0
  186.5650  177.8120  145.7830 N   0  0  0  0  0  0  0  0  0  0  0  0
  183.3990  179.3630  144.4890 C   0  0  0  0  0  3  0  0  0  0  0  0
  185.6940  178.1030  143.4940 C   0  0  0  0  0  0  0  0  0  0  0  0
  187.7600  177.1940  145.2740 C   0  0  0  0  0  0  0  0  0  0  0  0
  188.5970  176.6870  146.0700 O   0  0  0  0  0  0  0  0  0  0  0  0
  184.3900  178.9190  145.3670 C   0  0  0  0  0  3  0  0  0  0  0  0
  185.5470  178.2870  144.8800 C   0  0  0  0  0  0  0  0  0  0  0  0
  186.3510  177.8700  147.2300 C   0  0  0  0  0  2  0  0  0  0  0  0
  187.2980  178.8670  147.8790 C   0  0  0  0  0  2  0  0  0  0  0  0
  188.1710  178.1730  148.9030 C   0  0  0  0  0  1  0  0  0  0  0  0
  189.2940  177.8270  143.2980 C   0  0  1  0  0  3  0  0  0  0  0  0
  190.5100  175.6180  142.7910 C   0  0  0  0  0  1  0  0  0  0  0  0
  190.6160  177.0360  143.3390 C   0  0  2  0  0  3  0  0  0  0  0  0
  191.4450  175.9080  145.4410 N   0  0  0  0  0  2  0  0  0  0  0  0
  191.7970  178.1890  145.0830 O   0  0  0  0  0  0  0  0  0  0  0  0
  191.3120  177.1000  144.6650 C   0  0  0  0  0  0  0  0  0  0  0  0
  192.7030  175.8790  147.7260 C   0  0  0  0  0  3  0  0  0  0  0  0
  192.1220  175.8930  146.6700 C   0  0  0  0  0  0  0  0  0  0  0  0
  189.0830  178.4940  141.9440 C   0  0  0  0  0  2  0  0  0  0  0  0
  189.7910  178.0540  139.6210 C   0  0  1  0  0  3  0  0  0  0  0  0
  188.2770  177.9660  139.6680 C   0  0  0  0  0  2  0  0  0  0  0  0
  189.0970  177.4610  140.8340 C   0  0  2  0  0  3  0  0  0  0  0  0
  190.5160  177.1480  137.4070 O   0  0  0  0  0  0  0  0  0  0  0  0
  190.3420  176.9560  138.7720 C   0  0  0  0  0  0  0  0  0  0  0  0
  190.6890  175.8660  139.2980 O   0  0  0  0  0  1  0  0  0  0  0  0
  1  8  1  0  0  0  0
  1  3  1  0  0  0  0
  2  4  2  0  0  0  0
  2  8  1  0  0  0  0
  3 16  1  6  0  0  0
  3  9  1  0  0  0  0
  4  7  1  0  0  0  0
  5  2  1  0  0  0  0
  6 13  1  0  0  0  0
  7 11  2  0  0  0  0
  8 12  2  0  0  0  0
  9  6  1  0  0  0  0
  9 10  2  0  0  0  0
 12 11  1  0  0  0  0
 12  6  1  0  0  0  0
 13 14  1  0  0  0  0
 14 15  1  0  0  0  0
 16 24  1  6  0  0  0
 16 18  1  0  0  0  0
 18 17  1  1  0  0  0
 18 21  1  0  0  0  0
 19 23  1  0  0  0  0
 21 20  2  0  0  0  0
 21 19  1  0  0  0  0
 23 22  3  0  0  0  0
 25 29  1  6  0  0  0
 25 26  1  0  0  0  0
 25 27  1  0  0  0  0
 26 27  1  0  0  0  0
 27 24  1  1  0  0  0
 28 29  2  0  0  0  0
 29 30  1  0  0  0  0
M  END
>  <MODEL>
2

>  <REMARK>
 VINA RESULT:      -7.2      1.979      6.146
  Name = 
  9 active torsions:
  status: ('A' for Active; 'I' for Inactive)
    1  A    between atoms: C_3  and  C_11
    2  A    between atoms: C_3  and  N_19
    3  A    between atoms: C_4  and  C_13
    4  A    between atoms: N_5  and  C_21
    5  A    between atoms: C_7  and  C_15
    6  A    between atoms: C_8  and  C_12
    7  A    between atoms: C_8  and  C_13
    8  A    between atoms: C_13  and  C_27
    9  A    between atoms: C_27  and  C_30
                            x       y       z     vdW  Elec       q    Type
                         _______ _______ _______ _____ _____    ______ ____

>  <TORSDO>
F 9

$$$$
=
 OpenBabel11052412333D

 30 32  0  0  1  0  0  0  0  0999 V2000
  189.4720  178.2090  141.9430 N   0  0  0  0  0  2  0  0  0  0  0  0
  189.9180  177.7060  144.3020 C   0  0  0  0  0  0  0  0  0  0  0  0
  188.6100  178.3060  140.7700 C   0  0  2  0  0  3  0  0  0  0  0  0
  189.4580  177.4050  145.5870 C   0  0  0  0  0  3  0  0  0  0  0  0
  191.6480  177.8070  144.0230 Cl  0  0  0  0  0  0  0  0  0  0  0  0
  186.6780  178.0780  142.4440 N   0  0  0  0  0  0  0  0  0  0  0  0
  188.0890  177.3200  145.8400 C   0  0  0  0  0  3  0  0  0  0  0  0
  189.0000  177.9170  143.2600 C   0  0  0  0  0  0  0  0  0  0  0  0
  187.1420  178.3530  141.1100 C   0  0  0  0  0  0  0  0  0  0  0  0
  186.3190  178.6670  140.2070 O   0  0  0  0  0  0  0  0  0  0  0  0
  187.1740  177.5370  144.8080 C   0  0  0  0  0  3  0  0  0  0  0  0
  187.6190  177.8360  143.5090 C   0  0  0  0  0  0  0  0  0  0  0  0
  185.2430  178.1390  142.7280 C   0  0  0  0  0  2  0  0  0  0  0  0
  184.8610  179.4920  143.3060 C   0  0  0  0  0  2  0  0  0  0  0  0
  183.8550  179.3200  144.4260 C   0  0  0  0  0  1  0  0  0  0  0  0
  189.0130  177.2690  139.7020 C   0  0  1  0  0  3  0  0  0  0  0  0
  188.9130  179.1840  137.9890 C   0  0  0  0  0  1  0  0  0  0  0  0
  188.8620  177.6800  138.2250 C   0  0  2  0  0  3  0  0  0  0  0  0
  186.7070  177.8270  136.9170 N   0  0  0  0  0  2  0  0  0  0  0  0
  187.6350  175.7580  137.4740 O   0  0  0  0  0  0  0  0  0  0  0  0
  187.7090  177.0170  137.5340 C   0  0  0  0  0  0  0  0  0  0  0  0
  184.6970  176.7900  135.6190 C   0  0  0  0  0  3  0  0  0  0  0  0
  185.6260  177.2690  136.2190 C   0  0  0  0  0  0  0  0  0  0  0  0
  190.3870  176.6690  139.9790 C   0  0  0  0  0  2  0  0  0  0  0  0
  192.3410  175.9450  138.6580 C   0  0  1  0  0  3  0  0  0  0  0  0
  192.7670  177.1330  139.5010 C   0  0  0  0  0  2  0  0  0  0  0  0
  191.3760  177.0890  138.9090 C   0  0  2  0  0  3  0  0  0  0  0  0
  194.2820  175.9500  137.0810 O   0  0  0  0  0  1  0  0  0  0  0  0
  192.9110  176.0610  137.2830 C   0  0  0  0  0  0  0  0  0  0  0  0
  192.1470  176.2200  136.2950 O   0  0  0  0  0  0  0  0  0  0  0  0
  1  8  1  0  0  0  0
  2  4  1  0  0  0  0
  3 16  1  6  0  0  0
  3  9  1  0  0  0  0
  3  1  1  0  0  0  0
  4  7  2  0  0  0  0
  5  2  1  0  0  0  0
  6 13  1  0  0  0  0
  6 12  1  0  0  0  0
  8 12  1  0  0  0  0
  8  2  2  0  0  0  0
  9  6  1  0  0  0  0
 10  9  2  0  0  0  0
 11  7  1  0  0  0  0
 12 11  2  0  0  0  0
 13 14  1  0  0  0  0
 14 15  1  0  0  0  0
 16 24  1  1  0  0  0
 18 17  1  1  0  0  0
 18 16  1  0  0  0  0
 19 21  1  0  0  0  0
 20 21  2  0  0  0  0
 21 18  1  0  0  0  0
 22 23  3  0  0  0  0
 23 19  1  0  0  0  0
 25 29  1  6  0  0  0
 25 27  1  0  0  0  0
 25 26  1  0  0  0  0
 27 26  1  0  0  0  0
 27 24  1  1  0  0  0
 28 29  1  0  0  0  0
 30 29  2  0  0  0  0
M  END
>  <MODEL>
3

>  <REMARK>
 VINA RESULT:      -7.0      3.276      8.185
  Name = 
  9 active torsions:
  status: ('A' for Active; 'I' for Inactive)
    1  A    between atoms: C_3  and  C_11
    2  A    between atoms: C_3  and  N_19
    3  A    between atoms: C_4  and  C_13
    4  A    between atoms: N_5  and  C_21
    5  A    between atoms: C_7  and  C_15
    6  A    between atoms: C_8  and  C_12
    7  A    between atoms: C_8  and  C_13
    8  A    between atoms: C_13  and  C_27
    9  A    between atoms: C_27  and  C_30
                            x       y       z     vdW  Elec       q    Type
                         _______ _______ _______ _____ _____    ______ ____

>  <TORSDO>
F 9

$$$$
=
 OpenBabel11052412333D

 30 32  0  0  1  0  0  0  0  0999 V2000
  185.6160  178.8940  143.1080 N   0  0  0  0  0  2  0  0  0  0  0  0
  183.2020  178.9330  143.5400 C   0  0  0  0  0  0  0  0  0  0  0  0
  186.7870  178.6790  142.2650 C   0  0  2  0  0  3  0  0  0  0  0  0
  181.8850  178.8760  143.0770 C   0  0  0  0  0  3  0  0  0  0  0  0
  183.4880  179.0990  145.2640 Cl  0  0  0  0  0  0  0  0  0  0  0  0
  185.1120  178.6670  140.3210 N   0  0  0  0  0  0  0  0  0  0  0  0
  181.6260  178.7460  141.7120 C   0  0  0  0  0  3  0  0  0  0  0  0
  184.2690  178.8520  142.6310 C   0  0  0  0  0  0  0  0  0  0  0  0
  186.4720  178.6890  140.7910 C   0  0  0  0  0  0  0  0  0  0  0  0
  187.4250  178.7450  139.9660 O   0  0  0  0  0  0  0  0  0  0  0  0
  182.6850  178.6730  140.8060 C   0  0  0  0  0  3  0  0  0  0  0  0
  184.0160  178.7250  141.2540 C   0  0  0  0  0  0  0  0  0  0  0  0
  184.8550  178.6810  138.8800 C   0  0  0  0  0  2  0  0  0  0  0  0
  184.5710  177.2790  138.3650 C   0  0  0  0  0  2  0  0  0  0  0  0
  184.9370  177.1730  136.9000 C   0  0  0  0  0  1  0  0  0  0  0  0
  187.6100  177.4730  142.7620 C   0  0  1  0  0  3  0  0  0  0  0  0
  189.6300  179.0640  142.7800 C   0  0  0  0  0  1  0  0  0  0  0  0
  189.1440  177.6200  142.7750 C   0  0  2  0  0  3  0  0  0  0  0  0
  189.9650  177.2600  140.4140 N   0  0  0  0  0  2  0  0  0  0  0  0
  190.3200  175.6500  142.0680 O   0  0  0  0  0  0  0  0  0  0  0  0
  189.8350  176.7720  141.7510 C   0  0  0  0  0  0  0  0  0  0  0  0
  191.2160  175.9110  138.5660 C   0  0  0  0  0  3  0  0  0  0  0  0
  190.6370  176.5350  139.4200 C   0  0  0  0  0  0  0  0  0  0  0  0
  187.0880  176.9340  144.0890 C   0  0  0  0  0  2  0  0  0  0  0  0
  187.2610  177.0380  146.5480 C   0  0  1  0  0  3  0  0  0  0  0  0
  186.9820  178.4410  146.0450 C   0  0  0  0  0  2  0  0  0  0  0  0
  187.8740  177.5180  145.2470 C   0  0  2  0  0  3  0  0  0  0  0  0
  189.6090  176.7490  147.3570 O   0  0  0  0  0  0  0  0  0  0  0  0
  188.2870  177.0760  147.6320 C   0  0  0  0  0  0  0  0  0  0  0  0
  187.9650  177.4440  148.7930 O   0  0  0  0  0  1  0  0  0  0  0  0
  2  5  1  0  0  0  0
  3 16  1  1  0  0  0
  3  1  1  0  0  0  0
  4  2  1  0  0  0  0
  6  9  1  0  0  0  0
  6 12  1  0  0  0  0
  7  4  2  0  0  0  0
  8  1  1  0  0  0  0
  8  2  2  0  0  0  0
  9  3  1  0  0  0  0
 10  9  2  0  0  0  0
 11 12  2  0  0  0  0
 11  7  1  0  0  0  0
 12  8  1  0  0  0  0
 13  6  1  0  0  0  0
 14 13  1  0  0  0  0
 15 14  1  0  0  0  0
 16 18  1  0  0  0  0
 16 24  1  1  0  0  0
 18 17  1  6  0  0  0
 19 21  1  0  0  0  0
 21 20  2  0  0  0  0
 21 18  1  0  0  0  0
 22 23  3  0  0  0  0
 23 19  1  0  0  0  0
 25 29  1  1  0  0  0
 26 25  1  0  0  0  0
 27 24  1  6  0  0  0
 27 26  1  0  0  0  0
 27 25  1  0  0  0  0
 28 29  2  0  0  0  0
 29 30  1  0  0  0  0
M  END
>  <MODEL>
4

>  <REMARK>
 VINA RESULT:      -6.8      2.511      4.774
  Name = 
  9 active torsions:
  status: ('A' for Active; 'I' for Inactive)
    1  A    between atoms: C_3  and  C_11
    2  A    between atoms: C_3  and  N_19
    3  A    between atoms: C_4  and  C_13
    4  A    between atoms: N_5  and  C_21
    5  A    between atoms: C_7  and  C_15
    6  A    between atoms: C_8  and  C_12
    7  A    between atoms: C_8  and  C_13
    8  A    between atoms: C_13  and  C_27
    9  A    between atoms: C_27  and  C_30
                            x       y       z     vdW  Elec       q    Type
                         _______ _______ _______ _____ _____    ______ ____

>  <TORSDO>
F 9

$$$$
=
 OpenBabel11052412333D

 30 32  0  0  1  0  0  0  0  0999 V2000
  186.5830  177.3850  144.7180 N   0  0  0  0  0  2  0  0  0  0  0  0
  186.6800  178.2480  147.0120 C   0  0  0  0  0  0  0  0  0  0  0  0
  187.1840  176.9150  143.4740 C   0  0  2  0  0  3  0  0  0  0  0  0
  187.4060  178.5400  148.1700 C   0  0  0  0  0  3  0  0  0  0  0  0
  184.9650  178.6240  146.9690 Cl  0  0  0  0  0  0  0  0  0  0  0  0
  189.3500  176.7520  144.8410 N   0  0  0  0  0  0  0  0  0  0  0  0
  188.7690  178.2510  148.2340 C   0  0  0  0  0  3  0  0  0  0  0  0
  187.3240  177.6680  145.9070 C   0  0  0  0  0  0  0  0  0  0  0  0
  188.6190  176.4810  143.6320 C   0  0  0  0  0  0  0  0  0  0  0  0
  189.1680  175.8450  142.6900 O   0  0  0  0  0  0  0  0  0  0  0  0
  189.4100  177.6670  147.1400 C   0  0  0  0  0  3  0  0  0  0  0  0
  188.6960  177.3710  145.9660 C   0  0  0  0  0  0  0  0  0  0  0  0
  190.7410  176.3090  144.9490 C   0  0  0  0  0  2  0  0  0  0  0  0
  191.6930  177.4940  144.9210 C   0  0  0  0  0  2  0  0  0  0  0  0
  191.4850  178.3060  143.6590 C   0  0  0  0  0  1  0  0  0  0  0  0
  186.9090  177.9020  142.3220 C   0  0  1  0  0  3  0  0  0  0  0  0
  184.6400  178.2550  143.4790 C   0  0  0  0  0  1  0  0  0  0  0  0
  185.5830  178.6850  142.3620 C   0  0  2  0  0  3  0  0  0  0  0  0
  183.8240  177.9000  140.7290 N   0  0  0  0  0  2  0  0  0  0  0  0
  185.2670  179.6550  140.1880 O   0  0  0  0  0  0  0  0  0  0  0  0
  184.9050  178.7840  141.0290 C   0  0  0  0  0  0  0  0  0  0  0  0
  182.5180  178.0280  138.4750 C   0  0  0  0  0  3  0  0  0  0  0  0
  183.1210  177.9690  139.5170 C   0  0  0  0  0  0  0  0  0  0  0  0
  188.0960  178.8240  142.0650 C   0  0  0  0  0  2  0  0  0  0  0  0
  188.1920  177.5010  139.9840 C   0  0  1  0  0  3  0  0  0  0  0  0
  189.5990  177.9750  140.2970 C   0  0  0  0  0  2  0  0  0  0  0  0
  188.4190  178.8760  140.5850 C   0  0  2  0  0  3  0  0  0  0  0  0
  187.9510  178.8780  137.9110 O   0  0  0  0  0  1  0  0  0  0  0  0
  187.9200  177.6300  138.5220 C   0  0  0  0  0  0  0  0  0  0  0  0
  187.7020  176.6020  137.8280 O   0  0  0  0  0  0  0  0  0  0  0  0
  1  8  1  0  0  0  0
  2  4  1  0  0  0  0
  3 16  1  6  0  0  0
  3  9  1  0  0  0  0
  3  1  1  0  0  0  0
  4  7  2  0  0  0  0
  5  2  1  0  0  0  0
  6 13  1  0  0  0  0
  6 12  1  0  0  0  0
  8 12  1  0  0  0  0
  8  2  2  0  0  0  0
  9  6  1  0  0  0  0
 10  9  2  0  0  0  0
 11  7  1  0  0  0  0
 12 11  2  0  0  0  0
 14 13  1  0  0  0  0
 15 14  1  0  0  0  0
 16 24  1  1  0  0  0
 16 18  1  0  0  0  0
 18 17  1  1  0  0  0
 19 21  1  0  0  0  0
 20 21  2  0  0  0  0
 21 18  1  0  0  0  0
 22 23  3  0  0  0  0
 23 19  1  0  0  0  0
 25 29  1  6  0  0  0
 25 26  1  0  0  0  0
 25 27  1  0  0  0  0
 26 27  1  0  0  0  0
 27 24  1  1  0  0  0
 28 29  1  0  0  0  0
 30 29  2  0  0  0  0
M  END
>  <MODEL>
5

>  <REMARK>
 VINA RESULT:      -6.7      3.016      7.425
  Name = 
  9 active torsions:
  status: ('A' for Active; 'I' for Inactive)
    1  A    between atoms: C_3  and  C_11
    2  A    between atoms: C_3  and  N_19
    3  A    between atoms: C_4  and  C_13
    4  A    between atoms: N_5  and  C_21
    5  A    between atoms: C_7  and  C_15
    6  A    between atoms: C_8  and  C_12
    7  A    between atoms: C_8  and  C_13
    8  A    between atoms: C_13  and  C_27
    9  A    between atoms: C_27  and  C_30
                            x       y       z     vdW  Elec       q    Type
                         _______ _______ _______ _____ _____    ______ ____

>  <TORSDO>
F 9

$$$$
=
 OpenBabel11052412333D

 30 32  0  0  1  0  0  0  0  0999 V2000
  187.5750  178.4780  139.9760 N   0  0  0  0  0  2  0  0  0  0  0  0
  185.9000  178.1810  138.2080 C   0  0  0  0  0  0  0  0  0  0  0  0
  188.8000  178.1240  140.6850 C   0  0  2  0  0  3  0  0  0  0  0  0
  185.4880  177.5840  137.0150 C   0  0  0  0  0  3  0  0  0  0  0  0
  184.8150  179.3020  139.0140 Cl  0  0  0  0  0  0  0  0  0  0  0  0
  189.3200  176.6910  138.6200 N   0  0  0  0  0  0  0  0  0  0  0  0
  186.3290  176.6900  136.3510 C   0  0  0  0  0  3  0  0  0  0  0  0
  187.1610  177.8780  138.7460 C   0  0  0  0  0  0  0  0  0  0  0  0
  189.7390  177.2740  139.8670 C   0  0  0  0  0  0  0  0  0  0  0  0
  190.9180  177.1000  140.2810 O   0  0  0  0  0  0  0  0  0  0  0  0
  187.5860  176.3930  136.8790 C   0  0  0  0  0  3  0  0  0  0  0  0
  188.0150  176.9820  138.0800 C   0  0  0  0  0  0  0  0  0  0  0  0
  190.2670  175.8740  137.8600 C   0  0  0  0  0  2  0  0  0  0  0  0
  191.2140  176.7500  137.0540 C   0  0  0  0  0  2  0  0  0  0  0  0
  192.6520  176.3780  137.3490 C   0  0  0  0  0  1  0  0  0  0  0  0
  188.4860  177.5980  142.1000 C   0  0  1  0  0  3  0  0  0  0  0  0
  189.8980  175.6280  142.9580 C   0  0  0  0  0  1  0  0  0  0  0  0
  189.6760  177.1350  142.9630 C   0  0  2  0  0  3  0  0  0  0  0  0
  189.0460  177.0140  145.4050 N   0  0  0  0  0  2  0  0  0  0  0  0
  190.2610  178.8230  144.5660 O   0  0  0  0  0  0  0  0  0  0  0  0
  189.6810  177.7240  144.3410 C   0  0  0  0  0  0  0  0  0  0  0  0
  189.0570  177.9000  147.8580 C   0  0  0  0  0  3  0  0  0  0  0  0
  189.0520  177.4900  146.7240 C   0  0  0  0  0  0  0  0  0  0  0  0
  187.5710  178.5430  142.8700 C   0  0  0  0  0  2  0  0  0  0  0  0
  185.2490  178.9820  143.5800 C   0  0  1  0  0  3  0  0  0  0  0  0
  185.8320  177.9440  144.5210 C   0  0  0  0  0  2  0  0  0  0  0  0
  186.1990  177.9230  143.0540 C   0  0  2  0  0  3  0  0  0  0  0  0
  182.8320  178.7290  144.1670 O   0  0  0  0  0  1  0  0  0  0  0  0
  183.8450  178.6200  143.2230 C   0  0  0  0  0  0  0  0  0  0  0  0
  183.5680  178.2530  142.0500 O   0  0  0  0  0  0  0  0  0  0  0  0
  1  3  1  0  0  0  0
  2  8  1  0  0  0  0
  2  5  1  0  0  0  0
  3 16  1  1  0  0  0
  4  2  2  0  0  0  0
  6  9  1  0  0  0  0
  7 11  2  0  0  0  0
  7  4  1  0  0  0  0
  8  1  1  0  0  0  0
  9 10  2  0  0  0  0
  9  3  1  0  0  0  0
 11 12  1  0  0  0  0
 12  6  1  0  0  0  0
 12  8  2  0  0  0  0
 13  6  1  0  0  0  0
 14 15  1  0  0  0  0
 14 13  1  0  0  0  0
 16 24  1  1  0  0  0
 16 18  1  0  0  0  0
 18 17  1  1  0  0  0
 18 21  1  0  0  0  0
 19 23  1  0  0  0  0
 21 20  2  0  0  0  0
 21 19  1  0  0  0  0
 23 22  3  0  0  0  0
 25 29  1  6  0  0  0
 25 26  1  0  0  0  0
 27 24  1  1  0  0  0
 27 25  1  0  0  0  0
 27 26  1  0  0  0  0
 29 28  1  0  0  0  0
 30 29  2  0  0  0  0
M  END
>  <MODEL>
6

>  <REMARK>
 VINA RESULT:      -6.6      1.918      2.437
  Name = 
  9 active torsions:
  status: ('A' for Active; 'I' for Inactive)
    1  A    between atoms: C_3  and  C_11
    2  A    between atoms: C_3  and  N_19
    3  A    between atoms: C_4  and  C_13
    4  A    between atoms: N_5  and  C_21
    5  A    between atoms: C_7  and  C_15
    6  A    between atoms: C_8  and  C_12
    7  A    between atoms: C_8  and  C_13
    8  A    between atoms: C_13  and  C_27
    9  A    between atoms: C_27  and  C_30
                            x       y       z     vdW  Elec       q    Type
                         _______ _______ _______ _____ _____    ______ ____

>  <TORSDO>
F 9

$$$$
=
 OpenBabel11052412333D

 30 32  0  0  1  0  0  0  0  0999 V2000
  187.7550  177.0660  144.7080 N   0  0  0  0  0  2  0  0  0  0  0  0
  186.9020  177.9800  146.8190 C   0  0  0  0  0  0  0  0  0  0  0  0
  188.8200  176.6840  143.7880 C   0  0  2  0  0  3  0  0  0  0  0  0
  187.1190  178.4190  148.1270 C   0  0  0  0  0  3  0  0  0  0  0  0
  185.2760  178.0470  146.1610 Cl  0  0  0  0  0  0  0  0  0  0  0  0
  190.3650  176.9330  145.8220 N   0  0  0  0  0  0  0  0  0  0  0  0
  188.4000  178.3750  148.6780 C   0  0  0  0  0  3  0  0  0  0  0  0
  187.9760  177.5000  146.0520 C   0  0  0  0  0  0  0  0  0  0  0  0
  190.1580  176.5120  144.4620 C   0  0  0  0  0  0  0  0  0  0  0  0
  191.0960  175.9640  143.8200 O   0  0  0  0  0  0  0  0  0  0  0  0
  189.4690  177.8910  147.9200 C   0  0  0  0  0  3  0  0  0  0  0  0
  189.2690  177.4490  146.6010 C   0  0  0  0  0  0  0  0  0  0  0  0
  191.6810  176.7430  146.4350 C   0  0  0  0  0  2  0  0  0  0  0  0
  191.6850  175.5240  147.3440 C   0  0  0  0  0  2  0  0  0  0  0  0
  192.8050  175.6280  148.3580 C   0  0  0  0  0  1  0  0  0  0  0  0
  188.8160  177.5830  142.5350 C   0  0  1  0  0  3  0  0  0  0  0  0
  191.1300  178.4810  141.8620 C   0  0  0  0  0  1  0  0  0  0  0  0
  190.0220  177.4740  141.5820 C   0  0  2  0  0  3  0  0  0  0  0  0
  189.2250  178.6100  139.4720 N   0  0  0  0  0  2  0  0  0  0  0  0
  189.7000  176.3230  139.4990 O   0  0  0  0  0  0  0  0  0  0  0  0
  189.6370  177.4130  140.1350 C   0  0  0  0  0  0  0  0  0  0  0  0
  188.6080  178.6450  136.9380 C   0  0  0  0  0  3  0  0  0  0  0  0
  188.8930  178.6280  138.1100 C   0  0  0  0  0  0  0  0  0  0  0  0
  187.4950  177.5020  141.7790 C   0  0  0  0  0  2  0  0  0  0  0  0
  185.1710  178.2530  142.1240 C   0  0  1  0  0  3  0  0  0  0  0  0
  185.7240  178.9980  140.9240 C   0  0  0  0  0  2  0  0  0  0  0  0
  186.6210  178.6970  142.1040 C   0  0  2  0  0  3  0  0  0  0  0  0
  183.0030  178.9980  143.1240 O   0  0  0  0  0  0  0  0  0  0  0  0
  184.3730  179.1800  142.9810 C   0  0  0  0  0  0  0  0  0  0  0  0
  184.9480  180.1070  143.6120 O   0  0  0  0  0  1  0  0  0  0  0  0
  1  8  1  0  0  0  0
  2  4  1  0  0  0  0
  3 16  1  6  0  0  0
  3  9  1  0  0  0  0
  3  1  1  0  0  0  0
  4  7  2  0  0  0  0
  5  2  1  0  0  0  0
  6 13  1  0  0  0  0
  6 12  1  0  0  0  0
  8 12  1  0  0  0  0
  8  2  2  0  0  0  0
  9  6  1  0  0  0  0
 10  9  2  0  0  0  0
 11  7  1  0  0  0  0
 12 11  2  0  0  0  0
 13 14  1  0  0  0  0
 14 15  1  0  0  0  0
 16 24  1  6  0  0  0
 18 17  1  6  0  0  0
 18 16  1  0  0  0  0
 19 21  1  0  0  0  0
 20 21  2  0  0  0  0
 21 18  1  0  0  0  0
 22 23  3  0  0  0  0
 23 19  1  0  0  0  0
 25 29  1  1  0  0  0
 26 27  1  0  0  0  0
 26 25  1  0  0  0  0
 27 24  1  6  0  0  0
 27 25  1  0  0  0  0
 29 28  2  0  0  0  0
 29 30  1  0  0  0  0
M  END
>  <MODEL>
7

>  <REMARK>
 VINA RESULT:      -6.6      2.329      6.624
  Name = 
  9 active torsions:
  status: ('A' for Active; 'I' for Inactive)
    1  A    between atoms: C_3  and  C_11
    2  A    between atoms: C_3  and  N_19
    3  A    between atoms: C_4  and  C_13
    4  A    between atoms: N_5  and  C_21
    5  A    between atoms: C_7  and  C_15
    6  A    between atoms: C_8  and  C_12
    7  A    between atoms: C_8  and  C_13
    8  A    between atoms: C_13  and  C_27
    9  A    between atoms: C_27  and  C_30
                            x       y       z     vdW  Elec       q    Type
                         _______ _______ _______ _____ _____    ______ ____

>  <TORSDO>
F 9

$$$$
=
 OpenBabel11052412333D

 30 32  0  0  1  0  0  0  0  0999 V2000
  186.1390  179.0300  142.4220 N   0  0  0  0  0  2  0  0  0  0  0  0
  184.3820  179.0390  144.1340 C   0  0  0  0  0  0  0  0  0  0  0  0
  186.6520  178.7720  141.0810 C   0  0  2  0  0  3  0  0  0  0  0  0
  183.0400  178.9020  144.4960 C   0  0  0  0  0  3  0  0  0  0  0  0
  185.5680  179.3720  145.3850 Cl  0  0  0  0  0  0  0  0  0  0  0  0
  184.1840  178.5330  140.4210 N   0  0  0  0  0  0  0  0  0  0  0  0
  182.0740  178.6400  143.5240 C   0  0  0  0  0  3  0  0  0  0  0  0
  184.7630  178.9060  142.7890 C   0  0  0  0  0  0  0  0  0  0  0  0
  185.5680  178.6370  140.0420 C   0  0  0  0  0  0  0  0  0  0  0  0
  185.8910  178.6440  138.8230 O   0  0  0  0  0  0  0  0  0  0  0  0
  182.4490  178.5140  142.1850 C   0  0  0  0  0  3  0  0  0  0  0  0
  183.7950  178.6450  141.8040 C   0  0  0  0  0  0  0  0  0  0  0  0
  183.1660  178.4070  139.3760 C   0  0  0  0  0  2  0  0  0  0  0  0
  182.7290  179.7750  138.8750 C   0  0  0  0  0  2  0  0  0  0  0  0
  181.2780  179.7370  138.4420 C   0  0  0  0  0  1  0  0  0  0  0  0
  187.7010  177.6410  141.1010 C   0  0  1  0  0  3  0  0  0  0  0  0
  189.0540  179.1670  139.5350 C   0  0  0  0  0  1  0  0  0  0  0  0
  189.0430  177.9090  140.3940 C   0  0  2  0  0  3  0  0  0  0  0  0
  189.1210  176.3940  138.3750 N   0  0  0  0  0  2  0  0  0  0  0  0
  190.4900  175.9990  140.2260 O   0  0  0  0  0  0  0  0  0  0  0  0
  189.5970  176.7100  139.6850 C   0  0  0  0  0  0  0  0  0  0  0  0
  190.0640  174.3810  137.0110 C   0  0  0  0  0  3  0  0  0  0  0  0
  189.6280  175.3120  137.6410 C   0  0  0  0  0  0  0  0  0  0  0  0
  187.9080  177.0790  142.5020 C   0  0  0  0  0  2  0  0  0  0  0  0
  189.7180  176.7550  144.1470 C   0  0  1  0  0  3  0  0  0  0  0  0
  188.8340  177.8810  144.6490 C   0  0  0  0  0  2  0  0  0  0  0  0
  189.1020  177.7360  143.1680 C   0  0  2  0  0  3  0  0  0  0  0  0
  191.7530  176.8670  145.5960 O   0  0  0  0  0  1  0  0  0  0  0  0
  191.1560  177.0970  144.3630 C   0  0  0  0  0  0  0  0  0  0  0  0
  191.8440  177.5590  143.4140 O   0  0  0  0  0  0  0  0  0  0  0  0
  1  8  1  0  0  0  0
  2  4  1  0  0  0  0
  2  5  1  0  0  0  0
  3 16  1  1  0  0  0
  3  1  1  0  0  0  0
  6 12  1  0  0  0  0
  7  4  2  0  0  0  0
  8  2  2  0  0  0  0
  9  6  1  0  0  0  0
  9  3  1  0  0  0  0
 10  9  2  0  0  0  0
 11  7  1  0  0  0  0
 12 11  2  0  0  0  0
 12  8  1  0  0  0  0
 13  6  1  0  0  0  0
 14 13  1  0  0  0  0
 15 14  1  0  0  0  0
 16 24  1  1  0  0  0
 18 17  1  6  0  0  0
 18 16  1  0  0  0  0
 19 21  1  0  0  0  0
 21 20  2  0  0  0  0
 21 18  1  0  0  0  0
 22 23  3  0  0  0  0
 23 19  1  0  0  0  0
 25 29  1  1  0  0  0
 25 26  1  0  0  0  0
 27 24  1  6  0  0  0
 27 25  1  0  0  0  0
 27 26  1  0  0  0  0
 29 28  1  0  0  0  0
 30 29  2  0  0  0  0
M  END
>  <MODEL>
8

>  <REMARK>
 VINA RESULT:      -6.3      2.860      6.223
  Name = 
  9 active torsions:
  status: ('A' for Active; 'I' for Inactive)
    1  A    between atoms: C_3  and  C_11
    2  A    between atoms: C_3  and  N_19
    3  A    between atoms: C_4  and  C_13
    4  A    between atoms: N_5  and  C_21
    5  A    between atoms: C_7  and  C_15
    6  A    between atoms: C_8  and  C_12
    7  A    between atoms: C_8  and  C_13
    8  A    between atoms: C_13  and  C_27
    9  A    between atoms: C_27  and  C_30
                            x       y       z     vdW  Elec       q    Type
                         _______ _______ _______ _____ _____    ______ ____

>  <TORSDO>
F 9

$$$$
=
 OpenBabel11052412333D

 30 32  0  0  1  0  0  0  0  0999 V2000
  186.8770  178.8310  140.5720 N   0  0  0  0  0  2  0  0  0  0  0  0
  189.1230  177.8460  140.5100 C   0  0  0  0  0  0  0  0  0  0  0  0
  185.5350  178.9860  141.1230 C   0  0  2  0  0  3  0  0  0  0  0  0
  190.1250  177.0700  141.0990 C   0  0  0  0  0  3  0  0  0  0  0  0
  189.4130  178.5450  138.9270 Cl  0  0  0  0  0  0  0  0  0  0  0  0
  186.4610  177.7170  143.1520 N   0  0  0  0  0  0  0  0  0  0  0  0
  189.9240  176.5020  142.3580 C   0  0  0  0  0  3  0  0  0  0  0  0
  187.9070  178.0500  141.1830 C   0  0  0  0  0  0  0  0  0  0  0  0
  185.4100  178.4840  142.5390 C   0  0  0  0  0  0  0  0  0  0  0  0
  184.3720  178.7720  143.1960 O   0  0  0  0  0  0  0  0  0  0  0  0
  188.7190  176.7110  143.0320 C   0  0  0  0  0  3  0  0  0  0  0  0
  187.6990  177.4850  142.4530 C   0  0  0  0  0  0  0  0  0  0  0  0
  186.2960  177.2530  144.5310 C   0  0  0  0  0  2  0  0  0  0  0  0
  186.7980  178.2960  145.5180 C   0  0  0  0  0  2  0  0  0  0  0  0
  185.6950  178.6790  146.4830 C   0  0  0  0  0  1  0  0  0  0  0  0
  184.4710  178.4660  140.1360 C   0  0  1  0  0  3  0  0  0  0  0  0
  181.9860  178.0190  140.6240 C   0  0  0  0  0  1  0  0  0  0  0  0
  183.0490  179.0480  140.2590 C   0  0  2  0  0  3  0  0  0  0  0  0
  181.5590  179.5130  138.2730 N   0  0  0  0  0  2  0  0  0  0  0  0
  183.2620  180.9960  138.8710 O   0  0  0  0  0  0  0  0  0  0  0  0
  182.6530  179.9130  139.1010 C   0  0  0  0  0  0  0  0  0  0  0  0
  180.7290  180.9730  136.2790 C   0  0  0  0  0  3  0  0  0  0  0  0
  181.1130  180.2990  137.2010 C   0  0  0  0  0  0  0  0  0  0  0  0
  184.9650  178.4980  138.6950 C   0  0  0  0  0  2  0  0  0  0  0  0
  185.4810  177.1590  136.6870 C   0  0  1  0  0  3  0  0  0  0  0  0
  183.9710  177.2540  136.8040 C   0  0  0  0  0  2  0  0  0  0  0  0
  184.8180  177.1330  138.0510 C   0  0  2  0  0  3  0  0  0  0  0  0
  185.9550  175.4210  134.9530 O   0  0  0  0  0  0  0  0  0  0  0  0
  185.8790  175.7740  136.2950 C   0  0  0  0  0  0  0  0  0  0  0  0
  186.1860  174.9320  137.1800 O   0  0  0  0  0  1  0  0  0  0  0  0
  1  3  1  0  0  0  0
  1  8  1  0  0  0  0
  2  4  2  0  0  0  0
  2  8  1  0  0  0  0
  3 16  1  6  0  0  0
  3  9  1  0  0  0  0
  4  7  1  0  0  0  0
  5  2  1  0  0  0  0
  6 13  1  0  0  0  0
  7 11  2  0  0  0  0
  8 12  2  0  0  0  0
  9  6  1  0  0  0  0
  9 10  2  0  0  0  0
 12 11  1  0  0  0  0
 12  6  1  0  0  0  0
 13 14  1  0  0  0  0
 14 15  1  0  0  0  0
 16 24  1  6  0  0  0
 16 18  1  0  0  0  0
 18 17  1  6  0  0  0
 19 21  1  0  0  0  0
 20 21  2  0  0  0  0
 21 18  1  0  0  0  0
 22 23  3  0  0  0  0
 23 19  1  0  0  0  0
 25 29  1  6  0  0  0
 25 26  1  0  0  0  0
 25 27  1  0  0  0  0
 26 27  1  0  0  0  0
 27 24  1  1  0  0  0
 28 29  2  0  0  0  0
 29 30  1  0  0  0  0
M  END
>  <MODEL>
9

>  <REMARK>
 VINA RESULT:      -6.3      3.810      8.656
  Name = 
  9 active torsions:
  status: ('A' for Active; 'I' for Inactive)
    1  A    between atoms: C_3  and  C_11
    2  A    between atoms: C_3  and  N_19
    3  A    between atoms: C_4  and  C_13
    4  A    between atoms: N_5  and  C_21
    5  A    between atoms: C_7  and  C_15
    6  A    between atoms: C_8  and  C_12
    7  A    between atoms: C_8  and  C_13
    8  A    between atoms: C_13  and  C_27
    9  A    between atoms: C_27  and  C_30
                            x       y       z     vdW  Elec       q    Type
                         _______ _______ _______ _____ _____    ______ ____

>  <TORSDO>
F 9

$$$$
