=
 OpenBabel11052413233D

 28 31  0  0  1  0  0  0  0  0999 V2000
  190.8600  175.8120  143.4290 C   0  0  1  0  0  3  0  0  0  0  0  0
  191.7160  176.4030  142.4540 O   0  0  0  0  0  0  0  0  0  0  0  0
  191.4220  177.6110  141.8320 C   0  0  0  0  0  0  0  0  0  0  0  0
  192.5970  176.4740  147.8840 C   0  0  0  0  0  1  0  0  0  0  0  0
  192.0260  177.9340  140.7770 O   0  0  0  0  0  0  0  0  0  0  0  0
  190.7250  178.5790  144.2420 S   0  0  0  0  0  0  0  0  0  0  0  0
  190.4450  178.5500  142.4410 C   0  0  2  0  0  3  0  0  0  0  0  0
  191.3970  176.3010  145.7070 C   0  0  0  0  0  0  0  0  0  0  0  0
  191.9320  175.0170  145.3050 C   0  0  0  0  0  0  0  0  0  0  0  0
  191.6700  176.9740  146.8310 C   0  0  0  0  0  3  0  0  0  0  0  0
  192.6390  174.2550  146.0140 O   0  0  0  0  0  0  0  0  0  0  0  0
  191.5490  174.7170  144.0200 O   0  0  0  0  0  0  0  0  0  0  0  0
  190.4720  176.7710  144.6060 C   0  0  2  0  0  0  0  0  0  0  0  0
  189.0040  178.2010  142.0920 C   0  0  0  0  0  3  0  0  0  0  0  0
  188.3990  179.3010  141.5120 F   0  0  0  0  0  0  0  0  0  0  0  0
  188.9680  177.1510  141.1930 F   0  0  0  0  0  0  0  0  0  0  0  0
  189.1140  176.4800  144.9170 O   0  0  0  0  0  0  0  0  0  0  0  0
  186.6030  177.3450  144.1780 C   0  0  0  0  0  2  0  0  0  0  0  0
  186.2120  178.1060  146.4890 C   0  0  2  0  0  3  0  0  0  0  0  0
  188.5980  177.4010  145.8510 C   0  0  1  0  0  3  0  0  0  0  0  0
  184.6320  178.7790  144.6700 C   0  0  0  0  0  0  0  0  0  0  0  0
  187.2640  178.0300  145.3780 C   0  0  1  0  0  3  0  0  0  0  0  0
  187.9760  177.7800  148.2690 C   0  0  0  0  0  2  0  0  0  0  0  0
  185.0760  178.8950  146.0300 N   0  0  0  0  0  2  0  0  0  0  0  0
  186.8160  178.6620  147.7720 C   0  0  0  0  0  2  0  0  0  0  0  0
  183.1990  179.6380  144.1480 Cl  0  0  0  0  0  0  0  0  0  0  0  0
  185.3540  178.0900  143.7760 C   0  0  0  0  0  3  0  0  0  0  0  0
  188.4650  176.7540  147.2350 C   0  0  0  0  0  2  0  0  0  0  0  0
  1  2  1  6  0  0  0
  1 12  1  0  0  0  0
  1 13  1  0  0  0  0
  3  7  1  0  0  0  0
  3  2  1  0  0  0  0
  5  3  2  0  0  0  0
  6 13  1  0  0  0  0
  7 14  1  1  0  0  0
  7  6  1  0  0  0  0
  8 10  2  0  0  0  0
  9  8  1  0  0  0  0
  9 11  2  0  0  0  0
 10  4  1  0  0  0  0
 12  9  1  0  0  0  0
 13 17  1  1  0  0  0
 13  8  1  0  0  0  0
 15 14  1  0  0  0  0
 16 14  1  0  0  0  0
 19 25  1  1  0  0  0
 20 17  1  6  0  0  0
 20 28  1  0  0  0  0
 21 24  1  0  0  0  0
 22 18  1  6  0  0  0
 22 20  1  0  0  0  0
 22 19  1  0  0  0  0
 24 19  1  0  0  0  0
 25 23  1  0  0  0  0
 26 21  1  0  0  0  0
 27 18  1  0  0  0  0
 27 21  2  0  0  0  0
 28 23  1  0  0  0  0
M  END
>  <MODEL>
1

>  <REMARK>
 VINA RESULT:      -8.0      0.000      0.000
  Name = 
  3 active torsions:
  status: ('A' for Active; 'I' for Inactive)
    1  A    between atoms: C_6  and  C_11
    2  A    between atoms: C_10  and  O_17
    3  A    between atoms: O_17  and  C_27
                            x       y       z     vdW  Elec       q    Type
                         _______ _______ _______ _____ _____    ______ ____

>  <TORSDO>
F 3

$$$$
=
 OpenBabel11052413233D

 28 31  0  0  1  0  0  0  0  0999 V2000
  189.4320  176.3790  141.4050 C   0  0  1  0  0  3  0  0  0  0  0  0
  190.1290  176.8280  140.2450 O   0  0  0  0  0  0  0  0  0  0  0  0
  189.5890  177.7480  139.3550 C   0  0  0  0  0  0  0  0  0  0  0  0
  191.1290  178.5260  145.3820 C   0  0  0  0  0  1  0  0  0  0  0  0
  190.0900  177.8760  138.2080 O   0  0  0  0  0  0  0  0  0  0  0  0
  188.7830  179.1910  141.4760 S   0  0  0  0  0  0  0  0  0  0  0  0
  188.4650  178.6250  139.7730 C   0  0  2  0  0  3  0  0  0  0  0  0
  189.9260  177.5550  143.4270 C   0  0  0  0  0  0  0  0  0  0  0  0
  190.6890  176.3300  143.3330 C   0  0  0  0  0  0  0  0  0  0  0  0
  190.0930  178.5460  144.3110 C   0  0  0  0  0  3  0  0  0  0  0  0
  191.5510  175.9280  144.1590 O   0  0  0  0  0  0  0  0  0  0  0  0
  190.3370  175.6280  142.2050 O   0  0  0  0  0  0  0  0  0  0  0  0
  188.8970  177.5350  142.3180 C   0  0  2  0  0  0  0  0  0  0  0  0
  187.1110  177.9410  139.6410 C   0  0  0  0  0  3  0  0  0  0  0  0
  186.1140  178.8450  139.9570 F   0  0  0  0  0  0  0  0  0  0  0  0
  186.9170  177.5030  138.3440 F   0  0  0  0  0  0  0  0  0  0  0  0
  187.6310  177.1000  142.8000 O   0  0  0  0  0  0  0  0  0  0  0  0
  184.9740  177.7930  142.5620 C   0  0  0  0  0  2  0  0  0  0  0  0
  184.9150  178.2990  144.9740 C   0  0  2  0  0  3  0  0  0  0  0  0
  187.2090  177.8790  143.8960 C   0  0  1  0  0  3  0  0  0  0  0  0
  183.0080  178.9870  143.5080 C   0  0  0  0  0  0  0  0  0  0  0  0
  185.7710  178.4230  143.7090 C   0  0  1  0  0  3  0  0  0  0  0  0
  186.9710  177.9750  146.4080 C   0  0  0  0  0  2  0  0  0  0  0  0
  183.6620  179.0190  144.7860 N   0  0  0  0  0  2  0  0  0  0  0  0
  185.6800  178.7880  146.1970 C   0  0  0  0  0  2  0  0  0  0  0  0
  181.4480  179.7540  143.3140 Cl  0  0  0  0  0  0  0  0  0  0  0  0
  183.6220  178.4540  142.4440 C   0  0  0  0  0  3  0  0  0  0  0  0
  187.3570  177.0980  145.2070 C   0  0  0  0  0  2  0  0  0  0  0  0
  1  2  1  6  0  0  0
  1 12  1  0  0  0  0
  1 13  1  0  0  0  0
  3  7  1  0  0  0  0
  3  2  1  0  0  0  0
  5  3  2  0  0  0  0
  6 13  1  0  0  0  0
  7 14  1  1  0  0  0
  7  6  1  0  0  0  0
  8 10  2  0  0  0  0
  9  8  1  0  0  0  0
  9 11  2  0  0  0  0
 10  4  1  0  0  0  0
 12  9  1  0  0  0  0
 13 17  1  1  0  0  0
 13  8  1  0  0  0  0
 14 15  1  0  0  0  0
 16 14  1  0  0  0  0
 19 25  1  1  0  0  0
 20 17  1  6  0  0  0
 20 28  1  0  0  0  0
 21 24  1  0  0  0  0
 22 18  1  6  0  0  0
 22 20  1  0  0  0  0
 22 19  1  0  0  0  0
 24 19  1  0  0  0  0
 25 23  1  0  0  0  0
 26 21  1  0  0  0  0
 27 18  1  0  0  0  0
 27 21  2  0  0  0  0
 28 23  1  0  0  0  0
M  END
>  <MODEL>
2

>  <REMARK>
 VINA RESULT:      -7.0      2.057      2.711
  Name = 
  3 active torsions:
  status: ('A' for Active; 'I' for Inactive)
    1  A    between atoms: C_6  and  C_11
    2  A    between atoms: C_10  and  O_17
    3  A    between atoms: O_17  and  C_27
                            x       y       z     vdW  Elec       q    Type
                         _______ _______ _______ _____ _____    ______ ____

>  <TORSDO>
F 3

$$$$
=
 OpenBabel11052413233D

 28 31  0  0  1  0  0  0  0  0999 V2000
  188.9100  178.3110  145.0830 C   0  0  1  0  0  3  0  0  0  0  0  0
  187.8610  177.8840  145.9480 O   0  0  0  0  0  0  0  0  0  0  0  0
  186.5950  177.5460  145.4820 C   0  0  0  0  0  0  0  0  0  0  0  0
  192.0940  174.7590  144.3410 C   0  0  0  0  0  1  0  0  0  0  0  0
  185.6300  177.4810  146.2870 O   0  0  0  0  0  0  0  0  0  0  0  0
  187.7900  176.1670  143.5070 S   0  0  0  0  0  0  0  0  0  0  0  0
  186.3910  177.2000  144.0520 C   0  0  2  0  0  3  0  0  0  0  0  0
  190.4130  176.5990  144.3580 C   0  0  0  0  0  0  0  0  0  0  0  0
  190.9550  177.3310  145.4820 C   0  0  0  0  0  0  0  0  0  0  0  0
  190.8840  175.4620  143.8310 C   0  0  0  0  0  3  0  0  0  0  0  0
  192.0450  177.0920  146.0660 O   0  0  0  0  0  0  0  0  0  0  0  0
  190.1160  178.3600  145.8360 O   0  0  0  0  0  0  0  0  0  0  0  0
  189.1840  177.3430  143.8830 C   0  0  2  0  0  0  0  0  0  0  0  0
  186.2120  178.4310  143.1730 C   0  0  0  0  0  3  0  0  0  0  0  0
  185.4500  178.0940  142.0700 F   0  0  0  0  0  0  0  0  0  0  0  0
  185.5610  179.4310  143.8730 F   0  0  0  0  0  0  0  0  0  0  0  0
  189.4870  178.1750  142.7690 O   0  0  0  0  0  0  0  0  0  0  0  0
  188.1600  178.3530  140.3590 C   0  0  0  0  0  2  0  0  0  0  0  0
  190.2170  177.6440  139.2010 C   0  0  2  0  0  3  0  0  0  0  0  0
  190.1600  177.4530  141.7620 C   0  0  1  0  0  3  0  0  0  0  0  0
  188.0490  177.7250  137.9550 C   0  0  0  0  0  0  0  0  0  0  0  0
  189.3520  177.3960  140.4420 C   0  0  1  0  0  3  0  0  0  0  0  0
  192.3310  177.1760  140.5030 C   0  0  0  0  0  2  0  0  0  0  0  0
  189.4370  177.3640  138.0020 N   0  0  0  0  0  0  0  0  0  0  0  0
  191.4980  176.8220  139.2580 C   0  0  0  0  0  2  0  0  0  0  0  0
  187.1410  177.4940  136.4770 Cl  0  0  0  0  0  0  0  0  0  0  0  0
  187.4200  178.1520  139.0590 C   0  0  0  0  0  2  0  0  0  0  0  0
  191.5710  178.0120  141.5440 C   0  0  0  0  0  2  0  0  0  0  0  0
  1 12  1  1  0  0  0
  1  2  1  0  0  0  0
  3  2  1  0  0  0  0
  3  5  2  0  0  0  0
  6 13  1  0  0  0  0
  6  7  1  0  0  0  0
  7 14  1  6  0  0  0
  7  3  1  0  0  0  0
  8  9  1  0  0  0  0
  9 12  1  0  0  0  0
  9 11  2  0  0  0  0
 10  4  1  0  0  0  0
 10  8  2  0  0  0  0
 13 17  1  6  0  0  0
 13  8  1  0  0  0  0
 13  1  1  0  0  0  0
 14 16  1  0  0  0  0
 15 14  1  0  0  0  0
 19 25  1  1  0  0  0
 19 22  1  0  0  0  0
 20 17  1  1  0  0  0
 21 24  2  0  0  0  0
 21 27  1  0  0  0  0
 22 18  1  1  0  0  0
 22 20  1  0  0  0  0
 23 28  1  0  0  0  0
 24 19  1  0  0  0  0
 25 23  1  0  0  0  0
 26 21  1  0  0  0  0
 27 18  1  0  0  0  0
 28 20  1  0  0  0  0
M  END
>  <MODEL>
3

>  <REMARK>
 VINA RESULT:      -6.8      3.333      5.699
  Name = 
  3 active torsions:
  status: ('A' for Active; 'I' for Inactive)
    1  A    between atoms: C_6  and  C_11
    2  A    between atoms: C_10  and  O_17
    3  A    between atoms: O_17  and  C_27
                            x       y       z     vdW  Elec       q    Type
                         _______ _______ _______ _____ _____    ______ ____

>  <TORSDO>
F 3

$$$$
=
 OpenBabel11052413233D

 28 31  0  0  1  0  0  0  0  0999 V2000
  188.8450  178.5620  141.5570 C   0  0  1  0  0  3  0  0  0  0  0  0
  189.2220  177.6900  140.4940 O   0  0  0  0  0  0  0  0  0  0  0  0
  190.0020  176.5570  140.6940 C   0  0  0  0  0  0  0  0  0  0  0  0
  184.2540  177.8230  142.8530 C   0  0  0  0  0  1  0  0  0  0  0  0
  190.5630  176.0030  139.7140 O   0  0  0  0  0  0  0  0  0  0  0  0
  188.4840  176.0030  142.8440 S   0  0  0  0  0  0  0  0  0  0  0  0
  190.1240  175.9610  142.0500 C   0  0  2  0  0  3  0  0  0  0  0  0
  186.7060  178.1320  142.5350 C   0  0  0  0  0  0  0  0  0  0  0  0
  186.6300  179.1920  141.5530 C   0  0  0  0  0  0  0  0  0  0  0  0
  185.6830  177.5030  143.1260 C   0  0  0  0  0  3  0  0  0  0  0  0
  185.5860  179.7950  141.1930 O   0  0  0  0  0  0  0  0  0  0  0  0
  187.8800  179.4800  141.0580 O   0  0  0  0  0  0  0  0  0  0  0  0
  188.1710  177.8370  142.7710 C   0  0  2  0  0  0  0  0  0  0  0  0
  191.1870  176.6480  142.8970 C   0  0  0  0  0  3  0  0  0  0  0  0
  192.0530  175.6960  143.3980 F   0  0  0  0  0  0  0  0  0  0  0  0
  191.9090  177.5440  142.1290 F   0  0  0  0  0  0  0  0  0  0  0  0
  188.6480  178.4990  143.9370 O   0  0  0  0  0  0  0  0  0  0  0  0
  190.7730  177.6470  145.4720 C   0  0  0  0  0  2  0  0  0  0  0  0
  189.2650  177.4650  147.4140 C   0  0  2  0  0  3  0  0  0  0  0  0
  188.2030  177.8530  145.1080 C   0  0  1  0  0  3  0  0  0  0  0  0
  191.5680  176.4920  147.5260 C   0  0  0  0  0  0  0  0  0  0  0  0
  189.3680  177.2160  145.9050 C   0  0  1  0  0  3  0  0  0  0  0  0
  186.8230  178.0790  147.2100 C   0  0  0  0  0  2  0  0  0  0  0  0
  190.2660  176.6640  148.1070 N   0  0  0  0  0  2  0  0  0  0  0  0
  187.8560  177.1820  147.9160 C   0  0  0  0  0  2  0  0  0  0  0  0
  192.8050  175.6280  148.4110 Cl  0  0  0  0  0  0  0  0  0  0  0  0
  191.8150  176.9100  146.2770 C   0  0  0  0  0  3  0  0  0  0  0  0
  187.3720  178.8070  145.9740 C   0  0  0  0  0  2  0  0  0  0  0  0
  1  2  1  6  0  0  0
  1 13  1  0  0  0  0
  2  3  1  0  0  0  0
  3  7  1  0  0  0  0
  4 10  1  0  0  0  0
  5  3  2  0  0  0  0
  7  6  1  0  0  0  0
  7 14  1  1  0  0  0
  8 13  1  0  0  0  0
  8 10  2  0  0  0  0
  9  8  1  0  0  0  0
 11  9  2  0  0  0  0
 12  9  1  0  0  0  0
 12  1  1  0  0  0  0
 13  6  1  0  0  0  0
 13 17  1  1  0  0  0
 14 15  1  0  0  0  0
 16 14  1  0  0  0  0
 18 27  1  0  0  0  0
 19 25  1  1  0  0  0
 19 24  1  0  0  0  0
 20 17  1  6  0  0  0
 20 22  1  0  0  0  0
 20 28  1  0  0  0  0
 21 24  1  0  0  0  0
 21 26  1  0  0  0  0
 22 18  1  6  0  0  0
 22 19  1  0  0  0  0
 23 25  1  0  0  0  0
 27 21  2  0  0  0  0
 28 23  1  0  0  0  0
M  END
>  <MODEL>
4

>  <REMARK>
 VINA RESULT:      -6.4      3.329      5.458
  Name = 
  3 active torsions:
  status: ('A' for Active; 'I' for Inactive)
    1  A    between atoms: C_6  and  C_11
    2  A    between atoms: C_10  and  O_17
    3  A    between atoms: O_17  and  C_27
                            x       y       z     vdW  Elec       q    Type
                         _______ _______ _______ _____ _____    ______ ____

>  <TORSDO>
F 3

$$$$
=
 OpenBabel11052413233D

 28 31  0  0  1  0  0  0  0  0999 V2000
  191.5940  177.9050  141.9270 C   0  0  1  0  0  3  0  0  0  0  0  0
  192.0590  177.1200  143.0220 O   0  0  0  0  0  0  0  0  0  0  0  0
  191.2130  176.6510  144.0210 C   0  0  0  0  0  0  0  0  0  0  0  0
  191.2660  175.2450  137.9110 C   0  0  0  0  0  1  0  0  0  0  0  0
  191.6960  176.2420  145.1080 O   0  0  0  0  0  0  0  0  0  0  0  0
  189.4720  175.9550  142.0930 S   0  0  0  0  0  0  0  0  0  0  0  0
  189.7480  176.5720  143.7860 C   0  0  2  0  0  3  0  0  0  0  0  0
  191.0790  176.6910  139.9320 C   0  0  0  0  0  0  0  0  0  0  0  0
  192.4040  177.2690  139.8670 C   0  0  0  0  0  0  0  0  0  0  0  0
  190.5450  175.7960  139.0930 C   0  0  0  0  0  3  0  0  0  0  0  0
  193.2280  177.1270  138.9260 O   0  0  0  0  0  0  0  0  0  0  0  0
  192.6540  178.0270  140.9860 O   0  0  0  0  0  0  0  0  0  0  0  0
  190.3910  177.2710  141.1490 C   0  0  2  0  0  0  0  0  0  0  0  0
  189.0440  177.8990  144.0320 C   0  0  0  0  0  3  0  0  0  0  0  0
  187.8450  177.6630  144.6790 F   0  0  0  0  0  0  0  0  0  0  0  0
  189.8240  178.7170  144.8290 F   0  0  0  0  0  0  0  0  0  0  0  0
  189.5410  178.3540  140.7920 O   0  0  0  0  0  0  0  0  0  0  0  0
  186.9230  178.7700  141.5480 C   0  0  0  0  0  2  0  0  0  0  0  0
  186.2510  178.6930  139.1780 C   0  0  2  0  0  3  0  0  0  0  0  0
  188.6490  177.9840  139.7640 C   0  0  1  0  0  3  0  0  0  0  0  0
  184.5080  178.6280  140.9710 C   0  0  0  0  0  0  0  0  0  0  0  0
  187.1700  178.0480  140.2200 C   0  0  1  0  0  3  0  0  0  0  0  0
  187.9760  178.3640  137.3600 C   0  0  0  0  0  2  0  0  0  0  0  0
  184.8620  178.5230  139.5840 N   0  0  0  0  0  0  0  0  0  0  0  0
  186.5180  178.1220  137.7910 C   0  0  0  0  0  2  0  0  0  0  0  0
  182.8260  178.5390  141.4460 Cl  0  0  0  0  0  0  0  0  0  0  0  0
  185.4590  178.7040  141.9110 C   0  0  0  0  0  2  0  0  0  0  0  0
  188.8950  178.8220  138.5040 C   0  0  0  0  0  2  0  0  0  0  0  0
  1 12  1  6  0  0  0
  1  2  1  0  0  0  0
  2  3  1  0  0  0  0
  3  5  2  0  0  0  0
  4 10  1  0  0  0  0
  6  7  1  0  0  0  0
  7  3  1  0  0  0  0
  7 14  1  6  0  0  0
  8 13  1  0  0  0  0
  9  8  1  0  0  0  0
  9 12  1  0  0  0  0
 10  8  2  0  0  0  0
 11  9  2  0  0  0  0
 13 17  1  6  0  0  0
 13  1  1  0  0  0  0
 13  6  1  0  0  0  0
 14 15  1  0  0  0  0
 14 16  1  0  0  0  0
 18 27  1  0  0  0  0
 19 25  1  6  0  0  0
 19 24  1  0  0  0  0
 19 22  1  0  0  0  0
 20 22  1  0  0  0  0
 20 17  1  1  0  0  0
 21 26  1  0  0  0  0
 21 27  1  0  0  0  0
 22 18  1  1  0  0  0
 23 25  1  0  0  0  0
 23 28  1  0  0  0  0
 24 21  2  0  0  0  0
 28 20  1  0  0  0  0
M  END
>  <MODEL>
5

>  <REMARK>
 VINA RESULT:      -6.2      3.072      5.763
  Name = 
  3 active torsions:
  status: ('A' for Active; 'I' for Inactive)
    1  A    between atoms: C_6  and  C_11
    2  A    between atoms: C_10  and  O_17
    3  A    between atoms: O_17  and  C_27
                            x       y       z     vdW  Elec       q    Type
                         _______ _______ _______ _____ _____    ______ ____

>  <TORSDO>
F 3

$$$$
=
 OpenBabel11052413233D

 28 31  0  0  1  0  0  0  0  0999 V2000
  188.7050  175.9020  138.4210 C   0  0  1  0  0  3  0  0  0  0  0  0
  188.0700  176.5810  137.3400 O   0  0  0  0  0  0  0  0  0  0  0  0
  187.3870  177.7810  137.5060 C   0  0  0  0  0  0  0  0  0  0  0  0
  193.4850  176.5670  138.3070 C   0  0  0  0  0  1  0  0  0  0  0  0
  186.5920  178.1760  136.6150 O   0  0  0  0  0  0  0  0  0  0  0  0
  189.4320  178.6280  139.0330 S   0  0  0  0  0  0  0  0  0  0  0  0
  187.6400  178.6280  138.7000 C   0  0  2  0  0  3  0  0  0  0  0  0
  191.0330  176.3660  138.7050 C   0  0  0  0  0  0  0  0  0  0  0  0
  190.8300  175.1370  137.9680 C   0  0  0  0  0  0  0  0  0  0  0  0
  192.1850  177.0260  138.8720 C   0  0  0  0  0  3  0  0  0  0  0  0
  191.7320  174.4100  137.4770 O   0  0  0  0  0  0  0  0  0  0  0  0
  189.4890  174.8450  137.8820 O   0  0  0  0  0  0  0  0  0  0  0  0
  189.6890  176.7970  139.2490 C   0  0  2  0  0  0  0  0  0  0  0  0
  186.8330  178.1840  139.9130 C   0  0  0  0  0  3  0  0  0  0  0  0
  187.1150  179.0210  140.9770 F   0  0  0  0  0  0  0  0  0  0  0  0
  185.4790  178.2540  139.6420 F   0  0  0  0  0  0  0  0  0  0  0  0
  189.5330  176.3990  140.6060 O   0  0  0  0  0  0  0  0  0  0  0  0
  188.0470  176.4730  142.9270 C   0  0  0  0  0  2  0  0  0  0  0  0
  189.8810  177.6920  144.0330 C   0  0  2  0  0  3  0  0  0  0  0  0
  190.0130  177.3900  141.4860 C   0  0  1  0  0  3  0  0  0  0  0  0
  187.6490  177.5150  145.1490 C   0  0  0  0  0  0  0  0  0  0  0  0
  189.0970  177.5690  142.7230 C   0  0  1  0  0  3  0  0  0  0  0  0
  192.0110  178.2260  142.7830 C   0  0  0  0  0  2  0  0  0  0  0  0
  188.9730  178.0690  145.1090 N   0  0  0  0  0  2  0  0  0  0  0  0
  191.0350  178.6750  143.8860 C   0  0  0  0  0  2  0  0  0  0  0  0
  186.5980  177.8770  146.5010 Cl  0  0  0  0  0  0  0  0  0  0  0  0
  187.1810  176.7980  144.1190 C   0  0  0  0  0  3  0  0  0  0  0  0
  191.4650  177.1040  141.8870 C   0  0  0  0  0  2  0  0  0  0  0  0
  1  2  1  6  0  0  0
  1 13  1  0  0  0  0
  2  3  1  0  0  0  0
  3  7  1  0  0  0  0
  4 10  1  0  0  0  0
  5  3  2  0  0  0  0
  6 13  1  0  0  0  0
  7  6  1  0  0  0  0
  7 14  1  1  0  0  0
  8 10  2  0  0  0  0
  8 13  1  0  0  0  0
  9  8  1  0  0  0  0
 11  9  2  0  0  0  0
 12  9  1  0  0  0  0
 12  1  1  0  0  0  0
 13 17  1  1  0  0  0
 14 15  1  0  0  0  0
 16 14  1  0  0  0  0
 18 27  1  0  0  0  0
 19 25  1  6  0  0  0
 19 24  1  0  0  0  0
 20 17  1  6  0  0  0
 20 28  1  0  0  0  0
 20 22  1  0  0  0  0
 21 26  1  0  0  0  0
 22 18  1  1  0  0  0
 22 19  1  0  0  0  0
 23 25  1  0  0  0  0
 24 21  1  0  0  0  0
 27 21  2  0  0  0  0
 28 23  1  0  0  0  0
M  END
>  <MODEL>
6

>  <REMARK>
 VINA RESULT:      -6.2      3.603      5.603
  Name = 
  3 active torsions:
  status: ('A' for Active; 'I' for Inactive)
    1  A    between atoms: C_6  and  C_11
    2  A    between atoms: C_10  and  O_17
    3  A    between atoms: O_17  and  C_27
                            x       y       z     vdW  Elec       q    Type
                         _______ _______ _______ _____ _____    ______ ____

>  <TORSDO>
F 3

$$$$
=
 OpenBabel11052413233D

 28 31  0  0  1  0  0  0  0  0999 V2000
  181.4490  179.6610  139.7890 C   0  0  1  0  0  3  0  0  0  0  0  0
  180.8420  178.9050  138.7440 O   0  0  0  0  0  0  0  0  0  0  0  0
  181.4480  177.7900  138.1770 C   0  0  0  0  0  0  0  0  0  0  0  0
  179.4490  178.6280  144.0590 C   0  0  0  0  0  1  0  0  0  0  0  0
  181.0370  177.3500  137.0720 O   0  0  0  0  0  0  0  0  0  0  0  0
  182.0870  176.9840  140.6610 S   0  0  0  0  0  0  0  0  0  0  0  0
  182.5360  177.0800  138.8970 C   0  0  2  0  0  3  0  0  0  0  0  0
  180.8000  179.0610  142.0100 C   0  0  0  0  0  0  0  0  0  0  0  0
  180.0480  180.2020  141.5340 C   0  0  0  0  0  0  0  0  0  0  0  0
  180.5640  178.3410  143.1140 C   0  0  0  0  0  3  0  0  0  0  0  0
  179.1260  180.7930  142.1550 O   0  0  0  0  0  0  0  0  0  0  0  0
  180.4870  180.5820  140.2880 O   0  0  0  0  0  0  0  0  0  0  0  0
  181.9110  178.8040  141.0160 C   0  0  2  0  0  0  0  0  0  0  0  0
  183.8970  177.7290  138.6880 C   0  0  0  0  0  3  0  0  0  0  0  0
  184.7080  176.8640  137.9770 F   0  0  0  0  0  0  0  0  0  0  0  0
  183.7640  178.9030  137.9690 F   0  0  0  0  0  0  0  0  0  0  0  0
  183.1370  179.3770  141.4560 O   0  0  0  0  0  0  0  0  0  0  0  0
  185.8380  178.9360  141.1270 C   0  0  0  0  0  2  0  0  0  0  0  0
  186.0330  178.4780  143.5410 C   0  0  2  0  0  3  0  0  0  0  0  0
  183.6720  178.6600  142.5450 C   0  0  1  0  0  3  0  0  0  0  0  0
  187.9420  177.9500  142.0130 C   0  0  0  0  0  0  0  0  0  0  0  0
  185.1480  178.2520  142.3100 C   0  0  1  0  0  3  0  0  0  0  0  0
  184.0100  178.6280  145.0470 C   0  0  0  0  0  2  0  0  0  0  0  0
  187.3410  177.8780  143.3140 N   0  0  0  0  0  2  0  0  0  0  0  0
  185.3640  177.9380  144.7980 C   0  0  0  0  0  2  0  0  0  0  0  0
  189.5610  177.3330  141.7690 Cl  0  0  0  0  0  0  0  0  0  0  0  0
  187.2420  178.4060  140.9650 C   0  0  0  0  0  3  0  0  0  0  0  0
  183.4970  179.4440  143.8510 C   0  0  0  0  0  2  0  0  0  0  0  0
  1  2  1  6  0  0  0
  1 12  1  0  0  0  0
  1 13  1  0  0  0  0
  3  2  1  0  0  0  0
  3  7  1  0  0  0  0
  5  3  2  0  0  0  0
  6 13  1  0  0  0  0
  7 14  1  1  0  0  0
  7  6  1  0  0  0  0
  8 10  2  0  0  0  0
  9  8  1  0  0  0  0
  9 11  2  0  0  0  0
 10  4  1  0  0  0  0
 12  9  1  0  0  0  0
 13 17  1  1  0  0  0
 13  8  1  0  0  0  0
 15 14  1  0  0  0  0
 16 14  1  0  0  0  0
 19 25  1  1  0  0  0
 20 17  1  6  0  0  0
 20 28  1  0  0  0  0
 21 24  1  0  0  0  0
 22 18  1  6  0  0  0
 22 20  1  0  0  0  0
 22 19  1  0  0  0  0
 24 19  1  0  0  0  0
 25 23  1  0  0  0  0
 26 21  1  0  0  0  0
 27 18  1  0  0  0  0
 27 21  2  0  0  0  0
 28 23  1  0  0  0  0
M  END
>  <MODEL>
7

>  <REMARK>
 VINA RESULT:      -6.1      6.094      8.932
  Name = 
  3 active torsions:
  status: ('A' for Active; 'I' for Inactive)
    1  A    between atoms: C_6  and  C_11
    2  A    between atoms: C_10  and  O_17
    3  A    between atoms: O_17  and  C_27
                            x       y       z     vdW  Elec       q    Type
                         _______ _______ _______ _____ _____    ______ ____

>  <TORSDO>
F 3

$$$$
=
 OpenBabel11052413233D

 28 31  0  0  1  0  0  0  0  0999 V2000
  189.0510  178.6280  145.7940 C   0  0  1  0  0  3  0  0  0  0  0  0
  189.0080  178.0770  147.1080 O   0  0  0  0  0  0  0  0  0  0  0  0
  187.8160  177.7780  147.7570 C   0  0  0  0  0  0  0  0  0  0  0  0
  190.2140  175.2530  142.5430 C   0  0  0  0  0  1  0  0  0  0  0  0
  187.8100  177.5950  149.0010 O   0  0  0  0  0  0  0  0  0  0  0  0
  186.9490  176.6780  145.4610 S   0  0  0  0  0  0  0  0  0  0  0  0
  186.5610  177.6100  146.9790 C   0  0  2  0  0  3  0  0  0  0  0  0
  189.3110  177.0460  144.0200 C   0  0  0  0  0  0  0  0  0  0  0  0
  190.5790  177.6420  144.3800 C   0  0  0  0  0  0  0  0  0  0  0  0
  189.1110  175.9930  143.2190 C   0  0  0  0  0  3  0  0  0  0  0  0
  191.7000  177.3520  143.8880 O   0  0  0  0  0  0  0  0  0  0  0  0
  190.4020  178.6040  145.3460 O   0  0  0  0  0  0  0  0  0  0  0  0
  188.2260  177.8220  144.7350 C   0  0  2  0  0  0  0  0  0  0  0  0
  185.8790  178.9370  146.6760 C   0  0  0  0  0  3  0  0  0  0  0  0
  184.5220  178.7250  146.5220 F   0  0  0  0  0  0  0  0  0  0  0  0
  186.0730  179.8260  147.7180 F   0  0  0  0  0  0  0  0  0  0  0  0
  187.6370  178.7910  143.8760 O   0  0  0  0  0  0  0  0  0  0  0  0
  184.9800  179.0340  143.1820 C   0  0  0  0  0  2  0  0  0  0  0  0
  185.5920  178.6960  140.8180 C   0  0  2  0  0  3  0  0  0  0  0  0
  187.3950  178.2570  142.5940 C   0  0  1  0  0  3  0  0  0  0  0  0
  183.1870  178.6280  141.5070 C   0  0  0  0  0  0  0  0  0  0  0  0
  185.8850  178.2270  142.2470 C   0  0  1  0  0  3  0  0  0  0  0  0
  188.0050  178.3680  140.1460 C   0  0  0  0  0  2  0  0  0  0  0  0
  184.1930  178.4370  140.5000 N   0  0  0  0  0  0  0  0  0  0  0  0
  186.5370  178.0350  139.8240 C   0  0  0  0  0  2  0  0  0  0  0  0
  181.4980  178.4300  141.0940 Cl  0  0  0  0  0  0  0  0  0  0  0  0
  183.5350  178.8690  142.7780 C   0  0  0  0  0  2  0  0  0  0  0  0
  188.2100  179.0020  141.5310 C   0  0  0  0  0  2  0  0  0  0  0  0
  1 12  1  6  0  0  0
  1  2  1  0  0  0  0
  2  3  1  0  0  0  0
  3  5  2  0  0  0  0
  4 10  1  0  0  0  0
  6  7  1  0  0  0  0
  7 14  1  6  0  0  0
  7  3  1  0  0  0  0
  8  9  1  0  0  0  0
  8 13  1  0  0  0  0
  9 12  1  0  0  0  0
 10  8  2  0  0  0  0
 11  9  2  0  0  0  0
 13 17  1  6  0  0  0
 13  6  1  0  0  0  0
 13  1  1  0  0  0  0
 14 16  1  0  0  0  0
 15 14  1  0  0  0  0
 19 25  1  6  0  0  0
 19 22  1  0  0  0  0
 20 17  1  1  0  0  0
 21 27  1  0  0  0  0
 22 20  1  0  0  0  0
 22 18  1  1  0  0  0
 23 28  1  0  0  0  0
 24 19  1  0  0  0  0
 24 21  2  0  0  0  0
 25 23  1  0  0  0  0
 26 21  1  0  0  0  0
 27 18  1  0  0  0  0
 28 20  1  0  0  0  0
M  END
>  <MODEL>
8

>  <REMARK>
 VINA RESULT:      -5.8      3.084      5.289
  Name = 
  3 active torsions:
  status: ('A' for Active; 'I' for Inactive)
    1  A    between atoms: C_6  and  C_11
    2  A    between atoms: C_10  and  O_17
    3  A    between atoms: O_17  and  C_27
                            x       y       z     vdW  Elec       q    Type
                         _______ _______ _______ _____ _____    ______ ____

>  <TORSDO>
F 3

$$$$
=
 OpenBabel11052413233D

 28 31  0  0  1  0  0  0  0  0999 V2000
  182.2420  178.3360  137.3170 C   0  0  1  0  0  3  0  0  0  0  0  0
  182.7100  177.6270  136.1730 O   0  0  0  0  0  0  0  0  0  0  0  0
  184.0120  177.1500  136.0680 C   0  0  0  0  0  0  0  0  0  0  0  0
  179.5210  175.4980  140.1190 C   0  0  0  0  0  1  0  0  0  0  0  0
  184.4650  176.8160  134.9430 O   0  0  0  0  0  0  0  0  0  0  0  0
  183.7990  176.2720  138.6010 S   0  0  0  0  0  0  0  0  0  0  0  0
  184.8460  176.9740  137.2840 C   0  0  2  0  0  3  0  0  0  0  0  0
  181.1340  177.0120  138.9720 C   0  0  0  0  0  0  0  0  0  0  0  0
  180.1820  177.6640  138.0980 C   0  0  0  0  0  0  0  0  0  0  0  0
  180.8810  176.0530  139.8700 C   0  0  0  0  0  3  0  0  0  0  0  0
  178.9310  177.5330  138.1360 O   0  0  0  0  0  0  0  0  0  0  0  0
  180.8310  178.4820  137.2040 O   0  0  0  0  0  0  0  0  0  0  0  0
  182.4960  177.6000  138.6760 C   0  0  2  0  0  0  0  0  0  0  0  0
  185.5230  178.2660  137.7200 C   0  0  0  0  0  3  0  0  0  0  0  0
  186.0880  178.0830  138.9690 F   0  0  0  0  0  0  0  0  0  0  0  0
  186.5230  178.6100  136.8280 F   0  0  0  0  0  0  0  0  0  0  0  0
  182.8320  178.6150  139.6150 O   0  0  0  0  0  0  0  0  0  0  0  0
  184.6340  178.6560  141.7010 C   0  0  0  0  0  2  0  0  0  0  0  0
  182.7710  179.0280  143.2710 C   0  0  2  0  0  3  0  0  0  0  0  0
  182.1870  178.4010  140.8500 C   0  0  1  0  0  3  0  0  0  0  0  0
  185.0430  178.4510  144.1460 C   0  0  0  0  0  0  0  0  0  0  0  0
  183.1920  178.2520  142.0190 C   0  0  1  0  0  3  0  0  0  0  0  0
  180.3970  179.2250  142.4290 C   0  0  0  0  0  2  0  0  0  0  0  0
  183.6440  178.6680  144.3820 N   0  0  0  0  0  2  0  0  0  0  0  0
  181.3020  178.7840  143.5940 C   0  0  0  0  0  2  0  0  0  0  0  0
  186.1110  178.1330  145.4940 Cl  0  0  0  0  0  0  0  0  0  0  0  0
  185.5210  178.4020  142.8950 C   0  0  0  0  0  3  0  0  0  0  0  0
  181.1540  179.5020  141.1210 C   0  0  0  0  0  2  0  0  0  0  0  0
  1  2  1  6  0  0  0
  1 13  1  0  0  0  0
  3  2  1  0  0  0  0
  3  7  1  0  0  0  0
  5  3  2  0  0  0  0
  6 13  1  0  0  0  0
  7 14  1  1  0  0  0
  7  6  1  0  0  0  0
  8 10  2  0  0  0  0
  9 11  2  0  0  0  0
  9  8  1  0  0  0  0
 10  4  1  0  0  0  0
 12  1  1  0  0  0  0
 12  9  1  0  0  0  0
 13  8  1  0  0  0  0
 13 17  1  1  0  0  0
 14 15  1  0  0  0  0
 16 14  1  0  0  0  0
 18 27  1  0  0  0  0
 19 25  1  1  0  0  0
 19 24  1  0  0  0  0
 20 17  1  6  0  0  0
 20 28  1  0  0  0  0
 20 22  1  0  0  0  0
 21 24  1  0  0  0  0
 21 26  1  0  0  0  0
 22 18  1  6  0  0  0
 22 19  1  0  0  0  0
 23 25  1  0  0  0  0
 27 21  2  0  0  0  0
 28 23  1  0  0  0  0
M  END
>  <MODEL>
9

>  <REMARK>
 VINA RESULT:      -5.6      6.580      9.221
  Name = 
  3 active torsions:
  status: ('A' for Active; 'I' for Inactive)
    1  A    between atoms: C_6  and  C_11
    2  A    between atoms: C_10  and  O_17
    3  A    between atoms: O_17  and  C_27
                            x       y       z     vdW  Elec       q    Type
                         _______ _______ _______ _____ _____    ______ ____

>  <TORSDO>
F 3

$$$$
