=
 OpenBabel11052413473D

 27 31  0  0  1  0  0  0  0  0999 V2000
  187.0240  177.1880  143.7060 N   0  0  0  0  0  2  0  0  0  0  0  0
  185.3870  179.0230  144.3020 C   0  0  2  0  0  3  0  0  0  0  0  0
  186.9680  179.0580  141.4360 N   0  0  0  0  0  2  0  0  0  0  0  0
  182.6980  178.5790  142.1570 C   0  0  0  0  0  2  0  0  0  0  0  0
  184.4270  178.2350  143.5530 C   0  0  2  0  0  3  0  0  0  0  0  0
  184.5080  179.2090  140.2770 S   0  0  0  0  0  0  0  0  0  0  0  0
  190.0910  177.1450  140.7990 C   0  0  0  0  0  0  0  0  0  0  0  0
  191.1630  177.1530  139.8640 N   0  0  0  0  0  1  0  0  0  0  0  0
  185.0960  179.3950  142.9010 N   0  0  2  0  0  0  0  0  0  0  0  0
  186.8000  178.4280  144.4450 C   0  0  1  0  0  3  0  0  0  0  0  0
  182.8900  178.5860  140.8680 C   0  0  1  0  0  3  0  0  0  0  0  0
  187.9890  177.1380  142.6530 C   0  0  0  0  0  0  0  0  0  0  0  0
  185.5820  178.7060  141.7070 C   0  0  2  0  0  3  0  0  0  0  0  0
  189.0970  178.1230  140.7280 C   0  0  0  0  0  3  0  0  0  0  0  0
  182.9730  178.5460  143.4310 C   0  0  0  0  0  2  0  0  0  0  0  0
  190.0180  176.1430  141.7690 C   0  0  0  0  0  3  0  0  0  0  0  0
  188.9720  176.1450  142.6960 C   0  0  0  0  0  3  0  0  0  0  0  0
  188.0320  178.1220  141.6360 C   0  0  0  0  0  0  0  0  0  0  0  0
  187.8580  177.8860  148.5710 C   0  0  0  0  0  3  0  0  0  0  0  0
  187.1580  178.2470  145.8840 C   0  0  0  0  0  0  0  0  0  0  0  0
  188.3070  177.5240  146.2190 C   0  0  0  0  0  3  0  0  0  0  0  0
  188.6570  177.3430  147.5610 C   0  0  0  0  0  3  0  0  0  0  0  0
  186.7090  178.6090  148.2410 C   0  0  0  0  0  3  0  0  0  0  0  0
  186.3570  178.7900  146.9000 C   0  0  0  0  0  3  0  0  0  0  0  0
  180.6810  177.4770  140.6430 C   0  0  0  0  0  1  0  0  0  0  0  0
  182.7200  176.4060  139.7190 C   0  0  0  0  0  1  0  0  0  0  0  0
  182.0310  177.7260  139.9990 C   0  0  0  0  0  3  0  0  0  0  0  0
  1 10  1  0  0  0  0
  2 10  1  0  0  0  0
  3 18  1  0  0  0  0
  3 13  1  0  0  0  0
  4 15  1  0  0  0  0
  5  2  1  0  0  0  0
  6 11  1  0  0  0  0
  6 13  1  0  0  0  0
  7 16  1  0  0  0  0
  8  7  1  0  0  0  0
  9  5  1  0  0  0  0
  9  2  1  0  0  0  0
 10 20  1  0  0  0  0
 11  4  1  0  0  0  0
 12 17  1  0  0  0  0
 12  1  1  0  0  0  0
 13  9  1  0  0  0  0
 14  7  2  0  0  0  0
 14 18  1  0  0  0  0
 15  5  1  0  0  0  0
 16 17  2  0  0  0  0
 18 12  2  0  0  0  0
 20 21  2  0  0  0  0
 20 24  1  0  0  0  0
 21 22  1  0  0  0  0
 22 19  2  0  0  0  0
 23 19  1  0  0  0  0
 24 23  2  0  0  0  0
 26 27  1  0  0  0  0
 27 25  1  0  0  0  0
 27 11  1  0  0  0  0
M  END
>  <MODEL>
1

>  <REMARK>
 VINA RESULT:      -8.9      0.000      0.000
  Name = 
  2 active torsions:
  status: ('A' for Active; 'I' for Inactive)
    1  A    between atoms: C_9  and  C_15
    2  A    between atoms: C_16  and  C_17
                            x       y       z     vdW  Elec       q    Type
                         _______ _______ _______ _____ _____    ______ ____

>  <TORSDO>
F 2

$$$$
=
 OpenBabel11052413473D

 27 31  0  0  1  0  0  0  0  0999 V2000
  186.9950  177.2440  143.0860 N   0  0  0  0  0  2  0  0  0  0  0  0
  185.1940  179.0080  143.3010 C   0  0  2  0  0  3  0  0  0  0  0  0
  187.2040  178.9780  140.7180 N   0  0  0  0  0  2  0  0  0  0  0  0
  182.9040  178.2830  140.7980 C   0  0  0  0  0  2  0  0  0  0  0  0
  184.4060  178.1230  142.4650 C   0  0  2  0  0  3  0  0  0  0  0  0
  184.9540  178.9160  139.1850 S   0  0  0  0  0  0  0  0  0  0  0  0
  190.4810  177.2250  140.6970 C   0  0  0  0  0  0  0  0  0  0  0  0
  191.6860  177.2450  139.9410 N   0  0  0  0  0  1  0  0  0  0  0  0
  185.1100  179.2830  141.8510 N   0  0  2  0  0  0  0  0  0  0  0  0
  186.5940  178.5070  143.6990 C   0  0  1  0  0  3  0  0  0  0  0  0
  183.2960  178.2300  139.5570 C   0  0  1  0  0  3  0  0  0  0  0  0
  188.1160  177.1940  142.2000 C   0  0  0  0  0  0  0  0  0  0  0  0
  185.8130  178.5590  140.7940 C   0  0  2  0  0  3  0  0  0  0  0  0
  189.4630  178.1360  140.4100 C   0  0  0  0  0  3  0  0  0  0  0  0
  182.9750  178.3380  142.0990 C   0  0  0  0  0  2  0  0  0  0  0  0
  190.3070  176.2760  141.7060 C   0  0  0  0  0  3  0  0  0  0  0  0
  189.1290  176.2660  142.4580 C   0  0  0  0  0  3  0  0  0  0  0  0
  188.2690  178.1210  141.1410 C   0  0  0  0  0  0  0  0  0  0  0  0
  186.9510  178.3040  147.9730 C   0  0  0  0  0  3  0  0  0  0  0  0
  186.7290  178.4290  145.1850 C   0  0  0  0  0  0  0  0  0  0  0  0
  185.7370  178.9930  145.9940 C   0  0  0  0  0  3  0  0  0  0  0  0
  185.8480  178.9320  147.3870 C   0  0  0  0  0  3  0  0  0  0  0  0
  187.9440  177.7390  147.1690 C   0  0  0  0  0  3  0  0  0  0  0  0
  187.8350  177.8000  145.7770 C   0  0  0  0  0  3  0  0  0  0  0  0
  182.3120  175.9650  139.3210 C   0  0  0  0  0  1  0  0  0  0  0  0
  183.5130  177.0140  137.4180 C   0  0  0  0  0  1  0  0  0  0  0  0
  182.6310  177.2730  138.6230 C   0  0  0  0  0  3  0  0  0  0  0  0
  1 10  1  0  0  0  0
  2 10  1  0  0  0  0
  3 13  1  0  0  0  0
  3 18  1  0  0  0  0
  4 15  1  0  0  0  0
  5  2  1  0  0  0  0
  6 11  1  0  0  0  0
  6 13  1  0  0  0  0
  7 16  1  0  0  0  0
  8  7  1  0  0  0  0
  9  5  1  0  0  0  0
  9  2  1  0  0  0  0
 10 20  1  0  0  0  0
 11  4  1  0  0  0  0
 12 17  1  0  0  0  0
 12  1  1  0  0  0  0
 13  9  1  0  0  0  0
 14  7  2  0  0  0  0
 14 18  1  0  0  0  0
 15  5  1  0  0  0  0
 16 17  2  0  0  0  0
 18 12  2  0  0  0  0
 20 24  2  0  0  0  0
 20 21  1  0  0  0  0
 21 22  2  0  0  0  0
 22 19  1  0  0  0  0
 23 19  2  0  0  0  0
 24 23  1  0  0  0  0
 26 27  1  0  0  0  0
 27 25  1  0  0  0  0
 27 11  1  0  0  0  0
M  END
>  <MODEL>
2

>  <REMARK>
 VINA RESULT:      -8.4      0.935      1.480
  Name = 
  2 active torsions:
  status: ('A' for Active; 'I' for Inactive)
    1  A    between atoms: C_9  and  C_15
    2  A    between atoms: C_16  and  C_17
                            x       y       z     vdW  Elec       q    Type
                         _______ _______ _______ _____ _____    ______ ____

>  <TORSDO>
F 2

$$$$
=
 OpenBabel11052413473D

 27 31  0  0  1  0  0  0  0  0999 V2000
  189.2020  175.9340  138.0760 N   0  0  0  0  0  2  0  0  0  0  0  0
  190.7650  177.4680  139.3430 C   0  0  2  0  0  3  0  0  0  0  0  0
  187.6360  178.2980  138.8600 N   0  0  0  0  0  2  0  0  0  0  0  0
  189.6410  177.4090  142.6240 C   0  0  0  0  0  2  0  0  0  0  0  0
  190.2210  176.8340  140.5290 C   0  0  2  0  0  3  0  0  0  0  0  0
  187.4740  178.5860  141.5640 S   0  0  0  0  0  0  0  0  0  0  0  0
  185.5030  176.7860  136.2180 C   0  0  0  0  0  0  0  0  0  0  0  0
  184.2900  177.0860  135.5380 N   0  0  0  0  0  1  0  0  0  0  0  0
  189.6910  178.1560  140.0920 N   0  0  2  0  0  0  0  0  0  0  0  0
  190.2580  176.9390  137.9890 C   0  0  1  0  0  3  0  0  0  0  0  0
  188.4100  177.7440  142.8940 C   0  0  1  0  0  3  0  0  0  0  0  0
  187.9040  176.2010  137.5410 C   0  0  0  0  0  0  0  0  0  0  0  0
  188.2710  177.8100  140.0750 C   0  0  2  0  0  3  0  0  0  0  0  0
  186.0280  177.6930  137.1420 C   0  0  0  0  0  3  0  0  0  0  0  0
  190.6900  177.0800  141.9240 C   0  0  0  0  0  2  0  0  0  0  0  0
  186.1550  175.5750  135.9800 C   0  0  0  0  0  3  0  0  0  0  0  0
  187.3550  175.2870  136.6370 C   0  0  0  0  0  3  0  0  0  0  0  0
  187.2160  177.4060  137.8230 C   0  0  0  0  0  0  0  0  0  0  0  0
  193.5380  175.4900  135.6280 C   0  0  0  0  0  3  0  0  0  0  0  0
  191.3910  176.4320  137.1580 C   0  0  0  0  0  0  0  0  0  0  0  0
  192.6770  176.3920  137.7050 C   0  0  0  0  0  3  0  0  0  0  0  0
  193.7510  175.9220  136.9410 C   0  0  0  0  0  3  0  0  0  0  0  0
  192.2540  175.5290  135.0790 C   0  0  0  0  0  3  0  0  0  0  0  0
  191.1810  175.9980  135.8400 C   0  0  0  0  0  3  0  0  0  0  0  0
  186.3590  177.7240  144.2900 C   0  0  0  0  0  1  0  0  0  0  0  0
  188.5560  177.1260  145.2800 C   0  0  0  0  0  1  0  0  0  0  0  0
  187.7050  177.0750  144.0280 C   0  0  0  0  0  3  0  0  0  0  0  0
  2  9  1  0  0  0  0
  2  5  1  0  0  0  0
  3 13  1  0  0  0  0
  4 11  1  0  0  0  0
  5 15  1  0  0  0  0
  6 11  1  0  0  0  0
  7 14  1  0  0  0  0
  8  7  1  0  0  0  0
  9  5  1  0  0  0  0
 10  1  1  0  0  0  0
 10  2  1  0  0  0  0
 11 27  1  0  0  0  0
 12 18  1  0  0  0  0
 12  1  1  0  0  0  0
 13  9  1  0  0  0  0
 13  6  1  0  0  0  0
 14 18  2  0  0  0  0
 15  4  1  0  0  0  0
 16  7  2  0  0  0  0
 16 17  1  0  0  0  0
 17 12  2  0  0  0  0
 18  3  1  0  0  0  0
 19 22  1  0  0  0  0
 20 21  1  0  0  0  0
 20 10  1  0  0  0  0
 22 21  2  0  0  0  0
 23 19  2  0  0  0  0
 23 24  1  0  0  0  0
 24 20  2  0  0  0  0
 27 25  1  0  0  0  0
 27 26  1  0  0  0  0
M  END
>  <MODEL>
3

>  <REMARK>
 VINA RESULT:      -7.5      3.790      8.001
  Name = 
  2 active torsions:
  status: ('A' for Active; 'I' for Inactive)
    1  A    between atoms: C_9  and  C_15
    2  A    between atoms: C_16  and  C_17
                            x       y       z     vdW  Elec       q    Type
                         _______ _______ _______ _____ _____    ______ ____

>  <TORSDO>
F 2

$$$$
=
 OpenBabel11052413473D

 27 31  0  0  1  0  0  0  0  0999 V2000
  186.5530  177.4300  142.4340 N   0  0  0  0  0  2  0  0  0  0  0  0
  185.5460  178.9470  140.6770 C   0  0  2  0  0  3  0  0  0  0  0  0
  188.7770  178.9060  141.1960 N   0  0  0  0  0  2  0  0  0  0  0  0
  186.6000  177.6480  137.6380 C   0  0  0  0  0  2  0  0  0  0  0  0
  185.8670  177.8770  139.7520 C   0  0  2  0  0  3  0  0  0  0  0  0
  189.0240  178.3720  138.5370 S   0  0  0  0  0  0  0  0  0  0  0  0
  190.3310  177.6210  144.3190 C   0  0  0  0  0  0  0  0  0  0  0  0
  191.5760  177.7210  144.9990 N   0  0  0  0  0  1  0  0  0  0  0  0
  186.7810  179.0470  139.8700 N   0  0  2  0  0  0  0  0  0  0  0  0
  185.8610  178.6870  142.1610 C   0  0  1  0  0  3  0  0  0  0  0  0
  187.8740  177.5130  137.3990 C   0  0  1  0  0  3  0  0  0  0  0  0
  187.8690  177.4360  142.9910 C   0  0  0  0  0  0  0  0  0  0  0  0
  188.0230  178.3130  140.1020 C   0  0  2  0  0  3  0  0  0  0  0  0
  190.1150  178.3490  143.1460 C   0  0  0  0  0  3  0  0  0  0  0  0
  185.5000  177.8550  138.3060 C   0  0  0  0  0  2  0  0  0  0  0  0
  189.3340  176.7740  144.8080 C   0  0  0  0  0  3  0  0  0  0  0  0
  188.1060  176.6870  144.1480 C   0  0  0  0  0  3  0  0  0  0  0  0
  188.8980  178.2520  142.4640 C   0  0  0  0  0  0  0  0  0  0  0  0
  182.2890  178.9910  144.5240 C   0  0  0  0  0  3  0  0  0  0  0  0
  184.6260  178.7920  142.9940 C   0  0  0  0  0  0  0  0  0  0  0  0
  183.3770  178.8300  142.3660 C   0  0  0  0  0  3  0  0  0  0  0  0
  182.2090  178.9290  143.1290 C   0  0  0  0  0  3  0  0  0  0  0  0
  183.5350  178.9530  145.1550 C   0  0  0  0  0  3  0  0  0  0  0  0
  184.7030  178.8540  144.3940 C   0  0  0  0  0  3  0  0  0  0  0  0
  187.4960  175.1390  136.7840 C   0  0  0  0  0  1  0  0  0  0  0  0
  189.7960  176.0730  136.8230 C   0  0  0  0  0  1  0  0  0  0  0  0
  188.3380  176.3780  136.5460 C   0  0  0  0  0  3  0  0  0  0  0  0
  1 12  1  0  0  0  0
  2 10  1  0  0  0  0
  3 18  1  0  0  0  0
  4 15  1  0  0  0  0
  5  9  1  0  0  0  0
  5  2  1  0  0  0  0
  6 13  1  0  0  0  0
  7 16  1  0  0  0  0
  7  8  1  0  0  0  0
  9 13  1  0  0  0  0
  9  2  1  0  0  0  0
 10  1  1  0  0  0  0
 10 20  1  0  0  0  0
 11  4  1  0  0  0  0
 11  6  1  0  0  0  0
 12 17  1  0  0  0  0
 13  3  1  0  0  0  0
 14  7  2  0  0  0  0
 15  5  1  0  0  0  0
 17 16  2  0  0  0  0
 18 12  2  0  0  0  0
 18 14  1  0  0  0  0
 19 23  1  0  0  0  0
 20 24  1  0  0  0  0
 21 20  2  0  0  0  0
 21 22  1  0  0  0  0
 22 19  2  0  0  0  0
 24 23  2  0  0  0  0
 27 25  1  0  0  0  0
 27 26  1  0  0  0  0
 27 11  1  0  0  0  0
M  END
>  <MODEL>
4

>  <REMARK>
 VINA RESULT:      -7.5      2.697      4.835
  Name = 
  2 active torsions:
  status: ('A' for Active; 'I' for Inactive)
    1  A    between atoms: C_9  and  C_15
    2  A    between atoms: C_16  and  C_17
                            x       y       z     vdW  Elec       q    Type
                         _______ _______ _______ _____ _____    ______ ____

>  <TORSDO>
F 2

$$$$
=
 OpenBabel11052413473D

 27 31  0  0  1  0  0  0  0  0999 V2000
  188.3390  176.9280  142.0980 N   0  0  0  0  0  2  0  0  0  0  0  0
  188.3310  178.1750  139.8960 C   0  0  2  0  0  3  0  0  0  0  0  0
  191.0250  178.0780  141.7510 N   0  0  0  0  0  2  0  0  0  0  0  0
  190.4040  176.3440  137.8030 C   0  0  0  0  0  2  0  0  0  0  0  0
  188.8870  176.9530  139.3480 C   0  0  2  0  0  3  0  0  0  0  0  0
  192.2970  177.0990  139.5500 S   0  0  0  0  0  0  0  0  0  0  0  0
  190.9840  177.2620  145.3770 C   0  0  0  0  0  0  0  0  0  0  0  0
  191.8360  177.4180  146.5060 N   0  0  0  0  0  1  0  0  0  0  0  0
  189.7920  178.0850  139.6910 N   0  0  2  0  0  0  0  0  0  0  0  0
  187.9680  178.1520  141.3920 C   0  0  1  0  0  3  0  0  0  0  0  0
  191.6380  176.1140  138.1530 C   0  0  1  0  0  3  0  0  0  0  0  0
  189.2950  176.9680  143.1600 C   0  0  0  0  0  0  0  0  0  0  0  0
  190.7350  177.3450  140.5280 C   0  0  2  0  0  3  0  0  0  0  0  0
  191.3580  177.7930  144.1410 C   0  0  0  0  0  3  0  0  0  0  0  0
  189.1560  176.7080  137.9010 C   0  0  0  0  0  2  0  0  0  0  0  0
  189.7870  176.5530  145.4990 C   0  0  0  0  0  3  0  0  0  0  0  0
  188.9440  176.4120  144.3930 C   0  0  0  0  0  3  0  0  0  0  0  0
  190.5340  177.6390  143.0220 C   0  0  0  0  0  0  0  0  0  0  0  0
  183.7970  179.0130  141.9330 C   0  0  0  0  0  3  0  0  0  0  0  0
  186.5180  178.4480  141.5930 C   0  0  0  0  0  0  0  0  0  0  0  0
  185.7320  178.8050  140.4930 C   0  0  0  0  0  3  0  0  0  0  0  0
  184.3730  179.0880  140.6620 C   0  0  0  0  0  3  0  0  0  0  0  0
  184.5780  178.6570  143.0360 C   0  0  0  0  0  3  0  0  0  0  0  0
  185.9370  178.3740  142.8680 C   0  0  0  0  0  3  0  0  0  0  0  0
  193.5090  175.0950  136.8810 C   0  0  0  0  0  1  0  0  0  0  0  0
  191.3010  173.9650  136.9840 C   0  0  0  0  0  1  0  0  0  0  0  0
  192.2860  174.8340  137.7390 C   0  0  0  0  0  3  0  0  0  0  0  0
  1 12  1  0  0  0  0
  2 10  1  0  0  0  0
  3 18  1  0  0  0  0
  4 15  1  0  0  0  0
  4 11  1  0  0  0  0
  5  9  1  0  0  0  0
  5  2  1  0  0  0  0
  6 13  1  0  0  0  0
  7 16  1  0  0  0  0
  7  8  1  0  0  0  0
  9  2  1  0  0  0  0
  9 13  1  0  0  0  0
 10 20  1  0  0  0  0
 10  1  1  0  0  0  0
 11  6  1  0  0  0  0
 12 17  1  0  0  0  0
 13  3  1  0  0  0  0
 14  7  2  0  0  0  0
 15  5  1  0  0  0  0
 17 16  2  0  0  0  0
 18 12  2  0  0  0  0
 18 14  1  0  0  0  0
 19 23  1  0  0  0  0
 20 24  1  0  0  0  0
 21 22  1  0  0  0  0
 21 20  2  0  0  0  0
 22 19  2  0  0  0  0
 24 23  2  0  0  0  0
 25 27  1  0  0  0  0
 26 27  1  0  0  0  0
 27 11  1  0  0  0  0
M  END
>  <MODEL>
5

>  <REMARK>
 VINA RESULT:      -7.3      3.093      6.710
  Name = 
  2 active torsions:
  status: ('A' for Active; 'I' for Inactive)
    1  A    between atoms: C_9  and  C_15
    2  A    between atoms: C_16  and  C_17
                            x       y       z     vdW  Elec       q    Type
                         _______ _______ _______ _____ _____    ______ ____

>  <TORSDO>
F 2

$$$$
=
 OpenBabel11052413473D

 27 31  0  0  1  0  0  0  0  0999 V2000
  188.2600  177.0860  140.3370 N   0  0  0  0  0  2  0  0  0  0  0  0
  187.2050  178.8010  141.8700 C   0  0  2  0  0  3  0  0  0  0  0  0
  186.8470  179.0160  138.6230 N   0  0  0  0  0  2  0  0  0  0  0  0
  183.7870  178.2580  141.6320 C   0  0  0  0  0  2  0  0  0  0  0  0
  186.0150  177.9790  141.7610 C   0  0  2  0  0  3  0  0  0  0  0  0
  184.1640  179.0520  139.0950 S   0  0  0  0  0  0  0  0  0  0  0  0
  189.0940  177.3160  136.2000 C   0  0  0  0  0  0  0  0  0  0  0  0
  189.4320  177.4160  134.8220 N   0  0  0  0  0  1  0  0  0  0  0  0
  186.1490  179.1960  140.9140 N   0  0  2  0  0  0  0  0  0  0  0  0
  188.4610  178.2880  141.1420 C   0  0  1  0  0  3  0  0  0  0  0  0
  183.2020  178.3150  140.4690 C   0  0  1  0  0  3  0  0  0  0  0  0
  188.4440  177.1260  138.9200 C   0  0  0  0  0  0  0  0  0  0  0  0
  185.8820  178.5730  139.6180 C   0  0  2  0  0  3  0  0  0  0  0  0
  188.2090  178.2340  136.7700 C   0  0  0  0  0  3  0  0  0  0  0  0
  184.7470  178.2040  142.5130 C   0  0  0  0  0  2  0  0  0  0  0  0
  189.6250  176.2830  136.9760 C   0  0  0  0  0  3  0  0  0  0  0  0
  189.3040  176.1940  138.3330 C   0  0  0  0  0  3  0  0  0  0  0  0
  187.8620  178.1410  138.1220 C   0  0  0  0  0  0  0  0  0  0  0  0
  191.6800  177.7280  143.9280 C   0  0  0  0  0  3  0  0  0  0  0  0
  189.5880  178.0870  142.1020 C   0  0  0  0  0  0  0  0  0  0  0  0
  189.4320  178.4820  143.4340 C   0  0  0  0  0  3  0  0  0  0  0  0
  190.4760  178.3040  144.3470 C   0  0  0  0  0  3  0  0  0  0  0  0
  191.8400  177.3310  142.5980 C   0  0  0  0  0  3  0  0  0  0  0  0
  190.7970  177.5100  141.6850 C   0  0  0  0  0  3  0  0  0  0  0  0
  182.4530  176.1700  139.4710 C   0  0  0  0  0  1  0  0  0  0  0  0
  180.9860  178.1710  139.3870 C   0  0  0  0  0  1  0  0  0  0  0  0
  182.0290  177.4310  140.2000 C   0  0  0  0  0  3  0  0  0  0  0  0
  1 10  1  0  0  0  0
  3 13  1  0  0  0  0
  4 15  1  0  0  0  0
  5  2  1  0  0  0  0
  5 15  1  0  0  0  0
  6 13  1  0  0  0  0
  6 11  1  0  0  0  0
  7 14  2  0  0  0  0
  7 16  1  0  0  0  0
  8  7  1  0  0  0  0
  9  5  1  0  0  0  0
  9  2  1  0  0  0  0
 10  2  1  0  0  0  0
 10 20  1  0  0  0  0
 11  4  1  0  0  0  0
 12  1  1  0  0  0  0
 13  9  1  0  0  0  0
 14 18  1  0  0  0  0
 16 17  2  0  0  0  0
 17 12  1  0  0  0  0
 18  3  1  0  0  0  0
 18 12  2  0  0  0  0
 19 22  1  0  0  0  0
 20 21  1  0  0  0  0
 21 22  2  0  0  0  0
 23 19  2  0  0  0  0
 24 20  2  0  0  0  0
 24 23  1  0  0  0  0
 25 27  1  0  0  0  0
 26 27  1  0  0  0  0
 27 11  1  0  0  0  0
M  END
>  <MODEL>
6

>  <REMARK>
 VINA RESULT:      -6.5      2.538      3.870
  Name = 
  2 active torsions:
  status: ('A' for Active; 'I' for Inactive)
    1  A    between atoms: C_9  and  C_15
    2  A    between atoms: C_16  and  C_17
                            x       y       z     vdW  Elec       q    Type
                         _______ _______ _______ _____ _____    ______ ____

>  <TORSDO>
F 2

$$$$
=
 OpenBabel11052413473D

 27 31  0  0  1  0  0  0  0  0999 V2000
  186.7570  178.8630  141.8360 N   0  0  0  0  0  2  0  0  0  0  0  0
  185.0900  177.8420  143.4430 C   0  0  2  0  0  3  0  0  0  0  0  0
  188.0200  176.4610  142.9720 N   0  0  0  0  0  2  0  0  0  0  0  0
  186.4590  178.3080  146.5960 C   0  0  0  0  0  2  0  0  0  0  0  0
  185.8090  178.5840  144.4610 C   0  0  2  0  0  3  0  0  0  0  0  0
  188.3450  176.6370  145.6710 S   0  0  0  0  0  0  0  0  0  0  0  0
  190.1400  177.1260  139.9920 C   0  0  0  0  0  0  0  0  0  0  0  0
  191.2410  176.5250  139.3230 N   0  0  0  0  0  1  0  0  0  0  0  0
  186.1070  177.1400  144.2540 N   0  0  2  0  0  0  0  0  0  0  0  0
  185.5630  178.0360  141.9910 C   0  0  1  0  0  3  0  0  0  0  0  0
  187.6450  177.8380  146.8630 C   0  0  1  0  0  3  0  0  0  0  0  0
  187.9580  178.3050  141.2980 C   0  0  0  0  0  0  0  0  0  0  0  0
  187.5570  177.2500  144.1030 C   0  0  2  0  0  3  0  0  0  0  0  0
  189.5620  176.4920  141.0950 C   0  0  0  0  0  3  0  0  0  0  0  0
  185.4180  178.6670  145.8980 C   0  0  0  0  0  2  0  0  0  0  0  0
  189.6540  178.3630  139.5640 C   0  0  0  0  0  3  0  0  0  0  0  0
  188.5620  178.9470  140.2130 C   0  0  0  0  0  3  0  0  0  0  0  0
  188.4840  177.0780  141.7670 C   0  0  0  0  0  0  0  0  0  0  0  0
  182.3530  179.5240  139.5580 C   0  0  0  0  0  3  0  0  0  0  0  0
  184.4550  178.5580  141.1360 C   0  0  0  0  0  0  0  0  0  0  0  0
  183.1360  178.4700  141.5930 C   0  0  0  0  0  3  0  0  0  0  0  0
  182.0860  178.9520  140.8050 C   0  0  0  0  0  3  0  0  0  0  0  0
  183.6690  179.6140  139.0970 C   0  0  0  0  0  3  0  0  0  0  0  0
  184.7200  179.1320  139.8830 C   0  0  0  0  0  3  0  0  0  0  0  0
  189.9760  178.1740  147.6450 C   0  0  0  0  0  1  0  0  0  0  0  0
  188.0830  178.3280  149.2440 C   0  0  0  0  0  1  0  0  0  0  0  0
  188.5250  178.5790  147.8160 C   0  0  0  0  0  3  0  0  0  0  0  0
  1 10  1  0  0  0  0
  2  9  1  0  0  0  0
  2  5  1  0  0  0  0
  3 13  1  0  0  0  0
  4 11  1  0  0  0  0
  5 15  1  0  0  0  0
  6 11  1  0  0  0  0
  7 14  1  0  0  0  0
  8  7  1  0  0  0  0
  9  5  1  0  0  0  0
 10  2  1  0  0  0  0
 11 27  1  0  0  0  0
 12 18  1  0  0  0  0
 12  1  1  0  0  0  0
 13  9  1  0  0  0  0
 13  6  1  0  0  0  0
 14 18  2  0  0  0  0
 15  4  1  0  0  0  0
 16  7  2  0  0  0  0
 16 17  1  0  0  0  0
 17 12  2  0  0  0  0
 18  3  1  0  0  0  0
 19 22  1  0  0  0  0
 20 21  1  0  0  0  0
 20 10  1  0  0  0  0
 22 21  2  0  0  0  0
 23 19  2  0  0  0  0
 23 24  1  0  0  0  0
 24 20  2  0  0  0  0
 25 27  1  0  0  0  0
 27 26  1  0  0  0  0
M  END
>  <MODEL>
7

>  <REMARK>
 VINA RESULT:      -6.4      1.839      6.180
  Name = 
  2 active torsions:
  status: ('A' for Active; 'I' for Inactive)
    1  A    between atoms: C_9  and  C_15
    2  A    between atoms: C_16  and  C_17
                            x       y       z     vdW  Elec       q    Type
                         _______ _______ _______ _____ _____    ______ ____

>  <TORSDO>
F 2

$$$$
=
 OpenBabel11052413473D

 27 31  0  0  1  0  0  0  0  0999 V2000
  185.9600  177.2750  138.3940 N   0  0  0  0  0  2  0  0  0  0  0  0
  187.9980  178.4020  139.3830 C   0  0  2  0  0  3  0  0  0  0  0  0
  185.0010  179.6090  139.9060 N   0  0  0  0  0  2  0  0  0  0  0  0
  187.7580  177.8830  142.8040 C   0  0  0  0  0  2  0  0  0  0  0  0
  187.6920  177.6280  140.5700 C   0  0  2  0  0  3  0  0  0  0  0  0
  185.5830  179.4360  142.5610 S   0  0  0  0  0  0  0  0  0  0  0  0
  182.0690  178.8010  137.7700 C   0  0  0  0  0  0  0  0  0  0  0  0
  180.7770  179.3330  137.5020 N   0  0  0  0  0  1  0  0  0  0  0  0
  187.2620  179.0510  140.4880 N   0  0  2  0  0  0  0  0  0  0  0  0
  187.0900  178.1700  138.1610 C   0  0  1  0  0  3  0  0  0  0  0  0
  186.6990  178.2860  143.4470 C   0  0  1  0  0  3  0  0  0  0  0  0
  184.6200  177.7590  138.2810 C   0  0  0  0  0  0  0  0  0  0  0  0
  185.8510  178.8570  140.8160 C   0  0  2  0  0  3  0  0  0  0  0  0
  182.9360  179.4750  138.6320 C   0  0  0  0  0  3  0  0  0  0  0  0
  188.5340  177.5790  141.8010 C   0  0  0  0  0  2  0  0  0  0  0  0
  182.4580  177.5900  137.1930 C   0  0  0  0  0  3  0  0  0  0  0  0
  183.7320  177.0750  137.4450 C   0  0  0  0  0  3  0  0  0  0  0  0
  184.2060  178.9570  138.9100 C   0  0  0  0  0  0  0  0  0  0  0  0
  189.3510  176.8400  134.7610 C   0  0  0  0  0  3  0  0  0  0  0  0
  187.8870  177.7050  136.9860 C   0  0  0  0  0  0  0  0  0  0  0  0
  187.3310  177.7850  135.7060 C   0  0  0  0  0  3  0  0  0  0  0  0
  188.0610  177.3520  134.5940 C   0  0  0  0  0  3  0  0  0  0  0  0
  189.9110  176.7590  136.0390 C   0  0  0  0  0  3  0  0  0  0  0  0
  189.1820  177.1900  137.1510 C   0  0  0  0  0  3  0  0  0  0  0  0
  185.1330  178.2510  145.3720 C   0  0  0  0  0  1  0  0  0  0  0  0
  187.3750  177.2020  145.5610 C   0  0  0  0  0  1  0  0  0  0  0  0
  186.2210  177.5030  144.6260 C   0  0  0  0  0  3  0  0  0  0  0  0
  2  9  1  0  0  0  0
  2  5  1  0  0  0  0
  3 13  1  0  0  0  0
  4 11  1  0  0  0  0
  5 15  1  0  0  0  0
  6 11  1  0  0  0  0
  7 14  1  0  0  0  0
  8  7  1  0  0  0  0
  9  5  1  0  0  0  0
  9 13  1  0  0  0  0
 10  1  1  0  0  0  0
 10  2  1  0  0  0  0
 11 27  1  0  0  0  0
 12  1  1  0  0  0  0
 12 18  1  0  0  0  0
 13  6  1  0  0  0  0
 14 18  2  0  0  0  0
 15  4  1  0  0  0  0
 16 17  1  0  0  0  0
 16  7  2  0  0  0  0
 17 12  2  0  0  0  0
 18  3  1  0  0  0  0
 19 23  1  0  0  0  0
 20 24  1  0  0  0  0
 20 10  1  0  0  0  0
 21 20  2  0  0  0  0
 22 19  2  0  0  0  0
 22 21  1  0  0  0  0
 23 24  2  0  0  0  0
 27 25  1  0  0  0  0
 27 26  1  0  0  0  0
M  END
>  <MODEL>
8

>  <REMARK>
 VINA RESULT:      -6.2      3.302      7.736
  Name = 
  2 active torsions:
  status: ('A' for Active; 'I' for Inactive)
    1  A    between atoms: C_9  and  C_15
    2  A    between atoms: C_16  and  C_17
                            x       y       z     vdW  Elec       q    Type
                         _______ _______ _______ _____ _____    ______ ____

>  <TORSDO>
F 2

$$$$
=
 OpenBabel11052413473D

 27 31  0  0  1  0  0  0  0  0999 V2000
  183.4600  178.6070  139.4340 N   0  0  0  0  0  2  0  0  0  0  0  0
  181.5480  178.1940  137.8300 C   0  0  2  0  0  3  0  0  0  0  0  0
  180.9770  179.2420  140.8780 N   0  0  0  0  0  2  0  0  0  0  0  0
  180.2530  181.3340  137.1250 C   0  0  0  0  0  2  0  0  0  0  0  0
  181.6380  179.6150  137.5560 C   0  0  2  0  0  3  0  0  0  0  0  0
  179.6060  181.2960  139.7300 S   0  0  0  0  0  0  0  0  0  0  0  0
  183.4310  178.9060  143.6500 C   0  0  0  0  0  0  0  0  0  0  0  0
  183.4310  178.9440  145.0710 N   0  0  0  0  0  1  0  0  0  0  0  0
  180.6100  179.1130  138.5090 N   0  0  2  0  0  0  0  0  0  0  0  0
  182.5830  177.6180  138.8130 C   0  0  1  0  0  3  0  0  0  0  0  0
  179.8330  182.0940  138.0970 C   0  0  1  0  0  3  0  0  0  0  0  0
  183.4310  178.8120  140.8480 C   0  0  0  0  0  0  0  0  0  0  0  0
  180.9270  179.9930  139.6330 C   0  0  2  0  0  3  0  0  0  0  0  0
  182.2270  179.0140  142.9490 C   0  0  0  0  0  3  0  0  0  0  0  0
  180.8440  180.3400  136.5220 C   0  0  0  0  0  2  0  0  0  0  0  0
  184.6360  178.7880  142.9540 C   0  0  0  0  0  3  0  0  0  0  0  0
  184.6330  178.7360  141.5580 C   0  0  0  0  0  3  0  0  0  0  0  0
  182.2140  178.9870  141.5500 C   0  0  0  0  0  0  0  0  0  0  0  0
  184.9280  174.5490  136.9360 C   0  0  0  0  0  3  0  0  0  0  0  0
  183.3910  176.5410  138.1650 C   0  0  0  0  0  0  0  0  0  0  0  0
  184.5730  176.8780  137.4990 C   0  0  0  0  0  3  0  0  0  0  0  0
  185.3410  175.8840  136.8840 C   0  0  0  0  0  3  0  0  0  0  0  0
  183.7470  174.2080  137.6010 C   0  0  0  0  0  3  0  0  0  0  0  0
  182.9780  175.2010  138.2150 C   0  0  0  0  0  3  0  0  0  0  0  0
  178.9310  184.1480  137.0380 C   0  0  0  0  0  1  0  0  0  0  0  0
  181.3630  183.9330  137.4840 C   0  0  0  0  0  1  0  0  0  0  0  0
  179.9760  183.5760  137.9760 C   0  0  0  0  0  3  0  0  0  0  0  0
  1 12  1  0  0  0  0
  2  9  1  0  0  0  0
  2 10  1  0  0  0  0
  3 18  1  0  0  0  0
  4 11  1  0  0  0  0
  5  2  1  0  0  0  0
  5  9  1  0  0  0  0
  7  8  1  0  0  0  0
  9 13  1  0  0  0  0
 10  1  1  0  0  0  0
 11  6  1  0  0  0  0
 12 18  2  0  0  0  0
 12 17  1  0  0  0  0
 13  6  1  0  0  0  0
 13  3  1  0  0  0  0
 14  7  2  0  0  0  0
 15  4  1  0  0  0  0
 15  5  1  0  0  0  0
 16  7  1  0  0  0  0
 17 16  2  0  0  0  0
 18 14  1  0  0  0  0
 19 23  1  0  0  0  0
 20 24  1  0  0  0  0
 20 10  1  0  0  0  0
 21 20  2  0  0  0  0
 22 19  2  0  0  0  0
 22 21  1  0  0  0  0
 23 24  2  0  0  0  0
 25 27  1  0  0  0  0
 26 27  1  0  0  0  0
 27 11  1  0  0  0  0
M  END
>  <MODEL>
9

>  <REMARK>
 VINA RESULT:      -6.1      4.170      7.753
  Name = 
  2 active torsions:
  status: ('A' for Active; 'I' for Inactive)
    1  A    between atoms: C_9  and  C_15
    2  A    between atoms: C_16  and  C_17
                            x       y       z     vdW  Elec       q    Type
                         _______ _______ _______ _____ _____    ______ ____

>  <TORSDO>
F 2

$$$$
