=
 OpenBabel11052416153D

 43 48  0  0  1  0  0  0  0  0999 V2000
  191.1540  177.8410  139.3680 N   0  0  0  0  0  0  0  0  0  0  0  0
  189.9250  177.4600  139.2160 C   0  0  0  0  0  0  0  0  0  0  0  0
  191.9880  177.2540  140.4120 C   0  0  0  0  0  2  0  0  0  0  0  0
  189.3540  176.4330  140.1540 C   0  0  0  0  0  2  0  0  0  0  0  0
  189.1290  178.0600  138.1960 N   0  0  0  0  0  2  0  0  0  0  0  0
  189.7580  176.7550  141.6070 C   0  0  1  0  0  3  0  0  0  0  0  0
  191.2250  177.2370  141.7400 C   0  0  0  0  0  2  0  0  0  0  0  0
  187.2200  178.5200  136.8010 C   0  0  0  0  0  2  0  0  0  0  0  0
  187.8340  177.2070  136.3480 C   0  0  1  0  0  3  0  0  0  0  0  0
  187.8100  177.5770  137.8210 C   0  0  1  0  0  3  0  0  0  0  0  0
  186.7820  176.2430  136.0120 N   0  0  0  0  0  0  0  0  0  0  0  0
  186.9970  174.8270  136.1690 C   0  0  0  0  0  0  0  0  0  0  0  0
  188.0800  172.8340  135.4430 C   0  0  0  0  0  3  0  0  0  0  0  0
  186.5490  172.7330  137.2960 C   0  0  0  0  0  3  0  0  0  0  0  0
  187.4370  172.0920  136.4340 C   0  0  0  0  0  3  0  0  0  0  0  0
  186.3270  174.1040  137.1660 C   0  0  0  0  0  3  0  0  0  0  0  0
  187.8450  174.1700  135.3300 N   0  0  0  0  0  0  0  0  0  0  0  0
  185.4730  176.8030  134.9480 S   0  0  0  0  0  0  0  0  0  0  0  0
  184.1840  176.5990  136.2160 C   0  0  0  0  0  0  0  0  0  0  0  0
  183.2190  175.4520  136.0450 C   0  0  0  0  0  2  0  0  0  0  0  0
  184.4380  176.9850  137.5290 O   0  0  0  0  0  1  0  0  0  0  0  0
  182.7740  176.8830  135.7650 C   0  0  0  0  0  2  0  0  0  0  0  0
  188.7830  177.7810  142.2010 C   0  0  2  0  0  3  0  0  0  0  0  0
  188.3810  177.3900  146.4700 C   0  0  0  0  0  0  0  0  0  0  0  0
  189.5390  178.3190  144.5450 C   0  0  0  0  0  0  0  0  0  0  0  0
  187.4990  176.7190  145.6230 C   0  0  0  0  0  3  0  0  0  0  0  0
  188.2440  177.2760  147.8480 O   0  0  0  0  0  1  0  0  0  0  0  0
  188.6400  177.6510  143.6940 C   0  0  0  0  0  0  0  0  0  0  0  0
  189.3980  178.1830  145.9350 C   0  0  0  0  0  3  0  0  0  0  0  0
  187.6280  176.8450  144.2380 C   0  0  0  0  0  3  0  0  0  0  0  0
  191.9210  178.9730  144.3640 C   0  0  0  0  0  1  0  0  0  0  0  0
  190.5580  179.1070  143.9930 O   0  0  0  0  0  0  0  0  0  0  0  0
  187.5300  177.6680  141.5900 O   0  0  0  0  0  0  0  0  0  0  0  0
  187.1150  178.9840  141.3690 C   0  0  0  0  0  2  0  0  0  0  0  0
  185.8010  178.9880  140.6060 C   0  0  0  0  0  2  0  0  0  0  0  0
  183.7530  179.0770  143.7930 C   0  0  0  0  0  3  0  0  0  0  0  0
  182.4600  178.8350  143.3040 C   0  0  0  0  0  0  0  0  0  0  0  0
  183.3560  178.6880  141.0550 C   0  0  0  0  0  3  0  0  0  0  0  0
  184.8410  179.1270  142.9150 C   0  0  0  0  0  3  0  0  0  0  0  0
  184.6410  178.9380  141.5420 C   0  0  0  0  0  0  0  0  0  0  0  0
  182.2700  178.6400  141.9330 C   0  0  0  0  0  3  0  0  0  0  0  0
  180.1060  178.3380  143.8000 C   0  0  0  0  0  2  0  0  0  0  0  0
  181.2900  178.7860  144.1940 C   0  0  0  0  0  3  0  0  0  0  0  0
  1  3  1  0  0  0  0
  2  1  2  0  0  0  0
  2  4  1  0  0  0  0
  3  7  1  0  0  0  0
  4  6  1  0  0  0  0
  5  2  1  0  0  0  0
  6  7  1  0  0  0  0
  6 23  1  6  0  0  0
  8 10  1  0  0  0  0
  9 11  1  1  0  0  0
  9  8  1  0  0  0  0
  9 10  1  0  0  0  0
 10  5  1  6  0  0  0
 11 12  1  0  0  0  0
 12 16  1  0  0  0  0
 13 15  2  0  0  0  0
 15 14  1  0  0  0  0
 16 14  2  0  0  0  0
 17 13  1  0  0  0  0
 17 12  2  0  0  0  0
 18 11  1  0  0  0  0
 18 19  1  0  0  0  0
 19 21  1  0  0  0  0
 20 19  1  0  0  0  0
 22 20  1  0  0  0  0
 22 19  1  0  0  0  0
 23 33  1  6  0  0  0
 23 28  1  0  0  0  0
 24 27  1  0  0  0  0
 25 29  2  0  0  0  0
 26 24  2  0  0  0  0
 28 30  2  0  0  0  0
 28 25  1  0  0  0  0
 29 24  1  0  0  0  0
 30 26  1  0  0  0  0
 32 31  1  0  0  0  0
 32 25  1  0  0  0  0
 34 33  1  0  0  0  0
 35 34  1  0  0  0  0
 35 40  1  0  0  0  0
 37 36  1  0  0  0  0
 37 43  1  0  0  0  0
 38 40  2  0  0  0  0
 38 41  1  0  0  0  0
 39 36  2  0  0  0  0
 40 39  1  0  0  0  0
 41 37  2  0  0  0  0
 42 43  2  0  0  0  0
M  END
>  <MODEL>
1

>  <REMARK>
 VINA RESULT:      -7.0      0.000      0.000
  Name = 
  13 active torsions:
  status: ('A' for Active; 'I' for Inactive)
    1  A    between atoms: C_1  and  C_8
    2  A    between atoms: C_1  and  C_35
    3  A    between atoms: C_4  and  N_14
    4  A    between atoms: C_8  and  O_34
    5  A    between atoms: C_10  and  S_41
    6  A    between atoms: C_11  and  N_14
    7  A    between atoms: C_12  and  N_17
    8  A    between atoms: N_14  and  S_41
    9  A    between atoms: C_16  and  O_43
   10  A    between atoms: C_19  and  C_37
   11  A    between atoms: C_21  and  C_30
   12  A    between atoms: C_27  and  C_30
   13  A    between atoms: C_30  and  O_34
                            x       y       z     vdW  Elec       q    Type
                         _______ _______ _______ _____ _____    ______ ____

>  <TORSDO>
F 13

$$$$
=
 OpenBabel11052416153D

 43 48  0  0  1  0  0  0  0  0999 V2000
  183.9770  180.4640  139.0400 N   0  0  0  0  0  0  0  0  0  0  0  0
  184.3700  179.3580  139.5900 C   0  0  0  0  0  0  0  0  0  0  0  0
  182.5580  180.7110  138.8040 C   0  0  0  0  0  2  0  0  0  0  0  0
  183.3490  178.3130  139.9460 C   0  0  0  0  0  2  0  0  0  0  0  0
  185.7640  179.1370  139.7960 N   0  0  0  0  0  2  0  0  0  0  0  0
  182.3370  178.1410  138.7970 C   0  0  1  0  0  3  0  0  0  0  0  0
  181.9180  179.4850  138.1470 C   0  0  0  0  0  2  0  0  0  0  0  0
  187.7940  177.9960  140.4100 C   0  0  0  0  0  2  0  0  0  0  0  0
  187.1800  178.5820  141.6680 C   0  0  1  0  0  3  0  0  0  0  0  0
  186.2930  178.0250  140.5670 C   0  0  1  0  0  3  0  0  0  0  0  0
  187.3150  177.6430  142.7850 N   0  0  0  0  0  0  0  0  0  0  0  0
  186.6600  177.8890  144.0440 C   0  0  0  0  0  0  0  0  0  0  0  0
  184.8330  178.8350  145.2440 C   0  0  0  0  0  3  0  0  0  0  0  0
  186.5700  177.6930  146.4550 C   0  0  0  0  0  3  0  0  0  0  0  0
  185.3630  178.3890  146.4550 C   0  0  0  0  0  3  0  0  0  0  0  0
  187.2220  177.4400  145.2470 C   0  0  0  0  0  3  0  0  0  0  0  0
  185.4880  178.5810  144.0780 N   0  0  0  0  0  0  0  0  0  0  0  0
  188.6790  176.5050  142.7310 S   0  0  0  0  0  0  0  0  0  0  0  0
  189.8940  177.7370  143.2930 C   0  0  0  0  0  0  0  0  0  0  0  0
  191.3490  177.3370  143.2700 C   0  0  0  0  0  2  0  0  0  0  0  0
  189.6370  179.0930  143.1120 O   0  0  0  0  0  1  0  0  0  0  0  0
  190.5920  177.4220  144.5900 C   0  0  0  0  0  2  0  0  0  0  0  0
  182.9020  177.1730  137.7480 C   0  0  2  0  0  3  0  0  0  0  0  0
  179.9420  174.3960  136.3100 C   0  0  0  0  0  0  0  0  0  0  0  0
  181.3800  176.3200  135.9290 C   0  0  0  0  0  0  0  0  0  0  0  0
  180.4240  174.2880  137.6150 C   0  0  0  0  0  3  0  0  0  0  0  0
  178.9980  173.4920  135.8400 O   0  0  0  0  0  1  0  0  0  0  0  0
  181.8720  176.1990  137.2410 C   0  0  0  0  0  0  0  0  0  0  0  0
  180.4140  175.4090  135.4720 C   0  0  0  0  0  3  0  0  0  0  0  0
  181.3840  175.1870  138.0820 C   0  0  0  0  0  3  0  0  0  0  0  0
  181.0270  178.3760  134.5940 C   0  0  0  0  0  1  0  0  0  0  0  0
  181.8590  177.3440  135.1020 O   0  0  0  0  0  0  0  0  0  0  0  0
  183.9980  176.4800  138.2720 O   0  0  0  0  0  0  0  0  0  0  0  0
  184.7770  176.1420  137.1610 C   0  0  0  0  0  2  0  0  0  0  0  0
  185.5170  177.3710  136.6610 C   0  0  0  0  0  2  0  0  0  0  0  0
  189.2070  178.2010  136.9080 C   0  0  0  0  0  3  0  0  0  0  0  0
  189.7540  176.9540  137.2510 C   0  0  0  0  0  0  0  0  0  0  0  0
  187.5310  175.9840  137.2000 C   0  0  0  0  0  3  0  0  0  0  0  0
  187.8270  178.3370  136.7170 C   0  0  0  0  0  3  0  0  0  0  0  0
  186.9870  177.2280  136.8690 C   0  0  0  0  0  0  0  0  0  0  0  0
  188.9080  175.8500  137.3930 C   0  0  0  0  0  3  0  0  0  0  0  0
  191.6860  176.0340  138.4560 C   0  0  0  0  0  2  0  0  0  0  0  0
  191.1960  176.7740  137.4700 C   0  0  0  0  0  3  0  0  0  0  0  0
  1  2  2  0  0  0  0
  2  5  1  0  0  0  0
  2  4  1  0  0  0  0
  3  1  1  0  0  0  0
  6 23  1  6  0  0  0
  6  4  1  0  0  0  0
  7  6  1  0  0  0  0
  7  3  1  0  0  0  0
  8 10  1  0  0  0  0
  8  9  1  0  0  0  0
  9 11  1  1  0  0  0
 10  5  1  6  0  0  0
 10  9  1  0  0  0  0
 11 12  1  0  0  0  0
 12 17  2  0  0  0  0
 12 16  1  0  0  0  0
 13 15  2  0  0  0  0
 14 15  1  0  0  0  0
 16 14  2  0  0  0  0
 17 13  1  0  0  0  0
 18 11  1  0  0  0  0
 18 19  1  0  0  0  0
 19 22  1  0  0  0  0
 20 19  1  0  0  0  0
 20 22  1  0  0  0  0
 21 19  1  0  0  0  0
 23 33  1  1  0  0  0
 24 26  1  0  0  0  0
 25 28  2  0  0  0  0
 26 30  2  0  0  0  0
 27 24  1  0  0  0  0
 28 23  1  0  0  0  0
 28 30  1  0  0  0  0
 29 25  1  0  0  0  0
 29 24  2  0  0  0  0
 31 32  1  0  0  0  0
 32 25  1  0  0  0  0
 34 33  1  0  0  0  0
 35 40  1  0  0  0  0
 35 34  1  0  0  0  0
 36 37  1  0  0  0  0
 37 41  2  0  0  0  0
 37 43  1  0  0  0  0
 38 41  1  0  0  0  0
 39 40  1  0  0  0  0
 39 36  2  0  0  0  0
 40 38  2  0  0  0  0
 43 42  2  0  0  0  0
M  END
>  <MODEL>
2

>  <REMARK>
 VINA RESULT:      -6.8      3.032      9.506
  Name = 
  13 active torsions:
  status: ('A' for Active; 'I' for Inactive)
    1  A    between atoms: C_1  and  C_8
    2  A    between atoms: C_1  and  C_35
    3  A    between atoms: C_4  and  N_14
    4  A    between atoms: C_8  and  O_34
    5  A    between atoms: C_10  and  S_41
    6  A    between atoms: C_11  and  N_14
    7  A    between atoms: C_12  and  N_17
    8  A    between atoms: N_14  and  S_41
    9  A    between atoms: C_16  and  O_43
   10  A    between atoms: C_19  and  C_37
   11  A    between atoms: C_21  and  C_30
   12  A    between atoms: C_27  and  C_30
   13  A    between atoms: C_30  and  O_34
                            x       y       z     vdW  Elec       q    Type
                         _______ _______ _______ _____ _____    ______ ____

>  <TORSDO>
F 13

$$$$
=
 OpenBabel11052416153D

 43 48  0  0  1  0  0  0  0  0999 V2000
  184.0880  180.0780  139.2030 N   0  0  0  0  0  0  0  0  0  0  0  0
  184.5970  178.9900  139.6900 C   0  0  0  0  0  0  0  0  0  0  0  0
  182.7160  180.0970  138.7060 C   0  0  0  0  0  2  0  0  0  0  0  0
  183.7700  177.7350  139.7000 C   0  0  0  0  0  2  0  0  0  0  0  0
  185.9450  178.9970  140.1570 N   0  0  0  0  0  2  0  0  0  0  0  0
  183.0430  177.5630  138.3520 C   0  0  1  0  0  3  0  0  0  0  0  0
  182.4770  178.8930  137.7900 C   0  0  0  0  0  2  0  0  0  0  0  0
  188.0320  177.8890  140.6230 C   0  0  0  0  0  2  0  0  0  0  0  0
  187.4980  178.4630  141.9240 C   0  0  1  0  0  3  0  0  0  0  0  0
  186.5460  177.8920  140.8860 C   0  0  1  0  0  3  0  0  0  0  0  0
  187.7270  177.5250  143.0250 N   0  0  0  0  0  0  0  0  0  0  0  0
  187.1970  177.7810  144.3400 C   0  0  0  0  0  0  0  0  0  0  0  0
  187.4340  177.6160  146.7040 C   0  0  0  0  0  3  0  0  0  0  0  0
  185.4620  178.6470  145.7890 C   0  0  0  0  0  3  0  0  0  0  0  0
  186.2080  178.2530  146.8980 C   0  0  0  0  0  3  0  0  0  0  0  0
  185.9560  178.4120  144.5050 C   0  0  0  0  0  3  0  0  0  0  0  0
  187.8940  177.3930  145.4440 N   0  0  0  0  0  0  0  0  0  0  0  0
  189.0660  176.3700  142.8470 S   0  0  0  0  0  0  0  0  0  0  0  0
  190.3530  177.6520  142.9520 C   0  0  0  0  0  0  0  0  0  0  0  0
  191.3770  177.6990  141.8450 C   0  0  0  0  0  2  0  0  0  0  0  0
  190.0680  178.8690  143.5650 O   0  0  0  0  0  1  0  0  0  0  0  0
  191.7500  177.1540  143.2180 C   0  0  0  0  0  2  0  0  0  0  0  0
  183.9790  176.8890  137.3390 C   0  0  2  0  0  3  0  0  0  0  0  0
  183.3190  172.6440  137.0520 C   0  0  0  0  0  0  0  0  0  0  0  0
  182.5330  174.9210  136.7170 C   0  0  0  0  0  0  0  0  0  0  0  0
  184.5180  173.1300  137.5740 C   0  0  0  0  0  3  0  0  0  0  0  0
  183.1110  171.2750  136.9460 O   0  0  0  0  0  1  0  0  0  0  0  0
  183.7490  175.4070  137.2310 C   0  0  0  0  0  0  0  0  0  0  0  0
  182.3300  173.5340  136.6290 C   0  0  0  0  0  3  0  0  0  0  0  0
  184.7330  174.5060  137.6670 C   0  0  0  0  0  3  0  0  0  0  0  0
  180.1610  175.5270  136.3440 C   0  0  0  0  0  1  0  0  0  0  0  0
  181.5480  175.8260  136.3010 O   0  0  0  0  0  0  0  0  0  0  0  0
  185.3140  177.1430  137.6720 O   0  0  0  0  0  0  0  0  0  0  0  0
  185.8390  177.8210  136.5680 C   0  0  0  0  0  2  0  0  0  0  0  0
  186.7450  176.8930  135.7780 C   0  0  0  0  0  2  0  0  0  0  0  0
  189.7560  175.2380  137.3780 C   0  0  0  0  0  3  0  0  0  0  0  0
  190.5030  176.3520  137.7930 C   0  0  0  0  0  0  0  0  0  0  0  0
  188.7890  177.8140  136.8950 C   0  0  0  0  0  3  0  0  0  0  0  0
  188.5330  175.4140  136.7210 C   0  0  0  0  0  3  0  0  0  0  0  0
  188.0510  176.7050  136.4750 C   0  0  0  0  0  0  0  0  0  0  0  0
  190.0100  177.6370  137.5490 C   0  0  0  0  0  3  0  0  0  0  0  0
  192.9580  176.2770  137.8380 C   0  0  0  0  0  2  0  0  0  0  0  0
  191.7970  176.2080  138.4750 C   0  0  0  0  0  3  0  0  0  0  0  0
  1  2  2  0  0  0  0
  2  4  1  0  0  0  0
  2  5  1  0  0  0  0
  3  1  1  0  0  0  0
  6 23  1  6  0  0  0
  6  4  1  0  0  0  0
  7  6  1  0  0  0  0
  7  3  1  0  0  0  0
  8 10  1  0  0  0  0
  8  9  1  0  0  0  0
  9 11  1  1  0  0  0
 10  5  1  6  0  0  0
 10  9  1  0  0  0  0
 11 12  1  0  0  0  0
 12 16  2  0  0  0  0
 12 17  1  0  0  0  0
 13 15  1  0  0  0  0
 14 15  2  0  0  0  0
 16 14  1  0  0  0  0
 17 13  2  0  0  0  0
 18 19  1  0  0  0  0
 18 11  1  0  0  0  0
 19 22  1  0  0  0  0
 19 21  1  0  0  0  0
 20 19  1  0  0  0  0
 20 22  1  0  0  0  0
 23 33  1  1  0  0  0
 24 26  1  0  0  0  0
 25 28  2  0  0  0  0
 26 30  2  0  0  0  0
 27 24  1  0  0  0  0
 28 23  1  0  0  0  0
 28 30  1  0  0  0  0
 29 25  1  0  0  0  0
 29 24  2  0  0  0  0
 32 31  1  0  0  0  0
 32 25  1  0  0  0  0
 34 33  1  0  0  0  0
 35 40  1  0  0  0  0
 35 34  1  0  0  0  0
 36 37  1  0  0  0  0
 37 43  1  0  0  0  0
 38 41  1  0  0  0  0
 39 36  2  0  0  0  0
 40 39  1  0  0  0  0
 40 38  2  0  0  0  0
 41 37  2  0  0  0  0
 42 43  2  0  0  0  0
M  END
>  <MODEL>
3

>  <REMARK>
 VINA RESULT:      -6.8      3.032      9.300
  Name = 
  13 active torsions:
  status: ('A' for Active; 'I' for Inactive)
    1  A    between atoms: C_1  and  C_8
    2  A    between atoms: C_1  and  C_35
    3  A    between atoms: C_4  and  N_14
    4  A    between atoms: C_8  and  O_34
    5  A    between atoms: C_10  and  S_41
    6  A    between atoms: C_11  and  N_14
    7  A    between atoms: C_12  and  N_17
    8  A    between atoms: N_14  and  S_41
    9  A    between atoms: C_16  and  O_43
   10  A    between atoms: C_19  and  C_37
   11  A    between atoms: C_21  and  C_30
   12  A    between atoms: C_27  and  C_30
   13  A    between atoms: C_30  and  O_34
                            x       y       z     vdW  Elec       q    Type
                         _______ _______ _______ _____ _____    ______ ____

>  <TORSDO>
F 13

$$$$
=
 OpenBabel11052416153D

 43 48  0  0  1  0  0  0  0  0999 V2000
  184.9160  179.8600  143.5670 N   0  0  0  0  0  0  0  0  0  0  0  0
  185.4970  178.9080  142.9070 C   0  0  0  0  0  0  0  0  0  0  0  0
  183.5410  179.7070  144.0340 C   0  0  0  0  0  2  0  0  0  0  0  0
  184.7240  177.6570  142.5930 C   0  0  0  0  0  2  0  0  0  0  0  0
  186.8360  179.0900  142.4510 N   0  0  0  0  0  2  0  0  0  0  0  0
  183.3070  178.0130  142.1030 C   0  0  1  0  0  3  0  0  0  0  0  0
  182.6610  179.1770  142.8980 C   0  0  0  0  0  2  0  0  0  0  0  0
  188.2700  178.5300  140.5990 C   0  0  0  0  0  2  0  0  0  0  0  0
  189.0920  178.4610  141.8730 C   0  0  1  0  0  3  0  0  0  0  0  0
  187.6370  178.0240  141.8720 C   0  0  1  0  0  3  0  0  0  0  0  0
  190.0040  177.3150  141.8280 N   0  0  0  0  0  0  0  0  0  0  0  0
  190.7760  177.0280  140.6460 C   0  0  0  0  0  0  0  0  0  0  0  0
  190.9340  175.9660  138.5210 C   0  0  0  0  0  3  0  0  0  0  0  0
  192.8120  177.2170  139.3530 C   0  0  0  0  0  3  0  0  0  0  0  0
  192.2330  176.4450  138.3480 C   0  0  0  0  0  3  0  0  0  0  0  0
  192.0840  177.5120  140.5060 C   0  0  0  0  0  3  0  0  0  0  0  0
  190.2430  176.2610  139.6550 N   0  0  0  0  0  0  0  0  0  0  0  0
  189.7540  176.0280  143.0280 S   0  0  0  0  0  0  0  0  0  0  0  0
  190.2770  177.0590  144.4320 C   0  0  0  0  0  0  0  0  0  0  0  0
  191.5820  177.8060  144.2960 C   0  0  0  0  0  2  0  0  0  0  0  0
  189.3190  177.6590  145.2440 O   0  0  0  0  0  1  0  0  0  0  0  0
  191.4880  176.5710  145.1850 C   0  0  0  0  0  2  0  0  0  0  0  0
  183.3390  178.3220  140.6000 C   0  0  2  0  0  3  0  0  0  0  0  0
  180.0020  176.6000  138.4940 C   0  0  0  0  0  0  0  0  0  0  0  0
  181.1790  178.5590  139.3240 C   0  0  0  0  0  0  0  0  0  0  0  0
  180.9860  175.7730  139.0360 C   0  0  0  0  0  3  0  0  0  0  0  0
  178.9320  176.0460  137.8020 O   0  0  0  0  0  1  0  0  0  0  0  0
  182.1760  177.7230  139.8580 C   0  0  0  0  0  0  0  0  0  0  0  0
  180.0950  177.9850  138.6400 C   0  0  0  0  0  3  0  0  0  0  0  0
  182.0690  176.3300  139.7180 C   0  0  0  0  0  3  0  0  0  0  0  0
  180.1780  180.7670  139.8350 C   0  0  0  0  0  1  0  0  0  0  0  0
  181.2830  179.9470  139.4830 O   0  0  0  0  0  0  0  0  0  0  0  0
  184.5420  177.8770  140.0410 O   0  0  0  0  0  0  0  0  0  0  0  0
  184.7620  178.7140  138.9430 C   0  0  0  0  0  2  0  0  0  0  0  0
  185.4910  177.9490  137.8520 C   0  0  0  0  0  2  0  0  0  0  0  0
  182.5940  176.6170  135.8020 C   0  0  0  0  0  3  0  0  0  0  0  0
  182.8250  175.2330  135.8540 C   0  0  0  0  0  0  0  0  0  0  0  0
  184.7930  175.6290  137.2150 C   0  0  0  0  0  3  0  0  0  0  0  0
  183.4620  177.5010  136.4520 C   0  0  0  0  0  3  0  0  0  0  0  0
  184.5670  177.0070  137.1550 C   0  0  0  0  0  0  0  0  0  0  0  0
  183.9260  174.7470  136.5650 C   0  0  0  0  0  3  0  0  0  0  0  0
  180.7750  173.8920  135.6750 C   0  0  0  0  0  2  0  0  0  0  0  0
  181.9420  174.2730  135.1750 C   0  0  0  0  0  3  0  0  0  0  0  0
  1  3  1  0  0  0  0
  2  1  2  0  0  0  0
  4  2  1  0  0  0  0
  5  2  1  0  0  0  0
  6 23  1  6  0  0  0
  6  4  1  0  0  0  0
  6  7  1  0  0  0  0
  7  3  1  0  0  0  0
  8 10  1  0  0  0  0
  8  9  1  0  0  0  0
  9 11  1  6  0  0  0
 10  9  1  0  0  0  0
 10  5  1  1  0  0  0
 11 18  1  0  0  0  0
 12 11  1  0  0  0  0
 13 17  1  0  0  0  0
 14 16  2  0  0  0  0
 15 13  2  0  0  0  0
 15 14  1  0  0  0  0
 16 12  1  0  0  0  0
 17 12  2  0  0  0  0
 18 19  1  0  0  0  0
 19 22  1  0  0  0  0
 19 21  1  0  0  0  0
 20 19  1  0  0  0  0
 20 22  1  0  0  0  0
 23 33  1  6  0  0  0
 24 29  2  0  0  0  0
 24 26  1  0  0  0  0
 25 32  1  0  0  0  0
 25 28  2  0  0  0  0
 26 30  2  0  0  0  0
 27 24  1  0  0  0  0
 28 23  1  0  0  0  0
 29 25  1  0  0  0  0
 30 28  1  0  0  0  0
 32 31  1  0  0  0  0
 34 33  1  0  0  0  0
 35 34  1  0  0  0  0
 36 37  2  0  0  0  0
 36 39  1  0  0  0  0
 37 41  1  0  0  0  0
 39 40  2  0  0  0  0
 40 38  1  0  0  0  0
 40 35  1  0  0  0  0
 41 38  2  0  0  0  0
 43 42  2  0  0  0  0
 43 37  1  0  0  0  0
M  END
>  <MODEL>
4

>  <REMARK>
 VINA RESULT:      -6.7      2.948      8.174
  Name = 
  13 active torsions:
  status: ('A' for Active; 'I' for Inactive)
    1  A    between atoms: C_1  and  C_8
    2  A    between atoms: C_1  and  C_35
    3  A    between atoms: C_4  and  N_14
    4  A    between atoms: C_8  and  O_34
    5  A    between atoms: C_10  and  S_41
    6  A    between atoms: C_11  and  N_14
    7  A    between atoms: C_12  and  N_17
    8  A    between atoms: N_14  and  S_41
    9  A    between atoms: C_16  and  O_43
   10  A    between atoms: C_19  and  C_37
   11  A    between atoms: C_21  and  C_30
   12  A    between atoms: C_27  and  C_30
   13  A    between atoms: C_30  and  O_34
                            x       y       z     vdW  Elec       q    Type
                         _______ _______ _______ _____ _____    ______ ____

>  <TORSDO>
F 13

$$$$
=
 OpenBabel11052416153D

 43 48  0  0  1  0  0  0  0  0999 V2000
  183.6130  180.1100  139.0560 N   0  0  0  0  0  0  0  0  0  0  0  0
  184.2440  179.0920  139.5500 C   0  0  0  0  0  0  0  0  0  0  0  0
  182.2310  179.9780  138.6030 C   0  0  0  0  0  2  0  0  0  0  0  0
  183.5500  177.7600  139.6150 C   0  0  0  0  0  2  0  0  0  0  0  0
  185.5980  179.2470  139.9730 N   0  0  0  0  0  2  0  0  0  0  0  0
  182.8040  177.4820  138.2950 C   0  0  1  0  0  3  0  0  0  0  0  0
  182.0890  178.7330  137.7220 C   0  0  0  0  0  2  0  0  0  0  0  0
  187.7990  178.3640  140.3900 C   0  0  0  0  0  2  0  0  0  0  0  0
  187.2550  178.9190  141.6940 C   0  0  1  0  0  3  0  0  0  0  0  0
  186.3290  178.2280  140.7070 C   0  0  1  0  0  3  0  0  0  0  0  0
  187.6130  178.0400  142.8100 N   0  0  0  0  0  0  0  0  0  0  0  0
  188.9650  177.5690  142.9780 C   0  0  0  0  0  0  0  0  0  0  0  0
  191.2650  178.0590  143.3500 C   0  0  0  0  0  3  0  0  0  0  0  0
  190.5790  175.7690  143.0770 C   0  0  0  0  0  3  0  0  0  0  0  0
  191.5890  176.7020  143.3040 C   0  0  0  0  0  3  0  0  0  0  0  0
  189.2620  176.2000  142.9140 C   0  0  0  0  0  3  0  0  0  0  0  0
  189.9750  178.4580  143.1840 N   0  0  0  0  0  0  0  0  0  0  0  0
  186.2910  177.1700  143.6200 S   0  0  0  0  0  0  0  0  0  0  0  0
  186.3670  178.1940  145.1220 C   0  0  0  0  0  0  0  0  0  0  0  0
  187.6040  178.0770  145.9790 C   0  0  0  0  0  2  0  0  0  0  0  0
  185.7270  179.4300  145.1490 O   0  0  0  0  0  1  0  0  0  0  0  0
  186.2910  177.4450  146.4270 C   0  0  0  0  0  2  0  0  0  0  0  0
  183.7730  176.8800  137.2680 C   0  0  2  0  0  3  0  0  0  0  0  0
  183.4530  172.5940  137.0100 C   0  0  0  0  0  0  0  0  0  0  0  0
  182.5540  174.8020  136.5290 C   0  0  0  0  0  0  0  0  0  0  0  0
  184.5440  173.1740  137.6580 C   0  0  0  0  0  3  0  0  0  0  0  0
  183.3550  171.2120  136.9150 O   0  0  0  0  0  1  0  0  0  0  0  0
  183.6630  175.3830  137.1710 C   0  0  0  0  0  0  0  0  0  0  0  0
  182.4610  173.4030  136.4520 C   0  0  0  0  0  3  0  0  0  0  0  0
  184.6490  174.5640  137.7420 C   0  0  0  0  0  3  0  0  0  0  0  0
  180.1960  175.5340  136.3410 C   0  0  0  0  0  1  0  0  0  0  0  0
  181.5650  175.6260  135.9770 O   0  0  0  0  0  0  0  0  0  0  0  0
  185.0890  177.2430  137.5750 O   0  0  0  0  0  0  0  0  0  0  0  0
  185.5690  177.8720  136.4230 C   0  0  0  0  0  2  0  0  0  0  0  0
  186.5410  176.9540  135.7030 C   0  0  0  0  0  2  0  0  0  0  0  0
  189.3790  175.4480  137.7140 C   0  0  0  0  0  3  0  0  0  0  0  0
  190.2000  176.5680  137.9240 C   0  0  0  0  0  0  0  0  0  0  0  0
  188.6250  177.9350  136.6880 C   0  0  0  0  0  3  0  0  0  0  0  0
  188.1880  175.5740  136.9910 C   0  0  0  0  0  3  0  0  0  0  0  0
  187.8130  176.8190  136.4720 C   0  0  0  0  0  0  0  0  0  0  0  0
  189.8140  177.8080  137.4090 C   0  0  0  0  0  3  0  0  0  0  0  0
  191.7170  177.1990  139.7510 C   0  0  0  0  0  2  0  0  0  0  0  0
  191.4640  176.4740  138.6700 C   0  0  0  0  0  3  0  0  0  0  0  0
  1  2  2  0  0  0  0
  2  4  1  0  0  0  0
  2  5  1  0  0  0  0
  3  1  1  0  0  0  0
  6 23  1  6  0  0  0
  6  4  1  0  0  0  0
  7  6  1  0  0  0  0
  7  3  1  0  0  0  0
  8 10  1  0  0  0  0
  8  9  1  0  0  0  0
  9 11  1  1  0  0  0
 10  5  1  6  0  0  0
 10  9  1  0  0  0  0
 11 12  1  0  0  0  0
 11 18  1  0  0  0  0
 12 17  1  0  0  0  0
 14 15  2  0  0  0  0
 15 13  1  0  0  0  0
 16 12  2  0  0  0  0
 16 14  1  0  0  0  0
 17 13  2  0  0  0  0
 18 19  1  0  0  0  0
 19 21  1  0  0  0  0
 19 20  1  0  0  0  0
 19 22  1  0  0  0  0
 20 22  1  0  0  0  0
 23 33  1  1  0  0  0
 24 26  1  0  0  0  0
 25 28  2  0  0  0  0
 26 30  2  0  0  0  0
 27 24  1  0  0  0  0
 28 23  1  0  0  0  0
 28 30  1  0  0  0  0
 29 25  1  0  0  0  0
 29 24  2  0  0  0  0
 32 31  1  0  0  0  0
 32 25  1  0  0  0  0
 34 33  1  0  0  0  0
 35 34  1  0  0  0  0
 35 40  1  0  0  0  0
 36 37  1  0  0  0  0
 37 43  1  0  0  0  0
 38 41  1  0  0  0  0
 39 36  2  0  0  0  0
 40 38  2  0  0  0  0
 40 39  1  0  0  0  0
 41 37  2  0  0  0  0
 43 42  2  0  0  0  0
M  END
>  <MODEL>
5

>  <REMARK>
 VINA RESULT:      -6.7      3.157      8.951
  Name = 
  13 active torsions:
  status: ('A' for Active; 'I' for Inactive)
    1  A    between atoms: C_1  and  C_8
    2  A    between atoms: C_1  and  C_35
    3  A    between atoms: C_4  and  N_14
    4  A    between atoms: C_8  and  O_34
    5  A    between atoms: C_10  and  S_41
    6  A    between atoms: C_11  and  N_14
    7  A    between atoms: C_12  and  N_17
    8  A    between atoms: N_14  and  S_41
    9  A    between atoms: C_16  and  O_43
   10  A    between atoms: C_19  and  C_37
   11  A    between atoms: C_21  and  C_30
   12  A    between atoms: C_27  and  C_30
   13  A    between atoms: C_30  and  O_34
                            x       y       z     vdW  Elec       q    Type
                         _______ _______ _______ _____ _____    ______ ____

>  <TORSDO>
F 13

$$$$
=
 OpenBabel11052416153D

 43 48  0  0  1  0  0  0  0  0999 V2000
  188.9220  177.2370  136.0540 N   0  0  0  0  0  0  0  0  0  0  0  0
  188.0020  176.7950  136.8540 C   0  0  0  0  0  0  0  0  0  0  0  0
  190.3000  176.7700  136.1800 C   0  0  0  0  0  2  0  0  0  0  0  0
  188.3770  175.8260  137.9390 C   0  0  0  0  0  2  0  0  0  0  0  0
  186.6670  177.2790  136.7170 N   0  0  0  0  0  2  0  0  0  0  0  0
  189.6760  176.2780  138.6340 C   0  0  1  0  0  3  0  0  0  0  0  0
  190.7370  176.8280  137.6470 C   0  0  0  0  0  2  0  0  0  0  0  0
  184.6220  177.8400  137.8590 C   0  0  0  0  0  2  0  0  0  0  0  0
  184.2710  177.0090  136.6370 C   0  0  1  0  0  3  0  0  0  0  0  0
  185.5330  176.7150  137.4310 C   0  0  1  0  0  3  0  0  0  0  0  0
  183.1970  176.0650  136.9560 N   0  0  0  0  0  0  0  0  0  0  0  0
  183.3790  174.6470  136.7770 C   0  0  0  0  0  0  0  0  0  0  0  0
  182.7080  172.6210  135.7200 C   0  0  0  0  0  3  0  0  0  0  0  0
  184.5220  172.5790  137.3000 C   0  0  0  0  0  3  0  0  0  0  0  0
  183.6920  171.9070  136.4040 C   0  0  0  0  0  3  0  0  0  0  0  0
  184.3670  173.9530  137.4880 C   0  0  0  0  0  3  0  0  0  0  0  0
  182.5720  173.9600  135.9220 N   0  0  0  0  0  0  0  0  0  0  0  0
  181.5460  176.7150  137.0640 S   0  0  0  0  0  0  0  0  0  0  0  0
  181.3150  176.1890  138.7900 C   0  0  0  0  0  0  0  0  0  0  0  0
  180.7140  174.8250  139.0250 C   0  0  0  0  0  2  0  0  0  0  0  0
  182.1900  176.6420  139.7740 O   0  0  0  0  0  1  0  0  0  0  0  0
  179.8850  176.0840  139.2540 C   0  0  0  0  0  2  0  0  0  0  0  0
  189.3500  177.3090  139.7240 C   0  0  2  0  0  3  0  0  0  0  0  0
  191.1420  176.3240  143.5130 C   0  0  0  0  0  0  0  0  0  0  0  0
  191.3320  177.2660  141.2800 C   0  0  0  0  0  0  0  0  0  0  0  0
  189.8000  176.0220  143.2770 C   0  0  0  0  0  3  0  0  0  0  0  0
  191.7170  176.0190  144.7400 O   0  0  0  0  0  1  0  0  0  0  0  0
  189.9760  176.9710  141.0500 C   0  0  0  0  0  0  0  0  0  0  0  0
  191.9060  176.9390  142.5190 C   0  0  0  0  0  3  0  0  0  0  0  0
  189.2180  176.3410  142.0490 C   0  0  0  0  0  3  0  0  0  0  0  0
  193.4200  177.4950  139.9660 C   0  0  0  0  0  1  0  0  0  0  0  0
  192.0880  177.8780  140.2710 O   0  0  0  0  0  0  0  0  0  0  0  0
  187.9640  177.4360  139.8690 O   0  0  0  0  0  0  0  0  0  0  0  0
  187.7840  178.6150  140.5980 C   0  0  0  0  0  2  0  0  0  0  0  0
  186.3040  178.8360  140.8600 C   0  0  0  0  0  2  0  0  0  0  0  0
  184.6240  179.2430  144.2330 C   0  0  0  0  0  3  0  0  0  0  0  0
  185.4150  178.4140  145.0440 C   0  0  0  0  0  0  0  0  0  0  0  0
  186.7860  177.8680  143.1200 C   0  0  0  0  0  3  0  0  0  0  0  0
  184.9130  179.3810  142.8710 C   0  0  0  0  0  3  0  0  0  0  0  0
  185.9930  178.6870  142.3120 C   0  0  0  0  0  0  0  0  0  0  0  0
  186.4960  177.7310  144.4790 C   0  0  0  0  0  3  0  0  0  0  0  0
  185.9030  178.7530  147.4280 C   0  0  0  0  0  2  0  0  0  0  0  0
  185.1370  178.2360  146.4770 C   0  0  0  0  0  3  0  0  0  0  0  0
  1  3  1  0  0  0  0
  1  2  2  0  0  0  0
  2  4  1  0  0  0  0
  3  7  1  0  0  0  0
  4  6  1  0  0  0  0
  5  2  1  0  0  0  0
  6 23  1  1  0  0  0
  7  6  1  0  0  0  0
  9 11  1  1  0  0  0
  9 10  1  0  0  0  0
  9  8  1  0  0  0  0
 10  5  1  6  0  0  0
 10  8  1  0  0  0  0
 11 18  1  0  0  0  0
 12 11  1  0  0  0  0
 12 16  1  0  0  0  0
 13 17  1  0  0  0  0
 13 15  2  0  0  0  0
 14 16  2  0  0  0  0
 15 14  1  0  0  0  0
 17 12  2  0  0  0  0
 18 19  1  0  0  0  0
 19 20  1  0  0  0  0
 19 22  1  0  0  0  0
 19 21  1  0  0  0  0
 20 22  1  0  0  0  0
 23 33  1  1  0  0  0
 23 28  1  0  0  0  0
 24 27  1  0  0  0  0
 25 29  1  0  0  0  0
 26 24  1  0  0  0  0
 28 25  2  0  0  0  0
 28 30  1  0  0  0  0
 29 24  2  0  0  0  0
 30 26  2  0  0  0  0
 31 32  1  0  0  0  0
 32 25  1  0  0  0  0
 33 34  1  0  0  0  0
 34 35  1  0  0  0  0
 35 40  1  0  0  0  0
 36 37  1  0  0  0  0
 37 43  1  0  0  0  0
 38 41  1  0  0  0  0
 39 36  2  0  0  0  0
 40 39  1  0  0  0  0
 40 38  2  0  0  0  0
 41 37  2  0  0  0  0
 43 42  2  0  0  0  0
M  END
>  <MODEL>
6

>  <REMARK>
 VINA RESULT:      -6.7      2.440      3.688
  Name = 
  13 active torsions:
  status: ('A' for Active; 'I' for Inactive)
    1  A    between atoms: C_1  and  C_8
    2  A    between atoms: C_1  and  C_35
    3  A    between atoms: C_4  and  N_14
    4  A    between atoms: C_8  and  O_34
    5  A    between atoms: C_10  and  S_41
    6  A    between atoms: C_11  and  N_14
    7  A    between atoms: C_12  and  N_17
    8  A    between atoms: N_14  and  S_41
    9  A    between atoms: C_16  and  O_43
   10  A    between atoms: C_19  and  C_37
   11  A    between atoms: C_21  and  C_30
   12  A    between atoms: C_27  and  C_30
   13  A    between atoms: C_30  and  O_34
                            x       y       z     vdW  Elec       q    Type
                         _______ _______ _______ _____ _____    ______ ____

>  <TORSDO>
F 13

$$$$
=
 OpenBabel11052416153D

 43 48  0  0  1  0  0  0  0  0999 V2000
  183.9690  180.5070  139.0780 N   0  0  0  0  0  0  0  0  0  0  0  0
  184.3470  179.4010  139.6380 C   0  0  0  0  0  0  0  0  0  0  0  0
  182.5670  180.7230  138.7340 C   0  0  0  0  0  2  0  0  0  0  0  0
  183.3300  178.3230  139.8930 C   0  0  0  0  0  2  0  0  0  0  0  0
  185.7250  179.2110  139.9520 N   0  0  0  0  0  2  0  0  0  0  0  0
  182.4170  178.1490  138.6620 C   0  0  1  0  0  3  0  0  0  0  0  0
  182.0150  179.4940  138.0050 C   0  0  0  0  0  2  0  0  0  0  0  0
  187.7280  178.0730  140.6550 C   0  0  0  0  0  2  0  0  0  0  0  0
  187.0550  178.6530  141.8860 C   0  0  1  0  0  3  0  0  0  0  0  0
  186.2210  178.0980  140.7430 C   0  0  1  0  0  3  0  0  0  0  0  0
  187.1410  177.7110  143.0040 N   0  0  0  0  0  0  0  0  0  0  0  0
  186.4230  177.9480  144.2310 C   0  0  0  0  0  0  0  0  0  0  0  0
  186.2180  177.5930  146.5770 C   0  0  0  0  0  3  0  0  0  0  0  0
  184.5790  178.9410  145.4430 C   0  0  0  0  0  3  0  0  0  0  0  0
  185.0640  178.3760  146.6210 C   0  0  0  0  0  3  0  0  0  0  0  0
  185.2580  178.7280  144.2430 C   0  0  0  0  0  3  0  0  0  0  0  0
  186.8630  177.3950  145.3950 N   0  0  0  0  0  0  0  0  0  0  0  0
  188.5130  176.5820  143.0140 S   0  0  0  0  0  0  0  0  0  0  0  0
  189.6650  177.7890  143.7390 C   0  0  0  0  0  0  0  0  0  0  0  0
  190.4330  178.6730  142.7880 C   0  0  0  0  0  2  0  0  0  0  0  0
  189.3950  178.3380  144.9900 O   0  0  0  0  0  1  0  0  0  0  0  0
  191.1290  177.5190  143.5020 C   0  0  0  0  0  2  0  0  0  0  0  0
  183.0900  177.2160  137.6460 C   0  0  2  0  0  3  0  0  0  0  0  0
  180.4230  174.1640  136.1950 C   0  0  0  0  0  0  0  0  0  0  0  0
  181.5620  176.2880  135.8700 C   0  0  0  0  0  0  0  0  0  0  0  0
  181.0110  174.0350  137.4530 C   0  0  0  0  0  3  0  0  0  0  0  0
  179.5720  173.1730  135.7200 O   0  0  0  0  0  1  0  0  0  0  0  0
  182.1630  176.1470  137.1340 C   0  0  0  0  0  0  0  0  0  0  0  0
  180.6920  175.2860  135.4080 C   0  0  0  0  0  3  0  0  0  0  0  0
  181.8760  175.0240  137.9240 C   0  0  0  0  0  3  0  0  0  0  0  0
  180.8230  178.2780  134.5940 C   0  0  0  0  0  1  0  0  0  0  0  0
  181.8380  177.4210  135.0940 O   0  0  0  0  0  0  0  0  0  0  0  0
  184.2300  176.6310  138.2070 O   0  0  0  0  0  0  0  0  0  0  0  0
  185.1860  176.6490  137.1880 C   0  0  0  0  0  2  0  0  0  0  0  0
  186.0070  175.3720  137.2300 C   0  0  0  0  0  2  0  0  0  0  0  0
  184.2710  172.0080  137.0650 C   0  0  0  0  0  3  0  0  0  0  0  0
  183.7340  172.0310  135.7680 C   0  0  0  0  0  0  0  0  0  0  0  0
  184.6890  174.2340  135.4300 C   0  0  0  0  0  3  0  0  0  0  0  0
  185.0110  173.0960  137.5410 C   0  0  0  0  0  3  0  0  0  0  0  0
  185.2160  174.2140  136.7240 C   0  0  0  0  0  0  0  0  0  0  0  0
  183.9500  173.1480  134.9560 C   0  0  0  0  0  3  0  0  0  0  0  0
  181.7330  170.6080  135.6860 C   0  0  0  0  0  2  0  0  0  0  0  0
  182.9420  170.9120  135.2360 C   0  0  0  0  0  3  0  0  0  0  0  0
  1  2  2  0  0  0  0
  2  4  1  0  0  0  0
  2  5  1  0  0  0  0
  3  1  1  0  0  0  0
  6 23  1  6  0  0  0
  6  4  1  0  0  0  0
  7  6  1  0  0  0  0
  7  3  1  0  0  0  0
  8 10  1  0  0  0  0
  8  9  1  0  0  0  0
  9 11  1  1  0  0  0
 10  5  1  6  0  0  0
 10  9  1  0  0  0  0
 11 18  1  0  0  0  0
 11 12  1  0  0  0  0
 12 16  2  0  0  0  0
 12 17  1  0  0  0  0
 13 15  1  0  0  0  0
 14 15  2  0  0  0  0
 16 14  1  0  0  0  0
 17 13  2  0  0  0  0
 18 19  1  0  0  0  0
 19 21  1  0  0  0  0
 20 22  1  0  0  0  0
 20 19  1  0  0  0  0
 22 19  1  0  0  0  0
 23 33  1  1  0  0  0
 24 26  1  0  0  0  0
 25 28  2  0  0  0  0
 26 30  2  0  0  0  0
 27 24  1  0  0  0  0
 28 23  1  0  0  0  0
 28 30  1  0  0  0  0
 29 25  1  0  0  0  0
 29 24  2  0  0  0  0
 31 32  1  0  0  0  0
 32 25  1  0  0  0  0
 34 35  1  0  0  0  0
 34 33  1  0  0  0  0
 36 39  1  0  0  0  0
 37 36  2  0  0  0  0
 38 40  1  0  0  0  0
 40 35  1  0  0  0  0
 40 39  2  0  0  0  0
 41 38  2  0  0  0  0
 41 37  1  0  0  0  0
 43 42  2  0  0  0  0
 43 37  1  0  0  0  0
M  END
>  <MODEL>
7

>  <REMARK>
 VINA RESULT:      -6.6      3.261      9.577
  Name = 
  13 active torsions:
  status: ('A' for Active; 'I' for Inactive)
    1  A    between atoms: C_1  and  C_8
    2  A    between atoms: C_1  and  C_35
    3  A    between atoms: C_4  and  N_14
    4  A    between atoms: C_8  and  O_34
    5  A    between atoms: C_10  and  S_41
    6  A    between atoms: C_11  and  N_14
    7  A    between atoms: C_12  and  N_17
    8  A    between atoms: N_14  and  S_41
    9  A    between atoms: C_16  and  O_43
   10  A    between atoms: C_19  and  C_37
   11  A    between atoms: C_21  and  C_30
   12  A    between atoms: C_27  and  C_30
   13  A    between atoms: C_30  and  O_34
                            x       y       z     vdW  Elec       q    Type
                         _______ _______ _______ _____ _____    ______ ____

>  <TORSDO>
F 13

$$$$
=
 OpenBabel11052416153D

 43 48  0  0  1  0  0  0  0  0999 V2000
  185.9030  176.7060  136.6600 N   0  0  0  0  0  0  0  0  0  0  0  0
  186.5780  177.3330  137.5710 C   0  0  0  0  0  0  0  0  0  0  0  0
  184.6970  177.3000  136.0900 C   0  0  0  0  0  2  0  0  0  0  0  0
  186.0820  178.6630  138.0660 C   0  0  0  0  0  2  0  0  0  0  0  0
  187.7450  176.7230  138.1200 N   0  0  0  0  0  2  0  0  0  0  0  0
  184.5600  178.6100  138.3080 C   0  0  1  0  0  3  0  0  0  0  0  0
  183.7950  177.8240  137.2120 C   0  0  0  0  0  2  0  0  0  0  0  0
  188.1320  177.3570  140.4110 C   0  0  0  0  0  2  0  0  0  0  0  0
  189.2380  176.4070  139.9870 C   0  0  1  0  0  3  0  0  0  0  0  0
  188.6700  177.4150  139.0020 C   0  0  1  0  0  3  0  0  0  0  0  0
  190.5240  176.8480  140.5350 N   0  0  0  0  0  0  0  0  0  0  0  0
  190.7000  177.0380  141.9520 C   0  0  0  0  0  0  0  0  0  0  0  0
  191.2870  178.4700  143.7620 C   0  0  0  0  0  3  0  0  0  0  0  0
  190.6540  176.1940  144.2200 C   0  0  0  0  0  3  0  0  0  0  0  0
  191.0570  177.4460  144.6820 C   0  0  0  0  0  3  0  0  0  0  0  0
  190.4740  175.9870  142.8520 C   0  0  0  0  0  3  0  0  0  0  0  0
  191.1100  178.2450  142.4320 N   0  0  0  0  0  0  0  0  0  0  0  0
  191.6640  177.6240  139.4140 S   0  0  0  0  0  0  0  0  0  0  0  0
  191.7360  176.1920  138.2940 C   0  0  0  0  0  0  0  0  0  0  0  0
  192.8360  176.1740  137.2610 C   0  0  0  0  0  2  0  0  0  0  0  0
  191.3020  174.9460  138.7370 O   0  0  0  0  0  1  0  0  0  0  0  0
  191.3970  176.4730  136.8530 C   0  0  0  0  0  2  0  0  0  0  0  0
  184.2770  178.0320  139.7020 C   0  0  2  0  0  3  0  0  0  0  0  0
  180.2880  176.4580  140.0910 C   0  0  0  0  0  0  0  0  0  0  0  0
  181.7900  178.3650  139.9460 C   0  0  0  0  0  0  0  0  0  0  0  0
  181.3740  175.5880  139.9900 C   0  0  0  0  0  3  0  0  0  0  0  0
  179.0000  175.9510  140.2030 O   0  0  0  0  0  1  0  0  0  0  0  0
  182.8810  177.4840  139.8310 C   0  0  0  0  0  0  0  0  0  0  0  0
  180.4940  177.8390  140.0730 C   0  0  0  0  0  3  0  0  0  0  0  0
  182.6680  176.0980  139.8630 C   0  0  0  0  0  3  0  0  0  0  0  0
  181.0960  180.6690  139.3610 C   0  0  0  0  0  1  0  0  0  0  0  0
  182.0130  179.7480  139.9310 O   0  0  0  0  0  0  0  0  0  0  0  0
  184.5010  179.0040  140.6820 O   0  0  0  0  0  0  0  0  0  0  0  0
  184.6690  178.2860  141.8700 C   0  0  0  0  0  2  0  0  0  0  0  0
  184.7450  179.2470  143.0450 C   0  0  0  0  0  2  0  0  0  0  0  0
  187.4910  177.3620  144.8520 C   0  0  0  0  0  3  0  0  0  0  0  0
  187.1760  177.6230  146.1950 C   0  0  0  0  0  0  0  0  0  0  0  0
  185.2710  178.9390  145.4740 C   0  0  0  0  0  3  0  0  0  0  0  0
  186.7000  177.8900  143.8260 C   0  0  0  0  0  3  0  0  0  0  0  0
  185.5910  178.6860  144.1380 C   0  0  0  0  0  0  0  0  0  0  0  0
  186.0620  178.4120  146.4970 C   0  0  0  0  0  3  0  0  0  0  0  0
  188.3040  177.8120  148.3690 C   0  0  0  0  0  2  0  0  0  0  0  0
  187.9890  177.0940  147.2990 C   0  0  0  0  0  3  0  0  0  0  0  0
  1  2  2  0  0  0  0
  2  4  1  0  0  0  0
  2  5  1  0  0  0  0
  3  1  1  0  0  0  0
  3  7  1  0  0  0  0
  4  6  1  0  0  0  0
  6 23  1  1  0  0  0
  7  6  1  0  0  0  0
  9  8  1  0  0  0  0
  9 11  1  1  0  0  0
 10  5  1  6  0  0  0
 10  9  1  0  0  0  0
 10  8  1  0  0  0  0
 11 12  1  0  0  0  0
 12 17  2  0  0  0  0
 12 16  1  0  0  0  0
 13 15  2  0  0  0  0
 14 15  1  0  0  0  0
 16 14  2  0  0  0  0
 17 13  1  0  0  0  0
 18 11  1  0  0  0  0
 19 21  1  0  0  0  0
 19 18  1  0  0  0  0
 20 19  1  0  0  0  0
 22 20  1  0  0  0  0
 22 19  1  0  0  0  0
 23 28  1  0  0  0  0
 23 33  1  1  0  0  0
 24 27  1  0  0  0  0
 25 29  2  0  0  0  0
 26 24  2  0  0  0  0
 28 30  2  0  0  0  0
 28 25  1  0  0  0  0
 29 24  1  0  0  0  0
 30 26  1  0  0  0  0
 31 32  1  0  0  0  0
 32 25  1  0  0  0  0
 33 34  1  0  0  0  0
 34 35  1  0  0  0  0
 35 40  1  0  0  0  0
 36 37  1  0  0  0  0
 37 41  2  0  0  0  0
 37 43  1  0  0  0  0
 38 41  1  0  0  0  0
 39 40  1  0  0  0  0
 39 36  2  0  0  0  0
 40 38  2  0  0  0  0
 43 42  2  0  0  0  0
M  END
>  <MODEL>
8

>  <REMARK>
 VINA RESULT:      -6.6      3.078      7.347
  Name = 
  13 active torsions:
  status: ('A' for Active; 'I' for Inactive)
    1  A    between atoms: C_1  and  C_8
    2  A    between atoms: C_1  and  C_35
    3  A    between atoms: C_4  and  N_14
    4  A    between atoms: C_8  and  O_34
    5  A    between atoms: C_10  and  S_41
    6  A    between atoms: C_11  and  N_14
    7  A    between atoms: C_12  and  N_17
    8  A    between atoms: N_14  and  S_41
    9  A    between atoms: C_16  and  O_43
   10  A    between atoms: C_19  and  C_37
   11  A    between atoms: C_21  and  C_30
   12  A    between atoms: C_27  and  C_30
   13  A    between atoms: C_30  and  O_34
                            x       y       z     vdW  Elec       q    Type
                         _______ _______ _______ _____ _____    ______ ____

>  <TORSDO>
F 13

$$$$
=
 OpenBabel11052416153D

 43 48  0  0  1  0  0  0  0  0999 V2000
  190.1260  178.4540  138.7400 N   0  0  0  0  0  0  0  0  0  0  0  0
  189.0220  177.8550  139.0630 C   0  0  0  0  0  0  0  0  0  0  0  0
  191.4140  177.8110  138.9790 C   0  0  0  0  0  2  0  0  0  0  0  0
  189.0850  176.5070  139.7250 C   0  0  0  0  0  2  0  0  0  0  0  0
  187.7770  178.5120  138.8300 N   0  0  0  0  0  2  0  0  0  0  0  0
  190.1700  176.5000  140.8200 C   0  0  1  0  0  3  0  0  0  0  0  0
  191.4610  177.2520  140.4050 C   0  0  0  0  0  2  0  0  0  0  0  0
  185.3990  178.8850  138.7680 C   0  0  0  0  0  2  0  0  0  0  0  0
  185.7590  177.9250  137.6480 C   0  0  1  0  0  3  0  0  0  0  0  0
  186.4870  177.8600  138.9800 C   0  0  1  0  0  3  0  0  0  0  0  0
  184.7430  176.8750  137.5330 N   0  0  0  0  0  0  0  0  0  0  0  0
  185.1190  175.4870  137.4300 C   0  0  0  0  0  0  0  0  0  0  0  0
  186.7900  173.8550  136.9660 C   0  0  0  0  0  3  0  0  0  0  0  0
  184.5740  173.1330  137.5640 C   0  0  0  0  0  3  0  0  0  0  0  0
  185.8870  172.8210  137.2150 C   0  0  0  0  0  3  0  0  0  0  0  0
  184.1870  174.4700  137.6730 C   0  0  0  0  0  3  0  0  0  0  0  0
  186.3900  175.1510  137.0740 N   0  0  0  0  0  0  0  0  0  0  0  0
  183.1170  177.3670  137.0110 S   0  0  0  0  0  0  0  0  0  0  0  0
  182.5240  177.6620  138.7050 C   0  0  0  0  0  0  0  0  0  0  0  0
  182.7790  176.5820  139.7270 C   0  0  0  0  0  2  0  0  0  0  0  0
  182.4650  178.9620  139.2010 O   0  0  0  0  0  1  0  0  0  0  0  0
  181.3800  176.7910  139.1570 C   0  0  0  0  0  2  0  0  0  0  0  0
  189.5950  177.0680  142.1250 C   0  0  2  0  0  3  0  0  0  0  0  0
  191.8010  175.7870  145.5930 C   0  0  0  0  0  0  0  0  0  0  0  0
  190.6330  177.5370  144.3730 C   0  0  0  0  0  0  0  0  0  0  0  0
  191.5390  174.8860  144.5620 C   0  0  0  0  0  3  0  0  0  0  0  0
  192.5000  175.3720  146.7190 O   0  0  0  0  0  1  0  0  0  0  0  0
  190.3600  176.6210  143.3410 C   0  0  0  0  0  0  0  0  0  0  0  0
  191.3540  177.1070  145.4990 C   0  0  0  0  0  3  0  0  0  0  0  0
  190.8230  175.3000  143.4370 C   0  0  0  0  0  3  0  0  0  0  0  0
  191.0190  179.9240  143.8380 C   0  0  0  0  0  1  0  0  0  0  0  0
  190.1830  178.8580  144.2620 O   0  0  0  0  0  0  0  0  0  0  0  0
  188.2470  176.7160  142.2520 O   0  0  0  0  0  0  0  0  0  0  0  0
  187.5810  177.9190  142.5020 C   0  0  0  0  0  2  0  0  0  0  0  0
  186.9270  177.8690  143.8720 C   0  0  0  0  0  2  0  0  0  0  0  0
  183.4880  178.6320  142.4740 C   0  0  0  0  0  3  0  0  0  0  0  0
  182.7860  178.9930  143.6350 C   0  0  0  0  0  0  0  0  0  0  0  0
  184.7940  178.6240  144.9440 C   0  0  0  0  0  3  0  0  0  0  0  0
  184.8370  178.2650  142.5510 C   0  0  0  0  0  3  0  0  0  0  0  0
  185.4890  178.2560  143.7900 C   0  0  0  0  0  0  0  0  0  0  0  0
  183.4470  178.9880  144.8660 C   0  0  0  0  0  3  0  0  0  0  0  0
  180.3830  178.4830  143.5760 C   0  0  0  0  0  2  0  0  0  0  0  0
  181.3660  179.3730  143.5950 C   0  0  0  0  0  3  0  0  0  0  0  0
  1  3  1  0  0  0  0
  1  2  2  0  0  0  0
  2  4  1  0  0  0  0
  3  7  1  0  0  0  0
  4  6  1  0  0  0  0
  5  2  1  0  0  0  0
  6 23  1  1  0  0  0
  7  6  1  0  0  0  0
  8 10  1  0  0  0  0
  9 11  1  1  0  0  0
  9  8  1  0  0  0  0
  9 10  1  0  0  0  0
 10  5  1  6  0  0  0
 12 11  1  0  0  0  0
 12 16  1  0  0  0  0
 13 17  1  0  0  0  0
 13 15  2  0  0  0  0
 14 16  2  0  0  0  0
 15 14  1  0  0  0  0
 17 12  2  0  0  0  0
 18 11  1  0  0  0  0
 18 19  1  0  0  0  0
 19 22  1  0  0  0  0
 19 21  1  0  0  0  0
 19 20  1  0  0  0  0
 22 20  1  0  0  0  0
 23 33  1  1  0  0  0
 23 28  1  0  0  0  0
 24 27  1  0  0  0  0
 25 29  2  0  0  0  0
 26 24  2  0  0  0  0
 28 30  2  0  0  0  0
 28 25  1  0  0  0  0
 29 24  1  0  0  0  0
 30 26  1  0  0  0  0
 31 32  1  0  0  0  0
 32 25  1  0  0  0  0
 33 34  1  0  0  0  0
 34 35  1  0  0  0  0
 36 39  2  0  0  0  0
 36 37  1  0  0  0  0
 37 41  2  0  0  0  0
 39 40  1  0  0  0  0
 40 35  1  0  0  0  0
 40 38  2  0  0  0  0
 41 38  1  0  0  0  0
 42 43  2  0  0  0  0
 43 37  1  0  0  0  0
M  END
>  <MODEL>
9

>  <REMARK>
 VINA RESULT:      -6.5      1.982      2.484
  Name = 
  13 active torsions:
  status: ('A' for Active; 'I' for Inactive)
    1  A    between atoms: C_1  and  C_8
    2  A    between atoms: C_1  and  C_35
    3  A    between atoms: C_4  and  N_14
    4  A    between atoms: C_8  and  O_34
    5  A    between atoms: C_10  and  S_41
    6  A    between atoms: C_11  and  N_14
    7  A    between atoms: C_12  and  N_17
    8  A    between atoms: N_14  and  S_41
    9  A    between atoms: C_16  and  O_43
   10  A    between atoms: C_19  and  C_37
   11  A    between atoms: C_21  and  C_30
   12  A    between atoms: C_27  and  C_30
   13  A    between atoms: C_30  and  O_34
                            x       y       z     vdW  Elec       q    Type
                         _______ _______ _______ _____ _____    ______ ____

>  <TORSDO>
F 13

$$$$
