=
 OpenBabel11052416463D

 32 36  0  0  0  0  0  0  0  0999 V2000
  183.1840  178.7660  144.7220 C   0  0  0  0  0  3  0  0  0  0  0  0
  187.9180  177.8420  142.5440 N   0  0  0  0  0  0  0  0  0  0  0  0
  190.5740  176.9280  146.6400 C   0  0  0  0  0  3  0  0  0  0  0  0
  191.7100  176.7250  145.8570 C   0  0  0  0  0  3  0  0  0  0  0  0
  189.0960  177.7370  140.3160 C   0  0  0  0  0  0  0  0  0  0  0  0
  190.2650  177.5250  139.5700 C   0  0  0  0  0  0  0  0  0  0  0  0
  185.5390  178.3800  142.6430 C   0  0  0  0  0  0  0  0  0  0  0  0
  186.8900  177.9150  144.7270 C   0  0  0  0  0  3  0  0  0  0  0  0
  184.5900  178.4260  144.9630 C   0  0  0  0  0  3  0  0  0  0  0  0
  189.3600  177.2520  146.0330 C   0  0  0  0  0  3  0  0  0  0  0  0
  187.9860  177.7190  143.9840 C   0  0  0  0  0  0  0  0  0  0  0  0
  189.2670  177.3760  144.6360 C   0  0  0  0  0  0  0  0  0  0  0  0
  190.3310  177.3010  142.3700 C   0  0  0  0  0  0  0  0  0  0  0  0
  183.1090  178.9670  142.2440 C   0  0  0  0  0  3  0  0  0  0  0  0
  185.6000  178.2560  144.1160 C   0  0  0  0  0  0  0  0  0  0  0  0
  190.2060  177.6410  138.1840 O   0  0  0  0  0  1  0  0  0  0  0  0
  184.3520  178.7120  141.8520 C   0  0  0  0  0  3  0  0  0  0  0  0
  182.5210  179.0020  143.5880 C   0  0  0  0  0  0  0  0  0  0  0  0
  191.6280  176.8470  144.4680 C   0  0  0  0  0  3  0  0  0  0  0  0
  190.4110  177.1730  143.8440 C   0  0  0  0  0  0  0  0  0  0  0  0
  191.4830  177.0940  141.6030 C   0  0  0  0  0  3  0  0  0  0  0  0
  186.6530  178.1770  141.9380 C   0  0  0  0  0  3  0  0  0  0  0  0
  187.9340  178.0560  139.6200 O   0  0  0  0  0  1  0  0  0  0  0  0
  189.1090  177.6290  141.7350 C   0  0  0  0  0  0  0  0  0  0  0  0
  191.4710  177.2000  140.2120 C   0  0  0  0  0  0  0  0  0  0  0  0
  180.3090  179.8730  142.5920 C   0  0  0  0  0  0  0  0  0  0  0  0
  181.1220  179.3200  143.6370 N   0  0  0  0  0  2  0  0  0  0  0  0
  178.9310  180.1190  142.8390 N   0  0  0  0  0  1  0  0  0  0  0  0
  180.7920  180.1450  141.4620 O   0  0  0  0  0  0  0  0  0  0  0  0
  192.7310  176.9670  139.4700 C   0  0  0  0  0  0  0  0  0  0  0  0
  192.7640  176.1440  138.3500 O   0  0  0  0  0  0  0  0  0  0  0  0
  193.8000  177.5160  139.8490 O   0  0  0  0  0  1  0  0  0  0  0  0
  1  9  1  0  0  0  0
  2 11  1  0  0  0  0
  4  3  2  0  0  0  0
  5 24  1  0  0  0  0
  6 25  1  0  0  0  0
  6  5  2  0  0  0  0
  7 15  1  0  0  0  0
 10  3  1  0  0  0  0
 11 12  1  0  0  0  0
 11  8  2  0  0  0  0
 12 10  2  0  0  0  0
 13 20  1  0  0  0  0
 14 18  1  0  0  0  0
 15  8  1  0  0  0  0
 15  9  2  0  0  0  0
 16  6  1  0  0  0  0
 17 14  2  0  0  0  0
 17  7  1  0  0  0  0
 18 27  1  0  0  0  0
 18  1  2  0  0  0  0
 19  4  1  0  0  0  0
 20 19  2  0  0  0  0
 20 12  1  0  0  0  0
 21 13  1  0  0  0  0
 22  2  1  0  0  0  0
 22  7  2  0  0  0  0
 23  5  1  0  0  0  0
 24 13  2  0  0  0  0
 24  2  1  0  0  0  0
 25 21  2  0  0  0  0
 26 28  1  0  0  0  0
 26 27  1  0  0  0  0
 29 26  2  0  0  0  0
 30 32  1  0  0  0  0
 30 25  1  0  0  0  0
 31 30  2  0  0  0  0
M  END
>  <MODEL>
1

>  <REMARK>
 VINA RESULT:     -11.8      0.000      0.000
  Name = 
  2 active torsions:
  status: ('A' for Active; 'I' for Inactive)
    1  A    between atoms: N_10  and  C_24
    2  A    between atoms: C_11  and  C_32
                            x       y       z     vdW  Elec       q    Type
                         _______ _______ _______ _____ _____    ______ ____

>  <TORSDO>
F 2

$$$$
=
 OpenBabel11052416463D

 32 36  0  0  0  0  0  0  0  0999 V2000
  192.0430  177.1660  141.0040 C   0  0  0  0  0  3  0  0  0  0  0  0
  187.0460  178.0870  142.4850 N   0  0  0  0  0  0  0  0  0  0  0  0
  187.5810  177.9410  147.4200 C   0  0  0  0  0  3  0  0  0  0  0  0
  186.2190  178.1940  147.5740 C   0  0  0  0  0  3  0  0  0  0  0  0
  184.7430  178.5260  141.5520 C   0  0  0  0  0  0  0  0  0  0  0  0
  183.3790  178.7790  141.7570 C   0  0  0  0  0  0  0  0  0  0  0  0
  188.9320  177.7480  140.9720 C   0  0  0  0  0  0  0  0  0  0  0  0
  189.2040  177.6740  143.4840 C   0  0  0  0  0  3  0  0  0  0  0  0
  191.1160  177.3290  142.1290 C   0  0  0  0  0  3  0  0  0  0  0  0
  188.1310  177.8500  146.1410 C   0  0  0  0  0  3  0  0  0  0  0  0
  187.8980  177.9170  143.6420 C   0  0  0  0  0  0  0  0  0  0  0  0
  187.3250  178.0120  145.0010 C   0  0  0  0  0  0  0  0  0  0  0  0
  185.0870  178.4390  143.9620 C   0  0  0  0  0  0  0  0  0  0  0  0
  190.5440  177.4650  139.0420 C   0  0  0  0  0  3  0  0  0  0  0  0
  189.8100  177.5730  142.1500 C   0  0  0  0  0  0  0  0  0  0  0  0
  182.5540  178.9440  140.6480 O   0  0  0  0  0  1  0  0  0  0  0  0
  189.3450  177.6840  139.5690 C   0  0  0  0  0  3  0  0  0  0  0  0
  191.8380  177.2170  139.6860 C   0  0  0  0  0  0  0  0  0  0  0  0
  185.4090  178.3560  146.4480 C   0  0  0  0  0  3  0  0  0  0  0  0
  185.9510  178.2670  145.1530 C   0  0  0  0  0  0  0  0  0  0  0  0
  183.7220  178.6930  144.1400 C   0  0  0  0  0  3  0  0  0  0  0  0
  187.6340  177.9890  141.1720 C   0  0  0  0  0  3  0  0  0  0  0  0
  185.1970  178.4530  140.2380 O   0  0  0  0  0  1  0  0  0  0  0  0
  185.6250  178.3510  142.6560 C   0  0  0  0  0  0  0  0  0  0  0  0
  182.8570  178.8650  143.0580 C   0  0  0  0  0  0  0  0  0  0  0  0
  193.1980  175.8840  137.9480 C   0  0  0  0  0  0  0  0  0  0  0  0
  192.9420  177.0180  138.7890 N   0  0  0  0  0  2  0  0  0  0  0  0
  194.3570  175.8770  137.1240 N   0  0  0  0  0  1  0  0  0  0  0  0
  192.4180  174.8980  137.9260 O   0  0  0  0  0  0  0  0  0  0  0  0
  181.4250  179.1300  143.3270 C   0  0  0  0  0  0  0  0  0  0  0  0
  180.8070  180.2820  142.8560 O   0  0  0  0  0  0  0  0  0  0  0  0
  180.7440  178.3060  143.9930 O   0  0  0  0  0  1  0  0  0  0  0  0
  1  9  1  0  0  0  0
  2 24  1  0  0  0  0
  2 11  1  0  0  0  0
  3  4  1  0  0  0  0
  5  6  2  0  0  0  0
  5 24  1  0  0  0  0
  6 25  1  0  0  0  0
  7 22  2  0  0  0  0
  7 15  1  0  0  0  0
  8 11  2  0  0  0  0
  9 15  2  0  0  0  0
 10  3  2  0  0  0  0
 11 12  1  0  0  0  0
 12 20  2  0  0  0  0
 12 10  1  0  0  0  0
 13 21  1  0  0  0  0
 13 20  1  0  0  0  0
 14 17  2  0  0  0  0
 14 18  1  0  0  0  0
 15  8  1  0  0  0  0
 16  6  1  0  0  0  0
 17  7  1  0  0  0  0
 18  1  2  0  0  0  0
 19  4  2  0  0  0  0
 20 19  1  0  0  0  0
 22  2  1  0  0  0  0
 23  5  1  0  0  0  0
 24 13  2  0  0  0  0
 25 30  1  0  0  0  0
 25 21  2  0  0  0  0
 26 27  1  0  0  0  0
 27 18  1  0  0  0  0
 28 26  1  0  0  0  0
 29 26  2  0  0  0  0
 30 32  1  0  0  0  0
 31 30  2  0  0  0  0
M  END
>  <MODEL>
2

>  <REMARK>
 VINA RESULT:     -11.7      2.423      8.324
  Name = 
  2 active torsions:
  status: ('A' for Active; 'I' for Inactive)
    1  A    between atoms: N_10  and  C_24
    2  A    between atoms: C_11  and  C_32
                            x       y       z     vdW  Elec       q    Type
                         _______ _______ _______ _____ _____    ______ ____

>  <TORSDO>
F 2

$$$$
=
 OpenBabel11052416463D

 32 36  0  0  0  0  0  0  0  0999 V2000
  190.4090  176.8500  147.8880 C   0  0  0  0  0  3  0  0  0  0  0  0
  188.2310  177.7000  143.1410 N   0  0  0  0  0  0  0  0  0  0  0  0
  183.5960  178.8300  144.5220 C   0  0  0  0  0  3  0  0  0  0  0  0
  183.2400  179.0020  143.1840 C   0  0  0  0  0  3  0  0  0  0  0  0
  188.7700  177.7050  140.6760 C   0  0  0  0  0  0  0  0  0  0  0  0
  188.3660  177.8890  139.3450 C   0  0  0  0  0  0  0  0  0  0  0  0
  189.9640  177.1510  144.7690 C   0  0  0  0  0  0  0  0  0  0  0  0
  187.6060  177.7260  145.4720 C   0  0  0  0  0  3  0  0  0  0  0  0
  189.1920  177.2110  147.1540 C   0  0  0  0  0  3  0  0  0  0  0  0
  184.9030  178.4690  144.8530 C   0  0  0  0  0  3  0  0  0  0  0  0
  187.2550  177.8930  144.1910 C   0  0  0  0  0  0  0  0  0  0  0  0
  185.8690  178.2760  143.8510 C   0  0  0  0  0  0  0  0  0  0  0  0
  186.5190  178.2480  141.4330 C   0  0  0  0  0  0  0  0  0  0  0  0
  192.0550  176.5280  146.0520 C   0  0  0  0  0  3  0  0  0  0  0  0
  188.9730  177.3460  145.8490 C   0  0  0  0  0  0  0  0  0  0  0  0
  189.2990  177.7050  138.3300 O   0  0  0  0  0  1  0  0  0  0  0  0
  191.3680  176.7730  144.9420 C   0  0  0  0  0  3  0  0  0  0  0  0
  191.6370  176.5550  147.4570 C   0  0  0  0  0  0  0  0  0  0  0  0
  184.1930  178.8130  142.1810 C   0  0  0  0  0  3  0  0  0  0  0  0
  185.5130  178.4480  142.5020 C   0  0  0  0  0  0  0  0  0  0  0  0
  186.1410  178.4260  140.0970 C   0  0  0  0  0  3  0  0  0  0  0  0
  189.5750  177.3270  143.5050 C   0  0  0  0  0  3  0  0  0  0  0  0
  190.0950  177.3450  140.9050 O   0  0  0  0  0  1  0  0  0  0  0  0
  187.8500  177.8820  141.7470 C   0  0  0  0  0  0  0  0  0  0  0  0
  187.0430  178.2520  139.0460 C   0  0  0  0  0  0  0  0  0  0  0  0
  193.2110  177.0720  149.4330 C   0  0  0  0  0  0  0  0  0  0  0  0
  192.6630  176.2300  148.4080 N   0  0  0  0  0  2  0  0  0  0  0  0
  194.2300  176.5620  150.2820 N   0  0  0  0  0  1  0  0  0  0  0  0
  192.8070  178.2530  149.5940 O   0  0  0  0  0  0  0  0  0  0  0  0
  186.5670  178.4580  137.6590 C   0  0  0  0  0  0  0  0  0  0  0  0
  187.1800  179.3790  136.8180 O   0  0  0  0  0  0  0  0  0  0  0  0
  185.5900  177.7950  137.2200 O   0  0  0  0  0  1  0  0  0  0  0  0
  2 22  1  0  0  0  0
  2 11  1  0  0  0  0
  3 10  1  0  0  0  0
  4  3  2  0  0  0  0
  5 23  1  0  0  0  0
  5 24  1  0  0  0  0
  6  5  2  0  0  0  0
  7 17  1  0  0  0  0
  7 15  1  0  0  0  0
  8 15  1  0  0  0  0
  9  1  1  0  0  0  0
 11  8  2  0  0  0  0
 12 11  1  0  0  0  0
 12 10  2  0  0  0  0
 13 24  2  0  0  0  0
 13 20  1  0  0  0  0
 14 18  1  0  0  0  0
 15  9  2  0  0  0  0
 16  6  1  0  0  0  0
 17 14  2  0  0  0  0
 18  1  2  0  0  0  0
 18 27  1  0  0  0  0
 19 20  2  0  0  0  0
 19  4  1  0  0  0  0
 20 12  1  0  0  0  0
 21 13  1  0  0  0  0
 22  7  2  0  0  0  0
 24  2  1  0  0  0  0
 25  6  1  0  0  0  0
 25 21  2  0  0  0  0
 26 29  2  0  0  0  0
 26 28  1  0  0  0  0
 27 26  1  0  0  0  0
 30 25  1  0  0  0  0
 31 30  2  0  0  0  0
 32 30  1  0  0  0  0
M  END
>  <MODEL>
3

>  <REMARK>
 VINA RESULT:     -11.3      3.254      7.567
  Name = 
  2 active torsions:
  status: ('A' for Active; 'I' for Inactive)
    1  A    between atoms: N_10  and  C_24
    2  A    between atoms: C_11  and  C_32
                            x       y       z     vdW  Elec       q    Type
                         _______ _______ _______ _____ _____    ______ ____

>  <TORSDO>
F 2

$$$$
=
 OpenBabel11052416463D

 32 36  0  0  0  0  0  0  0  0999 V2000
  183.1170  179.0140  141.0340 C   0  0  0  0  0  3  0  0  0  0  0  0
  187.4180  177.8490  143.8890 N   0  0  0  0  0  0  0  0  0  0  0  0
  190.7730  177.4500  140.2490 C   0  0  0  0  0  3  0  0  0  0  0  0
  191.7590  177.1590  141.1910 C   0  0  0  0  0  3  0  0  0  0  0  0
  188.1900  177.4790  146.2630 C   0  0  0  0  0  0  0  0  0  0  0  0
  189.2150  177.1810  147.1730 C   0  0  0  0  0  0  0  0  0  0  0  0
  185.0800  178.3870  143.4360 C   0  0  0  0  0  0  0  0  0  0  0  0
  186.7880  178.1840  141.5830 C   0  0  0  0  0  3  0  0  0  0  0  0
  184.5510  178.7100  141.0070 C   0  0  0  0  0  3  0  0  0  0  0  0
  189.4630  177.6930  140.6660 C   0  0  0  0  0  3  0  0  0  0  0  0
  187.7410  177.9030  142.4800 C   0  0  0  0  0  0  0  0  0  0  0  0
  189.1240  177.6480  142.0290 C   0  0  0  0  0  0  0  0  0  0  0  0
  189.7760  177.3000  144.4220 C   0  0  0  0  0  0  0  0  0  0  0  0
  182.6050  178.9120  143.4660 C   0  0  0  0  0  3  0  0  0  0  0  0
  185.4020  178.4440  141.9930 C   0  0  0  0  0  0  0  0  0  0  0  0
  188.9120  177.1280  148.5300 O   0  0  0  0  0  1  0  0  0  0  0  0
  183.7650  178.6150  144.0390 C   0  0  0  0  0  3  0  0  0  0  0  0
  182.2610  179.1080  142.0530 C   0  0  0  0  0  0  0  0  0  0  0  0
  191.4320  177.1100  142.5480 C   0  0  0  0  0  3  0  0  0  0  0  0
  190.1160  177.3530  142.9800 C   0  0  0  0  0  0  0  0  0  0  0  0
  190.7810  177.0060  145.3500 C   0  0  0  0  0  3  0  0  0  0  0  0
  186.0590  178.1040  144.2980 C   0  0  0  0  0  3  0  0  0  0  0  0
  186.9160  177.7050  146.7750 O   0  0  0  0  0  1  0  0  0  0  0  0
  188.4540  177.5440  144.8660 C   0  0  0  0  0  0  0  0  0  0  0  0
  190.5230  176.9410  146.7200 C   0  0  0  0  0  0  0  0  0  0  0  0
  180.3330  180.0820  140.6460 C   0  0  0  0  0  0  0  0  0  0  0  0
  180.8840  179.4240  141.7960 N   0  0  0  0  0  2  0  0  0  0  0  0
  178.9310  180.3060  140.5770 N   0  0  0  0  0  1  0  0  0  0  0  0
  181.0670  180.4650  139.6980 O   0  0  0  0  0  0  0  0  0  0  0  0
  191.6390  176.6230  147.6400 C   0  0  0  0  0  0  0  0  0  0  0  0
  192.2080  175.3560  147.6690 O   0  0  0  0  0  0  0  0  0  0  0  0
  192.0890  177.5070  148.4170 O   0  0  0  0  0  1  0  0  0  0  0  0
  1 18  2  0  0  0  0
  2 22  1  0  0  0  0
  2 24  1  0  0  0  0
  3 10  2  0  0  0  0
  3  4  1  0  0  0  0
  4 19  2  0  0  0  0
  5 23  1  0  0  0  0
  5  6  1  0  0  0  0
  6 16  1  0  0  0  0
  7 17  1  0  0  0  0
  7 22  2  0  0  0  0
  8 15  1  0  0  0  0
  8 11  2  0  0  0  0
  9  1  1  0  0  0  0
  9 15  2  0  0  0  0
 10 12  1  0  0  0  0
 11  2  1  0  0  0  0
 12 11  1  0  0  0  0
 12 20  2  0  0  0  0
 13 24  1  0  0  0  0
 13 21  2  0  0  0  0
 14 17  2  0  0  0  0
 15  7  1  0  0  0  0
 18 14  1  0  0  0  0
 19 20  1  0  0  0  0
 20 13  1  0  0  0  0
 21 25  1  0  0  0  0
 24  5  2  0  0  0  0
 25  6  2  0  0  0  0
 25 30  1  0  0  0  0
 26 27  1  0  0  0  0
 27 18  1  0  0  0  0
 28 26  1  0  0  0  0
 29 26  2  0  0  0  0
 30 31  2  0  0  0  0
 30 32  1  0  0  0  0
M  END
>  <MODEL>
4

>  <REMARK>
 VINA RESULT:     -11.1      3.207      4.826
  Name = 
  2 active torsions:
  status: ('A' for Active; 'I' for Inactive)
    1  A    between atoms: N_10  and  C_24
    2  A    between atoms: C_11  and  C_32
                            x       y       z     vdW  Elec       q    Type
                         _______ _______ _______ _____ _____    ______ ____

>  <TORSDO>
F 2

$$$$
=
 OpenBabel11052416463D

 32 36  0  0  0  0  0  0  0  0999 V2000
  190.7480  177.2880  145.3270 C   0  0  0  0  0  3  0  0  0  0  0  0
  186.0140  178.2340  143.1600 N   0  0  0  0  0  0  0  0  0  0  0  0
  187.2700  178.2640  138.3550 C   0  0  0  0  0  3  0  0  0  0  0  0
  185.9420  178.5150  138.0100 C   0  0  0  0  0  3  0  0  0  0  0  0
  183.5950  178.6280  143.7580 C   0  0  0  0  0  0  0  0  0  0  0  0
  182.2730  178.8810  143.3630 C   0  0  0  0  0  0  0  0  0  0  0  0
  187.6610  177.8530  144.9210 C   0  0  0  0  0  0  0  0  0  0  0  0
  188.3000  177.8670  142.4760 C   0  0  0  0  0  3  0  0  0  0  0  0
  189.9960  177.4860  144.0850 C   0  0  0  0  0  3  0  0  0  0  0  0
  187.6270  178.1310  139.6970 C   0  0  0  0  0  3  0  0  0  0  0  0
  187.0280  178.1090  142.1350 C   0  0  0  0  0  0  0  0  0  0  0  0
  186.6600  178.2470  140.7110 C   0  0  0  0  0  0  0  0  0  0  0  0
  184.2890  178.6280  141.4230 C   0  0  0  0  0  0  0  0  0  0  0  0
  188.9750  177.5100  147.0570 C   0  0  0  0  0  3  0  0  0  0  0  0
  188.7040  177.7230  143.8800 C   0  0  0  0  0  0  0  0  0  0  0  0
  181.2920  179.0020  144.3430 O   0  0  0  0  0  1  0  0  0  0  0  0
  187.8640  177.7420  146.3670 C   0  0  0  0  0  3  0  0  0  0  0  0
  190.3520  177.2920  146.6020 C   0  0  0  0  0  0  0  0  0  0  0  0
  184.9740  178.6330  139.0100 C   0  0  0  0  0  3  0  0  0  0  0  0
  185.3210  178.5010  140.3670 C   0  0  0  0  0  0  0  0  0  0  0  0
  182.9630  178.8800  141.0550 C   0  0  0  0  0  3  0  0  0  0  0  0
  186.4040  178.0930  144.5410 C   0  0  0  0  0  3  0  0  0  0  0  0
  183.8520  178.5120  145.1210 O   0  0  0  0  0  1  0  0  0  0  0  0
  184.6300  178.4960  142.7910 C   0  0  0  0  0  0  0  0  0  0  0  0
  181.9470  179.0090  142.0030 C   0  0  0  0  0  0  0  0  0  0  0  0
  192.3100  176.0390  147.7150 C   0  0  0  0  0  0  0  0  0  0  0  0
  191.3140  177.0690  147.6440 N   0  0  0  0  0  2  0  0  0  0  0  0
  193.1770  175.9850  148.8410 N   0  0  0  0  0  1  0  0  0  0  0  0
  192.4320  175.1820  146.8010 O   0  0  0  0  0  0  0  0  0  0  0  0
  180.5670  179.2770  141.5360 C   0  0  0  0  0  0  0  0  0  0  0  0
  180.0220  180.5530  141.5990 O   0  0  0  0  0  1  0  0  0  0  0  0
  179.8640  178.3400  141.0720 O   0  0  0  0  0  0  0  0  0  0  0  0
  1 18  2  0  0  0  0
  2 22  1  0  0  0  0
  3 10  1  0  0  0  0
  4  3  2  0  0  0  0
  4 19  1  0  0  0  0
  5 23  1  0  0  0  0
  6  5  1  0  0  0  0
  6 16  1  0  0  0  0
  7 17  1  0  0  0  0
  8 15  1  0  0  0  0
  9  1  1  0  0  0  0
 10 12  2  0  0  0  0
 11  8  2  0  0  0  0
 11  2  1  0  0  0  0
 12 11  1  0  0  0  0
 13 24  1  0  0  0  0
 15  9  2  0  0  0  0
 15  7  1  0  0  0  0
 17 14  2  0  0  0  0
 18 14  1  0  0  0  0
 18 27  1  0  0  0  0
 19 20  2  0  0  0  0
 20 12  1  0  0  0  0
 20 13  1  0  0  0  0
 21 13  2  0  0  0  0
 21 25  1  0  0  0  0
 22  7  2  0  0  0  0
 24  2  1  0  0  0  0
 24  5  2  0  0  0  0
 25  6  2  0  0  0  0
 26 28  1  0  0  0  0
 27 26  1  0  0  0  0
 29 26  2  0  0  0  0
 30 31  1  0  0  0  0
 30 25  1  0  0  0  0
 32 30  2  0  0  0  0
M  END
>  <MODEL>
5

>  <REMARK>
 VINA RESULT:     -11.0      3.649      8.817
  Name = 
  2 active torsions:
  status: ('A' for Active; 'I' for Inactive)
    1  A    between atoms: N_10  and  C_24
    2  A    between atoms: C_11  and  C_32
                            x       y       z     vdW  Elec       q    Type
                         _______ _______ _______ _____ _____    ______ ____

>  <TORSDO>
F 2

$$$$
=
 OpenBabel11052416463D

 32 36  0  0  0  0  0  0  0  0999 V2000
  181.0920  179.2820  140.1420 C   0  0  0  0  0  3  0  0  0  0  0  0
  185.8990  178.2920  142.1240 N   0  0  0  0  0  0  0  0  0  0  0  0
  184.8570  178.4010  146.9780 C   0  0  0  0  0  3  0  0  0  0  0  0
  186.1930  178.1310  147.2700 C   0  0  0  0  0  3  0  0  0  0  0  0
  188.2820  177.8350  141.4300 C   0  0  0  0  0  0  0  0  0  0  0  0
  189.6150  177.5660  141.7720 C   0  0  0  0  0  0  0  0  0  0  0  0
  184.1840  178.6650  140.4270 C   0  0  0  0  0  0  0  0  0  0  0  0
  183.6530  178.7200  142.8980 C   0  0  0  0  0  3  0  0  0  0  0  0
  181.8960  179.0990  141.3560 C   0  0  0  0  0  3  0  0  0  0  0  0
  184.4430  178.5090  145.6500 C   0  0  0  0  0  3  0  0  0  0  0  0
  184.9340  178.4620  143.1880 C   0  0  0  0  0  0  0  0  0  0  0  0
  185.3610  178.3480  144.5980 C   0  0  0  0  0  0  0  0  0  0  0  0
  187.6910  177.9050  143.7930 C   0  0  0  0  0  0  0  0  0  0  0  0
  182.7840  178.9840  138.3430 C   0  0  0  0  0  3  0  0  0  0  0  0
  183.1900  178.8400  141.5090 C   0  0  0  0  0  0  0  0  0  0  0  0
  190.5480  177.4010  140.7540 O   0  0  0  0  0  1  0  0  0  0  0  0
  183.9200  178.7470  138.9890 C   0  0  0  0  0  3  0  0  0  0  0  0
  181.4320  179.2400  138.8520 C   0  0  0  0  0  0  0  0  0  0  0  0
  187.1130  177.9700  146.2320 C   0  0  0  0  0  3  0  0  0  0  0  0
  186.7090  178.0770  144.8890 C   0  0  0  0  0  0  0  0  0  0  0  0
  189.0280  177.6340  144.1080 C   0  0  0  0  0  3  0  0  0  0  0  0
  185.4510  178.4080  140.7580 C   0  0  0  0  0  3  0  0  0  0  0  0
  187.9670  177.9250  140.0770 O   0  0  0  0  0  1  0  0  0  0  0  0
  187.2920  178.0110  142.4380 C   0  0  0  0  0  0  0  0  0  0  0  0
  189.9980  177.4630  143.1200 C   0  0  0  0  0  0  0  0  0  0  0  0
  180.1680  180.6640  137.1140 C   0  0  0  0  0  0  0  0  0  0  0  0
  180.4300  179.4590  137.8480 N   0  0  0  0  0  2  0  0  0  0  0  0
  179.1210  180.6810  136.1530 N   0  0  0  0  0  1  0  0  0  0  0  0
  180.8480  181.7060  137.3060 O   0  0  0  0  0  0  0  0  0  0  0  0
  191.3920  177.1800  143.5330 C   0  0  0  0  0  0  0  0  0  0  0  0
  191.8580  175.8750  143.6420 O   0  0  0  0  0  0  0  0  0  0  0  0
  192.1790  178.1280  143.7950 O   0  0  0  0  0  1  0  0  0  0  0  0
  1  9  1  0  0  0  0
  2 24  1  0  0  0  0
  2 11  1  0  0  0  0
  3  4  1  0  0  0  0
  5  6  2  0  0  0  0
  5 24  1  0  0  0  0
  6 25  1  0  0  0  0
  7 22  2  0  0  0  0
  7 15  1  0  0  0  0
  8 11  2  0  0  0  0
  9 15  2  0  0  0  0
 10  3  2  0  0  0  0
 11 12  1  0  0  0  0
 12 20  2  0  0  0  0
 12 10  1  0  0  0  0
 13 21  1  0  0  0  0
 13 20  1  0  0  0  0
 14 18  1  0  0  0  0
 14 17  2  0  0  0  0
 15  8  1  0  0  0  0
 16  6  1  0  0  0  0
 17  7  1  0  0  0  0
 18  1  2  0  0  0  0
 19  4  2  0  0  0  0
 20 19  1  0  0  0  0
 22  2  1  0  0  0  0
 23  5  1  0  0  0  0
 24 13  2  0  0  0  0
 25 30  1  0  0  0  0
 25 21  2  0  0  0  0
 26 29  2  0  0  0  0
 26 27  1  0  0  0  0
 27 18  1  0  0  0  0
 28 26  1  0  0  0  0
 30 31  2  0  0  0  0
 30 32  1  0  0  0  0
M  END
>  <MODEL>
6

>  <REMARK>
 VINA RESULT:     -10.7      2.771      4.122
  Name = 
  2 active torsions:
  status: ('A' for Active; 'I' for Inactive)
    1  A    between atoms: N_10  and  C_24
    2  A    between atoms: C_11  and  C_32
                            x       y       z     vdW  Elec       q    Type
                         _______ _______ _______ _____ _____    ______ ____

>  <TORSDO>
F 2

$$$$
=
 OpenBabel11052416463D

 32 36  0  0  0  0  0  0  0  0999 V2000
  189.6050  177.2430  137.4800 C   0  0  0  0  0  3  0  0  0  0  0  0
  188.6750  177.5350  142.6820 N   0  0  0  0  0  0  0  0  0  0  0  0
  183.9130  178.9420  142.6170 C   0  0  0  0  0  3  0  0  0  0  0  0
  183.8980  178.9510  144.0110 C   0  0  0  0  0  3  0  0  0  0  0  0
  189.7890  177.2130  144.9230 C   0  0  0  0  0  0  0  0  0  0  0  0
  189.7260  177.2370  146.3240 C   0  0  0  0  0  0  0  0  0  0  0  0
  189.9370  177.1550  140.6270 C   0  0  0  0  0  0  0  0  0  0  0  0
  187.5130  177.8710  140.5930 C   0  0  0  0  0  3  0  0  0  0  0  0
  188.6210  177.5370  138.5270 C   0  0  0  0  0  3  0  0  0  0  0  0
  185.0810  178.5950  141.9360 C   0  0  0  0  0  3  0  0  0  0  0  0
  187.4890  177.8830  141.9320 C   0  0  0  0  0  0  0  0  0  0  0  0
  186.2470  178.2520  142.6430 C   0  0  0  0  0  0  0  0  0  0  0  0
  187.4550  177.9030  144.8080 C   0  0  0  0  0  0  0  0  0  0  0  0
  191.6230  176.6510  138.8080 C   0  0  0  0  0  3  0  0  0  0  0  0
  188.7280  177.5100  139.8520 C   0  0  0  0  0  0  0  0  0  0  0  0
  190.8630  176.9030  147.0520 O   0  0  0  0  0  1  0  0  0  0  0  0
  191.2360  176.7700  140.0730 C   0  0  0  0  0  3  0  0  0  0  0  0
  190.8830  176.8650  137.5600 C   0  0  0  0  0  0  0  0  0  0  0  0
  185.0510  178.6120  144.7220 C   0  0  0  0  0  3  0  0  0  0  0  0
  186.2350  178.2610  144.0480 C   0  0  0  0  0  0  0  0  0  0  0  0
  187.4170  177.9180  146.2070 C   0  0  0  0  0  3  0  0  0  0  0  0
  189.8720  177.1790  141.9590 C   0  0  0  0  0  3  0  0  0  0  0  0
  190.9990  176.8540  144.3370 O   0  0  0  0  0  1  0  0  0  0  0  0
  188.6500  177.5470  144.1380 C   0  0  0  0  0  0  0  0  0  0  0  0
  188.5340  177.5910  146.9780 C   0  0  0  0  0  0  0  0  0  0  0  0
  192.0630  175.3850  135.8100 C   0  0  0  0  0  0  0  0  0  0  0  0
  191.6320  176.6400  136.3560 N   0  0  0  0  0  2  0  0  0  0  0  0
  192.8030  175.3720  134.5960 N   0  0  0  0  0  1  0  0  0  0  0  0
  191.7990  174.2970  136.3850 O   0  0  0  0  0  0  0  0  0  0  0  0
  188.4160  177.6310  148.4540 C   0  0  0  0  0  0  0  0  0  0  0  0
  189.2320  178.4570  149.2180 O   0  0  0  0  0  1  0  0  0  0  0  0
  187.5670  176.9090  149.0400 O   0  0  0  0  0  0  0  0  0  0  0  0
  1 18  2  0  0  0  0
  1  9  1  0  0  0  0
  2 24  1  0  0  0  0
  3  4  1  0  0  0  0
  4 19  2  0  0  0  0
  5  6  1  0  0  0  0
  6 25  2  0  0  0  0
  6 16  1  0  0  0  0
  7 22  2  0  0  0  0
  8 11  2  0  0  0  0
  9 15  2  0  0  0  0
 10  3  2  0  0  0  0
 10 12  1  0  0  0  0
 11 12  1  0  0  0  0
 11  2  1  0  0  0  0
 12 20  2  0  0  0  0
 13 21  2  0  0  0  0
 14 17  2  0  0  0  0
 15  8  1  0  0  0  0
 15  7  1  0  0  0  0
 17  7  1  0  0  0  0
 18 14  1  0  0  0  0
 20 19  1  0  0  0  0
 20 13  1  0  0  0  0
 21 25  1  0  0  0  0
 22  2  1  0  0  0  0
 23  5  1  0  0  0  0
 24 13  1  0  0  0  0
 24  5  2  0  0  0  0
 25 30  1  0  0  0  0
 26 27  1  0  0  0  0
 26 29  2  0  0  0  0
 27 18  1  0  0  0  0
 28 26  1  0  0  0  0
 30 32  2  0  0  0  0
 30 31  1  0  0  0  0
M  END
>  <MODEL>
7

>  <REMARK>
 VINA RESULT:     -10.7      3.881      8.365
  Name = 
  2 active torsions:
  status: ('A' for Active; 'I' for Inactive)
    1  A    between atoms: N_10  and  C_24
    2  A    between atoms: C_11  and  C_32
                            x       y       z     vdW  Elec       q    Type
                         _______ _______ _______ _____ _____    ______ ____

>  <TORSDO>
F 2

$$$$
=
 OpenBabel11052416463D

 32 36  0  0  0  0  0  0  0  0999 V2000
  193.1480  176.7260  139.6390 C   0  0  0  0  0  3  0  0  0  0  0  0
  188.7020  177.6720  142.3490 N   0  0  0  0  0  0  0  0  0  0  0  0
  190.4000  177.1340  146.9850 C   0  0  0  0  0  3  0  0  0  0  0  0
  189.1280  177.4140  147.4820 C   0  0  0  0  0  3  0  0  0  0  0  0
  186.2650  178.2470  142.0360 C   0  0  0  0  0  0  0  0  0  0  0  0
  185.0030  178.5230  142.5820 C   0  0  0  0  0  0  0  0  0  0  0  0
  190.1510  177.3970  140.4040 C   0  0  0  0  0  0  0  0  0  0  0  0
  191.0150  177.1240  142.7630 C   0  0  0  0  0  3  0  0  0  0  0  0
  192.5270  176.8280  140.9640 C   0  0  0  0  0  3  0  0  0  0  0  0
  190.6220  177.1260  145.6070 C   0  0  0  0  0  3  0  0  0  0  0  0
  189.7970  177.3900  143.2500 C   0  0  0  0  0  0  0  0  0  0  0  0
  189.5730  177.3980  144.7110 C   0  0  0  0  0  0  0  0  0  0  0  0
  187.1730  177.9670  144.2790 C   0  0  0  0  0  0  0  0  0  0  0  0
  191.2360  177.2160  138.1250 C   0  0  0  0  0  3  0  0  0  0  0  0
  191.2770  177.1070  141.3190 C   0  0  0  0  0  0  0  0  0  0  0  0
  183.9440  178.7950  141.7220 O   0  0  0  0  0  1  0  0  0  0  0  0
  190.2100  177.4280  138.9410 C   0  0  0  0  0  3  0  0  0  0  0  0
  192.6350  176.8830  138.4170 C   0  0  0  0  0  0  0  0  0  0  0  0
  188.0800  177.6850  146.6000 C   0  0  0  0  0  3  0  0  0  0  0  0
  188.2900  177.6790  145.2090 C   0  0  0  0  0  0  0  0  0  0  0  0
  185.9040  178.2450  144.8000 C   0  0  0  0  0  3  0  0  0  0  0  0
  188.9520  177.6590  140.9290 C   0  0  0  0  0  3  0  0  0  0  0  0
  186.3860  178.2620  140.6500 O   0  0  0  0  0  1  0  0  0  0  0  0
  187.3760  177.9630  142.8780 C   0  0  0  0  0  0  0  0  0  0  0  0
  184.8140  178.5230  143.9750 C   0  0  0  0  0  0  0  0  0  0  0  0
  194.1850  175.5430  136.8530 C   0  0  0  0  0  0  0  0  0  0  0  0
  193.4800  176.7220  137.2680 N   0  0  0  0  0  2  0  0  0  0  0  0
  194.9790  175.5850  135.6740 N   0  0  0  0  0  1  0  0  0  0  0  0
  194.1140  174.4730  137.5110 O   0  0  0  0  0  0  0  0  0  0  0  0
  183.5020  178.8070  144.6000 C   0  0  0  0  0  0  0  0  0  0  0  0
  182.3420  178.8750  143.8390 O   0  0  0  0  0  0  0  0  0  0  0  0
  183.4220  178.9950  145.8440 O   0  0  0  0  0  1  0  0  0  0  0  0
  1  9  1  0  0  0  0
  2 24  1  0  0  0  0
  2 11  1  0  0  0  0
  3  4  1  0  0  0  0
  5  6  2  0  0  0  0
  5 24  1  0  0  0  0
  6 25  1  0  0  0  0
  7 22  2  0  0  0  0
  7 15  1  0  0  0  0
  8 11  2  0  0  0  0
  9 15  2  0  0  0  0
 10  3  2  0  0  0  0
 11 12  1  0  0  0  0
 12 20  2  0  0  0  0
 12 10  1  0  0  0  0
 13 21  1  0  0  0  0
 13 20  1  0  0  0  0
 14 18  1  0  0  0  0
 14 17  2  0  0  0  0
 15  8  1  0  0  0  0
 16  6  1  0  0  0  0
 17  7  1  0  0  0  0
 18  1  2  0  0  0  0
 19  4  2  0  0  0  0
 20 19  1  0  0  0  0
 22  2  1  0  0  0  0
 23  5  1  0  0  0  0
 24 13  2  0  0  0  0
 25 30  1  0  0  0  0
 25 21  2  0  0  0  0
 26 27  1  0  0  0  0
 26 29  2  0  0  0  0
 27 18  1  0  0  0  0
 28 26  1  0  0  0  0
 30 32  1  0  0  0  0
 31 30  2  0  0  0  0
M  END
>  <MODEL>
8

>  <REMARK>
 VINA RESULT:     -10.7      2.821      8.377
  Name = 
  2 active torsions:
  status: ('A' for Active; 'I' for Inactive)
    1  A    between atoms: N_10  and  C_24
    2  A    between atoms: C_11  and  C_32
                            x       y       z     vdW  Elec       q    Type
                         _______ _______ _______ _____ _____    ______ ____

>  <TORSDO>
F 2

$$$$
=
 OpenBabel11052416463D

 32 36  0  0  0  0  0  0  0  0999 V2000
  189.4410  177.3560  147.2780 C   0  0  0  0  0  3  0  0  0  0  0  0
  187.8240  177.8980  142.2680 N   0  0  0  0  0  0  0  0  0  0  0  0
  182.9820  178.7100  143.0200 C   0  0  0  0  0  3  0  0  0  0  0  0
  182.7870  178.8160  141.6430 C   0  0  0  0  0  3  0  0  0  0  0  0
  188.6680  177.8710  139.8900 C   0  0  0  0  0  0  0  0  0  0  0  0
  188.4230  177.9840  138.5140 C   0  0  0  0  0  0  0  0  0  0  0  0
  189.3730  177.5300  144.1180 C   0  0  0  0  0  0  0  0  0  0  0  0
  186.9090  177.9440  144.5010 C   0  0  0  0  0  3  0  0  0  0  0  0
  188.3040  177.6020  146.3850 C   0  0  0  0  0  3  0  0  0  0  0  0
  184.2590  178.4600  143.5240 C   0  0  0  0  0  3  0  0  0  0  0  0
  186.7120  178.0460  143.1810 C   0  0  0  0  0  0  0  0  0  0  0  0
  185.3560  178.3120  142.6580 C   0  0  0  0  0  0  0  0  0  0  0  0
  186.3060  178.2630  140.3410 C   0  0  0  0  0  0  0  0  0  0  0  0
  191.3250  177.1070  145.6730 C   0  0  0  0  0  3  0  0  0  0  0  0
  188.2410  177.6810  145.0590 C   0  0  0  0  0  0  0  0  0  0  0  0
  189.4880  177.8430  137.6290 O   0  0  0  0  0  1  0  0  0  0  0  0
  190.7670  177.2660  144.4780 C   0  0  0  0  0  3  0  0  0  0  0  0
  190.7320  177.1430  147.0140 C   0  0  0  0  0  0  0  0  0  0  0  0
  183.8700  178.6700  140.7740 C   0  0  0  0  0  3  0  0  0  0  0  0
  185.1620  178.4170  141.2690 C   0  0  0  0  0  0  0  0  0  0  0  0
  186.0880  178.3720  138.9630 C   0  0  0  0  0  3  0  0  0  0  0  0
  189.1350  177.6390  142.8090 C   0  0  0  0  0  3  0  0  0  0  0  0
  189.9760  177.6200  140.2950 O   0  0  0  0  0  1  0  0  0  0  0  0
  187.6100  178.0090  140.8320 C   0  0  0  0  0  0  0  0  0  0  0  0
  187.1250  178.2370  138.0390 C   0  0  0  0  0  0  0  0  0  0  0  0
  192.6990  175.9500  148.1770 C   0  0  0  0  0  0  0  0  0  0  0  0
  191.6500  176.9250  148.0960 N   0  0  0  0  0  2  0  0  0  0  0  0
  193.5070  175.8920  149.3450 N   0  0  0  0  0  1  0  0  0  0  0  0
  192.9170  175.1450  147.2340 O   0  0  0  0  0  0  0  0  0  0  0  0
  186.8150  178.3650  136.5970 C   0  0  0  0  0  0  0  0  0  0  0  0
  186.0930  177.3850  135.9270 O   0  0  0  0  0  0  0  0  0  0  0  0
  187.2080  179.3740  135.9530 O   0  0  0  0  0  1  0  0  0  0  0  0
  2 22  1  0  0  0  0
  2 11  1  0  0  0  0
  3 10  1  0  0  0  0
  4  3  2  0  0  0  0
  5 23  1  0  0  0  0
  5 24  1  0  0  0  0
  6  5  2  0  0  0  0
  7 17  1  0  0  0  0
  7 15  1  0  0  0  0
  8 15  1  0  0  0  0
  9  1  1  0  0  0  0
 11  8  2  0  0  0  0
 12 11  1  0  0  0  0
 12 10  2  0  0  0  0
 13 24  2  0  0  0  0
 13 20  1  0  0  0  0
 14 18  1  0  0  0  0
 15  9  2  0  0  0  0
 16  6  1  0  0  0  0
 17 14  2  0  0  0  0
 18  1  2  0  0  0  0
 18 27  1  0  0  0  0
 19 20  2  0  0  0  0
 19  4  1  0  0  0  0
 20 12  1  0  0  0  0
 21 13  1  0  0  0  0
 22  7  2  0  0  0  0
 24  2  1  0  0  0  0
 25  6  1  0  0  0  0
 25 21  2  0  0  0  0
 26 28  1  0  0  0  0
 27 26  1  0  0  0  0
 29 26  2  0  0  0  0
 30 25  1  0  0  0  0
 31 30  2  0  0  0  0
 32 30  1  0  0  0  0
M  END
>  <MODEL>
9

>  <REMARK>
 VINA RESULT:     -10.5      3.045      7.350
  Name = 
  2 active torsions:
  status: ('A' for Active; 'I' for Inactive)
    1  A    between atoms: N_10  and  C_24
    2  A    between atoms: C_11  and  C_32
                            x       y       z     vdW  Elec       q    Type
                         _______ _______ _______ _____ _____    ______ ____

>  <TORSDO>
F 2

$$$$
