=
 OpenBabel11052415373D

 34 39  0  0  0  0  0  0  0  0999 V2000
  186.9230  178.1800  143.8950 C   0  0  0  0  0  0  0  0  0  0  0  0
  187.8980  177.5720  147.4970 C   0  0  0  0  0  3  0  0  0  0  0  0
  185.8680  178.2620  146.5270 C   0  0  0  0  0  3  0  0  0  0  0  0
  186.1990  178.6620  141.4580 C   0  0  0  0  0  0  0  0  0  0  0  0
  187.3140  178.1920  142.4240 C   0  0  0  0  0  2  0  0  0  0  0  0
  184.6830  178.9060  143.3320 C   0  0  0  0  0  0  0  0  0  0  0  0
  183.5570  179.1900  144.0250 N   0  0  0  0  0  0  0  0  0  0  0  0
  184.9600  178.9820  141.8970 C   0  0  0  0  0  3  0  0  0  0  0  0
  185.1040  178.5840  145.4150 C   0  0  0  0  0  0  0  0  0  0  0  0
  185.6370  178.5310  144.1910 C   0  0  0  0  0  0  0  0  0  0  0  0
  183.8190  178.9890  145.3230 N   0  0  0  0  0  0  0  0  0  0  0  0
  189.2040  177.1650  147.7190 C   0  0  0  0  0  3  0  0  0  0  0  0
  190.2370  176.9380  146.8190 C   0  0  0  0  0  0  0  0  0  0  0  0
  190.1450  177.0900  145.4410 C   0  0  0  0  0  3  0  0  0  0  0  0
  187.2210  177.8770  146.3240 C   0  0  0  0  0  0  0  0  0  0  0  0
  189.0740  177.4780  144.6520 C   0  0  0  0  0  3  0  0  0  0  0  0
  187.7680  177.8330  144.9860 C   0  0  0  0  0  0  0  0  0  0  0  0
  191.5340  176.5060  147.3760 C   0  0  0  0  0  0  0  0  0  0  0  0
  192.1690  175.3720  146.8810 O   0  0  0  0  0  0  0  0  0  0  0  0
  192.0820  177.1560  148.3070 O   0  0  0  0  0  1  0  0  0  0  0  0
  186.4230  178.7330  140.0740 O   0  0  0  0  0  0  0  0  0  0  0  0
  188.1470  177.1460  137.2590 N   0  0  0  0  0  0  0  0  0  0  0  0
  188.6310  177.6540  139.9300 C   0  0  0  0  0  3  0  0  0  0  0  0
  191.7070  176.3890  137.3950 N   0  0  0  0  0  0  0  0  0  0  0  0
  192.7540  176.3450  136.4180 C   0  0  0  0  0  0  0  0  0  0  0  0
  190.3450  176.0300  136.9840 C   0  0  0  0  0  2  0  0  0  0  0  0
  193.9430  176.6060  136.7430 O   0  0  0  0  0  1  0  0  0  0  0  0
  189.3300  176.7580  137.8060 C   0  0  0  0  0  0  0  0  0  0  0  0
  192.4680  176.0140  135.0980 O   0  0  0  0  0  0  0  0  0  0  0  0
  190.8740  176.5310  139.7540 C   0  0  0  0  0  2  0  0  0  0  0  0
  189.5930  177.0080  139.1550 C   0  0  0  0  0  0  0  0  0  0  0  0
  192.0400  176.7500  138.7850 C   0  0  0  0  0  2  0  0  0  0  0  0
  187.4160  178.0510  139.3550 C   0  0  0  0  0  0  0  0  0  0  0  0
  187.1990  177.7870  137.9970 C   0  0  0  0  0  3  0  0  0  0  0  0
  1 10  1  0  0  0  0
  1 17  2  0  0  0  0
  2 12  1  0  0  0  0
  4  8  2  0  0  0  0
  4  5  1  0  0  0  0
  5  1  1  0  0  0  0
  6  7  1  0  0  0  0
  6 10  2  0  0  0  0
  7 11  2  0  0  0  0
  8  6  1  0  0  0  0
  9  3  2  0  0  0  0
 10  9  1  0  0  0  0
 11  9  1  0  0  0  0
 13 18  1  0  0  0  0
 13 12  2  0  0  0  0
 14 13  1  0  0  0  0
 15  3  1  0  0  0  0
 15  2  2  0  0  0  0
 16 17  1  0  0  0  0
 16 14  2  0  0  0  0
 17 15  1  0  0  0  0
 18 20  1  0  0  0  0
 19 18  2  0  0  0  0
 21  4  1  0  0  0  0
 22 28  2  0  0  0  0
 22 34  1  0  0  0  0
 24 32  1  0  0  0  0
 25 27  1  0  0  0  0
 25 24  1  0  0  0  0
 26 24  1  0  0  0  0
 26 28  1  0  0  0  0
 28 31  1  0  0  0  0
 29 25  2  0  0  0  0
 31 30  1  0  0  0  0
 31 23  2  0  0  0  0
 32 30  1  0  0  0  0
 33 23  1  0  0  0  0
 33 21  1  0  0  0  0
 34 33  2  0  0  0  0
M  END
>  <MODEL>
1

>  <REMARK>
 VINA RESULT:     -12.5      0.000      0.000
  Name = 
  3 active torsions:
  status: ('A' for Active; 'I' for Inactive)
    1  A    between atoms: C_3  and  C_25
    2  A    between atoms: C_8  and  O_18
    3  A    between atoms: O_18  and  C_30
                            x       y       z     vdW  Elec       q    Type
                         _______ _______ _______ _____ _____    ______ ____

>  <TORSDO>
F 3

$$$$
=
 OpenBabel11052415373D

 34 39  0  0  0  0  0  0  0  0999 V2000
  186.8780  178.1560  143.9090 C   0  0  0  0  0  0  0  0  0  0  0  0
  187.9030  177.5550  147.4980 C   0  0  0  0  0  3  0  0  0  0  0  0
  185.8610  178.2460  146.5550 C   0  0  0  0  0  3  0  0  0  0  0  0
  186.1200  178.6340  141.4800 C   0  0  0  0  0  0  0  0  0  0  0  0
  187.2480  178.1640  142.4320 C   0  0  0  0  0  2  0  0  0  0  0  0
  184.6320  178.8850  143.3760 C   0  0  0  0  0  0  0  0  0  0  0  0
  183.5160  179.1730  144.0840 N   0  0  0  0  0  0  0  0  0  0  0  0
  184.8880  178.9570  141.9370 C   0  0  0  0  0  3  0  0  0  0  0  0
  185.0810  178.5680  145.4530 C   0  0  0  0  0  0  0  0  0  0  0  0
  185.5970  178.5110  144.2220 C   0  0  0  0  0  0  0  0  0  0  0  0
  183.7960  178.9740  145.3790 N   0  0  0  0  0  0  0  0  0  0  0  0
  189.2120  177.1460  147.7020 C   0  0  0  0  0  3  0  0  0  0  0  0
  190.2300  176.9150  146.7880 C   0  0  0  0  0  0  0  0  0  0  0  0
  190.1200  177.0640  145.4110 C   0  0  0  0  0  3  0  0  0  0  0  0
  187.2100  177.8580  146.3340 C   0  0  0  0  0  0  0  0  0  0  0  0
  189.0380  177.4520  144.6370 C   0  0  0  0  0  3  0  0  0  0  0  0
  187.7380  177.8110  144.9880 C   0  0  0  0  0  0  0  0  0  0  0  0
  191.5340  176.4820  147.3280 C   0  0  0  0  0  0  0  0  0  0  0  0
  192.1790  175.3680  146.8010 O   0  0  0  0  0  0  0  0  0  0  0  0
  192.0810  177.1130  148.2730 O   0  0  0  0  0  1  0  0  0  0  0  0
  186.3250  178.7010  140.0940 O   0  0  0  0  0  0  0  0  0  0  0  0
  189.7840  177.9930  139.1220 N   0  0  0  0  0  0  0  0  0  0  0  0
  187.2440  177.2550  138.3260 C   0  0  0  0  0  3  0  0  0  0  0  0
  190.6090  175.1940  136.9420 N   0  0  0  0  0  0  0  0  0  0  0  0
  191.7350  174.3150  136.8320 C   0  0  0  0  0  0  0  0  0  0  0  0
  190.8350  176.5770  137.3770 C   0  0  0  0  0  2  0  0  0  0  0  0
  191.5870  173.1330  136.4220 O   0  0  0  0  0  0  0  0  0  0  0  0
  189.6380  177.1120  138.0950 C   0  0  0  0  0  0  0  0  0  0  0  0
  193.0070  174.7580  137.1800 O   0  0  0  0  0  1  0  0  0  0  0  0
  188.2150  175.8000  136.5190 C   0  0  0  0  0  2  0  0  0  0  0  0
  188.3610  176.7270  137.6800 C   0  0  0  0  0  0  0  0  0  0  0  0
  189.2730  174.6940  136.5730 C   0  0  0  0  0  2  0  0  0  0  0  0
  187.4080  178.1610  139.3840 C   0  0  0  0  0  0  0  0  0  0  0  0
  188.7060  178.5120  139.7710 C   0  0  0  0  0  3  0  0  0  0  0  0
  1 10  1  0  0  0  0
  1 17  2  0  0  0  0
  2 12  1  0  0  0  0
  4  8  2  0  0  0  0
  4  5  1  0  0  0  0
  5  1  1  0  0  0  0
  6  7  1  0  0  0  0
  6 10  2  0  0  0  0
  7 11  2  0  0  0  0
  8  6  1  0  0  0  0
  9  3  2  0  0  0  0
 10  9  1  0  0  0  0
 11  9  1  0  0  0  0
 13 18  1  0  0  0  0
 13 12  2  0  0  0  0
 14 13  1  0  0  0  0
 15  3  1  0  0  0  0
 15  2  2  0  0  0  0
 16 17  1  0  0  0  0
 16 14  2  0  0  0  0
 17 15  1  0  0  0  0
 18 20  1  0  0  0  0
 19 18  2  0  0  0  0
 21  4  1  0  0  0  0
 22 34  1  0  0  0  0
 23 33  1  0  0  0  0
 24 26  1  0  0  0  0
 25 24  1  0  0  0  0
 25 29  1  0  0  0  0
 26 28  1  0  0  0  0
 27 25  2  0  0  0  0
 28 22  2  0  0  0  0
 30 32  1  0  0  0  0
 30 31  1  0  0  0  0
 31 28  1  0  0  0  0
 31 23  2  0  0  0  0
 32 24  1  0  0  0  0
 33 34  2  0  0  0  0
 33 21  1  0  0  0  0
M  END
>  <MODEL>
2

>  <REMARK>
 VINA RESULT:     -12.2      1.085      1.620
  Name = 
  3 active torsions:
  status: ('A' for Active; 'I' for Inactive)
    1  A    between atoms: C_3  and  C_25
    2  A    between atoms: C_8  and  O_18
    3  A    between atoms: O_18  and  C_30
                            x       y       z     vdW  Elec       q    Type
                         _______ _______ _______ _____ _____    ______ ____

>  <TORSDO>
F 3

$$$$
=
 OpenBabel11052415373D

 34 39  0  0  0  0  0  0  0  0999 V2000
  187.5620  177.8710  145.0190 C   0  0  0  0  0  0  0  0  0  0  0  0
  191.0900  176.8990  144.0680 C   0  0  0  0  0  3  0  0  0  0  0  0
  190.0800  177.2480  146.1650 C   0  0  0  0  0  3  0  0  0  0  0  0
  185.1800  178.5810  145.7410 C   0  0  0  0  0  0  0  0  0  0  0  0
  186.1470  178.2280  144.5850 C   0  0  0  0  0  3  0  0  0  0  0  0
  186.9420  178.1350  147.3440 C   0  0  0  0  0  0  0  0  0  0  0  0
  187.5780  178.0220  148.5320 N   0  0  0  0  0  2  0  0  0  0  0  0
  185.5640  178.5190  147.0370 C   0  0  0  0  0  3  0  0  0  0  0  0
  188.9750  177.5680  146.9410 C   0  0  0  0  0  0  0  0  0  0  0  0
  187.8050  177.8530  146.3620 C   0  0  0  0  0  0  0  0  0  0  0  0
  188.8450  177.6680  148.2810 N   0  0  0  0  0  0  0  0  0  0  0  0
  191.3490  176.7790  142.7120 C   0  0  0  0  0  3  0  0  0  0  0  0
  190.5110  176.9600  141.6210 C   0  0  0  0  0  0  0  0  0  0  0  0
  189.1710  177.3210  141.6910 C   0  0  0  0  0  3  0  0  0  0  0  0
  189.9290  177.2330  144.7520 C   0  0  0  0  0  0  0  0  0  0  0  0
  188.3700  177.5750  142.7930 C   0  0  0  0  0  3  0  0  0  0  0  0
  188.6490  177.5510  144.1580 C   0  0  0  0  0  0  0  0  0  0  0  0
  191.0960  176.7560  140.2810 C   0  0  0  0  0  0  0  0  0  0  0  0
  192.2830  177.3890  139.9280 O   0  0  0  0  0  1  0  0  0  0  0  0
  190.5290  176.0080  139.4390 O   0  0  0  0  0  0  0  0  0  0  0  0
  183.8480  178.9400  145.4870 O   0  0  0  0  0  0  0  0  0  0  0  0
  181.0960  178.8120  143.0730 N   0  0  0  0  0  0  0  0  0  0  0  0
  183.8560  178.7510  143.0310 C   0  0  0  0  0  3  0  0  0  0  0  0
  181.6700  179.3020  139.5100 N   0  0  0  0  0  0  0  0  0  0  0  0
  180.8960  179.8680  138.4450 C   0  0  0  0  0  0  0  0  0  0  0  0
  180.9680  178.6190  140.6040 C   0  0  0  0  0  2  0  0  0  0  0  0
  181.4640  180.4250  137.4680 O   0  0  0  0  0  0  0  0  0  0  0  0
  181.7410  178.7230  141.8790 C   0  0  0  0  0  0  0  0  0  0  0  0
  179.5070  179.8100  138.4800 O   0  0  0  0  0  1  0  0  0  0  0  0
  183.8310  178.5420  140.5260 C   0  0  0  0  0  2  0  0  0  0  0  0
  183.1370  178.6920  141.8390 C   0  0  0  0  0  0  0  0  0  0  0  0
  183.1400  179.3850  139.4490 C   0  0  0  0  0  2  0  0  0  0  0  0
  183.1800  178.8450  144.2560 C   0  0  0  0  0  0  0  0  0  0  0  0
  181.7810  178.8800  144.2480 C   0  0  0  0  0  3  0  0  0  0  0  0
  1 10  1  0  0  0  0
  2 15  1  0  0  0  0
  3  9  1  0  0  0  0
  4  8  2  0  0  0  0
  5  1  2  0  0  0  0
  5  4  1  0  0  0  0
  6  7  1  0  0  0  0
  8  6  1  0  0  0  0
  9 11  2  0  0  0  0
 10  9  1  0  0  0  0
 10  6  2  0  0  0  0
 11  7  1  0  0  0  0
 12  2  2  0  0  0  0
 13 14  2  0  0  0  0
 13 12  1  0  0  0  0
 14 16  1  0  0  0  0
 15  3  2  0  0  0  0
 16 17  2  0  0  0  0
 17 15  1  0  0  0  0
 17  1  1  0  0  0  0
 18 13  1  0  0  0  0
 19 18  1  0  0  0  0
 20 18  2  0  0  0  0
 21  4  1  0  0  0  0
 22 34  1  0  0  0  0
 23 33  1  0  0  0  0
 24 26  1  0  0  0  0
 25 29  1  0  0  0  0
 25 24  1  0  0  0  0
 26 28  1  0  0  0  0
 27 25  2  0  0  0  0
 28 22  2  0  0  0  0
 30 31  1  0  0  0  0
 31 28  1  0  0  0  0
 31 23  2  0  0  0  0
 32 24  1  0  0  0  0
 32 30  1  0  0  0  0
 33 21  1  0  0  0  0
 34 33  2  0  0  0  0
M  END
>  <MODEL>
3

>  <REMARK>
 VINA RESULT:     -11.8      3.705      7.224
  Name = 
  3 active torsions:
  status: ('A' for Active; 'I' for Inactive)
    1  A    between atoms: C_3  and  C_25
    2  A    between atoms: C_8  and  O_18
    3  A    between atoms: O_18  and  C_30
                            x       y       z     vdW  Elec       q    Type
                         _______ _______ _______ _____ _____    ______ ____

>  <TORSDO>
F 3

$$$$
=
 OpenBabel11052415373D

 34 39  0  0  0  0  0  0  0  0999 V2000
  186.6110  178.2340  143.9840 C   0  0  0  0  0  0  0  0  0  0  0  0
  187.9190  177.4880  147.4530 C   0  0  0  0  0  3  0  0  0  0  0  0
  185.8060  178.2070  146.7040 C   0  0  0  0  0  3  0  0  0  0  0  0
  185.6610  178.8080  141.6460 C   0  0  0  0  0  0  0  0  0  0  0  0
  186.8620  178.3060  142.4840 C   0  0  0  0  0  2  0  0  0  0  0  0
  184.3280  178.9710  143.6620 C   0  0  0  0  0  0  0  0  0  0  0  0
  183.2700  179.2230  144.4680 N   0  0  0  0  0  0  0  0  0  0  0  0
  184.4690  179.1050  142.2120 C   0  0  0  0  0  3  0  0  0  0  0  0
  184.9410  178.5700  145.6820 C   0  0  0  0  0  0  0  0  0  0  0  0
  185.3570  178.5670  144.4120 C   0  0  0  0  0  0  0  0  0  0  0  0
  183.6530  178.9720  145.7270 N   0  0  0  0  0  0  0  0  0  0  0  0
  189.2400  177.0790  147.5340 C   0  0  0  0  0  3  0  0  0  0  0  0
  190.1840  176.8920  146.5340 C   0  0  0  0  0  0  0  0  0  0  0  0
  189.9640  177.0980  145.1770 C   0  0  0  0  0  3  0  0  0  0  0  0
  187.1350  177.8360  146.3600 C   0  0  0  0  0  0  0  0  0  0  0  0
  188.8230  177.5120  144.5090 C   0  0  0  0  0  3  0  0  0  0  0  0
  187.5550  177.8480  144.9760 C   0  0  0  0  0  0  0  0  0  0  0  0
  191.5280  176.4440  146.9500 C   0  0  0  0  0  0  0  0  0  0  0  0
  192.1210  176.9680  148.0940 O   0  0  0  0  0  1  0  0  0  0  0  0
  192.1560  175.5830  146.2760 O   0  0  0  0  0  0  0  0  0  0  0  0
  185.7550  178.9350  140.2510 O   0  0  0  0  0  0  0  0  0  0  0  0
  184.7800  177.3760  137.0840 N   0  0  0  0  0  0  0  0  0  0  0  0
  183.6750  177.8020  139.5790 C   0  0  0  0  0  3  0  0  0  0  0  0
  181.8880  175.1730  136.8630 N   0  0  0  0  0  0  0  0  0  0  0  0
  181.5680  174.0260  136.0650 C   0  0  0  0  0  0  0  0  0  0  0  0
  182.7380  176.2190  136.2820 C   0  0  0  0  0  2  0  0  0  0  0  0
  180.8080  173.1270  136.5130 O   0  0  0  0  0  1  0  0  0  0  0  0
  183.5270  176.9160  137.3440 C   0  0  0  0  0  0  0  0  0  0  0  0
  182.0960  173.8930  134.7850 O   0  0  0  0  0  0  0  0  0  0  0  0
  181.5570  176.6550  138.8560 C   0  0  0  0  0  2  0  0  0  0  0  0
  182.9520  177.1210  138.6000 C   0  0  0  0  0  0  0  0  0  0  0  0
  181.3200  175.2830  138.2180 C   0  0  0  0  0  2  0  0  0  0  0  0
  184.9660  178.2710  139.3000 C   0  0  0  0  0  0  0  0  0  0  0  0
  185.5040  178.0360  138.0290 C   0  0  0  0  0  3  0  0  0  0  0  0
  1 10  1  0  0  0  0
  1 17  2  0  0  0  0
  2 12  1  0  0  0  0
  4  8  2  0  0  0  0
  4  5  1  0  0  0  0
  5  1  1  0  0  0  0
  6 10  2  0  0  0  0
  6  7  1  0  0  0  0
  7 11  2  0  0  0  0
  8  6  1  0  0  0  0
  9 11  1  0  0  0  0
  9  3  2  0  0  0  0
 10  9  1  0  0  0  0
 13 18  1  0  0  0  0
 13 12  2  0  0  0  0
 14 13  1  0  0  0  0
 15  3  1  0  0  0  0
 15  2  2  0  0  0  0
 16 17  1  0  0  0  0
 16 14  2  0  0  0  0
 17 15  1  0  0  0  0
 18 19  1  0  0  0  0
 20 18  2  0  0  0  0
 21  4  1  0  0  0  0
 22 28  2  0  0  0  0
 22 34  1  0  0  0  0
 24 32  1  0  0  0  0
 25 27  1  0  0  0  0
 25 24  1  0  0  0  0
 26 24  1  0  0  0  0
 26 28  1  0  0  0  0
 28 31  1  0  0  0  0
 29 25  2  0  0  0  0
 31 30  1  0  0  0  0
 31 23  2  0  0  0  0
 32 30  1  0  0  0  0
 33 23  1  0  0  0  0
 33 21  1  0  0  0  0
 34 33  2  0  0  0  0
M  END
>  <MODEL>
4

>  <REMARK>
 VINA RESULT:     -11.6      3.593      5.220
  Name = 
  3 active torsions:
  status: ('A' for Active; 'I' for Inactive)
    1  A    between atoms: C_3  and  C_25
    2  A    between atoms: C_8  and  O_18
    3  A    between atoms: O_18  and  C_30
                            x       y       z     vdW  Elec       q    Type
                         _______ _______ _______ _____ _____    ______ ____

>  <TORSDO>
F 3

$$$$
=
 OpenBabel11052415373D

 34 39  0  0  0  0  0  0  0  0999 V2000
  185.6950  178.4410  142.7550 C   0  0  0  0  0  0  0  0  0  0  0  0
  185.1950  178.3080  146.5000 C   0  0  0  0  0  3  0  0  0  0  0  0
  183.6750  178.6440  144.7350 C   0  0  0  0  0  3  0  0  0  0  0  0
  185.9690  178.5930  140.1850 C   0  0  0  0  0  0  0  0  0  0  0  0
  186.6380  178.3600  141.5620 C   0  0  0  0  0  2  0  0  0  0  0  0
  183.8180  178.8260  141.2750 C   0  0  0  0  0  0  0  0  0  0  0  0
  182.4900  179.0340  141.4330 N   0  0  0  0  0  0  0  0  0  0  0  0
  184.6370  178.7970  140.0630 C   0  0  0  0  0  3  0  0  0  0  0  0
  183.3960  178.7610  143.3810 C   0  0  0  0  0  0  0  0  0  0  0  0
  184.3750  178.6570  142.4780 C   0  0  0  0  0  0  0  0  0  0  0  0
  182.2270  178.9920  142.7450 N   0  0  0  0  0  0  0  0  0  0  0  0
  186.3320  178.0890  147.2630 C   0  0  0  0  0  3  0  0  0  0  0  0
  187.6510  177.9070  146.8720 C   0  0  0  0  0  0  0  0  0  0  0  0
  188.1060  177.9130  145.5600 C   0  0  0  0  0  3  0  0  0  0  0  0
  185.0220  178.4120  145.1260 C   0  0  0  0  0  0  0  0  0  0  0  0
  187.4120  178.0870  144.3730 C   0  0  0  0  0  3  0  0  0  0  0  0
  186.0590  178.3090  144.1230 C   0  0  0  0  0  0  0  0  0  0  0  0
  188.6470  177.6950  147.9420 C   0  0  0  0  0  0  0  0  0  0  0  0
  189.8650  177.0850  147.6580 O   0  0  0  0  0  0  0  0  0  0  0  0
  188.4080  178.0610  149.1240 O   0  0  0  0  0  1  0  0  0  0  0  0
  186.7200  178.5580  139.0000 O   0  0  0  0  0  0  0  0  0  0  0  0
  188.7130  175.9180  137.4290 N   0  0  0  0  0  0  0  0  0  0  0  0
  189.0420  177.8360  139.3880 C   0  0  0  0  0  3  0  0  0  0  0  0
  192.3310  175.7730  137.8340 N   0  0  0  0  0  0  0  0  0  0  0  0
  193.4090  175.3320  137.0000 C   0  0  0  0  0  0  0  0  0  0  0  0
  191.0340  175.0930  137.7250 C   0  0  0  0  0  2  0  0  0  0  0  0
  194.5480  175.8620  137.0940 O   0  0  0  0  0  1  0  0  0  0  0  0
  189.9140  176.0260  138.0590 C   0  0  0  0  0  0  0  0  0  0  0  0
  193.2100  174.3120  136.0760 O   0  0  0  0  0  0  0  0  0  0  0  0
  191.4040  177.0650  139.7710 C   0  0  0  0  0  2  0  0  0  0  0  0
  190.0990  176.9910  139.0520 C   0  0  0  0  0  0  0  0  0  0  0  0
  192.5700  176.8610  138.7990 C   0  0  0  0  0  2  0  0  0  0  0  0
  187.8100  177.7170  138.7290 C   0  0  0  0  0  0  0  0  0  0  0  0
  187.6730  176.7400  137.7360 C   0  0  0  0  0  3  0  0  0  0  0  0
  1 17  2  0  0  0  0
  2 12  1  0  0  0  0
  3 15  1  0  0  0  0
  4  5  1  0  0  0  0
  5  1  1  0  0  0  0
  6  7  1  0  0  0  0
  6 10  2  0  0  0  0
  7 11  2  0  0  0  0
  8  4  2  0  0  0  0
  8  6  1  0  0  0  0
  9  3  2  0  0  0  0
 10  1  1  0  0  0  0
 10  9  1  0  0  0  0
 11  9  1  0  0  0  0
 13 12  2  0  0  0  0
 13 18  1  0  0  0  0
 14 13  1  0  0  0  0
 15  2  2  0  0  0  0
 16 14  2  0  0  0  0
 17 16  1  0  0  0  0
 17 15  1  0  0  0  0
 18 20  1  0  0  0  0
 19 18  2  0  0  0  0
 21  4  1  0  0  0  0
 22 34  2  0  0  0  0
 22 28  1  0  0  0  0
 24 32  1  0  0  0  0
 25 27  1  0  0  0  0
 25 24  1  0  0  0  0
 26 24  1  0  0  0  0
 26 28  1  0  0  0  0
 28 31  2  0  0  0  0
 29 25  2  0  0  0  0
 31 23  1  0  0  0  0
 31 30  1  0  0  0  0
 32 30  1  0  0  0  0
 33 21  1  0  0  0  0
 33 23  2  0  0  0  0
 34 33  1  0  0  0  0
M  END
>  <MODEL>
5

>  <REMARK>
 VINA RESULT:     -11.5      1.450      2.081
  Name = 
  3 active torsions:
  status: ('A' for Active; 'I' for Inactive)
    1  A    between atoms: C_3  and  C_25
    2  A    between atoms: C_8  and  O_18
    3  A    between atoms: O_18  and  C_30
                            x       y       z     vdW  Elec       q    Type
                         _______ _______ _______ _____ _____    ______ ____

>  <TORSDO>
F 3

$$$$
=
 OpenBabel11052415373D

 34 39  0  0  0  0  0  0  0  0999 V2000
  187.6460  177.8550  144.6090 C   0  0  0  0  0  0  0  0  0  0  0  0
  184.1970  178.6350  145.9500 C   0  0  0  0  0  3  0  0  0  0  0  0
  186.2390  178.2220  147.0450 C   0  0  0  0  0  3  0  0  0  0  0  0
  190.0220  177.2700  143.7650 C   0  0  0  0  0  0  0  0  0  0  0  0
  188.5580  177.6290  143.4110 C   0  0  0  0  0  3  0  0  0  0  0  0
  189.4990  177.4850  146.1210 C   0  0  0  0  0  0  0  0  0  0  0  0
  189.6640  177.4740  147.4640 N   0  0  0  0  0  2  0  0  0  0  0  0
  190.4550  177.2200  145.0450 C   0  0  0  0  0  3  0  0  0  0  0  0
  187.5960  177.9310  147.0120 C   0  0  0  0  0  0  0  0  0  0  0  0
  188.2230  177.7680  145.8440 C   0  0  0  0  0  0  0  0  0  0  0  0
  188.4770  177.7530  148.0190 N   0  0  0  0  0  0  0  0  0  0  0  0
  183.2010  178.8250  145.0060 C   0  0  0  0  0  3  0  0  0  0  0  0
  183.2590  178.7750  143.6200 C   0  0  0  0  0  0  0  0  0  0  0  0
  184.4010  178.5070  142.8750 C   0  0  0  0  0  3  0  0  0  0  0  0
  185.5470  178.3400  145.8090 C   0  0  0  0  0  0  0  0  0  0  0  0
  185.6960  178.2380  143.2890 C   0  0  0  0  0  3  0  0  0  0  0  0
  186.2560  178.1530  144.5620 C   0  0  0  0  0  0  0  0  0  0  0  0
  182.0040  179.0250  142.8830 C   0  0  0  0  0  0  0  0  0  0  0  0
  181.9690  178.9190  141.4970 O   0  0  0  0  0  0  0  0  0  0  0  0
  180.9480  179.3360  143.4990 O   0  0  0  0  0  1  0  0  0  0  0  0
  190.9700  177.0240  142.7600 O   0  0  0  0  0  0  0  0  0  0  0  0
  191.6600  176.9070  139.1650 N   0  0  0  0  0  0  0  0  0  0  0  0
  189.4830  177.3070  140.8170 C   0  0  0  0  0  3  0  0  0  0  0  0
  188.9720  176.6280  136.7230 N   0  0  0  0  0  0  0  0  0  0  0  0
  188.8570  176.0120  135.4350 C   0  0  0  0  0  0  0  0  0  0  0  0
  190.2720  177.1760  137.1270 C   0  0  0  0  0  2  0  0  0  0  0  0
  187.7480  175.5670  135.0350 O   0  0  0  0  0  1  0  0  0  0  0  0
  190.4360  177.1200  138.6120 C   0  0  0  0  0  0  0  0  0  0  0  0
  189.9710  175.8970  134.6100 O   0  0  0  0  0  0  0  0  0  0  0  0
  187.9960  177.6070  138.8130 C   0  0  0  0  0  2  0  0  0  0  0  0
  189.3230  177.3230  139.4320 C   0  0  0  0  0  0  0  0  0  0  0  0
  187.7750  176.7280  137.5780 C   0  0  0  0  0  2  0  0  0  0  0  0
  190.7500  177.0840  141.3760 C   0  0  0  0  0  0  0  0  0  0  0  0
  191.8350  176.8780  140.5150 C   0  0  0  0  0  3  0  0  0  0  0  0
  1 10  1  0  0  0  0
  4  8  2  0  0  0  0
  5  4  1  0  0  0  0
  5  1  2  0  0  0  0
  6  7  1  0  0  0  0
  7 11  1  0  0  0  0
  8  6  1  0  0  0  0
  9  3  1  0  0  0  0
  9 11  2  0  0  0  0
 10  6  2  0  0  0  0
 10  9  1  0  0  0  0
 12  2  2  0  0  0  0
 13 12  1  0  0  0  0
 14 16  1  0  0  0  0
 14 13  2  0  0  0  0
 15  2  1  0  0  0  0
 15  3  2  0  0  0  0
 16 17  2  0  0  0  0
 17  1  1  0  0  0  0
 17 15  1  0  0  0  0
 18 20  1  0  0  0  0
 18 13  1  0  0  0  0
 19 18  2  0  0  0  0
 21  4  1  0  0  0  0
 22 34  1  0  0  0  0
 23 33  1  0  0  0  0
 24 26  1  0  0  0  0
 24 32  1  0  0  0  0
 25 24  1  0  0  0  0
 26 28  1  0  0  0  0
 27 25  1  0  0  0  0
 28 22  2  0  0  0  0
 28 31  1  0  0  0  0
 29 25  2  0  0  0  0
 30 31  1  0  0  0  0
 31 23  2  0  0  0  0
 32 30  1  0  0  0  0
 33 21  1  0  0  0  0
 34 33  2  0  0  0  0
M  END
>  <MODEL>
6

>  <REMARK>
 VINA RESULT:     -11.4      2.600      5.439
  Name = 
  3 active torsions:
  status: ('A' for Active; 'I' for Inactive)
    1  A    between atoms: C_3  and  C_25
    2  A    between atoms: C_8  and  O_18
    3  A    between atoms: O_18  and  C_30
                            x       y       z     vdW  Elec       q    Type
                         _______ _______ _______ _____ _____    ______ ____

>  <TORSDO>
F 3

$$$$
=
 OpenBabel11052415373D

 34 39  0  0  0  0  0  0  0  0999 V2000
  187.6220  177.8800  144.9950 C   0  0  0  0  0  0  0  0  0  0  0  0
  191.1380  176.8810  144.0280 C   0  0  0  0  0  3  0  0  0  0  0  0
  190.1260  177.1830  146.1310 C   0  0  0  0  0  3  0  0  0  0  0  0
  185.2490  178.6060  145.7310 C   0  0  0  0  0  0  0  0  0  0  0  0
  186.2140  178.2720  144.5670 C   0  0  0  0  0  3  0  0  0  0  0  0
  186.9970  178.0840  147.3250 C   0  0  0  0  0  0  0  0  0  0  0  0
  187.6270  177.9260  148.5120 N   0  0  0  0  0  2  0  0  0  0  0  0
  185.6260  178.5000  147.0250 C   0  0  0  0  0  3  0  0  0  0  0  0
  189.0220  177.4970  146.9120 C   0  0  0  0  0  0  0  0  0  0  0  0
  187.8590  177.8190  146.3380 C   0  0  0  0  0  0  0  0  0  0  0  0
  188.8890  177.5600  148.2540 N   0  0  0  0  0  0  0  0  0  0  0  0
  191.4000  176.7980  142.6700 C   0  0  0  0  0  3  0  0  0  0  0  0
  190.5690  177.0240  141.5810 C   0  0  0  0  0  0  0  0  0  0  0  0
  189.2350  177.4040  141.6580 C   0  0  0  0  0  3  0  0  0  0  0  0
  189.9790  177.2130  144.7170 C   0  0  0  0  0  0  0  0  0  0  0  0
  188.4340  177.6380  142.7640 C   0  0  0  0  0  3  0  0  0  0  0  0
  188.7070  177.5690  144.1290 C   0  0  0  0  0  0  0  0  0  0  0  0
  191.1560  176.8510  140.2380 C   0  0  0  0  0  0  0  0  0  0  0  0
  190.5560  176.0030  139.3120 O   0  0  0  0  0  0  0  0  0  0  0  0
  192.2070  177.4670  139.9110 O   0  0  0  0  0  1  0  0  0  0  0  0
  183.9230  178.9930  145.4820 O   0  0  0  0  0  0  0  0  0  0  0  0
  183.4030  178.9690  141.8570 N   0  0  0  0  0  0  0  0  0  0  0  0
  181.8700  178.7530  144.1440 C   0  0  0  0  0  3  0  0  0  0  0  0
  180.2730  177.8160  140.3950 N   0  0  0  0  0  0  0  0  0  0  0  0
  179.9300  177.1510  139.1720 C   0  0  0  0  0  0  0  0  0  0  0  0
  181.4110  178.7420  140.3960 C   0  0  0  0  0  2  0  0  0  0  0  0
  178.9340  176.3810  139.1210 O   0  0  0  0  0  1  0  0  0  0  0  0
  182.0610  178.7870  141.7420 C   0  0  0  0  0  0  0  0  0  0  0  0
  180.6940  177.3490  138.0280 O   0  0  0  0  0  0  0  0  0  0  0  0
  179.7910  178.5260  142.7490 C   0  0  0  0  0  2  0  0  0  0  0  0
  181.2690  178.6740  142.8880 C   0  0  0  0  0  0  0  0  0  0  0  0
  179.4480  177.5810  141.5930 C   0  0  0  0  0  2  0  0  0  0  0  0
  183.2560  178.9390  144.2490 C   0  0  0  0  0  0  0  0  0  0  0  0
  184.0100  179.0390  143.0730 C   0  0  0  0  0  3  0  0  0  0  0  0
  1 10  1  0  0  0  0
  2 15  1  0  0  0  0
  3  9  1  0  0  0  0
  4  8  2  0  0  0  0
  5  1  2  0  0  0  0
  5  4  1  0  0  0  0
  6  7  1  0  0  0  0
  8  6  1  0  0  0  0
  9 11  2  0  0  0  0
 10  9  1  0  0  0  0
 10  6  2  0  0  0  0
 11  7  1  0  0  0  0
 12  2  2  0  0  0  0
 13 14  2  0  0  0  0
 13 12  1  0  0  0  0
 14 16  1  0  0  0  0
 15  3  2  0  0  0  0
 16 17  2  0  0  0  0
 17 15  1  0  0  0  0
 17  1  1  0  0  0  0
 18 13  1  0  0  0  0
 19 18  2  0  0  0  0
 20 18  1  0  0  0  0
 21  4  1  0  0  0  0
 22 34  1  0  0  0  0
 23 33  1  0  0  0  0
 24 26  1  0  0  0  0
 24 32  1  0  0  0  0
 25 24  1  0  0  0  0
 26 28  1  0  0  0  0
 27 25  1  0  0  0  0
 28 22  2  0  0  0  0
 28 31  1  0  0  0  0
 29 25  2  0  0  0  0
 30 31  1  0  0  0  0
 31 23  2  0  0  0  0
 32 30  1  0  0  0  0
 33 21  1  0  0  0  0
 34 33  2  0  0  0  0
M  END
>  <MODEL>
7

>  <REMARK>
 VINA RESULT:     -11.4      3.601      7.621
  Name = 
  3 active torsions:
  status: ('A' for Active; 'I' for Inactive)
    1  A    between atoms: C_3  and  C_25
    2  A    between atoms: C_8  and  O_18
    3  A    between atoms: O_18  and  C_30
                            x       y       z     vdW  Elec       q    Type
                         _______ _______ _______ _____ _____    ______ ____

>  <TORSDO>
F 3

$$$$
=
 OpenBabel11052415373D

 34 39  0  0  0  0  0  0  0  0999 V2000
  187.8380  177.9640  143.4590 C   0  0  0  0  0  0  0  0  0  0  0  0
  188.2480  177.1680  147.1330 C   0  0  0  0  0  3  0  0  0  0  0  0
  186.3610  177.7960  145.8740 C   0  0  0  0  0  3  0  0  0  0  0  0
  187.4930  178.5690  140.9660 C   0  0  0  0  0  0  0  0  0  0  0  0
  188.4640  178.1030  142.0780 C   0  0  0  0  0  2  0  0  0  0  0  0
  185.6750  178.5870  142.5680 C   0  0  0  0  0  0  0  0  0  0  0  0
  184.4320  178.7510  143.0760 N   0  0  0  0  0  0  0  0  0  0  0  0
  186.1790  178.7790  141.2080 C   0  0  0  0  0  3  0  0  0  0  0  0
  185.7690  178.1470  144.6690 C   0  0  0  0  0  0  0  0  0  0  0  0
  186.4990  178.2130  143.5530 C   0  0  0  0  0  0  0  0  0  0  0  0
  184.4900  178.4770  144.3860 N   0  0  0  0  0  0  0  0  0  0  0  0
  189.5260  176.8290  147.5480 C   0  0  0  0  0  3  0  0  0  0  0  0
  190.7060  176.7300  146.8240 C   0  0  0  0  0  0  0  0  0  0  0  0
  190.8330  176.9710  145.4610 C   0  0  0  0  0  3  0  0  0  0  0  0
  187.7540  177.5110  145.8810 C   0  0  0  0  0  0  0  0  0  0  0  0
  189.8810  177.3460  144.5270 C   0  0  0  0  0  3  0  0  0  0  0  0
  188.5150  177.5960  144.6550 C   0  0  0  0  0  0  0  0  0  0  0  0
  191.9220  176.3410  147.5670 C   0  0  0  0  0  0  0  0  0  0  0  0
  192.4060  177.1460  148.5930 O   0  0  0  0  0  1  0  0  0  0  0  0
  192.5370  175.2780  147.2820 O   0  0  0  0  0  0  0  0  0  0  0  0
  187.9360  178.7500  139.6470 O   0  0  0  0  0  0  0  0  0  0  0  0
  191.0910  177.0180  138.9720 N   0  0  0  0  0  0  0  0  0  0  0  0
  188.6420  177.3590  137.7420 C   0  0  0  0  0  3  0  0  0  0  0  0
  191.3440  174.4740  136.3760 N   0  0  0  0  0  0  0  0  0  0  0  0
  192.1220  173.2810  136.2240 C   0  0  0  0  0  0  0  0  0  0  0  0
  191.9250  175.6040  137.1120 C   0  0  0  0  0  2  0  0  0  0  0  0
  191.6740  172.3050  135.5640 O   0  0  0  0  0  0  0  0  0  0  0  0
  190.8580  176.4130  137.7760 C   0  0  0  0  0  0  0  0  0  0  0  0
  193.3810  173.1850  136.8050 O   0  0  0  0  0  1  0  0  0  0  0  0
  189.3990  175.9470  135.8040 C   0  0  0  0  0  2  0  0  0  0  0  0
  189.6240  176.5740  137.1400 C   0  0  0  0  0  0  0  0  0  0  0  0
  190.0090  174.5430  135.7550 C   0  0  0  0  0  2  0  0  0  0  0  0
  188.8940  177.9750  138.9760 C   0  0  0  0  0  0  0  0  0  0  0  0
  190.1420  177.7800  139.5800 C   0  0  0  0  0  3  0  0  0  0  0  0
  1 10  1  0  0  0  0
  1 17  2  0  0  0  0
  2 12  1  0  0  0  0
  3 15  1  0  0  0  0
  4  8  2  0  0  0  0
  4  5  1  0  0  0  0
  5  1  1  0  0  0  0
  6  7  1  0  0  0  0
  6 10  2  0  0  0  0
  7 11  2  0  0  0  0
  8  6  1  0  0  0  0
  9  3  2  0  0  0  0
 10  9  1  0  0  0  0
 11  9  1  0  0  0  0
 13 12  2  0  0  0  0
 13 18  1  0  0  0  0
 14 13  1  0  0  0  0
 15  2  2  0  0  0  0
 16 17  1  0  0  0  0
 16 14  2  0  0  0  0
 17 15  1  0  0  0  0
 18 19  1  0  0  0  0
 20 18  2  0  0  0  0
 21  4  1  0  0  0  0
 22 34  1  0  0  0  0
 23 33  1  0  0  0  0
 24 26  1  0  0  0  0
 25 24  1  0  0  0  0
 25 29  1  0  0  0  0
 26 28  1  0  0  0  0
 27 25  2  0  0  0  0
 28 22  2  0  0  0  0
 30 31  1  0  0  0  0
 31 23  2  0  0  0  0
 31 28  1  0  0  0  0
 32 30  1  0  0  0  0
 32 24  1  0  0  0  0
 33 34  2  0  0  0  0
 33 21  1  0  0  0  0
M  END
>  <MODEL>
8

>  <REMARK>
 VINA RESULT:     -11.2      1.471      2.163
  Name = 
  3 active torsions:
  status: ('A' for Active; 'I' for Inactive)
    1  A    between atoms: C_3  and  C_25
    2  A    between atoms: C_8  and  O_18
    3  A    between atoms: O_18  and  C_30
                            x       y       z     vdW  Elec       q    Type
                         _______ _______ _______ _____ _____    ______ ____

>  <TORSDO>
F 3

$$$$
=
 OpenBabel11052415373D

 34 39  0  0  0  0  0  0  0  0999 V2000
  186.2860  178.3520  143.3090 C   0  0  0  0  0  0  0  0  0  0  0  0
  187.5890  177.6250  146.7830 C   0  0  0  0  0  3  0  0  0  0  0  0
  185.4550  178.2610  146.0190 C   0  0  0  0  0  3  0  0  0  0  0  0
  185.3370  178.9100  140.9660 C   0  0  0  0  0  0  0  0  0  0  0  0
  186.5500  178.4500  141.8120 C   0  0  0  0  0  2  0  0  0  0  0  0
  183.9770  178.9950  142.9690 C   0  0  0  0  0  0  0  0  0  0  0  0
  182.9020  179.1930  143.7660 N   0  0  0  0  0  0  0  0  0  0  0  0
  184.1280  179.1490  141.5220 C   0  0  0  0  0  3  0  0  0  0  0  0
  184.5860  178.5980  144.9910 C   0  0  0  0  0  0  0  0  0  0  0  0
  185.0150  178.6270  143.7270 C   0  0  0  0  0  0  0  0  0  0  0  0
  183.2820  178.9440  145.0270 N   0  0  0  0  0  0  0  0  0  0  0  0
  188.9250  177.2710  146.8750 C   0  0  0  0  0  3  0  0  0  0  0  0
  189.8870  177.1360  145.8830 C   0  0  0  0  0  0  0  0  0  0  0  0
  189.6720  177.3460  144.5270 C   0  0  0  0  0  3  0  0  0  0  0  0
  186.8020  177.9510  145.6860 C   0  0  0  0  0  0  0  0  0  0  0  0
  188.5220  177.7180  143.8500 C   0  0  0  0  0  3  0  0  0  0  0  0
  187.2350  177.9960  144.3070 C   0  0  0  0  0  0  0  0  0  0  0  0
  191.2440  176.7410  146.3090 C   0  0  0  0  0  0  0  0  0  0  0  0
  191.6490  176.9250  147.6270 O   0  0  0  0  0  1  0  0  0  0  0  0
  192.0540  176.2330  145.4870 O   0  0  0  0  0  0  0  0  0  0  0  0
  185.4400  179.0560  139.5740 O   0  0  0  0  0  0  0  0  0  0  0  0
  188.0710  177.1510  137.8830 N   0  0  0  0  0  0  0  0  0  0  0  0
  185.3190  177.3590  137.7930 C   0  0  0  0  0  3  0  0  0  0  0  0
  187.2960  174.2200  135.8630 N   0  0  0  0  0  0  0  0  0  0  0  0
  187.9840  172.9970  135.5780 C   0  0  0  0  0  0  0  0  0  0  0  0
  188.0860  175.4360  136.0900 C   0  0  0  0  0  2  0  0  0  0  0  0
  187.3400  171.9420  135.3360 O   0  0  0  0  0  0  0  0  0  0  0  0
  187.3730  176.3700  137.0150 C   0  0  0  0  0  0  0  0  0  0  0  0
  189.3740  172.9610  135.5660 O   0  0  0  0  0  1  0  0  0  0  0  0
  185.2310  175.6370  135.9640 C   0  0  0  0  0  2  0  0  0  0  0  0
  185.9800  176.4610  136.9570 C   0  0  0  0  0  0  0  0  0  0  0  0
  185.8220  174.2260  135.8760 C   0  0  0  0  0  2  0  0  0  0  0  0
  186.0500  178.1570  138.6850 C   0  0  0  0  0  0  0  0  0  0  0  0
  187.4430  178.0270  138.7140 C   0  0  0  0  0  3  0  0  0  0  0  0
  1 10  1  0  0  0  0
  1 17  2  0  0  0  0
  2 12  1  0  0  0  0
  4  8  2  0  0  0  0
  4  5  1  0  0  0  0
  5  1  1  0  0  0  0
  6 10  2  0  0  0  0
  6  7  1  0  0  0  0
  7 11  2  0  0  0  0
  8  6  1  0  0  0  0
  9 11  1  0  0  0  0
  9  3  2  0  0  0  0
 10  9  1  0  0  0  0
 13 18  1  0  0  0  0
 13 12  2  0  0  0  0
 14 13  1  0  0  0  0
 15  3  1  0  0  0  0
 15  2  2  0  0  0  0
 16 17  1  0  0  0  0
 16 14  2  0  0  0  0
 17 15  1  0  0  0  0
 18 19  1  0  0  0  0
 20 18  2  0  0  0  0
 21  4  1  0  0  0  0
 22 34  1  0  0  0  0
 23 33  1  0  0  0  0
 24 32  1  0  0  0  0
 24 26  1  0  0  0  0
 25 24  1  0  0  0  0
 26 28  1  0  0  0  0
 27 25  2  0  0  0  0
 28 22  2  0  0  0  0
 29 25  1  0  0  0  0
 30 31  1  0  0  0  0
 31 28  1  0  0  0  0
 31 23  2  0  0  0  0
 32 30  1  0  0  0  0
 33 34  2  0  0  0  0
 33 21  1  0  0  0  0
M  END
>  <MODEL>
9

>  <REMARK>
 VINA RESULT:     -11.1      2.209      3.084
  Name = 
  3 active torsions:
  status: ('A' for Active; 'I' for Inactive)
    1  A    between atoms: C_3  and  C_25
    2  A    between atoms: C_8  and  O_18
    3  A    between atoms: O_18  and  C_30
                            x       y       z     vdW  Elec       q    Type
                         _______ _______ _______ _____ _____    ______ ____

>  <TORSDO>
F 3

$$$$
