=
 OpenBabel11052416233D

 43 47  0  0  1  0  0  0  0  0999 V2000
  191.2320  176.5340  146.9590 C   0  0  0  0  0  0  0  0  0  0  0  0
  187.1240  177.7080  144.2460 C   0  0  0  0  0  0  0  0  0  0  0  0
  187.9140  178.3530  141.6220 C   0  0  2  0  0  3  0  0  0  0  0  0
  188.9750  177.0710  146.2570 C   0  0  0  0  0  0  0  0  0  0  0  0
  191.6640  176.6110  145.6370 C   0  0  0  0  0  3  0  0  0  0  0  0
  192.2030  176.2160  148.0410 C   0  0  0  0  0  1  0  0  0  0  0  0
  189.4050  177.1620  144.9140 C   0  0  0  0  0  0  0  0  0  0  0  0
  189.8900  176.7650  147.2680 C   0  0  0  0  0  3  0  0  0  0  0  0
  190.7580  176.9240  144.6200 C   0  0  0  0  0  3  0  0  0  0  0  0
  188.9000  177.5390  142.4630 C   0  0  0  0  0  2  0  0  0  0  0  0
  188.4770  177.4930  143.9050 C   0  0  0  0  0  0  0  0  0  0  0  0
  186.7180  177.6030  145.5780 C   0  0  0  0  0  3  0  0  0  0  0  0
  186.1050  178.0920  143.2020 C   0  0  2  0  0  3  0  0  0  0  0  0
  186.5550  177.8410  141.8270 N   0  0  0  0  0  2  0  0  0  0  0  0
  187.6360  177.2870  146.5780 C   0  0  0  0  0  3  0  0  0  0  0  0
  188.2800  178.3190  140.1320 C   0  0  2  0  0  3  0  0  0  0  0  0
  187.0440  178.1070  139.2610 C   0  0  0  0  0  1  0  0  0  0  0  0
  189.2440  177.2530  139.8820 N   0  0  0  0  0  2  0  0  0  0  0  0
  189.9330  177.0930  138.6410 C   0  0  0  0  0  0  0  0  0  0  0  0
  189.9430  178.0230  137.7910 O   0  0  0  0  0  0  0  0  0  0  0  0
  190.5710  175.7740  138.3100 C   0  0  0  0  0  2  0  0  0  0  0  0
  190.3470  175.3380  136.9270 N   0  0  0  0  0  0  0  0  0  0  0  0
  191.5390  174.6600  136.4240 C   0  0  0  0  0  2  0  0  0  0  0  0
  193.5770  176.0870  136.3840 C   0  0  0  0  0  1  0  0  0  0  0  0
  192.7650  175.1020  137.2010 C   0  0  0  0  0  2  0  0  0  0  0  0
  189.2210  174.4140  136.8610 C   0  0  0  0  0  2  0  0  0  0  0  0
  187.9910  175.1370  136.4150 C   0  0  0  0  0  0  0  0  0  0  0  0
  188.1140  176.1200  135.6330 O   0  0  0  0  0  0  0  0  0  0  0  0
  186.6470  174.7060  136.8610 C   0  0  0  0  0  0  0  0  0  0  0  0
  185.1660  172.9700  137.7020 C   0  0  0  0  0  3  0  0  0  0  0  0
  184.3070  175.1960  137.2990 C   0  0  0  0  0  3  0  0  0  0  0  0
  184.1040  173.8780  137.7150 C   0  0  0  0  0  3  0  0  0  0  0  0
  185.5720  175.6080  136.8710 C   0  0  0  0  0  3  0  0  0  0  0  0
  186.4350  173.3810  137.2740 C   0  0  0  0  0  3  0  0  0  0  0  0
  185.6510  179.5350  143.3800 C   0  0  0  0  0  2  0  0  0  0  0  0
  182.1390  178.7440  142.0350 C   0  0  0  0  0  3  0  0  0  0  0  0
  181.4660  178.6430  143.2000 C   0  0  0  0  0  0  0  0  0  0  0  0
  183.4760  179.1610  144.5070 C   0  0  0  0  0  3  0  0  0  0  0  0
  183.6430  178.8340  142.0310 C   0  0  0  0  0  2  0  0  0  0  0  0
  184.1410  179.6510  143.2430 C   0  0  2  0  0  3  0  0  0  0  0  0
  182.2100  178.7170  144.4800 C   0  0  0  0  0  3  0  0  0  0  0  0
  180.0760  178.4780  143.2360 O   0  0  0  0  0  0  0  0  0  0  0  0
  179.2900  178.7820  144.3850 C   0  0  0  0  0  1  0  0  0  0  0  0
  1  8  1  0  0  0  0
  1  6  1  0  0  0  0
  2 12  1  0  0  0  0
  3 16  1  6  0  0  0
  3 14  1  0  0  0  0
  3 10  1  0  0  0  0
  4 15  1  0  0  0  0
  4  8  2  0  0  0  0
  5  1  2  0  0  0  0
  7  4  1  0  0  0  0
  9  7  2  0  0  0  0
  9  5  1  0  0  0  0
 10 11  1  0  0  0  0
 11  2  2  0  0  0  0
 11  7  1  0  0  0  0
 12 15  2  0  0  0  0
 13 35  1  6  0  0  0
 13  2  1  0  0  0  0
 14 13  1  0  0  0  0
 16 17  1  6  0  0  0
 18 16  1  0  0  0  0
 19 18  1  0  0  0  0
 20 19  2  0  0  0  0
 21 19  1  0  0  0  0
 22 21  1  0  0  0  0
 23 22  1  0  0  0  0
 23 25  1  0  0  0  0
 24 25  1  0  0  0  0
 26 22  1  0  0  0  0
 27 29  1  0  0  0  0
 27 26  1  0  0  0  0
 28 27  2  0  0  0  0
 29 33  2  0  0  0  0
 29 34  1  0  0  0  0
 30 32  1  0  0  0  0
 31 32  2  0  0  0  0
 33 31  1  0  0  0  0
 34 30  2  0  0  0  0
 36 37  2  0  0  0  0
 37 42  1  0  0  0  0
 37 41  1  0  0  0  0
 39 36  1  0  0  0  0
 39 40  1  0  0  0  0
 40 35  1  1  0  0  0
 40 38  1  0  0  0  0
 41 38  2  0  0  0  0
 42 43  1  0  0  0  0
M  END
>  <MODEL>
1

>  <REMARK>
 VINA RESULT:      -9.0      0.000      0.000
  Name = 
  12 active torsions:
  status: ('A' for Active; 'I' for Inactive)
    1  A    between atoms: C_1  and  C_34
    2  A    between atoms: C_1  and  C_35
    3  A    between atoms: C_2  and  N_6
    4  A    between atoms: C_2  and  C_13
    5  A    between atoms: C_3  and  N_4
    6  A    between atoms: C_3  and  C_12
    7  A    between atoms: N_4  and  C_15
    8  A    between atoms: N_4  and  C_22
    9  A    between atoms: C_11  and  C_14
   10  A    between atoms: C_14  and  C_22
   11  A    between atoms: C_15  and  C_42
   12  A    between atoms: C_19  and  O_25
                            x       y       z     vdW  Elec       q    Type
                         _______ _______ _______ _____ _____    ______ ____

>  <TORSDO>
F 12

$$$$
=
 OpenBabel11052416233D

 43 47  0  0  1  0  0  0  0  0999 V2000
  193.6900  175.1970  136.6250 C   0  0  0  0  0  0  0  0  0  0  0  0
  189.1400  177.3570  137.1240 C   0  0  0  0  0  0  0  0  0  0  0  0
  188.6130  177.7570  139.8600 C   0  0  2  0  0  3  0  0  0  0  0  0
  191.4770  176.0950  136.2140 C   0  0  0  0  0  0  0  0  0  0  0  0
  193.5980  175.5740  137.9630 C   0  0  0  0  0  3  0  0  0  0  0  0
  194.9140  174.5100  136.1290 C   0  0  0  0  0  1  0  0  0  0  0  0
  191.3690  176.4720  137.5720 C   0  0  0  0  0  0  0  0  0  0  0  0
  192.6310  175.4570  135.7520 C   0  0  0  0  0  3  0  0  0  0  0  0
  192.4450  176.2070  138.4350 C   0  0  0  0  0  3  0  0  0  0  0  0
  190.0750  177.5570  139.4580 C   0  0  0  0  0  2  0  0  0  0  0  0
  190.1910  177.0960  138.0310 C   0  0  0  0  0  0  0  0  0  0  0  0
  189.2720  176.9850  135.7830 C   0  0  0  0  0  3  0  0  0  0  0  0
  187.8530  177.9960  137.5790 C   0  0  2  0  0  3  0  0  0  0  0  0
  187.9550  178.6420  138.8940 N   0  0  0  0  0  2  0  0  0  0  0  0
  190.4320  176.3580  135.3310 C   0  0  0  0  0  3  0  0  0  0  0  0
  188.4890  178.3260  141.2800 C   0  0  2  0  0  3  0  0  0  0  0  0
  189.7260  178.0060  142.1160 C   0  0  0  0  0  1  0  0  0  0  0  0
  187.3030  177.7810  141.9310 N   0  0  0  0  0  2  0  0  0  0  0  0
  186.1170  178.5410  142.1650 C   0  0  0  0  0  0  0  0  0  0  0  0
  185.9380  179.6430  141.5810 O   0  0  0  0  0  0  0  0  0  0  0  0
  185.1200  178.0670  143.1850 C   0  0  0  0  0  2  0  0  0  0  0  0
  185.0020  178.9500  144.3520 N   0  0  0  0  0  0  0  0  0  0  0  0
  183.7460  179.6920  144.2840 C   0  0  0  0  0  2  0  0  0  0  0  0
  181.6050  179.0740  143.1750 C   0  0  0  0  0  1  0  0  0  0  0  0
  182.5670  178.7370  144.2970 C   0  0  0  0  0  2  0  0  0  0  0  0
  185.0170  178.1690  145.5830 C   0  0  0  0  0  2  0  0  0  0  0  0
  186.0070  178.7450  146.5420 C   0  0  0  0  0  0  0  0  0  0  0  0
  185.6670  179.7370  147.2450 O   0  0  0  0  0  0  0  0  0  0  0  0
  187.3590  178.1610  146.6880 C   0  0  0  0  0  0  0  0  0  0  0  0
  189.3110  177.1010  145.6970 C   0  0  0  0  0  3  0  0  0  0  0  0
  189.2620  177.5550  148.0740 C   0  0  0  0  0  3  0  0  0  0  0  0
  189.9270  177.0560  146.9500 C   0  0  0  0  0  3  0  0  0  0  0  0
  187.9840  178.1030  147.9430 C   0  0  0  0  0  3  0  0  0  0  0  0
  188.0290  177.6500  145.5650 C   0  0  0  0  0  3  0  0  0  0  0  0
  186.7000  177.0010  137.5410 C   0  0  0  0  0  2  0  0  0  0  0  0
  183.1070  177.3730  136.2290 C   0  0  0  0  0  3  0  0  0  0  0  0
  182.5490  178.0210  137.2720 C   0  0  0  0  0  0  0  0  0  0  0  0
  184.6750  178.0650  138.4950 C   0  0  0  0  0  3  0  0  0  0  0  0
  184.4910  176.7910  136.3480 C   0  0  0  0  0  2  0  0  0  0  0  0
  185.3890  177.7000  137.2150 C   0  0  2  0  0  3  0  0  0  0  0  0
  183.3450  178.2420  138.5030 C   0  0  0  0  0  3  0  0  0  0  0  0
  181.2350  178.5040  137.2220 O   0  0  0  0  0  0  0  0  0  0  0  0
  180.1280  177.7940  137.7700 C   0  0  0  0  0  1  0  0  0  0  0  0
  1  5  1  0  0  0  0
  2 13  1  0  0  0  0
  2 11  1  0  0  0  0
  3 16  1  1  0  0  0
  4  7  1  0  0  0  0
  5  9  2  0  0  0  0
  6  1  1  0  0  0  0
  7 11  2  0  0  0  0
  7  9  1  0  0  0  0
  8  4  1  0  0  0  0
  8  1  2  0  0  0  0
 10  3  1  0  0  0  0
 11 10  1  0  0  0  0
 12  2  2  0  0  0  0
 13 35  1  1  0  0  0
 13 14  1  0  0  0  0
 14  3  1  0  0  0  0
 15 12  1  0  0  0  0
 15  4  2  0  0  0  0
 16 18  1  0  0  0  0
 16 17  1  1  0  0  0
 18 19  1  0  0  0  0
 19 21  1  0  0  0  0
 20 19  2  0  0  0  0
 21 22  1  0  0  0  0
 22 26  1  0  0  0  0
 23 25  1  0  0  0  0
 23 22  1  0  0  0  0
 24 25  1  0  0  0  0
 26 27  1  0  0  0  0
 27 29  1  0  0  0  0
 27 28  2  0  0  0  0
 29 33  1  0  0  0  0
 30 32  2  0  0  0  0
 32 31  1  0  0  0  0
 33 31  2  0  0  0  0
 34 30  1  0  0  0  0
 34 29  2  0  0  0  0
 36 39  1  0  0  0  0
 36 37  2  0  0  0  0
 37 41  1  0  0  0  0
 38 41  2  0  0  0  0
 39 40  1  0  0  0  0
 40 35  1  1  0  0  0
 40 38  1  0  0  0  0
 42 37  1  0  0  0  0
 42 43  1  0  0  0  0
M  END
>  <MODEL>
2

>  <REMARK>
 VINA RESULT:      -9.0      2.508      8.718
  Name = 
  12 active torsions:
  status: ('A' for Active; 'I' for Inactive)
    1  A    between atoms: C_1  and  C_34
    2  A    between atoms: C_1  and  C_35
    3  A    between atoms: C_2  and  N_6
    4  A    between atoms: C_2  and  C_13
    5  A    between atoms: C_3  and  N_4
    6  A    between atoms: C_3  and  C_12
    7  A    between atoms: N_4  and  C_15
    8  A    between atoms: N_4  and  C_22
    9  A    between atoms: C_11  and  C_14
   10  A    between atoms: C_14  and  C_22
   11  A    between atoms: C_15  and  C_42
   12  A    between atoms: C_19  and  O_25
                            x       y       z     vdW  Elec       q    Type
                         _______ _______ _______ _____ _____    ______ ____

>  <TORSDO>
F 12

$$$$
=
 OpenBabel11052416233D

 43 47  0  0  1  0  0  0  0  0999 V2000
  184.1770  178.5760  138.5450 C   0  0  0  0  0  0  0  0  0  0  0  0
  188.6470  176.3420  137.7460 C   0  0  0  0  0  0  0  0  0  0  0  0
  190.5460  177.4350  139.5140 C   0  0  2  0  0  3  0  0  0  0  0  0
  185.9950  177.2550  137.6380 C   0  0  0  0  0  0  0  0  0  0  0  0
  184.9960  178.9890  139.5940 C   0  0  0  0  0  3  0  0  0  0  0  0
  182.7730  179.0650  138.4620 C   0  0  0  0  0  1  0  0  0  0  0  0
  186.8380  177.6760  138.6930 C   0  0  0  0  0  0  0  0  0  0  0  0
  184.6760  177.7110  137.5690 C   0  0  0  0  0  3  0  0  0  0  0  0
  186.3180  178.5430  139.6670 C   0  0  0  0  0  3  0  0  0  0  0  0
  189.0710  177.6150  139.8810 C   0  0  0  0  0  2  0  0  0  0  0  0
  188.1730  177.2260  138.7400 C   0  0  0  0  0  0  0  0  0  0  0  0
  187.7950  175.9300  136.7190 C   0  0  0  0  0  3  0  0  0  0  0  0
  190.0760  175.8600  137.7430 C   0  0  2  0  0  3  0  0  0  0  0  0
  190.7650  176.0720  139.0230 N   0  0  0  0  0  2  0  0  0  0  0  0
  186.4770  176.3830  136.6640 C   0  0  0  0  0  3  0  0  0  0  0  0
  191.4660  177.7300  140.7060 C   0  0  2  0  0  3  0  0  0  0  0  0
  192.8990  177.2860  140.4250 C   0  0  0  0  0  1  0  0  0  0  0  0
  190.9670  177.0510  141.8980 N   0  0  0  0  0  2  0  0  0  0  0  0
  191.2470  177.4910  143.2270 C   0  0  0  0  0  0  0  0  0  0  0  0
  191.7160  178.6420  143.4340 O   0  0  0  0  0  0  0  0  0  0  0  0
  191.0680  176.5410  144.3770 C   0  0  0  0  0  2  0  0  0  0  0  0
  189.8380  176.7680  145.1470 N   0  0  0  0  0  0  0  0  0  0  0  0
  190.1760  177.1770  146.5070 C   0  0  0  0  0  2  0  0  0  0  0  0
  188.7200  178.1240  148.2900 C   0  0  0  0  0  1  0  0  0  0  0  0
  189.0150  176.9000  147.4450 C   0  0  0  0  0  2  0  0  0  0  0  0
  189.0390  177.8200  144.5270 C   0  0  0  0  0  2  0  0  0  0  0  0
  187.7900  177.2390  143.9480 C   0  0  0  0  0  0  0  0  0  0  0  0
  187.8800  176.2260  143.2010 O   0  0  0  0  0  0  0  0  0  0  0  0
  186.4640  177.8210  144.2550 C   0  0  0  0  0  0  0  0  0  0  0  0
  184.8720  178.6920  145.8740 C   0  0  0  0  0  3  0  0  0  0  0  0
  184.2840  178.6140  143.5280 C   0  0  0  0  0  3  0  0  0  0  0  0
  183.9540  178.9320  144.8480 C   0  0  0  0  0  3  0  0  0  0  0  0
  185.5320  178.0590  143.2330 C   0  0  0  0  0  3  0  0  0  0  0  0
  186.1230  178.1360  145.5800 C   0  0  0  0  0  3  0  0  0  0  0  0
  190.8600  176.4660  136.5870 C   0  0  0  0  0  2  0  0  0  0  0  0
  194.4120  174.9990  136.6420 C   0  0  0  0  0  3  0  0  0  0  0  0
  194.1150  173.6830  136.6500 C   0  0  0  0  0  0  0  0  0  0  0  0
  191.7060  174.1370  136.5720 C   0  0  0  0  0  3  0  0  0  0  0  0
  193.3270  176.0250  136.8440 C   0  0  0  0  0  2  0  0  0  0  0  0
  192.0130  175.5620  136.1780 C   0  0  2  0  0  3  0  0  0  0  0  0
  192.7010  173.2560  136.7630 C   0  0  0  0  0  3  0  0  0  0  0  0
  195.1100  172.7030  136.5450 O   0  0  0  0  0  0  0  0  0  0  0  0
  196.0560  172.4470  137.5790 C   0  0  0  0  0  1  0  0  0  0  0  0
  1  5  1  0  0  0  0
  2 11  1  0  0  0  0
  3 10  1  0  0  0  0
  3 16  1  1  0  0  0
  4  7  1  0  0  0  0
  5  9  2  0  0  0  0
  6  1  1  0  0  0  0
  7 11  2  0  0  0  0
  7  9  1  0  0  0  0
  8  4  1  0  0  0  0
  8  1  2  0  0  0  0
 11 10  1  0  0  0  0
 12  2  2  0  0  0  0
 13 35  1  6  0  0  0
 13  2  1  0  0  0  0
 13 14  1  0  0  0  0
 14  3  1  0  0  0  0
 15 12  1  0  0  0  0
 15  4  2  0  0  0  0
 16 17  1  6  0  0  0
 16 18  1  0  0  0  0
 18 19  1  0  0  0  0
 19 20  2  0  0  0  0
 19 21  1  0  0  0  0
 21 22  1  0  0  0  0
 22 23  1  0  0  0  0
 23 25  1  0  0  0  0
 25 24  1  0  0  0  0
 26 22  1  0  0  0  0
 27 29  1  0  0  0  0
 27 26  1  0  0  0  0
 28 27  2  0  0  0  0
 29 34  1  0  0  0  0
 31 32  2  0  0  0  0
 32 30  1  0  0  0  0
 33 31  1  0  0  0  0
 33 29  2  0  0  0  0
 34 30  2  0  0  0  0
 36 37  2  0  0  0  0
 36 39  1  0  0  0  0
 37 41  1  0  0  0  0
 38 41  2  0  0  0  0
 40 38  1  0  0  0  0
 40 35  1  1  0  0  0
 40 39  1  0  0  0  0
 42 37  1  0  0  0  0
 42 43  1  0  0  0  0
M  END
>  <MODEL>
3

>  <REMARK>
 VINA RESULT:      -9.0      2.725      9.741
  Name = 
  12 active torsions:
  status: ('A' for Active; 'I' for Inactive)
    1  A    between atoms: C_1  and  C_34
    2  A    between atoms: C_1  and  C_35
    3  A    between atoms: C_2  and  N_6
    4  A    between atoms: C_2  and  C_13
    5  A    between atoms: C_3  and  N_4
    6  A    between atoms: C_3  and  C_12
    7  A    between atoms: N_4  and  C_15
    8  A    between atoms: N_4  and  C_22
    9  A    between atoms: C_11  and  C_14
   10  A    between atoms: C_14  and  C_22
   11  A    between atoms: C_15  and  C_42
   12  A    between atoms: C_19  and  O_25
                            x       y       z     vdW  Elec       q    Type
                         _______ _______ _______ _____ _____    ______ ____

>  <TORSDO>
F 12

$$$$
=
 OpenBabel11052416233D

 43 47  0  0  1  0  0  0  0  0999 V2000
  185.4940  178.5190  145.8320 C   0  0  0  0  0  0  0  0  0  0  0  0
  182.3380  178.7070  141.8800 C   0  0  0  0  0  0  0  0  0  0  0  0
  183.8480  178.7530  139.5050 C   0  0  2  0  0  3  0  0  0  0  0  0
  183.5340  178.7080  144.4190 C   0  0  0  0  0  0  0  0  0  0  0  0
  186.2880  178.3040  144.7070 C   0  0  0  0  0  3  0  0  0  0  0  0
  186.1140  178.5410  147.1860 C   0  0  0  0  0  1  0  0  0  0  0  0
  184.3320  178.5020  143.2710 C   0  0  0  0  0  0  0  0  0  0  0  0
  184.1200  178.7200  145.6880 C   0  0  0  0  0  3  0  0  0  0  0  0
  185.7110  178.2970  143.4340 C   0  0  0  0  0  3  0  0  0  0  0  0
  184.5510  178.2400  140.7630 C   0  0  0  0  0  2  0  0  0  0  0  0
  183.7320  178.5120  141.9940 C   0  0  0  0  0  0  0  0  0  0  0  0
  181.5670  178.8980  143.0290 C   0  0  0  0  0  3  0  0  0  0  0  0
  181.6620  178.7540  140.5330 C   0  0  2  0  0  3  0  0  0  0  0  0
  182.4880  178.2110  139.4460 N   0  0  0  0  0  2  0  0  0  0  0  0
  182.1600  178.8990  144.2910 C   0  0  0  0  0  3  0  0  0  0  0  0
  184.6260  178.3880  138.2340 C   0  0  2  0  0  3  0  0  0  0  0  0
  184.4480  176.9130  137.8770 C   0  0  0  0  0  1  0  0  0  0  0  0
  186.0440  178.6780  138.4190 N   0  0  0  0  0  2  0  0  0  0  0  0
  187.0400  178.3880  137.4380 C   0  0  0  0  0  0  0  0  0  0  0  0
  186.7090  178.1120  136.2530 O   0  0  0  0  0  0  0  0  0  0  0  0
  188.4850  178.3210  137.8420 C   0  0  0  0  0  2  0  0  0  0  0  0
  188.7980  177.1990  138.7370 N   0  0  0  0  0  0  0  0  0  0  0  0
  189.3290  176.0830  137.9610 C   0  0  0  0  0  2  0  0  0  0  0  0
  191.7170  175.8650  137.2940 C   0  0  0  0  0  1  0  0  0  0  0  0
  190.4050  176.5670  137.0060 C   0  0  0  0  0  2  0  0  0  0  0  0
  189.7960  177.6000  139.7220 C   0  0  0  0  0  2  0  0  0  0  0  0
  189.1400  177.8470  141.0420 C   0  0  0  0  0  0  0  0  0  0  0  0
  187.9810  178.3470  141.0620 O   0  0  0  0  0  0  0  0  0  0  0  0
  189.8190  177.4970  142.3100 C   0  0  0  0  0  0  0  0  0  0  0  0
  190.3100  177.9930  144.6400 C   0  0  0  0  0  3  0  0  0  0  0  0
  191.2510  176.0190  143.6040 C   0  0  0  0  0  3  0  0  0  0  0  0
  191.0960  176.8410  144.7230 C   0  0  0  0  0  3  0  0  0  0  0  0
  190.6170  176.3470  142.4020 C   0  0  0  0  0  3  0  0  0  0  0  0
  189.6740  178.3220  143.4360 C   0  0  0  0  0  3  0  0  0  0  0  0
  181.1780  180.1620  140.2080 C   0  0  0  0  0  2  0  0  0  0  0  0
  179.0500  180.7250  137.0580 C   0  0  0  0  0  3  0  0  0  0  0  0
  179.8250  181.6240  136.4160 C   0  0  0  0  0  0  0  0  0  0  0  0
  181.5160  181.5630  138.1930 C   0  0  0  0  0  3  0  0  0  0  0  0
  179.3510  180.3410  138.4830 C   0  0  0  0  0  2  0  0  0  0  0  0
  180.8760  180.3040  138.7240 C   0  0  2  0  0  3  0  0  0  0  0  0
  181.0320  182.1580  137.0910 C   0  0  0  0  0  3  0  0  0  0  0  0
  179.5270  182.0620  135.1200 O   0  0  0  0  0  0  0  0  0  0  0  0
  179.0190  183.3630  134.8410 C   0  0  0  0  0  1  0  0  0  0  0  0
  1  6  1  0  0  0  0
  2 11  2  0  0  0  0
  2 12  1  0  0  0  0
  3 16  1  6  0  0  0
  3 10  1  0  0  0  0
  4  8  2  0  0  0  0
  5  1  2  0  0  0  0
  7  9  2  0  0  0  0
  7  4  1  0  0  0  0
  8  1  1  0  0  0  0
  9  5  1  0  0  0  0
 10 11  1  0  0  0  0
 11  7  1  0  0  0  0
 12 15  2  0  0  0  0
 13 35  1  6  0  0  0
 13  2  1  0  0  0  0
 14  3  1  0  0  0  0
 14 13  1  0  0  0  0
 15  4  1  0  0  0  0
 16 17  1  1  0  0  0
 16 18  1  0  0  0  0
 19 21  1  0  0  0  0
 19 18  1  0  0  0  0
 20 19  2  0  0  0  0
 21 22  1  0  0  0  0
 22 26  1  0  0  0  0
 23 22  1  0  0  0  0
 25 24  1  0  0  0  0
 25 23  1  0  0  0  0
 26 27  1  0  0  0  0
 27 28  2  0  0  0  0
 27 29  1  0  0  0  0
 29 33  2  0  0  0  0
 29 34  1  0  0  0  0
 30 32  1  0  0  0  0
 31 32  2  0  0  0  0
 33 31  1  0  0  0  0
 34 30  2  0  0  0  0
 36 39  1  0  0  0  0
 37 36  2  0  0  0  0
 37 41  1  0  0  0  0
 38 40  1  0  0  0  0
 39 40  1  0  0  0  0
 40 35  1  1  0  0  0
 41 38  2  0  0  0  0
 42 37  1  0  0  0  0
 43 42  1  0  0  0  0
M  END
>  <MODEL>
4

>  <REMARK>
 VINA RESULT:      -8.8      3.301      6.162
  Name = 
  12 active torsions:
  status: ('A' for Active; 'I' for Inactive)
    1  A    between atoms: C_1  and  C_34
    2  A    between atoms: C_1  and  C_35
    3  A    between atoms: C_2  and  N_6
    4  A    between atoms: C_2  and  C_13
    5  A    between atoms: C_3  and  N_4
    6  A    between atoms: C_3  and  C_12
    7  A    between atoms: N_4  and  C_15
    8  A    between atoms: N_4  and  C_22
    9  A    between atoms: C_11  and  C_14
   10  A    between atoms: C_14  and  C_22
   11  A    between atoms: C_15  and  C_42
   12  A    between atoms: C_19  and  O_25
                            x       y       z     vdW  Elec       q    Type
                         _______ _______ _______ _____ _____    ______ ____

>  <TORSDO>
F 12

$$$$
=
 OpenBabel11052416233D

 43 47  0  0  1  0  0  0  0  0999 V2000
  191.2660  176.6060  146.9640 C   0  0  0  0  0  0  0  0  0  0  0  0
  187.1650  177.6330  144.1820 C   0  0  0  0  0  0  0  0  0  0  0  0
  187.9400  177.9580  141.4950 C   0  0  2  0  0  3  0  0  0  0  0  0
  189.0200  177.1490  146.2320 C   0  0  0  0  0  0  0  0  0  0  0  0
  191.6820  176.5210  145.6370 C   0  0  0  0  0  3  0  0  0  0  0  0
  192.2410  176.3700  148.0640 C   0  0  0  0  0  1  0  0  0  0  0  0
  189.4350  177.0760  144.8820 C   0  0  0  0  0  0  0  0  0  0  0  0
  189.9380  176.9190  147.2610 C   0  0  0  0  0  3  0  0  0  0  0  0
  190.7730  176.7560  144.6020 C   0  0  0  0  0  3  0  0  0  0  0  0
  188.9070  177.2040  142.4100 C   0  0  0  0  0  2  0  0  0  0  0  0
  188.5040  177.3300  143.8530 C   0  0  0  0  0  0  0  0  0  0  0  0
  186.7750  177.6900  145.5230 C   0  0  0  0  0  3  0  0  0  0  0  0
  186.1460  177.9410  143.1140 C   0  0  2  0  0  3  0  0  0  0  0  0
  186.5670  177.5240  141.7700 N   0  0  0  0  0  2  0  0  0  0  0  0
  187.6960  177.4500  146.5410 C   0  0  0  0  0  3  0  0  0  0  0  0
  188.2820  177.7480  140.0140 C   0  0  2  0  0  3  0  0  0  0  0  0
  189.4590  178.6230  139.5870 C   0  0  0  0  0  1  0  0  0  0  0  0
  187.1190  178.0550  139.1880 N   0  0  0  0  0  2  0  0  0  0  0  0
  186.8430  177.4020  137.9480 C   0  0  0  0  0  0  0  0  0  0  0  0
  187.4470  176.3410  137.6360 O   0  0  0  0  0  0  0  0  0  0  0  0
  185.8960  178.0360  136.9700 C   0  0  0  0  0  2  0  0  0  0  0  0
  184.4820  177.7580  137.2500 N   0  0  0  0  0  0  0  0  0  0  0  0
  184.1760  176.3700  136.9140 C   0  0  0  0  0  2  0  0  0  0  0  0
  182.4900  174.6290  137.4770 C   0  0  0  0  0  1  0  0  0  0  0  0
  183.3860  175.7180  138.0330 C   0  0  0  0  0  2  0  0  0  0  0  0
  184.1930  177.9710  138.6640 C   0  0  0  0  0  2  0  0  0  0  0  0
  183.6960  179.3640  138.8790 C   0  0  0  0  0  0  0  0  0  0  0  0
  184.5340  180.2820  139.0980 O   0  0  0  0  0  0  0  0  0  0  0  0
  182.2510  179.6760  138.8220 C   0  0  0  0  0  0  0  0  0  0  0  0
  180.4580  181.2860  138.4950 C   0  0  0  0  0  3  0  0  0  0  0  0
  179.9280  178.9740  138.9740 C   0  0  0  0  0  3  0  0  0  0  0  0
  179.5110  180.2800  138.7020 C   0  0  0  0  0  3  0  0  0  0  0  0
  181.2910  178.6740  139.0350 C   0  0  0  0  0  3  0  0  0  0  0  0
  181.8240  180.9870  138.5560 C   0  0  0  0  0  3  0  0  0  0  0  0
  185.7490  179.4110  143.1370 C   0  0  0  0  0  2  0  0  0  0  0  0
  181.9980  178.7140  142.6720 C   0  0  0  0  0  3  0  0  0  0  0  0
  181.6200  178.6280  143.9650 C   0  0  0  0  0  0  0  0  0  0  0  0
  183.8960  179.0910  144.7520 C   0  0  0  0  0  3  0  0  0  0  0  0
  183.4590  178.7640  142.3090 C   0  0  0  0  0  2  0  0  0  0  0  0
  184.2520  179.5660  143.3640 C   0  0  2  0  0  3  0  0  0  0  0  0
  182.6490  178.6800  145.0300 C   0  0  0  0  0  3  0  0  0  0  0  0
  180.2750  178.4990  144.3320 O   0  0  0  0  0  0  0  0  0  0  0  0
  179.2400  179.3080  143.7770 C   0  0  0  0  0  1  0  0  0  0  0  0
  1  8  1  0  0  0  0
  1  6  1  0  0  0  0
  2 12  1  0  0  0  0
  3 16  1  6  0  0  0
  3 14  1  0  0  0  0
  3 10  1  0  0  0  0
  4 15  1  0  0  0  0
  4  8  2  0  0  0  0
  5  1  2  0  0  0  0
  7  4  1  0  0  0  0
  9  7  2  0  0  0  0
  9  5  1  0  0  0  0
 10 11  1  0  0  0  0
 11  2  2  0  0  0  0
 11  7  1  0  0  0  0
 12 15  2  0  0  0  0
 13 35  1  6  0  0  0
 13  2  1  0  0  0  0
 14 13  1  0  0  0  0
 16 17  1  6  0  0  0
 18 16  1  0  0  0  0
 19 18  1  0  0  0  0
 20 19  2  0  0  0  0
 21 22  1  0  0  0  0
 21 19  1  0  0  0  0
 22 26  1  0  0  0  0
 23 22  1  0  0  0  0
 23 25  1  0  0  0  0
 24 25  1  0  0  0  0
 26 27  1  0  0  0  0
 27 28  2  0  0  0  0
 29 27  1  0  0  0  0
 29 33  1  0  0  0  0
 30 34  1  0  0  0  0
 30 32  2  0  0  0  0
 31 33  2  0  0  0  0
 32 31  1  0  0  0  0
 34 29  2  0  0  0  0
 36 37  2  0  0  0  0
 37 42  1  0  0  0  0
 37 41  1  0  0  0  0
 38 41  2  0  0  0  0
 39 36  1  0  0  0  0
 39 40  1  0  0  0  0
 40 35  1  6  0  0  0
 40 38  1  0  0  0  0
 43 42  1  0  0  0  0
M  END
>  <MODEL>
5

>  <REMARK>
 VINA RESULT:      -8.8      2.266      4.461
  Name = 
  12 active torsions:
  status: ('A' for Active; 'I' for Inactive)
    1  A    between atoms: C_1  and  C_34
    2  A    between atoms: C_1  and  C_35
    3  A    between atoms: C_2  and  N_6
    4  A    between atoms: C_2  and  C_13
    5  A    between atoms: C_3  and  N_4
    6  A    between atoms: C_3  and  C_12
    7  A    between atoms: N_4  and  C_15
    8  A    between atoms: N_4  and  C_22
    9  A    between atoms: C_11  and  C_14
   10  A    between atoms: C_14  and  C_22
   11  A    between atoms: C_15  and  C_42
   12  A    between atoms: C_19  and  O_25
                            x       y       z     vdW  Elec       q    Type
                         _______ _______ _______ _____ _____    ______ ____

>  <TORSDO>
F 12

$$$$
=
 OpenBabel11052416233D

 43 47  0  0  1  0  0  0  0  0999 V2000
  181.0550  178.6360  143.3870 C   0  0  0  0  0  0  0  0  0  0  0  0
  186.0570  178.7260  142.6200 C   0  0  0  0  0  0  0  0  0  0  0  0
  186.5780  178.1570  139.9130 C   0  0  2  0  0  3  0  0  0  0  0  0
  183.4590  178.7170  143.6840 C   0  0  0  0  0  0  0  0  0  0  0  0
  181.2240  178.5810  142.0060 C   0  0  0  0  0  3  0  0  0  0  0  0
  179.6850  178.6140  143.9700 C   0  0  0  0  0  1  0  0  0  0  0  0
  183.6420  178.6510  142.2830 C   0  0  0  0  0  0  0  0  0  0  0  0
  182.1710  178.7040  144.2250 C   0  0  0  0  0  3  0  0  0  0  0  0
  182.5090  178.5880  141.4560 C   0  0  0  0  0  3  0  0  0  0  0  0
  185.1660  178.6310  140.2630 C   0  0  0  0  0  2  0  0  0  0  0  0
  184.9480  178.6440  141.7500 C   0  0  0  0  0  0  0  0  0  0  0  0
  185.8530  178.8010  144.0000 C   0  0  0  0  0  3  0  0  0  0  0  0
  187.4690  178.6920  142.0940 C   0  0  2  0  0  3  0  0  0  0  0  0
  187.5610  178.9550  140.6510 N   0  0  0  0  0  2  0  0  0  0  0  0
  184.5630  178.7960  144.5290 C   0  0  0  0  0  3  0  0  0  0  0  0
  186.8450  178.2390  138.4040 C   0  0  2  0  0  3  0  0  0  0  0  0
  185.6240  177.7990  137.5990 C   0  0  0  0  0  1  0  0  0  0  0  0
  187.9880  177.4020  138.0560 N   0  0  0  0  0  2  0  0  0  0  0  0
  189.0960  177.8670  137.2850 C   0  0  0  0  0  0  0  0  0  0  0  0
  189.2680  179.1010  137.0930 O   0  0  0  0  0  0  0  0  0  0  0  0
  190.0090  176.8750  136.6210 C   0  0  0  0  0  2  0  0  0  0  0  0
  191.0810  176.3820  137.4930 N   0  0  0  0  0  0  0  0  0  0  0  0
  190.7870  175.0160  137.9150 C   0  0  0  0  0  2  0  0  0  0  0  0
  191.0670  173.2660  136.1680 C   0  0  0  0  0  1  0  0  0  0  0  0
  190.1040  174.2540  136.7940 C   0  0  0  0  0  2  0  0  0  0  0  0
  192.3550  176.3880  136.7830 C   0  0  0  0  0  2  0  0  0  0  0  0
  193.4630  176.0190  137.7160 C   0  0  0  0  0  0  0  0  0  0  0  0
  193.6170  176.6910  138.7730 O   0  0  0  0  0  0  0  0  0  0  0  0
  194.3570  174.8760  137.4260 C   0  0  0  0  0  0  0  0  0  0  0  0
  195.5500  172.8950  138.1780 C   0  0  0  0  0  3  0  0  0  0  0  0
  195.7050  173.5880  135.8650 C   0  0  0  0  0  3  0  0  0  0  0  0
  196.0460  172.6980  136.8870 C   0  0  0  0  0  3  0  0  0  0  0  0
  194.8660  174.6730  136.1340 C   0  0  0  0  0  3  0  0  0  0  0  0
  194.7100  173.9810  138.4490 C   0  0  0  0  0  3  0  0  0  0  0  0
  188.1640  177.3880  142.4620 C   0  0  0  0  0  2  0  0  0  0  0  0
  189.8220  177.3870  145.9300 C   0  0  0  0  0  3  0  0  0  0  0  0
  191.0200  176.8570  145.6100 C   0  0  0  0  0  0  0  0  0  0  0  0
  190.4150  176.7000  143.2380 C   0  0  0  0  0  3  0  0  0  0  0  0
  188.7000  177.3940  144.9240 C   0  0  0  0  0  2  0  0  0  0  0  0
  189.2510  177.6250  143.4990 C   0  0  2  0  0  3  0  0  0  0  0  0
  191.2560  176.3700  144.2300 C   0  0  0  0  0  3  0  0  0  0  0  0
  192.0580  176.7630  146.5460 O   0  0  0  0  0  0  0  0  0  0  0  0
  192.3750  175.5540  147.2290 C   0  0  0  0  0  1  0  0  0  0  0  0
  1  6  1  0  0  0  0
  1  8  1  0  0  0  0
  2 12  1  0  0  0  0
  3 16  1  6  0  0  0
  3 10  1  0  0  0  0
  3 14  1  0  0  0  0
  4  8  2  0  0  0  0
  4 15  1  0  0  0  0
  5  1  2  0  0  0  0
  7  4  1  0  0  0  0
  9  5  1  0  0  0  0
  9  7  2  0  0  0  0
 10 11  1  0  0  0  0
 11  7  1  0  0  0  0
 11  2  2  0  0  0  0
 12 15  2  0  0  0  0
 13 35  1  6  0  0  0
 13  2  1  0  0  0  0
 14 13  1  0  0  0  0
 16 17  1  6  0  0  0
 18 16  1  0  0  0  0
 19 18  1  0  0  0  0
 20 19  2  0  0  0  0
 21 19  1  0  0  0  0
 21 22  1  0  0  0  0
 22 23  1  0  0  0  0
 24 25  1  0  0  0  0
 25 23  1  0  0  0  0
 26 22  1  0  0  0  0
 26 27  1  0  0  0  0
 27 28  2  0  0  0  0
 29 27  1  0  0  0  0
 29 34  1  0  0  0  0
 30 34  2  0  0  0  0
 31 33  1  0  0  0  0
 31 32  2  0  0  0  0
 32 30  1  0  0  0  0
 33 29  2  0  0  0  0
 37 36  2  0  0  0  0
 37 42  1  0  0  0  0
 38 40  1  0  0  0  0
 38 41  2  0  0  0  0
 39 36  1  0  0  0  0
 40 35  1  6  0  0  0
 40 39  1  0  0  0  0
 41 37  1  0  0  0  0
 42 43  1  0  0  0  0
M  END
>  <MODEL>
6

>  <REMARK>
 VINA RESULT:      -8.8      2.524      7.193
  Name = 
  12 active torsions:
  status: ('A' for Active; 'I' for Inactive)
    1  A    between atoms: C_1  and  C_34
    2  A    between atoms: C_1  and  C_35
    3  A    between atoms: C_2  and  N_6
    4  A    between atoms: C_2  and  C_13
    5  A    between atoms: C_3  and  N_4
    6  A    between atoms: C_3  and  C_12
    7  A    between atoms: N_4  and  C_15
    8  A    between atoms: N_4  and  C_22
    9  A    between atoms: C_11  and  C_14
   10  A    between atoms: C_14  and  C_22
   11  A    between atoms: C_15  and  C_42
   12  A    between atoms: C_19  and  O_25
                            x       y       z     vdW  Elec       q    Type
                         _______ _______ _______ _____ _____    ______ ____

>  <TORSDO>
F 12

$$$$
=
 OpenBabel11052416233D

 43 47  0  0  1  0  0  0  0  0999 V2000
  182.4520  178.7030  143.5530 C   0  0  0  0  0  0  0  0  0  0  0  0
  187.4430  178.2560  144.2690 C   0  0  0  0  0  0  0  0  0  0  0  0
  188.6150  177.2280  141.9250 C   0  0  2  0  0  3  0  0  0  0  0  0
  184.6720  178.6300  144.5230 C   0  0  0  0  0  0  0  0  0  0  0  0
  182.9880  178.4180  142.2990 C   0  0  0  0  0  3  0  0  0  0  0  0
  180.9830  178.8860  143.7100 C   0  0  0  0  0  1  0  0  0  0  0  0
  185.2240  178.3300  143.2560 C   0  0  0  0  0  0  0  0  0  0  0  0
  183.2930  178.8080  144.6630 C   0  0  0  0  0  3  0  0  0  0  0  0
  184.3650  178.2320  142.1510 C   0  0  0  0  0  3  0  0  0  0  0  0
  187.2310  177.8680  141.7860 C   0  0  0  0  0  2  0  0  0  0  0  0
  186.6150  178.1320  143.1310 C   0  0  0  0  0  0  0  0  0  0  0  0
  186.8770  178.5630  145.5090 C   0  0  0  0  0  3  0  0  0  0  0  0
  188.9300  178.0230  144.1840 C   0  0  2  0  0  3  0  0  0  0  0  0
  189.4470  178.0480  142.8100 N   0  0  0  0  0  2  0  0  0  0  0  0
  185.5010  178.7490  145.6360 C   0  0  0  0  0  3  0  0  0  0  0  0
  189.2950  177.0510  140.5610 C   0  0  2  0  0  3  0  0  0  0  0  0
  190.7550  177.4990  140.6060 C   0  0  0  0  0  1  0  0  0  0  0  0
  188.5790  177.8150  139.5460 N   0  0  0  0  0  2  0  0  0  0  0  0
  188.6810  177.5510  138.1460 C   0  0  0  0  0  0  0  0  0  0  0  0
  189.1860  176.4720  137.7350 O   0  0  0  0  0  0  0  0  0  0  0  0
  188.2680  178.6050  137.1590 C   0  0  0  0  0  2  0  0  0  0  0  0
  186.8510  178.5410  136.7820 N   0  0  0  0  0  0  0  0  0  0  0  0
  186.7280  178.0990  135.3960 C   0  0  0  0  0  2  0  0  0  0  0  0
  187.0640  175.6760  134.9400 C   0  0  0  0  0  1  0  0  0  0  0  0
  186.0580  176.7390  135.3330 C   0  0  0  0  0  2  0  0  0  0  0  0
  186.1410  177.5970  137.6380 C   0  0  0  0  0  2  0  0  0  0  0  0
  185.0260  178.2920  138.3500 C   0  0  0  0  0  0  0  0  0  0  0  0
  185.2720  179.3680  138.9630 O   0  0  0  0  0  0  0  0  0  0  0  0
  183.6490  177.7490  138.3260 C   0  0  0  0  0  0  0  0  0  0  0  0
  181.3200  177.9470  137.6530 C   0  0  0  0  0  3  0  0  0  0  0  0
  182.0500  176.0170  138.9170 C   0  0  0  0  0  3  0  0  0  0  0  0
  181.0350  176.7260  138.2690 C   0  0  0  0  0  3  0  0  0  0  0  0
  183.3500  176.5270  138.9470 C   0  0  0  0  0  3  0  0  0  0  0  0
  182.6230  178.4600  137.6830 C   0  0  0  0  0  3  0  0  0  0  0  0
  189.3290  176.7400  144.9010 C   0  0  0  0  0  2  0  0  0  0  0  0
  191.2460  177.1470  148.2070 C   0  0  0  0  0  3  0  0  0  0  0  0
  192.2990  176.3400  147.9620 C   0  0  0  0  0  0  0  0  0  0  0  0
  191.4770  175.8080  145.7120 C   0  0  0  0  0  3  0  0  0  0  0  0
  190.0630  177.1600  147.2740 C   0  0  0  0  0  2  0  0  0  0  0  0
  190.5250  176.9750  145.8120 C   0  0  2  0  0  3  0  0  0  0  0  0
  192.3260  175.5370  146.7160 C   0  0  0  0  0  3  0  0  0  0  0  0
  193.3770  176.2450  148.8490 O   0  0  0  0  0  0  0  0  0  0  0  0
  193.4910  177.0510  150.0180 C   0  0  0  0  0  1  0  0  0  0  0  0
  1  6  1  0  0  0  0
  1  8  1  0  0  0  0
  2 12  1  0  0  0  0
  3 16  1  6  0  0  0
  3 14  1  0  0  0  0
  4  8  2  0  0  0  0
  4 15  1  0  0  0  0
  5  1  2  0  0  0  0
  7  4  1  0  0  0  0
  9  5  1  0  0  0  0
  9  7  2  0  0  0  0
 10  3  1  0  0  0  0
 10 11  1  0  0  0  0
 11  7  1  0  0  0  0
 11  2  2  0  0  0  0
 12 15  2  0  0  0  0
 13  2  1  0  0  0  0
 13 35  1  6  0  0  0
 14 13  1  0  0  0  0
 16 17  1  1  0  0  0
 18 16  1  0  0  0  0
 19 18  1  0  0  0  0
 20 19  2  0  0  0  0
 21 19  1  0  0  0  0
 22 21  1  0  0  0  0
 22 26  1  0  0  0  0
 23 22  1  0  0  0  0
 24 25  1  0  0  0  0
 25 23  1  0  0  0  0
 26 27  1  0  0  0  0
 27 28  2  0  0  0  0
 29 27  1  0  0  0  0
 29 33  1  0  0  0  0
 30 34  1  0  0  0  0
 30 32  2  0  0  0  0
 31 33  2  0  0  0  0
 32 31  1  0  0  0  0
 34 29  2  0  0  0  0
 37 36  2  0  0  0  0
 37 42  1  0  0  0  0
 38 40  1  0  0  0  0
 38 41  2  0  0  0  0
 39 36  1  0  0  0  0
 40 35  1  6  0  0  0
 40 39  1  0  0  0  0
 41 37  1  0  0  0  0
 42 43  1  0  0  0  0
M  END
>  <MODEL>
7

>  <REMARK>
 VINA RESULT:      -8.7      2.747      6.796
  Name = 
  12 active torsions:
  status: ('A' for Active; 'I' for Inactive)
    1  A    between atoms: C_1  and  C_34
    2  A    between atoms: C_1  and  C_35
    3  A    between atoms: C_2  and  N_6
    4  A    between atoms: C_2  and  C_13
    5  A    between atoms: C_3  and  N_4
    6  A    between atoms: C_3  and  C_12
    7  A    between atoms: N_4  and  C_15
    8  A    between atoms: N_4  and  C_22
    9  A    between atoms: C_11  and  C_14
   10  A    between atoms: C_14  and  C_22
   11  A    between atoms: C_15  and  C_42
   12  A    between atoms: C_19  and  O_25
                            x       y       z     vdW  Elec       q    Type
                         _______ _______ _______ _____ _____    ______ ____

>  <TORSDO>
F 12

$$$$
=
 OpenBabel11052416233D

 43 47  0  0  1  0  0  0  0  0999 V2000
  193.8050  175.1780  136.3740 C   0  0  0  0  0  0  0  0  0  0  0  0
  189.2350  177.2770  136.9480 C   0  0  0  0  0  0  0  0  0  0  0  0
  188.5690  177.2860  139.6830 C   0  0  2  0  0  3  0  0  0  0  0  0
  191.6150  176.1400  135.9860 C   0  0  0  0  0  0  0  0  0  0  0  0
  193.6450  175.3610  137.7460 C   0  0  0  0  0  3  0  0  0  0  0  0
  195.0530  174.5600  135.8470 C   0  0  0  0  0  1  0  0  0  0  0  0
  191.4380  176.3210  137.3770 C   0  0  0  0  0  0  0  0  0  0  0  0
  192.7910  175.5660  135.4960 C   0  0  0  0  0  3  0  0  0  0  0  0
  192.4690  175.9280  138.2450 C   0  0  0  0  0  3  0  0  0  0  0  0
  190.0510  177.1350  139.3300 C   0  0  0  0  0  2  0  0  0  0  0  0
  190.2380  176.8820  137.8600 C   0  0  0  0  0  0  0  0  0  0  0  0
  189.4340  177.0990  135.5770 C   0  0  0  0  0  3  0  0  0  0  0  0
  187.9260  177.8530  137.4250 C   0  0  2  0  0  3  0  0  0  0  0  0
  187.9610  178.3040  138.8220 N   0  0  0  0  0  2  0  0  0  0  0  0
  190.6160  176.5340  135.0980 C   0  0  0  0  0  3  0  0  0  0  0  0
  188.3740  177.6480  141.1610 C   0  0  2  0  0  3  0  0  0  0  0  0
  187.8760  179.0830  141.3210 C   0  0  0  0  0  1  0  0  0  0  0  0
  189.6320  177.4820  141.8830 N   0  0  0  0  0  2  0  0  0  0  0  0
  189.8090  176.5480  142.9480 C   0  0  0  0  0  0  0  0  0  0  0  0
  188.9660  175.6300  143.1400 O   0  0  0  0  0  0  0  0  0  0  0  0
  190.9580  176.7160  143.9010 C   0  0  0  0  0  2  0  0  0  0  0  0
  190.5560  176.7500  145.3120 N   0  0  0  0  0  0  0  0  0  0  0  0
  191.7400  176.8500  146.1600 C   0  0  0  0  0  2  0  0  0  0  0  0
  192.7690  175.7300  148.1300 C   0  0  0  0  0  1  0  0  0  0  0  0
  192.0280  175.5170  146.8250 C   0  0  0  0  0  2  0  0  0  0  0  0
  189.6990  177.9030  145.5680 C   0  0  0  0  0  2  0  0  0  0  0  0
  188.4950  177.4820  146.3470 C   0  0  0  0  0  0  0  0  0  0  0  0
  188.6570  176.7820  147.3860 O   0  0  0  0  0  0  0  0  0  0  0  0
  187.1350  177.8870  145.9290 C   0  0  0  0  0  0  0  0  0  0  0  0
  184.9020  178.6630  146.5010 C   0  0  0  0  0  3  0  0  0  0  0  0
  185.4860  178.2760  144.1850 C   0  0  0  0  0  3  0  0  0  0  0  0
  184.5520  178.6660  145.1490 C   0  0  0  0  0  3  0  0  0  0  0  0
  186.7710  177.8860  144.5740 C   0  0  0  0  0  3  0  0  0  0  0  0
  186.1890  178.2730  146.8920 C   0  0  0  0  0  3  0  0  0  0  0  0
  186.7770  176.8820  137.1870 C   0  0  0  0  0  2  0  0  0  0  0  0
  183.0140  177.3430  136.5520 C   0  0  0  0  0  3  0  0  0  0  0  0
  182.7010  178.1340  137.6000 C   0  0  0  0  0  0  0  0  0  0  0  0
  185.0270  178.1690  138.3790 C   0  0  0  0  0  3  0  0  0  0  0  0
  184.3690  176.6890  136.4710 C   0  0  0  0  0  2  0  0  0  0  0  0
  185.4580  177.6260  137.0390 C   0  0  2  0  0  3  0  0  0  0  0  0
  183.7330  178.4310  138.6210 C   0  0  0  0  0  3  0  0  0  0  0  0
  181.4260  178.6920  137.7460 O   0  0  0  0  0  0  0  0  0  0  0  0
  180.3810  178.0540  138.4740 C   0  0  0  0  0  1  0  0  0  0  0  0
  1  5  1  0  0  0  0
  2 13  1  0  0  0  0
  2 11  1  0  0  0  0
  3 16  1  1  0  0  0
  4  7  1  0  0  0  0
  5  9  2  0  0  0  0
  6  1  1  0  0  0  0
  7 11  2  0  0  0  0
  7  9  1  0  0  0  0
  8  4  1  0  0  0  0
  8  1  2  0  0  0  0
 10  3  1  0  0  0  0
 11 10  1  0  0  0  0
 12  2  2  0  0  0  0
 13 35  1  1  0  0  0
 13 14  1  0  0  0  0
 14  3  1  0  0  0  0
 15 12  1  0  0  0  0
 15  4  2  0  0  0  0
 16 17  1  6  0  0  0
 16 18  1  0  0  0  0
 18 19  1  0  0  0  0
 19 20  2  0  0  0  0
 19 21  1  0  0  0  0
 21 22  1  0  0  0  0
 22 26  1  0  0  0  0
 22 23  1  0  0  0  0
 23 25  1  0  0  0  0
 25 24  1  0  0  0  0
 26 27  1  0  0  0  0
 27 28  2  0  0  0  0
 29 27  1  0  0  0  0
 29 34  1  0  0  0  0
 30 34  2  0  0  0  0
 31 33  1  0  0  0  0
 31 32  2  0  0  0  0
 32 30  1  0  0  0  0
 33 29  2  0  0  0  0
 36 37  2  0  0  0  0
 37 42  1  0  0  0  0
 37 41  1  0  0  0  0
 38 41  2  0  0  0  0
 39 36  1  0  0  0  0
 39 40  1  0  0  0  0
 40 35  1  1  0  0  0
 40 38  1  0  0  0  0
 42 43  1  0  0  0  0
M  END
>  <MODEL>
8

>  <REMARK>
 VINA RESULT:      -8.7      2.738      8.101
  Name = 
  12 active torsions:
  status: ('A' for Active; 'I' for Inactive)
    1  A    between atoms: C_1  and  C_34
    2  A    between atoms: C_1  and  C_35
    3  A    between atoms: C_2  and  N_6
    4  A    between atoms: C_2  and  C_13
    5  A    between atoms: C_3  and  N_4
    6  A    between atoms: C_3  and  C_12
    7  A    between atoms: N_4  and  C_15
    8  A    between atoms: N_4  and  C_22
    9  A    between atoms: C_11  and  C_14
   10  A    between atoms: C_14  and  C_22
   11  A    between atoms: C_15  and  C_42
   12  A    between atoms: C_19  and  O_25
                            x       y       z     vdW  Elec       q    Type
                         _______ _______ _______ _____ _____    ______ ____

>  <TORSDO>
F 12

$$$$
=
 OpenBabel11052416233D

 43 47  0  0  1  0  0  0  0  0999 V2000
  191.3010  176.4990  146.8120 C   0  0  0  0  0  0  0  0  0  0  0  0
  187.7730  177.5770  143.3480 C   0  0  0  0  0  0  0  0  0  0  0  0
  189.0320  178.0380  140.8720 C   0  0  2  0  0  3  0  0  0  0  0  0
  189.2200  177.0340  145.6900 C   0  0  0  0  0  0  0  0  0  0  0  0
  191.9620  176.4830  145.5860 C   0  0  0  0  0  3  0  0  0  0  0  0
  192.0570  176.2310  148.0660 C   0  0  0  0  0  1  0  0  0  0  0  0
  189.8830  177.0300  144.4410 C   0  0  0  0  0  0  0  0  0  0  0  0
  189.9330  176.7750  146.8640 C   0  0  0  0  0  3  0  0  0  0  0  0
  191.2580  176.7480  144.4070 C   0  0  0  0  0  3  0  0  0  0  0  0
  189.8290  177.2610  141.9220 C   0  0  0  0  0  2  0  0  0  0  0  0
  189.1580  177.3140  143.2660 C   0  0  0  0  0  0  0  0  0  0  0  0
  187.1350  177.5660  144.5910 C   0  0  0  0  0  3  0  0  0  0  0  0
  186.9660  177.9140  142.1190 C   0  0  2  0  0  3  0  0  0  0  0  0
  187.6430  177.5670  140.8630 N   0  0  0  0  0  2  0  0  0  0  0  0
  187.8540  177.2960  145.7550 C   0  0  0  0  0  3  0  0  0  0  0  0
  189.6530  177.9030  139.4760 C   0  0  2  0  0  3  0  0  0  0  0  0
  189.0650  178.9250  138.5050 C   0  0  0  0  0  1  0  0  0  0  0  0
  189.4310  176.5550  138.9620 N   0  0  0  0  0  2  0  0  0  0  0  0
  190.2190  175.9700  137.9250 C   0  0  0  0  0  0  0  0  0  0  0  0
  191.3160  176.4890  137.5870 O   0  0  0  0  0  0  0  0  0  0  0  0
  189.6910  174.7830  137.1700 C   0  0  0  0  0  2  0  0  0  0  0  0
  188.7740  175.1350  136.0800 N   0  0  0  0  0  0  0  0  0  0  0  0
  188.8580  174.1320  135.0220 C   0  0  0  0  0  2  0  0  0  0  0  0
  188.0700  171.8140  135.4690 C   0  0  0  0  0  1  0  0  0  0  0  0
  187.6500  173.2140  135.0670 C   0  0  0  0  0  2  0  0  0  0  0  0
  187.4000  175.1840  136.5680 C   0  0  0  0  0  2  0  0  0  0  0  0
  186.8820  176.5840  136.4950 C   0  0  0  0  0  0  0  0  0  0  0  0
  187.5070  177.4280  135.7940 O   0  0  0  0  0  0  0  0  0  0  0  0
  185.6490  176.9810  137.2100 C   0  0  0  0  0  0  0  0  0  0  0  0
  184.4220  178.5980  138.5510 C   0  0  0  0  0  3  0  0  0  0  0  0
  183.3680  176.5160  137.9110 C   0  0  0  0  0  3  0  0  0  0  0  0
  183.3130  177.7490  138.5660 C   0  0  0  0  0  3  0  0  0  0  0  0
  184.5310  176.1330  137.2380 C   0  0  0  0  0  3  0  0  0  0  0  0
  185.5890  178.2150  137.8770 C   0  0  0  0  0  3  0  0  0  0  0  0
  186.5320  179.3740  142.1270 C   0  0  0  0  0  2  0  0  0  0  0  0
  182.8790  178.2500  142.5290 C   0  0  0  0  0  3  0  0  0  0  0  0
  182.6200  178.7490  143.7550 C   0  0  0  0  0  0  0  0  0  0  0  0
  184.8730  179.7040  143.9380 C   0  0  0  0  0  3  0  0  0  0  0  0
  184.2880  178.2380  141.9940 C   0  0  0  0  0  2  0  0  0  0  0  0
  185.0520  179.5000  142.4530 C   0  0  2  0  0  3  0  0  0  0  0  0
  183.7160  179.3750  144.5330 C   0  0  0  0  0  3  0  0  0  0  0  0
  181.3370  178.7030  144.3140 O   0  0  0  0  0  0  0  0  0  0  0  0
  180.1490  178.7320  143.5270 C   0  0  0  0  0  1  0  0  0  0  0  0
  1  8  1  0  0  0  0
  1  6  1  0  0  0  0
  2 12  1  0  0  0  0
  3 16  1  6  0  0  0
  3 10  1  0  0  0  0
  4 15  1  0  0  0  0
  4  8  2  0  0  0  0
  5  1  2  0  0  0  0
  7  4  1  0  0  0  0
  9  7  2  0  0  0  0
  9  5  1  0  0  0  0
 10 11  1  0  0  0  0
 11  2  2  0  0  0  0
 11  7  1  0  0  0  0
 12 15  2  0  0  0  0
 13 35  1  6  0  0  0
 13  2  1  0  0  0  0
 14  3  1  0  0  0  0
 14 13  1  0  0  0  0
 16 17  1  6  0  0  0
 18 16  1  0  0  0  0
 19 18  1  0  0  0  0
 20 19  2  0  0  0  0
 21 19  1  0  0  0  0
 22 26  1  0  0  0  0
 22 21  1  0  0  0  0
 23 25  1  0  0  0  0
 23 22  1  0  0  0  0
 25 24  1  0  0  0  0
 27 26  1  0  0  0  0
 27 29  1  0  0  0  0
 28 27  2  0  0  0  0
 29 33  2  0  0  0  0
 29 34  1  0  0  0  0
 30 32  1  0  0  0  0
 31 32  2  0  0  0  0
 33 31  1  0  0  0  0
 34 30  2  0  0  0  0
 36 37  2  0  0  0  0
 37 42  1  0  0  0  0
 37 41  1  0  0  0  0
 38 41  2  0  0  0  0
 39 40  1  0  0  0  0
 39 36  1  0  0  0  0
 40 35  1  1  0  0  0
 40 38  1  0  0  0  0
 43 42  1  0  0  0  0
M  END
>  <MODEL>
9

>  <REMARK>
 VINA RESULT:      -8.7      1.442      2.354
  Name = 
  12 active torsions:
  status: ('A' for Active; 'I' for Inactive)
    1  A    between atoms: C_1  and  C_34
    2  A    between atoms: C_1  and  C_35
    3  A    between atoms: C_2  and  N_6
    4  A    between atoms: C_2  and  C_13
    5  A    between atoms: C_3  and  N_4
    6  A    between atoms: C_3  and  C_12
    7  A    between atoms: N_4  and  C_15
    8  A    between atoms: N_4  and  C_22
    9  A    between atoms: C_11  and  C_14
   10  A    between atoms: C_14  and  C_22
   11  A    between atoms: C_15  and  C_42
   12  A    between atoms: C_19  and  O_25
                            x       y       z     vdW  Elec       q    Type
                         _______ _______ _______ _____ _____    ______ ____

>  <TORSDO>
F 12

$$$$
