=
 OpenBabel11052413523D

 27 31  0  0  0  0  0  0  0  0999 V2000
  186.4080  178.7900  141.3040 N   0  0  0  0  0  0  0  0  0  0  0  0
  185.8800  178.5110  143.6920 C   0  0  0  0  0  0  0  0  0  0  0  0
  187.9530  177.2010  143.2650 N   0  0  0  0  0  0  0  0  0  0  0  0
  186.6940  178.5780  147.7680 C   0  0  0  0  0  3  0  0  0  0  0  0
  188.0760  177.9650  149.6110 F   0  0  0  0  0  0  0  0  0  0  0  0
  185.0720  179.1420  144.5900 N   0  0  0  0  0  0  0  0  0  0  0  0
  188.7030  177.2720  147.4190 C   0  0  0  0  0  3  0  0  0  0  0  0
  191.0350  176.3050  139.8870 F   0  0  0  0  0  0  0  0  0  0  0  0
  188.4500  177.2440  146.0450 C   0  0  0  0  0  3  0  0  0  0  0  0
  189.9270  176.9680  140.2980 C   0  0  0  0  0  0  0  0  0  0  0  0
  187.3140  177.8800  145.5210 C   0  0  0  0  0  0  0  0  0  0  0  0
  185.4930  178.4590  142.3160 N   0  0  0  0  0  0  0  0  0  0  0  0
  187.8270  177.9380  148.2800 C   0  0  0  0  0  0  0  0  0  0  0  0
  186.4370  178.5500  146.3950 C   0  0  0  0  0  0  0  0  0  0  0  0
  187.6050  178.3120  141.1400 C   0  0  0  0  0  0  0  0  0  0  0  0
  187.0420  177.8780  144.1420 C   0  0  0  0  0  0  0  0  0  0  0  0
  189.3680  176.6880  141.5440 C   0  0  0  0  0  3  0  0  0  0  0  0
  185.3410  179.1670  145.8950 N   0  0  0  0  0  0  0  0  0  0  0  0
  189.3760  177.9670  139.5020 C   0  0  0  0  0  3  0  0  0  0  0  0
  188.2200  178.6230  139.9200 C   0  0  0  0  0  3  0  0  0  0  0  0
  188.2350  177.3720  142.0060 C   0  0  0  0  0  0  0  0  0  0  0  0
  181.4220  178.2030  141.2400 N   0  0  0  0  0  0  0  0  0  0  0  0
  184.1000  178.3480  141.9540 C   0  0  0  0  0  0  0  0  0  0  0  0
  183.7150  177.7790  140.7290 C   0  0  0  0  0  3  0  0  0  0  0  0
  182.3620  177.7120  140.3910 C   0  0  0  0  0  3  0  0  0  0  0  0
  181.7640  178.7710  142.4270 C   0  0  0  0  0  3  0  0  0  0  0  0
  183.1060  178.8570  142.8020 C   0  0  0  0  0  3  0  0  0  0  0  0
  1 12  1  0  0  0  0
  2 16  2  0  0  0  0
  2  6  1  0  0  0  0
  3 16  1  0  0  0  0
  4 13  1  0  0  0  0
  6 18  2  0  0  0  0
  7 13  2  0  0  0  0
  8 10  1  0  0  0  0
  9  7  1  0  0  0  0
 10 17  2  0  0  0  0
 11  9  2  0  0  0  0
 11 14  1  0  0  0  0
 12  2  1  0  0  0  0
 13  5  1  0  0  0  0
 14  4  2  0  0  0  0
 15  1  2  0  0  0  0
 15 21  1  0  0  0  0
 16 11  1  0  0  0  0
 17 21  1  0  0  0  0
 18 14  1  0  0  0  0
 19 20  2  0  0  0  0
 19 10  1  0  0  0  0
 20 15  1  0  0  0  0
 21  3  2  0  0  0  0
 22 26  1  0  0  0  0
 23 12  1  0  0  0  0
 23 27  1  0  0  0  0
 24 23  2  0  0  0  0
 25 24  1  0  0  0  0
 25 22  2  0  0  0  0
 26 27  2  0  0  0  0
M  END
>  <MODEL>
1

>  <REMARK>
 VINA RESULT:     -10.0      0.000      0.000
  Name = 
  1 active torsions:
  status: ('A' for Active; 'I' for Inactive)
    1  A    between atoms: C_9  and  N_15
                            x       y       z     vdW  Elec       q    Type
                         _______ _______ _______ _____ _____    ______ ____

>  <TORSDO>
F 1

$$$$
=
 OpenBabel11052413523D

 27 31  0  0  0  0  0  0  0  0999 V2000
  186.8050  178.9130  140.1760 N   0  0  0  0  0  0  0  0  0  0  0  0
  185.9230  178.6340  142.4570 C   0  0  0  0  0  0  0  0  0  0  0  0
  187.9900  177.2540  142.3210 N   0  0  0  0  0  0  0  0  0  0  0  0
  186.1310  178.6390  146.6090 C   0  0  0  0  0  3  0  0  0  0  0  0
  187.2050  177.9620  148.6270 F   0  0  0  0  0  0  0  0  0  0  0  0
  185.0140  179.2860  143.2350 N   0  0  0  0  0  0  0  0  0  0  0  0
  188.1240  177.2650  146.5410 C   0  0  0  0  0  3  0  0  0  0  0  0
  191.5020  176.2750  139.4200 F   0  0  0  0  0  0  0  0  0  0  0  0
  188.0740  177.2560  145.1440 C   0  0  0  0  0  3  0  0  0  0  0  0
  190.3700  176.9730  139.6730 C   0  0  0  0  0  0  0  0  0  0  0  0
  187.0500  177.9370  144.4680 C   0  0  0  0  0  0  0  0  0  0  0  0
  185.7410  178.6070  141.0390 N   0  0  0  0  0  0  0  0  0  0  0  0
  187.1530  177.9550  147.2730 C   0  0  0  0  0  0  0  0  0  0  0  0
  186.0780  178.6310  145.2130 C   0  0  0  0  0  0  0  0  0  0  0  0
  187.9960  178.3940  140.1830 C   0  0  0  0  0  0  0  0  0  0  0  0
  186.9840  177.9550  143.0650 C   0  0  0  0  0  0  0  0  0  0  0  0
  189.6240  176.7040  140.8190 C   0  0  0  0  0  3  0  0  0  0  0  0
  185.0890  179.2910  144.5660 N   0  0  0  0  0  0  0  0  0  0  0  0
  189.9760  177.9980  138.8180 C   0  0  0  0  0  3  0  0  0  0  0  0
  188.7950  178.6920  139.0710 C   0  0  0  0  0  3  0  0  0  0  0  0
  188.4600  177.4240  141.1200 C   0  0  0  0  0  0  0  0  0  0  0  0
  181.8880  178.4060  139.3320 N   0  0  0  0  0  0  0  0  0  0  0  0
  184.4140  178.5490  140.4750 C   0  0  0  0  0  0  0  0  0  0  0  0
  183.5000  177.5620  140.8780 C   0  0  0  0  0  3  0  0  0  0  0  0
  182.2330  177.5100  140.2930 C   0  0  0  0  0  3  0  0  0  0  0  0
  182.7550  179.3660  138.9120 C   0  0  0  0  0  3  0  0  0  0  0  0
  184.0310  179.4510  139.4720 C   0  0  0  0  0  3  0  0  0  0  0  0
  1 15  2  0  0  0  0
  1 12  1  0  0  0  0
  2 16  2  0  0  0  0
  2  6  1  0  0  0  0
  3 16  1  0  0  0  0
  4 13  1  0  0  0  0
  6 18  2  0  0  0  0
  7 13  2  0  0  0  0
  8 10  1  0  0  0  0
  9  7  1  0  0  0  0
 10 17  2  0  0  0  0
 11  9  2  0  0  0  0
 11 14  1  0  0  0  0
 12  2  1  0  0  0  0
 13  5  1  0  0  0  0
 14  4  2  0  0  0  0
 15 21  1  0  0  0  0
 16 11  1  0  0  0  0
 17 21  1  0  0  0  0
 18 14  1  0  0  0  0
 19 20  2  0  0  0  0
 19 10  1  0  0  0  0
 20 15  1  0  0  0  0
 21  3  2  0  0  0  0
 22 25  1  0  0  0  0
 23 24  1  0  0  0  0
 23 12  1  0  0  0  0
 25 24  2  0  0  0  0
 26 22  2  0  0  0  0
 26 27  1  0  0  0  0
 27 23  2  0  0  0  0
M  END
>  <MODEL>
2

>  <REMARK>
 VINA RESULT:      -9.9      1.153      1.464
  Name = 
  1 active torsions:
  status: ('A' for Active; 'I' for Inactive)
    1  A    between atoms: C_9  and  N_15
                            x       y       z     vdW  Elec       q    Type
                         _______ _______ _______ _____ _____    ______ ____

>  <TORSDO>
F 1

$$$$
=
 OpenBabel11052413523D

 27 31  0  0  0  0  0  0  0  0999 V2000
  189.9640  178.1740  142.2700 N   0  0  0  0  0  0  0  0  0  0  0  0
  187.5750  178.2700  141.6860 C   0  0  0  0  0  0  0  0  0  0  0  0
  187.7000  177.4640  144.0380 N   0  0  0  0  0  0  0  0  0  0  0  0
  183.6030  179.3770  142.2160 C   0  0  0  0  0  3  0  0  0  0  0  0
  181.6640  179.5250  143.5950 F   0  0  0  0  0  0  0  0  0  0  0  0
  186.8370  178.8480  140.6960 N   0  0  0  0  0  0  0  0  0  0  0  0
  183.6530  178.5750  144.5010 C   0  0  0  0  0  3  0  0  0  0  0  0
  190.7890  176.6950  147.4390 F   0  0  0  0  0  0  0  0  0  0  0  0
  184.9910  178.2010  144.3440 C   0  0  0  0  0  3  0  0  0  0  0  0
  190.5360  177.1280  146.1810 C   0  0  0  0  0  0  0  0  0  0  0  0
  185.6450  178.4100  143.1200 C   0  0  0  0  0  0  0  0  0  0  0  0
  188.9100  177.8400  141.4060 N   0  0  0  0  0  0  0  0  0  0  0  0
  182.9600  179.1620  143.4380 C   0  0  0  0  0  0  0  0  0  0  0  0
  184.9390  179.0030  142.0550 C   0  0  0  0  0  0  0  0  0  0  0  0
  190.0150  177.9890  143.5550 C   0  0  0  0  0  0  0  0  0  0  0  0
  186.9920  178.0550  142.9390 C   0  0  0  0  0  0  0  0  0  0  0  0
  189.2630  176.9790  145.6350 C   0  0  0  0  0  3  0  0  0  0  0  0
  185.5660  179.2090  140.8730 N   0  0  0  0  0  0  0  0  0  0  0  0
  191.5310  177.7700  145.4510 C   0  0  0  0  0  3  0  0  0  0  0  0
  191.2700  178.1860  144.1470 C   0  0  0  0  0  3  0  0  0  0  0  0
  188.9640  177.4370  144.3440 C   0  0  0  0  0  0  0  0  0  0  0  0
  189.8890  176.2250  137.6330 N   0  0  0  0  0  0  0  0  0  0  0  0
  189.2480  177.3100  140.1060 C   0  0  0  0  0  0  0  0  0  0  0  0
  188.3050  177.2930  139.0660 C   0  0  0  0  0  3  0  0  0  0  0  0
  188.6490  176.7460  137.8270 C   0  0  0  0  0  3  0  0  0  0  0  0
  190.8200  176.2170  138.6240 C   0  0  0  0  0  3  0  0  0  0  0  0
  190.5140  176.7540  139.8770 C   0  0  0  0  0  3  0  0  0  0  0  0
  1 15  2  0  0  0  0
  2 16  1  0  0  0  0
  3 21  2  0  0  0  0
  4 13  2  0  0  0  0
  6 18  1  0  0  0  0
  6  2  2  0  0  0  0
  9  7  2  0  0  0  0
 10  8  1  0  0  0  0
 11  9  1  0  0  0  0
 12  2  1  0  0  0  0
 12  1  1  0  0  0  0
 13  5  1  0  0  0  0
 13  7  1  0  0  0  0
 14  4  1  0  0  0  0
 14 11  1  0  0  0  0
 15 20  1  0  0  0  0
 15 21  1  0  0  0  0
 16 11  2  0  0  0  0
 16  3  1  0  0  0  0
 17 10  2  0  0  0  0
 18 14  2  0  0  0  0
 19 10  1  0  0  0  0
 20 19  2  0  0  0  0
 21 17  1  0  0  0  0
 22 25  2  0  0  0  0
 22 26  1  0  0  0  0
 23 12  1  0  0  0  0
 24 23  2  0  0  0  0
 25 24  1  0  0  0  0
 26 27  2  0  0  0  0
 27 23  1  0  0  0  0
M  END
>  <MODEL>
3

>  <REMARK>
 VINA RESULT:      -9.7      2.701      5.730
  Name = 
  1 active torsions:
  status: ('A' for Active; 'I' for Inactive)
    1  A    between atoms: C_9  and  N_15
                            x       y       z     vdW  Elec       q    Type
                         _______ _______ _______ _____ _____    ______ ____

>  <TORSDO>
F 1

$$$$
=
 OpenBabel11052413523D

 27 31  0  0  0  0  0  0  0  0999 V2000
  189.7430  178.1660  141.9180 N   0  0  0  0  0  0  0  0  0  0  0  0
  187.6090  178.1470  140.6910 C   0  0  0  0  0  0  0  0  0  0  0  0
  187.0800  177.5370  143.0450 N   0  0  0  0  0  0  0  0  0  0  0  0
  183.6410  179.1790  140.0060 C   0  0  0  0  0  3  0  0  0  0  0  0
  181.3940  179.3820  140.7770 F   0  0  0  0  0  0  0  0  0  0  0  0
  187.1730  178.6220  139.4900 N   0  0  0  0  0  0  0  0  0  0  0  0
  183.0590  178.5660  142.2750 C   0  0  0  0  0  3  0  0  0  0  0  0
  189.1070  177.1350  147.2210 F   0  0  0  0  0  0  0  0  0  0  0  0
  184.3890  178.2200  142.5260 C   0  0  0  0  0  3  0  0  0  0  0  0
  189.2110  177.4570  145.9100 C   0  0  0  0  0  0  0  0  0  0  0  0
  185.3570  178.3470  141.5180 C   0  0  0  0  0  0  0  0  0  0  0  0
  188.9720  177.7340  140.8280 N   0  0  0  0  0  0  0  0  0  0  0  0
  182.6850  179.0460  141.0160 C   0  0  0  0  0  0  0  0  0  0  0  0
  184.9710  178.8320  140.2530 C   0  0  0  0  0  0  0  0  0  0  0  0
  189.4360  178.0880  143.1780 C   0  0  0  0  0  0  0  0  0  0  0  0
  186.7030  178.0180  141.7470 C   0  0  0  0  0  0  0  0  0  0  0  0
  188.1400  177.2290  145.0480 C   0  0  0  0  0  3  0  0  0  0  0  0
  185.9010  178.9590  139.2770 N   0  0  0  0  0  0  0  0  0  0  0  0
  190.3660  178.0670  145.4310 C   0  0  0  0  0  3  0  0  0  0  0  0
  190.4760  178.3680  144.0750 C   0  0  0  0  0  3  0  0  0  0  0  0
  188.2100  177.5710  143.6900 C   0  0  0  0  0  0  0  0  0  0  0  0
  191.0010  175.8570  137.6400 N   0  0  0  0  0  0  0  0  0  0  0  0
  189.6600  177.1100  139.7230 C   0  0  0  0  0  0  0  0  0  0  0  0
  188.9500  176.4320  138.7200 C   0  0  0  0  0  3  0  0  0  0  0  0
  189.6430  175.8110  137.6780 C   0  0  0  0  0  3  0  0  0  0  0  0
  191.7170  176.4960  138.6030 C   0  0  0  0  0  3  0  0  0  0  0  0
  191.0610  177.1290  139.6610 C   0  0  0  0  0  3  0  0  0  0  0  0
  1 15  2  0  0  0  0
  2 12  1  0  0  0  0
  2 16  1  0  0  0  0
  3 21  2  0  0  0  0
  4 14  1  0  0  0  0
  4 13  2  0  0  0  0
  5 13  1  0  0  0  0
  6  2  2  0  0  0  0
  7  9  2  0  0  0  0
 10  8  1  0  0  0  0
 11 16  2  0  0  0  0
 11  9  1  0  0  0  0
 12  1  1  0  0  0  0
 13  7  1  0  0  0  0
 14 11  1  0  0  0  0
 15 21  1  0  0  0  0
 15 20  1  0  0  0  0
 16  3  1  0  0  0  0
 17 10  2  0  0  0  0
 18  6  1  0  0  0  0
 18 14  2  0  0  0  0
 19 10  1  0  0  0  0
 20 19  2  0  0  0  0
 21 17  1  0  0  0  0
 22 25  2  0  0  0  0
 22 26  1  0  0  0  0
 23 12  1  0  0  0  0
 24 23  2  0  0  0  0
 25 24  1  0  0  0  0
 26 27  2  0  0  0  0
 27 23  1  0  0  0  0
M  END
>  <MODEL>
4

>  <REMARK>
 VINA RESULT:      -9.1      2.905      6.551
  Name = 
  1 active torsions:
  status: ('A' for Active; 'I' for Inactive)
    1  A    between atoms: C_9  and  N_15
                            x       y       z     vdW  Elec       q    Type
                         _______ _______ _______ _____ _____    ______ ____

>  <TORSDO>
F 1

$$$$
=
 OpenBabel11052413523D

 27 31  0  0  0  0  0  0  0  0999 V2000
  189.6480  178.0000  140.2920 N   0  0  0  0  0  0  0  0  0  0  0  0
  187.2410  178.3010  140.7140 C   0  0  0  0  0  0  0  0  0  0  0  0
  188.1480  177.0230  142.6480 N   0  0  0  0  0  0  0  0  0  0  0  0
  183.9120  179.4170  142.9400 C   0  0  0  0  0  3  0  0  0  0  0  0
  182.6630  179.3470  144.9690 F   0  0  0  0  0  0  0  0  0  0  0  0
  186.2570  179.0970  140.2100 N   0  0  0  0  0  0  0  0  0  0  0  0
  184.7260  178.1600  144.8430 C   0  0  0  0  0  3  0  0  0  0  0  0
  192.1810  175.4580  144.3800 F   0  0  0  0  0  0  0  0  0  0  0  0
  185.8550  177.7790  144.1130 C   0  0  0  0  0  3  0  0  0  0  0  0
  191.5250  176.1500  143.4180 C   0  0  0  0  0  0  0  0  0  0  0  0
  186.0210  178.2120  142.7880 C   0  0  0  0  0  0  0  0  0  0  0  0
  188.3160  177.8900  139.8640 N   0  0  0  0  0  0  0  0  0  0  0  0
  183.7550  178.9780  144.2570 C   0  0  0  0  0  0  0  0  0  0  0  0
  185.0390  179.0360  142.2070 C   0  0  0  0  0  0  0  0  0  0  0  0
  190.1570  177.5530  141.4000 C   0  0  0  0  0  0  0  0  0  0  0  0
  187.1520  177.8530  142.0360 C   0  0  0  0  0  0  0  0  0  0  0  0
  190.1310  176.1630  143.3950 C   0  0  0  0  0  3  0  0  0  0  0  0
  185.1950  179.4590  140.9300 N   0  0  0  0  0  0  0  0  0  0  0  0
  192.2380  176.8930  142.4830 C   0  0  0  0  0  3  0  0  0  0  0  0
  191.5550  177.5780  141.4800 C   0  0  0  0  0  3  0  0  0  0  0  0
  189.4230  176.8880  142.4260 C   0  0  0  0  0  0  0  0  0  0  0  0
  187.6850  177.0900  135.7690 N   0  0  0  0  0  0  0  0  0  0  0  0
  188.0780  177.6280  138.4640 C   0  0  0  0  0  0  0  0  0  0  0  0
  187.2250  176.5890  138.0580 C   0  0  0  0  0  3  0  0  0  0  0  0
  187.0370  176.3380  136.6980 C   0  0  0  0  0  3  0  0  0  0  0  0
  188.5270  178.0950  136.1320 C   0  0  0  0  0  3  0  0  0  0  0  0
  188.7410  178.3780  137.4820 C   0  0  0  0  0  3  0  0  0  0  0  0
  1 15  2  0  0  0  0
  2 16  1  0  0  0  0
  4 13  2  0  0  0  0
  6  2  2  0  0  0  0
  6 18  1  0  0  0  0
  9  7  2  0  0  0  0
 10  8  1  0  0  0  0
 11  9  1  0  0  0  0
 12  1  1  0  0  0  0
 12  2  1  0  0  0  0
 13  7  1  0  0  0  0
 13  5  1  0  0  0  0
 14 11  1  0  0  0  0
 14  4  1  0  0  0  0
 15 20  1  0  0  0  0
 15 21  1  0  0  0  0
 16  3  1  0  0  0  0
 16 11  2  0  0  0  0
 17 10  2  0  0  0  0
 18 14  2  0  0  0  0
 19 10  1  0  0  0  0
 20 19  2  0  0  0  0
 21  3  2  0  0  0  0
 21 17  1  0  0  0  0
 22 26  2  0  0  0  0
 22 25  1  0  0  0  0
 23 12  1  0  0  0  0
 24 23  1  0  0  0  0
 25 24  2  0  0  0  0
 26 27  1  0  0  0  0
 27 23  2  0  0  0  0
M  END
>  <MODEL>
5

>  <REMARK>
 VINA RESULT:      -9.0      2.977      4.919
  Name = 
  1 active torsions:
  status: ('A' for Active; 'I' for Inactive)
    1  A    between atoms: C_9  and  N_15
                            x       y       z     vdW  Elec       q    Type
                         _______ _______ _______ _____ _____    ______ ____

>  <TORSDO>
F 1

$$$$
=
 OpenBabel11052413523D

 27 31  0  0  0  0  0  0  0  0999 V2000
  187.7820  178.7640  140.9580 N   0  0  0  0  0  0  0  0  0  0  0  0
  188.2460  177.8820  143.2080 C   0  0  0  0  0  0  0  0  0  0  0  0
  189.6560  176.5750  141.6280 N   0  0  0  0  0  0  0  0  0  0  0  0
  190.6690  176.7550  146.3930 C   0  0  0  0  0  3  0  0  0  0  0  0
  192.5410  175.5460  147.2400 F   0  0  0  0  0  0  0  0  0  0  0  0
  188.0220  178.3060  144.4850 N   0  0  0  0  0  0  0  0  0  0  0  0
  192.0560  175.4350  144.9090 C   0  0  0  0  0  3  0  0  0  0  0  0
  190.8240  176.3940  137.1210 F   0  0  0  0  0  0  0  0  0  0  0  0
  191.2560  175.8080  143.8250 C   0  0  0  0  0  3  0  0  0  0  0  0
  190.1390  177.0070  138.1160 C   0  0  0  0  0  0  0  0  0  0  0  0
  190.1540  176.6560  144.0160 C   0  0  0  0  0  0  0  0  0  0  0  0
  187.3230  178.2440  142.1770 N   0  0  0  0  0  0  0  0  0  0  0  0
  191.7630  175.9080  146.1920 C   0  0  0  0  0  0  0  0  0  0  0  0
  189.8670  177.1280  145.3120 C   0  0  0  0  0  0  0  0  0  0  0  0
  188.6850  178.2540  140.1750 C   0  0  0  0  0  0  0  0  0  0  0  0
  189.3420  177.0550  142.9420 C   0  0  0  0  0  0  0  0  0  0  0  0
  190.1020  176.4410  139.3890 C   0  0  0  0  0  3  0  0  0  0  0  0
  188.8060  177.9470  145.5010 N   0  0  0  0  0  0  0  0  0  0  0  0
  189.5150  178.2280  137.8840 C   0  0  0  0  0  3  0  0  0  0  0  0
  188.7880  178.8370  138.9060 C   0  0  0  0  0  3  0  0  0  0  0  0
  189.4200  177.0620  140.4450 C   0  0  0  0  0  0  0  0  0  0  0  0
  183.2110  178.6280  143.0410 N   0  0  0  0  0  0  0  0  0  0  0  0
  185.9130  178.3520  142.4670 C   0  0  0  0  0  0  0  0  0  0  0  0
  184.9720  178.4930  141.4340 C   0  0  0  0  0  3  0  0  0  0  0  0
  183.6170  178.6270  141.7430 C   0  0  0  0  0  3  0  0  0  0  0  0
  184.0990  178.5050  144.0630 C   0  0  0  0  0  3  0  0  0  0  0  0
  185.4620  178.3700  143.7950 C   0  0  0  0  0  3  0  0  0  0  0  0
  1 12  1  0  0  0  0
  2  6  1  0  0  0  0
  3 16  1  0  0  0  0
  6 18  2  0  0  0  0
  7 13  2  0  0  0  0
  8 10  1  0  0  0  0
  9 11  2  0  0  0  0
  9  7  1  0  0  0  0
 10 17  2  0  0  0  0
 11 14  1  0  0  0  0
 12 23  1  0  0  0  0
 12  2  1  0  0  0  0
 13  4  1  0  0  0  0
 13  5  1  0  0  0  0
 14 18  1  0  0  0  0
 14  4  2  0  0  0  0
 15 21  1  0  0  0  0
 15  1  2  0  0  0  0
 16  2  2  0  0  0  0
 16 11  1  0  0  0  0
 17 21  1  0  0  0  0
 19 10  1  0  0  0  0
 19 20  2  0  0  0  0
 20 15  1  0  0  0  0
 21  3  2  0  0  0  0
 22 26  1  0  0  0  0
 23 27  1  0  0  0  0
 24 25  1  0  0  0  0
 24 23  2  0  0  0  0
 25 22  2  0  0  0  0
 27 26  2  0  0  0  0
M  END
>  <MODEL>
6

>  <REMARK>
 VINA RESULT:      -9.0      2.301      3.024
  Name = 
  1 active torsions:
  status: ('A' for Active; 'I' for Inactive)
    1  A    between atoms: C_9  and  N_15
                            x       y       z     vdW  Elec       q    Type
                         _______ _______ _______ _____ _____    ______ ____

>  <TORSDO>
F 1

$$$$
=
 OpenBabel11052413523D

 27 31  0  0  0  0  0  0  0  0999 V2000
  189.8000  176.7930  140.8480 N   0  0  0  0  0  0  0  0  0  0  0  0
  187.9250  177.6640  142.1850 C   0  0  0  0  0  0  0  0  0  0  0  0
  187.6220  178.5460  139.8770 N   0  0  0  0  0  0  0  0  0  0  0  0
  183.9240  178.3890  143.0490 C   0  0  0  0  0  3  0  0  0  0  0  0
  181.7800  179.1970  142.3910 F   0  0  0  0  0  0  0  0  0  0  0  0
  187.3710  177.3660  143.3940 N   0  0  0  0  0  0  0  0  0  0  0  0
  183.5780  179.2930  140.8290 C   0  0  0  0  0  3  0  0  0  0  0  0
  189.4740  178.2340  135.6130 F   0  0  0  0  0  0  0  0  0  0  0  0
  184.9190  179.0520  140.5180 C   0  0  0  0  0  3  0  0  0  0  0  0
  189.4780  177.8400  136.9090 C   0  0  0  0  0  0  0  0  0  0  0  0
  185.7750  178.4790  141.4710 C   0  0  0  0  0  0  0  0  0  0  0  0
  189.3280  177.4630  141.9870 N   0  0  0  0  0  0  0  0  0  0  0  0
  183.0810  178.9620  142.0930 C   0  0  0  0  0  0  0  0  0  0  0  0
  185.2650  178.1480  142.7410 C   0  0  0  0  0  0  0  0  0  0  0  0
  189.5100  177.0510  139.6080 C   0  0  0  0  0  0  0  0  0  0  0  0
  187.1230  178.2140  141.1800 C   0  0  0  0  0  0  0  0  0  0  0  0
  188.6400  178.4640  137.8310 C   0  0  0  0  0  3  0  0  0  0  0  0
  186.0860  177.5930  143.6640 N   0  0  0  0  0  0  0  0  0  0  0  0
  190.2780  176.7760  137.3120 C   0  0  0  0  0  3  0  0  0  0  0  0
  190.2980  176.3960  138.6520 C   0  0  0  0  0  3  0  0  0  0  0  0
  188.6050  178.0630  139.1740 C   0  0  0  0  0  0  0  0  0  0  0  0
  191.9880  178.1360  145.1920 N   0  0  0  0  0  0  0  0  0  0  0  0
  190.2560  177.6830  143.0710 C   0  0  0  0  0  0  0  0  0  0  0  0
  190.6410  176.6320  143.9180 C   0  0  0  0  0  3  0  0  0  0  0  0
  191.5160  176.8800  144.9770 C   0  0  0  0  0  3  0  0  0  0  0  0
  191.6240  179.1770  144.3970 C   0  0  0  0  0  3  0  0  0  0  0  0
  190.7500  178.9700  143.3270 C   0  0  0  0  0  3  0  0  0  0  0  0
  1 12  1  0  0  0  0
  2  6  1  0  0  0  0
  3 16  1  0  0  0  0
  6 18  2  0  0  0  0
  7 13  1  0  0  0  0
  8 10  1  0  0  0  0
  9  7  2  0  0  0  0
  9 11  1  0  0  0  0
 10 19  1  0  0  0  0
 10 17  2  0  0  0  0
 11 14  2  0  0  0  0
 12  2  1  0  0  0  0
 12 23  1  0  0  0  0
 13  5  1  0  0  0  0
 13  4  2  0  0  0  0
 14  4  1  0  0  0  0
 14 18  1  0  0  0  0
 15  1  2  0  0  0  0
 16 11  1  0  0  0  0
 16  2  2  0  0  0  0
 17 21  1  0  0  0  0
 19 20  2  0  0  0  0
 20 15  1  0  0  0  0
 21 15  1  0  0  0  0
 21  3  2  0  0  0  0
 23 27  2  0  0  0  0
 23 24  1  0  0  0  0
 24 25  2  0  0  0  0
 25 22  1  0  0  0  0
 26 22  2  0  0  0  0
 27 26  1  0  0  0  0
M  END
>  <MODEL>
7

>  <REMARK>
 VINA RESULT:      -8.8      3.281      6.081
  Name = 
  1 active torsions:
  status: ('A' for Active; 'I' for Inactive)
    1  A    between atoms: C_9  and  N_15
                            x       y       z     vdW  Elec       q    Type
                         _______ _______ _______ _____ _____    ______ ____

>  <TORSDO>
F 1

$$$$
=
 OpenBabel11052413523D

 27 31  0  0  0  0  0  0  0  0999 V2000
  187.2480  177.1770  142.1930 N   0  0  0  0  0  0  0  0  0  0  0  0
  189.4890  176.8190  143.1470 C   0  0  0  0  0  0  0  0  0  0  0  0
  188.1850  178.0810  144.8510 N   0  0  0  0  0  0  0  0  0  0  0  0
  192.2030  175.5940  146.0470 C   0  0  0  0  0  3  0  0  0  0  0  0
  192.9570  175.6020  148.3090 F   0  0  0  0  0  0  0  0  0  0  0  0
  190.5500  176.0120  142.8630 N   0  0  0  0  0  0  0  0  0  0  0  0
  190.9970  176.8340  147.7420 C   0  0  0  0  0  3  0  0  0  0  0  0
  183.8890  179.6980  145.6510 F   0  0  0  0  0  0  0  0  0  0  0  0
  190.0710  177.2520  146.7820 C   0  0  0  0  0  3  0  0  0  0  0  0
  184.7370  179.0100  144.8490 C   0  0  0  0  0  0  0  0  0  0  0  0
  190.2050  176.8460  145.4460 C   0  0  0  0  0  0  0  0  0  0  0  0
  188.6440  177.2680  142.0830 N   0  0  0  0  0  0  0  0  0  0  0  0
  192.0620  176.0060  147.3760 C   0  0  0  0  0  0  0  0  0  0  0  0
  191.2800  176.0110  145.0850 C   0  0  0  0  0  0  0  0  0  0  0  0
  186.5070  177.6150  143.1660 C   0  0  0  0  0  0  0  0  0  0  0  0
  189.2810  177.2410  144.4630 C   0  0  0  0  0  0  0  0  0  0  0  0
  186.0980  178.9680  145.1440 C   0  0  0  0  0  3  0  0  0  0  0  0
  191.4130  175.6150  143.7980 N   0  0  0  0  0  0  0  0  0  0  0  0
  184.2440  178.2990  143.7590 C   0  0  0  0  0  3  0  0  0  0  0  0
  185.1270  177.6180  142.9240 C   0  0  0  0  0  3  0  0  0  0  0  0
  186.9970  178.2470  144.3470 C   0  0  0  0  0  0  0  0  0  0  0  0
  190.2400  178.0310  138.2520 N   0  0  0  0  0  0  0  0  0  0  0  0
  189.1990  177.5500  140.7800 C   0  0  0  0  0  0  0  0  0  0  0  0
  188.5700  178.4500  139.9060 C   0  0  0  0  0  3  0  0  0  0  0  0
  189.1110  178.6810  138.6400 C   0  0  0  0  0  3  0  0  0  0  0  0
  190.8660  177.1440  139.0720 C   0  0  0  0  0  3  0  0  0  0  0  0
  190.3560  176.8860  140.3450 C   0  0  0  0  0  3  0  0  0  0  0  0
  1 15  2  0  0  0  0
  2 16  1  0  0  0  0
  4 13  2  0  0  0  0
  6  2  2  0  0  0  0
  6 18  1  0  0  0  0
  9  7  2  0  0  0  0
 10 17  2  0  0  0  0
 10  8  1  0  0  0  0
 11  9  1  0  0  0  0
 12  1  1  0  0  0  0
 12  2  1  0  0  0  0
 13  7  1  0  0  0  0
 13  5  1  0  0  0  0
 14 11  1  0  0  0  0
 14  4  1  0  0  0  0
 15 21  1  0  0  0  0
 16  3  1  0  0  0  0
 16 11  2  0  0  0  0
 18 14  2  0  0  0  0
 19 10  1  0  0  0  0
 20 15  1  0  0  0  0
 20 19  2  0  0  0  0
 21  3  2  0  0  0  0
 21 17  1  0  0  0  0
 22 25  2  0  0  0  0
 22 26  1  0  0  0  0
 23 12  1  0  0  0  0
 24 23  2  0  0  0  0
 25 24  1  0  0  0  0
 26 27  2  0  0  0  0
 27 23  1  0  0  0  0
M  END
>  <MODEL>
8

>  <REMARK>
 VINA RESULT:      -8.6      2.990      5.726
  Name = 
  1 active torsions:
  status: ('A' for Active; 'I' for Inactive)
    1  A    between atoms: C_9  and  N_15
                            x       y       z     vdW  Elec       q    Type
                         _______ _______ _______ _____ _____    ______ ____

>  <TORSDO>
F 1

$$$$
=
 OpenBabel11052413523D

 27 31  0  0  0  0  0  0  0  0999 V2000
  189.5890  176.4660  142.9900 N   0  0  0  0  0  0  0  0  0  0  0  0
  187.6680  177.3580  144.2450 C   0  0  0  0  0  0  0  0  0  0  0  0
  187.6570  178.4920  142.0300 N   0  0  0  0  0  0  0  0  0  0  0  0
  183.6710  178.3380  144.8320 C   0  0  0  0  0  3  0  0  0  0  0  0
  181.6690  179.3920  144.0820 F   0  0  0  0  0  0  0  0  0  0  0  0
  186.9800  176.9880  145.3620 N   0  0  0  0  0  0  0  0  0  0  0  0
  183.6100  179.4890  142.7020 C   0  0  0  0  0  3  0  0  0  0  0  0
  189.8780  178.4540  137.9350 F   0  0  0  0  0  0  0  0  0  0  0  0
  184.9520  179.1640  142.4840 C   0  0  0  0  0  3  0  0  0  0  0  0
  189.7280  177.9320  139.1750 C   0  0  0  0  0  0  0  0  0  0  0  0
  185.6660  178.4250  143.4410 C   0  0  0  0  0  0  0  0  0  0  0  0
  189.0640  177.0560  144.1500 N   0  0  0  0  0  0  0  0  0  0  0  0
  182.9700  179.0770  143.8750 C   0  0  0  0  0  0  0  0  0  0  0  0
  185.0130  178.0130  144.6180 C   0  0  0  0  0  0  0  0  0  0  0  0
  189.4410  176.8730  141.7650 C   0  0  0  0  0  0  0  0  0  0  0  0
  187.0110  178.0750  143.2410 C   0  0  0  0  0  0  0  0  0  0  0  0
  188.8560  178.5290  140.0830 C   0  0  0  0  0  3  0  0  0  0  0  0
  185.6960  177.2980  145.5430 N   0  0  0  0  0  0  0  0  0  0  0  0
  190.4010  176.7660  139.5280 C   0  0  0  0  0  3  0  0  0  0  0  0
  190.2620  176.2520  140.8150 C   0  0  0  0  0  3  0  0  0  0  0  0
  188.6620  177.9990  141.3660 C   0  0  0  0  0  0  0  0  0  0  0  0
  191.4640  177.0850  147.6190 N   0  0  0  0  0  0  0  0  0  0  0  0
  189.8980  177.0840  145.3270 C   0  0  0  0  0  0  0  0  0  0  0  0
  191.1690  176.4870  145.3270 C   0  0  0  0  0  3  0  0  0  0  0  0
  191.9420  176.5020  146.4890 C   0  0  0  0  0  3  0  0  0  0  0  0
  190.2320  177.6610  147.6550 C   0  0  0  0  0  3  0  0  0  0  0  0
  189.4280  177.6670  146.5130 C   0  0  0  0  0  3  0  0  0  0  0  0
  1 12  1  0  0  0  0
  2  6  1  0  0  0  0
  3 16  1  0  0  0  0
  6 18  2  0  0  0  0
  7 13  1  0  0  0  0
  8 10  1  0  0  0  0
  9  7  2  0  0  0  0
  9 11  1  0  0  0  0
 10 19  1  0  0  0  0
 10 17  2  0  0  0  0
 11 14  2  0  0  0  0
 12  2  1  0  0  0  0
 12 23  1  0  0  0  0
 13  5  1  0  0  0  0
 13  4  2  0  0  0  0
 14  4  1  0  0  0  0
 14 18  1  0  0  0  0
 15  1  2  0  0  0  0
 16 11  1  0  0  0  0
 16  2  2  0  0  0  0
 17 21  1  0  0  0  0
 19 20  2  0  0  0  0
 20 15  1  0  0  0  0
 21 15  1  0  0  0  0
 21  3  2  0  0  0  0
 22 26  1  0  0  0  0
 23 24  2  0  0  0  0
 23 27  1  0  0  0  0
 24 25  1  0  0  0  0
 25 22  2  0  0  0  0
 27 26  2  0  0  0  0
M  END
>  <MODEL>
9

>  <REMARK>
 VINA RESULT:      -8.5      2.664      5.708
  Name = 
  1 active torsions:
  status: ('A' for Active; 'I' for Inactive)
    1  A    between atoms: C_9  and  N_15
                            x       y       z     vdW  Elec       q    Type
                         _______ _______ _______ _____ _____    ______ ____

>  <TORSDO>
F 1

$$$$
