=
 OpenBabel11052416533D

 32 35  0  0  1  0  0  0  0  0999 V2000
  188.8070  177.3230  142.7310 C   0  0  0  0  0  0  0  0  0  0  0  0
  183.9710  178.6850  143.0890 C   0  0  0  0  0  3  0  0  0  0  0  0
  184.1060  178.8270  144.4130 C   0  0  0  0  0  3  0  0  0  0  0  0
  190.2410  177.1420  144.7820 C   0  0  0  0  0  0  0  0  0  0  0  0
  190.2890  177.1130  146.2230 N   0  0  0  0  0  0  0  0  0  0  0  0
  190.1100  177.5300  140.6090 C   0  0  1  0  0  3  0  0  0  0  0  0
  187.7880  178.4440  140.7500 C   0  0  0  0  0  2  0  0  0  0  0  0
  189.0970  177.8660  148.2400 C   0  0  0  0  0  0  0  0  0  0  0  0
  185.1000  178.2200  142.2090 C   0  0  0  0  0  2  0  0  0  0  0  0
  187.5060  177.6360  142.0180 C   0  0  2  0  0  3  0  0  0  0  0  0
  186.4750  178.3790  142.8660 C   0  0  2  0  0  3  0  0  0  0  0  0
  187.8040  177.9210  144.9450 C   0  0  1  0  0  3  0  0  0  0  0  0
  190.3550  178.2390  148.9490 C   0  0  0  0  0  1  0  0  0  0  0  0
  188.7950  177.7310  139.8500 C   0  0  1  0  0  3  0  0  0  0  0  0
  191.4900  176.5900  146.8670 C   0  0  0  0  0  1  0  0  0  0  0  0
  185.4260  178.6430  145.1100 C   0  0  0  0  0  2  0  0  0  0  0  0
  186.4270  177.8220  144.2880 C   0  0  1  0  0  3  0  0  0  0  0  0
  187.7830  177.1830  146.2800 C   0  0  0  0  0  2  0  0  0  0  0  0
  189.8690  176.6980  141.8670 C   0  0  0  0  0  2  0  0  0  0  0  0
  191.3060  176.9570  144.1310 O   0  0  0  0  0  0  0  0  0  0  0  0
  187.8670  178.1070  148.9210 N   0  0  0  0  0  1  0  0  0  0  0  0
  188.9460  177.4190  144.0780 C   0  0  0  0  0  0  0  0  0  0  0  0
  189.0890  177.3850  146.9790 C   0  0  0  0  0  0  0  0  0  0  0  0
  192.2820  177.3740  140.1980 C   0  0  0  0  0  1  0  0  0  0  0  0
  191.0410  176.8720  139.8000 O   0  0  0  0  0  0  0  0  0  0  0  0
  189.0290  178.5620  138.5940 C   0  0  0  0  0  2  0  0  0  0  0  0
  188.4330  177.8890  137.3670 C   0  0  0  0  0  2  0  0  0  0  0  0
  187.1020  178.5250  137.0120 C   0  0  0  0  0  2  0  0  0  0  0  0
  185.9860  177.5160  137.2240 C   0  0  0  0  0  2  0  0  0  0  0  0
  184.9860  177.9940  138.2690 C   0  0  0  0  0  3  0  0  0  0  0  0
  185.2400  179.3220  138.6160 O   0  0  0  0  0  1  0  0  0  0  0  0
  183.6810  177.8710  137.7880 O   0  0  0  0  0  1  0  0  0  0  0  0
  1 22  2  0  0  0  0
  2  3  2  0  0  0  0
  3 16  1  0  0  0  0
  4  5  1  0  0  0  0
  5 15  1  0  0  0  0
  5 23  1  0  0  0  0
  6 25  1  6  0  0  0
  6 19  1  0  0  0  0
  8 21  1  0  0  0  0
  8 13  1  0  0  0  0
  9  2  1  0  0  0  0
 10  7  1  6  0  0  0
 10  1  1  0  0  0  0
 10 11  1  0  0  0  0
 11  9  1  6  0  0  0
 11 17  1  0  0  0  0
 12 18  1  1  0  0  0
 14 26  1  6  0  0  0
 14  6  1  0  0  0  0
 14  7  1  0  0  0  0
 17 12  1  0  0  0  0
 17 16  1  1  0  0  0
 18 23  1  0  0  0  0
 19  1  1  0  0  0  0
 20  4  2  0  0  0  0
 22  4  1  0  0  0  0
 22 12  1  0  0  0  0
 23  8  2  0  0  0  0
 25 24  1  0  0  0  0
 27 26  1  0  0  0  0
 28 29  1  0  0  0  0
 28 27  1  0  0  0  0
 29 30  1  0  0  0  0
 30 31  1  0  0  0  0
 32 30  1  0  0  0  0
M  END
>  <MODEL>
1

>  <REMARK>
 VINA RESULT:      -9.7      0.000      0.000
  Name = 
  6 active torsions:
  status: ('A' for Active; 'I' for Inactive)
    1  A    between atoms: C_1  and  C_10
    2  A    between atoms: C_2  and  C_12
    3  A    between atoms: C_2  and  C_24
    4  A    between atoms: C_8  and  O_23
    5  A    between atoms: C_10  and  C_24
    6  A    between atoms: C_12  and  C_21
                            x       y       z     vdW  Elec       q    Type
                         _______ _______ _______ _____ _____    ______ ____

>  <TORSDO>
F 6

$$$$
=
 OpenBabel11052416533D

 32 35  0  0  1  0  0  0  0  0999 V2000
  186.6460  178.3920  142.1290 C   0  0  0  0  0  0  0  0  0  0  0  0
  186.2650  178.1910  147.1490 C   0  0  0  0  0  3  0  0  0  0  0  0
  184.9310  178.2530  147.0520 C   0  0  0  0  0  3  0  0  0  0  0  0
  184.5960  178.6080  140.6980 C   0  0  0  0  0  0  0  0  0  0  0  0
  183.1800  178.8740  140.6490 N   0  0  0  0  0  0  0  0  0  0  0  0
  188.6480  177.5450  140.8970 C   0  0  1  0  0  3  0  0  0  0  0  0
  188.4520  177.1940  143.3640 C   0  0  0  0  0  2  0  0  0  0  0  0
  181.1160  178.7560  141.9850 C   0  0  0  0  0  0  0  0  0  0  0  0
  187.1630  178.2420  145.9420 C   0  0  0  0  0  2  0  0  0  0  0  0
  187.3500  178.2500  143.4650 C   0  0  2  0  0  3  0  0  0  0  0  0
  186.4330  177.9050  144.6370 C   0  0  2  0  0  3  0  0  0  0  0  0
  184.4060  178.4150  143.2470 C   0  0  1  0  0  3  0  0  0  0  0  0
  180.3040  178.2460  140.8430 C   0  0  0  0  0  1  0  0  0  0  0  0
  189.4160  177.5060  142.2210 C   0  0  1  0  0  3  0  0  0  0  0  0
  182.5840  179.2280  139.3650 C   0  0  0  0  0  1  0  0  0  0  0  0
  184.2210  178.2650  145.7260 C   0  0  0  0  0  2  0  0  0  0  0  0
  185.1270  178.6950  144.5660 C   0  0  1  0  0  3  0  0  0  0  0  0
  183.2160  179.3590  143.1100 C   0  0  0  0  0  2  0  0  0  0  0  0
  187.5580  178.6140  140.9530 C   0  0  0  0  0  2  0  0  0  0  0  0
  185.2250  178.4440  139.6170 O   0  0  0  0  0  0  0  0  0  0  0  0
  180.4560  178.9080  143.2400 N   0  0  0  0  0  1  0  0  0  0  0  0
  185.2970  178.5020  142.0190 C   0  0  0  0  0  0  0  0  0  0  0  0
  182.4400  179.0020  141.8820 C   0  0  0  0  0  0  0  0  0  0  0  0
  188.6870  178.2560  138.7990 C   0  0  0  0  0  1  0  0  0  0  0  0
  189.5160  177.8370  139.8420 O   0  0  0  0  0  0  0  0  0  0  0  0
  190.5050  176.4410  142.1720 C   0  0  0  0  0  2  0  0  0  0  0  0
  191.6930  176.8250  143.0390 C   0  0  0  0  0  2  0  0  0  0  0  0
  191.6390  176.0890  144.3650 C   0  0  0  0  0  2  0  0  0  0  0  0
  191.3910  177.0840  145.4860 C   0  0  0  0  0  2  0  0  0  0  0  0
  191.1790  176.3840  146.8230 C   0  0  0  0  0  3  0  0  0  0  0  0
  192.1740  176.7500  147.7300 O   0  0  0  0  0  1  0  0  0  0  0  0
  189.9230  176.6990  147.3440 O   0  0  0  0  0  1  0  0  0  0  0  0
  1 10  1  0  0  0  0
  3  2  2  0  0  0  0
  4 22  1  0  0  0  0
  5  4  1  0  0  0  0
  5 23  1  0  0  0  0
  6 25  1  6  0  0  0
  6 19  1  0  0  0  0
  6 14  1  0  0  0  0
  8 21  1  0  0  0  0
  9  2  1  0  0  0  0
 10  7  1  6  0  0  0
 10 11  1  0  0  0  0
 11  9  1  1  0  0  0
 12 18  1  6  0  0  0
 12 17  1  0  0  0  0
 13  8  1  0  0  0  0
 14 26  1  6  0  0  0
 14  7  1  0  0  0  0
 15  5  1  0  0  0  0
 16  3  1  0  0  0  0
 17 11  1  0  0  0  0
 17 16  1  1  0  0  0
 19  1  1  0  0  0  0
 20  4  2  0  0  0  0
 22  1  2  0  0  0  0
 22 12  1  0  0  0  0
 23  8  2  0  0  0  0
 23 18  1  0  0  0  0
 24 25  1  0  0  0  0
 26 27  1  0  0  0  0
 27 28  1  0  0  0  0
 28 29  1  0  0  0  0
 29 30  1  0  0  0  0
 30 32  1  0  0  0  0
 30 31  1  0  0  0  0
M  END
>  <MODEL>
2

>  <REMARK>
 VINA RESULT:      -9.4      2.934      7.012
  Name = 
  6 active torsions:
  status: ('A' for Active; 'I' for Inactive)
    1  A    between atoms: C_1  and  C_10
    2  A    between atoms: C_2  and  C_12
    3  A    between atoms: C_2  and  C_24
    4  A    between atoms: C_8  and  O_23
    5  A    between atoms: C_10  and  C_24
    6  A    between atoms: C_12  and  C_21
                            x       y       z     vdW  Elec       q    Type
                         _______ _______ _______ _____ _____    ______ ____

>  <TORSDO>
F 6

$$$$
=
 OpenBabel11052416533D

 32 35  0  0  1  0  0  0  0  0999 V2000
  188.8150  177.3170  142.7300 C   0  0  0  0  0  0  0  0  0  0  0  0
  183.9700  178.6560  143.0580 C   0  0  0  0  0  3  0  0  0  0  0  0
  184.0960  178.7980  144.3840 C   0  0  0  0  0  3  0  0  0  0  0  0
  190.2370  177.1430  144.7900 C   0  0  0  0  0  0  0  0  0  0  0  0
  190.2760  177.1130  146.2320 N   0  0  0  0  0  0  0  0  0  0  0  0
  190.1300  177.5310  140.6170 C   0  0  1  0  0  3  0  0  0  0  0  0
  187.8020  178.4330  140.7430 C   0  0  0  0  0  2  0  0  0  0  0  0
  189.0680  177.8610  148.2410 C   0  0  0  0  0  0  0  0  0  0  0  0
  185.1060  178.1960  142.1850 C   0  0  0  0  0  2  0  0  0  0  0  0
  187.5170  177.6240  142.0090 C   0  0  2  0  0  3  0  0  0  0  0  0
  186.4770  178.3620  142.8510 C   0  0  2  0  0  3  0  0  0  0  0  0
  187.7950  177.9100  144.9380 C   0  0  1  0  0  3  0  0  0  0  0  0
  190.3200  178.2400  148.9580 C   0  0  0  0  0  1  0  0  0  0  0  0
  188.8190  177.7250  139.8490 C   0  0  1  0  0  3  0  0  0  0  0  0
  191.4760  176.5970  146.8820 C   0  0  0  0  0  1  0  0  0  0  0  0
  185.4130  178.6200  145.0890 C   0  0  0  0  0  2  0  0  0  0  0  0
  186.4230  177.8040  144.2720 C   0  0  1  0  0  3  0  0  0  0  0  0
  187.7690  177.1710  146.2730 C   0  0  0  0  0  2  0  0  0  0  0  0
  189.8850  176.6980  141.8730 C   0  0  0  0  0  2  0  0  0  0  0  0
  191.3060  176.9630  144.1450 O   0  0  0  0  0  0  0  0  0  0  0  0
  187.8330  178.0950  148.9140 N   0  0  0  0  0  1  0  0  0  0  0  0
  188.9450  177.4130  144.0780 C   0  0  0  0  0  0  0  0  0  0  0  0
  189.0700  177.3800  146.9800 C   0  0  0  0  0  0  0  0  0  0  0  0
  192.3070  177.3620  140.2400 C   0  0  0  0  0  1  0  0  0  0  0  0
  191.0690  176.8770  139.8130 O   0  0  0  0  0  0  0  0  0  0  0  0
  189.0560  178.5580  138.5950 C   0  0  0  0  0  2  0  0  0  0  0  0
  188.6210  177.8090  137.3450 C   0  0  0  0  0  2  0  0  0  0  0  0
  188.0530  176.4510  137.7140 C   0  0  0  0  0  2  0  0  0  0  0  0
  188.6340  175.3920  136.7930 C   0  0  0  0  0  2  0  0  0  0  0  0
  190.0630  175.0330  137.1800 C   0  0  0  0  0  3  0  0  0  0  0  0
  190.1570  173.6780  137.5000 O   0  0  0  0  0  1  0  0  0  0  0  0
  190.9410  175.3350  136.1370 O   0  0  0  0  0  1  0  0  0  0  0  0
  1 22  2  0  0  0  0
  2  3  2  0  0  0  0
  3 16  1  0  0  0  0
  4  5  1  0  0  0  0
  5 15  1  0  0  0  0
  5 23  1  0  0  0  0
  6 25  1  6  0  0  0
  6 19  1  0  0  0  0
  8 21  1  0  0  0  0
  8 13  1  0  0  0  0
  9  2  1  0  0  0  0
 10  7  1  6  0  0  0
 10  1  1  0  0  0  0
 10 11  1  0  0  0  0
 11  9  1  6  0  0  0
 11 17  1  0  0  0  0
 12 18  1  1  0  0  0
 14 26  1  6  0  0  0
 14  6  1  0  0  0  0
 14  7  1  0  0  0  0
 17 12  1  0  0  0  0
 17 16  1  1  0  0  0
 18 23  1  0  0  0  0
 19  1  1  0  0  0  0
 20  4  2  0  0  0  0
 22  4  1  0  0  0  0
 22 12  1  0  0  0  0
 23  8  2  0  0  0  0
 25 24  1  0  0  0  0
 27 28  1  0  0  0  0
 27 26  1  0  0  0  0
 29 30  1  0  0  0  0
 29 28  1  0  0  0  0
 30 31  1  0  0  0  0
 32 30  1  0  0  0  0
M  END
>  <MODEL>
3

>  <REMARK>
 VINA RESULT:      -9.4      1.950      2.321
  Name = 
  6 active torsions:
  status: ('A' for Active; 'I' for Inactive)
    1  A    between atoms: C_1  and  C_10
    2  A    between atoms: C_2  and  C_12
    3  A    between atoms: C_2  and  C_24
    4  A    between atoms: C_8  and  O_23
    5  A    between atoms: C_10  and  C_24
    6  A    between atoms: C_12  and  C_21
                            x       y       z     vdW  Elec       q    Type
                         _______ _______ _______ _____ _____    ______ ____

>  <TORSDO>
F 6

$$$$
=
 OpenBabel11052416533D

 32 35  0  0  1  0  0  0  0  0999 V2000
  188.1660  178.0840  142.1610 C   0  0  0  0  0  0  0  0  0  0  0  0
  184.8020  178.6380  145.8700 C   0  0  0  0  0  3  0  0  0  0  0  0
  183.8110  178.6630  144.9710 C   0  0  0  0  0  3  0  0  0  0  0  0
  187.4310  178.0480  139.7620 C   0  0  0  0  0  0  0  0  0  0  0  0
  186.3620  178.2800  138.8230 N   0  0  0  0  0  0  0  0  0  0  0  0
  190.4290  177.0940  142.5340 C   0  0  1  0  0  3  0  0  0  0  0  0
  188.7490  177.1170  144.3840 C   0  0  0  0  0  2  0  0  0  0  0  0
  183.9100  178.3310  138.6180 C   0  0  0  0  0  0  0  0  0  0  0  0
  186.2490  178.5210  145.4710 C   0  0  0  0  0  2  0  0  0  0  0  0
  187.9000  178.1580  143.6530 C   0  0  2  0  0  3  0  0  0  0  0  0
  186.4360  177.9780  144.0500 C   0  0  2  0  0  3  0  0  0  0  0  0
  185.7180  178.2390  141.6600 C   0  0  1  0  0  3  0  0  0  0  0  0
  183.9200  177.6410  137.2950 C   0  0  0  0  0  1  0  0  0  0  0  0
  190.2300  177.2690  144.0430 C   0  0  1  0  0  3  0  0  0  0  0  0
  186.6980  178.4260  137.4100 C   0  0  0  0  0  1  0  0  0  0  0  0
  184.0550  178.4620  143.5000 C   0  0  0  0  0  2  0  0  0  0  0  0
  185.5100  178.7270  143.0940 C   0  0  1  0  0  3  0  0  0  0  0  0
  184.9350  179.1320  140.7020 C   0  0  0  0  0  2  0  0  0  0  0  0
  189.6180  178.1410  141.7730 C   0  0  0  0  0  2  0  0  0  0  0  0
  188.5720  177.7330  139.3250 O   0  0  0  0  0  0  0  0  0  0  0  0
  182.6380  178.6600  139.1730 N   0  0  0  0  0  1  0  0  0  0  0  0
  187.1750  178.1540  141.2360 C   0  0  0  0  0  0  0  0  0  0  0  0
  185.0380  178.5810  139.3150 C   0  0  0  0  0  0  0  0  0  0  0  0
  191.7890  177.4950  140.8320 C   0  0  0  0  0  1  0  0  0  0  0  0
  191.7800  177.2380  142.2040 O   0  0  0  0  0  0  0  0  0  0  0  0
  191.0360  176.2260  144.8080 C   0  0  0  0  0  2  0  0  0  0  0  0
  191.6710  176.8250  146.0540 C   0  0  0  0  0  2  0  0  0  0  0  0
  190.8920  176.4170  147.2910 C   0  0  0  0  0  2  0  0  0  0  0  0
  190.3270  177.6570  147.9640 C   0  0  0  0  0  2  0  0  0  0  0  0
  188.8040  177.6740  147.9210 C   0  0  0  0  0  3  0  0  0  0  0  0
  188.3040  176.3800  147.7770 O   0  0  0  0  0  1  0  0  0  0  0  0
  188.2900  178.2540  149.0830 O   0  0  0  0  0  1  0  0  0  0  0  0
  1 10  1  0  0  0  0
  3  2  2  0  0  0  0
  4 22  1  0  0  0  0
  5 23  1  0  0  0  0
  5  4  1  0  0  0  0
  6 25  1  1  0  0  0
  6 14  1  0  0  0  0
  8 21  1  0  0  0  0
  8 23  2  0  0  0  0
  9  2  1  0  0  0  0
 10 11  1  0  0  0  0
 10  7  1  1  0  0  0
 11  9  1  1  0  0  0
 12 18  1  6  0  0  0
 12 17  1  0  0  0  0
 13  8  1  0  0  0  0
 14  7  1  0  0  0  0
 14 26  1  1  0  0  0
 15  5  1  0  0  0  0
 16  3  1  0  0  0  0
 17 16  1  1  0  0  0
 17 11  1  0  0  0  0
 19  1  1  0  0  0  0
 19  6  1  0  0  0  0
 20  4  2  0  0  0  0
 22 12  1  0  0  0  0
 22  1  2  0  0  0  0
 23 18  1  0  0  0  0
 24 25  1  0  0  0  0
 26 27  1  0  0  0  0
 27 28  1  0  0  0  0
 28 29  1  0  0  0  0
 30 29  1  0  0  0  0
 30 32  1  0  0  0  0
 31 30  1  0  0  0  0
M  END
>  <MODEL>
4

>  <REMARK>
 VINA RESULT:      -9.0      2.942      7.192
  Name = 
  6 active torsions:
  status: ('A' for Active; 'I' for Inactive)
    1  A    between atoms: C_1  and  C_10
    2  A    between atoms: C_2  and  C_12
    3  A    between atoms: C_2  and  C_24
    4  A    between atoms: C_8  and  O_23
    5  A    between atoms: C_10  and  C_24
    6  A    between atoms: C_12  and  C_21
                            x       y       z     vdW  Elec       q    Type
                         _______ _______ _______ _____ _____    ______ ____

>  <TORSDO>
F 6

$$$$
=
 OpenBabel11052416533D

 32 35  0  0  1  0  0  0  0  0999 V2000
  187.2100  178.3990  141.8320 C   0  0  0  0  0  0  0  0  0  0  0  0
  183.1830  179.0390  144.7900 C   0  0  0  0  0  3  0  0  0  0  0  0
  182.3780  178.9070  143.7270 C   0  0  0  0  0  3  0  0  0  0  0  0
  186.9430  178.0880  139.3560 C   0  0  0  0  0  0  0  0  0  0  0  0
  186.0580  178.1520  138.2190 N   0  0  0  0  0  0  0  0  0  0  0  0
  189.4150  177.6190  142.7100 C   0  0  1  0  0  3  0  0  0  0  0  0
  187.4180  177.6860  144.2120 C   0  0  0  0  0  2  0  0  0  0  0  0
  183.6900  178.0000  137.5680 C   0  0  0  0  0  0  0  0  0  0  0  0
  184.6830  178.9940  144.6750 C   0  0  0  0  0  2  0  0  0  0  0  0
  186.6650  178.5890  143.2340 C   0  0  2  0  0  3  0  0  0  0  0  0
  185.1650  178.3390  143.3760 C   0  0  2  0  0  3  0  0  0  0  0  0
  184.8960  178.3240  140.8800 C   0  0  1  0  0  3  0  0  0  0  0  0
  183.9880  177.1950  136.3480 C   0  0  0  0  0  1  0  0  0  0  0  0
  188.9260  177.9160  144.1310 C   0  0  1  0  0  3  0  0  0  0  0  0
  186.6460  178.1920  136.8840 C   0  0  0  0  0  1  0  0  0  0  0  0
  182.9060  178.5900  142.3550 C   0  0  0  0  0  2  0  0  0  0  0  0
  184.3940  178.9250  142.1940 C   0  0  1  0  0  3  0  0  0  0  0  0
  184.2580  179.0640  139.7090 C   0  0  0  0  0  2  0  0  0  0  0  0
  188.7040  178.5280  141.7100 C   0  0  0  0  0  2  0  0  0  0  0  0
  188.1610  177.8190  139.1680 O   0  0  0  0  0  0  0  0  0  0  0  0
  182.3200  178.2830  137.8460 N   0  0  0  0  0  1  0  0  0  0  0  0
  186.4080  178.3090  140.7390 C   0  0  0  0  0  0  0  0  0  0  0  0
  184.6510  178.3970  138.4290 C   0  0  0  0  0  0  0  0  0  0  0  0
  191.1340  177.4300  141.3250 C   0  0  0  0  0  1  0  0  0  0  0  0
  190.7930  177.8330  142.6190 O   0  0  0  0  0  0  0  0  0  0  0  0
  189.6310  177.0120  145.1350 C   0  0  0  0  0  2  0  0  0  0  0  0
  188.8640  176.9400  146.4470 C   0  0  0  0  0  2  0  0  0  0  0  0
  189.8170  177.0520  147.6210 C   0  0  0  0  0  2  0  0  0  0  0  0
  191.2500  177.0210  147.1150 C   0  0  0  0  0  2  0  0  0  0  0  0
  191.9730  175.7520  147.5490 C   0  0  0  0  0  3  0  0  0  0  0  0
  192.4710  175.0690  146.4390 O   0  0  0  0  0  1  0  0  0  0  0  0
  193.0160  176.0600  148.4240 O   0  0  0  0  0  1  0  0  0  0  0  0
  1 10  1  0  0  0  0
  3  2  2  0  0  0  0
  4 22  1  0  0  0  0
  5 23  1  0  0  0  0
  5  4  1  0  0  0  0
  6 25  1  1  0  0  0
  6 14  1  0  0  0  0
  8 21  1  0  0  0  0
  8 23  2  0  0  0  0
  9  2  1  0  0  0  0
 10 11  1  0  0  0  0
 10  7  1  1  0  0  0
 11  9  1  1  0  0  0
 12 18  1  6  0  0  0
 12 17  1  0  0  0  0
 13  8  1  0  0  0  0
 14  7  1  0  0  0  0
 14 26  1  1  0  0  0
 15  5  1  0  0  0  0
 16  3  1  0  0  0  0
 17 16  1  1  0  0  0
 17 11  1  0  0  0  0
 19  1  1  0  0  0  0
 19  6  1  0  0  0  0
 20  4  2  0  0  0  0
 22 12  1  0  0  0  0
 22  1  2  0  0  0  0
 23 18  1  0  0  0  0
 24 25  1  0  0  0  0
 26 27  1  0  0  0  0
 27 28  1  0  0  0  0
 29 30  1  0  0  0  0
 29 28  1  0  0  0  0
 30 32  1  0  0  0  0
 31 30  1  0  0  0  0
M  END
>  <MODEL>
5

>  <REMARK>
 VINA RESULT:      -8.8      3.059      7.767
  Name = 
  6 active torsions:
  status: ('A' for Active; 'I' for Inactive)
    1  A    between atoms: C_1  and  C_10
    2  A    between atoms: C_2  and  C_12
    3  A    between atoms: C_2  and  C_24
    4  A    between atoms: C_8  and  O_23
    5  A    between atoms: C_10  and  C_24
    6  A    between atoms: C_12  and  C_21
                            x       y       z     vdW  Elec       q    Type
                         _______ _______ _______ _____ _____    ______ ____

>  <TORSDO>
F 6

$$$$
=
 OpenBabel11052416533D

 32 35  0  0  1  0  0  0  0  0999 V2000
  189.3360  177.7080  140.9250 C   0  0  0  0  0  0  0  0  0  0  0  0
  184.5730  179.1520  140.1480 C   0  0  0  0  0  3  0  0  0  0  0  0
  184.6870  178.8400  138.8500 C   0  0  0  0  0  3  0  0  0  0  0  0
  190.7550  176.8980  139.0200 C   0  0  0  0  0  0  0  0  0  0  0  0
  190.8970  176.7660  137.5910 N   0  0  0  0  0  0  0  0  0  0  0  0
  190.1850  177.0220  143.1720 C   0  0  1  0  0  3  0  0  0  0  0  0
  187.7540  177.5010  142.8410 C   0  0  0  0  0  2  0  0  0  0  0  0
  189.6090  176.5980  135.5000 C   0  0  0  0  0  0  0  0  0  0  0  0
  185.7180  179.0100  141.1140 C   0  0  0  0  0  2  0  0  0  0  0  0
  188.0360  178.2150  141.5170 C   0  0  2  0  0  3  0  0  0  0  0  0
  186.8190  178.0740  140.6050 C   0  0  2  0  0  3  0  0  0  0  0  0
  188.3030  177.5500  138.6500 C   0  0  1  0  0  3  0  0  0  0  0  0
  190.4980  175.5410  134.9370 C   0  0  0  0  0  1  0  0  0  0  0  0
  188.9310  177.6350  143.8050 C   0  0  1  0  0  3  0  0  0  0  0  0
  192.2240  176.4950  137.0470 C   0  0  0  0  0  1  0  0  0  0  0  0
  185.9320  178.2170  138.2810 C   0  0  0  0  0  2  0  0  0  0  0  0
  187.1680  178.4370  139.1620 C   0  0  1  0  0  3  0  0  0  0  0  0
  188.7680  178.0580  137.2880 C   0  0  0  0  0  2  0  0  0  0  0  0
  190.5130  177.7350  141.8610 C   0  0  0  0  0  2  0  0  0  0  0  0
  191.7060  176.5360  139.7650 O   0  0  0  0  0  0  0  0  0  0  0  0
  188.4910  177.0000  134.7110 N   0  0  0  0  0  1  0  0  0  0  0  0
  189.4800  177.4310  139.6030 C   0  0  0  0  0  0  0  0  0  0  0  0
  189.7910  177.1190  136.7320 C   0  0  0  0  0  0  0  0  0  0  0  0
  191.6850  178.4720  143.9160 C   0  0  0  0  0  1  0  0  0  0  0  0
  191.2730  177.1430  144.0400 O   0  0  0  0  0  0  0  0  0  0  0  0
  188.5980  176.9270  145.1130 C   0  0  0  0  0  2  0  0  0  0  0  0
  188.7600  177.8610  146.3030 C   0  0  0  0  0  2  0  0  0  0  0  0
  187.5170  177.8260  147.1720 C   0  0  0  0  0  2  0  0  0  0  0  0
  186.2840  177.7270  146.2900 C   0  0  0  0  0  2  0  0  0  0  0  0
  185.5350  179.0510  146.2190 C   0  0  0  0  0  3  0  0  0  0  0  0
  184.1700  178.8320  146.0300 O   0  0  0  0  0  1  0  0  0  0  0  0
  185.7390  179.7900  147.3850 O   0  0  0  0  0  1  0  0  0  0  0  0
  1 10  1  0  0  0  0
  1 19  1  0  0  0  0
  2  9  1  0  0  0  0
  3  2  2  0  0  0  0
  4 22  1  0  0  0  0
  4 20  2  0  0  0  0
  5  4  1  0  0  0  0
  6 14  1  0  0  0  0
  6 25  1  1  0  0  0
  7 14  1  0  0  0  0
  8 23  2  0  0  0  0
 10  7  1  1  0  0  0
 11  9  1  1  0  0  0
 11 10  1  0  0  0  0
 12 18  1  6  0  0  0
 12 17  1  0  0  0  0
 12 22  1  0  0  0  0
 13  8  1  0  0  0  0
 14 26  1  1  0  0  0
 15  5  1  0  0  0  0
 16  3  1  0  0  0  0
 17 16  1  6  0  0  0
 17 11  1  0  0  0  0
 19  6  1  0  0  0  0
 21  8  1  0  0  0  0
 22  1  2  0  0  0  0
 23 18  1  0  0  0  0
 23  5  1  0  0  0  0
 24 25  1  0  0  0  0
 26 27  1  0  0  0  0
 27 28  1  0  0  0  0
 29 28  1  0  0  0  0
 30 29  1  0  0  0  0
 30 32  1  0  0  0  0
 31 30  1  0  0  0  0
M  END
>  <MODEL>
6

>  <REMARK>
 VINA RESULT:      -8.5      3.550      7.431
  Name = 
  6 active torsions:
  status: ('A' for Active; 'I' for Inactive)
    1  A    between atoms: C_1  and  C_10
    2  A    between atoms: C_2  and  C_12
    3  A    between atoms: C_2  and  C_24
    4  A    between atoms: C_8  and  O_23
    5  A    between atoms: C_10  and  C_24
    6  A    between atoms: C_12  and  C_21
                            x       y       z     vdW  Elec       q    Type
                         _______ _______ _______ _____ _____    ______ ____

>  <TORSDO>
F 6

$$$$
=
 OpenBabel11052416533D

 32 35  0  0  1  0  0  0  0  0999 V2000
  189.4650  177.8780  141.5940 C   0  0  0  0  0  0  0  0  0  0  0  0
  184.8180  179.0010  140.0040 C   0  0  0  0  0  3  0  0  0  0  0  0
  185.1410  178.5970  138.7690 C   0  0  0  0  0  3  0  0  0  0  0  0
  191.1890  177.0020  139.9930 C   0  0  0  0  0  0  0  0  0  0  0  0
  191.5510  176.7690  138.6170 N   0  0  0  0  0  0  0  0  0  0  0  0
  189.9920  177.4120  143.9910 C   0  0  1  0  0  3  0  0  0  0  0  0
  187.6210  177.7330  143.2660 C   0  0  0  0  0  2  0  0  0  0  0  0
  190.6030  176.3730  136.3810 C   0  0  0  0  0  0  0  0  0  0  0  0
  185.8090  178.9950  141.1380 C   0  0  0  0  0  2  0  0  0  0  0  0
  188.0700  178.3580  141.9440 C   0  0  2  0  0  3  0  0  0  0  0  0
  187.0130  178.0830  140.8760 C   0  0  2  0  0  3  0  0  0  0  0  0
  188.7960  177.4910  139.2130 C   0  0  1  0  0  3  0  0  0  0  0  0
  191.6090  175.3250  136.0450 C   0  0  0  0  0  1  0  0  0  0  0  0
  188.6330  178.0030  144.3790 C   0  0  1  0  0  3  0  0  0  0  0  0
  192.9550  176.5290  138.3000 C   0  0  0  0  0  1  0  0  0  0  0  0
  186.4820  178.0000  138.4430 C   0  0  0  0  0  2  0  0  0  0  0  0
  187.5600  178.3520  139.4760 C   0  0  1  0  0  3  0  0  0  0  0  0
  189.4400  177.9180  137.8970 C   0  0  0  0  0  2  0  0  0  0  0  0
  190.4840  178.0390  142.6880 C   0  0  0  0  0  2  0  0  0  0  0  0
  192.0300  176.7500  140.8990 O   0  0  0  0  0  0  0  0  0  0  0  0
  189.6010  176.6530  135.4050 N   0  0  0  0  0  1  0  0  0  0  0  0
  189.8190  177.5090  140.3360 C   0  0  0  0  0  0  0  0  0  0  0  0
  190.5730  176.9950  137.5780 C   0  0  0  0  0  0  0  0  0  0  0  0
  191.6500  176.4660  145.1150 C   0  0  0  0  0  1  0  0  0  0  0  0
  190.9310  177.6570  144.9970 O   0  0  0  0  0  0  0  0  0  0  0  0
  188.1340  177.3810  145.6770 C   0  0  0  0  0  2  0  0  0  0  0  0
  186.6160  177.3020  145.7050 C   0  0  0  0  0  2  0  0  0  0  0  0
  186.0490  178.3770  146.6150 C   0  0  0  0  0  2  0  0  0  0  0  0
  184.5940  178.6280  146.2560 C   0  0  0  0  0  2  0  0  0  0  0  0
  184.3990  178.7470  144.7500 C   0  0  0  0  0  3  0  0  0  0  0  0
  183.0450  178.6520  144.4230 O   0  0  0  0  0  1  0  0  0  0  0  0
  184.9150  179.9580  144.2850 O   0  0  0  0  0  1  0  0  0  0  0  0
  1 10  1  0  0  0  0
  1 19  1  0  0  0  0
  2  9  1  0  0  0  0
  3  2  2  0  0  0  0
  4 22  1  0  0  0  0
  4 20  2  0  0  0  0
  5  4  1  0  0  0  0
  6 14  1  0  0  0  0
  6 25  1  1  0  0  0
  7 14  1  0  0  0  0
  8 23  2  0  0  0  0
 10  7  1  1  0  0  0
 11  9  1  1  0  0  0
 11 10  1  0  0  0  0
 12 18  1  6  0  0  0
 12 17  1  0  0  0  0
 12 22  1  0  0  0  0
 13  8  1  0  0  0  0
 14 26  1  1  0  0  0
 15  5  1  0  0  0  0
 16  3  1  0  0  0  0
 17 16  1  6  0  0  0
 17 11  1  0  0  0  0
 19  6  1  0  0  0  0
 21  8  1  0  0  0  0
 22  1  2  0  0  0  0
 23 18  1  0  0  0  0
 23  5  1  0  0  0  0
 25 24  1  0  0  0  0
 26 27  1  0  0  0  0
 27 28  1  0  0  0  0
 29 28  1  0  0  0  0
 30 29  1  0  0  0  0
 31 30  1  0  0  0  0
 32 30  1  0  0  0  0
M  END
>  <MODEL>
7

>  <REMARK>
 VINA RESULT:      -8.4      3.169      6.947
  Name = 
  6 active torsions:
  status: ('A' for Active; 'I' for Inactive)
    1  A    between atoms: C_1  and  C_10
    2  A    between atoms: C_2  and  C_12
    3  A    between atoms: C_2  and  C_24
    4  A    between atoms: C_8  and  O_23
    5  A    between atoms: C_10  and  C_24
    6  A    between atoms: C_12  and  C_21
                            x       y       z     vdW  Elec       q    Type
                         _______ _______ _______ _____ _____    ______ ____

>  <TORSDO>
F 6

$$$$
=
 OpenBabel11052416533D

 32 35  0  0  1  0  0  0  0  0999 V2000
  187.9690  178.2420  140.6950 C   0  0  0  0  0  0  0  0  0  0  0  0
  189.2450  177.2900  145.4750 C   0  0  0  0  0  3  0  0  0  0  0  0
  187.9620  177.4040  145.8420 C   0  0  0  0  0  3  0  0  0  0  0  0
  185.5850  178.7310  140.0800 C   0  0  0  0  0  0  0  0  0  0  0  0
  184.2570  179.0410  140.5470 N   0  0  0  0  0  0  0  0  0  0  0  0
  189.3820  177.5380  138.7590 C   0  0  1  0  0  3  0  0  0  0  0  0
  189.9810  176.8210  141.0770 C   0  0  0  0  0  2  0  0  0  0  0  0
  182.7440  178.7770  142.4710 C   0  0  0  0  0  0  0  0  0  0  0  0
  189.6970  177.5000  144.0540 C   0  0  0  0  0  2  0  0  0  0  0  0
  189.0590  177.8790  141.6840 C   0  0  2  0  0  3  0  0  0  0  0  0
  188.5550  177.3850  143.0390 C   0  0  2  0  0  3  0  0  0  0  0  0
  186.2300  178.1580  142.4940 C   0  0  1  0  0  3  0  0  0  0  0  0
  181.5650  178.4710  141.6110 C   0  0  0  0  0  1  0  0  0  0  0  0
  190.5380  177.2770  139.7290 C   0  0  1  0  0  3  0  0  0  0  0  0
  183.3010  179.6020  139.5980 C   0  0  0  0  0  1  0  0  0  0  0  0
  186.8590  177.6360  144.8470 C   0  0  0  0  0  2  0  0  0  0  0  0
  187.3640  178.2130  143.5180 C   0  0  1  0  0  3  0  0  0  0  0  0
  185.1370  179.1440  142.8940 C   0  0  0  0  0  2  0  0  0  0  0  0
  188.4570  178.6150  139.3220 C   0  0  0  0  0  2  0  0  0  0  0  0
  185.8090  178.7160  138.8390 O   0  0  0  0  0  0  0  0  0  0  0  0
  182.5470  178.7550  143.8830 N   0  0  0  0  0  1  0  0  0  0  0  0
  186.6710  178.4050  141.0620 C   0  0  0  0  0  0  0  0  0  0  0  0
  183.9750  179.0000  141.9630 C   0  0  0  0  0  0  0  0  0  0  0  0
  189.0170  178.9930  137.1280 C   0  0  0  0  0  1  0  0  0  0  0  0
  189.8750  177.9630  137.5220 O   0  0  0  0  0  0  0  0  0  0  0  0
  191.4640  176.2010  139.1740 C   0  0  0  0  0  2  0  0  0  0  0  0
  192.8140  176.7830  138.7840 C   0  0  0  0  0  2  0  0  0  0  0  0
  193.2970  176.1680  137.4840 C   0  0  0  0  0  2  0  0  0  0  0  0
  193.3570  174.6570  137.6310 C   0  0  0  0  0  2  0  0  0  0  0  0
  194.7900  174.1420  137.5680 C   0  0  0  0  0  3  0  0  0  0  0  0
  195.6720  175.1860  137.2910 O   0  0  0  0  0  1  0  0  0  0  0  0
  195.1420  173.5320  138.7740 O   0  0  0  0  0  1  0  0  0  0  0  0
  1 22  2  0  0  0  0
  1 10  1  0  0  0  0
  2  3  2  0  0  0  0
  4  5  1  0  0  0  0
  4 22  1  0  0  0  0
  5 23  1  0  0  0  0
  6 25  1  6  0  0  0
  6 19  1  0  0  0  0
  6 14  1  0  0  0  0
  8 21  1  0  0  0  0
  9  2  1  0  0  0  0
 10  7  1  6  0  0  0
 10 11  1  0  0  0  0
 11 17  1  0  0  0  0
 11  9  1  1  0  0  0
 12 18  1  1  0  0  0
 12 17  1  0  0  0  0
 13  8  1  0  0  0  0
 14 26  1  6  0  0  0
 14  7  1  0  0  0  0
 15  5  1  0  0  0  0
 16  3  1  0  0  0  0
 17 16  1  1  0  0  0
 19  1  1  0  0  0  0
 20  4  2  0  0  0  0
 22 12  1  0  0  0  0
 23  8  2  0  0  0  0
 23 18  1  0  0  0  0
 24 25  1  0  0  0  0
 27 26  1  0  0  0  0
 28 29  1  0  0  0  0
 28 27  1  0  0  0  0
 30 29  1  0  0  0  0
 30 32  1  0  0  0  0
 31 30  1  0  0  0  0
M  END
>  <MODEL>
8

>  <REMARK>
 VINA RESULT:      -8.4      2.988      6.508
  Name = 
  6 active torsions:
  status: ('A' for Active; 'I' for Inactive)
    1  A    between atoms: C_1  and  C_10
    2  A    between atoms: C_2  and  C_12
    3  A    between atoms: C_2  and  C_24
    4  A    between atoms: C_8  and  O_23
    5  A    between atoms: C_10  and  C_24
    6  A    between atoms: C_12  and  C_21
                            x       y       z     vdW  Elec       q    Type
                         _______ _______ _______ _____ _____    ______ ____

>  <TORSDO>
F 6

$$$$
=
 OpenBabel11052416533D

 32 35  0  0  1  0  0  0  0  0999 V2000
  186.2720  178.5040  142.1440 C   0  0  0  0  0  0  0  0  0  0  0  0
  186.7950  178.2460  147.1480 C   0  0  0  0  0  3  0  0  0  0  0  0
  185.4630  178.2470  147.2900 C   0  0  0  0  0  3  0  0  0  0  0  0
  183.9930  178.6360  141.1010 C   0  0  0  0  0  0  0  0  0  0  0  0
  182.5800  178.8360  141.3080 N   0  0  0  0  0  0  0  0  0  0  0  0
  188.0590  177.7620  140.5650 C   0  0  1  0  0  3  0  0  0  0  0  0
  188.3190  177.3820  143.0220 C   0  0  0  0  0  2  0  0  0  0  0  0
  180.7930  178.6100  142.9850 C   0  0  0  0  0  0  0  0  0  0  0  0
  187.4620  178.3490  145.8030 C   0  0  0  0  0  2  0  0  0  0  0  0
  187.2060  178.3850  143.3330 C   0  0  2  0  0  3  0  0  0  0  0  0
  186.5280  177.9880  144.6430 C   0  0  2  0  0  3  0  0  0  0  0  0
  184.2660  178.4140  143.6410 C   0  0  1  0  0  3  0  0  0  0  0  0
  179.8140  178.0720  141.9960 C   0  0  0  0  0  1  0  0  0  0  0  0
  189.0510  177.7490  141.7320 C   0  0  1  0  0  3  0  0  0  0  0  0
  181.7510  179.1710  140.1550 C   0  0  0  0  0  1  0  0  0  0  0  0
  184.5300  178.2350  146.1110 C   0  0  0  0  0  2  0  0  0  0  0  0
  185.1960  178.7170  144.8160 C   0  0  1  0  0  3  0  0  0  0  0  0
  183.0290  179.3020  143.7310 C   0  0  0  0  0  2  0  0  0  0  0  0
  186.9490  178.7780  140.8300 C   0  0  0  0  0  2  0  0  0  0  0  0
  184.4270  178.5090  139.9240 O   0  0  0  0  0  0  0  0  0  0  0  0
  180.3590  178.7210  144.3390 N   0  0  0  0  0  1  0  0  0  0  0  0
  184.9210  178.5520  142.2760 C   0  0  0  0  0  0  0  0  0  0  0  0
  182.0650  178.9190  142.6540 C   0  0  0  0  0  0  0  0  0  0  0  0
  187.9670  177.4910  138.3680 C   0  0  0  0  0  1  0  0  0  0  0  0
  188.7130  178.1030  139.3770 O   0  0  0  0  0  0  0  0  0  0  0  0
  190.1600  176.7360  141.4740 C   0  0  0  0  0  2  0  0  0  0  0  0
  191.5330  177.3830  141.5710 C   0  0  0  0  0  2  0  0  0  0  0  0
  192.2260  177.3530  140.2220 C   0  0  0  0  0  2  0  0  0  0  0  0
  191.5040  176.3820  139.3030 C   0  0  0  0  0  2  0  0  0  0  0  0
  192.2510  176.1890  137.9900 C   0  0  0  0  0  3  0  0  0  0  0  0
  191.5350  176.7530  136.9330 O   0  0  0  0  0  1  0  0  0  0  0  0
  193.5210  176.7640  138.0620 O   0  0  0  0  0  1  0  0  0  0  0  0
  1 22  2  0  0  0  0
  1 10  1  0  0  0  0
  2  3  2  0  0  0  0
  4  5  1  0  0  0  0
  4 22  1  0  0  0  0
  5 23  1  0  0  0  0
  6 25  1  6  0  0  0
  6 19  1  0  0  0  0
  6 14  1  0  0  0  0
  8 21  1  0  0  0  0
  9  2  1  0  0  0  0
 10  7  1  6  0  0  0
 10 11  1  0  0  0  0
 11 17  1  0  0  0  0
 11  9  1  1  0  0  0
 12 18  1  6  0  0  0
 12 17  1  0  0  0  0
 13  8  1  0  0  0  0
 14 26  1  6  0  0  0
 14  7  1  0  0  0  0
 15  5  1  0  0  0  0
 16  3  1  0  0  0  0
 17 16  1  1  0  0  0
 19  1  1  0  0  0  0
 20  4  2  0  0  0  0
 22 12  1  0  0  0  0
 23  8  2  0  0  0  0
 23 18  1  0  0  0  0
 24 25  1  0  0  0  0
 26 27  1  0  0  0  0
 28 27  1  0  0  0  0
 29 28  1  0  0  0  0
 30 32  1  0  0  0  0
 30 29  1  0  0  0  0
 31 30  1  0  0  0  0
M  END
>  <MODEL>
9

>  <REMARK>
 VINA RESULT:      -8.3      3.057      6.315
  Name = 
  6 active torsions:
  status: ('A' for Active; 'I' for Inactive)
    1  A    between atoms: C_1  and  C_10
    2  A    between atoms: C_2  and  C_12
    3  A    between atoms: C_2  and  C_24
    4  A    between atoms: C_8  and  O_23
    5  A    between atoms: C_10  and  C_24
    6  A    between atoms: C_12  and  C_21
                            x       y       z     vdW  Elec       q    Type
                         _______ _______ _______ _____ _____    ______ ____

>  <TORSDO>
F 6

$$$$
