=
 OpenBabel11052415073D

 55 61  0  0  1  0  0  0  0  0999 V2000
  189.9660  177.6290  140.1990 C   0  0  0  0  0  3  0  0  0  0  0  0
  188.6630  178.4270  137.8140 C   0  0  1  0  0  3  0  0  0  0  0  0
  187.7950  178.2030  139.0500 C   0  0  0  0  0  2  0  0  0  0  0  0
  190.5240  177.2790  139.0370 C   0  0  0  0  0  3  0  0  0  0  0  0
  188.6280  178.1520  140.2470 N   0  0  0  0  0  0  0  0  0  0  0  0
  189.7600  177.3610  137.7450 C   0  0  0  0  0  2  0  0  0  0  0  0
  187.8150  178.4540  136.5440 C   0  0  0  0  0  2  0  0  0  0  0  0
  186.4100  177.9070  136.7700 C   0  0  0  0  0  2  0  0  0  0  0  0
  186.2280  176.5810  136.0430 C   0  0  0  0  0  2  0  0  0  0  0  0
  186.4160  175.3970  136.9810 C   0  0  0  0  0  2  0  0  0  0  0  0
  185.1480  174.5690  137.0600 C   0  0  0  0  0  2  0  0  0  0  0  0
  184.0200  175.3690  136.5940 N   0  0  0  0  0  2  0  0  0  0  0  0
  180.6160  176.3730  138.6820 C   0  0  2  0  0  0  0  0  0  0  0  0
  179.2170  177.6130  136.3590 O   0  0  0  0  0  1  0  0  0  0  0  0
  181.5470  175.7760  136.7670 C   0  0  2  0  0  0  0  0  0  0  0  0
  182.5990  173.7230  137.4750 F   0  0  0  0  0  0  0  0  0  0  0  0
  182.8900  177.9190  136.5230 O   0  0  0  0  0  1  0  0  0  0  0  0
  181.6460  177.3120  136.7410 C   0  0  2  0  0  0  0  0  0  0  0  0
  182.8110  175.0930  137.3800 C   0  0  1  0  0  0  0  0  0  0  0  0
  181.7290  175.8250  139.5970 C   0  0  0  0  0  2  0  0  0  0  0  0
  181.0000  177.7210  138.0630 C   0  0  1  0  0  0  0  0  0  0  0  0
  179.3180  176.4920  139.4590 C   0  0  0  0  0  1  0  0  0  0  0  0
  180.4200  178.2160  136.7440 C   0  0  2  0  0  0  0  0  0  0  0  0
  183.0400  175.6290  138.8090 C   0  0  0  0  0  2  0  0  0  0  0  0
  181.2860  175.2930  135.4830 O   0  0  0  0  0  1  0  0  0  0  0  0
  181.7930  178.6060  138.8050 O   0  0  0  0  0  1  0  0  0  0  0  0
  180.4610  175.4700  137.6130 O   0  0  0  0  0  0  0  0  0  0  0  0
  180.6090  179.6900  136.4120 C   0  0  0  0  0  2  0  0  0  0  0  0
  180.4880  179.8850  135.0340 O   0  0  0  0  0  1  0  0  0  0  0  0
  188.0750  178.6380  141.5020 C   0  0  0  0  0  2  0  0  0  0  0  0
  187.1230  177.6070  142.0890 C   0  0  0  0  0  2  0  0  0  0  0  0
  189.1290  176.9010  146.5950 C   0  0  0  0  0  2  0  0  0  0  0  0
  184.2100  177.8090  142.4390 C   0  0  0  0  0  2  0  0  0  0  0  0
  187.9740  177.7640  148.6460 C   0  0  0  0  0  2  0  0  0  0  0  0
  187.2060  178.5460  146.3220 C   0  0  1  0  0  3  0  0  0  0  0  0
  186.8000  178.1880  147.7540 C   0  0  0  0  0  2  0  0  0  0  0  0
  189.3040  177.6590  147.9080 C   0  0  0  0  0  2  0  0  0  0  0  0
  188.0980  177.5210  145.7550 N   0  0  0  0  0  0  0  0  0  0  0  0
  185.9140  178.3760  144.2560 C   0  0  0  0  0  0  0  0  0  0  0  0
  183.6560  179.5040  144.0700 C   0  0  0  0  0  2  0  0  0  0  0  0
  186.0000  178.7040  145.5130 N   0  0  0  0  0  0  0  0  0  0  0  0
  182.4920  179.4030  143.1040 C   0  0  1  0  0  3  0  0  0  0  0  0
  188.1150  177.3050  144.3310 C   0  0  0  0  0  0  0  0  0  0  0  0
  182.7520  178.1720  142.2420 C   0  0  0  0  0  2  0  0  0  0  0  0
  187.0790  177.7350  143.5830 C   0  0  0  0  0  0  0  0  0  0  0  0
  184.6720  178.5990  143.5650 N   0  0  0  0  0  0  0  0  0  0  0  0
  189.2930  176.6190  143.6920 C   0  0  0  0  0  2  0  0  0  0  0  0
  190.5050  178.6730  143.5920 O   0  0  0  0  0  1  0  0  0  0  0  0
  190.5960  177.3440  144.0050 C   0  0  2  0  0  3  0  0  0  0  0  0
  191.7830  176.6730  143.3270 C   0  0  0  0  0  2  0  0  0  0  0  0
  192.0000  175.4120  143.8540 F   0  0  0  0  0  0  0  0  0  0  0  0
  181.1920  179.2550  143.8800 C   0  0  0  0  0  2  0  0  0  0  0  0
  180.0180  179.5110  142.9970 C   0  0  0  0  0  0  0  0  0  0  0  0
  179.1860  178.5920  142.7680 O   0  0  0  0  0  1  0  0  0  0  0  0
  179.8220  180.7720  142.4510 O   0  0  0  0  0  0  0  0  0  0  0  0
  1  5  1  0  0  0  0
  2  7  1  6  0  0  0
  2  3  1  0  0  0  0
  3  5  1  0  0  0  0
  4  1  2  0  0  0  0
  5 30  1  0  0  0  0
  6  2  1  0  0  0  0
  6  4  1  0  0  0  0
  7  8  1  0  0  0  0
  9  8  1  0  0  0  0
  9 10  1  0  0  0  0
 10 11  1  0  0  0  0
 12 11  1  0  0  0  0
 12 19  1  0  0  0  0
 13 22  1  1  0  0  0
 13 20  1  0  0  0  0
 15 25  1  6  0  0  0
 15 19  1  0  0  0  0
 15 27  1  0  0  0  0
 18 17  1  6  0  0  0
 18 23  1  0  0  0  0
 18 15  1  0  0  0  0
 18 21  1  0  0  0  0
 19 16  1  1  0  0  0
 19 24  1  0  0  0  0
 21 13  1  0  0  0  0
 21 26  1  1  0  0  0
 23 14  1  6  0  0  0
 23 21  1  0  0  0  0
 24 20  1  0  0  0  0
 27 13  1  0  0  0  0
 28 23  1  0  0  0  0
 29 28  1  0  0  0  0
 30 31  1  0  0  0  0
 31 45  1  0  0  0  0
 32 37  1  0  0  0  0
 33 46  1  0  0  0  0
 35 36  1  1  0  0  0
 36 34  1  0  0  0  0
 37 34  1  0  0  0  0
 38 35  1  0  0  0  0
 38 32  1  0  0  0  0
 39 41  2  0  0  0  0
 41 35  1  0  0  0  0
 42 52  1  1  0  0  0
 42 40  1  0  0  0  0
 43 38  1  0  0  0  0
 44 33  1  0  0  0  0
 44 42  1  0  0  0  0
 45 39  1  0  0  0  0
 45 43  2  0  0  0  0
 46 40  1  0  0  0  0
 46 39  1  0  0  0  0
 47 49  1  0  0  0  0
 47 43  1  0  0  0  0
 49 48  1  6  0  0  0
 50 51  1  0  0  0  0
 50 49  1  0  0  0  0
 53 52  1  0  0  0  0
 54 53  1  0  0  0  0
 55 53  2  0  0  0  0
M  END
>  <MODEL>
1

>  <REMARK>
 VINA RESULT:      -7.8      0.000      0.000
  Name = 
  16 active torsions:
  status: ('A' for Active; 'I' for Inactive)
    1  A    between atoms: C_2  and  C_28
    2  A    between atoms: C_2  and  N_44
    3  A    between atoms: C_4  and  C_40
    4  A    between atoms: C_8  and  N_22
    5  A    between atoms: C_8  and  C_43
    6  A    between atoms: C_10  and  C_32
    7  A    between atoms: C_11  and  C_38
    8  A    between atoms: C_19  and  C_40
    9  A    between atoms: C_19  and  C_45
   10  A    between atoms: C_20  and  N_22
   11  A    between atoms: C_27  and  C_54
   12  A    between atoms: C_28  and  C_49
   13  A    between atoms: C_32  and  C_39
   14  A    between atoms: C_35  and  C_43
   15  A    between atoms: C_35  and  C_51
   16  A    between atoms: C_51  and  C_54
                            x       y       z     vdW  Elec       q    Type
                         _______ _______ _______ _____ _____    ______ ____

>  <TORSDO>
F 16

$$$$
=
 OpenBabel11052415073D

 55 61  0  0  1  0  0  0  0  0999 V2000
  190.1430  177.5230  140.6590 C   0  0  0  0  0  3  0  0  0  0  0  0
  189.1080  178.3550  138.1560 C   0  0  1  0  0  3  0  0  0  0  0  0
  188.1150  178.1560  139.2990 C   0  0  0  0  0  2  0  0  0  0  0  0
  190.8050  177.1570  139.5580 C   0  0  0  0  0  3  0  0  0  0  0  0
  188.8220  178.0840  140.5740 N   0  0  0  0  0  0  0  0  0  0  0  0
  190.1770  177.2590  138.1960 C   0  0  0  0  0  2  0  0  0  0  0  0
  188.3920  178.4040  136.8080 C   0  0  0  0  0  2  0  0  0  0  0  0
  187.6490  177.1100  136.4960 C   0  0  0  0  0  2  0  0  0  0  0  0
  187.9800  176.6280  135.0900 C   0  0  0  0  0  2  0  0  0  0  0  0
  189.4750  176.4090  134.9090 C   0  0  0  0  0  2  0  0  0  0  0  0
  189.8990  175.0820  135.5080 C   0  0  0  0  0  2  0  0  0  0  0  0
  191.3100  174.8510  135.2140 N   0  0  0  0  0  2  0  0  0  0  0  0
  194.3660  172.6400  136.8660 C   0  0  2  0  0  0  0  0  0  0  0  0
  196.0100  174.9930  137.6740 O   0  0  0  0  0  1  0  0  0  0  0  0
  193.1680  174.4990  136.8690 C   0  0  2  0  0  0  0  0  0  0  0  0
  190.9690  173.5380  137.1290 F   0  0  0  0  0  0  0  0  0  0  0  0
  193.9970  175.2720  134.5950 O   0  0  0  0  0  1  0  0  0  0  0  0
  194.3070  174.8180  135.8840 C   0  0  2  0  0  0  0  0  0  0  0  0
  191.9030  173.9060  136.1680 C   0  0  1  0  0  0  0  0  0  0  0  0
  193.3260  171.7610  136.1450 C   0  0  0  0  0  2  0  0  0  0  0  0
  195.1340  173.5330  135.8870 C   0  0  1  0  0  0  0  0  0  0  0  0
  195.3230  171.7670  137.6560 C   0  0  0  0  0  1  0  0  0  0  0  0
  195.7710  174.8540  136.3020 C   0  0  2  0  0  0  0  0  0  0  0  0
  192.2990  172.6320  135.3930 C   0  0  0  0  0  2  0  0  0  0  0  0
  192.8460  175.6370  137.6100 O   0  0  0  0  0  1  0  0  0  0  0  0
  195.3980  173.0550  134.5970 O   0  0  0  0  0  1  0  0  0  0  0  0
  193.6670  173.5030  137.7320 O   0  0  0  0  0  0  0  0  0  0  0  0
  196.7810  175.4690  135.3440 C   0  0  0  0  0  2  0  0  0  0  0  0
  196.8200  176.8540  135.5220 O   0  0  0  0  0  1  0  0  0  0  0  0
  188.1590  178.5850  141.7670 C   0  0  0  0  0  2  0  0  0  0  0  0
  187.2870  177.5000  142.3780 C   0  0  0  0  0  2  0  0  0  0  0  0
  189.0660  176.9470  146.9990 C   0  0  0  0  0  2  0  0  0  0  0  0
  184.3670  177.7900  142.5840 C   0  0  0  0  0  2  0  0  0  0  0  0
  187.8440  177.9300  148.9550 C   0  0  0  0  0  2  0  0  0  0  0  0
  187.2020  178.6260  146.5650 C   0  0  1  0  0  3  0  0  0  0  0  0
  186.7220  178.3420  147.9910 C   0  0  0  0  0  2  0  0  0  0  0  0
  189.2020  177.7590  148.2840 C   0  0  0  0  0  2  0  0  0  0  0  0
  188.0920  177.5550  146.0860 N   0  0  0  0  0  0  0  0  0  0  0  0
  186.0020  178.3950  144.4510 C   0  0  0  0  0  0  0  0  0  0  0  0
  183.7850  179.5700  144.1110 C   0  0  0  0  0  2  0  0  0  0  0  0
  186.0390  178.7770  145.6940 N   0  0  0  0  0  0  0  0  0  0  0  0
  182.6640  179.4540  143.0980 C   0  0  1  0  0  3  0  0  0  0  0  0
  188.1670  177.2740  144.6750 C   0  0  0  0  0  0  0  0  0  0  0  0
  182.9290  178.1800  142.3030 C   0  0  0  0  0  2  0  0  0  0  0  0
  187.1780  177.6960  143.8620 C   0  0  0  0  0  0  0  0  0  0  0  0
  184.7980  178.6180  143.6940 N   0  0  0  0  0  0  0  0  0  0  0  0
  189.3540  176.5310  144.1220 C   0  0  0  0  0  2  0  0  0  0  0  0
  191.6030  176.8960  144.8340 O   0  0  0  0  0  1  0  0  0  0  0  0
  190.5840  177.4270  144.0440 C   0  0  2  0  0  3  0  0  0  0  0  0
  190.2670  178.8460  144.4970 C   0  0  0  0  0  2  0  0  0  0  0  0
  190.8720  179.7720  143.6660 F   0  0  0  0  0  0  0  0  0  0  0  0
  181.3270  179.3740  143.8170 C   0  0  0  0  0  2  0  0  0  0  0  0
  180.2160  179.1550  142.8470 C   0  0  0  0  0  0  0  0  0  0  0  0
  179.5660  178.0750  142.8620 O   0  0  0  0  0  1  0  0  0  0  0  0
  179.8760  180.1540  141.9450 O   0  0  0  0  0  0  0  0  0  0  0  0
  2  7  1  6  0  0  0
  2  6  1  0  0  0  0
  2  3  1  0  0  0  0
  3  5  1  0  0  0  0
  4  1  2  0  0  0  0
  5  1  1  0  0  0  0
  5 30  1  0  0  0  0
  6  4  1  0  0  0  0
  8  7  1  0  0  0  0
  9  8  1  0  0  0  0
 10  9  1  0  0  0  0
 10 11  1  0  0  0  0
 12 11  1  0  0  0  0
 12 19  1  0  0  0  0
 13 22  1  1  0  0  0
 13 27  1  0  0  0  0
 15 25  1  1  0  0  0
 15 27  1  0  0  0  0
 18 17  1  6  0  0  0
 18 21  1  0  0  0  0
 18 23  1  0  0  0  0
 18 15  1  0  0  0  0
 19 15  1  0  0  0  0
 19 16  1  1  0  0  0
 20 13  1  0  0  0  0
 21 26  1  6  0  0  0
 21 23  1  0  0  0  0
 21 13  1  0  0  0  0
 23 14  1  1  0  0  0
 24 20  1  0  0  0  0
 24 19  1  0  0  0  0
 28 29  1  0  0  0  0
 28 23  1  0  0  0  0
 30 31  1  0  0  0  0
 31 45  1  0  0  0  0
 32 37  1  0  0  0  0
 33 46  1  0  0  0  0
 35 36  1  1  0  0  0
 36 34  1  0  0  0  0
 37 34  1  0  0  0  0
 38 35  1  0  0  0  0
 38 32  1  0  0  0  0
 39 41  2  0  0  0  0
 41 35  1  0  0  0  0
 42 52  1  1  0  0  0
 42 40  1  0  0  0  0
 43 38  1  0  0  0  0
 44 33  1  0  0  0  0
 44 42  1  0  0  0  0
 45 39  1  0  0  0  0
 45 43  2  0  0  0  0
 46 40  1  0  0  0  0
 46 39  1  0  0  0  0
 47 43  1  0  0  0  0
 49 47  1  0  0  0  0
 49 50  1  0  0  0  0
 49 48  1  1  0  0  0
 51 50  1  0  0  0  0
 53 54  1  0  0  0  0
 53 52  1  0  0  0  0
 55 53  2  0  0  0  0
M  END
>  <MODEL>
2

>  <REMARK>
 VINA RESULT:      -7.1      4.452      7.815
  Name = 
  16 active torsions:
  status: ('A' for Active; 'I' for Inactive)
    1  A    between atoms: C_2  and  C_28
    2  A    between atoms: C_2  and  N_44
    3  A    between atoms: C_4  and  C_40
    4  A    between atoms: C_8  and  N_22
    5  A    between atoms: C_8  and  C_43
    6  A    between atoms: C_10  and  C_32
    7  A    between atoms: C_11  and  C_38
    8  A    between atoms: C_19  and  C_40
    9  A    between atoms: C_19  and  C_45
   10  A    between atoms: C_20  and  N_22
   11  A    between atoms: C_27  and  C_54
   12  A    between atoms: C_28  and  C_49
   13  A    between atoms: C_32  and  C_39
   14  A    between atoms: C_35  and  C_43
   15  A    between atoms: C_35  and  C_51
   16  A    between atoms: C_51  and  C_54
                            x       y       z     vdW  Elec       q    Type
                         _______ _______ _______ _____ _____    ______ ____

>  <TORSDO>
F 16

$$$$
=
 OpenBabel11052415073D

 55 61  0  0  1  0  0  0  0  0999 V2000
  190.5470  177.5090  140.8420 C   0  0  0  0  0  3  0  0  0  0  0  0
  189.6030  177.6110  138.1730 C   0  0  1  0  0  3  0  0  0  0  0  0
  188.5600  177.5690  139.2880 C   0  0  0  0  0  2  0  0  0  0  0  0
  191.3150  176.9770  139.8890 C   0  0  0  0  0  3  0  0  0  0  0  0
  189.1830  177.8770  140.5710 N   0  0  0  0  0  0  0  0  0  0  0  0
  190.7740  176.6860  138.5160 C   0  0  0  0  0  2  0  0  0  0  0  0
  188.9790  177.2620  136.8230 C   0  0  0  0  0  2  0  0  0  0  0  0
  188.2650  178.4490  136.1870 C   0  0  0  0  0  2  0  0  0  0  0  0
  187.1440  177.9730  135.2730 C   0  0  0  0  0  2  0  0  0  0  0  0
  186.2700  176.9290  135.9540 C   0  0  0  0  0  2  0  0  0  0  0  0
  185.2770  177.5890  136.8910 C   0  0  0  0  0  2  0  0  0  0  0  0
  184.1080  176.7280  137.0390 N   0  0  0  0  0  2  0  0  0  0  0  0
  180.2500  177.3360  138.3400 C   0  0  2  0  0  0  0  0  0  0  0  0
  179.9510  174.6500  139.5980 O   0  0  0  0  0  1  0  0  0  0  0  0
  182.2130  176.3660  138.6480 C   0  0  2  0  0  0  0  0  0  0  0  0
  183.6120  178.3330  138.6770 F   0  0  0  0  0  0  0  0  0  0  0  0
  182.0430  174.9120  136.5720 O   0  0  0  0  0  1  0  0  0  0  0  0
  181.4590  175.3570  137.7650 C   0  0  2  0  0  0  0  0  0  0  0  0
  183.0570  177.3890  137.8210 C   0  0  1  0  0  0  0  0  0  0  0  0
  180.7580  178.4840  137.4470 C   0  0  0  0  0  2  0  0  0  0  0  0
  180.1020  176.0280  137.5570 C   0  0  1  0  0  0  0  0  0  0  0  0
  178.9310  177.7250  138.9830 C   0  0  0  0  0  1  0  0  0  0  0  0
  180.1830  174.6580  138.2190 C   0  0  2  0  0  0  0  0  0  0  0  0
  182.1330  178.1390  136.8390 C   0  0  0  0  0  2  0  0  0  0  0  0
  183.0080  175.6890  139.5740 O   0  0  0  0  0  1  0  0  0  0  0  0
  179.7250  176.0840  136.2080 O   0  0  0  0  0  1  0  0  0  0  0  0
  181.2230  177.1030  139.3300 O   0  0  0  0  0  0  0  0  0  0  0  0
  179.6860  173.4660  137.4120 C   0  0  0  0  0  2  0  0  0  0  0  0
  180.2890  172.2950  137.8760 O   0  0  0  0  0  1  0  0  0  0  0  0
  188.3930  178.5610  141.5820 C   0  0  0  0  0  2  0  0  0  0  0  0
  187.2990  177.6430  142.1040 C   0  0  0  0  0  2  0  0  0  0  0  0
  189.1630  176.9700  146.6750 C   0  0  0  0  0  2  0  0  0  0  0  0
  184.3690  177.7340  142.3470 C   0  0  0  0  0  2  0  0  0  0  0  0
  187.9020  177.7720  148.6890 C   0  0  0  0  0  2  0  0  0  0  0  0
  187.1910  178.5460  146.3440 C   0  0  1  0  0  3  0  0  0  0  0  0
  186.7460  178.1600  147.7570 C   0  0  0  0  0  2  0  0  0  0  0  0
  189.2610  177.7220  147.9990 C   0  0  0  0  0  2  0  0  0  0  0  0
  188.1410  177.5600  145.8030 N   0  0  0  0  0  0  0  0  0  0  0  0
  185.9830  178.3470  144.2300 C   0  0  0  0  0  0  0  0  0  0  0  0
  183.6930  179.3930  143.9690 C   0  0  0  0  0  2  0  0  0  0  0  0
  186.0100  178.6660  145.4910 N   0  0  0  0  0  0  0  0  0  0  0  0
  182.5700  179.2570  142.9600 C   0  0  1  0  0  3  0  0  0  0  0  0
  188.2180  177.3570  144.3780 C   0  0  0  0  0  0  0  0  0  0  0  0
  182.9060  178.0450  142.0990 C   0  0  0  0  0  2  0  0  0  0  0  0
  187.1950  177.7560  143.5960 C   0  0  0  0  0  0  0  0  0  0  0  0
  184.7590  178.5310  143.4960 N   0  0  0  0  0  0  0  0  0  0  0  0
  189.4430  176.7210  143.7780 C   0  0  0  0  0  2  0  0  0  0  0  0
  190.8540  178.6310  144.0240 O   0  0  0  0  0  1  0  0  0  0  0  0
  190.7200  177.2900  144.3850 C   0  0  2  0  0  3  0  0  0  0  0  0
  191.9460  176.5090  143.9330 C   0  0  0  0  0  2  0  0  0  0  0  0
  191.9680  175.2520  144.5120 F   0  0  0  0  0  0  0  0  0  0  0  0
  181.2490  179.0550  143.6860 C   0  0  0  0  0  2  0  0  0  0  0  0
  180.1020  179.4480  142.8170 C   0  0  0  0  0  0  0  0  0  0  0  0
  179.0980  178.6930  142.7150 O   0  0  0  0  0  1  0  0  0  0  0  0
  180.1270  180.6620  142.1430 O   0  0  0  0  0  0  0  0  0  0  0  0
  2  7  1  6  0  0  0
  2  6  1  0  0  0  0
  2  3  1  0  0  0  0
  3  5  1  0  0  0  0
  4  1  2  0  0  0  0
  5  1  1  0  0  0  0
  5 30  1  0  0  0  0
  6  4  1  0  0  0  0
  8  7  1  0  0  0  0
  9 10  1  0  0  0  0
  9  8  1  0  0  0  0
 10 11  1  0  0  0  0
 11 12  1  0  0  0  0
 12 19  1  0  0  0  0
 13 22  1  1  0  0  0
 13 27  1  0  0  0  0
 15 27  1  0  0  0  0
 15 25  1  1  0  0  0
 18 17  1  6  0  0  0
 18 23  1  0  0  0  0
 18 15  1  0  0  0  0
 19 15  1  0  0  0  0
 19 16  1  1  0  0  0
 20 13  1  0  0  0  0
 21 26  1  6  0  0  0
 21 18  1  0  0  0  0
 21 23  1  0  0  0  0
 21 13  1  0  0  0  0
 23 14  1  1  0  0  0
 24 20  1  0  0  0  0
 24 19  1  0  0  0  0
 28 29  1  0  0  0  0
 28 23  1  0  0  0  0
 30 31  1  0  0  0  0
 31 45  1  0  0  0  0
 32 37  1  0  0  0  0
 33 46  1  0  0  0  0
 35 36  1  1  0  0  0
 36 34  1  0  0  0  0
 37 34  1  0  0  0  0
 38 35  1  0  0  0  0
 38 32  1  0  0  0  0
 39 41  2  0  0  0  0
 41 35  1  0  0  0  0
 42 52  1  1  0  0  0
 42 40  1  0  0  0  0
 43 38  1  0  0  0  0
 44 33  1  0  0  0  0
 44 42  1  0  0  0  0
 45 39  1  0  0  0  0
 45 43  2  0  0  0  0
 46 40  1  0  0  0  0
 46 39  1  0  0  0  0
 47 43  1  0  0  0  0
 47 49  1  0  0  0  0
 49 48  1  6  0  0  0
 50 49  1  0  0  0  0
 50 51  1  0  0  0  0
 53 52  1  0  0  0  0
 54 53  1  0  0  0  0
 55 53  2  0  0  0  0
M  END
>  <MODEL>
3

>  <REMARK>
 VINA RESULT:      -7.1      1.325      2.327
  Name = 
  16 active torsions:
  status: ('A' for Active; 'I' for Inactive)
    1  A    between atoms: C_2  and  C_28
    2  A    between atoms: C_2  and  N_44
    3  A    between atoms: C_4  and  C_40
    4  A    between atoms: C_8  and  N_22
    5  A    between atoms: C_8  and  C_43
    6  A    between atoms: C_10  and  C_32
    7  A    between atoms: C_11  and  C_38
    8  A    between atoms: C_19  and  C_40
    9  A    between atoms: C_19  and  C_45
   10  A    between atoms: C_20  and  N_22
   11  A    between atoms: C_27  and  C_54
   12  A    between atoms: C_28  and  C_49
   13  A    between atoms: C_32  and  C_39
   14  A    between atoms: C_35  and  C_43
   15  A    between atoms: C_35  and  C_51
   16  A    between atoms: C_51  and  C_54
                            x       y       z     vdW  Elec       q    Type
                         _______ _______ _______ _____ _____    ______ ____

>  <TORSDO>
F 16

$$$$
=
 OpenBabel11052415073D

 55 61  0  0  1  0  0  0  0  0999 V2000
  186.2880  178.0920  144.0750 C   0  0  0  0  0  3  0  0  0  0  0  0
  183.5630  178.6360  143.5240 C   0  0  1  0  0  3  0  0  0  0  0  0
  184.5730  178.8880  142.4050 C   0  0  0  0  0  2  0  0  0  0  0  0
  185.5050  178.4480  145.0960 C   0  0  0  0  0  3  0  0  0  0  0  0
  185.8410  178.2370  142.7160 N   0  0  0  0  0  0  0  0  0  0  0  0
  184.1540  179.0680  144.8690 C   0  0  0  0  0  2  0  0  0  0  0  0
  182.2360  179.3350  143.2340 C   0  0  0  0  0  2  0  0  0  0  0  0
  181.0590  178.6640  143.9310 C   0  0  0  0  0  2  0  0  0  0  0  0
  179.7830  178.8420  143.1200 C   0  0  0  0  0  2  0  0  0  0  0  0
  179.7320  180.2070  142.4470 C   0  0  0  0  0  2  0  0  0  0  0  0
  179.2310  180.0830  141.0210 C   0  0  0  0  0  2  0  0  0  0  0  0
  179.6630  178.8030  140.4690 N   0  0  0  0  0  2  0  0  0  0  0  0
  182.3240  177.6010  137.5660 C   0  0  2  0  0  0  0  0  0  0  0  0
  180.4460  175.7110  136.2280 O   0  0  0  0  0  1  0  0  0  0  0  0
  180.2300  177.9880  138.1600 C   0  0  2  0  0  0  0  0  0  0  0  0
  180.4440  180.2960  138.8350 F   0  0  0  0  0  0  0  0  0  0  0  0
  180.1650  176.1220  139.8830 O   0  0  0  0  0  1  0  0  0  0  0  0
  180.4440  176.5200  138.5690 C   0  0  2  0  0  0  0  0  0  0  0  0
  180.5480  178.9950  139.3120 C   0  0  1  0  0  0  0  0  0  0  0  0
  182.9790  178.5050  138.6270 C   0  0  0  0  0  2  0  0  0  0  0  0
  181.8900  176.2550  138.1540 C   0  0  1  0  0  0  0  0  0  0  0  0
  183.2770  177.3920  136.4030 C   0  0  0  0  0  1  0  0  0  0  0  0
  180.7590  175.4220  137.5610 C   0  0  2  0  0  0  0  0  0  0  0  0
  182.0010  178.7880  139.7860 C   0  0  0  0  0  2  0  0  0  0  0  0
  178.9310  178.1650  137.6800 O   0  0  0  0  0  1  0  0  0  0  0  0
  182.6540  175.6860  139.1820 O   0  0  0  0  0  1  0  0  0  0  0  0
  181.1510  178.2420  137.1240 O   0  0  0  0  0  0  0  0  0  0  0  0
  180.6520  173.9730  138.0140 C   0  0  0  0  0  2  0  0  0  0  0  0
  181.4190  173.1570  137.1790 O   0  0  0  0  0  1  0  0  0  0  0  0
  186.6550  177.7380  141.6190 C   0  0  0  0  0  2  0  0  0  0  0  0
  187.8720  178.6280  141.4220 C   0  0  0  0  0  2  0  0  0  0  0  0
  189.7170  176.4910  137.3170 C   0  0  0  0  0  2  0  0  0  0  0  0
  189.1410  177.3340  143.7390 C   0  0  0  0  0  2  0  0  0  0  0  0
  192.0130  175.4830  137.3340 C   0  0  0  0  0  2  0  0  0  0  0  0
  191.2670  176.9980  139.2720 C   0  0  1  0  0  3  0  0  0  0  0  0
  192.0840  175.7770  138.8390 C   0  0  0  0  0  2  0  0  0  0  0  0
  191.0460  176.3840  136.5740 C   0  0  0  0  0  2  0  0  0  0  0  0
  189.9130  176.9580  138.6940 N   0  0  0  0  0  0  0  0  0  0  0  0
  190.1950  177.4650  141.4160 C   0  0  0  0  0  0  0  0  0  0  0  0
  191.5490  177.4110  143.5540 C   0  0  0  0  0  2  0  0  0  0  0  0
  191.2180  177.0430  140.7320 N   0  0  0  0  0  0  0  0  0  0  0  0
  191.2060  177.3740  145.0300 C   0  0  1  0  0  3  0  0  0  0  0  0
  188.8260  177.5970  139.3910 C   0  0  0  0  0  0  0  0  0  0  0  0
  189.7130  177.0800  145.1200 C   0  0  0  0  0  2  0  0  0  0  0  0
  188.9530  177.8750  140.7030 C   0  0  0  0  0  0  0  0  0  0  0  0
  190.2810  177.4760  142.8530 N   0  0  0  0  0  0  0  0  0  0  0  0
  187.5700  177.9620  138.6440 C   0  0  0  0  0  2  0  0  0  0  0  0
  188.4270  179.7130  137.2660 O   0  0  0  0  0  1  0  0  0  0  0  0
  187.8820  178.4300  137.2280 C   0  0  2  0  0  3  0  0  0  0  0  0
  186.6340  178.4260  136.3540 C   0  0  0  0  0  2  0  0  0  0  0  0
  186.9640  178.6420  135.0280 F   0  0  0  0  0  0  0  0  0  0  0  0
  192.0140  176.2850  145.7190 C   0  0  0  0  0  2  0  0  0  0  0  0
  191.6860  176.2220  147.1730 C   0  0  0  0  0  0  0  0  0  0  0  0
  191.4860  175.1090  147.7280 O   0  0  0  0  0  0  0  0  0  0  0  0
  191.6330  177.3900  147.9220 O   0  0  0  0  0  1  0  0  0  0  0  0
  1  4  2  0  0  0  0
  2  7  1  6  0  0  0
  2  6  1  0  0  0  0
  3  5  1  0  0  0  0
  3  2  1  0  0  0  0
  5  1  1  0  0  0  0
  6  4  1  0  0  0  0
  7  8  1  0  0  0  0
  9  8  1  0  0  0  0
 10  9  1  0  0  0  0
 11 10  1  0  0  0  0
 12 11  1  0  0  0  0
 13 22  1  6  0  0  0
 13 21  1  0  0  0  0
 13 20  1  0  0  0  0
 15 25  1  6  0  0  0
 15 18  1  0  0  0  0
 15 19  1  0  0  0  0
 18 17  1  1  0  0  0
 19 16  1  6  0  0  0
 19 24  1  0  0  0  0
 19 12  1  0  0  0  0
 20 24  1  0  0  0  0
 21 18  1  0  0  0  0
 21 26  1  1  0  0  0
 23 14  1  6  0  0  0
 23 28  1  0  0  0  0
 23 21  1  0  0  0  0
 23 18  1  0  0  0  0
 27 13  1  0  0  0  0
 27 15  1  0  0  0  0
 29 28  1  0  0  0  0
 30  5  1  0  0  0  0
 31 30  1  0  0  0  0
 32 38  1  0  0  0  0
 33 44  1  0  0  0  0
 34 36  1  0  0  0  0
 35 36  1  1  0  0  0
 35 41  1  0  0  0  0
 37 32  1  0  0  0  0
 37 34  1  0  0  0  0
 38 35  1  0  0  0  0
 38 43  1  0  0  0  0
 39 46  1  0  0  0  0
 40 42  1  0  0  0  0
 41 39  2  0  0  0  0
 42 44  1  0  0  0  0
 42 52  1  1  0  0  0
 43 45  2  0  0  0  0
 45 39  1  0  0  0  0
 45 31  1  0  0  0  0
 46 40  1  0  0  0  0
 46 33  1  0  0  0  0
 47 43  1  0  0  0  0
 49 48  1  1  0  0  0
 49 47  1  0  0  0  0
 50 49  1  0  0  0  0
 51 50  1  0  0  0  0
 52 53  1  0  0  0  0
 53 54  2  0  0  0  0
 53 55  1  0  0  0  0
M  END
>  <MODEL>
4

>  <REMARK>
 VINA RESULT:      -6.9      2.768      7.424
  Name = 
  16 active torsions:
  status: ('A' for Active; 'I' for Inactive)
    1  A    between atoms: C_2  and  C_28
    2  A    between atoms: C_2  and  N_44
    3  A    between atoms: C_4  and  C_40
    4  A    between atoms: C_8  and  N_22
    5  A    between atoms: C_8  and  C_43
    6  A    between atoms: C_10  and  C_32
    7  A    between atoms: C_11  and  C_38
    8  A    between atoms: C_19  and  C_40
    9  A    between atoms: C_19  and  C_45
   10  A    between atoms: C_20  and  N_22
   11  A    between atoms: C_27  and  C_54
   12  A    between atoms: C_28  and  C_49
   13  A    between atoms: C_32  and  C_39
   14  A    between atoms: C_35  and  C_43
   15  A    between atoms: C_35  and  C_51
   16  A    between atoms: C_51  and  C_54
                            x       y       z     vdW  Elec       q    Type
                         _______ _______ _______ _____ _____    ______ ____

>  <TORSDO>
F 16

$$$$
=
 OpenBabel11052415073D

 55 61  0  0  1  0  0  0  0  0999 V2000
  186.1730  178.7090  143.2240 C   0  0  0  0  0  3  0  0  0  0  0  0
  183.9050  178.3810  141.5580 C   0  0  1  0  0  3  0  0  0  0  0  0
  185.1460  179.0250  140.9420 C   0  0  0  0  0  2  0  0  0  0  0  0
  184.9690  178.7190  143.8010 C   0  0  0  0  0  3  0  0  0  0  0  0
  186.3080  178.7980  141.7950 N   0  0  0  0  0  0  0  0  0  0  0  0
  183.7130  178.8830  142.9920 C   0  0  0  0  0  2  0  0  0  0  0  0
  182.6700  178.6320  140.6960 C   0  0  0  0  0  2  0  0  0  0  0  0
  182.9800  179.4770  139.4650 C   0  0  0  0  0  2  0  0  0  0  0  0
  182.9070  178.6300  138.2020 C   0  0  0  0  0  2  0  0  0  0  0  0
  181.5740  178.8020  137.4870 C   0  0  0  0  0  2  0  0  0  0  0  0
  181.4850  177.8790  136.2870 C   0  0  0  0  0  2  0  0  0  0  0  0
  182.6190  176.9610  136.3020 N   0  0  0  0  0  2  0  0  0  0  0  0
  183.0350  172.8650  136.2510 C   0  0  2  0  0  0  0  0  0  0  0  0
  185.2920  172.7870  138.1970 O   0  0  0  0  0  1  0  0  0  0  0  0
  183.1990  174.7630  137.3730 C   0  0  2  0  0  0  0  0  0  0  0  0
  180.9320  175.5520  137.1230 F   0  0  0  0  0  0  0  0  0  0  0  0
  185.0730  175.6870  135.9280 O   0  0  0  0  0  1  0  0  0  0  0  0
  184.5790  174.6310  136.7050 C   0  0  2  0  0  0  0  0  0  0  0  0
  182.1790  175.5760  136.5120 C   0  0  1  0  0  0  0  0  0  0  0  0
  182.0290  173.3680  135.1980 C   0  0  0  0  0  2  0  0  0  0  0  0
  184.4640  173.3180  135.9340 C   0  0  1  0  0  0  0  0  0  0  0  0
  182.9650  171.3520  136.3530 C   0  0  0  0  0  1  0  0  0  0  0  0
  185.5330  173.4830  137.0070 C   0  0  2  0  0  0  0  0  0  0  0  0
  182.0320  174.9090  135.1280 C   0  0  0  0  0  2  0  0  0  0  0  0
  183.3360  175.3170  138.6470 O   0  0  0  0  0  1  0  0  0  0  0  0
  184.8550  173.4390  134.5940 O   0  0  0  0  0  1  0  0  0  0  0  0
  182.6930  173.4520  137.4830 O   0  0  0  0  0  0  0  0  0  0  0  0
  186.9770  173.6000  136.5370 C   0  0  0  0  0  2  0  0  0  0  0  0
  187.7670  172.6530  137.1920 O   0  0  0  0  0  1  0  0  0  0  0  0
  187.6150  178.6680  141.1720 C   0  0  0  0  0  2  0  0  0  0  0  0
  187.8460  177.2320  140.7300 C   0  0  0  0  0  2  0  0  0  0  0  0
  191.1660  176.2230  137.1550 C   0  0  0  0  0  2  0  0  0  0  0  0
  189.1040  176.5950  143.3110 C   0  0  0  0  0  2  0  0  0  0  0  0
  193.6240  176.3450  137.6370 C   0  0  0  0  0  2  0  0  0  0  0  0
  191.9430  177.3300  139.3120 C   0  0  1  0  0  3  0  0  0  0  0  0
  193.2790  176.6100  139.1090 C   0  0  0  0  0  2  0  0  0  0  0  0
  192.5180  176.7340  136.6630 C   0  0  0  0  0  2  0  0  0  0  0  0
  190.8780  176.7020  138.5120 N   0  0  0  0  0  0  0  0  0  0  0  0
  190.4000  177.2280  141.2030 C   0  0  0  0  0  0  0  0  0  0  0  0
  191.2180  177.7410  143.5430 C   0  0  0  0  0  2  0  0  0  0  0  0
  191.6110  177.3190  140.7360 N   0  0  0  0  0  0  0  0  0  0  0  0
  190.6610  177.5270  144.9360 C   0  0  1  0  0  3  0  0  0  0  0  0
  189.5130  176.7750  138.9670 C   0  0  0  0  0  0  0  0  0  0  0  0
  189.4630  176.5960  144.7840 C   0  0  0  0  0  2  0  0  0  0  0  0
  189.2590  177.0550  140.2600 C   0  0  0  0  0  0  0  0  0  0  0  0
  190.2060  177.2470  142.6290 N   0  0  0  0  0  0  0  0  0  0  0  0
  188.3870  176.5560  137.9910 C   0  0  0  0  0  2  0  0  0  0  0  0
  187.0340  178.4820  137.5940 O   0  0  0  0  0  1  0  0  0  0  0  0
  188.1510  177.7890  137.1280 C   0  0  2  0  0  3  0  0  0  0  0  0
  187.9530  177.4150  135.6650 C   0  0  0  0  0  2  0  0  0  0  0  0
  189.0150  177.8590  134.8980 F   0  0  0  0  0  0  0  0  0  0  0  0
  191.7240  176.8990  145.8240 C   0  0  0  0  0  2  0  0  0  0  0  0
  191.1540  176.5310  147.1520 C   0  0  0  0  0  0  0  0  0  0  0  0
  190.2980  177.2760  147.7010 O   0  0  0  0  0  0  0  0  0  0  0  0
  191.5440  175.3520  147.7720 O   0  0  0  0  0  1  0  0  0  0  0  0
  1  4  2  0  0  0  0
  2  7  1  6  0  0  0
  2  6  1  0  0  0  0
  3  2  1  0  0  0  0
  3  5  1  0  0  0  0
  5  1  1  0  0  0  0
  6  4  1  0  0  0  0
  8  7  1  0  0  0  0
  9  8  1  0  0  0  0
 10  9  1  0  0  0  0
 11 12  1  0  0  0  0
 11 10  1  0  0  0  0
 12 19  1  0  0  0  0
 13 22  1  1  0  0  0
 13 27  1  0  0  0  0
 15 27  1  0  0  0  0
 15 25  1  1  0  0  0
 18 17  1  6  0  0  0
 18 23  1  0  0  0  0
 18 15  1  0  0  0  0
 19 16  1  1  0  0  0
 19 15  1  0  0  0  0
 20 13  1  0  0  0  0
 21 26  1  6  0  0  0
 21 13  1  0  0  0  0
 21 18  1  0  0  0  0
 21 23  1  0  0  0  0
 23 14  1  1  0  0  0
 24 20  1  0  0  0  0
 24 19  1  0  0  0  0
 28 23  1  0  0  0  0
 28 29  1  0  0  0  0
 30  5  1  0  0  0  0
 31 30  1  0  0  0  0
 32 38  1  0  0  0  0
 33 44  1  0  0  0  0
 34 36  1  0  0  0  0
 35 36  1  1  0  0  0
 35 41  1  0  0  0  0
 37 32  1  0  0  0  0
 37 34  1  0  0  0  0
 38 43  1  0  0  0  0
 38 35  1  0  0  0  0
 39 46  1  0  0  0  0
 40 42  1  0  0  0  0
 41 39  2  0  0  0  0
 42 52  1  1  0  0  0
 43 45  2  0  0  0  0
 44 42  1  0  0  0  0
 45 31  1  0  0  0  0
 45 39  1  0  0  0  0
 46 33  1  0  0  0  0
 46 40  1  0  0  0  0
 47 43  1  0  0  0  0
 49 48  1  1  0  0  0
 49 47  1  0  0  0  0
 50 49  1  0  0  0  0
 51 50  1  0  0  0  0
 52 53  1  0  0  0  0
 53 54  2  0  0  0  0
 53 55  1  0  0  0  0
M  END
>  <MODEL>
5

>  <REMARK>
 VINA RESULT:      -6.8      3.098      7.212
  Name = 
  16 active torsions:
  status: ('A' for Active; 'I' for Inactive)
    1  A    between atoms: C_2  and  C_28
    2  A    between atoms: C_2  and  N_44
    3  A    between atoms: C_4  and  C_40
    4  A    between atoms: C_8  and  N_22
    5  A    between atoms: C_8  and  C_43
    6  A    between atoms: C_10  and  C_32
    7  A    between atoms: C_11  and  C_38
    8  A    between atoms: C_19  and  C_40
    9  A    between atoms: C_19  and  C_45
   10  A    between atoms: C_20  and  N_22
   11  A    between atoms: C_27  and  C_54
   12  A    between atoms: C_28  and  C_49
   13  A    between atoms: C_32  and  C_39
   14  A    between atoms: C_35  and  C_43
   15  A    between atoms: C_35  and  C_51
   16  A    between atoms: C_51  and  C_54
                            x       y       z     vdW  Elec       q    Type
                         _______ _______ _______ _____ _____    ______ ____

>  <TORSDO>
F 16

$$$$
=
 OpenBabel11052415073D

 55 61  0  0  1  0  0  0  0  0999 V2000
  183.3110  178.9910  143.8600 C   0  0  0  0  0  3  0  0  0  0  0  0
  182.7190  178.2060  141.2030 C   0  0  1  0  0  3  0  0  0  0  0  0
  184.0810  178.8470  141.4620 C   0  0  0  0  0  2  0  0  0  0  0  0
  182.0300  178.9910  143.4810 C   0  0  0  0  0  3  0  0  0  0  0  0
  184.3670  178.8600  142.8930 N   0  0  0  0  0  0  0  0  0  0  0  0
  181.6420  178.9140  142.0300 C   0  0  0  0  0  2  0  0  0  0  0  0
  182.3850  178.2090  139.7120 C   0  0  0  0  0  2  0  0  0  0  0  0
  180.8840  178.1750  139.4510 C   0  0  0  0  0  2  0  0  0  0  0  0
  180.5730  178.6700  138.0450 C   0  0  0  0  0  2  0  0  0  0  0  0
  181.8340  178.7900  137.2010 C   0  0  0  0  0  2  0  0  0  0  0  0
  181.8370  177.7570  136.0900 C   0  0  0  0  0  2  0  0  0  0  0  0
  183.0150  176.9080  136.2250 N   0  0  0  0  0  2  0  0  0  0  0  0
  183.6880  172.8470  136.1460 C   0  0  2  0  0  0  0  0  0  0  0  0
  185.6880  172.8490  138.3570 O   0  0  0  0  0  1  0  0  0  0  0  0
  183.5930  174.7190  137.3170 C   0  0  2  0  0  0  0  0  0  0  0  0
  181.3300  175.3800  136.8010 F   0  0  0  0  0  0  0  0  0  0  0  0
  185.5700  175.7920  136.1360 O   0  0  0  0  0  1  0  0  0  0  0  0
  185.0510  174.6880  136.8250 C   0  0  2  0  0  0  0  0  0  0  0  0
  182.6400  175.4940  136.3510 C   0  0  1  0  0  0  0  0  0  0  0  0
  182.7900  173.3180  134.9860 C   0  0  0  0  0  2  0  0  0  0  0  0
  185.1140  173.3920  136.0190 C   0  0  1  0  0  0  0  0  0  0  0  0
  183.7000  171.3300  136.2080 C   0  0  0  0  0  1  0  0  0  0  0  0
  186.0300  173.5900  137.2200 C   0  0  2  0  0  0  0  0  0  0  0  0
  182.7060  174.8570  134.9470 C   0  0  0  0  0  2  0  0  0  0  0  0
  183.5380  175.2450  138.6090 O   0  0  0  0  0  1  0  0  0  0  0  0
  185.6600  173.5730  134.7410 O   0  0  0  0  0  1  0  0  0  0  0  0
  183.1600  173.3780  137.3370 O   0  0  0  0  0  0  0  0  0  0  0  0
  187.5110  173.8060  136.9370 C   0  0  0  0  0  2  0  0  0  0  0  0
  188.2220  172.6370  137.2180 O   0  0  0  0  0  1  0  0  0  0  0  0
  185.7500  178.7450  143.3280 C   0  0  0  0  0  2  0  0  0  0  0  0
  186.2080  177.2970  143.2420 C   0  0  0  0  0  2  0  0  0  0  0  0
  189.5020  177.2050  146.9780 C   0  0  0  0  0  2  0  0  0  0  0  0
  187.6550  178.0910  140.8060 C   0  0  0  0  0  2  0  0  0  0  0  0
  191.9250  176.7500  146.5210 C   0  0  0  0  0  2  0  0  0  0  0  0
  190.1760  176.3150  144.6900 C   0  0  1  0  0  3  0  0  0  0  0  0
  191.6010  176.7650  145.0210 C   0  0  0  0  0  2  0  0  0  0  0  0
  190.7320  176.4100  147.4080 C   0  0  0  0  0  2  0  0  0  0  0  0
  189.1950  176.9850  145.5600 N   0  0  0  0  0  0  0  0  0  0  0  0
  188.7460  176.9480  142.8130 C   0  0  0  0  0  0  0  0  0  0  0  0
  189.5640  176.6570  140.4360 C   0  0  0  0  0  2  0  0  0  0  0  0
  189.9070  176.5890  143.2800 N   0  0  0  0  0  0  0  0  0  0  0  0
  189.1050  177.1630  139.0830 C   0  0  1  0  0  3  0  0  0  0  0  0
  187.8560  177.2070  145.0790 C   0  0  0  0  0  0  0  0  0  0  0  0
  188.0680  178.2470  139.3560 C   0  0  0  0  0  2  0  0  0  0  0  0
  187.6120  177.1670  143.7540 C   0  0  0  0  0  0  0  0  0  0  0  0
  188.6090  177.1720  141.3980 N   0  0  0  0  0  0  0  0  0  0  0  0
  186.7410  177.4630  146.0590 C   0  0  0  0  0  2  0  0  0  0  0  0
  187.2620  178.2530  148.2510 O   0  0  0  0  0  1  0  0  0  0  0  0
  187.0410  178.6700  146.9390 C   0  0  2  0  0  3  0  0  0  0  0  0
  185.9020  179.6800  146.9040 C   0  0  0  0  0  2  0  0  0  0  0  0
  184.7190  179.0720  146.5210 F   0  0  0  0  0  0  0  0  0  0  0  0
  190.2900  177.7310  138.3170 C   0  0  0  0  0  2  0  0  0  0  0  0
  190.6040  176.8870  137.1280 C   0  0  0  0  0  0  0  0  0  0  0  0
  191.7920  176.5320  136.9010 O   0  0  0  0  0  1  0  0  0  0  0  0
  189.5830  176.4650  136.2880 O   0  0  0  0  0  0  0  0  0  0  0  0
  2  7  1  6  0  0  0
  2  3  1  0  0  0  0
  2  6  1  0  0  0  0
  3  5  1  0  0  0  0
  4  1  2  0  0  0  0
  5 30  1  0  0  0  0
  5  1  1  0  0  0  0
  6  4  1  0  0  0  0
  8  7  1  0  0  0  0
  9  8  1  0  0  0  0
 10  9  1  0  0  0  0
 11 12  1  0  0  0  0
 11 10  1  0  0  0  0
 12 19  1  0  0  0  0
 13 22  1  1  0  0  0
 13 27  1  0  0  0  0
 15 27  1  0  0  0  0
 15 25  1  1  0  0  0
 18 17  1  6  0  0  0
 18 23  1  0  0  0  0
 18 15  1  0  0  0  0
 19 16  1  1  0  0  0
 19 15  1  0  0  0  0
 20 13  1  0  0  0  0
 21 26  1  6  0  0  0
 21 13  1  0  0  0  0
 21 18  1  0  0  0  0
 21 23  1  0  0  0  0
 23 14  1  1  0  0  0
 24 20  1  0  0  0  0
 24 19  1  0  0  0  0
 28 29  1  0  0  0  0
 28 23  1  0  0  0  0
 31 30  1  0  0  0  0
 31 45  1  0  0  0  0
 32 37  1  0  0  0  0
 33 46  1  0  0  0  0
 34 37  1  0  0  0  0
 35 36  1  1  0  0  0
 35 38  1  0  0  0  0
 36 34  1  0  0  0  0
 38 32  1  0  0  0  0
 39 41  2  0  0  0  0
 39 45  1  0  0  0  0
 40 46  1  0  0  0  0
 41 35  1  0  0  0  0
 42 52  1  1  0  0  0
 42 44  1  0  0  0  0
 42 40  1  0  0  0  0
 43 38  1  0  0  0  0
 43 47  1  0  0  0  0
 44 33  1  0  0  0  0
 45 43  2  0  0  0  0
 46 39  1  0  0  0  0
 47 49  1  0  0  0  0
 49 48  1  1  0  0  0
 50 49  1  0  0  0  0
 51 50  1  0  0  0  0
 53 52  1  0  0  0  0
 54 53  1  0  0  0  0
 55 53  2  0  0  0  0
M  END
>  <MODEL>
6

>  <REMARK>
 VINA RESULT:      -6.6      2.910      6.413
  Name = 
  16 active torsions:
  status: ('A' for Active; 'I' for Inactive)
    1  A    between atoms: C_2  and  C_28
    2  A    between atoms: C_2  and  N_44
    3  A    between atoms: C_4  and  C_40
    4  A    between atoms: C_8  and  N_22
    5  A    between atoms: C_8  and  C_43
    6  A    between atoms: C_10  and  C_32
    7  A    between atoms: C_11  and  C_38
    8  A    between atoms: C_19  and  C_40
    9  A    between atoms: C_19  and  C_45
   10  A    between atoms: C_20  and  N_22
   11  A    between atoms: C_27  and  C_54
   12  A    between atoms: C_28  and  C_49
   13  A    between atoms: C_32  and  C_39
   14  A    between atoms: C_35  and  C_43
   15  A    between atoms: C_35  and  C_51
   16  A    between atoms: C_51  and  C_54
                            x       y       z     vdW  Elec       q    Type
                         _______ _______ _______ _____ _____    ______ ____

>  <TORSDO>
F 16

$$$$
=
 OpenBabel11052415073D

 55 61  0  0  1  0  0  0  0  0999 V2000
  190.7060  177.8790  141.1340 C   0  0  0  0  0  3  0  0  0  0  0  0
  190.3820  177.4420  138.3540 C   0  0  1  0  0  3  0  0  0  0  0  0
  189.1370  177.3440  139.2330 C   0  0  0  0  0  2  0  0  0  0  0  0
  191.7450  177.3860  140.4560 C   0  0  0  0  0  3  0  0  0  0  0  0
  189.3970  177.9340  140.5420 N   0  0  0  0  0  0  0  0  0  0  0  0
  191.5800  176.8170  139.0740 C   0  0  0  0  0  2  0  0  0  0  0  0
  190.1420  176.8030  136.9880 C   0  0  0  0  0  2  0  0  0  0  0  0
  189.5830  175.3890  137.0950 C   0  0  0  0  0  2  0  0  0  0  0  0
  189.8060  174.6240  135.7980 C   0  0  0  0  0  2  0  0  0  0  0  0
  191.1710  174.9250  135.1960 C   0  0  0  0  0  2  0  0  0  0  0  0
  192.1910  173.8930  135.6380 C   0  0  0  0  0  2  0  0  0  0  0  0
  193.5120  174.2870  135.1610 N   0  0  0  0  0  2  0  0  0  0  0  0
  196.1950  174.3600  138.2830 C   0  0  2  0  0  0  0  0  0  0  0  0
  198.5300  173.4460  136.6700 O   0  0  0  0  0  1  0  0  0  0  0  0
  195.8170  174.5870  136.1170 C   0  0  2  0  0  0  0  0  0  0  0  0
  194.1200  176.3010  136.2010 F   0  0  0  0  0  0  0  0  0  0  0  0
  195.1970  172.1480  135.7680 O   0  0  0  0  0  1  0  0  0  0  0  0
  196.1130  173.0840  136.2650 C   0  0  2  0  0  0  0  0  0  0  0  0
  194.2950  174.9230  136.2290 C   0  0  1  0  0  0  0  0  0  0  0  0
  194.7480  174.6220  138.7440 C   0  0  0  0  0  2  0  0  0  0  0  0
  196.3770  172.9310  137.7620 C   0  0  1  0  0  0  0  0  0  0  0  0
  197.1590  174.6400  139.4220 C   0  0  0  0  0  1  0  0  0  0  0  0
  197.4550  172.5530  136.7530 C   0  0  2  0  0  0  0  0  0  0  0  0
  193.7560  174.4120  137.5810 C   0  0  0  0  0  2  0  0  0  0  0  0
  196.3510  175.0620  134.9180 O   0  0  0  0  0  1  0  0  0  0  0  0
  195.6300  171.8970  138.3420 O   0  0  0  0  0  1  0  0  0  0  0  0
  196.4600  175.2190  137.2000 O   0  0  0  0  0  0  0  0  0  0  0  0
  197.7530  171.0710  136.5780 C   0  0  0  0  0  2  0  0  0  0  0  0
  198.5920  170.8830  135.4770 O   0  0  0  0  0  1  0  0  0  0  0  0
  188.2990  178.5780  141.2460 C   0  0  0  0  0  2  0  0  0  0  0  0
  187.2180  177.5610  141.5750 C   0  0  0  0  0  2  0  0  0  0  0  0
  187.6730  177.4330  146.5350 C   0  0  0  0  0  2  0  0  0  0  0  0
  184.3450  177.5010  140.9480 C   0  0  0  0  0  2  0  0  0  0  0  0
  185.8530  178.3450  147.9990 C   0  0  0  0  0  2  0  0  0  0  0  0
  185.8410  178.8520  145.4800 C   0  0  1  0  0  3  0  0  0  0  0  0
  185.0110  178.5750  146.7360 C   0  0  0  0  0  2  0  0  0  0  0  0
  187.3560  178.3120  147.7420 C   0  0  0  0  0  2  0  0  0  0  0  0
  186.9370  177.8770  145.3460 N   0  0  0  0  0  0  0  0  0  0  0  0
  185.3150  178.3830  143.1400 C   0  0  0  0  0  0  0  0  0  0  0  0
  183.1740  179.2620  142.1170 C   0  0  0  0  0  2  0  0  0  0  0  0
  184.9610  178.8210  144.3140 N   0  0  0  0  0  0  0  0  0  0  0  0
  182.4020  178.9660  140.8460 C   0  0  1  0  0  3  0  0  0  0  0  0
  187.4350  177.5460  144.0350 C   0  0  0  0  0  0  0  0  0  0  0  0
  183.0120  177.7000  140.2550 C   0  0  0  0  0  2  0  0  0  0  0  0
  186.6770  177.8070  142.9520 C   0  0  0  0  0  0  0  0  0  0  0  0
  184.3570  178.4240  142.0680 N   0  0  0  0  0  0  0  0  0  0  0  0
  188.8010  176.9290  143.8880 C   0  0  0  0  0  2  0  0  0  0  0  0
  190.1510  178.8580  144.2820 O   0  0  0  0  0  1  0  0  0  0  0  0
  189.8180  177.6060  144.7980 C   0  0  2  0  0  3  0  0  0  0  0  0
  191.0750  176.7610  144.9530 C   0  0  0  0  0  2  0  0  0  0  0  0
  191.7150  177.0480  146.1460 F   0  0  0  0  0  0  0  0  0  0  0  0
  180.9320  178.7550  141.1760 C   0  0  0  0  0  2  0  0  0  0  0  0
  180.6380  179.1770  142.5760 C   0  0  0  0  0  0  0  0  0  0  0  0
  180.6820  178.3350  143.5120 O   0  0  0  0  0  1  0  0  0  0  0  0
  180.3450  180.5060  142.8520 O   0  0  0  0  0  0  0  0  0  0  0  0
  2  7  1  6  0  0  0
  2  6  1  0  0  0  0
  2  3  1  0  0  0  0
  3  5  1  0  0  0  0
  4  1  2  0  0  0  0
  5  1  1  0  0  0  0
  5 30  1  0  0  0  0
  6  4  1  0  0  0  0
  7  8  1  0  0  0  0
  9  8  1  0  0  0  0
 10 11  1  0  0  0  0
 10  9  1  0  0  0  0
 12 11  1  0  0  0  0
 12 19  1  0  0  0  0
 13 20  1  0  0  0  0
 13 22  1  1  0  0  0
 15 25  1  6  0  0  0
 15 19  1  0  0  0  0
 15 18  1  0  0  0  0
 15 27  1  0  0  0  0
 18 17  1  6  0  0  0
 18 23  1  0  0  0  0
 18 21  1  0  0  0  0
 19 16  1  6  0  0  0
 19 24  1  0  0  0  0
 21 13  1  0  0  0  0
 21 26  1  1  0  0  0
 23 14  1  6  0  0  0
 23 21  1  0  0  0  0
 24 20  1  0  0  0  0
 27 13  1  0  0  0  0
 28 23  1  0  0  0  0
 29 28  1  0  0  0  0
 30 31  1  0  0  0  0
 31 45  1  0  0  0  0
 32 37  1  0  0  0  0
 33 46  1  0  0  0  0
 35 36  1  1  0  0  0
 36 34  1  0  0  0  0
 37 34  1  0  0  0  0
 38 35  1  0  0  0  0
 38 32  1  0  0  0  0
 39 41  2  0  0  0  0
 41 35  1  0  0  0  0
 42 52  1  1  0  0  0
 42 40  1  0  0  0  0
 43 38  1  0  0  0  0
 44 42  1  0  0  0  0
 44 33  1  0  0  0  0
 45 39  1  0  0  0  0
 45 43  2  0  0  0  0
 46 40  1  0  0  0  0
 46 39  1  0  0  0  0
 47 43  1  0  0  0  0
 47 49  1  0  0  0  0
 49 48  1  6  0  0  0
 49 50  1  0  0  0  0
 50 51  1  0  0  0  0
 52 53  1  0  0  0  0
 53 55  2  0  0  0  0
 53 54  1  0  0  0  0
M  END
>  <MODEL>
7

>  <REMARK>
 VINA RESULT:      -6.2      5.217      9.066
  Name = 
  16 active torsions:
  status: ('A' for Active; 'I' for Inactive)
    1  A    between atoms: C_2  and  C_28
    2  A    between atoms: C_2  and  N_44
    3  A    between atoms: C_4  and  C_40
    4  A    between atoms: C_8  and  N_22
    5  A    between atoms: C_8  and  C_43
    6  A    between atoms: C_10  and  C_32
    7  A    between atoms: C_11  and  C_38
    8  A    between atoms: C_19  and  C_40
    9  A    between atoms: C_19  and  C_45
   10  A    between atoms: C_20  and  N_22
   11  A    between atoms: C_27  and  C_54
   12  A    between atoms: C_28  and  C_49
   13  A    between atoms: C_32  and  C_39
   14  A    between atoms: C_35  and  C_43
   15  A    between atoms: C_35  and  C_51
   16  A    between atoms: C_51  and  C_54
                            x       y       z     vdW  Elec       q    Type
                         _______ _______ _______ _____ _____    ______ ____

>  <TORSDO>
F 16

$$$$
=
 OpenBabel11052415073D

 55 61  0  0  1  0  0  0  0  0999 V2000
  182.9600  179.8090  138.7670 C   0  0  0  0  0  3  0  0  0  0  0  0
  182.3240  178.9990  141.4060 C   0  0  1  0  0  3  0  0  0  0  0  0
  183.3130  178.1370  140.6230 C   0  0  0  0  0  2  0  0  0  0  0  0
  181.7550  180.1310  139.2440 C   0  0  0  0  0  3  0  0  0  0  0  0
  183.7980  178.8640  139.4540 N   0  0  0  0  0  0  0  0  0  0  0  0
  181.2020  179.4790  140.4800 C   0  0  0  0  0  2  0  0  0  0  0  0
  181.7790  178.2460  142.6180 C   0  0  0  0  0  2  0  0  0  0  0  0
  182.2720  178.8310  143.9370 C   0  0  0  0  0  2  0  0  0  0  0  0
  183.5770  179.5880  143.7330 C   0  0  0  0  0  2  0  0  0  0  0  0
  184.7710  178.7960  144.2480 C   0  0  0  0  0  2  0  0  0  0  0  0
  185.8170  178.6340  143.1620 C   0  0  0  0  0  2  0  0  0  0  0  0
  186.8410  177.6990  143.6160 N   0  0  0  0  0  2  0  0  0  0  0  0
  190.7270  177.6190  142.2590 C   0  0  2  0  0  0  0  0  0  0  0  0
  191.5850  175.3530  143.9960 O   0  0  0  0  0  1  0  0  0  0  0  0
  188.9880  176.5170  143.0640 C   0  0  2  0  0  0  0  0  0  0  0  0
  187.3480  177.1190  141.3990 F   0  0  0  0  0  0  0  0  0  0  0  0
  189.0470  177.6770  145.3230 O   0  0  0  0  0  1  0  0  0  0  0  0
  189.7350  176.9660  144.3320 C   0  0  2  0  0  0  0  0  0  0  0  0
  187.8950  177.5350  142.6070 C   0  0  1  0  0  0  0  0  0  0  0  0
  189.9350  178.8200  141.7070 C   0  0  0  0  0  2  0  0  0  0  0  0
  190.9380  177.7240  143.7730 C   0  0  1  0  0  0  0  0  0  0  0  0
  192.0600  177.5040  141.5410 C   0  0  0  0  0  1  0  0  0  0  0  0
  191.1500  176.5040  144.6610 C   0  0  2  0  0  0  0  0  0  0  0  0
  188.5470  178.9140  142.3720 C   0  0  0  0  0  2  0  0  0  0  0  0
  188.4440  175.2450  143.2560 O   0  0  0  0  0  1  0  0  0  0  0  0
  191.0960  178.9910  144.3490 O   0  0  0  0  0  1  0  0  0  0  0  0
  189.9560  176.4620  142.0400 O   0  0  0  0  0  0  0  0  0  0  0  0
  191.6820  176.7520  146.0660 C   0  0  0  0  0  2  0  0  0  0  0  0
  191.0920  175.8570  146.9610 O   0  0  0  0  0  1  0  0  0  0  0  0
  185.1520  178.6100  138.9890 C   0  0  0  0  0  2  0  0  0  0  0  0
  185.1390  178.2400  137.5140 C   0  0  0  0  0  2  0  0  0  0  0  0
  182.9910  173.7550  137.2070 C   0  0  0  0  0  2  0  0  0  0  0  0
  187.9020  177.8360  138.4390 C   0  0  0  0  0  2  0  0  0  0  0  0
  184.3770  171.7120  136.7750 C   0  0  0  0  0  2  0  0  0  0  0  0
  185.4020  174.0450  136.4450 C   0  0  1  0  0  3  0  0  0  0  0  0
  185.6300  172.5930  136.8740 C   0  0  0  0  0  2  0  0  0  0  0  0
  183.1140  172.4740  136.3880 C   0  0  0  0  0  2  0  0  0  0  0  0
  184.1860  174.5940  137.0680 N   0  0  0  0  0  0  0  0  0  0  0  0
  186.5390  176.0770  137.1850 C   0  0  0  0  0  0  0  0  0  0  0  0
  189.0590  176.2540  137.0250 C   0  0  0  0  0  2  0  0  0  0  0  0
  186.5800  174.8340  136.7980 N   0  0  0  0  0  0  0  0  0  0  0  0
  190.0990  177.1910  137.6070 C   0  0  1  0  0  3  0  0  0  0  0  0
  184.0960  176.0100  137.3190 C   0  0  0  0  0  0  0  0  0  0  0  0
  189.3890  178.0150  138.6750 C   0  0  0  0  0  2  0  0  0  0  0  0
  185.2210  176.7500  137.3520 C   0  0  0  0  0  0  0  0  0  0  0  0
  187.7760  176.7480  137.4870 N   0  0  0  0  0  0  0  0  0  0  0  0
  182.7470  176.6490  137.5220 C   0  0  0  0  0  2  0  0  0  0  0  0
  182.4770  177.8670  135.4860 O   0  0  0  0  0  1  0  0  0  0  0  0
  181.9890  176.7770  136.2060 C   0  0  2  0  0  3  0  0  0  0  0  0
  180.4930  176.9420  136.4410 C   0  0  0  0  0  2  0  0  0  0  0  0
  180.1780  178.2690  136.6800 F   0  0  0  0  0  0  0  0  0  0  0  0
  191.2360  176.3840  138.2140 C   0  0  0  0  0  2  0  0  0  0  0  0
  192.3830  176.2900  137.2650 C   0  0  0  0  0  0  0  0  0  0  0  0
  193.5110  176.7490  137.5900 O   0  0  0  0  0  1  0  0  0  0  0  0
  192.2170  175.6680  136.0350 O   0  0  0  0  0  0  0  0  0  0  0  0
  1  4  2  0  0  0  0
  1  5  1  0  0  0  0
  2  7  1  1  0  0  0
  3  2  1  0  0  0  0
  4  6  1  0  0  0  0
  5  3  1  0  0  0  0
  6  2  1  0  0  0  0
  7  8  1  0  0  0  0
  9  8  1  0  0  0  0
  9 10  1  0  0  0  0
 11 12  1  0  0  0  0
 11 10  1  0  0  0  0
 13 22  1  6  0  0  0
 13 21  1  0  0  0  0
 15 25  1  1  0  0  0
 15 18  1  0  0  0  0
 18 23  1  0  0  0  0
 18 17  1  1  0  0  0
 19 16  1  6  0  0  0
 19 15  1  0  0  0  0
 19 12  1  0  0  0  0
 20 13  1  0  0  0  0
 20 24  1  0  0  0  0
 21 18  1  0  0  0  0
 21 26  1  1  0  0  0
 21 23  1  0  0  0  0
 23 14  1  6  0  0  0
 23 28  1  0  0  0  0
 24 19  1  0  0  0  0
 27 13  1  0  0  0  0
 27 15  1  0  0  0  0
 28 29  1  0  0  0  0
 30  5  1  0  0  0  0
 31 30  1  0  0  0  0
 33 44  1  0  0  0  0
 34 36  1  0  0  0  0
 35 41  1  0  0  0  0
 35 36  1  1  0  0  0
 35 38  1  0  0  0  0
 37 34  1  0  0  0  0
 37 32  1  0  0  0  0
 38 32  1  0  0  0  0
 38 43  1  0  0  0  0
 39 45  1  0  0  0  0
 39 46  1  0  0  0  0
 40 46  1  0  0  0  0
 40 42  1  0  0  0  0
 41 39  2  0  0  0  0
 42 52  1  1  0  0  0
 42 44  1  0  0  0  0
 43 45  2  0  0  0  0
 43 47  1  0  0  0  0
 45 31  1  0  0  0  0
 46 33  1  0  0  0  0
 49 48  1  1  0  0  0
 49 50  1  0  0  0  0
 49 47  1  0  0  0  0
 50 51  1  0  0  0  0
 53 54  1  0  0  0  0
 53 52  1  0  0  0  0
 55 53  2  0  0  0  0
M  END
>  <MODEL>
8

>  <REMARK>
 VINA RESULT:      -6.2      2.746     10.428
  Name = 
  16 active torsions:
  status: ('A' for Active; 'I' for Inactive)
    1  A    between atoms: C_2  and  C_28
    2  A    between atoms: C_2  and  N_44
    3  A    between atoms: C_4  and  C_40
    4  A    between atoms: C_8  and  N_22
    5  A    between atoms: C_8  and  C_43
    6  A    between atoms: C_10  and  C_32
    7  A    between atoms: C_11  and  C_38
    8  A    between atoms: C_19  and  C_40
    9  A    between atoms: C_19  and  C_45
   10  A    between atoms: C_20  and  N_22
   11  A    between atoms: C_27  and  C_54
   12  A    between atoms: C_28  and  C_49
   13  A    between atoms: C_32  and  C_39
   14  A    between atoms: C_35  and  C_43
   15  A    between atoms: C_35  and  C_51
   16  A    between atoms: C_51  and  C_54
                            x       y       z     vdW  Elec       q    Type
                         _______ _______ _______ _____ _____    ______ ____

>  <TORSDO>
F 16

$$$$
=
 OpenBabel11052415073D

 55 61  0  0  1  0  0  0  0  0999 V2000
  182.8010  179.6260  138.7150 C   0  0  0  0  0  3  0  0  0  0  0  0
  182.2320  178.9890  141.4160 C   0  0  1  0  0  3  0  0  0  0  0  0
  183.1620  178.0500  140.6510 C   0  0  0  0  0  2  0  0  0  0  0  0
  181.6260  180.0180  139.2140 C   0  0  0  0  0  3  0  0  0  0  0  0
  183.6300  178.6920  139.4270 N   0  0  0  0  0  0  0  0  0  0  0  0
  181.0950  179.4570  140.5040 C   0  0  0  0  0  2  0  0  0  0  0  0
  181.7050  178.3260  142.6880 C   0  0  0  0  0  2  0  0  0  0  0  0
  182.1540  179.0500  143.9520 C   0  0  0  0  0  2  0  0  0  0  0  0
  183.5930  179.5280  143.8140 C   0  0  0  0  0  2  0  0  0  0  0  0
  184.5800  178.4940  144.3400 C   0  0  0  0  0  2  0  0  0  0  0  0
  185.5000  178.0190  143.2320 C   0  0  0  0  0  2  0  0  0  0  0  0
  186.8110  177.7130  143.7940 N   0  0  0  0  0  2  0  0  0  0  0  0
  190.6440  177.6070  142.2930 C   0  0  2  0  0  0  0  0  0  0  0  0
  191.4940  175.2180  143.8610 O   0  0  0  0  0  1  0  0  0  0  0  0
  188.9020  176.5070  143.0960 C   0  0  2  0  0  0  0  0  0  0  0  0
  187.2230  177.2530  141.5310 F   0  0  0  0  0  0  0  0  0  0  0  0
  189.0740  177.5280  145.4150 O   0  0  0  0  0  1  0  0  0  0  0  0
  189.7060  176.8580  144.3600 C   0  0  2  0  0  0  0  0  0  0  0  0
  187.8240  177.5810  142.7400 C   0  0  1  0  0  0  0  0  0  0  0  0
  189.8690  178.8600  141.8420 C   0  0  0  0  0  2  0  0  0  0  0  0
  190.9100  177.6150  143.8020 C   0  0  1  0  0  0  0  0  0  0  0  0
  191.9460  177.4980  141.5220 C   0  0  0  0  0  1  0  0  0  0  0  0
  191.1170  176.3390  144.6090 C   0  0  2  0  0  0  0  0  0  0  0  0
  188.5080  178.9520  142.5620 C   0  0  0  0  0  2  0  0  0  0  0  0
  188.3270  175.2420  143.2330 O   0  0  0  0  0  1  0  0  0  0  0  0
  191.1270  178.8410  144.4450 O   0  0  0  0  0  1  0  0  0  0  0  0
  189.8310  176.4870  142.0360 O   0  0  0  0  0  0  0  0  0  0  0  0
  191.7050  176.4880  146.0050 C   0  0  0  0  0  2  0  0  0  0  0  0
  190.6860  176.7510  146.9230 O   0  0  0  0  0  1  0  0  0  0  0  0
  184.9570  178.3630  138.9320 C   0  0  0  0  0  2  0  0  0  0  0  0
  184.9030  178.0730  137.4400 C   0  0  0  0  0  2  0  0  0  0  0  0
  188.7190  175.1080  136.2290 C   0  0  0  0  0  2  0  0  0  0  0  0
  182.4270  176.6970  136.6470 C   0  0  0  0  0  2  0  0  0  0  0  0
  188.4130  172.6210  136.1340 C   0  0  0  0  0  2  0  0  0  0  0  0
  186.6070  174.0910  137.2220 C   0  0  1  0  0  3  0  0  0  0  0  0
  186.9160  172.8390  136.3970 C   0  0  0  0  0  2  0  0  0  0  0  0
  189.3000  173.7560  136.6350 C   0  0  0  0  0  2  0  0  0  0  0  0
  187.3390  175.2590  136.7030 N   0  0  0  0  0  0  0  0  0  0  0  0
  184.6130  175.5020  137.2120 C   0  0  0  0  0  0  0  0  0  0  0  0
  182.3310  174.4810  137.6060 C   0  0  0  0  0  2  0  0  0  0  0  0
  185.1640  174.3230  137.2110 N   0  0  0  0  0  0  0  0  0  0  0  0
  180.9050  174.9560  137.4110 C   0  0  1  0  0  3  0  0  0  0  0  0
  186.7870  176.5770  136.8810 C   0  0  0  0  0  0  0  0  0  0  0  0
  180.9840  176.2360  136.5870 C   0  0  0  0  0  2  0  0  0  0  0  0
  185.4750  176.7160  137.1540 C   0  0  0  0  0  0  0  0  0  0  0  0
  183.1770  175.5940  137.2180 N   0  0  0  0  0  0  0  0  0  0  0  0
  187.6830  177.7840  136.7770 C   0  0  0  0  0  2  0  0  0  0  0  0
  188.9820  179.3590  138.0140 O   0  0  0  0  0  1  0  0  0  0  0  0
  188.1750  178.2300  138.1490 C   0  0  2  0  0  3  0  0  0  0  0  0
  188.9510  177.1220  138.8480 C   0  0  0  0  0  2  0  0  0  0  0  0
  190.3080  177.2460  138.6070 F   0  0  0  0  0  0  0  0  0  0  0  0
  180.1040  173.8910  136.6770 C   0  0  0  0  0  2  0  0  0  0  0  0
  180.7060  172.5420  136.8830 C   0  0  0  0  0  0  0  0  0  0  0  0
  180.4350  171.8800  137.9210 O   0  0  0  0  0  1  0  0  0  0  0  0
  181.5420  172.0010  135.9150 O   0  0  0  0  0  0  0  0  0  0  0  0
  1  4  2  0  0  0  0
  1  5  1  0  0  0  0
  2  7  1  1  0  0  0
  3  2  1  0  0  0  0
  4  6  1  0  0  0  0
  5  3  1  0  0  0  0
  6  2  1  0  0  0  0
  7  8  1  0  0  0  0
  9  8  1  0  0  0  0
  9 10  1  0  0  0  0
 11 12  1  0  0  0  0
 11 10  1  0  0  0  0
 13 22  1  6  0  0  0
 13 21  1  0  0  0  0
 15 25  1  1  0  0  0
 15 18  1  0  0  0  0
 18 23  1  0  0  0  0
 18 17  1  1  0  0  0
 19 16  1  6  0  0  0
 19 15  1  0  0  0  0
 19 12  1  0  0  0  0
 20 13  1  0  0  0  0
 20 24  1  0  0  0  0
 21 18  1  0  0  0  0
 21 26  1  1  0  0  0
 21 23  1  0  0  0  0
 23 14  1  6  0  0  0
 23 28  1  0  0  0  0
 24 19  1  0  0  0  0
 27 13  1  0  0  0  0
 27 15  1  0  0  0  0
 28 29  1  0  0  0  0
 30  5  1  0  0  0  0
 31 30  1  0  0  0  0
 32 37  1  0  0  0  0
 32 38  1  0  0  0  0
 33 46  1  0  0  0  0
 34 36  1  0  0  0  0
 34 37  1  0  0  0  0
 35 36  1  6  0  0  0
 38 43  1  0  0  0  0
 38 35  1  0  0  0  0
 39 46  1  0  0  0  0
 41 39  2  0  0  0  0
 41 35  1  0  0  0  0
 42 52  1  6  0  0  0
 42 40  1  0  0  0  0
 43 45  2  0  0  0  0
 44 33  1  0  0  0  0
 44 42  1  0  0  0  0
 45 39  1  0  0  0  0
 45 31  1  0  0  0  0
 46 40  1  0  0  0  0
 47 43  1  0  0  0  0
 47 49  1  0  0  0  0
 49 48  1  6  0  0  0
 49 50  1  0  0  0  0
 51 50  1  0  0  0  0
 52 53  1  0  0  0  0
 53 54  1  0  0  0  0
 55 53  2  0  0  0  0
M  END
>  <MODEL>
9

>  <REMARK>
 VINA RESULT:      -6.0      3.408      9.365
  Name = 
  16 active torsions:
  status: ('A' for Active; 'I' for Inactive)
    1  A    between atoms: C_2  and  C_28
    2  A    between atoms: C_2  and  N_44
    3  A    between atoms: C_4  and  C_40
    4  A    between atoms: C_8  and  N_22
    5  A    between atoms: C_8  and  C_43
    6  A    between atoms: C_10  and  C_32
    7  A    between atoms: C_11  and  C_38
    8  A    between atoms: C_19  and  C_40
    9  A    between atoms: C_19  and  C_45
   10  A    between atoms: C_20  and  N_22
   11  A    between atoms: C_27  and  C_54
   12  A    between atoms: C_28  and  C_49
   13  A    between atoms: C_32  and  C_39
   14  A    between atoms: C_35  and  C_43
   15  A    between atoms: C_35  and  C_51
   16  A    between atoms: C_51  and  C_54
                            x       y       z     vdW  Elec       q    Type
                         _______ _______ _______ _____ _____    ______ ____

>  <TORSDO>
F 16

$$$$
