=
 OpenBabel11052415493D

 34 37  0  0  1  0  0  0  0  0999 V2000
  187.8870  177.8910  140.8950 C   0  0  0  0  0  0  0  0  0  0  0  0
  187.5460  177.2320  144.4700 C   0  0  0  0  0  3  0  0  0  0  0  0
  189.3970  176.6810  143.0090 C   0  0  0  0  0  3  0  0  0  0  0  0
  187.5430  178.3610  138.4450 N   0  0  0  0  0  0  0  0  0  0  0  0
  187.0970  178.3480  139.7780 N   0  0  0  0  0  2  0  0  0  0  0  0
  189.3940  176.7550  138.3260 C   0  0  0  0  0  2  0  0  0  0  0  0
  191.3290  177.4150  139.5720 O   0  0  0  0  0  1  0  0  0  0  0  0
  187.9030  176.9940  138.0900 C   0  0  0  0  0  2  0  0  0  0  0  0
  189.9420  176.7670  141.7980 C   0  0  0  0  0  3  0  0  0  0  0  0
  189.2490  177.4130  140.7110 N   0  0  0  0  0  0  0  0  0  0  0  0
  189.9540  177.6340  139.4430 C   0  0  2  0  0  3  0  0  0  0  0  0
  186.2180  177.8020  144.7570 C   0  0  0  0  0  0  0  0  0  0  0  0
  185.4730  178.3080  143.7640 C   0  0  0  0  0  3  0  0  0  0  0  0
  188.0680  177.2500  143.2430 C   0  0  0  0  0  0  0  0  0  0  0  0
  185.8910  178.2870  142.3180 C   0  0  0  0  0  2  0  0  0  0  0  0
  187.3180  177.8400  142.1130 C   0  0  0  0  0  0  0  0  0  0  0  0
  186.4000  178.7210  137.6220 C   0  0  0  0  0  2  0  0  0  0  0  0
  183.3340  179.1900  139.7910 C   0  0  0  0  0  3  0  0  0  0  0  0
  184.5240  177.1890  138.2460 C   0  0  0  0  0  3  0  0  0  0  0  0
  182.7190  177.9360  139.6870 C   0  0  0  0  0  0  0  0  0  0  0  0
  183.3180  176.9230  138.9110 C   0  0  0  0  0  0  0  0  0  0  0  0
  185.1340  178.4410  138.3570 C   0  0  0  0  0  0  0  0  0  0  0  0
  184.5350  179.4430  139.1250 C   0  0  0  0  0  3  0  0  0  0  0  0
  182.6920  175.5970  138.7880 C   0  0  0  0  0  3  0  0  0  0  0  0
  182.9720  174.8270  137.8310 O   0  0  0  0  0  0  0  0  0  0  0  0
  181.4420  177.7030  140.4300 C   0  0  0  0  0  2  0  0  0  0  0  0
  181.0760  178.9340  141.2430 C   0  0  0  0  0  2  0  0  0  0  0  0
  180.6910  178.5390  142.6300 C   0  0  0  0  0  0  0  0  0  0  0  0
  181.6050  178.8450  143.7680 C   0  0  0  0  0  1  0  0  0  0  0  0
  179.6250  177.9840  142.8380 O   0  0  0  0  0  0  0  0  0  0  0  0
  185.7860  177.8040  146.0940 O   0  0  0  0  0  0  0  0  0  0  0  0
  185.7460  179.7270  147.4060 O   0  0  0  0  0  0  0  0  0  0  0  0
  187.4410  178.1520  147.9200 C   0  0  0  0  0  1  0  0  0  0  0  0
  186.2740  178.6170  147.1280 C   0  0  0  0  0  0  0  0  0  0  0  0
  1 16  2  0  0  0  0
  2 12  1  0  0  0  0
  3 14  1  0  0  0  0
  4  5  1  0  0  0  0
  5  1  1  0  0  0  0
  6 11  1  0  0  0  0
  8  6  1  0  0  0  0
  8  4  1  0  0  0  0
  9  3  2  0  0  0  0
 10  1  1  0  0  0  0
 10  9  1  0  0  0  0
 11  7  1  1  0  0  0
 11 10  1  0  0  0  0
 12 31  1  0  0  0  0
 13 12  2  0  0  0  0
 14  2  2  0  0  0  0
 15 13  1  0  0  0  0
 16 15  1  0  0  0  0
 16 14  1  0  0  0  0
 17 22  1  0  0  0  0
 17  4  1  0  0  0  0
 19 22  2  0  0  0  0
 19 21  1  0  0  0  0
 20 18  1  0  0  0  0
 20 26  1  0  0  0  0
 21 20  2  0  0  0  0
 22 23  1  0  0  0  0
 23 18  2  0  0  0  0
 24 21  1  0  0  0  0
 25 24  2  0  0  0  0
 26 27  1  0  0  0  0
 27 28  1  0  0  0  0
 28 30  2  0  0  0  0
 28 29  1  0  0  0  0
 31 34  1  0  0  0  0
 34 32  2  0  0  0  0
 34 33  1  0  0  0  0
M  END
>  <MODEL>
1

>  <REMARK>
 VINA RESULT:      -8.3      0.000      0.000
  Name = 
  8 active torsions:
  status: ('A' for Active; 'I' for Inactive)
    1  A    between atoms: C_7  and  C_11
    2  A    between atoms: C_7  and  C_14
    3  A    between atoms: N_8  and  C_18
    4  A    between atoms: C_14  and  C_16
    5  A    between atoms: C_18  and  C_30
    6  A    between atoms: O_23  and  C_24
    7  A    between atoms: O_23  and  C_25
    8  A    between atoms: C_26  and  C_28
                            x       y       z     vdW  Elec       q    Type
                         _______ _______ _______ _____ _____    ______ ____

>  <TORSDO>
F 8

$$$$
=
 OpenBabel11052415493D

 34 37  0  0  1  0  0  0  0  0999 V2000
  187.0230  177.9360  144.6350 C   0  0  0  0  0  0  0  0  0  0  0  0
  189.8420  177.4280  146.8980 C   0  0  0  0  0  3  0  0  0  0  0  0
  187.6250  178.2510  147.4180 C   0  0  0  0  0  3  0  0  0  0  0  0
  185.4940  178.3200  142.6710 N   0  0  0  0  0  0  0  0  0  0  0  0
  186.7310  177.9400  143.2220 N   0  0  0  0  0  2  0  0  0  0  0  0
  184.3830  179.7020  144.3670 C   0  0  0  0  0  2  0  0  0  0  0  0
  183.7690  178.4990  146.3440 O   0  0  0  0  0  1  0  0  0  0  0  0
  185.2280  179.6890  143.0940 C   0  0  0  0  0  2  0  0  0  0  0  0
  186.3910  178.5140  146.9950 C   0  0  0  0  0  3  0  0  0  0  0  0
  186.0190  178.3220  145.6150 N   0  0  0  0  0  0  0  0  0  0  0  0
  184.6100  178.4610  145.2270 C   0  0  2  0  0  3  0  0  0  0  0  0
  190.8780  176.9190  145.9820 C   0  0  0  0  0  0  0  0  0  0  0  0
  190.6310  176.8330  144.6670 C   0  0  0  0  0  3  0  0  0  0  0  0
  188.6250  177.7610  146.4670 C   0  0  0  0  0  0  0  0  0  0  0  0
  189.3420  177.2840  144.0320 C   0  0  0  0  0  2  0  0  0  0  0  0
  188.2720  177.6410  145.0360 C   0  0  0  0  0  0  0  0  0  0  0  0
  185.6690  178.3530  141.2280 C   0  0  0  0  0  2  0  0  0  0  0  0
  183.1670  179.7660  138.7660 C   0  0  0  0  0  3  0  0  0  0  0  0
  183.1770  178.2080  141.0840 C   0  0  0  0  0  3  0  0  0  0  0  0
  181.9580  179.2840  139.2820 C   0  0  0  0  0  0  0  0  0  0  0  0
  181.9590  178.5010  140.4540 C   0  0  0  0  0  0  0  0  0  0  0  0
  184.3790  178.6950  140.5650 C   0  0  0  0  0  0  0  0  0  0  0  0
  184.3740  179.4690  139.4030 C   0  0  0  0  0  3  0  0  0  0  0  0
  180.7010  177.9840  141.0170 C   0  0  0  0  0  3  0  0  0  0  0  0
  180.1040  178.5870  141.9480 O   0  0  0  0  0  0  0  0  0  0  0  0
  180.6880  179.6400  138.5780 C   0  0  0  0  0  2  0  0  0  0  0  0
  180.8620  180.9390  137.8070 C   0  0  0  0  0  2  0  0  0  0  0  0
  180.1320  182.0460  138.4920 C   0  0  0  0  0  0  0  0  0  0  0  0
  179.9940  183.3700  137.8210 C   0  0  0  0  0  1  0  0  0  0  0  0
  179.6330  181.8660  139.5920 O   0  0  0  0  0  0  0  0  0  0  0  0
  192.1040  176.5230  146.5420 O   0  0  0  0  0  0  0  0  0  0  0  0
  191.6910  174.6320  147.8350 O   0  0  0  0  0  0  0  0  0  0  0  0
  193.2010  176.2110  148.7540 C   0  0  0  0  0  1  0  0  0  0  0  0
  192.2830  175.7350  147.6880 C   0  0  0  0  0  0  0  0  0  0  0  0
  1 16  2  0  0  0  0
  1 10  1  0  0  0  0
  4  8  1  0  0  0  0
  4  5  1  0  0  0  0
  5  1  1  0  0  0  0
  6 11  1  0  0  0  0
  8  6  1  0  0  0  0
  9  3  2  0  0  0  0
 10  9  1  0  0  0  0
 11 10  1  0  0  0  0
 11  7  1  1  0  0  0
 12 31  1  0  0  0  0
 12  2  1  0  0  0  0
 13 12  2  0  0  0  0
 14  2  2  0  0  0  0
 14  3  1  0  0  0  0
 15 13  1  0  0  0  0
 15 16  1  0  0  0  0
 16 14  1  0  0  0  0
 17  4  1  0  0  0  0
 18 20  2  0  0  0  0
 18 23  1  0  0  0  0
 20 21  1  0  0  0  0
 21 24  1  0  0  0  0
 21 19  2  0  0  0  0
 22 19  1  0  0  0  0
 22 17  1  0  0  0  0
 23 22  2  0  0  0  0
 24 25  2  0  0  0  0
 26 20  1  0  0  0  0
 27 28  1  0  0  0  0
 27 26  1  0  0  0  0
 28 30  2  0  0  0  0
 29 28  1  0  0  0  0
 31 34  1  0  0  0  0
 34 32  2  0  0  0  0
 34 33  1  0  0  0  0
M  END
>  <MODEL>
2

>  <REMARK>
 VINA RESULT:      -7.9      3.289      5.279
  Name = 
  8 active torsions:
  status: ('A' for Active; 'I' for Inactive)
    1  A    between atoms: C_7  and  C_11
    2  A    between atoms: C_7  and  C_14
    3  A    between atoms: N_8  and  C_18
    4  A    between atoms: C_14  and  C_16
    5  A    between atoms: C_18  and  C_30
    6  A    between atoms: O_23  and  C_24
    7  A    between atoms: O_23  and  C_25
    8  A    between atoms: C_26  and  C_28
                            x       y       z     vdW  Elec       q    Type
                         _______ _______ _______ _____ _____    ______ ____

>  <TORSDO>
F 8

$$$$
=
 OpenBabel11052415493D

 34 37  0  0  1  0  0  0  0  0999 V2000
  187.8060  177.9170  142.8470 C   0  0  0  0  0  0  0  0  0  0  0  0
  184.8550  178.3290  144.9570 C   0  0  0  0  0  3  0  0  0  0  0  0
  187.1180  177.7870  145.6260 C   0  0  0  0  0  3  0  0  0  0  0  0
  189.4480  177.5210  140.9800 N   0  0  0  0  0  0  0  0  0  0  0  0
  188.1580  177.8190  141.4520 N   0  0  0  0  0  2  0  0  0  0  0  0
  190.6170  176.4150  142.8320 C   0  0  0  0  0  2  0  0  0  0  0  0
  191.0220  177.8440  144.7100 O   0  0  0  0  0  1  0  0  0  0  0  0
  189.8310  176.2290  141.5350 C   0  0  0  0  0  2  0  0  0  0  0  0
  188.3890  177.6170  145.2700 C   0  0  0  0  0  3  0  0  0  0  0  0
  188.7990  177.7240  143.8920 N   0  0  0  0  0  0  0  0  0  0  0  0
  190.2310  177.6970  143.5670 C   0  0  2  0  0  3  0  0  0  0  0  0
  183.8140  178.6460  143.9630 C   0  0  0  0  0  0  0  0  0  0  0  0
  184.1080  178.6410  142.6550 C   0  0  0  0  0  3  0  0  0  0  0  0
  186.1160  178.0860  144.6000 C   0  0  0  0  0  0  0  0  0  0  0  0
  185.4610  178.2720  142.1080 C   0  0  0  0  0  2  0  0  0  0  0  0
  186.5170  178.1150  143.1770 C   0  0  0  0  0  0  0  0  0  0  0  0
  189.3400  177.3440  139.5410 C   0  0  0  0  0  2  0  0  0  0  0  0
  193.0120  176.6910  138.9020 C   0  0  0  0  0  3  0  0  0  0  0  0
  190.5350  175.6400  138.1540 C   0  0  0  0  0  3  0  0  0  0  0  0
  192.9590  175.5840  138.0460 C   0  0  0  0  0  0  0  0  0  0  0  0
  191.7100  175.0530  137.6640 C   0  0  0  0  0  0  0  0  0  0  0  0
  190.5960  176.7470  139.0050 C   0  0  0  0  0  0  0  0  0  0  0  0
  191.8350  177.2680  139.3830 C   0  0  0  0  0  3  0  0  0  0  0  0
  191.6280  173.8910  136.7650 C   0  0  0  0  0  3  0  0  0  0  0  0
  190.7590  173.8280  135.8550 O   0  0  0  0  0  0  0  0  0  0  0  0
  194.2440  175.0080  137.5420 C   0  0  0  0  0  2  0  0  0  0  0  0
  194.8360  174.0630  138.5740 C   0  0  0  0  0  2  0  0  0  0  0  0
  196.1840  174.5430  138.9990 C   0  0  0  0  0  0  0  0  0  0  0  0
  197.3560  174.3540  138.0980 C   0  0  0  0  0  1  0  0  0  0  0  0
  196.3260  175.1060  140.0730 O   0  0  0  0  0  0  0  0  0  0  0  0
  182.5310  178.9620  144.4420 O   0  0  0  0  0  0  0  0  0  0  0  0
  181.1480  179.8850  142.8130 O   0  0  0  0  0  0  0  0  0  0  0  0
  180.3050  177.9730  143.9320 C   0  0  0  0  0  1  0  0  0  0  0  0
  181.3470  179.0030  143.6900 C   0  0  0  0  0  0  0  0  0  0  0  0
  1 16  2  0  0  0  0
  1 10  1  0  0  0  0
  4  5  1  0  0  0  0
  4  8  1  0  0  0  0
  5  1  1  0  0  0  0
  6 11  1  0  0  0  0
  8  6  1  0  0  0  0
  9  3  2  0  0  0  0
 10  9  1  0  0  0  0
 11 10  1  0  0  0  0
 11  7  1  1  0  0  0
 12 31  1  0  0  0  0
 12  2  1  0  0  0  0
 13 12  2  0  0  0  0
 14  2  2  0  0  0  0
 14  3  1  0  0  0  0
 15 13  1  0  0  0  0
 15 16  1  0  0  0  0
 16 14  1  0  0  0  0
 17  4  1  0  0  0  0
 18 23  1  0  0  0  0
 19 22  1  0  0  0  0
 20 18  2  0  0  0  0
 21 20  1  0  0  0  0
 21 19  2  0  0  0  0
 22 23  2  0  0  0  0
 22 17  1  0  0  0  0
 24 21  1  0  0  0  0
 25 24  2  0  0  0  0
 26 20  1  0  0  0  0
 26 27  1  0  0  0  0
 27 28  1  0  0  0  0
 28 30  2  0  0  0  0
 29 28  1  0  0  0  0
 32 34  2  0  0  0  0
 34 33  1  0  0  0  0
 34 31  1  0  0  0  0
M  END
>  <MODEL>
3

>  <REMARK>
 VINA RESULT:      -7.8      3.304      8.001
  Name = 
  8 active torsions:
  status: ('A' for Active; 'I' for Inactive)
    1  A    between atoms: C_7  and  C_11
    2  A    between atoms: C_7  and  C_14
    3  A    between atoms: N_8  and  C_18
    4  A    between atoms: C_14  and  C_16
    5  A    between atoms: C_18  and  C_30
    6  A    between atoms: O_23  and  C_24
    7  A    between atoms: O_23  and  C_25
    8  A    between atoms: C_26  and  C_28
                            x       y       z     vdW  Elec       q    Type
                         _______ _______ _______ _____ _____    ______ ____

>  <TORSDO>
F 8

$$$$
=
 OpenBabel11052415493D

 34 37  0  0  1  0  0  0  0  0999 V2000
  185.5730  177.8620  137.9360 C   0  0  0  0  0  0  0  0  0  0  0  0
  181.9670  178.3780  138.1780 C   0  0  0  0  0  3  0  0  0  0  0  0
  183.2300  177.4280  136.3440 C   0  0  0  0  0  3  0  0  0  0  0  0
  188.0790  177.9280  138.1660 N   0  0  0  0  0  0  0  0  0  0  0  0
  186.7850  178.2050  138.6390 N   0  0  0  0  0  2  0  0  0  0  0  0
  187.8710  177.6100  135.7420 C   0  0  0  0  0  2  0  0  0  0  0  0
  186.6200  175.6640  135.1260 O   0  0  0  0  0  1  0  0  0  0  0  0
  188.2220  178.5790  136.8700 C   0  0  0  0  0  2  0  0  0  0  0  0
  184.4080  177.0220  135.8770 C   0  0  0  0  0  3  0  0  0  0  0  0
  185.6110  177.1670  136.6590 N   0  0  0  0  0  0  0  0  0  0  0  0
  186.8560  176.5550  136.1770 C   0  0  2  0  0  3  0  0  0  0  0  0
  181.8360  178.9810  139.5160 C   0  0  0  0  0  0  0  0  0  0  0  0
  182.9310  179.2530  140.2420 C   0  0  0  0  0  3  0  0  0  0  0  0
  183.1530  178.0360  137.6740 C   0  0  2  0  0  3  0  0  0  0  0  0
  184.3340  179.0250  139.7470 C   0  0  0  0  0  3  0  0  0  0  0  0
  184.3940  178.2620  138.4460 C   0  0  0  0  0  0  0  0  0  0  0  0
  189.0080  178.5860  139.0710 C   0  0  0  0  0  2  0  0  0  0  0  0
  187.4560  178.1250  142.4910 C   0  0  0  0  0  3  0  0  0  0  0  0
  189.6410  177.1720  141.0340 C   0  0  0  0  0  3  0  0  0  0  0  0
  188.3160  177.1820  143.0680 C   0  0  0  0  0  0  0  0  0  0  0  0
  189.4220  176.7020  142.3370 C   0  0  0  0  0  0  0  0  0  0  0  0
  188.7800  178.1150  140.4660 C   0  0  0  0  0  0  0  0  0  0  0  0
  187.6850  178.5870  141.1940 C   0  0  0  0  0  3  0  0  0  0  0  0
  190.3410  175.7130  142.9220 C   0  0  0  0  0  3  0  0  0  0  0  0
  191.4170  176.0660  143.4740 O   0  0  0  0  0  0  0  0  0  0  0  0
  188.0430  176.7280  144.4660 C   0  0  0  0  0  2  0  0  0  0  0  0
  188.2740  177.8690  145.4430 C   0  0  0  0  0  2  0  0  0  0  0  0
  189.0530  177.3880  146.6220 C   0  0  0  0  0  0  0  0  0  0  0  0
  188.5090  177.5750  147.9970 C   0  0  0  0  0  1  0  0  0  0  0  0
  190.1260  176.8260  146.4630 O   0  0  0  0  0  0  0  0  0  0  0  0
  180.5390  179.2380  139.9910 O   0  0  0  0  0  0  0  0  0  0  0  0
  180.0250  180.6340  141.7810 O   0  0  0  0  0  0  0  0  0  0  0  0
  179.6360  181.5270  139.6200 C   0  0  0  0  0  1  0  0  0  0  0  0
  180.0740  180.4440  140.5360 C   0  0  0  0  0  0  0  0  0  0  0  0
  1 16  2  0  0  0  0
  1  5  1  0  0  0  0
  2 12  2  0  0  0  0
  4  5  1  0  0  0  0
  4 17  1  0  0  0  0
  6 11  1  0  0  0  0
  6  8  1  0  0  0  0
  8  4  1  0  0  0  0
  9  3  2  0  0  0  0
  9 10  1  0  0  0  0
 10  1  1  0  0  0  0
 11  7  1  6  0  0  0
 11 10  1  0  0  0  0
 12 31  1  0  0  0  0
 12 13  1  0  0  0  0
 14  3  1  1  0  0  0
 14  2  1  0  0  0  0
 14 16  1  0  0  0  0
 15 13  2  0  0  0  0
 16 15  1  0  0  0  0
 17 22  1  0  0  0  0
 18 20  1  0  0  0  0
 19 21  1  0  0  0  0
 20 26  1  0  0  0  0
 21 24  1  0  0  0  0
 21 20  2  0  0  0  0
 22 19  2  0  0  0  0
 22 23  1  0  0  0  0
 23 18  2  0  0  0  0
 24 25  2  0  0  0  0
 26 27  1  0  0  0  0
 27 28  1  0  0  0  0
 28 29  1  0  0  0  0
 30 28  2  0  0  0  0
 31 34  1  0  0  0  0
 33 34  1  0  0  0  0
 34 32  2  0  0  0  0
M  END
>  <MODEL>
4

>  <REMARK>
 VINA RESULT:      -7.7      2.327      6.956
  Name = 
  8 active torsions:
  status: ('A' for Active; 'I' for Inactive)
    1  A    between atoms: C_7  and  C_11
    2  A    between atoms: C_7  and  C_14
    3  A    between atoms: N_8  and  C_18
    4  A    between atoms: C_14  and  C_16
    5  A    between atoms: C_18  and  C_30
    6  A    between atoms: O_23  and  C_24
    7  A    between atoms: O_23  and  C_25
    8  A    between atoms: C_26  and  C_28
                            x       y       z     vdW  Elec       q    Type
                         _______ _______ _______ _____ _____    ______ ____

>  <TORSDO>
F 8

$$$$
=
 OpenBabel11052415493D

 34 37  0  0  1  0  0  0  0  0999 V2000
  186.9370  177.9340  142.9790 C   0  0  0  0  0  0  0  0  0  0  0  0
  190.3590  177.5010  141.7810 C   0  0  0  0  0  3  0  0  0  0  0  0
  189.5600  177.5490  144.0660 C   0  0  0  0  0  3  0  0  0  0  0  0
  184.5010  178.4880  143.2900 N   0  0  0  0  0  0  0  0  0  0  0  0
  185.6310  178.2850  142.4790 N   0  0  0  0  0  2  0  0  0  0  0  0
  185.3510  178.9770  145.5390 C   0  0  0  0  0  2  0  0  0  0  0  0
  186.4610  177.1270  146.5770 O   0  0  0  0  0  1  0  0  0  0  0  0
  184.8210  179.5560  144.2290 C   0  0  0  0  0  2  0  0  0  0  0  0
  188.5230  177.6060  144.8980 C   0  0  0  0  0  3  0  0  0  0  0  0
  187.1760  177.7460  144.4020 N   0  0  0  0  0  0  0  0  0  0  0  0
  186.0520  177.6350  145.3400 C   0  0  2  0  0  3  0  0  0  0  0  0
  190.1780  177.5650  140.3200 C   0  0  0  0  0  0  0  0  0  0  0  0
  188.9670  177.8150  139.8010 C   0  0  0  0  0  3  0  0  0  0  0  0
  189.3320  177.6310  142.6220 C   0  0  0  0  0  0  0  0  0  0  0  0
  187.7470  178.0950  140.6370 C   0  0  0  0  0  2  0  0  0  0  0  0
  187.9630  177.8570  142.1120 C   0  0  0  0  0  0  0  0  0  0  0  0
  183.4460  178.9910  142.4250 C   0  0  0  0  0  2  0  0  0  0  0  0
  184.7490  178.9620  138.8730 C   0  0  0  0  0  3  0  0  0  0  0  0
  183.1770  177.3670  140.5420 C   0  0  0  0  0  3  0  0  0  0  0  0
  184.2270  177.7560  138.3880 C   0  0  0  0  0  0  0  0  0  0  0  0
  183.4300  176.9500  139.2270 C   0  0  0  0  0  0  0  0  0  0  0  0
  183.6990  178.5730  141.0170 C   0  0  0  0  0  0  0  0  0  0  0  0
  184.4890  179.3670  140.1830 C   0  0  0  0  0  3  0  0  0  0  0  0
  182.8690  175.6800  138.7420 C   0  0  0  0  0  3  0  0  0  0  0  0
  181.7320  175.6310  138.2000 O   0  0  0  0  0  0  0  0  0  0  0  0
  184.5160  177.3690  136.9730 C   0  0  0  0  0  2  0  0  0  0  0  0
  185.8350  176.6180  136.8940 C   0  0  0  0  0  2  0  0  0  0  0  0
  186.7900  177.3470  136.0080 C   0  0  0  0  0  0  0  0  0  0  0  0
  187.3990  178.6270  136.4680 C   0  0  0  0  0  1  0  0  0  0  0  0
  187.0870  176.8890  134.9160 O   0  0  0  0  0  0  0  0  0  0  0  0
  191.3080  177.3420  139.5140 O   0  0  0  0  0  0  0  0  0  0  0  0
  190.7680  175.2520  138.6430 O   0  0  0  0  0  0  0  0  0  0  0  0
  192.5760  176.3780  137.6020 C   0  0  0  0  0  1  0  0  0  0  0  0
  191.4950  176.2810  138.6160 C   0  0  0  0  0  0  0  0  0  0  0  0
  1 10  1  0  0  0  0
  2 14  2  0  0  0  0
  3  9  2  0  0  0  0
  4  8  1  0  0  0  0
  5  1  1  0  0  0  0
  5  4  1  0  0  0  0
  8  6  1  0  0  0  0
 10  9  1  0  0  0  0
 10 11  1  0  0  0  0
 11  6  1  0  0  0  0
 11  7  1  1  0  0  0
 12  2  1  0  0  0  0
 13 12  2  0  0  0  0
 13 15  1  0  0  0  0
 14  3  1  0  0  0  0
 15 16  1  0  0  0  0
 16 14  1  0  0  0  0
 16  1  2  0  0  0  0
 17  4  1  0  0  0  0
 18 23  1  0  0  0  0
 19 22  1  0  0  0  0
 20 18  2  0  0  0  0
 20 21  1  0  0  0  0
 21 19  2  0  0  0  0
 22 17  1  0  0  0  0
 23 22  2  0  0  0  0
 24 21  1  0  0  0  0
 25 24  2  0  0  0  0
 26 20  1  0  0  0  0
 27 26  1  0  0  0  0
 28 29  1  0  0  0  0
 28 27  1  0  0  0  0
 30 28  2  0  0  0  0
 31 12  1  0  0  0  0
 33 34  1  0  0  0  0
 34 32  2  0  0  0  0
 34 31  1  0  0  0  0
M  END
>  <MODEL>
5

>  <REMARK>
 VINA RESULT:      -7.6      2.101      6.113
  Name = 
  8 active torsions:
  status: ('A' for Active; 'I' for Inactive)
    1  A    between atoms: C_7  and  C_11
    2  A    between atoms: C_7  and  C_14
    3  A    between atoms: N_8  and  C_18
    4  A    between atoms: C_14  and  C_16
    5  A    between atoms: C_18  and  C_30
    6  A    between atoms: O_23  and  C_24
    7  A    between atoms: O_23  and  C_25
    8  A    between atoms: C_26  and  C_28
                            x       y       z     vdW  Elec       q    Type
                         _______ _______ _______ _____ _____    ______ ____

>  <TORSDO>
F 8

$$$$
=
 OpenBabel11052415493D

 34 37  0  0  1  0  0  0  0  0999 V2000
  189.0830  177.8350  140.8080 C   0  0  0  0  0  0  0  0  0  0  0  0
  187.7920  177.0200  144.1240 C   0  0  0  0  0  3  0  0  0  0  0  0
  189.9220  176.4090  143.1470 C   0  0  0  0  0  3  0  0  0  0  0  0
  189.4110  178.4550  138.3900 N   0  0  0  0  0  0  0  0  0  0  0  0
  188.6360  178.4070  139.5610 N   0  0  0  0  0  2  0  0  0  0  0  0
  191.1330  176.7250  138.6350 C   0  0  0  0  0  2  0  0  0  0  0  0
  192.7160  177.1750  140.3740 O   0  0  0  0  0  1  0  0  0  0  0  0
  189.7710  177.0860  138.0450 C   0  0  0  0  0  2  0  0  0  0  0  0
  190.7660  176.5170  142.1240 C   0  0  0  0  0  3  0  0  0  0  0  0
  190.4150  177.2680  140.9440 N   0  0  0  0  0  0  0  0  0  0  0  0
  191.4360  177.5010  139.9150 C   0  0  2  0  0  3  0  0  0  0  0  0
  186.4710  177.6710  144.1030 C   0  0  0  0  0  0  0  0  0  0  0  0
  186.0380  178.2810  142.9900 C   0  0  0  0  0  3  0  0  0  0  0  0
  188.6130  177.0620  143.0740 C   0  0  0  0  0  0  0  0  0  0  0  0
  186.8130  178.3040  141.7000 C   0  0  0  0  0  2  0  0  0  0  0  0
  188.2160  177.7630  141.8340 C   0  0  0  0  0  0  0  0  0  0  0  0
  188.5430  178.9400  137.3300 C   0  0  0  0  0  2  0  0  0  0  0  0
  186.3810  176.0070  136.3100 C   0  0  0  0  0  3  0  0  0  0  0  0
  186.1660  178.3420  137.8270 C   0  0  0  0  0  3  0  0  0  0  0  0
  185.1730  176.3070  136.9520 C   0  0  0  0  0  0  0  0  0  0  0  0
  185.0600  177.4860  137.7160 C   0  0  0  0  0  0  0  0  0  0  0  0
  187.3660  178.0380  137.1800 C   0  0  0  0  0  0  0  0  0  0  0  0
  187.4750  176.8660  136.4260 C   0  0  0  0  0  3  0  0  0  0  0  0
  183.8020  177.8240  138.4000 C   0  0  0  0  0  3  0  0  0  0  0  0
  183.5970  177.4900  139.5970 O   0  0  0  0  0  0  0  0  0  0  0  0
  184.0230  175.3660  136.7860 C   0  0  0  0  0  2  0  0  0  0  0  0
  183.9640  174.3980  137.9570 C   0  0  0  0  0  2  0  0  0  0  0  0
  184.6720  173.1300  137.6130 C   0  0  0  0  0  0  0  0  0  0  0  0
  183.9730  172.0850  136.8120 C   0  0  0  0  0  1  0  0  0  0  0  0
  185.8260  172.9550  137.9680 O   0  0  0  0  0  0  0  0  0  0  0  0
  185.7080  177.6360  145.2830 O   0  0  0  0  0  0  0  0  0  0  0  0
  185.3040  179.3530  146.8020 O   0  0  0  0  0  0  0  0  0  0  0  0
  183.6330  179.0030  145.1580 C   0  0  0  0  0  1  0  0  0  0  0  0
  184.9300  178.6800  145.8050 C   0  0  0  0  0  0  0  0  0  0  0  0
  1 10  1  0  0  0  0
  1 16  2  0  0  0  0
  4  5  1  0  0  0  0
  5  1  1  0  0  0  0
  6 11  1  0  0  0  0
  8  4  1  0  0  0  0
  8  6  1  0  0  0  0
  9  3  2  0  0  0  0
 10  9  1  0  0  0  0
 11  7  1  1  0  0  0
 11 10  1  0  0  0  0
 12  2  1  0  0  0  0
 12 31  1  0  0  0  0
 13 12  2  0  0  0  0
 14  3  1  0  0  0  0
 14  2  2  0  0  0  0
 15 16  1  0  0  0  0
 15 13  1  0  0  0  0
 16 14  1  0  0  0  0
 17  4  1  0  0  0  0
 18 23  2  0  0  0  0
 18 20  1  0  0  0  0
 20 21  2  0  0  0  0
 21 19  1  0  0  0  0
 21 24  1  0  0  0  0
 22 17  1  0  0  0  0
 22 19  2  0  0  0  0
 23 22  1  0  0  0  0
 24 25  2  0  0  0  0
 26 20  1  0  0  0  0
 26 27  1  0  0  0  0
 28 27  1  0  0  0  0
 28 30  2  0  0  0  0
 29 28  1  0  0  0  0
 31 34  1  0  0  0  0
 33 34  1  0  0  0  0
 34 32  2  0  0  0  0
M  END
>  <MODEL>
6

>  <REMARK>
 VINA RESULT:      -7.6      2.013      3.772
  Name = 
  8 active torsions:
  status: ('A' for Active; 'I' for Inactive)
    1  A    between atoms: C_7  and  C_11
    2  A    between atoms: C_7  and  C_14
    3  A    between atoms: N_8  and  C_18
    4  A    between atoms: C_14  and  C_16
    5  A    between atoms: C_18  and  C_30
    6  A    between atoms: O_23  and  C_24
    7  A    between atoms: O_23  and  C_25
    8  A    between atoms: C_26  and  C_28
                            x       y       z     vdW  Elec       q    Type
                         _______ _______ _______ _____ _____    ______ ____

>  <TORSDO>
F 8

$$$$
=
 OpenBabel11052415493D

 34 37  0  0  1  0  0  0  0  0999 V2000
  188.5110  177.8430  140.8980 C   0  0  0  0  0  0  0  0  0  0  0  0
  187.7230  177.1650  144.3980 C   0  0  0  0  0  3  0  0  0  0  0  0
  189.6820  176.4980  143.1420 C   0  0  0  0  0  3  0  0  0  0  0  0
  188.4790  178.3680  138.4360 N   0  0  0  0  0  0  0  0  0  0  0  0
  187.8860  178.3710  139.7110 N   0  0  0  0  0  2  0  0  0  0  0  0
  190.2120  176.6320  138.4910 C   0  0  0  0  0  2  0  0  0  0  0  0
  192.0370  177.1320  139.9580 O   0  0  0  0  0  1  0  0  0  0  0  0
  188.7790  176.9830  138.0950 C   0  0  0  0  0  2  0  0  0  0  0  0
  190.3650  176.5590  142.0010 C   0  0  0  0  0  3  0  0  0  0  0  0
  189.8470  177.2680  140.8580 N   0  0  0  0  0  0  0  0  0  0  0  0
  190.7040  177.4530  139.6810 C   0  0  2  0  0  3  0  0  0  0  0  0
  186.4160  177.8270  144.5480 C   0  0  0  0  0  0  0  0  0  0  0  0
  185.8250  178.3990  143.4890 C   0  0  0  0  0  3  0  0  0  0  0  0
  188.3800  177.1600  143.2380 C   0  0  0  0  0  0  0  0  0  0  0  0
  186.4000  178.3660  142.0980 C   0  0  0  0  0  2  0  0  0  0  0  0
  187.8060  177.8170  142.0440 C   0  0  0  0  0  0  0  0  0  0  0  0
  187.4650  178.8210  137.4990 C   0  0  0  0  0  2  0  0  0  0  0  0
  184.0130  177.8610  138.7150 C   0  0  0  0  0  3  0  0  0  0  0  0
  185.9960  176.8530  137.0260 C   0  0  0  0  0  3  0  0  0  0  0  0
  183.8000  176.6520  138.0410 C   0  0  0  0  0  0  0  0  0  0  0  0
  184.8010  176.1380  137.1910 C   0  0  0  0  0  0  0  0  0  0  0  0
  186.2020  178.0570  137.7050 C   0  0  0  0  0  0  0  0  0  0  0  0
  185.2070  178.5630  138.5440 C   0  0  0  0  0  3  0  0  0  0  0  0
  184.6020  174.8690  136.4730 C   0  0  0  0  0  3  0  0  0  0  0  0
  184.3920  174.8450  135.2310 O   0  0  0  0  0  0  0  0  0  0  0  0
  182.5130  175.9250  138.2670 C   0  0  0  0  0  2  0  0  0  0  0  0
  182.1180  176.0000  139.7320 C   0  0  0  0  0  2  0  0  0  0  0  0
  180.6980  176.4440  139.8610 C   0  0  0  0  0  0  0  0  0  0  0  0
  180.3790  177.7040  140.5900 C   0  0  0  0  0  1  0  0  0  0  0  0
  179.8010  175.7890  139.3550 O   0  0  0  0  0  0  0  0  0  0  0  0
  185.8360  177.8440  145.8290 O   0  0  0  0  0  0  0  0  0  0  0  0
  185.6840  179.7210  147.1960 O   0  0  0  0  0  0  0  0  0  0  0  0
  187.3610  178.1490  147.7710 C   0  0  0  0  0  1  0  0  0  0  0  0
  186.2440  178.6270  146.9180 C   0  0  0  0  0  0  0  0  0  0  0  0
  1 16  2  0  0  0  0
  2 12  1  0  0  0  0
  3 14  1  0  0  0  0
  4  5  1  0  0  0  0
  5  1  1  0  0  0  0
  6 11  1  0  0  0  0
  8  4  1  0  0  0  0
  8  6  1  0  0  0  0
  9  3  2  0  0  0  0
 10  1  1  0  0  0  0
 10  9  1  0  0  0  0
 11  7  1  1  0  0  0
 11 10  1  0  0  0  0
 12 31  1  0  0  0  0
 13 12  2  0  0  0  0
 14  2  2  0  0  0  0
 15 13  1  0  0  0  0
 16 15  1  0  0  0  0
 16 14  1  0  0  0  0
 17 22  1  0  0  0  0
 17  4  1  0  0  0  0
 19 21  2  0  0  0  0
 19 22  1  0  0  0  0
 20 26  1  0  0  0  0
 20 18  2  0  0  0  0
 21 20  1  0  0  0  0
 22 23  2  0  0  0  0
 23 18  1  0  0  0  0
 24 21  1  0  0  0  0
 25 24  2  0  0  0  0
 26 27  1  0  0  0  0
 27 28  1  0  0  0  0
 28 29  1  0  0  0  0
 30 28  2  0  0  0  0
 31 34  1  0  0  0  0
 34 32  2  0  0  0  0
 34 33  1  0  0  0  0
M  END
>  <MODEL>
7

>  <REMARK>
 VINA RESULT:      -7.6      1.374      1.806
  Name = 
  8 active torsions:
  status: ('A' for Active; 'I' for Inactive)
    1  A    between atoms: C_7  and  C_11
    2  A    between atoms: C_7  and  C_14
    3  A    between atoms: N_8  and  C_18
    4  A    between atoms: C_14  and  C_16
    5  A    between atoms: C_18  and  C_30
    6  A    between atoms: O_23  and  C_24
    7  A    between atoms: O_23  and  C_25
    8  A    between atoms: C_26  and  C_28
                            x       y       z     vdW  Elec       q    Type
                         _______ _______ _______ _____ _____    ______ ____

>  <TORSDO>
F 8

$$$$
=
 OpenBabel11052415493D

 34 37  0  0  1  0  0  0  0  0999 V2000
  188.2710  177.7890  140.8630 C   0  0  0  0  0  0  0  0  0  0  0  0
  187.8210  177.0240  144.4040 C   0  0  0  0  0  3  0  0  0  0  0  0
  189.6820  176.4490  142.9660 C   0  0  0  0  0  3  0  0  0  0  0  0
  188.0030  178.3550  138.4240 N   0  0  0  0  0  0  0  0  0  0  0  0
  187.5250  178.3150  139.7460 N   0  0  0  0  0  2  0  0  0  0  0  0
  189.7910  176.6800  138.2900 C   0  0  0  0  0  2  0  0  0  0  0  0
  191.7210  177.2200  139.6000 O   0  0  0  0  0  1  0  0  0  0  0  0
  188.3170  176.9880  138.0300 C   0  0  0  0  0  2  0  0  0  0  0  0
  190.2580  176.5530  141.7710 C   0  0  0  0  0  3  0  0  0  0  0  0
  189.6160  177.2630  140.6920 N   0  0  0  0  0  0  0  0  0  0  0  0
  190.3590  177.4980  139.4480 C   0  0  2  0  0  3  0  0  0  0  0  0
  186.5110  177.6370  144.6820 C   0  0  0  0  0  0  0  0  0  0  0  0
  185.8090  178.2060  143.6910 C   0  0  0  0  0  3  0  0  0  0  0  0
  188.3710  177.0630  143.1900 C   0  0  0  0  0  0  0  0  0  0  0  0
  186.2590  178.2180  142.2540 C   0  0  0  0  0  2  0  0  0  0  0  0
  187.6720  177.7200  142.0650 C   0  0  0  0  0  0  0  0  0  0  0  0
  186.8940  178.7880  137.5890 C   0  0  0  0  0  2  0  0  0  0  0  0
  184.0200  176.3570  137.9700 C   0  0  0  0  0  3  0  0  0  0  0  0
  184.8890  178.7660  139.0830 C   0  0  0  0  0  3  0  0  0  0  0  0
  183.2740  176.9570  138.9920 C   0  0  0  0  0  0  0  0  0  0  0  0
  183.7080  178.1750  139.5540 C   0  0  0  0  0  0  0  0  0  0  0  0
  185.6260  178.1640  138.0610 C   0  0  0  0  0  0  0  0  0  0  0  0
  185.1930  176.9560  137.5090 C   0  0  0  0  0  3  0  0  0  0  0  0
  182.9410  178.8260  140.6280 C   0  0  0  0  0  3  0  0  0  0  0  0
  183.0710  178.4750  141.8310 O   0  0  0  0  0  0  0  0  0  0  0  0
  182.0140  176.2890  139.4440 C   0  0  0  0  0  2  0  0  0  0  0  0
  180.9920  176.2810  138.3190 C   0  0  0  0  0  2  0  0  0  0  0  0
  180.3630  174.9330  138.2050 C   0  0  0  0  0  0  0  0  0  0  0  0
  178.9440  174.7400  138.6220 C   0  0  0  0  0  1  0  0  0  0  0  0
  180.9980  173.9930  137.7560 O   0  0  0  0  0  0  0  0  0  0  0  0
  186.0470  177.6120  146.0090 O   0  0  0  0  0  0  0  0  0  0  0  0
  185.6850  179.5670  147.2200 O   0  0  0  0  0  0  0  0  0  0  0  0
  187.5440  178.2560  147.8900 C   0  0  0  0  0  1  0  0  0  0  0  0
  186.3690  178.5270  147.0220 C   0  0  0  0  0  0  0  0  0  0  0  0
  1 16  2  0  0  0  0
  2 12  1  0  0  0  0
  3 14  1  0  0  0  0
  4  5  1  0  0  0  0
  5  1  1  0  0  0  0
  6 11  1  0  0  0  0
  8  6  1  0  0  0  0
  8  4  1  0  0  0  0
  9  3  2  0  0  0  0
 10  1  1  0  0  0  0
 10  9  1  0  0  0  0
 11  7  1  1  0  0  0
 11 10  1  0  0  0  0
 12 31  1  0  0  0  0
 13 12  2  0  0  0  0
 14  2  2  0  0  0  0
 15 13  1  0  0  0  0
 16 15  1  0  0  0  0
 16 14  1  0  0  0  0
 17 22  1  0  0  0  0
 17  4  1  0  0  0  0
 18 20  1  0  0  0  0
 19 21  1  0  0  0  0
 20 26  1  0  0  0  0
 20 21  2  0  0  0  0
 21 24  1  0  0  0  0
 22 19  2  0  0  0  0
 23 18  2  0  0  0  0
 23 22  1  0  0  0  0
 24 25  2  0  0  0  0
 27 26  1  0  0  0  0
 28 27  1  0  0  0  0
 28 29  1  0  0  0  0
 30 28  2  0  0  0  0
 31 34  1  0  0  0  0
 34 32  2  0  0  0  0
 34 33  1  0  0  0  0
M  END
>  <MODEL>
8

>  <REMARK>
 VINA RESULT:      -7.5      1.262      2.546
  Name = 
  8 active torsions:
  status: ('A' for Active; 'I' for Inactive)
    1  A    between atoms: C_7  and  C_11
    2  A    between atoms: C_7  and  C_14
    3  A    between atoms: N_8  and  C_18
    4  A    between atoms: C_14  and  C_16
    5  A    between atoms: C_18  and  C_30
    6  A    between atoms: O_23  and  C_24
    7  A    between atoms: O_23  and  C_25
    8  A    between atoms: C_26  and  C_28
                            x       y       z     vdW  Elec       q    Type
                         _______ _______ _______ _____ _____    ______ ____

>  <TORSDO>
F 8

$$$$
=
 OpenBabel11052415493D

 34 37  0  0  1  0  0  0  0  0999 V2000
  188.6440  176.0910  137.6510 C   0  0  0  0  0  0  0  0  0  0  0  0
  185.7350  176.2140  135.4480 C   0  0  0  0  0  3  0  0  0  0  0  0
  187.7950  174.9770  135.1510 C   0  0  0  0  0  3  0  0  0  0  0  0
  190.4480  176.5160  139.3550 N   0  0  0  0  0  0  0  0  0  0  0  0
  189.1680  176.7500  138.8220 N   0  0  0  0  0  2  0  0  0  0  0  0
  191.7830  175.5530  137.5370 C   0  0  0  0  0  2  0  0  0  0  0  0
  191.0560  173.3770  136.8510 O   0  0  0  0  0  1  0  0  0  0  0  0
  191.4200  176.8180  138.3120 C   0  0  0  0  0  2  0  0  0  0  0  0
  188.9710  174.6080  135.6520 C   0  0  0  0  0  3  0  0  0  0  0  0
  189.4240  175.0960  136.9310 N   0  0  0  0  0  0  0  0  0  0  0  0
  190.6460  174.5340  137.5210 C   0  0  2  0  0  3  0  0  0  0  0  0
  184.8390  177.1260  136.1800 C   0  0  0  0  0  0  0  0  0  0  0  0
  185.2520  177.7090  137.3160 C   0  0  0  0  0  3  0  0  0  0  0  0
  186.9450  175.8970  135.9100 C   0  0  1  0  0  3  0  0  0  0  0  0
  186.6330  177.5290  137.8870 C   0  0  0  0  0  3  0  0  0  0  0  0
  187.4400  176.4660  137.1820 C   0  0  0  0  0  0  0  0  0  0  0  0
  190.6490  177.4950  140.4110 C   0  0  0  0  0  2  0  0  0  0  0  0
  188.5230  176.5890  143.4080 C   0  0  0  0  0  3  0  0  0  0  0  0
  188.3980  178.2690  141.1810 C   0  0  0  0  0  3  0  0  0  0  0  0
  187.4020  177.4060  143.2190 C   0  0  0  0  0  0  0  0  0  0  0  0
  187.3350  178.2530  142.0940 C   0  0  0  0  0  0  0  0  0  0  0  0
  189.5120  177.4480  141.3740 C   0  0  0  0  0  0  0  0  0  0  0  0
  189.5760  176.6120  142.4920 C   0  0  0  0  0  3  0  0  0  0  0  0
  186.1670  179.1210  141.8720 C   0  0  0  0  0  3  0  0  0  0  0  0
  185.7300  179.3470  140.7120 O   0  0  0  0  0  0  0  0  0  0  0  0
  186.2910  177.3370  144.2170 C   0  0  0  0  0  2  0  0  0  0  0  0
  186.6220  178.1890  145.4310 C   0  0  0  0  0  2  0  0  0  0  0  0
  185.3700  178.7330  146.0350 C   0  0  0  0  0  0  0  0  0  0  0  0
  184.1870  179.0040  145.1700 C   0  0  0  0  0  1  0  0  0  0  0  0
  185.3060  178.9400  147.2360 O   0  0  0  0  0  0  0  0  0  0  0  0
  183.5550  177.3400  135.6530 O   0  0  0  0  0  0  0  0  0  0  0  0
  181.7880  178.5660  136.5450 O   0  0  0  0  0  0  0  0  0  0  0  0
  181.7560  176.2340  136.9700 C   0  0  0  0  0  1  0  0  0  0  0  0
  182.3620  177.4560  136.3820 C   0  0  0  0  0  0  0  0  0  0  0  0
  1  5  1  0  0  0  0
  2 14  1  0  0  0  0
  2 12  2  0  0  0  0
  3  9  2  0  0  0  0
  4 17  1  0  0  0  0
  5  4  1  0  0  0  0
  6  8  1  0  0  0  0
  8  4  1  0  0  0  0
  9 10  1  0  0  0  0
 10 11  1  0  0  0  0
 10  1  1  0  0  0  0
 11  7  1  6  0  0  0
 11  6  1  0  0  0  0
 12 13  1  0  0  0  0
 13 15  2  0  0  0  0
 14  3  1  6  0  0  0
 14 16  1  0  0  0  0
 16  1  2  0  0  0  0
 16 15  1  0  0  0  0
 17 22  1  0  0  0  0
 19 22  2  0  0  0  0
 19 21  1  0  0  0  0
 20 18  1  0  0  0  0
 20 26  1  0  0  0  0
 21 20  2  0  0  0  0
 22 23  1  0  0  0  0
 23 18  2  0  0  0  0
 24 21  1  0  0  0  0
 25 24  2  0  0  0  0
 26 27  1  0  0  0  0
 27 28  1  0  0  0  0
 28 30  2  0  0  0  0
 29 28  1  0  0  0  0
 31 12  1  0  0  0  0
 31 34  1  0  0  0  0
 34 32  2  0  0  0  0
 34 33  1  0  0  0  0
M  END
>  <MODEL>
9

>  <REMARK>
 VINA RESULT:      -7.5      2.616      6.763
  Name = 
  8 active torsions:
  status: ('A' for Active; 'I' for Inactive)
    1  A    between atoms: C_7  and  C_11
    2  A    between atoms: C_7  and  C_14
    3  A    between atoms: N_8  and  C_18
    4  A    between atoms: C_14  and  C_16
    5  A    between atoms: C_18  and  C_30
    6  A    between atoms: O_23  and  C_24
    7  A    between atoms: O_23  and  C_25
    8  A    between atoms: C_26  and  C_28
                            x       y       z     vdW  Elec       q    Type
                         _______ _______ _______ _____ _____    ______ ____

>  <TORSDO>
F 8

$$$$
