=
 OpenBabel11052413483D

 27 31  0  0  1  0  0  0  0  0999 V2000
  187.5540  178.6030  141.8810 N   0  0  0  0  0  2  0  0  0  0  0  0
  187.7920  177.3550  144.0490 C   0  0  1  0  0  3  0  0  0  0  0  0
  189.5690  176.5410  142.5410 N   0  0  0  0  0  2  0  0  0  0  0  0
  190.3510  176.8280  147.3340 C   0  0  0  0  0  3  0  0  0  0  0  0
  192.3570  175.8980  148.2960 O   0  0  0  0  0  1  0  0  0  0  0  0
  187.5800  178.2600  145.2650 C   0  0  0  0  0  2  0  0  0  0  0  0
  191.3670  176.3440  144.7700 C   0  0  0  0  0  3  0  0  0  0  0  0
  190.1930  177.1180  138.9230 C   0  0  0  0  0  0  0  0  0  0  0  0
  192.1190  176.0040  145.8980 C   0  0  0  0  0  3  0  0  0  0  0  0
  191.0070  176.6050  137.9220 O   0  0  0  0  0  1  0  0  0  0  0  0
  190.0920  176.9080  144.9180 C   0  0  0  0  0  0  0  0  0  0  0  0
  186.9120  177.7010  142.8320 C   0  0  1  0  0  3  0  0  0  0  0  0
  191.6100  176.2410  147.1780 C   0  0  0  0  0  0  0  0  0  0  0  0
  189.5940  177.1740  146.2090 C   0  0  0  0  0  0  0  0  0  0  0  0
  188.5220  178.1360  140.9330 C   0  0  0  0  0  0  0  0  0  0  0  0
  189.2880  177.3470  143.7210 C   0  0  2  0  0  3  0  0  0  0  0  0
  190.2160  176.5530  140.2000 C   0  0  0  0  0  3  0  0  0  0  0  0
  188.3330  177.7620  146.3740 O   0  0  0  0  0  0  0  0  0  0  0  0
  189.3630  178.2070  138.6570 C   0  0  0  0  0  3  0  0  0  0  0  0
  188.5290  178.7110  139.6580 C   0  0  0  0  0  3  0  0  0  0  0  0
  189.4020  177.0610  141.2170 C   0  0  0  0  0  0  0  0  0  0  0  0
  182.8890  178.9120  143.7570 C   0  0  0  0  0  3  0  0  0  0  0  0
  185.5170  178.1410  143.1690 C   0  0  0  0  0  0  0  0  0  0  0  0
  184.5720  178.2560  142.1440 C   0  0  0  0  0  3  0  0  0  0  0  0
  183.2610  178.6430  142.4370 C   0  0  0  0  0  3  0  0  0  0  0  0
  183.8280  178.7920  144.7860 C   0  0  0  0  0  3  0  0  0  0  0  0
  185.1390  178.4050  144.4940 C   0  0  0  0  0  3  0  0  0  0  0  0
  1 12  1  0  0  0  0
  2  6  1  1  0  0  0
  6 18  1  0  0  0  0
  7 11  2  0  0  0  0
  7  9  1  0  0  0  0
  8 17  1  0  0  0  0
  9 13  2  0  0  0  0
 10  8  1  0  0  0  0
 11 14  1  0  0  0  0
 12 23  1  1  0  0  0
 12  2  1  0  0  0  0
 13  4  1  0  0  0  0
 13  5  1  0  0  0  0
 14 18  1  0  0  0  0
 14  4  2  0  0  0  0
 15 21  1  0  0  0  0
 15  1  1  0  0  0  0
 16  3  1  6  0  0  0
 16  2  1  0  0  0  0
 16 11  1  0  0  0  0
 17 21  2  0  0  0  0
 19  8  2  0  0  0  0
 19 20  1  0  0  0  0
 20 15  2  0  0  0  0
 21  3  1  0  0  0  0
 22 26  1  0  0  0  0
 23 27  1  0  0  0  0
 24 25  1  0  0  0  0
 24 23  2  0  0  0  0
 25 22  2  0  0  0  0
 27 26  2  0  0  0  0
M  END
>  <MODEL>
1

>  <REMARK>
 VINA RESULT:     -11.2      0.000      0.000
  Name = 
  1 active torsions:
  status: ('A' for Active; 'I' for Inactive)
    1  A    between atoms: C_9  and  C_15
                            x       y       z     vdW  Elec       q    Type
                         _______ _______ _______ _____ _____    ______ ____

>  <TORSDO>
F 1

$$$$
=
 OpenBabel11052413483D

 27 31  0  0  1  0  0  0  0  0999 V2000
  189.3220  176.7410  142.8670 N   0  0  0  0  0  2  0  0  0  0  0  0
  187.5610  178.0580  144.0840 C   0  0  1  0  0  3  0  0  0  0  0  0
  187.4070  178.6660  141.6960 N   0  0  0  0  0  2  0  0  0  0  0  0
  183.4070  178.5250  144.4610 C   0  0  0  0  0  3  0  0  0  0  0  0
  181.3050  179.3350  143.6010 O   0  0  0  0  0  1  0  0  0  0  0  0
  186.8490  177.2260  145.1520 C   0  0  0  0  0  2  0  0  0  0  0  0
  184.5490  178.8170  141.9220 C   0  0  0  0  0  3  0  0  0  0  0  0
  189.6060  177.8870  138.8020 C   0  0  0  0  0  0  0  0  0  0  0  0
  183.2060  179.1450  142.1290 C   0  0  0  0  0  3  0  0  0  0  0  0
  189.7570  178.2910  137.4840 O   0  0  0  0  0  1  0  0  0  0  0  0
  185.3350  178.3610  142.9890 C   0  0  0  0  0  0  0  0  0  0  0  0
  189.0560  177.7310  143.9080 C   0  0  1  0  0  3  0  0  0  0  0  0
  182.6370  179.0040  143.3980 C   0  0  0  0  0  0  0  0  0  0  0  0
  184.7500  178.1910  144.2600 C   0  0  0  0  0  0  0  0  0  0  0  0
  189.3290  177.0900  141.4780 C   0  0  0  0  0  0  0  0  0  0  0  0
  186.7660  177.9350  142.7810 C   0  0  2  0  0  3  0  0  0  0  0  0
  188.6530  178.5030  139.6170 C   0  0  0  0  0  3  0  0  0  0  0  0
  185.5160  177.7110  145.3320 O   0  0  0  0  0  0  0  0  0  0  0  0
  190.3960  176.8560  139.3110 C   0  0  0  0  0  3  0  0  0  0  0  0
  190.2590  176.4620  140.6440 C   0  0  0  0  0  3  0  0  0  0  0  0
  188.4920  178.1040  140.9480 C   0  0  0  0  0  0  0  0  0  0  0  0
  191.2050  176.8530  147.5300 C   0  0  0  0  0  3  0  0  0  0  0  0
  189.7860  177.4160  145.1810 C   0  0  0  0  0  0  0  0  0  0  0  0
  191.0320  176.7840  145.1150 C   0  0  0  0  0  3  0  0  0  0  0  0
  191.7400  176.5010  146.2870 C   0  0  0  0  0  3  0  0  0  0  0  0
  189.9630  177.4900  147.6010 C   0  0  0  0  0  3  0  0  0  0  0  0
  189.2550  177.7730  146.4300 C   0  0  0  0  0  3  0  0  0  0  0  0
  1 12  1  0  0  0  0
  2  6  1  1  0  0  0
  6 18  1  0  0  0  0
  7  9  2  0  0  0  0
  7 11  1  0  0  0  0
  8 19  2  0  0  0  0
  8 17  1  0  0  0  0
  9 13  1  0  0  0  0
 10  8  1  0  0  0  0
 11 14  2  0  0  0  0
 12  2  1  0  0  0  0
 12 23  1  1  0  0  0
 13  5  1  0  0  0  0
 13  4  2  0  0  0  0
 14  4  1  0  0  0  0
 14 18  1  0  0  0  0
 15  1  1  0  0  0  0
 16  3  1  6  0  0  0
 16 11  1  0  0  0  0
 16  2  1  0  0  0  0
 17 21  2  0  0  0  0
 19 20  1  0  0  0  0
 20 15  2  0  0  0  0
 21 15  1  0  0  0  0
 21  3  1  0  0  0  0
 22 26  1  0  0  0  0
 23 27  1  0  0  0  0
 24 23  2  0  0  0  0
 24 25  1  0  0  0  0
 25 22  2  0  0  0  0
 27 26  2  0  0  0  0
M  END
>  <MODEL>
2

>  <REMARK>
 VINA RESULT:     -10.7      1.738      5.876
  Name = 
  1 active torsions:
  status: ('A' for Active; 'I' for Inactive)
    1  A    between atoms: C_9  and  C_15
                            x       y       z     vdW  Elec       q    Type
                         _______ _______ _______ _____ _____    ______ ____

>  <TORSDO>
F 1

$$$$
=
 OpenBabel11052413483D

 27 31  0  0  1  0  0  0  0  0999 V2000
  186.7740  178.8350  140.5710 N   0  0  0  0  0  2  0  0  0  0  0  0
  185.9370  178.0020  142.7900 C   0  0  1  0  0  3  0  0  0  0  0  0
  188.2000  177.0690  142.4660 N   0  0  0  0  0  2  0  0  0  0  0  0
  186.6330  178.2350  146.9220 C   0  0  0  0  0  3  0  0  0  0  0  0
  187.9300  177.6330  148.8630 O   0  0  0  0  0  1  0  0  0  0  0  0
  185.1930  179.0850  143.5730 C   0  0  0  0  0  2  0  0  0  0  0  0
  188.7300  177.3900  145.2700 C   0  0  0  0  0  3  0  0  0  0  0  0
  190.4680  177.0560  139.5220 C   0  0  0  0  0  0  0  0  0  0  0  0
  188.8540  177.3060  146.6590 C   0  0  0  0  0  3  0  0  0  0  0  0
  191.6480  176.4370  139.1320 O   0  0  0  0  0  1  0  0  0  0  0  0
  187.5470  177.8780  144.6970 C   0  0  0  0  0  0  0  0  0  0  0  0
  185.7420  178.0670  141.2630 C   0  0  1  0  0  3  0  0  0  0  0  0
  187.8060  177.7230  147.4840 C   0  0  0  0  0  0  0  0  0  0  0  0
  186.5030  178.3260  145.5320 C   0  0  0  0  0  0  0  0  0  0  0  0
  188.0650  178.2820  140.2910 C   0  0  0  0  0  0  0  0  0  0  0  0
  187.4100  178.0450  143.2060 C   0  0  2  0  0  3  0  0  0  0  0  0
  189.8760  176.7230  140.7420 C   0  0  0  0  0  3  0  0  0  0  0  0
  185.3250  178.8420  144.9760 O   0  0  0  0  0  0  0  0  0  0  0  0
  189.8820  178.0200  138.7020 C   0  0  0  0  0  3  0  0  0  0  0  0
  188.6840  178.6280  139.0850 C   0  0  0  0  0  3  0  0  0  0  0  0
  188.6870  177.3390  141.1470 C   0  0  0  0  0  0  0  0  0  0  0  0
  181.8050  179.1780  139.9300 C   0  0  0  0  0  3  0  0  0  0  0  0
  184.3620  178.4580  140.8210 C   0  0  0  0  0  0  0  0  0  0  0  0
  184.2140  179.3780  139.7770 C   0  0  0  0  0  3  0  0  0  0  0  0
  182.9380  179.7400  139.3340 C   0  0  0  0  0  3  0  0  0  0  0  0
  181.9480  178.2530  140.9680 C   0  0  0  0  0  3  0  0  0  0  0  0
  183.2220  177.8910  141.4120 C   0  0  0  0  0  3  0  0  0  0  0  0
  1 12  1  0  0  0  0
  2 16  1  0  0  0  0
  2  6  1  1  0  0  0
  4 13  1  0  0  0  0
  6 18  1  0  0  0  0
  7  9  1  0  0  0  0
  8 17  1  0  0  0  0
  9 13  2  0  0  0  0
 10  8  1  0  0  0  0
 11  7  2  0  0  0  0
 11 14  1  0  0  0  0
 12 23  1  1  0  0  0
 12  2  1  0  0  0  0
 13  5  1  0  0  0  0
 14  4  2  0  0  0  0
 15  1  1  0  0  0  0
 15 21  1  0  0  0  0
 16  3  1  6  0  0  0
 16 11  1  0  0  0  0
 17 21  2  0  0  0  0
 18 14  1  0  0  0  0
 19 20  1  0  0  0  0
 19  8  2  0  0  0  0
 20 15  2  0  0  0  0
 21  3  1  0  0  0  0
 22 26  1  0  0  0  0
 23 27  1  0  0  0  0
 24 23  2  0  0  0  0
 25 24  1  0  0  0  0
 25 22  2  0  0  0  0
 26 27  2  0  0  0  0
M  END
>  <MODEL>
3

>  <REMARK>
 VINA RESULT:     -10.3      1.855      2.806
  Name = 
  1 active torsions:
  status: ('A' for Active; 'I' for Inactive)
    1  A    between atoms: C_9  and  C_15
                            x       y       z     vdW  Elec       q    Type
                         _______ _______ _______ _____ _____    ______ ____

>  <TORSDO>
F 1

$$$$
=
 OpenBabel11052413483D

 27 31  0  0  1  0  0  0  0  0999 V2000
  190.1270  178.0070  142.6730 N   0  0  0  0  0  2  0  0  0  0  0  0
  188.3120  177.5260  141.0020 C   0  0  1  0  0  3  0  0  0  0  0  0
  187.3250  177.2540  143.2490 N   0  0  0  0  0  2  0  0  0  0  0  0
  184.6330  178.9460  139.5680 C   0  0  0  0  0  3  0  0  0  0  0  0
  182.2540  179.2420  139.8370 O   0  0  0  0  0  1  0  0  0  0  0  0
  188.3390  178.4970  139.8200 C   0  0  0  0  0  2  0  0  0  0  0  0
  184.8630  178.3860  142.3010 C   0  0  0  0  0  3  0  0  0  0  0  0
  188.8640  177.2020  146.6320 C   0  0  0  0  0  0  0  0  0  0  0  0
  183.6130  178.6810  141.7490 C   0  0  0  0  0  3  0  0  0  0  0  0
  188.4900  176.8850  147.9300 O   0  0  0  0  0  1  0  0  0  0  0  0
  186.0020  178.3490  141.4860 C   0  0  0  0  0  0  0  0  0  0  0  0
  189.6990  177.1600  141.5630 C   0  0  1  0  0  3  0  0  0  0  0  0
  183.4970  178.9550  140.3840 C   0  0  0  0  0  0  0  0  0  0  0  0
  185.8870  178.6560  140.1150 C   0  0  0  0  0  0  0  0  0  0  0  0
  189.6370  177.8100  144.0050 C   0  0  0  0  0  0  0  0  0  0  0  0
  187.3720  178.1020  142.0650 C   0  0  2  0  0  3  0  0  0  0  0  0
  187.9650  177.0140  145.5800 C   0  0  0  0  0  3  0  0  0  0  0  0
  187.0200  178.6500  139.2910 O   0  0  0  0  0  0  0  0  0  0  0  0
  190.1350  177.7210  146.3790 C   0  0  0  0  0  3  0  0  0  0  0  0
  190.5190  178.0210  145.0700 C   0  0  0  0  0  3  0  0  0  0  0  0
  188.3300  177.3300  144.2680 C   0  0  0  0  0  0  0  0  0  0  0  0
  192.8280  176.6960  138.6470 C   0  0  0  0  0  3  0  0  0  0  0  0
  190.7760  177.0050  140.5290 C   0  0  0  0  0  0  0  0  0  0  0  0
  192.0580  177.4960  140.7990 C   0  0  0  0  0  3  0  0  0  0  0  0
  193.0820  177.3440  139.8590 C   0  0  0  0  0  3  0  0  0  0  0  0
  191.5510  176.1980  138.3750 C   0  0  0  0  0  3  0  0  0  0  0  0
  190.5270  176.3500  139.3130 C   0  0  0  0  0  3  0  0  0  0  0  0
  1 15  1  0  0  0  0
  2  6  1  6  0  0  0
  2 12  1  0  0  0  0
  2 16  1  0  0  0  0
  3 21  1  0  0  0  0
  4 14  2  0  0  0  0
  4 13  1  0  0  0  0
  5 13  1  0  0  0  0
  8 10  1  0  0  0  0
  9  7  1  0  0  0  0
 11  7  2  0  0  0  0
 12 23  1  6  0  0  0
 12  1  1  0  0  0  0
 13  9  2  0  0  0  0
 14 11  1  0  0  0  0
 15 21  2  0  0  0  0
 15 20  1  0  0  0  0
 16 11  1  6  0  0  0
 16  3  1  0  0  0  0
 17  8  2  0  0  0  0
 18  6  1  0  0  0  0
 18 14  1  0  0  0  0
 19  8  1  0  0  0  0
 20 19  2  0  0  0  0
 21 17  1  0  0  0  0
 22 25  1  0  0  0  0
 23 24  1  0  0  0  0
 25 24  2  0  0  0  0
 26 22  2  0  0  0  0
 26 27  1  0  0  0  0
 27 23  2  0  0  0  0
M  END
>  <MODEL>
4

>  <REMARK>
 VINA RESULT:     -10.2      2.481      7.629
  Name = 
  1 active torsions:
  status: ('A' for Active; 'I' for Inactive)
    1  A    between atoms: C_9  and  C_15
                            x       y       z     vdW  Elec       q    Type
                         _______ _______ _______ _____ _____    ______ ____

>  <TORSDO>
F 1

$$$$
=
 OpenBabel11052413483D

 27 31  0  0  1  0  0  0  0  0999 V2000
  188.6070  178.1260  145.4510 N   0  0  0  0  0  2  0  0  0  0  0  0
  189.6860  176.9580  143.5060 C   0  0  1  0  0  3  0  0  0  0  0  0
  187.3220  177.3410  142.9060 N   0  0  0  0  0  2  0  0  0  0  0  0
  190.7800  177.4790  139.4880 C   0  0  0  0  0  3  0  0  0  0  0  0
  190.1800  177.6200  137.1560 O   0  0  0  0  0  1  0  0  0  0  0  0
  191.0920  177.4880  143.2170 C   0  0  0  0  0  2  0  0  0  0  0  0
  188.0980  177.8640  140.1920 C   0  0  0  0  0  3  0  0  0  0  0  0
  184.4290  178.5380  144.9100 C   0  0  0  0  0  0  0  0  0  0  0  0
  188.4730  177.8430  138.8460 C   0  0  0  0  0  3  0  0  0  0  0  0
  183.0510  178.6280  144.7790 O   0  0  0  0  0  1  0  0  0  0  0  0
  189.0590  177.6710  141.1940 C   0  0  0  0  0  0  0  0  0  0  0  0
  189.3070  176.9270  144.9990 C   0  0  1  0  0  3  0  0  0  0  0  0
  189.8110  177.6460  138.4940 C   0  0  0  0  0  0  0  0  0  0  0  0
  190.4120  177.5030  140.8370 C   0  0  0  0  0  0  0  0  0  0  0  0
  187.2120  178.3280  145.1950 C   0  0  0  0  0  0  0  0  0  0  0  0
  188.6950  177.7570  142.6540 C   0  0  2  0  0  3  0  0  0  0  0  0
  185.1890  177.9340  143.9050 C   0  0  0  0  0  3  0  0  0  0  0  0
  191.3900  177.3350  141.8270 O   0  0  0  0  0  0  0  0  0  0  0  0
  185.0590  179.0650  146.0380 C   0  0  0  0  0  3  0  0  0  0  0  0
  186.4440  178.9570  146.1800 C   0  0  0  0  0  3  0  0  0  0  0  0
  186.5790  177.8380  144.0250 C   0  0  0  0  0  0  0  0  0  0  0  0
  192.4660  175.8280  147.7040 C   0  0  0  0  0  3  0  0  0  0  0  0
  190.4250  176.5460  145.9250 C   0  0  0  0  0  0  0  0  0  0  0  0
  190.4730  177.1110  147.2040 C   0  0  0  0  0  3  0  0  0  0  0  0
  191.4940  176.7550  148.0920 C   0  0  0  0  0  3  0  0  0  0  0  0
  192.4180  175.2560  146.4300 C   0  0  0  0  0  3  0  0  0  0  0  0
  191.3990  175.6120  145.5420 C   0  0  0  0  0  3  0  0  0  0  0  0
  2  6  1  1  0  0  0
  2 12  1  0  0  0  0
  3 21  1  0  0  0  0
  4 14  1  0  0  0  0
  5 13  1  0  0  0  0
  7 11  1  0  0  0  0
  8 19  1  0  0  0  0
  9  7  2  0  0  0  0
 10  8  1  0  0  0  0
 12  1  1  0  0  0  0
 12 23  1  1  0  0  0
 13  9  1  0  0  0  0
 13  4  2  0  0  0  0
 14 11  2  0  0  0  0
 14 18  1  0  0  0  0
 15  1  1  0  0  0  0
 15 20  1  0  0  0  0
 16 11  1  6  0  0  0
 16  3  1  0  0  0  0
 16  2  1  0  0  0  0
 17 21  1  0  0  0  0
 17  8  2  0  0  0  0
 18  6  1  0  0  0  0
 19 20  2  0  0  0  0
 21 15  2  0  0  0  0
 22 25  1  0  0  0  0
 23 24  1  0  0  0  0
 24 25  2  0  0  0  0
 26 22  2  0  0  0  0
 27 23  2  0  0  0  0
 27 26  1  0  0  0  0
M  END
>  <MODEL>
5

>  <REMARK>
 VINA RESULT:      -9.6      2.062      7.047
  Name = 
  1 active torsions:
  status: ('A' for Active; 'I' for Inactive)
    1  A    between atoms: C_9  and  C_15
                            x       y       z     vdW  Elec       q    Type
                         _______ _______ _______ _____ _____    ______ ____

>  <TORSDO>
F 1

$$$$
=
 OpenBabel11052413483D

 27 31  0  0  1  0  0  0  0  0999 V2000
  187.9650  178.3000  145.0560 N   0  0  0  0  0  2  0  0  0  0  0  0
  189.1000  177.2200  143.0910 C   0  0  1  0  0  3  0  0  0  0  0  0
  186.7290  177.5400  142.4790 N   0  0  0  0  0  2  0  0  0  0  0  0
  190.2110  177.8830  139.0990 C   0  0  0  0  0  3  0  0  0  0  0  0
  189.6280  178.0660  136.7660 O   0  0  0  0  0  1  0  0  0  0  0  0
  190.4890  177.8040  142.8300 C   0  0  0  0  0  2  0  0  0  0  0  0
  187.5120  178.1600  139.7870 C   0  0  0  0  0  3  0  0  0  0  0  0
  183.7810  178.5870  144.4840 C   0  0  0  0  0  0  0  0  0  0  0  0
  187.8990  178.1870  138.4440 C   0  0  0  0  0  3  0  0  0  0  0  0
  182.4010  178.6340  144.3420 O   0  0  0  0  0  1  0  0  0  0  0  0
  188.4700  177.9720  140.7930 C   0  0  0  0  0  0  0  0  0  0  0  0
  188.7080  177.1370  144.5790 C   0  0  1  0  0  3  0  0  0  0  0  0
  189.2460  178.0440  138.1000 C   0  0  0  0  0  0  0  0  0  0  0  0
  189.8310  177.8590  140.4440 C   0  0  0  0  0  0  0  0  0  0  0  0
  186.5660  178.4620  144.7910 C   0  0  0  0  0  0  0  0  0  0  0  0
  188.0900  178.0080  142.2510 C   0  0  2  0  0  3  0  0  0  0  0  0
  184.5690  178.0350  143.4720 C   0  0  0  0  0  3  0  0  0  0  0  0
  190.8050  177.6980  141.4400 O   0  0  0  0  0  0  0  0  0  0  0  0
  184.3820  179.1040  145.6320 C   0  0  0  0  0  3  0  0  0  0  0  0
  185.7690  179.0390  145.7850 C   0  0  0  0  0  3  0  0  0  0  0  0
  185.9600  177.9820  143.6030 C   0  0  0  0  0  0  0  0  0  0  0  0
  191.9690  176.1110  147.1910 C   0  0  0  0  0  3  0  0  0  0  0  0
  189.8300  176.7700  145.5050 C   0  0  0  0  0  0  0  0  0  0  0  0
  190.9760  176.1610  144.9820 C   0  0  0  0  0  3  0  0  0  0  0  0
  192.0430  175.8300  145.8230 C   0  0  0  0  0  3  0  0  0  0  0  0
  190.8290  176.7250  147.7170 C   0  0  0  0  0  3  0  0  0  0  0  0
  189.7620  177.0560  146.8780 C   0  0  0  0  0  3  0  0  0  0  0  0
  2  6  1  1  0  0  0
  2 12  1  0  0  0  0
  3 21  1  0  0  0  0
  4 14  1  0  0  0  0
  5 13  1  0  0  0  0
  7 11  1  0  0  0  0
  8 19  1  0  0  0  0
  9  7  2  0  0  0  0
 10  8  1  0  0  0  0
 12  1  1  0  0  0  0
 12 23  1  1  0  0  0
 13  9  1  0  0  0  0
 13  4  2  0  0  0  0
 14 11  2  0  0  0  0
 14 18  1  0  0  0  0
 15  1  1  0  0  0  0
 15 20  1  0  0  0  0
 16 11  1  6  0  0  0
 16  3  1  0  0  0  0
 16  2  1  0  0  0  0
 17 21  1  0  0  0  0
 17  8  2  0  0  0  0
 18  6  1  0  0  0  0
 19 20  2  0  0  0  0
 21 15  2  0  0  0  0
 22 26  1  0  0  0  0
 23 27  1  0  0  0  0
 24 23  2  0  0  0  0
 24 25  1  0  0  0  0
 25 22  2  0  0  0  0
 27 26  2  0  0  0  0
M  END
>  <MODEL>
6

>  <REMARK>
 VINA RESULT:      -9.5      2.109      6.999
  Name = 
  1 active torsions:
  status: ('A' for Active; 'I' for Inactive)
    1  A    between atoms: C_9  and  C_15
                            x       y       z     vdW  Elec       q    Type
                         _______ _______ _______ _____ _____    ______ ____

>  <TORSDO>
F 1

$$$$
=
 OpenBabel11052413483D

 27 31  0  0  1  0  0  0  0  0999 V2000
  189.9880  177.9800  142.3210 N   0  0  0  0  0  2  0  0  0  0  0  0
  187.6070  177.5700  141.6280 C   0  0  1  0  0  3  0  0  0  0  0  0
  187.7350  177.1810  144.0630 N   0  0  0  0  0  2  0  0  0  0  0  0
  183.7000  179.0340  142.0760 C   0  0  0  0  0  3  0  0  0  0  0  0
  181.7040  179.3010  143.4020 O   0  0  0  0  0  1  0  0  0  0  0  0
  187.1150  178.5980  140.6080 C   0  0  0  0  0  2  0  0  0  0  0  0
  185.1290  178.3410  144.3820 C   0  0  0  0  0  3  0  0  0  0  0  0
  190.6330  176.9700  146.3810 C   0  0  0  0  0  0  0  0  0  0  0  0
  183.7690  178.6540  144.4670 C   0  0  0  0  0  3  0  0  0  0  0  0
  190.8790  176.5870  147.6920 O   0  0  0  0  0  1  0  0  0  0  0  0
  185.7770  178.3520  143.1390 C   0  0  0  0  0  0  0  0  0  0  0  0
  189.0930  177.1860  141.4850 C   0  0  1  0  0  3  0  0  0  0  0  0
  183.0550  178.9950  143.3160 C   0  0  0  0  0  0  0  0  0  0  0  0
  185.0610  178.7260  141.9840 C   0  0  0  0  0  0  0  0  0  0  0  0
  190.1480  177.7140  143.7200 C   0  0  0  0  0  0  0  0  0  0  0  0
  187.2560  178.0860  143.0270 C   0  0  2  0  0  3  0  0  0  0  0  0
  189.3530  176.8290  145.8410 C   0  0  0  0  0  3  0  0  0  0  0  0
  185.7010  178.7680  140.7380 O   0  0  0  0  0  0  0  0  0  0  0  0
  191.6610  177.5100  145.6070 C   0  0  0  0  0  3  0  0  0  0  0  0
  191.4190  177.8780  144.2820 C   0  0  0  0  0  3  0  0  0  0  0  0
  189.0920  177.2120  144.5210 C   0  0  0  0  0  0  0  0  0  0  0  0
  190.5440  176.8600  137.4480 C   0  0  0  0  0  3  0  0  0  0  0  0
  189.5850  177.0900  140.0700 C   0  0  0  0  0  0  0  0  0  0  0  0
  190.9590  176.9820  139.8310 C   0  0  0  0  0  3  0  0  0  0  0  0
  191.4380  176.8700  138.5220 C   0  0  0  0  0  3  0  0  0  0  0  0
  189.1700  176.9600  137.6820 C   0  0  0  0  0  3  0  0  0  0  0  0
  188.6890  177.0730  138.9890 C   0  0  0  0  0  3  0  0  0  0  0  0
  1 15  1  0  0  0  0
  2  6  1  6  0  0  0
  2 16  1  0  0  0  0
  3 21  1  0  0  0  0
  4 13  1  0  0  0  0
  6 18  1  0  0  0  0
  7  9  1  0  0  0  0
  8 10  1  0  0  0  0
 11  7  2  0  0  0  0
 12 23  1  6  0  0  0
 12  2  1  0  0  0  0
 12  1  1  0  0  0  0
 13  5  1  0  0  0  0
 13  9  2  0  0  0  0
 14  4  2  0  0  0  0
 14 11  1  0  0  0  0
 15 20  2  0  0  0  0
 15 21  1  0  0  0  0
 16 11  1  6  0  0  0
 16  3  1  0  0  0  0
 17  8  1  0  0  0  0
 18 14  1  0  0  0  0
 19  8  2  0  0  0  0
 20 19  1  0  0  0  0
 21 17  2  0  0  0  0
 22 26  2  0  0  0  0
 22 25  1  0  0  0  0
 24 23  1  0  0  0  0
 25 24  2  0  0  0  0
 26 27  1  0  0  0  0
 27 23  2  0  0  0  0
M  END
>  <MODEL>
7

>  <REMARK>
 VINA RESULT:      -9.5      2.193      6.886
  Name = 
  1 active torsions:
  status: ('A' for Active; 'I' for Inactive)
    1  A    between atoms: C_9  and  C_15
                            x       y       z     vdW  Elec       q    Type
                         _______ _______ _______ _____ _____    ______ ____

>  <TORSDO>
F 1

$$$$
=
 OpenBabel11052413483D

 27 31  0  0  1  0  0  0  0  0999 V2000
  185.5550  178.9390  144.0660 N   0  0  0  0  0  2  0  0  0  0  0  0
  187.2290  177.8260  142.5580 C   0  0  1  0  0  3  0  0  0  0  0  0
  185.0770  177.8730  141.3490 N   0  0  0  0  0  2  0  0  0  0  0  0
  189.2720  178.2870  138.9220 C   0  0  0  0  0  3  0  0  0  0  0  0
  189.2920  178.2370  136.5110 O   0  0  0  0  0  1  0  0  0  0  0  0
  188.5930  178.5180  142.5950 C   0  0  0  0  0  2  0  0  0  0  0  0
  186.4740  178.3590  138.8880 C   0  0  0  0  0  3  0  0  0  0  0  0
  181.6460  178.7860  142.4490 C   0  0  0  0  0  0  0  0  0  0  0  0
  187.1880  178.3210  137.6880 C   0  0  0  0  0  3  0  0  0  0  0  0
  180.3490  178.6910  141.9660 O   0  0  0  0  0  1  0  0  0  0  0  0
  187.1540  178.3390  140.1140 C   0  0  0  0  0  0  0  0  0  0  0  0
  186.4770  177.8190  143.9030 C   0  0  1  0  0  3  0  0  0  0  0  0
  188.5850  178.2800  137.7040 C   0  0  0  0  0  0  0  0  0  0  0  0
  188.5630  178.3290  140.1270 C   0  0  0  0  0  0  0  0  0  0  0  0
  184.2620  178.9490  143.4480 C   0  0  0  0  0  0  0  0  0  0  0  0
  186.4130  178.4490  141.4220 C   0  0  2  0  0  3  0  0  0  0  0  0
  182.7040  178.2360  141.7220 C   0  0  0  0  0  3  0  0  0  0  0  0
  189.2600  178.3370  141.3430 O   0  0  0  0  0  0  0  0  0  0  0  0
  181.8950  179.4420  143.6550 C   0  0  0  0  0  3  0  0  0  0  0  0
  183.1980  179.5200  144.1520 C   0  0  0  0  0  3  0  0  0  0  0  0
  184.0160  178.3250  142.1990 C   0  0  0  0  0  0  0  0  0  0  0  0
  188.9230  177.2510  147.3970 C   0  0  0  0  0  3  0  0  0  0  0  0
  187.3490  177.6310  145.1100 C   0  0  0  0  0  0  0  0  0  0  0  0
  186.8520  177.9770  146.3720 C   0  0  0  0  0  3  0  0  0  0  0  0
  187.6380  177.7900  147.5130 C   0  0  0  0  0  3  0  0  0  0  0  0
  189.4210  176.8970  146.1400 C   0  0  0  0  0  3  0  0  0  0  0  0
  188.6360  177.0840  144.9990 C   0  0  0  0  0  3  0  0  0  0  0  0
  2  6  1  1  0  0  0
  2 12  1  0  0  0  0
  3 16  1  0  0  0  0
  3 21  1  0  0  0  0
  4 14  1  0  0  0  0
  5 13  1  0  0  0  0
  7 11  1  0  0  0  0
  8 19  1  0  0  0  0
  9 13  1  0  0  0  0
  9  7  2  0  0  0  0
 10  8  1  0  0  0  0
 11 14  2  0  0  0  0
 12  1  1  0  0  0  0
 12 23  1  1  0  0  0
 13  4  2  0  0  0  0
 14 18  1  0  0  0  0
 15  1  1  0  0  0  0
 15 20  1  0  0  0  0
 16 11  1  6  0  0  0
 16  2  1  0  0  0  0
 17 21  1  0  0  0  0
 17  8  2  0  0  0  0
 18  6  1  0  0  0  0
 19 20  2  0  0  0  0
 21 15  2  0  0  0  0
 22 25  1  0  0  0  0
 23 24  1  0  0  0  0
 24 25  2  0  0  0  0
 26 22  2  0  0  0  0
 27 23  2  0  0  0  0
 27 26  1  0  0  0  0
M  END
>  <MODEL>
8

>  <REMARK>
 VINA RESULT:      -9.5      2.555      6.943
  Name = 
  1 active torsions:
  status: ('A' for Active; 'I' for Inactive)
    1  A    between atoms: C_9  and  C_15
                            x       y       z     vdW  Elec       q    Type
                         _______ _______ _______ _____ _____    ______ ____

>  <TORSDO>
F 1

$$$$
=
 OpenBabel11052413483D

 27 31  0  0  1  0  0  0  0  0999 V2000
  184.8080  177.8250  141.0940 N   0  0  0  0  0  2  0  0  0  0  0  0
  186.7780  178.4130  142.5400 C   0  0  1  0  0  3  0  0  0  0  0  0
  184.7440  179.1020  143.7610 N   0  0  0  0  0  2  0  0  0  0  0  0
  188.6390  177.4820  146.1850 C   0  0  0  0  0  3  0  0  0  0  0  0
  188.7200  177.6250  148.5910 O   0  0  0  0  0  1  0  0  0  0  0  0
  187.8520  177.3240  142.5290 C   0  0  0  0  0  2  0  0  0  0  0  0
  185.9630  178.3020  146.2350 C   0  0  0  0  0  3  0  0  0  0  0  0
  181.1810  179.2780  142.7210 C   0  0  0  0  0  0  0  0  0  0  0  0
  186.6760  178.1630  147.4290 C   0  0  0  0  0  3  0  0  0  0  0  0
  179.9900  179.7990  143.2050 O   0  0  0  0  0  1  0  0  0  0  0  0
  186.5910  178.0530  145.0060 C   0  0  0  0  0  0  0  0  0  0  0  0
  186.0410  178.6010  141.2000 C   0  0  1  0  0  3  0  0  0  0  0  0
  188.0130  177.7580  147.4040 C   0  0  0  0  0  0  0  0  0  0  0  0
  187.9300  177.6160  144.9860 C   0  0  0  0  0  0  0  0  0  0  0  0
  183.5920  178.2520  141.7180 C   0  0  0  0  0  0  0  0  0  0  0  0
  185.8280  178.1290  143.7080 C   0  0  2  0  0  3  0  0  0  0  0  0
  182.3720  179.4940  143.4160 C   0  0  0  0  0  3  0  0  0  0  0  0
  188.5650  177.3360  143.7680 O   0  0  0  0  0  0  0  0  0  0  0  0
  181.1860  178.5260  141.5450 C   0  0  0  0  0  3  0  0  0  0  0  0
  182.3870  178.0180  141.0460 C   0  0  0  0  0  3  0  0  0  0  0  0
  183.5790  178.9740  142.9380 C   0  0  0  0  0  0  0  0  0  0  0  0
  188.4730  178.2160  137.6720 C   0  0  0  0  0  3  0  0  0  0  0  0
  186.9040  178.4520  139.9810 C   0  0  0  0  0  0  0  0  0  0  0  0
  186.3000  178.2090  138.7430 C   0  0  0  0  0  3  0  0  0  0  0  0
  187.0830  178.0880  137.5900 C   0  0  0  0  0  3  0  0  0  0  0  0
  189.0800  178.4670  138.9060 C   0  0  0  0  0  3  0  0  0  0  0  0
  188.2990  178.5870  140.0580 C   0  0  0  0  0  3  0  0  0  0  0  0
  1 12  1  0  0  0  0
  1 15  1  0  0  0  0
  2  6  1  6  0  0  0
  2 16  1  0  0  0  0
  4 13  1  0  0  0  0
  6 18  1  0  0  0  0
  7  9  1  0  0  0  0
  8 10  1  0  0  0  0
  8 17  1  0  0  0  0
 11  7  2  0  0  0  0
 12 23  1  6  0  0  0
 12  2  1  0  0  0  0
 13  9  2  0  0  0  0
 13  5  1  0  0  0  0
 14 11  1  0  0  0  0
 14  4  2  0  0  0  0
 15 21  1  0  0  0  0
 16  3  1  1  0  0  0
 16 11  1  0  0  0  0
 18 14  1  0  0  0  0
 19  8  2  0  0  0  0
 20 19  1  0  0  0  0
 20 15  2  0  0  0  0
 21 17  2  0  0  0  0
 21  3  1  0  0  0  0
 22 26  1  0  0  0  0
 23 27  1  0  0  0  0
 24 23  2  0  0  0  0
 25 22  2  0  0  0  0
 25 24  1  0  0  0  0
 26 27  2  0  0  0  0
M  END
>  <MODEL>
9

>  <REMARK>
 VINA RESULT:      -9.3      2.523      5.931
  Name = 
  1 active torsions:
  status: ('A' for Active; 'I' for Inactive)
    1  A    between atoms: C_9  and  C_15
                            x       y       z     vdW  Elec       q    Type
                         _______ _______ _______ _____ _____    ______ ____

>  <TORSDO>
F 1

$$$$
