=
 OpenBabel11052413223D

 28 29  0  0  1  0  0  0  0  0999 V2000
  184.3990  178.6920  142.7100 C   0  0  2  0  0  3  0  0  0  0  0  0
  186.6800  177.7010  147.0070 O   0  0  0  0  0  1  0  0  0  0  0  0
  187.9780  177.3890  143.3880 C   0  0  0  0  0  2  0  0  0  0  0  0
  185.5970  178.0700  144.9320 C   0  0  0  0  0  0  0  0  0  0  0  0
  186.9520  178.3650  142.8350 C   0  0  0  0  0  2  0  0  0  0  0  0
  183.2340  179.0300  144.8380 C   0  0  0  0  0  2  0  0  0  0  0  0
  186.7050  177.7240  145.6150 C   0  0  0  0  0  0  0  0  0  0  0  0
  184.4120  178.5990  145.7060 C   0  0  0  0  0  2  0  0  0  0  0  0
  188.0160  177.4020  144.9220 C   0  0  2  0  0  3  0  0  0  0  0  0
  183.7250  179.7320  143.5890 C   0  0  0  0  0  2  0  0  0  0  0  0
  185.5900  177.9980  143.4110 C   0  0  2  0  0  3  0  0  0  0  0  0
  184.7600  179.2580  141.4730 O   0  0  0  0  0  0  0  0  0  0  0  0
  184.2570  178.4590  140.4170 C   0  0  1  0  0  3  0  0  0  0  0  0
  182.5890  176.6060  139.8760 C   0  0  0  0  0  1  0  0  0  0  0  0
  182.8410  177.8920  140.6450 C   0  0  2  0  0  3  0  0  0  0  0  0
  180.8070  178.3660  139.2770 C   0  0  0  0  0  1  0  0  0  0  0  0
  181.7610  178.9130  140.3210 C   0  0  0  0  0  2  0  0  0  0  0  0
  184.5080  179.0310  139.0180 C   0  0  0  0  0  2  0  0  0  0  0  0
  185.6410  178.2880  138.3380 C   0  0  0  0  0  1  0  0  0  0  0  0
  189.2120  178.2020  145.4550 C   0  0  0  0  0  2  0  0  0  0  0  0
  190.5090  178.0450  144.6540 C   0  0  0  0  0  2  0  0  0  0  0  0
  191.5720  176.6380  146.3020 C   0  0  0  0  0  3  0  0  0  0  0  0
  191.2700  176.8100  145.0060 C   0  0  0  0  0  0  0  0  0  0  0  0
  191.0190  175.8550  142.7150 C   0  0  0  0  0  2  0  0  0  0  0  0
  191.5930  175.8630  143.9120 C   0  0  0  0  0  3  0  0  0  0  0  0
  192.2820  175.4640  146.8940 C   0  0  0  0  0  2  0  0  0  0  0  0
  192.8070  175.8160  148.2720 C   0  0  0  0  0  2  0  0  0  0  0  0
  192.4310  177.1190  148.5930 O   0  0  0  0  0  1  0  0  0  0  0  0
  1 12  1  6  0  0  0
  1 11  1  0  0  0  0
  1 10  1  0  0  0  0
  3  9  1  0  0  0  0
  4  7  2  0  0  0  0
  4  8  1  0  0  0  0
  5  3  1  0  0  0  0
  6  8  1  0  0  0  0
  7  2  1  0  0  0  0
  9 20  1  6  0  0  0
  9  7  1  0  0  0  0
 10  6  1  0  0  0  0
 11  5  1  6  0  0  0
 11  4  1  0  0  0  0
 13 18  1  6  0  0  0
 13 15  1  0  0  0  0
 13 12  1  0  0  0  0
 15 14  1  6  0  0  0
 16 17  1  0  0  0  0
 17 15  1  0  0  0  0
 19 18  1  0  0  0  0
 21 23  1  0  0  0  0
 21 20  1  0  0  0  0
 22 26  1  0  0  0  0
 23 22  2  0  0  0  0
 24 25  2  0  0  0  0
 25 23  1  0  0  0  0
 26 27  1  0  0  0  0
 27 28  1  0  0  0  0
M  END
>  <MODEL>
1

>  <REMARK>
 VINA RESULT:      -7.6      0.000      0.000
  Name = 
  11 active torsions:
  status: ('A' for Active; 'I' for Inactive)
    1  A    between atoms: C_1  and  O_2
    2  A    between atoms: O_2  and  C_3
    3  A    between atoms: C_3  and  C_7
    4  A    between atoms: C_3  and  C_11
    5  A    between atoms: C_4  and  C_24
    6  A    between atoms: C_11  and  C_22
    7  A    between atoms: C_12  and  C_24
    8  A    between atoms: C_13  and  C_15
    9  A    between atoms: C_13  and  C_18
   10  A    between atoms: C_14  and  C_18
   11  A    between atoms: C_14  and  C_25
                            x       y       z     vdW  Elec       q    Type
                         _______ _______ _______ _____ _____    ______ ____

>  <TORSDO>
F 11

$$$$
=
 OpenBabel11052413223D

 28 29  0  0  1  0  0  0  0  0999 V2000
  187.0890  178.1870  145.1660 C   0  0  2  0  0  3  0  0  0  0  0  0
  182.5350  179.1540  143.4440 O   0  0  0  0  0  1  0  0  0  0  0  0
  185.8550  178.6940  141.5350 C   0  0  0  0  0  2  0  0  0  0  0  0
  184.7400  178.7880  144.2300 C   0  0  0  0  0  0  0  0  0  0  0  0
  186.5100  177.9230  142.6690 C   0  0  0  0  0  2  0  0  0  0  0  0
  185.2010  178.4030  146.7100 C   0  0  0  0  0  2  0  0  0  0  0  0
  183.8900  178.9500  143.1980 C   0  0  0  0  0  0  0  0  0  0  0  0
  184.1640  178.6530  145.6210 C   0  0  0  0  0  2  0  0  0  0  0  0
  184.3460  178.8660  141.7530 C   0  0  2  0  0  3  0  0  0  0  0  0
  186.2720  177.4530  146.2150 C   0  0  0  0  0  2  0  0  0  0  0  0
  186.2360  178.6670  143.9690 C   0  0  2  0  0  3  0  0  0  0  0  0
  188.1850  177.4010  144.7620 O   0  0  0  0  0  0  0  0  0  0  0  0
  189.3710  177.8890  145.3620 C   0  0  1  0  0  3  0  0  0  0  0  0
  189.6620  177.5100  147.8690 C   0  0  0  0  0  1  0  0  0  0  0  0
  189.9580  176.9920  146.4720 C   0  0  2  0  0  3  0  0  0  0  0  0
  192.0180  175.9890  147.4650 C   0  0  0  0  0  1  0  0  0  0  0  0
  191.4550  176.7810  146.3000 C   0  0  0  0  0  2  0  0  0  0  0  0
  190.3980  178.4470  144.3720 C   0  0  0  0  0  2  0  0  0  0  0  0
  190.1330  177.9150  142.9780 C   0  0  0  0  0  1  0  0  0  0  0  0
  183.5310  177.8830  140.9010 C   0  0  0  0  0  2  0  0  0  0  0  0
  183.1600  178.3880  139.5020 C   0  0  0  0  0  2  0  0  0  0  0  0
  185.1120  178.1060  138.1110 C   0  0  0  0  0  3  0  0  0  0  0  0
  183.8800  177.6680  138.4110 C   0  0  0  0  0  0  0  0  0  0  0  0
  183.1100  175.2980  138.3040 C   0  0  0  0  0  2  0  0  0  0  0  0
  183.1980  176.5130  137.7780 C   0  0  0  0  0  3  0  0  0  0  0  0
  186.0340  177.5170  137.0930 C   0  0  0  0  0  2  0  0  0  0  0  0
  187.3640  178.2440  137.1150 C   0  0  0  0  0  2  0  0  0  0  0  0
  187.6190  178.7080  138.4050 O   0  0  0  0  0  1  0  0  0  0  0  0
  1 12  1  6  0  0  0
  1 10  1  0  0  0  0
  3  9  1  0  0  0  0
  3  5  1  0  0  0  0
  4  8  1  0  0  0  0
  7  2  1  0  0  0  0
  7  4  2  0  0  0  0
  8  6  1  0  0  0  0
  9 20  1  1  0  0  0
  9  7  1  0  0  0  0
 10  6  1  0  0  0  0
 11  5  1  6  0  0  0
 11  4  1  0  0  0  0
 11  1  1  0  0  0  0
 12 13  1  0  0  0  0
 13 18  1  6  0  0  0
 13 15  1  0  0  0  0
 15 14  1  1  0  0  0
 17 15  1  0  0  0  0
 17 16  1  0  0  0  0
 19 18  1  0  0  0  0
 21 20  1  0  0  0  0
 22 23  2  0  0  0  0
 23 21  1  0  0  0  0
 25 24  2  0  0  0  0
 25 23  1  0  0  0  0
 26 27  1  0  0  0  0
 26 22  1  0  0  0  0
 27 28  1  0  0  0  0
M  END
>  <MODEL>
2

>  <REMARK>
 VINA RESULT:      -7.5      1.816      8.027
  Name = 
  11 active torsions:
  status: ('A' for Active; 'I' for Inactive)
    1  A    between atoms: C_1  and  O_2
    2  A    between atoms: O_2  and  C_3
    3  A    between atoms: C_3  and  C_7
    4  A    between atoms: C_3  and  C_11
    5  A    between atoms: C_4  and  C_24
    6  A    between atoms: C_11  and  C_22
    7  A    between atoms: C_12  and  C_24
    8  A    between atoms: C_13  and  C_15
    9  A    between atoms: C_13  and  C_18
   10  A    between atoms: C_14  and  C_18
   11  A    between atoms: C_14  and  C_25
                            x       y       z     vdW  Elec       q    Type
                         _______ _______ _______ _____ _____    ______ ____

>  <TORSDO>
F 11

$$$$
=
 OpenBabel11052413223D

 28 29  0  0  1  0  0  0  0  0999 V2000
  187.4740  177.9540  145.4030 C   0  0  2  0  0  3  0  0  0  0  0  0
  182.9860  179.3860  143.8370 O   0  0  0  0  0  1  0  0  0  0  0  0
  186.1380  178.4710  141.8100 C   0  0  0  0  0  2  0  0  0  0  0  0
  185.1690  178.7920  144.5440 C   0  0  0  0  0  0  0  0  0  0  0  0
  186.7520  177.6690  142.9460 C   0  0  0  0  0  2  0  0  0  0  0  0
  185.6980  178.4450  147.0160 C   0  0  0  0  0  2  0  0  0  0  0  0
  184.2960  179.0150  143.5430 C   0  0  0  0  0  0  0  0  0  0  0  0
  184.6460  178.7760  145.9620 C   0  0  0  0  0  2  0  0  0  0  0  0
  184.6710  178.8260  142.0840 C   0  0  2  0  0  3  0  0  0  0  0  0
  186.6270  177.3590  146.5160 C   0  0  0  0  0  2  0  0  0  0  0  0
  186.6260  178.4870  144.2250 C   0  0  2  0  0  3  0  0  0  0  0  0
  188.4510  177.0310  144.9860 O   0  0  0  0  0  0  0  0  0  0  0  0
  189.7310  177.4650  145.4090 C   0  0  1  0  0  3  0  0  0  0  0  0
  190.0590  177.5200  147.9390 C   0  0  0  0  0  1  0  0  0  0  0  0
  190.2880  176.7430  146.6530 C   0  0  2  0  0  3  0  0  0  0  0  0
  192.3010  175.7850  147.7780 C   0  0  0  0  0  1  0  0  0  0  0  0
  191.7630  176.4070  146.5030 C   0  0  0  0  0  2  0  0  0  0  0  0
  190.7390  177.6640  144.2720 C   0  0  0  0  0  2  0  0  0  0  0  0
  190.8580  179.1330  143.9210 C   0  0  0  0  0  1  0  0  0  0  0  0
  183.7090  177.9160  141.3090 C   0  0  0  0  0  2  0  0  0  0  0  0
  183.1250  178.5260  140.0300 C   0  0  0  0  0  2  0  0  0  0  0  0
  181.0440  178.4210  141.2480 C   0  0  0  0  0  3  0  0  0  0  0  0
  181.6770  178.8660  140.1520 C   0  0  0  0  0  0  0  0  0  0  0  0
  181.4060  180.9440  138.7990 C   0  0  0  0  0  2  0  0  0  0  0  0
  181.0690  179.6910  139.0800 C   0  0  0  0  0  3  0  0  0  0  0  0
  179.6160  178.6750  141.6070 C   0  0  0  0  0  2  0  0  0  0  0  0
  179.5380  179.5340  142.8530 C   0  0  0  0  0  2  0  0  0  0  0  0
  179.9360  180.8350  142.5460 O   0  0  0  0  0  1  0  0  0  0  0  0
  1 12  1  6  0  0  0
  1 10  1  0  0  0  0
  3  9  1  0  0  0  0
  3  5  1  0  0  0  0
  4  8  1  0  0  0  0
  7  2  1  0  0  0  0
  7  4  2  0  0  0  0
  8  6  1  0  0  0  0
  9 20  1  1  0  0  0
  9  7  1  0  0  0  0
 10  6  1  0  0  0  0
 11  5  1  6  0  0  0
 11  4  1  0  0  0  0
 11  1  1  0  0  0  0
 12 13  1  0  0  0  0
 13 18  1  6  0  0  0
 13 15  1  0  0  0  0
 15 14  1  1  0  0  0
 17 15  1  0  0  0  0
 17 16  1  0  0  0  0
 19 18  1  0  0  0  0
 21 23  1  0  0  0  0
 21 20  1  0  0  0  0
 22 26  1  0  0  0  0
 23 22  2  0  0  0  0
 24 25  2  0  0  0  0
 25 23  1  0  0  0  0
 26 27  1  0  0  0  0
 28 27  1  0  0  0  0
M  END
>  <MODEL>
3

>  <REMARK>
 VINA RESULT:      -7.5      1.852      8.855
  Name = 
  11 active torsions:
  status: ('A' for Active; 'I' for Inactive)
    1  A    between atoms: C_1  and  O_2
    2  A    between atoms: O_2  and  C_3
    3  A    between atoms: C_3  and  C_7
    4  A    between atoms: C_3  and  C_11
    5  A    between atoms: C_4  and  C_24
    6  A    between atoms: C_11  and  C_22
    7  A    between atoms: C_12  and  C_24
    8  A    between atoms: C_13  and  C_15
    9  A    between atoms: C_13  and  C_18
   10  A    between atoms: C_14  and  C_18
   11  A    between atoms: C_14  and  C_25
                            x       y       z     vdW  Elec       q    Type
                         _______ _______ _______ _____ _____    ______ ____

>  <TORSDO>
F 11

$$$$
=
 OpenBabel11052413223D

 28 29  0  0  1  0  0  0  0  0999 V2000
  189.1080  177.2530  145.9210 C   0  0  2  0  0  3  0  0  0  0  0  0
  184.6180  179.2910  146.4970 O   0  0  0  0  0  1  0  0  0  0  0  0
  186.4990  178.3220  143.2720 C   0  0  0  0  0  2  0  0  0  0  0  0
  186.7930  178.4080  146.1740 C   0  0  0  0  0  0  0  0  0  0  0  0
  187.4080  177.3350  143.9860 C   0  0  0  0  0  2  0  0  0  0  0  0
  188.2380  177.7190  148.1620 C   0  0  0  0  0  2  0  0  0  0  0  0
  185.6260  178.8320  145.6530 C   0  0  0  0  0  0  0  0  0  0  0  0
  186.9030  178.2740  147.6750 C   0  0  0  0  0  2  0  0  0  0  0  0
  185.3390  178.7830  144.1630 C   0  0  2  0  0  3  0  0  0  0  0  0
  188.7200  176.6150  147.2440 C   0  0  0  0  0  2  0  0  0  0  0  0
  187.9340  178.0030  145.2500 C   0  0  2  0  0  3  0  0  0  0  0  0
  189.6890  176.2950  145.0690 O   0  0  0  0  0  0  0  0  0  0  0  0
  191.0930  176.4820  145.0270 C   0  0  1  0  0  3  0  0  0  0  0  0
  191.3410  178.7360  143.8580 C   0  0  0  0  0  1  0  0  0  0  0  0
  191.6140  177.2430  143.7900 C   0  0  2  0  0  3  0  0  0  0  0  0
  190.1760  177.6860  141.7990 C   0  0  0  0  0  1  0  0  0  0  0  0
  191.0600  176.6700  142.4950 C   0  0  0  0  0  2  0  0  0  0  0  0
  191.7140  176.9120  146.3600 C   0  0  0  0  0  2  0  0  0  0  0  0
  192.2600  175.7080  147.1020 C   0  0  0  0  0  1  0  0  0  0  0  0
  184.0280  178.0700  143.8080 C   0  0  0  0  0  2  0  0  0  0  0  0
  182.9410  178.9680  143.2060 C   0  0  0  0  0  2  0  0  0  0  0  0
  183.6890  178.3490  140.9970 C   0  0  0  0  0  3  0  0  0  0  0  0
  182.6410  178.6480  141.7800 C   0  0  0  0  0  0  0  0  0  0  0  0
  180.4660  179.7340  141.2200 C   0  0  0  0  0  2  0  0  0  0  0  0
  181.2200  178.6500  141.3560 C   0  0  0  0  0  3  0  0  0  0  0  0
  183.6290  177.9540  139.5570 C   0  0  0  0  0  2  0  0  0  0  0  0
  184.4970  178.8790  138.7280 C   0  0  0  0  0  2  0  0  0  0  0  0
  184.2930  180.1970  139.1360 O   0  0  0  0  0  1  0  0  0  0  0  0
  1 12  1  6  0  0  0
  1 10  1  0  0  0  0
  3  5  1  0  0  0  0
  3  9  1  0  0  0  0
  4  8  1  0  0  0  0
  7  4  2  0  0  0  0
  7  2  1  0  0  0  0
  8  6  1  0  0  0  0
  9 20  1  1  0  0  0
  9  7  1  0  0  0  0
 10  6  1  0  0  0  0
 11  5  1  6  0  0  0
 11  1  1  0  0  0  0
 11  4  1  0  0  0  0
 13 12  1  0  0  0  0
 13 18  1  1  0  0  0
 15 14  1  1  0  0  0
 15 13  1  0  0  0  0
 16 17  1  0  0  0  0
 17 15  1  0  0  0  0
 18 19  1  0  0  0  0
 21 20  1  0  0  0  0
 22 23  2  0  0  0  0
 23 21  1  0  0  0  0
 24 25  2  0  0  0  0
 25 23  1  0  0  0  0
 26 22  1  0  0  0  0
 27 28  1  0  0  0  0
 27 26  1  0  0  0  0
M  END
>  <MODEL>
4

>  <REMARK>
 VINA RESULT:      -7.4      1.631      8.214
  Name = 
  11 active torsions:
  status: ('A' for Active; 'I' for Inactive)
    1  A    between atoms: C_1  and  O_2
    2  A    between atoms: O_2  and  C_3
    3  A    between atoms: C_3  and  C_7
    4  A    between atoms: C_3  and  C_11
    5  A    between atoms: C_4  and  C_24
    6  A    between atoms: C_11  and  C_22
    7  A    between atoms: C_12  and  C_24
    8  A    between atoms: C_13  and  C_15
    9  A    between atoms: C_13  and  C_18
   10  A    between atoms: C_14  and  C_18
   11  A    between atoms: C_14  and  C_25
                            x       y       z     vdW  Elec       q    Type
                         _______ _______ _______ _____ _____    ______ ____

>  <TORSDO>
F 11

$$$$
=
 OpenBabel11052413223D

 28 29  0  0  1  0  0  0  0  0999 V2000
  187.0860  178.2110  145.1720 C   0  0  2  0  0  3  0  0  0  0  0  0
  182.4880  179.1310  143.5410 O   0  0  0  0  0  1  0  0  0  0  0  0
  185.7660  178.6570  141.5630 C   0  0  0  0  0  2  0  0  0  0  0  0
  184.7130  178.7870  144.2810 C   0  0  0  0  0  0  0  0  0  0  0  0
  186.4500  177.9060  142.6930 C   0  0  0  0  0  2  0  0  0  0  0  0
  185.2320  178.4410  146.7550 C   0  0  0  0  0  2  0  0  0  0  0  0
  183.8390  178.9290  143.2670 C   0  0  0  0  0  0  0  0  0  0  0  0
  184.1690  178.6700  145.6870 C   0  0  0  0  0  2  0  0  0  0  0  0
  184.2620  178.8260  141.8130 C   0  0  2  0  0  3  0  0  0  0  0  0
  186.2970  177.4890  146.2500 C   0  0  0  0  0  2  0  0  0  0  0  0
  186.2020  178.6690  143.9880 C   0  0  2  0  0  3  0  0  0  0  0  0
  188.1750  177.4230  144.7540 O   0  0  0  0  0  0  0  0  0  0  0  0
  189.3680  177.9030  145.3500 C   0  0  1  0  0  3  0  0  0  0  0  0
  189.6950  177.4720  147.8430 C   0  0  0  0  0  1  0  0  0  0  0  0
  189.9730  176.9840  146.4320 C   0  0  2  0  0  3  0  0  0  0  0  0
  192.0320  175.8950  147.3280 C   0  0  0  0  0  1  0  0  0  0  0  0
  191.4670  176.7800  146.2350 C   0  0  0  0  0  2  0  0  0  0  0  0
  190.3800  178.4860  144.3580 C   0  0  0  0  0  2  0  0  0  0  0  0
  190.0850  177.9990  142.9530 C   0  0  0  0  0  1  0  0  0  0  0  0
  183.4320  177.8270  140.9950 C   0  0  0  0  0  2  0  0  0  0  0  0
  183.2290  178.2010  139.5230 C   0  0  0  0  0  2  0  0  0  0  0  0
  183.0130  175.9560  138.6640 C   0  0  0  0  0  3  0  0  0  0  0  0
  183.6610  177.1280  138.5800 C   0  0  0  0  0  0  0  0  0  0  0  0
  185.7930  178.2120  137.8700 C   0  0  0  0  0  2  0  0  0  0  0  0
  184.7350  177.4520  137.6110 C   0  0  0  0  0  3  0  0  0  0  0  0
  183.2400  174.7590  137.8000 C   0  0  0  0  0  2  0  0  0  0  0  0
  181.9150  174.2310  137.2860 C   0  0  0  0  0  2  0  0  0  0  0  0
  182.0820  172.9240  136.8300 O   0  0  0  0  0  1  0  0  0  0  0  0
  1 12  1  6  0  0  0
  1 10  1  0  0  0  0
  3  9  1  0  0  0  0
  3  5  1  0  0  0  0
  4  8  1  0  0  0  0
  7  2  1  0  0  0  0
  7  4  2  0  0  0  0
  8  6  1  0  0  0  0
  9 20  1  1  0  0  0
  9  7  1  0  0  0  0
 10  6  1  0  0  0  0
 11  5  1  6  0  0  0
 11  4  1  0  0  0  0
 11  1  1  0  0  0  0
 12 13  1  0  0  0  0
 13 18  1  6  0  0  0
 13 15  1  0  0  0  0
 15 14  1  1  0  0  0
 17 15  1  0  0  0  0
 17 16  1  0  0  0  0
 19 18  1  0  0  0  0
 21 20  1  0  0  0  0
 23 22  2  0  0  0  0
 23 21  1  0  0  0  0
 25 24  2  0  0  0  0
 25 23  1  0  0  0  0
 26 22  1  0  0  0  0
 27 26  1  0  0  0  0
 28 27  1  0  0  0  0
M  END
>  <MODEL>
5

>  <REMARK>
 VINA RESULT:      -7.3      2.238      8.488
  Name = 
  11 active torsions:
  status: ('A' for Active; 'I' for Inactive)
    1  A    between atoms: C_1  and  O_2
    2  A    between atoms: O_2  and  C_3
    3  A    between atoms: C_3  and  C_7
    4  A    between atoms: C_3  and  C_11
    5  A    between atoms: C_4  and  C_24
    6  A    between atoms: C_11  and  C_22
    7  A    between atoms: C_12  and  C_24
    8  A    between atoms: C_13  and  C_15
    9  A    between atoms: C_13  and  C_18
   10  A    between atoms: C_14  and  C_18
   11  A    between atoms: C_14  and  C_25
                            x       y       z     vdW  Elec       q    Type
                         _______ _______ _______ _____ _____    ______ ____

>  <TORSDO>
F 11

$$$$
=
 OpenBabel11052413223D

 28 29  0  0  1  0  0  0  0  0999 V2000
  189.1450  177.6420  144.3280 C   0  0  2  0  0  3  0  0  0  0  0  0
  185.2800  178.5150  141.3370 O   0  0  0  0  0  1  0  0  0  0  0  0
  185.3740  177.9160  145.1460 C   0  0  0  0  0  2  0  0  0  0  0  0
  187.0850  178.0020  142.7840 C   0  0  0  0  0  0  0  0  0  0  0  0
  186.8380  178.3040  145.2670 C   0  0  0  0  0  2  0  0  0  0  0  0
  189.4890  177.9880  141.9280 C   0  0  0  0  0  2  0  0  0  0  0  0
  185.7710  178.2410  142.6110 C   0  0  0  0  0  0  0  0  0  0  0  0
  188.0150  178.2170  141.6120 C   0  0  0  0  0  2  0  0  0  0  0  0
  184.7950  178.2770  143.7720 C   0  0  2  0  0  3  0  0  0  0  0  0
  189.8280  178.5300  143.3020 C   0  0  0  0  0  2  0  0  0  0  0  0
  187.6080  177.6010  144.1570 C   0  0  2  0  0  3  0  0  0  0  0  0
  189.5290  178.0160  145.6290 O   0  0  0  0  0  0  0  0  0  0  0  0
  189.8750  176.8630  146.3750 C   0  0  1  0  0  3  0  0  0  0  0  0
  191.7920  175.9660  144.9490 C   0  0  0  0  0  1  0  0  0  0  0  0
  191.3670  176.4700  146.3180 C   0  0  2  0  0  3  0  0  0  0  0  0
  192.7980  175.9990  148.3080 C   0  0  0  0  0  1  0  0  0  0  0  0
  191.7280  175.4490  147.3850 C   0  0  0  0  0  2  0  0  0  0  0  0
  189.2440  176.7980  147.7700 C   0  0  0  0  0  2  0  0  0  0  0  0
  188.8400  178.1840  148.2320 C   0  0  0  0  0  1  0  0  0  0  0  0
  183.9450  179.5530  143.8290 C   0  0  0  0  0  2  0  0  0  0  0  0
  182.5290  179.3680  144.3850 C   0  0  0  0  0  2  0  0  0  0  0  0
  181.9430  178.9400  142.0840 C   0  0  0  0  0  3  0  0  0  0  0  0
  181.5620  178.8610  143.3680 C   0  0  0  0  0  0  0  0  0  0  0  0
  179.2880  178.9740  144.3880 C   0  0  0  0  0  2  0  0  0  0  0  0
  180.2870  178.2810  143.8550 C   0  0  0  0  0  3  0  0  0  0  0  0
  181.1660  178.4560  140.9020 C   0  0  0  0  0  2  0  0  0  0  0  0
  182.0830  178.3050  139.7050 C   0  0  0  0  0  2  0  0  0  0  0  0
  182.6790  177.0450  139.7330 O   0  0  0  0  0  1  0  0  0  0  0  0
  1 12  1  1  0  0  0
  2  7  1  0  0  0  0
  3  5  1  0  0  0  0
  4 11  1  0  0  0  0
  6 10  1  0  0  0  0
  7  4  2  0  0  0  0
  7  9  1  0  0  0  0
  8  6  1  0  0  0  0
  8  4  1  0  0  0  0
  9 20  1  1  0  0  0
  9  3  1  0  0  0  0
 10  1  1  0  0  0  0
 11  1  1  0  0  0  0
 11  5  1  1  0  0  0
 12 13  1  0  0  0  0
 13 18  1  1  0  0  0
 15 14  1  6  0  0  0
 15 13  1  0  0  0  0
 15 17  1  0  0  0  0
 17 16  1  0  0  0  0
 18 19  1  0  0  0  0
 20 21  1  0  0  0  0
 22 23  2  0  0  0  0
 23 25  1  0  0  0  0
 23 21  1  0  0  0  0
 25 24  2  0  0  0  0
 26 22  1  0  0  0  0
 27 28  1  0  0  0  0
 27 26  1  0  0  0  0
M  END
>  <MODEL>
6

>  <REMARK>
 VINA RESULT:      -7.1      1.836      9.057
  Name = 
  11 active torsions:
  status: ('A' for Active; 'I' for Inactive)
    1  A    between atoms: C_1  and  O_2
    2  A    between atoms: O_2  and  C_3
    3  A    between atoms: C_3  and  C_7
    4  A    between atoms: C_3  and  C_11
    5  A    between atoms: C_4  and  C_24
    6  A    between atoms: C_11  and  C_22
    7  A    between atoms: C_12  and  C_24
    8  A    between atoms: C_13  and  C_15
    9  A    between atoms: C_13  and  C_18
   10  A    between atoms: C_14  and  C_18
   11  A    between atoms: C_14  and  C_25
                            x       y       z     vdW  Elec       q    Type
                         _______ _______ _______ _____ _____    ______ ____

>  <TORSDO>
F 11

$$$$
=
 OpenBabel11052413223D

 28 29  0  0  1  0  0  0  0  0999 V2000
  184.3490  178.6990  142.7810 C   0  0  2  0  0  3  0  0  0  0  0  0
  187.1300  177.7070  146.7720 O   0  0  0  0  0  1  0  0  0  0  0  0
  188.0020  177.4500  143.0230 C   0  0  0  0  0  2  0  0  0  0  0  0
  185.8070  178.0770  144.8410 C   0  0  0  0  0  0  0  0  0  0  0  0
  186.9040  178.4140  142.6040 C   0  0  0  0  0  2  0  0  0  0  0  0
  183.4350  178.9970  145.0330 C   0  0  0  0  0  2  0  0  0  0  0  0
  186.9920  177.7430  145.3860 C   0  0  0  0  0  0  0  0  0  0  0  0
  184.7120  178.5780  145.7540 C   0  0  0  0  0  2  0  0  0  0  0  0
  188.2190  177.4500  144.5420 C   0  0  2  0  0  3  0  0  0  0  0  0
  183.7660  179.7190  143.7430 C   0  0  0  0  0  2  0  0  0  0  0  0
  185.6240  178.0180  143.3300 C   0  0  2  0  0  3  0  0  0  0  0  0
  184.5540  179.2820  141.5170 O   0  0  0  0  0  0  0  0  0  0  0  0
  184.2070  178.3580  140.5010 C   0  0  1  0  0  3  0  0  0  0  0  0
  182.5810  176.5720  139.6770 C   0  0  0  0  0  1  0  0  0  0  0  0
  182.8150  177.7100  140.6560 C   0  0  2  0  0  3  0  0  0  0  0  0
  180.7950  178.6750  141.7610 C   0  0  0  0  0  1  0  0  0  0  0  0
  181.6960  178.7340  140.5430 C   0  0  0  0  0  2  0  0  0  0  0  0
  184.5510  178.8190  139.0810 C   0  0  0  0  0  2  0  0  0  0  0  0
  185.8750  178.2280  138.6390 C   0  0  0  0  0  1  0  0  0  0  0  0
  189.4560  178.2650  144.9410 C   0  0  0  0  0  2  0  0  0  0  0  0
  190.7590  177.4620  145.0420 C   0  0  0  0  0  2  0  0  0  0  0  0
  191.5280  177.8050  142.7810 C   0  0  0  0  0  3  0  0  0  0  0  0
  191.2100  176.9120  143.7310 C   0  0  0  0  0  0  0  0  0  0  0  0
  192.0590  174.6520  144.3570 C   0  0  0  0  0  2  0  0  0  0  0  0
  191.3080  175.4390  143.5970 C   0  0  0  0  0  3  0  0  0  0  0  0
  192.0450  177.4920  141.4140 C   0  0  0  0  0  2  0  0  0  0  0  0
  190.9040  177.4860  140.4160 C   0  0  0  0  0  2  0  0  0  0  0  0
  190.5570  176.1700  140.1160 O   0  0  0  0  0  1  0  0  0  0  0  0
  1 12  1  6  0  0  0
  1 11  1  0  0  0  0
  1 10  1  0  0  0  0
  3  9  1  0  0  0  0
  4  7  2  0  0  0  0
  4  8  1  0  0  0  0
  5  3  1  0  0  0  0
  6  8  1  0  0  0  0
  7  2  1  0  0  0  0
  9 20  1  6  0  0  0
  9  7  1  0  0  0  0
 10  6  1  0  0  0  0
 11  5  1  6  0  0  0
 11  4  1  0  0  0  0
 13 18  1  6  0  0  0
 13 15  1  0  0  0  0
 13 12  1  0  0  0  0
 15 14  1  6  0  0  0
 17 15  1  0  0  0  0
 17 16  1  0  0  0  0
 19 18  1  0  0  0  0
 20 21  1  0  0  0  0
 22 23  2  0  0  0  0
 23 21  1  0  0  0  0
 25 23  1  0  0  0  0
 25 24  2  0  0  0  0
 26 22  1  0  0  0  0
 27 26  1  0  0  0  0
 28 27  1  0  0  0  0
M  END
>  <MODEL>
7

>  <REMARK>
 VINA RESULT:      -7.1      1.597      2.727
  Name = 
  11 active torsions:
  status: ('A' for Active; 'I' for Inactive)
    1  A    between atoms: C_1  and  O_2
    2  A    between atoms: O_2  and  C_3
    3  A    between atoms: C_3  and  C_7
    4  A    between atoms: C_3  and  C_11
    5  A    between atoms: C_4  and  C_24
    6  A    between atoms: C_11  and  C_22
    7  A    between atoms: C_12  and  C_24
    8  A    between atoms: C_13  and  C_15
    9  A    between atoms: C_13  and  C_18
   10  A    between atoms: C_14  and  C_18
   11  A    between atoms: C_14  and  C_25
                            x       y       z     vdW  Elec       q    Type
                         _______ _______ _______ _____ _____    ______ ____

>  <TORSDO>
F 11

$$$$
=
 OpenBabel11052413223D

 28 29  0  0  1  0  0  0  0  0999 V2000
  187.1250  178.1540  145.2090 C   0  0  2  0  0  3  0  0  0  0  0  0
  182.5570  179.1340  143.5290 O   0  0  0  0  0  1  0  0  0  0  0  0
  185.8580  178.6650  141.5900 C   0  0  0  0  0  2  0  0  0  0  0  0
  184.7680  178.7610  144.2950 C   0  0  0  0  0  0  0  0  0  0  0  0
  186.5210  177.8920  142.7170 C   0  0  0  0  0  2  0  0  0  0  0  0
  185.2510  178.3740  146.7710 C   0  0  0  0  0  2  0  0  0  0  0  0
  183.9090  178.9260  143.2710 C   0  0  0  0  0  0  0  0  0  0  0  0
  184.2050  178.6280  145.6910 C   0  0  0  0  0  2  0  0  0  0  0  0
  184.3520  178.8410  141.8220 C   0  0  2  0  0  3  0  0  0  0  0  0
  186.3150  177.4220  146.2650 C   0  0  0  0  0  2  0  0  0  0  0  0
  186.2610  178.6370  144.0200 C   0  0  2  0  0  3  0  0  0  0  0  0
  188.2140  177.3650  144.7940 O   0  0  0  0  0  0  0  0  0  0  0  0
  189.4100  177.8620  145.3680 C   0  0  1  0  0  3  0  0  0  0  0  0
  189.7500  177.5070  147.8720 C   0  0  0  0  0  1  0  0  0  0  0  0
  190.0210  176.9760  146.4750 C   0  0  2  0  0  3  0  0  0  0  0  0
  192.0560  175.7940  147.3050 C   0  0  0  0  0  1  0  0  0  0  0  0
  191.5140  176.7670  146.2760 C   0  0  0  0  0  2  0  0  0  0  0  0
  190.4170  178.4140  144.3540 C   0  0  0  0  0  2  0  0  0  0  0  0
  190.1690  177.8170  142.9830 C   0  0  0  0  0  1  0  0  0  0  0  0
  183.5260  177.8610  140.9770 C   0  0  0  0  0  2  0  0  0  0  0  0
  182.4420  178.5060  140.1060 C   0  0  0  0  0  2  0  0  0  0  0  0
  181.1730  176.4690  139.8560 C   0  0  0  0  0  3  0  0  0  0  0  0
  181.1410  177.7760  140.1550 C   0  0  0  0  0  0  0  0  0  0  0  0
  179.4070  178.5330  141.7800 C   0  0  0  0  0  2  0  0  0  0  0  0
  179.9370  178.5390  140.5630 C   0  0  0  0  0  3  0  0  0  0  0  0
  180.0110  175.5300  139.8820 C   0  0  0  0  0  2  0  0  0  0  0  0
  179.6970  175.0520  138.4780 C   0  0  0  0  0  2  0  0  0  0  0  0
  179.9750  173.6900  138.3780 O   0  0  0  0  0  1  0  0  0  0  0  0
  1 12  1  6  0  0  0
  1 10  1  0  0  0  0
  3  9  1  0  0  0  0
  3  5  1  0  0  0  0
  4  8  1  0  0  0  0
  7  2  1  0  0  0  0
  7  4  2  0  0  0  0
  8  6  1  0  0  0  0
  9 20  1  1  0  0  0
  9  7  1  0  0  0  0
 10  6  1  0  0  0  0
 11  5  1  6  0  0  0
 11  4  1  0  0  0  0
 11  1  1  0  0  0  0
 12 13  1  0  0  0  0
 13 18  1  6  0  0  0
 13 15  1  0  0  0  0
 15 14  1  1  0  0  0
 17 15  1  0  0  0  0
 17 16  1  0  0  0  0
 19 18  1  0  0  0  0
 21 23  1  0  0  0  0
 21 20  1  0  0  0  0
 22 26  1  0  0  0  0
 22 23  2  0  0  0  0
 23 25  1  0  0  0  0
 25 24  2  0  0  0  0
 27 26  1  0  0  0  0
 28 27  1  0  0  0  0
M  END
>  <MODEL>
8

>  <REMARK>
 VINA RESULT:      -7.1      2.225      9.055
  Name = 
  11 active torsions:
  status: ('A' for Active; 'I' for Inactive)
    1  A    between atoms: C_1  and  O_2
    2  A    between atoms: O_2  and  C_3
    3  A    between atoms: C_3  and  C_7
    4  A    between atoms: C_3  and  C_11
    5  A    between atoms: C_4  and  C_24
    6  A    between atoms: C_11  and  C_22
    7  A    between atoms: C_12  and  C_24
    8  A    between atoms: C_13  and  C_15
    9  A    between atoms: C_13  and  C_18
   10  A    between atoms: C_14  and  C_18
   11  A    between atoms: C_14  and  C_25
                            x       y       z     vdW  Elec       q    Type
                         _______ _______ _______ _____ _____    ______ ____

>  <TORSDO>
F 11

$$$$
=
 OpenBabel11052413223D

 28 29  0  0  1  0  0  0  0  0999 V2000
  187.9640  177.5990  145.2140 C   0  0  2  0  0  3  0  0  0  0  0  0
  183.4080  179.5700  145.1710 O   0  0  0  0  0  1  0  0  0  0  0  0
  185.6390  178.4320  142.2370 C   0  0  0  0  0  2  0  0  0  0  0  0
  185.6180  178.7160  145.1410 C   0  0  0  0  0  0  0  0  0  0  0  0
  186.4810  177.5150  143.1090 C   0  0  0  0  0  2  0  0  0  0  0  0
  186.8510  178.1920  147.3130 C   0  0  0  0  0  2  0  0  0  0  0  0
  184.5080  179.0790  144.4720 C   0  0  0  0  0  0  0  0  0  0  0  0
  185.5690  178.6840  146.6520 C   0  0  0  0  0  2  0  0  0  0  0  0
  184.3830  178.9260  142.9670 C   0  0  2  0  0  3  0  0  0  0  0  0
  187.4460  177.0410  146.5280 C   0  0  0  0  0  2  0  0  0  0  0  0
  186.8580  178.2760  144.3730 C   0  0  2  0  0  3  0  0  0  0  0  0
  188.6480  176.6000  144.4950 O   0  0  0  0  0  0  0  0  0  0  0  0
  189.8050  177.1520  143.8930 C   0  0  1  0  0  3  0  0  0  0  0  0
  191.6230  178.9210  144.1760 C   0  0  0  0  0  1  0  0  0  0  0  0
  190.7670  177.8700  144.8630 C   0  0  2  0  0  3  0  0  0  0  0  0
  191.1380  176.6870  147.0300 C   0  0  0  0  0  1  0  0  0  0  0  0
  191.6510  176.8890  145.6170 C   0  0  0  0  0  2  0  0  0  0  0  0
  190.4840  176.2350  142.8710 C   0  0  0  0  0  2  0  0  0  0  0  0
  190.1770  176.6960  141.4600 C   0  0  0  0  0  1  0  0  0  0  0  0
  183.1280  178.1610  142.5240 C   0  0  0  0  0  2  0  0  0  0  0  0
  182.3310  178.8200  141.3920 C   0  0  0  0  0  2  0  0  0  0  0  0
  183.0420  177.1750  139.7760 C   0  0  0  0  0  3  0  0  0  0  0  0
  182.8480  178.4770  140.0350 C   0  0  0  0  0  0  0  0  0  0  0  0
  182.1510  180.4790  138.7200 C   0  0  0  0  0  2  0  0  0  0  0  0
  183.0680  179.5890  139.0790 C   0  0  0  0  0  3  0  0  0  0  0  0
  183.5070  176.5940  138.4800 C   0  0  0  0  0  2  0  0  0  0  0  0
  183.0000  175.1720  138.3370 C   0  0  0  0  0  2  0  0  0  0  0  0
  183.5050  174.6160  137.1630 O   0  0  0  0  0  1  0  0  0  0  0  0
  1 12  1  6  0  0  0
  1 10  1  0  0  0  0
  3  9  1  0  0  0  0
  3  5  1  0  0  0  0
  4  8  1  0  0  0  0
  7  4  2  0  0  0  0
  7  2  1  0  0  0  0
  8  6  1  0  0  0  0
  9 20  1  1  0  0  0
  9  7  1  0  0  0  0
 10  6  1  0  0  0  0
 11  5  1  6  0  0  0
 11  4  1  0  0  0  0
 11  1  1  0  0  0  0
 13 18  1  1  0  0  0
 13 12  1  0  0  0  0
 13 15  1  0  0  0  0
 15 14  1  6  0  0  0
 15 17  1  0  0  0  0
 17 16  1  0  0  0  0
 19 18  1  0  0  0  0
 21 20  1  0  0  0  0
 22 23  2  0  0  0  0
 23 21  1  0  0  0  0
 24 25  2  0  0  0  0
 25 23  1  0  0  0  0
 26 22  1  0  0  0  0
 27 26  1  0  0  0  0
 28 27  1  0  0  0  0
M  END
>  <MODEL>
9

>  <REMARK>
 VINA RESULT:      -7.1      1.994      8.251
  Name = 
  11 active torsions:
  status: ('A' for Active; 'I' for Inactive)
    1  A    between atoms: C_1  and  O_2
    2  A    between atoms: O_2  and  C_3
    3  A    between atoms: C_3  and  C_7
    4  A    between atoms: C_3  and  C_11
    5  A    between atoms: C_4  and  C_24
    6  A    between atoms: C_11  and  C_22
    7  A    between atoms: C_12  and  C_24
    8  A    between atoms: C_13  and  C_15
    9  A    between atoms: C_13  and  C_18
   10  A    between atoms: C_14  and  C_18
   11  A    between atoms: C_14  and  C_25
                            x       y       z     vdW  Elec       q    Type
                         _______ _______ _______ _____ _____    ______ ____

>  <TORSDO>
F 11

$$$$
