=
 OpenBabel11052415093D

 55 62  0  0  1  0  0  0  0  0999 V2000
  192.2040  176.4380  138.6170 C   0  0  0  0  0  2  0  0  0  0  0  0
  188.3960  179.0920  137.0950 C   0  0  0  0  0  2  0  0  0  0  0  0
  188.2980  177.7020  134.6170 O   0  0  0  0  0  0  0  0  0  0  0  0
  189.9010  176.0480  135.2040 C   0  0  0  0  0  2  0  0  0  0  0  0
  191.7300  176.7390  141.0490 C   0  0  0  0  0  3  0  0  0  0  0  0
  189.0420  177.1480  140.4790 C   0  0  0  0  0  0  0  0  0  0  0  0
  191.9860  175.0500  138.0430 C   0  0  0  0  0  2  0  0  0  0  0  0
  189.9310  176.8800  139.4830 N   0  0  0  0  0  0  0  0  0  0  0  0
  188.2870  179.2890  138.6010 C   0  0  0  0  0  2  0  0  0  0  0  0
  189.1070  177.8580  136.8000 N   0  0  0  0  0  2  0  0  0  0  0  0
  189.0440  177.2320  135.5160 C   0  0  0  0  0  0  0  0  0  0  0  0
  190.8330  176.9880  142.0880 C   0  0  0  0  0  3  0  0  0  0  0  0
  187.2200  178.3770  139.2190 C   0  0  2  0  0  0  0  0  0  0  0  0
  191.2550  176.6890  139.7360 C   0  0  0  0  0  0  0  0  0  0  0  0
  190.2090  175.2260  136.4510 C   0  0  2  0  0  3  0  0  0  0  0  0
  191.6700  175.1540  136.6260 N   0  0  0  0  0  0  0  0  0  0  0  0
  187.1220  178.6190  140.6640 N   0  0  0  0  0  2  0  0  0  0  0  0
  187.5790  177.3060  140.1760 C   0  0  2  0  0  3  0  0  0  0  0  0
  189.4820  177.1910  141.8060 C   0  0  0  0  0  3  0  0  0  0  0  0
  188.9280  173.4900  135.0580 C   0  0  0  0  0  2  0  0  0  0  0  0
  187.8260  174.4610  134.6410 C   0  0  0  0  0  2  0  0  0  0  0  0
  188.3450  173.7970  137.4910 C   0  0  2  0  0  3  0  0  0  0  0  0
  187.0280  174.3520  137.0010 C   0  0  0  0  0  3  0  0  0  0  0  0
  186.7790  174.6120  135.7100 C   0  0  0  0  0  3  0  0  0  0  0  0
  189.4720  173.8590  136.4460 C   0  0  2  0  0  3  0  0  0  0  0  0
  188.1510  172.3670  137.9580 C   0  0  0  0  0  1  0  0  0  0  0  0
  185.5230  177.4020  137.4880 C   0  0  0  0  0  2  0  0  0  0  0  0
  185.8170  178.3510  138.5910 C   0  0  2  0  0  0  0  0  0  0  0  0
  185.8740  178.7440  137.2390 O   0  0  0  0  0  0  0  0  0  0  0  0
  183.2430  178.4140  139.0990 C   0  0  2  0  0  0  0  0  0  0  0  0
  183.1810  180.6230  138.8690 C   0  0  0  0  0  2  0  0  0  0  0  0
  182.4990  179.4450  138.5260 O   0  0  0  0  0  0  0  0  0  0  0  0
  184.6320  179.0070  139.3370 C   0  0  2  0  0  3  0  0  0  0  0  0
  184.5460  180.3730  139.0580 O   0  0  0  0  0  0  0  0  0  0  0  0
  183.2180  177.2240  138.1380 C   0  0  0  0  0  1  0  0  0  0  0  0
  182.6000  178.0270  140.4490 C   0  0  2  0  0  3  0  0  0  0  0  0
  181.1540  177.6390  140.3400 C   0  0  0  0  0  0  0  0  0  0  0  0
  180.8260  176.4450  140.1080 O   0  0  0  0  0  0  0  0  0  0  0  0
  180.1700  178.6010  140.5140 O   0  0  0  0  0  1  0  0  0  0  0  0
  182.7610  179.0470  141.3980 O   0  0  0  0  0  0  0  0  0  0  0  0
  184.6820  178.2430  142.5660 C   0  0  0  0  0  1  0  0  0  0  0  0
  183.1670  178.4000  142.5690 C   0  0  1  0  0  3  0  0  0  0  0  0
  183.1630  178.6110  144.9720 O   0  0  0  0  0  1  0  0  0  0  0  0
  182.6760  179.1740  143.7910 C   0  0  2  0  0  3  0  0  0  0  0  0
  181.1600  179.2300  143.8300 C   0  0  0  0  0  1  0  0  0  0  0  0
  192.2590  174.0130  135.9290 C   0  0  0  0  0  2  0  0  0  0  0  0
  194.4340  175.2040  135.6050 C   0  0  0  0  0  3  0  0  0  0  0  0
  196.5420  174.1370  136.1600 C   0  0  0  0  0  0  0  0  0  0  0  0
  194.4490  172.9630  136.5250 C   0  0  0  0  0  3  0  0  0  0  0  0
  195.8440  173.0020  136.5970 C   0  0  0  0  0  3  0  0  0  0  0  0
  195.8290  175.2440  135.6760 C   0  0  0  0  0  3  0  0  0  0  0  0
  193.7430  174.0650  136.0320 C   0  0  0  0  0  0  0  0  0  0  0  0
  198.0340  174.1930  136.2820 C   0  0  1  0  0  3  0  0  0  0  0  0
  198.6710  173.5090  135.1580 C   0  0  0  0  0  2  0  0  0  0  0  0
  198.6010  174.9730  135.1690 N   0  0  0  0  0  2  0  0  0  0  0  0
  1 14  1  0  0  0  0
  2  9  1  0  0  0  0
  3 11  2  0  0  0  0
  4 11  1  0  0  0  0
  5 12  1  0  0  0  0
  6 19  1  0  0  0  0
  7  1  1  0  0  0  0
  8 14  1  0  0  0  0
  8  6  2  0  0  0  0
 10  2  1  0  0  0  0
 11 10  1  0  0  0  0
 13  9  1  6  0  0  0
 13 18  1  0  0  0  0
 13 17  1  0  0  0  0
 14  5  2  0  0  0  0
 15  4  1  6  0  0  0
 15 16  1  0  0  0  0
 16  7  1  0  0  0  0
 18  6  1  1  0  0  0
 18 17  1  0  0  0  0
 19 12  2  0  0  0  0
 21 20  1  0  0  0  0
 21 24  1  0  0  0  0
 22 26  1  6  0  0  0
 23 22  1  0  0  0  0
 24 23  2  0  0  0  0
 25 20  1  6  0  0  0
 25 15  1  0  0  0  0
 25 22  1  0  0  0  0
 28 27  1  6  0  0  0
 28 13  1  0  0  0  0
 28 33  1  0  0  0  0
 29 27  1  0  0  0  0
 29 28  1  0  0  0  0
 30 35  1  6  0  0  0
 30 33  1  0  0  0  0
 30 36  1  0  0  0  0
 31 34  1  0  0  0  0
 32 31  1  0  0  0  0
 32 30  1  0  0  0  0
 33 34  1  6  0  0  0
 36 37  1  6  0  0  0
 36 40  1  0  0  0  0
 37 39  1  0  0  0  0
 38 37  2  0  0  0  0
 40 42  1  0  0  0  0
 42 41  1  1  0  0  0
 42 44  1  0  0  0  0
 44 45  1  1  0  0  0
 44 43  1  0  0  0  0
 46 52  1  0  0  0  0
 46 16  1  0  0  0  0
 47 51  2  0  0  0  0
 47 52  1  0  0  0  0
 48 50  2  0  0  0  0
 49 50  1  0  0  0  0
 51 48  1  0  0  0  0
 52 49  2  0  0  0  0
 53 48  1  6  0  0  0
 54 55  1  0  0  0  0
 54 53  1  0  0  0  0
 55 53  1  0  0  0  0
M  END
>  <MODEL>
1

>  <REMARK>
 VINA RESULT:      -4.8      0.000      0.000
  Name = 
  11 active torsions:
  status: ('A' for Active; 'I' for Inactive)
    1  A    between atoms: C_1  and  C_53
    2  A    between atoms: C_6  and  C_53
    3  A    between atoms: C_8  and  C_20
    4  A    between atoms: C_8  and  C_43
    5  A    between atoms: C_10  and  C_32
    6  A    between atoms: C_11  and  C_29
    7  A    between atoms: C_11  and  O_38
    8  A    between atoms: C_26  and  C_45
    9  A    between atoms: C_33  and  N_49
   10  A    between atoms: C_33  and  C_52
   11  A    between atoms: O_38  and  C_53
                            x       y       z     vdW  Elec       q    Type
                         _______ _______ _______ _____ _____    ______ ____

>  <TORSDO>
F 11

$$$$
=
 OpenBabel11052415093D

 55 62  0  0  1  0  0  0  0  0999 V2000
  188.8290  177.8200  138.0910 C   0  0  0  0  0  2  0  0  0  0  0  0
  184.2050  179.3870  137.9340 C   0  0  0  0  0  2  0  0  0  0  0  0
  183.6340  177.7660  135.6700 O   0  0  0  0  0  0  0  0  0  0  0  0
  185.6940  176.5800  135.6950 C   0  0  0  0  0  2  0  0  0  0  0  0
  189.1300  178.2530  140.5310 C   0  0  0  0  0  3  0  0  0  0  0  0
  186.3920  177.9920  140.9200 C   0  0  0  0  0  0  0  0  0  0  0  0
  188.7800  176.3680  137.6540 C   0  0  0  0  0  2  0  0  0  0  0  0
  186.9370  177.8290  139.6830 N   0  0  0  0  0  0  0  0  0  0  0  0
  184.5570  179.7070  139.3800 C   0  0  0  0  0  2  0  0  0  0  0  0
  185.0570  178.3200  137.4350 N   0  0  0  0  0  2  0  0  0  0  0  0
  184.7260  177.5690  136.2630 C   0  0  0  0  0  0  0  0  0  0  0  0
  188.5970  178.4000  141.8110 C   0  0  0  0  0  3  0  0  0  0  0  0
  184.0140  178.6470  140.3470 C   0  0  2  0  0  0  0  0  0  0  0  0
  188.2740  177.9650  139.4650 C   0  0  0  0  0  0  0  0  0  0  0  0
  186.5890  175.9790  136.7740 C   0  0  2  0  0  3  0  0  0  0  0  0
  187.9960  176.2540  136.4330 N   0  0  0  0  0  0  0  0  0  0  0  0
  184.3450  179.0080  141.7320 N   0  0  0  0  0  2  0  0  0  0  0  0
  184.9200  177.7870  141.1400 C   0  0  2  0  0  3  0  0  0  0  0  0
  187.2230  178.2660  142.0120 C   0  0  0  0  0  3  0  0  0  0  0  0
  186.7400  173.5580  135.9310 C   0  0  0  0  0  2  0  0  0  0  0  0
  185.9810  173.8350  134.6360 C   0  0  0  0  0  2  0  0  0  0  0  0
  184.7490  174.2670  137.3050 C   0  0  2  0  0  3  0  0  0  0  0  0
  183.9380  174.0740  136.0460 C   0  0  0  0  0  3  0  0  0  0  0  0
  184.4930  173.8370  134.8480 C   0  0  0  0  0  3  0  0  0  0  0  0
  186.2500  174.4890  137.0500 C   0  0  2  0  0  3  0  0  0  0  0  0
  184.5520  173.0760  138.2230 C   0  0  0  0  0  1  0  0  0  0  0  0
  181.5130  178.9940  141.0220 C   0  0  0  0  0  2  0  0  0  0  0  0
  182.5330  178.2450  140.2450 C   0  0  2  0  0  0  0  0  0  0  0  0
  182.0610  177.7820  141.4900 O   0  0  0  0  0  0  0  0  0  0  0  0
  180.5530  177.1590  138.9080 C   0  0  2  0  0  0  0  0  0  0  0  0
  181.5870  175.1930  138.8400 C   0  0  0  0  0  2  0  0  0  0  0  0
  180.3380  175.7910  139.0740 O   0  0  0  0  0  0  0  0  0  0  0  0
  182.0610  177.3500  139.0760 C   0  0  2  0  0  3  0  0  0  0  0  0
  182.6290  176.0770  139.1460 O   0  0  0  0  0  0  0  0  0  0  0  0
  179.7020  177.8990  139.9400 C   0  0  0  0  0  1  0  0  0  0  0  0
  180.1300  177.5590  137.4770 C   0  0  2  0  0  3  0  0  0  0  0  0
  179.9910  176.3950  136.5410 C   0  0  0  0  0  0  0  0  0  0  0  0
  178.9360  175.7060  136.5250 O   0  0  0  0  0  1  0  0  0  0  0  0
  181.0280  176.0840  135.6720 O   0  0  0  0  0  0  0  0  0  0  0  0
  181.0040  178.5160  136.9390 O   0  0  0  0  0  0  0  0  0  0  0  0
  180.8060  180.7580  137.7340 C   0  0  0  0  0  1  0  0  0  0  0  0
  180.2420  179.6820  136.8170 C   0  0  1  0  0  3  0  0  0  0  0  0
  181.1450  179.4320  134.5940 O   0  0  0  0  0  1  0  0  0  0  0  0
  180.2110  180.1340  135.3570 C   0  0  2  0  0  3  0  0  0  0  0  0
  180.4640  181.6260  135.2420 C   0  0  0  0  0  1  0  0  0  0  0  0
  188.5800  175.2080  135.5960 C   0  0  0  0  0  2  0  0  0  0  0  0
  190.4100  173.9950  136.7940 C   0  0  0  0  0  3  0  0  0  0  0  0
  192.7170  174.7330  136.6360 C   0  0  0  0  0  0  0  0  0  0  0  0
  190.9740  175.9130  135.4270 C   0  0  0  0  0  3  0  0  0  0  0  0
  192.3200  175.7620  135.7680 C   0  0  0  0  0  3  0  0  0  0  0  0
  191.7560  173.8420  137.1360 C   0  0  0  0  0  3  0  0  0  0  0  0
  190.0180  175.0290  135.9370 C   0  0  0  0  0  0  0  0  0  0  0  0
  194.1670  174.5450  136.9620 C   0  0  1  0  0  3  0  0  0  0  0  0
  194.9640  175.6480  136.4280 C   0  0  0  0  0  2  0  0  0  0  0  0
  194.6250  175.6240  137.8540 N   0  0  0  0  0  2  0  0  0  0  0  0
  1 14  1  0  0  0  0
  2  9  1  0  0  0  0
  3 11  2  0  0  0  0
  4 11  1  0  0  0  0
  5 12  1  0  0  0  0
  6 19  1  0  0  0  0
  7  1  1  0  0  0  0
  8  6  2  0  0  0  0
 10  2  1  0  0  0  0
 11 10  1  0  0  0  0
 12 19  2  0  0  0  0
 13  9  1  6  0  0  0
 13 18  1  0  0  0  0
 13 17  1  0  0  0  0
 14  8  1  0  0  0  0
 14  5  2  0  0  0  0
 15  4  1  6  0  0  0
 15 25  1  0  0  0  0
 16 15  1  0  0  0  0
 16  7  1  0  0  0  0
 18  6  1  6  0  0  0
 18 17  1  0  0  0  0
 21 24  1  0  0  0  0
 21 20  1  0  0  0  0
 22 26  1  1  0  0  0
 23 22  1  0  0  0  0
 24 23  2  0  0  0  0
 25 20  1  6  0  0  0
 25 22  1  0  0  0  0
 27 29  1  0  0  0  0
 28 13  1  0  0  0  0
 28 27  1  6  0  0  0
 28 29  1  0  0  0  0
 30 32  1  0  0  0  0
 30 33  1  0  0  0  0
 30 35  1  1  0  0  0
 31 32  1  0  0  0  0
 31 34  1  0  0  0  0
 33 34  1  1  0  0  0
 33 28  1  0  0  0  0
 36 37  1  6  0  0  0
 36 30  1  0  0  0  0
 38 37  1  0  0  0  0
 39 37  2  0  0  0  0
 40 36  1  0  0  0  0
 42 40  1  0  0  0  0
 42 41  1  1  0  0  0
 43 44  1  0  0  0  0
 44 45  1  1  0  0  0
 44 42  1  0  0  0  0
 46 52  1  0  0  0  0
 46 16  1  0  0  0  0
 47 51  1  0  0  0  0
 48 51  2  0  0  0  0
 49 50  2  0  0  0  0
 49 52  1  0  0  0  0
 50 48  1  0  0  0  0
 52 47  2  0  0  0  0
 53 48  1  6  0  0  0
 53 55  1  0  0  0  0
 54 53  1  0  0  0  0
 54 55  1  0  0  0  0
M  END
>  <MODEL>
2

>  <REMARK>
 VINA RESULT:      -3.1      2.340      4.557
  Name = 
  11 active torsions:
  status: ('A' for Active; 'I' for Inactive)
    1  A    between atoms: C_1  and  C_53
    2  A    between atoms: C_6  and  C_53
    3  A    between atoms: C_8  and  C_20
    4  A    between atoms: C_8  and  C_43
    5  A    between atoms: C_10  and  C_32
    6  A    between atoms: C_11  and  C_29
    7  A    between atoms: C_11  and  O_38
    8  A    between atoms: C_26  and  C_45
    9  A    between atoms: C_33  and  N_49
   10  A    between atoms: C_33  and  C_52
   11  A    between atoms: O_38  and  C_53
                            x       y       z     vdW  Elec       q    Type
                         _______ _______ _______ _____ _____    ______ ____

>  <TORSDO>
F 11

$$$$
=
 OpenBabel11052415093D

 55 62  0  0  1  0  0  0  0  0999 V2000
  187.4730  179.1850  141.2970 C   0  0  0  0  0  2  0  0  0  0  0  0
  184.9450  179.6140  137.1400 C   0  0  0  0  0  2  0  0  0  0  0  0
  187.2090  178.8940  135.5790 O   0  0  0  0  0  0  0  0  0  0  0  0
  188.5860  178.2830  137.4180 C   0  0  0  0  0  2  0  0  0  0  0  0
  185.4810  178.7120  142.7240 C   0  0  0  0  0  3  0  0  0  0  0  0
  184.1280  177.7150  140.5120 C   0  0  0  0  0  0  0  0  0  0  0  0
  188.4400  178.0380  141.0680 C   0  0  0  0  0  2  0  0  0  0  0  0
  185.4090  178.1620  140.4000 N   0  0  0  0  0  0  0  0  0  0  0  0
  183.8100  179.4290  138.1380 C   0  0  0  0  0  2  0  0  0  0  0  0
  186.1720  179.0380  137.6650 N   0  0  0  0  0  2  0  0  0  0  0  0
  187.2900  178.7360  136.8250 C   0  0  0  0  0  0  0  0  0  0  0  0
  184.1780  178.2360  142.8680 C   0  0  0  0  0  3  0  0  0  0  0  0
  183.2830  177.9880  138.1410 C   0  0  2  0  0  0  0  0  0  0  0  0
  186.0880  178.6680  141.4670 C   0  0  0  0  0  0  0  0  0  0  0  0
  188.3790  177.5330  138.7300 C   0  0  2  0  0  3  0  0  0  0  0  0
  189.1240  178.2250  139.7970 N   0  0  0  0  0  0  0  0  0  0  0  0
  182.1690  177.8580  139.0890 N   0  0  0  0  0  2  0  0  0  0  0  0
  183.4200  177.1170  139.3300 C   0  0  2  0  0  3  0  0  0  0  0  0
  183.4960  177.7310  141.7600 C   0  0  0  0  0  3  0  0  0  0  0  0
  190.1760  175.7200  138.4550 C   0  0  0  0  0  2  0  0  0  0  0  0
  190.7180  176.2860  137.1450 C   0  0  0  0  0  2  0  0  0  0  0  0
  187.9030  175.3740  137.4220 C   0  0  2  0  0  3  0  0  0  0  0  0
  188.6020  175.4940  136.0890 C   0  0  0  0  0  3  0  0  0  0  0  0
  189.8840  175.8650  135.9660 C   0  0  0  0  0  3  0  0  0  0  0  0
  188.6760  176.0160  138.5880 C   0  0  2  0  0  3  0  0  0  0  0  0
  187.6320  173.9130  137.7240 C   0  0  0  0  0  1  0  0  0  0  0  0
  183.9750  177.0660  135.7960 C   0  0  0  0  0  2  0  0  0  0  0  0
  182.9140  177.3340  136.7990 C   0  0  2  0  0  0  0  0  0  0  0  0
  183.1680  178.2190  135.7320 O   0  0  0  0  0  0  0  0  0  0  0  0
  181.5670  175.0870  136.6450 C   0  0  2  0  0  0  0  0  0  0  0  0
  180.3690  175.8410  134.9330 C   0  0  0  0  0  2  0  0  0  0  0  0
  181.0720  174.7170  135.3950 O   0  0  0  0  0  0  0  0  0  0  0  0
  181.5530  176.6160  136.6450 C   0  0  2  0  0  3  0  0  0  0  0  0
  180.8910  177.0180  135.4840 O   0  0  0  0  0  0  0  0  0  0  0  0
  182.9560  174.4660  136.8050 C   0  0  0  0  0  1  0  0  0  0  0  0
  180.6120  174.5540  137.7370 C   0  0  2  0  0  3  0  0  0  0  0  0
  179.9960  173.2270  137.4040 C   0  0  0  0  0  0  0  0  0  0  0  0
  178.9320  173.1630  136.7330 O   0  0  0  0  0  0  0  0  0  0  0  0
  180.6140  172.0570  137.8250 O   0  0  0  0  0  1  0  0  0  0  0  0
  179.6150  175.4930  138.0400 O   0  0  0  0  0  0  0  0  0  0  0  0
  180.7250  174.9540  140.0840 C   0  0  0  0  0  1  0  0  0  0  0  0
  179.4280  175.3970  139.4220 C   0  0  1  0  0  3  0  0  0  0  0  0
  179.0430  177.7440  139.0200 O   0  0  0  0  0  1  0  0  0  0  0  0
  178.9310  176.7320  139.9760 C   0  0  2  0  0  3  0  0  0  0  0  0
  179.6880  177.1180  141.2320 C   0  0  0  0  0  1  0  0  0  0  0  0
  190.4950  177.7370  139.9240 C   0  0  0  0  0  2  0  0  0  0  0  0
  191.5490  178.1210  142.1600 C   0  0  0  0  0  3  0  0  0  0  0  0
  191.3090  176.5040  143.9540 C   0  0  0  0  0  0  0  0  0  0  0  0
  190.2380  176.1150  141.8100 C   0  0  0  0  0  3  0  0  0  0  0  0
  190.5060  175.7110  143.1210 C   0  0  0  0  0  3  0  0  0  0  0  0
  191.8170  177.7190  143.4710 C   0  0  0  0  0  3  0  0  0  0  0  0
  190.7570  177.3210  141.3290 C   0  0  0  0  0  0  0  0  0  0  0  0
  191.5550  176.0910  145.3720 C   0  0  1  0  0  3  0  0  0  0  0  0
  191.6450  177.2620  146.2440 C   0  0  0  0  0  2  0  0  0  0  0  0
  190.4090  176.4740  146.2140 N   0  0  0  0  0  2  0  0  0  0  0  0
  1 14  1  0  0  0  0
  2 10  1  0  0  0  0
  2  9  1  0  0  0  0
  3 11  2  0  0  0  0
  5 12  1  0  0  0  0
  6 19  1  0  0  0  0
  7  1  1  0  0  0  0
  8  6  2  0  0  0  0
  8 14  1  0  0  0  0
 11  4  1  0  0  0  0
 11 10  1  0  0  0  0
 13  9  1  6  0  0  0
 13 17  1  0  0  0  0
 13 18  1  0  0  0  0
 14  5  2  0  0  0  0
 15  4  1  6  0  0  0
 15 16  1  0  0  0  0
 16 46  1  0  0  0  0
 16  7  1  0  0  0  0
 18 17  1  1  0  0  0
 18  6  1  0  0  0  0
 19 12  2  0  0  0  0
 21 20  1  0  0  0  0
 22 26  1  1  0  0  0
 22 25  1  0  0  0  0
 23 22  1  0  0  0  0
 24 23  2  0  0  0  0
 24 21  1  0  0  0  0
 25 20  1  6  0  0  0
 25 15  1  0  0  0  0
 28 27  1  6  0  0  0
 28 13  1  0  0  0  0
 29 27  1  0  0  0  0
 29 28  1  0  0  0  0
 30 35  1  1  0  0  0
 30 36  1  0  0  0  0
 31 32  1  0  0  0  0
 31 34  1  0  0  0  0
 32 30  1  0  0  0  0
 33 34  1  6  0  0  0
 33 30  1  0  0  0  0
 33 28  1  0  0  0  0
 36 37  1  6  0  0  0
 36 40  1  0  0  0  0
 37 39  1  0  0  0  0
 38 37  2  0  0  0  0
 40 42  1  0  0  0  0
 42 44  1  0  0  0  0
 42 41  1  1  0  0  0
 43 44  1  0  0  0  0
 44 45  1  1  0  0  0
 46 52  1  0  0  0  0
 47 51  1  0  0  0  0
 49 50  2  0  0  0  0
 50 48  1  0  0  0  0
 51 48  2  0  0  0  0
 52 49  1  0  0  0  0
 52 47  2  0  0  0  0
 53 48  1  6  0  0  0
 53 55  1  0  0  0  0
 53 54  1  0  0  0  0
 55 54  1  0  0  0  0
M  END
>  <MODEL>
3

>  <REMARK>
 VINA RESULT:      -2.7      3.506      6.024
  Name = 
  11 active torsions:
  status: ('A' for Active; 'I' for Inactive)
    1  A    between atoms: C_1  and  C_53
    2  A    between atoms: C_6  and  C_53
    3  A    between atoms: C_8  and  C_20
    4  A    between atoms: C_8  and  C_43
    5  A    between atoms: C_10  and  C_32
    6  A    between atoms: C_11  and  C_29
    7  A    between atoms: C_11  and  O_38
    8  A    between atoms: C_26  and  C_45
    9  A    between atoms: C_33  and  N_49
   10  A    between atoms: C_33  and  C_52
   11  A    between atoms: O_38  and  C_53
                            x       y       z     vdW  Elec       q    Type
                         _______ _______ _______ _____ _____    ______ ____

>  <TORSDO>
F 11

$$$$
=
 OpenBabel11052415093D

 55 62  0  0  1  0  0  0  0  0999 V2000
  187.3770  179.0620  141.2820 C   0  0  0  0  0  2  0  0  0  0  0  0
  184.6730  179.6530  137.2570 C   0  0  0  0  0  2  0  0  0  0  0  0
  186.8500  178.9330  135.5750 O   0  0  0  0  0  0  0  0  0  0  0  0
  188.2950  178.2450  137.3330 C   0  0  0  0  0  2  0  0  0  0  0  0
  185.4420  178.5880  142.7850 C   0  0  0  0  0  3  0  0  0  0  0  0
  183.9700  177.6780  140.6110 C   0  0  0  0  0  0  0  0  0  0  0  0
  188.3080  177.9030  140.9780 C   0  0  0  0  0  2  0  0  0  0  0  0
  185.2540  178.1040  140.4530 N   0  0  0  0  0  0  0  0  0  0  0  0
  183.5800  179.4620  138.3000 C   0  0  0  0  0  2  0  0  0  0  0  0
  185.9110  179.0390  137.7100 N   0  0  0  0  0  2  0  0  0  0  0  0
  186.9830  178.7390  136.8120 C   0  0  0  0  0  0  0  0  0  0  0  0
  184.1370  178.1340  142.9750 C   0  0  0  0  0  3  0  0  0  0  0  0
  183.0250  178.0320  138.2890 C   0  0  2  0  0  0  0  0  0  0  0  0
  185.9900  178.5670  141.5000 C   0  0  0  0  0  0  0  0  0  0  0  0
  188.1320  177.4640  138.6330 C   0  0  2  0  0  3  0  0  0  0  0  0
  188.9380  178.1120  139.6820 N   0  0  0  0  0  0  0  0  0  0  0  0
  181.9530  177.8980  139.2830 N   0  0  0  0  0  2  0  0  0  0  0  0
  183.1980  177.1270  139.4470 C   0  0  2  0  0  3  0  0  0  0  0  0
  183.3960  177.6730  141.8870 C   0  0  0  0  0  3  0  0  0  0  0  0
  189.8570  175.6370  138.1040 C   0  0  0  0  0  2  0  0  0  0  0  0
  190.2260  176.2130  136.7390 C   0  0  0  0  0  2  0  0  0  0  0  0
  187.4640  175.3240  137.3780 C   0  0  2  0  0  3  0  0  0  0  0  0
  187.9810  175.4530  135.9650 C   0  0  0  0  0  3  0  0  0  0  0  0
  189.2400  175.8130  135.6770 C   0  0  0  0  0  3  0  0  0  0  0  0
  188.3910  175.9460  138.4370 C   0  0  2  0  0  3  0  0  0  0  0  0
  187.2190  173.8620  137.6980 C   0  0  0  0  0  1  0  0  0  0  0  0
  183.5890  177.1730  135.8860 C   0  0  0  0  0  2  0  0  0  0  0  0
  182.5820  177.4220  136.9480 C   0  0  2  0  0  0  0  0  0  0  0  0
  182.7940  178.3370  135.8970 O   0  0  0  0  0  0  0  0  0  0  0  0
  181.2000  175.2610  136.3950 C   0  0  2  0  0  0  0  0  0  0  0  0
  179.7160  176.4270  135.2220 C   0  0  0  0  0  2  0  0  0  0  0  0
  180.4770  175.2480  135.2020 O   0  0  0  0  0  0  0  0  0  0  0  0
  181.2070  176.7230  136.8420 C   0  0  2  0  0  3  0  0  0  0  0  0
  180.3470  177.4160  135.9870 O   0  0  0  0  0  0  0  0  0  0  0  0
  182.5860  174.6790  136.1130 C   0  0  0  0  0  1  0  0  0  0  0  0
  180.4570  174.3980  137.4380 C   0  0  2  0  0  3  0  0  0  0  0  0
  180.0710  175.1480  138.6790 C   0  0  0  0  0  0  0  0  0  0  0  0
  180.7230  175.0010  139.7460 O   0  0  0  0  0  1  0  0  0  0  0  0
  178.9970  176.0270  138.6440 O   0  0  0  0  0  0  0  0  0  0  0  0
  181.1980  173.2540  137.7690 O   0  0  0  0  0  0  0  0  0  0  0  0
  178.9400  172.6530  137.2810 C   0  0  0  0  0  1  0  0  0  0  0  0
  180.3760  172.1730  137.4360 C   0  0  1  0  0  3  0  0  0  0  0  0
  180.0710  170.4300  135.7970 O   0  0  0  0  0  1  0  0  0  0  0  0
  180.8920  171.4970  136.1660 C   0  0  2  0  0  3  0  0  0  0  0  0
  182.3200  171.0140  136.3460 C   0  0  0  0  0  1  0  0  0  0  0  0
  190.3030  177.5940  139.7340 C   0  0  0  0  0  2  0  0  0  0  0  0
  190.1780  176.0370  141.6880 C   0  0  0  0  0  3  0  0  0  0  0  0
  191.2580  176.5770  143.7930 C   0  0  0  0  0  0  0  0  0  0  0  0
  191.4350  178.0960  141.9080 C   0  0  0  0  0  3  0  0  0  0  0  0
  191.7430  177.7670  143.2310 C   0  0  0  0  0  3  0  0  0  0  0  0
  190.4860  175.7070  143.0100 C   0  0  0  0  0  3  0  0  0  0  0  0
  190.6550  177.2300  141.1340 C   0  0  0  0  0  0  0  0  0  0  0  0
  191.6290  176.2060  145.1960 C   0  0  1  0  0  3  0  0  0  0  0  0
  191.6310  177.3860  146.0600 C   0  0  0  0  0  2  0  0  0  0  0  0
  190.4940  176.4600  146.0990 N   0  0  0  0  0  2  0  0  0  0  0  0
  1 14  1  0  0  0  0
  2 10  1  0  0  0  0
  2  9  1  0  0  0  0
  3 11  2  0  0  0  0
  5 12  1  0  0  0  0
  6 19  1  0  0  0  0
  7  1  1  0  0  0  0
  8  6  2  0  0  0  0
  8 14  1  0  0  0  0
 11  4  1  0  0  0  0
 11 10  1  0  0  0  0
 13  9  1  6  0  0  0
 13 17  1  0  0  0  0
 13 18  1  0  0  0  0
 14  5  2  0  0  0  0
 15  4  1  6  0  0  0
 15 16  1  0  0  0  0
 16 46  1  0  0  0  0
 16  7  1  0  0  0  0
 18 17  1  1  0  0  0
 18  6  1  0  0  0  0
 19 12  2  0  0  0  0
 21 20  1  0  0  0  0
 22 26  1  1  0  0  0
 22 25  1  0  0  0  0
 23 22  1  0  0  0  0
 24 23  2  0  0  0  0
 24 21  1  0  0  0  0
 25 20  1  6  0  0  0
 25 15  1  0  0  0  0
 27 29  1  0  0  0  0
 28 27  1  6  0  0  0
 28 13  1  0  0  0  0
 29 28  1  0  0  0  0
 30 35  1  6  0  0  0
 30 33  1  0  0  0  0
 30 36  1  0  0  0  0
 31 34  1  0  0  0  0
 32 31  1  0  0  0  0
 32 30  1  0  0  0  0
 33 34  1  6  0  0  0
 33 28  1  0  0  0  0
 36 40  1  1  0  0  0
 36 37  1  0  0  0  0
 37 38  1  0  0  0  0
 39 37  2  0  0  0  0
 42 41  1  6  0  0  0
 42 40  1  0  0  0  0
 43 44  1  0  0  0  0
 44 45  1  1  0  0  0
 44 42  1  0  0  0  0
 46 52  1  0  0  0  0
 47 51  1  0  0  0  0
 49 50  2  0  0  0  0
 50 48  1  0  0  0  0
 51 48  2  0  0  0  0
 52 47  2  0  0  0  0
 52 49  1  0  0  0  0
 53 48  1  6  0  0  0
 53 54  1  0  0  0  0
 53 55  1  0  0  0  0
 54 55  1  0  0  0  0
M  END
>  <MODEL>
4

>  <REMARK>
 VINA RESULT:      -2.4      3.594      6.520
  Name = 
  11 active torsions:
  status: ('A' for Active; 'I' for Inactive)
    1  A    between atoms: C_1  and  C_53
    2  A    between atoms: C_6  and  C_53
    3  A    between atoms: C_8  and  C_20
    4  A    between atoms: C_8  and  C_43
    5  A    between atoms: C_10  and  C_32
    6  A    between atoms: C_11  and  C_29
    7  A    between atoms: C_11  and  O_38
    8  A    between atoms: C_26  and  C_45
    9  A    between atoms: C_33  and  N_49
   10  A    between atoms: C_33  and  C_52
   11  A    between atoms: O_38  and  C_53
                            x       y       z     vdW  Elec       q    Type
                         _______ _______ _______ _____ _____    ______ ____

>  <TORSDO>
F 11

$$$$
=
 OpenBabel11052415093D

 55 62  0  0  1  0  0  0  0  0999 V2000
  187.3280  179.0550  141.2980 C   0  0  0  0  0  2  0  0  0  0  0  0
  184.5920  179.7560  137.3130 C   0  0  0  0  0  2  0  0  0  0  0  0
  186.7450  179.0480  135.5960 O   0  0  0  0  0  0  0  0  0  0  0  0
  188.2000  178.3100  137.3240 C   0  0  0  0  0  2  0  0  0  0  0  0
  185.4020  178.5700  142.8100 C   0  0  0  0  0  3  0  0  0  0  0  0
  183.9000  177.7200  140.6320 C   0  0  0  0  0  0  0  0  0  0  0  0
  188.2440  177.8930  140.9620 C   0  0  0  0  0  2  0  0  0  0  0  0
  185.1870  178.1360  140.4710 N   0  0  0  0  0  0  0  0  0  0  0  0
  183.5070  179.5560  138.3620 C   0  0  0  0  0  2  0  0  0  0  0  0
  185.8270  179.1210  137.7410 N   0  0  0  0  0  2  0  0  0  0  0  0
  186.8880  178.8280  136.8270 C   0  0  0  0  0  0  0  0  0  0  0  0
  184.0940  178.1250  143.0040 C   0  0  0  0  0  3  0  0  0  0  0  0
  182.9370  178.1320  138.3270 C   0  0  2  0  0  0  0  0  0  0  0  0
  185.9380  178.5700  141.5200 C   0  0  0  0  0  0  0  0  0  0  0  0
  188.0400  177.5040  138.6100 C   0  0  2  0  0  3  0  0  0  0  0  0
  188.8630  178.1220  139.6650 N   0  0  0  0  0  0  0  0  0  0  0  0
  181.8730  177.9880  139.3290 N   0  0  0  0  0  2  0  0  0  0  0  0
  183.1110  177.2020  139.4650 C   0  0  2  0  0  3  0  0  0  0  0  0
  183.3380  177.6950  141.9130 C   0  0  0  0  0  3  0  0  0  0  0  0
  189.7370  175.6730  138.0060 C   0  0  0  0  0  2  0  0  0  0  0  0
  190.0770  176.2710  136.6420 C   0  0  0  0  0  2  0  0  0  0  0  0
  187.3230  175.3930  137.3340 C   0  0  2  0  0  3  0  0  0  0  0  0
  187.8070  175.5430  135.9110 C   0  0  0  0  0  3  0  0  0  0  0  0
  189.0610  175.8980  135.5980 C   0  0  0  0  0  3  0  0  0  0  0  0
  188.2810  175.9870  138.3810 C   0  0  2  0  0  3  0  0  0  0  0  0
  187.0740  173.9270  137.6330 C   0  0  0  0  0  1  0  0  0  0  0  0
  183.3980  177.5740  135.8170 C   0  0  0  0  0  2  0  0  0  0  0  0
  182.4750  177.5550  136.9790 C   0  0  2  0  0  0  0  0  0  0  0  0
  182.4170  178.5690  136.0020 O   0  0  0  0  0  0  0  0  0  0  0  0
  181.3460  175.3700  136.0610 C   0  0  2  0  0  0  0  0  0  0  0  0
  179.4590  176.4530  135.6090 C   0  0  0  0  0  2  0  0  0  0  0  0
  180.3630  175.5170  135.0830 O   0  0  0  0  0  0  0  0  0  0  0  0
  181.2390  176.6270  136.9260 C   0  0  2  0  0  3  0  0  0  0  0  0
  180.1000  177.3160  136.5060 O   0  0  0  0  0  0  0  0  0  0  0  0
  182.6920  175.2000  135.3550 C   0  0  0  0  0  1  0  0  0  0  0  0
  181.0220  174.1200  136.9090 C   0  0  2  0  0  3  0  0  0  0  0  0
  180.3180  174.4310  138.1970 C   0  0  0  0  0  0  0  0  0  0  0  0
  180.9720  174.7270  139.2320 O   0  0  0  0  0  1  0  0  0  0  0  0
  178.9310  174.4090  138.2440 O   0  0  0  0  0  0  0  0  0  0  0  0
  182.1770  173.3630  137.1550 O   0  0  0  0  0  0  0  0  0  0  0  0
  181.0200  171.8920  135.6720 C   0  0  0  0  0  1  0  0  0  0  0  0
  181.7870  172.0310  136.9790 C   0  0  1  0  0  3  0  0  0  0  0  0
  184.1790  171.8540  137.2380 O   0  0  0  0  0  1  0  0  0  0  0  0
  183.0120  171.1180  137.0220 C   0  0  2  0  0  3  0  0  0  0  0  0
  183.1360  170.3100  135.7440 C   0  0  0  0  0  1  0  0  0  0  0  0
  190.2230  177.5890  139.6920 C   0  0  0  0  0  2  0  0  0  0  0  0
  191.5570  177.9850  141.7710 C   0  0  0  0  0  3  0  0  0  0  0  0
  191.3580  176.5110  143.6890 C   0  0  0  0  0  0  0  0  0  0  0  0
  190.0170  176.1170  141.7040 C   0  0  0  0  0  3  0  0  0  0  0  0
  190.3900  175.7630  143.0040 C   0  0  0  0  0  3  0  0  0  0  0  0
  191.9300  177.6330  143.0710 C   0  0  0  0  0  3  0  0  0  0  0  0
  190.5990  177.2290  141.0870 C   0  0  0  0  0  0  0  0  0  0  0  0
  191.7200  176.1570  145.0980 C   0  0  1  0  0  3  0  0  0  0  0  0
  191.6250  177.3290  145.9670 C   0  0  0  0  0  2  0  0  0  0  0  0
  190.5510  176.3300  145.9760 N   0  0  0  0  0  2  0  0  0  0  0  0
  1 14  1  0  0  0  0
  2 10  1  0  0  0  0
  2  9  1  0  0  0  0
  3 11  2  0  0  0  0
  5 12  1  0  0  0  0
  6 19  1  0  0  0  0
  7  1  1  0  0  0  0
  8  6  2  0  0  0  0
  8 14  1  0  0  0  0
 11  4  1  0  0  0  0
 11 10  1  0  0  0  0
 13  9  1  6  0  0  0
 13 17  1  0  0  0  0
 13 18  1  0  0  0  0
 14  5  2  0  0  0  0
 15  4  1  6  0  0  0
 15 16  1  0  0  0  0
 16 46  1  0  0  0  0
 16  7  1  0  0  0  0
 18 17  1  1  0  0  0
 18  6  1  0  0  0  0
 19 12  2  0  0  0  0
 21 20  1  0  0  0  0
 22 26  1  1  0  0  0
 22 25  1  0  0  0  0
 23 22  1  0  0  0  0
 24 23  2  0  0  0  0
 24 21  1  0  0  0  0
 25 20  1  6  0  0  0
 25 15  1  0  0  0  0
 27 29  1  0  0  0  0
 28 27  1  6  0  0  0
 28 13  1  0  0  0  0
 29 28  1  0  0  0  0
 30 35  1  6  0  0  0
 30 36  1  0  0  0  0
 30 33  1  0  0  0  0
 31 34  1  0  0  0  0
 32 31  1  0  0  0  0
 32 30  1  0  0  0  0
 33 34  1  6  0  0  0
 33 28  1  0  0  0  0
 36 40  1  1  0  0  0
 36 37  1  0  0  0  0
 37 39  2  0  0  0  0
 37 38  1  0  0  0  0
 42 41  1  6  0  0  0
 42 44  1  0  0  0  0
 42 40  1  0  0  0  0
 44 45  1  6  0  0  0
 44 43  1  0  0  0  0
 46 52  1  0  0  0  0
 47 51  1  0  0  0  0
 49 50  2  0  0  0  0
 50 48  1  0  0  0  0
 51 48  2  0  0  0  0
 52 49  1  0  0  0  0
 52 47  2  0  0  0  0
 53 48  1  6  0  0  0
 53 54  1  0  0  0  0
 53 55  1  0  0  0  0
 54 55  1  0  0  0  0
M  END
>  <MODEL>
5

>  <REMARK>
 VINA RESULT:      -2.3      3.680      6.484
  Name = 
  11 active torsions:
  status: ('A' for Active; 'I' for Inactive)
    1  A    between atoms: C_1  and  C_53
    2  A    between atoms: C_6  and  C_53
    3  A    between atoms: C_8  and  C_20
    4  A    between atoms: C_8  and  C_43
    5  A    between atoms: C_10  and  C_32
    6  A    between atoms: C_11  and  C_29
    7  A    between atoms: C_11  and  O_38
    8  A    between atoms: C_26  and  C_45
    9  A    between atoms: C_33  and  N_49
   10  A    between atoms: C_33  and  C_52
   11  A    between atoms: O_38  and  C_53
                            x       y       z     vdW  Elec       q    Type
                         _______ _______ _______ _____ _____    ______ ____

>  <TORSDO>
F 11

$$$$
=
 OpenBabel11052415093D

 55 62  0  0  1  0  0  0  0  0999 V2000
  181.3700  180.6990  138.6210 C   0  0  0  0  0  2  0  0  0  0  0  0
  185.6490  178.5510  137.6520 C   0  0  0  0  0  2  0  0  0  0  0  0
  186.0230  177.8540  140.3830 O   0  0  0  0  0  0  0  0  0  0  0  0
  183.8540  178.5120  141.1000 C   0  0  0  0  0  2  0  0  0  0  0  0
  180.4380  180.3890  136.3260 C   0  0  0  0  0  3  0  0  0  0  0  0
  182.1000  178.1950  135.9430 C   0  0  0  0  0  0  0  0  0  0  0  0
  180.7440  179.8750  139.7310 C   0  0  0  0  0  2  0  0  0  0  0  0
  182.1030  178.8730  137.1240 N   0  0  0  0  0  0  0  0  0  0  0  0
  185.0080  178.5290  136.2710 C   0  0  0  0  0  2  0  0  0  0  0  0
  184.6230  178.6200  138.6800 N   0  0  0  0  0  2  0  0  0  0  0  0
  184.8910  178.2910  140.0460 C   0  0  0  0  0  0  0  0  0  0  0  0
  180.3990  179.6950  135.1170 C   0  0  0  0  0  3  0  0  0  0  0  0
  184.4080  177.1550  135.9440 C   0  0  2  0  0  0  0  0  0  0  0  0
  181.3080  179.9590  137.3310 C   0  0  0  0  0  0  0  0  0  0  0  0
  182.4410  178.3940  140.5390 C   0  0  2  0  0  3  0  0  0  0  0  0
  181.7230  179.6580  140.7860 N   0  0  0  0  0  0  0  0  0  0  0  0
  183.8310  177.1640  134.5940 N   0  0  0  0  0  2  0  0  0  0  0  0
  182.9510  176.9720  135.7600 C   0  0  2  0  0  3  0  0  0  0  0  0
  181.2290  178.5910  134.9210 C   0  0  0  0  0  3  0  0  0  0  0  0
  182.4520  175.8270  140.6210 C   0  0  0  0  0  2  0  0  0  0  0  0
  182.4120  175.6590  139.1040 C   0  0  0  0  0  2  0  0  0  0  0  0
  180.2500  177.0540  140.5900 C   0  0  2  0  0  3  0  0  0  0  0  0
  180.0540  176.4620  139.2150 C   0  0  0  0  0  3  0  0  0  0  0  0
  181.0170  175.7960  138.5620 C   0  0  0  0  0  3  0  0  0  0  0  0
  181.7210  177.1120  141.0370 C   0  0  2  0  0  3  0  0  0  0  0  0
  179.4320  176.2730  141.6000 C   0  0  0  0  0  1  0  0  0  0  0  0
  184.6570  174.6390  136.6030 C   0  0  0  0  0  2  0  0  0  0  0  0
  185.2800  175.9040  136.1380 C   0  0  2  0  0  0  0  0  0  0  0  0
  185.3000  175.5210  137.4940 O   0  0  0  0  0  0  0  0  0  0  0  0
  187.8860  175.8400  136.4460 C   0  0  2  0  0  0  0  0  0  0  0  0
  188.1810  177.3490  134.8420 C   0  0  0  0  0  2  0  0  0  0  0  0
  188.5990  176.9970  136.1350 O   0  0  0  0  0  0  0  0  0  0  0  0
  186.6860  175.8430  135.4970 C   0  0  2  0  0  3  0  0  0  0  0  0
  186.8820  176.8890  134.5940 O   0  0  0  0  0  0  0  0  0  0  0  0
  187.5200  175.8940  137.9290 C   0  0  0  0  0  1  0  0  0  0  0  0
  188.7790  174.6130  136.1570 C   0  0  2  0  0  3  0  0  0  0  0  0
  188.0790  173.2990  136.3460 C   0  0  0  0  0  0  0  0  0  0  0  0
  187.1410  172.9550  135.5770 O   0  0  0  0  0  0  0  0  0  0  0  0
  188.4790  172.4470  137.3660 O   0  0  0  0  0  1  0  0  0  0  0  0
  189.9550  174.6520  136.9200 O   0  0  0  0  0  0  0  0  0  0  0  0
  190.5730  175.0140  134.6420 C   0  0  0  0  0  1  0  0  0  0  0  0
  190.9950  174.4750  136.0020 C   0  0  1  0  0  3  0  0  0  0  0  0
  193.2710  174.2120  136.7560 O   0  0  0  0  0  1  0  0  0  0  0  0
  192.2660  175.1510  136.5150 C   0  0  2  0  0  3  0  0  0  0  0  0
  191.9900  175.9500  137.7740 C   0  0  0  0  0  1  0  0  0  0  0  0
  181.0350  179.6640  142.0740 C   0  0  0  0  0  2  0  0  0  0  0  0
  181.6410  178.5300  144.2200 C   0  0  0  0  0  3  0  0  0  0  0  0
  183.8010  178.8940  145.2640 C   0  0  0  0  0  0  0  0  0  0  0  0
  183.2650  179.9820  143.1620 C   0  0  0  0  0  3  0  0  0  0  0  0
  184.1650  179.7350  144.2030 C   0  0  0  0  0  3  0  0  0  0  0  0
  182.5400  178.2810  145.2610 C   0  0  0  0  0  3  0  0  0  0  0  0
  182.0040  179.3780  143.1680 C   0  0  0  0  0  0  0  0  0  0  0  0
  184.7850  178.5950  146.3540 C   0  0  1  0  0  3  0  0  0  0  0  0
  186.1520  178.6080  145.8350 C   0  0  0  0  0  2  0  0  0  0  0  0
  185.6490  179.7640  146.5850 N   0  0  0  0  0  2  0  0  0  0  0  0
  1  7  1  0  0  0  0
  2 10  1  0  0  0  0
  5 14  1  0  0  0  0
  6  8  1  0  0  0  0
  7 16  1  0  0  0  0
  8 14  2  0  0  0  0
  9  2  1  0  0  0  0
 10 11  1  0  0  0  0
 11  3  2  0  0  0  0
 11  4  1  0  0  0  0
 12  5  2  0  0  0  0
 13 28  1  0  0  0  0
 13  9  1  1  0  0  0
 14  1  1  0  0  0  0
 15 16  1  0  0  0  0
 15 25  1  0  0  0  0
 15  4  1  1  0  0  0
 16 46  1  0  0  0  0
 17 13  1  0  0  0  0
 18 17  1  6  0  0  0
 18  6  1  0  0  0  0
 18 13  1  0  0  0  0
 19 12  1  0  0  0  0
 19  6  2  0  0  0  0
 21 20  1  0  0  0  0
 22 25  1  0  0  0  0
 22 26  1  1  0  0  0
 23 22  1  0  0  0  0
 24 21  1  0  0  0  0
 24 23  2  0  0  0  0
 25 20  1  6  0  0  0
 27 29  1  0  0  0  0
 28 27  1  6  0  0  0
 28 29  1  0  0  0  0
 30 35  1  1  0  0  0
 31 32  1  0  0  0  0
 32 30  1  0  0  0  0
 33 34  1  6  0  0  0
 33 28  1  0  0  0  0
 33 30  1  0  0  0  0
 34 31  1  0  0  0  0
 36 37  1  1  0  0  0
 36 30  1  0  0  0  0
 36 40  1  0  0  0  0
 37 39  1  0  0  0  0
 38 37  2  0  0  0  0
 42 41  1  6  0  0  0
 42 44  1  0  0  0  0
 42 40  1  0  0  0  0
 44 43  1  0  0  0  0
 44 45  1  1  0  0  0
 46 52  1  0  0  0  0
 47 51  1  0  0  0  0
 49 52  1  0  0  0  0
 49 50  2  0  0  0  0
 50 48  1  0  0  0  0
 51 48  2  0  0  0  0
 52 47  2  0  0  0  0
 53 48  1  6  0  0  0
 53 55  1  0  0  0  0
 54 53  1  0  0  0  0
 54 55  1  0  0  0  0
M  END
>  <MODEL>
6

>  <REMARK>
 VINA RESULT:      -2.2      3.796     10.486
  Name = 
  11 active torsions:
  status: ('A' for Active; 'I' for Inactive)
    1  A    between atoms: C_1  and  C_53
    2  A    between atoms: C_6  and  C_53
    3  A    between atoms: C_8  and  C_20
    4  A    between atoms: C_8  and  C_43
    5  A    between atoms: C_10  and  C_32
    6  A    between atoms: C_11  and  C_29
    7  A    between atoms: C_11  and  O_38
    8  A    between atoms: C_26  and  C_45
    9  A    between atoms: C_33  and  N_49
   10  A    between atoms: C_33  and  C_52
   11  A    between atoms: O_38  and  C_53
                            x       y       z     vdW  Elec       q    Type
                         _______ _______ _______ _____ _____    ______ ____

>  <TORSDO>
F 11

$$$$
=
 OpenBabel11052415093D

 55 62  0  0  1  0  0  0  0  0999 V2000
  181.6450  180.8440  138.7290 C   0  0  0  0  0  2  0  0  0  0  0  0
  185.5940  178.1320  137.7770 C   0  0  0  0  0  2  0  0  0  0  0  0
  185.7570  177.2530  140.4760 O   0  0  0  0  0  0  0  0  0  0  0  0
  183.6830  178.1920  141.1610 C   0  0  0  0  0  2  0  0  0  0  0  0
  180.7670  180.7900  136.3940 C   0  0  0  0  0  3  0  0  0  0  0  0
  182.1000  178.3940  135.9430 C   0  0  0  0  0  0  0  0  0  0  0  0
  180.8630  180.0690  139.7730 C   0  0  0  0  0  2  0  0  0  0  0  0
  182.1590  179.0050  137.1590 N   0  0  0  0  0  0  0  0  0  0  0  0
  185.0110  178.2730  136.3780 C   0  0  0  0  0  2  0  0  0  0  0  0
  184.5510  178.3020  138.7750 N   0  0  0  0  0  2  0  0  0  0  0  0
  184.7160  177.8700  140.1280 C   0  0  0  0  0  0  0  0  0  0  0  0
  180.6720  180.1700  135.1480 C   0  0  0  0  0  3  0  0  0  0  0  0
  184.2280  177.0220  135.9580 C   0  0  2  0  0  0  0  0  0  0  0  0
  181.5250  180.1860  137.4000 C   0  0  0  0  0  0  0  0  0  0  0  0
  182.2910  178.3140  140.5510 C   0  0  2  0  0  3  0  0  0  0  0  0
  181.7590  179.6570  140.8440 N   0  0  0  0  0  0  0  0  0  0  0  0
  183.7100  177.1830  134.5940 N   0  0  0  0  0  2  0  0  0  0  0  0
  182.7680  177.0680  135.7200 C   0  0  2  0  0  3  0  0  0  0  0  0
  181.3370  178.9650  134.9190 C   0  0  0  0  0  3  0  0  0  0  0  0
  181.8620  175.7860  140.4020 C   0  0  0  0  0  2  0  0  0  0  0  0
  181.7660  175.7710  138.8780 C   0  0  0  0  0  2  0  0  0  0  0  0
  179.9030  177.3660  140.5580 C   0  0  2  0  0  3  0  0  0  0  0  0
  179.5820  176.9470  139.1430 C   0  0  0  0  0  3  0  0  0  0  0  0
  180.4040  176.1930  138.3990 C   0  0  0  0  0  3  0  0  0  0  0  0
  181.3710  177.1310  140.9570 C   0  0  2  0  0  3  0  0  0  0  0  0
  178.9830  176.6420  141.5220 C   0  0  0  0  0  1  0  0  0  0  0  0
  184.4970  174.5310  135.2160 C   0  0  0  0  0  2  0  0  0  0  0  0
  184.8980  175.6460  136.1110 C   0  0  2  0  0  0  0  0  0  0  0  0
  183.9520  174.6790  136.5070 O   0  0  0  0  0  0  0  0  0  0  0  0
  187.5180  175.7920  136.1350 C   0  0  2  0  0  0  0  0  0  0  0  0
  187.6820  173.8900  137.2710 C   0  0  0  0  0  2  0  0  0  0  0  0
  188.2290  174.5930  136.1860 O   0  0  0  0  0  0  0  0  0  0  0  0
  186.2220  175.5220  136.8990 C   0  0  2  0  0  3  0  0  0  0  0  0
  186.3490  174.2620  137.4870 O   0  0  0  0  0  0  0  0  0  0  0  0
  187.3200  176.1610  134.6640 C   0  0  0  0  0  1  0  0  0  0  0  0
  188.3350  176.8870  136.8570 C   0  0  2  0  0  3  0  0  0  0  0  0
  189.5410  177.3440  136.0910 C   0  0  0  0  0  0  0  0  0  0  0  0
  190.4140  176.5180  135.7150 O   0  0  0  0  0  0  0  0  0  0  0  0
  189.6870  178.6890  135.7800 O   0  0  0  0  0  1  0  0  0  0  0  0
  188.7020  176.4760  138.1470 O   0  0  0  0  0  0  0  0  0  0  0  0
  189.0040  178.5800  139.2330 C   0  0  0  0  0  1  0  0  0  0  0  0
  189.6750  177.3900  138.5620 C   0  0  1  0  0  3  0  0  0  0  0  0
  190.8080  177.3980  140.6910 O   0  0  0  0  0  1  0  0  0  0  0  0
  190.6780  176.7020  139.4880 C   0  0  2  0  0  3  0  0  0  0  0  0
  192.0320  176.5620  138.8190 C   0  0  0  0  0  1  0  0  0  0  0  0
  181.0300  179.7020  142.1100 C   0  0  0  0  0  2  0  0  0  0  0  0
  181.5570  178.5080  144.2430 C   0  0  0  0  0  3  0  0  0  0  0  0
  183.6610  178.8730  145.3980 C   0  0  0  0  0  0  0  0  0  0  0  0
  183.2020  180.0210  143.3090 C   0  0  0  0  0  3  0  0  0  0  0  0
  184.0570  179.7550  144.3820 C   0  0  0  0  0  3  0  0  0  0  0  0
  182.4120  178.2400  145.3160 C   0  0  0  0  0  3  0  0  0  0  0  0
  181.9520  179.3960  143.2370 C   0  0  0  0  0  0  0  0  0  0  0  0
  184.5980  178.5540  146.5220 C   0  0  1  0  0  3  0  0  0  0  0  0
  185.9160  178.1850  146.0070 C   0  0  0  0  0  2  0  0  0  0  0  0
  185.7000  179.5310  146.5490 N   0  0  0  0  0  2  0  0  0  0  0  0
  1  7  1  0  0  0  0
  2 10  1  0  0  0  0
  5 14  1  0  0  0  0
  6  8  1  0  0  0  0
  7 16  1  0  0  0  0
  8 14  2  0  0  0  0
  9  2  1  0  0  0  0
 10 11  1  0  0  0  0
 11  3  2  0  0  0  0
 11  4  1  0  0  0  0
 12  5  2  0  0  0  0
 13 28  1  0  0  0  0
 13  9  1  1  0  0  0
 14  1  1  0  0  0  0
 15 16  1  0  0  0  0
 15 25  1  0  0  0  0
 15  4  1  1  0  0  0
 16 46  1  0  0  0  0
 17 13  1  0  0  0  0
 18 17  1  6  0  0  0
 18  6  1  0  0  0  0
 18 13  1  0  0  0  0
 19 12  1  0  0  0  0
 19  6  2  0  0  0  0
 21 20  1  0  0  0  0
 22 25  1  0  0  0  0
 22 26  1  1  0  0  0
 23 22  1  0  0  0  0
 24 21  1  0  0  0  0
 24 23  2  0  0  0  0
 25 20  1  6  0  0  0
 27 29  1  0  0  0  0
 28 27  1  6  0  0  0
 28 29  1  0  0  0  0
 28 33  1  0  0  0  0
 30 35  1  6  0  0  0
 30 32  1  0  0  0  0
 30 36  1  0  0  0  0
 30 33  1  0  0  0  0
 31 34  1  0  0  0  0
 32 31  1  0  0  0  0
 33 34  1  6  0  0  0
 36 37  1  6  0  0  0
 36 40  1  0  0  0  0
 38 37  2  0  0  0  0
 39 37  1  0  0  0  0
 40 42  1  0  0  0  0
 42 41  1  1  0  0  0
 42 44  1  0  0  0  0
 44 45  1  6  0  0  0
 44 43  1  0  0  0  0
 46 52  1  0  0  0  0
 47 51  1  0  0  0  0
 49 50  2  0  0  0  0
 50 48  1  0  0  0  0
 51 48  2  0  0  0  0
 52 49  1  0  0  0  0
 52 47  2  0  0  0  0
 53 48  1  6  0  0  0
 53 55  1  0  0  0  0
 54 53  1  0  0  0  0
 54 55  1  0  0  0  0
M  END
>  <MODEL>
7

>  <REMARK>
 VINA RESULT:      -2.2      3.979     10.292
  Name = 
  11 active torsions:
  status: ('A' for Active; 'I' for Inactive)
    1  A    between atoms: C_1  and  C_53
    2  A    between atoms: C_6  and  C_53
    3  A    between atoms: C_8  and  C_20
    4  A    between atoms: C_8  and  C_43
    5  A    between atoms: C_10  and  C_32
    6  A    between atoms: C_11  and  C_29
    7  A    between atoms: C_11  and  O_38
    8  A    between atoms: C_26  and  C_45
    9  A    between atoms: C_33  and  N_49
   10  A    between atoms: C_33  and  C_52
   11  A    between atoms: O_38  and  C_53
                            x       y       z     vdW  Elec       q    Type
                         _______ _______ _______ _____ _____    ______ ____

>  <TORSDO>
F 11

$$$$
=
 OpenBabel11052415093D

 55 62  0  0  1  0  0  0  0  0999 V2000
  185.8950  178.9080  136.6840 C   0  0  0  0  0  2  0  0  0  0  0  0
  186.7320  179.3770  141.4730 C   0  0  0  0  0  2  0  0  0  0  0  0
  183.9860  178.9690  142.0880 O   0  0  0  0  0  0  0  0  0  0  0  0
  183.3320  178.3660  139.8840 C   0  0  0  0  0  2  0  0  0  0  0  0
  188.2100  178.1640  136.1230 C   0  0  0  0  0  3  0  0  0  0  0  0
  188.5300  177.1950  138.7070 C   0  0  0  0  0  0  0  0  0  0  0  0
  184.7940  177.8700  136.5640 C   0  0  0  0  0  2  0  0  0  0  0  0
  187.3550  177.7640  138.3180 N   0  0  0  0  0  0  0  0  0  0  0  0
  188.1290  179.0250  140.9810 C   0  0  0  0  0  2  0  0  0  0  0  0
  185.7320  178.8820  140.5410 N   0  0  0  0  0  2  0  0  0  0  0  0
  184.3570  178.7380  140.9070 C   0  0  0  0  0  0  0  0  0  0  0  0
  189.4140  177.5630  136.4920 C   0  0  0  0  0  3  0  0  0  0  0  0
  188.4590  177.5460  141.2140 C   0  0  2  0  0  0  0  0  0  0  0  0
  187.1790  178.2580  137.0610 C   0  0  0  0  0  0  0  0  0  0  0  0
  183.9280  177.5160  138.7660 C   0  0  2  0  0  3  0  0  0  0  0  0
  183.7120  178.2020  137.4800 N   0  0  0  0  0  0  0  0  0  0  0  0
  189.8240  177.2530  140.7570 N   0  0  0  0  0  2  0  0  0  0  0  0
  188.6790  176.6150  140.0840 C   0  0  2  0  0  3  0  0  0  0  0  0
  189.5770  177.0730  137.7880 C   0  0  0  0  0  3  0  0  0  0  0  0
  184.5780  175.0360  138.6280 C   0  0  0  0  0  2  0  0  0  0  0  0
  185.1390  175.1380  137.2120 C   0  0  0  0  0  2  0  0  0  0  0  0
  182.3000  175.7640  137.8300 C   0  0  2  0  0  3  0  0  0  0  0  0
  182.7800  175.4010  136.4450 C   0  0  0  0  0  3  0  0  0  0  0  0
  184.0530  175.0770  136.1730 C   0  0  0  0  0  3  0  0  0  0  0  0
  183.4380  176.0450  138.8270 C   0  0  2  0  0  3  0  0  0  0  0  0
  181.4050  174.6620  138.3620 C   0  0  0  0  0  1  0  0  0  0  0  0
  186.8680  176.5240  143.0170 C   0  0  0  0  0  2  0  0  0  0  0  0
  188.2310  176.9500  142.6140 C   0  0  2  0  0  0  0  0  0  0  0  0
  187.3870  177.7850  143.3730 O   0  0  0  0  0  0  0  0  0  0  0  0
  190.3080  177.4960  144.1230 C   0  0  2  0  0  0  0  0  0  0  0  0
  191.5840  176.0600  143.0060 C   0  0  0  0  0  2  0  0  0  0  0  0
  191.5720  177.3530  143.5530 O   0  0  0  0  0  0  0  0  0  0  0  0
  189.4380  176.4420  143.4360 C   0  0  2  0  0  3  0  0  0  0  0  0
  190.2890  175.6530  142.6590 O   0  0  0  0  0  0  0  0  0  0  0  0
  189.8500  178.9380  143.9000 C   0  0  0  0  0  1  0  0  0  0  0  0
  190.4050  177.1910  145.6340 C   0  0  2  0  0  3  0  0  0  0  0  0
  191.5900  176.3480  146.0050 C   0  0  0  0  0  0  0  0  0  0  0  0
  191.8360  175.2790  145.3850 O   0  0  0  0  0  0  0  0  0  0  0  0
  192.4310  176.7580  147.0300 O   0  0  0  0  0  1  0  0  0  0  0  0
  189.2220  176.6070  146.1100 O   0  0  0  0  0  0  0  0  0  0  0  0
  187.0740  177.5830  146.4760 C   0  0  0  0  0  1  0  0  0  0  0  0
  188.5610  177.6260  146.8020 C   0  0  1  0  0  3  0  0  0  0  0  0
  187.6260  177.5220  149.0230 O   0  0  0  0  0  1  0  0  0  0  0  0
  188.8210  177.4940  148.3020 C   0  0  2  0  0  3  0  0  0  0  0  0
  189.7500  178.5880  148.7940 C   0  0  0  0  0  1  0  0  0  0  0  0
  182.4420  177.8320  136.8600 C   0  0  0  0  0  2  0  0  0  0  0  0
  181.3810  180.0320  137.3980 C   0  0  0  0  0  3  0  0  0  0  0  0
  180.2490  181.3310  135.6890 C   0  0  0  0  0  0  0  0  0  0  0  0
  181.3000  179.2180  135.1190 C   0  0  0  0  0  3  0  0  0  0  0  0
  180.5820  180.3550  134.7380 C   0  0  0  0  0  3  0  0  0  0  0  0
  180.6640  181.1700  137.0190 C   0  0  0  0  0  3  0  0  0  0  0  0
  181.7020  179.0570  136.4490 C   0  0  0  0  0  0  0  0  0  0  0  0
  179.5210  182.5700  135.2670 C   0  0  1  0  0  3  0  0  0  0  0  0
  179.7400  183.6500  136.2270 C   0  0  0  0  0  2  0  0  0  0  0  0
  180.4840  183.6410  134.9640 N   0  0  0  0  0  2  0  0  0  0  0  0
  1 14  1  0  0  0  0
  4 11  1  0  0  0  0
  5 12  2  0  0  0  0
  5 14  1  0  0  0  0
  7  1  1  0  0  0  0
  7 16  1  0  0  0  0
  8  6  1  0  0  0  0
  9  2  1  0  0  0  0
 10 11  1  0  0  0  0
 10  2  1  0  0  0  0
 11  3  2  0  0  0  0
 12 19  1  0  0  0  0
 13  9  1  6  0  0  0
 13 28  1  0  0  0  0
 14  8  2  0  0  0  0
 15 25  1  0  0  0  0
 15  4  1  1  0  0  0
 16 15  1  0  0  0  0
 17 13  1  0  0  0  0
 18  6  1  6  0  0  0
 18 17  1  0  0  0  0
 18 13  1  0  0  0  0
 19  6  2  0  0  0  0
 21 20  1  0  0  0  0
 22 26  1  1  0  0  0
 22 25  1  0  0  0  0
 23 22  1  0  0  0  0
 24 23  2  0  0  0  0
 24 21  1  0  0  0  0
 25 20  1  6  0  0  0
 27 29  1  0  0  0  0
 28 27  1  6  0  0  0
 28 29  1  0  0  0  0
 28 33  1  0  0  0  0
 30 35  1  6  0  0  0
 30 36  1  0  0  0  0
 31 32  1  0  0  0  0
 32 30  1  0  0  0  0
 33 34  1  6  0  0  0
 33 30  1  0  0  0  0
 34 31  1  0  0  0  0
 36 37  1  6  0  0  0
 36 40  1  0  0  0  0
 37 39  1  0  0  0  0
 38 37  2  0  0  0  0
 40 42  1  0  0  0  0
 42 41  1  1  0  0  0
 42 44  1  0  0  0  0
 44 45  1  1  0  0  0
 44 43  1  0  0  0  0
 46 16  1  0  0  0  0
 48 51  2  0  0  0  0
 49 52  1  0  0  0  0
 50 49  2  0  0  0  0
 50 48  1  0  0  0  0
 51 47  1  0  0  0  0
 52 46  1  0  0  0  0
 52 47  2  0  0  0  0
 53 48  1  1  0  0  0
 53 54  1  0  0  0  0
 55 53  1  0  0  0  0
 55 54  1  0  0  0  0
M  END
>  <MODEL>
8

>  <REMARK>
 VINA RESULT:      -2.2      4.251      9.721
  Name = 
  11 active torsions:
  status: ('A' for Active; 'I' for Inactive)
    1  A    between atoms: C_1  and  C_53
    2  A    between atoms: C_6  and  C_53
    3  A    between atoms: C_8  and  C_20
    4  A    between atoms: C_8  and  C_43
    5  A    between atoms: C_10  and  C_32
    6  A    between atoms: C_11  and  C_29
    7  A    between atoms: C_11  and  O_38
    8  A    between atoms: C_26  and  C_45
    9  A    between atoms: C_33  and  N_49
   10  A    between atoms: C_33  and  C_52
   11  A    between atoms: O_38  and  C_53
                            x       y       z     vdW  Elec       q    Type
                         _______ _______ _______ _____ _____    ______ ____

>  <TORSDO>
F 11

$$$$
