=
 OpenBabel11052414133D

 34 38  0  0  1  0  0  0  0  0999 V2000
  182.6720  178.6690  141.4420 C   0  0  0  0  0  0  0  0  0  0  0  0
  181.6020  178.8090  143.6110 C   0  0  0  0  0  3  0  0  0  0  0  0
  184.0640  178.7290  143.4480 C   0  0  0  0  0  0  0  0  0  0  0  0
  185.5940  178.5760  145.4470 N   0  0  0  0  0  0  0  0  0  0  0  0
  180.2580  178.7490  141.5990 C   0  0  0  0  0  3  0  0  0  0  0  0
  179.1160  178.8900  143.8150 C   0  0  0  0  0  1  0  0  0  0  0  0
  183.3590  179.1970  145.6870 O   0  0  0  0  0  0  0  0  0  0  0  0
  182.7810  178.7400  142.8500 C   0  0  0  0  0  0  0  0  0  0  0  0
  181.4180  178.6760  140.8250 C   0  0  0  0  0  3  0  0  0  0  0  0
  185.1990  178.6160  142.6110 C   0  0  0  0  0  0  0  0  0  0  0  0
  183.8240  178.5940  140.6650 C   0  0  0  0  0  3  0  0  0  0  0  0
  180.3500  178.8140  142.9910 C   0  0  0  0  0  0  0  0  0  0  0  0
  186.6210  177.9980  144.5880 C   0  0  0  0  0  2  0  0  0  0  0  0
  186.5920  178.6540  143.2080 C   0  0  1  0  0  3  0  0  0  0  0  0
  184.2860  178.8360  144.9150 C   0  0  0  0  0  0  0  0  0  0  0  0
  185.0440  178.5760  141.2580 N   0  0  0  0  0  0  0  0  0  0  0  0
  189.0060  178.0730  140.3160 C   0  0  0  0  0  0  0  0  0  0  0  0
  189.5820  176.8550  140.6910 C   0  0  0  0  0  3  0  0  0  0  0  0
  187.6300  178.0360  142.3160 C   0  0  0  0  0  0  0  0  0  0  0  0
  189.1840  176.2280  141.8750 C   0  0  0  0  0  3  0  0  0  0  0  0
  188.0310  178.6630  141.1260 C   0  0  0  0  0  3  0  0  0  0  0  0
  188.2110  176.8180  142.6860 C   0  0  0  0  0  3  0  0  0  0  0  0
  189.3910  178.6800  139.1690 F   0  0  0  0  0  0  0  0  0  0  0  0
  185.9160  178.9110  146.8300 C   0  0  0  0  0  2  0  0  0  0  0  0
  186.7130  177.7890  147.4850 C   0  0  0  0  0  2  0  0  0  0  0  0
  188.0680  178.2770  147.9740 C   0  0  0  0  0  2  0  0  0  0  0  0
  189.0580  177.1240  148.0410 C   0  0  0  0  0  2  0  0  0  0  0  0
  192.0980  176.8250  147.8880 N   0  0  0  0  0  1  0  0  0  0  0  0
  189.9500  177.1410  146.8910 N   0  0  0  0  0  0  0  0  0  0  0  0
  191.1550  176.3020  146.9130 C   0  0  1  0  0  3  0  0  0  0  0  0
  191.5470  177.1210  144.6000 C   0  0  0  0  0  3  0  0  0  0  0  0
  190.5210  178.1560  144.7920 C   0  0  0  0  0  3  0  0  0  0  0  0
  189.7630  178.1490  145.8870 C   0  0  0  0  0  3  0  0  0  0  0  0
  191.8210  176.2390  145.5630 C   0  0  0  0  0  3  0  0  0  0  0  0
  1  8  1  0  0  0  0
  3 15  1  0  0  0  0
  4 24  1  0  0  0  0
  5 12  2  0  0  0  0
  8  3  1  0  0  0  0
  8  2  2  0  0  0  0
  9  1  2  0  0  0  0
  9  5  1  0  0  0  0
 10 14  1  0  0  0  0
 10  3  2  0  0  0  0
 11 16  2  0  0  0  0
 11  1  1  0  0  0  0
 12  2  1  0  0  0  0
 12  6  1  0  0  0  0
 13  4  1  0  0  0  0
 14 19  1  6  0  0  0
 14 13  1  0  0  0  0
 15  4  1  0  0  0  0
 15  7  2  0  0  0  0
 16 10  1  0  0  0  0
 17 18  2  0  0  0  0
 17 21  1  0  0  0  0
 18 20  1  0  0  0  0
 19 22  1  0  0  0  0
 20 22  2  0  0  0  0
 21 19  2  0  0  0  0
 23 17  1  0  0  0  0
 24 25  1  0  0  0  0
 25 26  1  0  0  0  0
 26 27  1  0  0  0  0
 29 30  1  0  0  0  0
 29 27  1  0  0  0  0
 30 28  1  1  0  0  0
 31 32  1  0  0  0  0
 31 34  2  0  0  0  0
 32 33  2  0  0  0  0
 33 29  1  0  0  0  0
 34 30  1  0  0  0  0
M  END
>  <MODEL>
1

>  <REMARK>
 VINA RESULT:      -9.9      0.000      0.000
  Name = 
  6 active torsions:
  status: ('A' for Active; 'I' for Inactive)
    1  A    between atoms: C_3  and  N_13
    2  A    between atoms: C_3  and  C_17
    3  A    between atoms: N_5  and  C_18
    4  A    between atoms: C_12  and  C_28
    5  A    between atoms: C_17  and  C_29
    6  A    between atoms: C_18  and  C_29
                            x       y       z     vdW  Elec       q    Type
                         _______ _______ _______ _____ _____    ______ ____

>  <TORSDO>
F 6

$$$$
=
 OpenBabel11052414133D

 34 38  0  0  1  0  0  0  0  0999 V2000
  183.2100  178.7870  139.5940 C   0  0  0  0  0  0  0  0  0  0  0  0
  181.7920  178.7130  141.5570 C   0  0  0  0  0  3  0  0  0  0  0  0
  184.2480  178.6800  141.8020 C   0  0  0  0  0  0  0  0  0  0  0  0
  185.4290  178.3640  144.0080 N   0  0  0  0  0  0  0  0  0  0  0  0
  180.8020  178.8200  139.3500 C   0  0  0  0  0  3  0  0  0  0  0  0
  179.3050  178.7420  141.3480 C   0  0  0  0  0  1  0  0  0  0  0  0
  183.1690  178.9310  143.9240 O   0  0  0  0  0  0  0  0  0  0  0  0
  183.0820  178.7300  141.0010 C   0  0  0  0  0  0  0  0  0  0  0  0
  182.0750  178.8340  138.7790 C   0  0  0  0  0  3  0  0  0  0  0  0
  185.5080  178.6600  141.1600 C   0  0  0  0  0  0  0  0  0  0  0  0
  184.4760  178.7990  139.0170 C   0  0  0  0  0  3  0  0  0  0  0  0
  180.6600  178.7580  140.7390 C   0  0  0  0  0  0  0  0  0  0  0  0
  186.6010  177.8820  143.2840 C   0  0  0  0  0  2  0  0  0  0  0  0
  186.7820  178.6610  141.9830 C   0  0  1  0  0  3  0  0  0  0  0  0
  184.2210  178.6550  143.2890 C   0  0  0  0  0  0  0  0  0  0  0  0
  185.5810  178.7430  139.8020 N   0  0  0  0  0  0  0  0  0  0  0  0
  189.3840  178.1110  139.2530 C   0  0  0  0  0  0  0  0  0  0  0  0
  190.2080  177.1570  139.8590 C   0  0  0  0  0  3  0  0  0  0  0  0
  187.9700  178.1420  141.2270 C   0  0  0  0  0  0  0  0  0  0  0  0
  189.9160  176.6970  141.1450 C   0  0  0  0  0  3  0  0  0  0  0  0
  188.2670  178.6030  139.9340 C   0  0  0  0  0  3  0  0  0  0  0  0
  188.8000  177.1890  141.8280 C   0  0  0  0  0  3  0  0  0  0  0  0
  189.6670  178.5570  138.0060 F   0  0  0  0  0  0  0  0  0  0  0  0
  185.5090  178.5750  145.4490 C   0  0  0  0  0  2  0  0  0  0  0  0
  186.3390  177.4800  146.1090 C   0  0  0  0  0  2  0  0  0  0  0  0
  187.4080  178.0610  147.0210 C   0  0  0  0  0  2  0  0  0  0  0  0
  188.4960  177.0330  147.2900 C   0  0  0  0  0  2  0  0  0  0  0  0
  191.5160  176.9820  147.7680 N   0  0  0  0  0  1  0  0  0  0  0  0
  189.6000  177.1930  146.3560 N   0  0  0  0  0  0  0  0  0  0  0  0
  190.8450  176.4500  146.5930 C   0  0  1  0  0  3  0  0  0  0  0  0
  191.6310  177.4430  144.4540 C   0  0  0  0  0  3  0  0  0  0  0  0
  190.4990  178.3810  144.4740 C   0  0  0  0  0  3  0  0  0  0  0  0
  189.5350  178.2450  145.3830 C   0  0  0  0  0  3  0  0  0  0  0  0
  191.7790  176.5250  145.4130 C   0  0  0  0  0  3  0  0  0  0  0  0
  1  8  1  0  0  0  0
  3 15  1  0  0  0  0
  4 24  1  0  0  0  0
  5 12  1  0  0  0  0
  8  2  1  0  0  0  0
  8  3  2  0  0  0  0
  9  5  2  0  0  0  0
  9  1  1  0  0  0  0
 10  3  1  0  0  0  0
 10 14  1  0  0  0  0
 11  1  2  0  0  0  0
 11 16  1  0  0  0  0
 12  6  1  0  0  0  0
 12  2  2  0  0  0  0
 13  4  1  0  0  0  0
 14 19  1  6  0  0  0
 14 13  1  0  0  0  0
 15  7  2  0  0  0  0
 15  4  1  0  0  0  0
 16 10  2  0  0  0  0
 17 18  2  0  0  0  0
 17 21  1  0  0  0  0
 18 20  1  0  0  0  0
 19 22  1  0  0  0  0
 20 22  2  0  0  0  0
 21 19  2  0  0  0  0
 23 17  1  0  0  0  0
 24 25  1  0  0  0  0
 25 26  1  0  0  0  0
 26 27  1  0  0  0  0
 29 30  1  0  0  0  0
 29 27  1  0  0  0  0
 30 28  1  1  0  0  0
 31 32  1  0  0  0  0
 31 34  2  0  0  0  0
 32 33  2  0  0  0  0
 33 29  1  0  0  0  0
 34 30  1  0  0  0  0
M  END
>  <MODEL>
2

>  <REMARK>
 VINA RESULT:      -9.4      1.163      1.457
  Name = 
  6 active torsions:
  status: ('A' for Active; 'I' for Inactive)
    1  A    between atoms: C_3  and  N_13
    2  A    between atoms: C_3  and  C_17
    3  A    between atoms: N_5  and  C_18
    4  A    between atoms: C_12  and  C_28
    5  A    between atoms: C_17  and  C_29
    6  A    between atoms: C_18  and  C_29
                            x       y       z     vdW  Elec       q    Type
                         _______ _______ _______ _____ _____    ______ ____

>  <TORSDO>
F 6

$$$$
=
 OpenBabel11052414133D

 34 38  0  0  1  0  0  0  0  0999 V2000
  182.2680  178.9680  141.7520 C   0  0  0  0  0  0  0  0  0  0  0  0
  182.9760  179.4370  139.4830 C   0  0  0  0  0  3  0  0  0  0  0  0
  184.6160  178.6580  141.1560 C   0  0  0  0  0  0  0  0  0  0  0  0
  187.0940  178.5000  140.7160 N   0  0  0  0  0  0  0  0  0  0  0  0
  180.6580  179.7300  140.1130 C   0  0  0  0  0  3  0  0  0  0  0  0
  181.3480  180.2280  137.7660 C   0  0  0  0  0  1  0  0  0  0  0  0
  185.5720  178.7050  138.9620 O   0  0  0  0  0  0  0  0  0  0  0  0
  183.2980  179.0180  140.7850 C   0  0  0  0  0  0  0  0  0  0  0  0
  180.9580  179.3200  141.4130 C   0  0  0  0  0  3  0  0  0  0  0  0
  184.8630  178.2870  142.4980 C   0  0  0  0  0  0  0  0  0  0  0  0
  182.5610  178.5620  143.0500 C   0  0  0  0  0  3  0  0  0  0  0  0
  181.6660  179.7900  139.1490 C   0  0  0  0  0  0  0  0  0  0  0  0
  187.3320  178.5970  142.1530 C   0  0  0  0  0  2  0  0  0  0  0  0
  186.2480  177.8440  142.9240 C   0  0  1  0  0  3  0  0  0  0  0  0
  185.7610  178.6420  140.2050 C   0  0  0  0  0  0  0  0  0  0  0  0
  183.8320  178.2290  143.3880 N   0  0  0  0  0  0  0  0  0  0  0  0
  187.7140  177.4080  146.4150 C   0  0  0  0  0  0  0  0  0  0  0  0
  186.8810  178.2490  147.1600 C   0  0  0  0  0  3  0  0  0  0  0  0
  186.4790  177.9700  144.4010 C   0  0  0  0  0  0  0  0  0  0  0  0
  185.8500  178.9500  146.5290 C   0  0  0  0  0  3  0  0  0  0  0  0
  187.5140  177.2680  145.0380 C   0  0  0  0  0  3  0  0  0  0  0  0
  185.6490  178.8110  145.1530 C   0  0  0  0  0  3  0  0  0  0  0  0
  188.7130  176.7290  147.0260 F   0  0  0  0  0  0  0  0  0  0  0  0
  188.2120  178.2280  139.8190 C   0  0  0  0  0  2  0  0  0  0  0  0
  189.2510  177.3480  140.5020 C   0  0  0  0  0  2  0  0  0  0  0  0
  190.6650  177.8440  140.2380 C   0  0  0  0  0  2  0  0  0  0  0  0
  191.6740  177.0200  141.0240 C   0  0  0  0  0  2  0  0  0  0  0  0
  190.2100  175.2790  143.0680 N   0  0  0  0  0  1  0  0  0  0  0  0
  191.4870  177.2040  142.4550 N   0  0  0  0  0  0  0  0  0  0  0  0
  191.4350  176.0190  143.3230 C   0  0  1  0  0  3  0  0  0  0  0  0
  191.2600  177.6310  145.2060 C   0  0  0  0  0  3  0  0  0  0  0  0
  190.9960  178.7180  144.2520 C   0  0  0  0  0  3  0  0  0  0  0  0
  191.1150  178.5000  142.9430 C   0  0  0  0  0  3  0  0  0  0  0  0
  191.4970  176.3880  144.7830 C   0  0  0  0  0  3  0  0  0  0  0  0
  1 11  1  0  0  0  0
  2  8  1  0  0  0  0
  3 10  2  0  0  0  0
  4 13  1  0  0  0  0
  5  9  2  0  0  0  0
  6 12  1  0  0  0  0
  7 15  2  0  0  0  0
  8  3  1  0  0  0  0
  8  1  2  0  0  0  0
  9  1  1  0  0  0  0
 10 14  1  0  0  0  0
 10 16  1  0  0  0  0
 11 16  2  0  0  0  0
 12  2  2  0  0  0  0
 12  5  1  0  0  0  0
 13 14  1  0  0  0  0
 14 19  1  1  0  0  0
 15  4  1  0  0  0  0
 15  3  1  0  0  0  0
 17 23  1  0  0  0  0
 17 18  1  0  0  0  0
 19 21  1  0  0  0  0
 19 22  2  0  0  0  0
 20 18  2  0  0  0  0
 21 17  2  0  0  0  0
 22 20  1  0  0  0  0
 24 25  1  0  0  0  0
 24  4  1  0  0  0  0
 26 25  1  0  0  0  0
 26 27  1  0  0  0  0
 27 29  1  0  0  0  0
 29 33  1  0  0  0  0
 29 30  1  0  0  0  0
 30 28  1  1  0  0  0
 30 34  1  0  0  0  0
 32 31  1  0  0  0  0
 33 32  2  0  0  0  0
 34 31  2  0  0  0  0
M  END
>  <MODEL>
3

>  <REMARK>
 VINA RESULT:      -9.2      2.568      4.735
  Name = 
  6 active torsions:
  status: ('A' for Active; 'I' for Inactive)
    1  A    between atoms: C_3  and  N_13
    2  A    between atoms: C_3  and  C_17
    3  A    between atoms: N_5  and  C_18
    4  A    between atoms: C_12  and  C_28
    5  A    between atoms: C_17  and  C_29
    6  A    between atoms: C_18  and  C_29
                            x       y       z     vdW  Elec       q    Type
                         _______ _______ _______ _____ _____    ______ ____

>  <TORSDO>
F 6

$$$$
=
 OpenBabel11052414133D

 34 38  0  0  1  0  0  0  0  0999 V2000
  185.8240  177.9360  143.3400 C   0  0  0  0  0  0  0  0  0  0  0  0
  186.1100  178.6310  141.0370 C   0  0  0  0  0  3  0  0  0  0  0  0
  188.0270  177.7320  142.3060 C   0  0  0  0  0  0  0  0  0  0  0  0
  190.3860  177.6660  141.4160 N   0  0  0  0  0  0  0  0  0  0  0  0
  183.9420  178.8160  142.0980 C   0  0  0  0  0  3  0  0  0  0  0  0
  184.1960  179.5460  139.7230 C   0  0  0  0  0  1  0  0  0  0  0  0
  188.5710  178.0040  139.9910 O   0  0  0  0  0  0  0  0  0  0  0  0
  186.6630  178.0980  142.2130 C   0  0  0  0  0  0  0  0  0  0  0  0
  184.4730  178.2920  143.2770 C   0  0  0  0  0  3  0  0  0  0  0  0
  188.5130  177.2410  143.5410 C   0  0  0  0  0  0  0  0  0  0  0  0
  186.3480  177.4160  144.5200 C   0  0  0  0  0  3  0  0  0  0  0  0
  184.7600  178.9870  140.9780 C   0  0  0  0  0  0  0  0  0  0  0  0
  190.8780  177.6330  142.7900 C   0  0  0  0  0  2  0  0  0  0  0  0
  189.9540  176.7880  143.6660 C   0  0  1  0  0  3  0  0  0  0  0  0
  188.9810  177.8290  141.1690 C   0  0  0  0  0  0  0  0  0  0  0  0
  187.6600  177.0790  144.5910 N   0  0  0  0  0  0  0  0  0  0  0  0
  190.2550  177.4750  147.4030 C   0  0  0  0  0  0  0  0  0  0  0  0
  191.3920  176.7260  147.7200 C   0  0  0  0  0  3  0  0  0  0  0  0
  190.4460  176.7810  145.0840 C   0  0  0  0  0  0  0  0  0  0  0  0
  192.0550  176.0050  146.7240 C   0  0  0  0  0  3  0  0  0  0  0  0
  189.7820  177.5040  146.0880 C   0  0  0  0  0  3  0  0  0  0  0  0
  191.5830  176.0320  145.4090 C   0  0  0  0  0  3  0  0  0  0  0  0
  189.6120  178.1730  148.3690 F   0  0  0  0  0  0  0  0  0  0  0  0
  191.3240  177.5030  140.3110 C   0  0  0  0  0  2  0  0  0  0  0  0
  190.9170  176.3310  139.4260 C   0  0  0  0  0  2  0  0  0  0  0  0
  191.2100  176.6080  137.9600 C   0  0  0  0  0  2  0  0  0  0  0  0
  190.1950  175.9080  137.0710 C   0  0  0  0  0  2  0  0  0  0  0  0
  187.4270  175.0820  136.0650 N   0  0  0  0  0  1  0  0  0  0  0  0
  188.9460  176.6550  137.0270 N   0  0  0  0  0  0  0  0  0  0  0  0
  187.6800  175.9350  137.2150 C   0  0  1  0  0  3  0  0  0  0  0  0
  186.5980  178.1670  137.0640 C   0  0  0  0  0  3  0  0  0  0  0  0
  187.8550  178.7430  136.5670 C   0  0  0  0  0  3  0  0  0  0  0  0
  188.9690  178.0120  136.5610 C   0  0  0  0  0  3  0  0  0  0  0  0
  186.5180  176.8760  137.3970 C   0  0  0  0  0  3  0  0  0  0  0  0
  1 11  1  0  0  0  0
  2  8  1  0  0  0  0
  3 10  2  0  0  0  0
  4 13  1  0  0  0  0
  5  9  2  0  0  0  0
  6 12  1  0  0  0  0
  7 15  2  0  0  0  0
  8  3  1  0  0  0  0
  8  1  2  0  0  0  0
  9  1  1  0  0  0  0
 10 14  1  0  0  0  0
 10 16  1  0  0  0  0
 11 16  2  0  0  0  0
 12  2  2  0  0  0  0
 12  5  1  0  0  0  0
 13 14  1  0  0  0  0
 14 19  1  1  0  0  0
 15  4  1  0  0  0  0
 15  3  1  0  0  0  0
 17 18  1  0  0  0  0
 17 23  1  0  0  0  0
 19 22  2  0  0  0  0
 19 21  1  0  0  0  0
 20 18  2  0  0  0  0
 21 17  2  0  0  0  0
 22 20  1  0  0  0  0
 24  4  1  0  0  0  0
 25 24  1  0  0  0  0
 26 25  1  0  0  0  0
 27 26  1  0  0  0  0
 29 27  1  0  0  0  0
 29 30  1  0  0  0  0
 30 28  1  6  0  0  0
 30 34  1  0  0  0  0
 31 34  2  0  0  0  0
 32 31  1  0  0  0  0
 33 32  2  0  0  0  0
 33 29  1  0  0  0  0
M  END
>  <MODEL>
4

>  <REMARK>
 VINA RESULT:      -9.1      3.434      7.263
  Name = 
  6 active torsions:
  status: ('A' for Active; 'I' for Inactive)
    1  A    between atoms: C_3  and  N_13
    2  A    between atoms: C_3  and  C_17
    3  A    between atoms: N_5  and  C_18
    4  A    between atoms: C_12  and  C_28
    5  A    between atoms: C_17  and  C_29
    6  A    between atoms: C_18  and  C_29
                            x       y       z     vdW  Elec       q    Type
                         _______ _______ _______ _____ _____    ______ ____

>  <TORSDO>
F 6

$$$$
=
 OpenBabel11052414133D

 34 38  0  0  1  0  0  0  0  0999 V2000
  185.6900  178.1840  144.5330 C   0  0  0  0  0  0  0  0  0  0  0  0
  188.0630  177.7070  144.4340 C   0  0  0  0  0  3  0  0  0  0  0  0
  186.8310  178.2920  142.3760 C   0  0  0  0  0  0  0  0  0  0  0  0
  187.8520  178.2340  140.0710 N   0  0  0  0  0  0  0  0  0  0  0  0
  186.8960  177.6120  146.5520 C   0  0  0  0  0  3  0  0  0  0  0  0
  189.3410  177.1100  146.4930 C   0  0  0  0  0  1  0  0  0  0  0  0
  189.1910  178.2110  141.9810 O   0  0  0  0  0  0  0  0  0  0  0  0
  186.8760  178.0640  143.7730 C   0  0  0  0  0  0  0  0  0  0  0  0
  185.7050  177.9620  145.9130 C   0  0  0  0  0  3  0  0  0  0  0  0
  185.5870  178.6070  141.7830 C   0  0  0  0  0  0  0  0  0  0  0  0
  184.5000  178.5310  143.9010 C   0  0  0  0  0  3  0  0  0  0  0  0
  188.0740  177.4830  145.8130 C   0  0  0  0  0  0  0  0  0  0  0  0
  186.5150  178.0810  139.5080 C   0  0  0  0  0  2  0  0  0  0  0  0
  185.5060  178.9110  140.3000 C   0  0  1  0  0  3  0  0  0  0  0  0
  188.0290  178.2260  141.4950 C   0  0  0  0  0  0  0  0  0  0  0  0
  184.4760  178.7380  142.5610 N   0  0  0  0  0  0  0  0  0  0  0  0
  182.1350  177.3830  139.3890 C   0  0  0  0  0  0  0  0  0  0  0  0
  181.5480  178.4360  138.6810 C   0  0  0  0  0  3  0  0  0  0  0  0
  184.1260  178.7290  139.7370 C   0  0  0  0  0  0  0  0  0  0  0  0
  182.2460  179.6330  138.5010 C   0  0  0  0  0  3  0  0  0  0  0  0
  183.4220  177.5270  139.9160 C   0  0  0  0  0  3  0  0  0  0  0  0
  183.5330  179.7790  139.0280 C   0  0  0  0  0  3  0  0  0  0  0  0
  181.4580  176.2240  139.5640 F   0  0  0  0  0  0  0  0  0  0  0  0
  188.9910  178.4230  139.1800 C   0  0  0  0  0  2  0  0  0  0  0  0
  189.5700  177.0810  138.7500 C   0  0  0  0  0  2  0  0  0  0  0  0
  189.4660  176.8820  137.2460 C   0  0  0  0  0  2  0  0  0  0  0  0
  188.6710  175.6260  136.9270 C   0  0  0  0  0  2  0  0  0  0  0  0
  186.3350  173.8390  136.0880 N   0  0  0  0  0  1  0  0  0  0  0  0
  187.2610  175.9400  136.7470 N   0  0  0  0  0  0  0  0  0  0  0  0
  186.2580  174.9140  137.0630 C   0  0  1  0  0  3  0  0  0  0  0  0
  184.5710  176.6520  136.5070 C   0  0  0  0  0  3  0  0  0  0  0  0
  185.6260  177.4860  135.9130 C   0  0  0  0  0  3  0  0  0  0  0  0
  186.9050  177.1370  136.0420 C   0  0  0  0  0  3  0  0  0  0  0  0
  184.8600  175.4770  137.0700 C   0  0  0  0  0  3  0  0  0  0  0  0
  1  9  2  0  0  0  0
  2 12  1  0  0  0  0
  3  8  1  0  0  0  0
  4 15  1  0  0  0  0
  8  2  2  0  0  0  0
  8  1  1  0  0  0  0
  9  5  1  0  0  0  0
 10  3  2  0  0  0  0
 10 16  1  0  0  0  0
 11  1  1  0  0  0  0
 12  6  1  0  0  0  0
 12  5  2  0  0  0  0
 13  4  1  0  0  0  0
 13 14  1  0  0  0  0
 14 19  1  6  0  0  0
 14 10  1  0  0  0  0
 15  7  2  0  0  0  0
 15  3  1  0  0  0  0
 16 11  2  0  0  0  0
 17 23  1  0  0  0  0
 17 21  1  0  0  0  0
 18 17  2  0  0  0  0
 19 21  2  0  0  0  0
 20 18  1  0  0  0  0
 20 22  2  0  0  0  0
 22 19  1  0  0  0  0
 24  4  1  0  0  0  0
 25 24  1  0  0  0  0
 26 25  1  0  0  0  0
 27 26  1  0  0  0  0
 29 27  1  0  0  0  0
 29 30  1  0  0  0  0
 30 28  1  6  0  0  0
 30 34  1  0  0  0  0
 31 34  2  0  0  0  0
 32 33  2  0  0  0  0
 32 31  1  0  0  0  0
 33 29  1  0  0  0  0
M  END
>  <MODEL>
5

>  <REMARK>
 VINA RESULT:      -9.0      3.490      7.958
  Name = 
  6 active torsions:
  status: ('A' for Active; 'I' for Inactive)
    1  A    between atoms: C_3  and  N_13
    2  A    between atoms: C_3  and  C_17
    3  A    between atoms: N_5  and  C_18
    4  A    between atoms: C_12  and  C_28
    5  A    between atoms: C_17  and  C_29
    6  A    between atoms: C_18  and  C_29
                            x       y       z     vdW  Elec       q    Type
                         _______ _______ _______ _____ _____    ______ ____

>  <TORSDO>
F 6

$$$$
=
 OpenBabel11052414133D

 34 38  0  0  1  0  0  0  0  0999 V2000
  190.8480  177.1430  140.2390 C   0  0  0  0  0  0  0  0  0  0  0  0
  188.9040  177.5030  138.8400 C   0  0  0  0  0  3  0  0  0  0  0  0
  188.7500  177.8350  141.2810 C   0  0  0  0  0  0  0  0  0  0  0  0
  186.5960  178.3440  142.4900 N   0  0  0  0  0  0  0  0  0  0  0  0
  191.0020  176.8180  137.8460 C   0  0  0  0  0  3  0  0  0  0  0  0
  189.0210  177.1750  136.3690 C   0  0  0  0  0  1  0  0  0  0  0  0
  186.7640  178.5890  140.1770 O   0  0  0  0  0  0  0  0  0  0  0  0
  189.4850  177.5020  140.1180 C   0  0  0  0  0  0  0  0  0  0  0  0
  191.5970  176.8070  139.1080 C   0  0  0  0  0  3  0  0  0  0  0  0
  189.4010  177.7690  142.5350 C   0  0  0  0  0  0  0  0  0  0  0  0
  191.4470  177.1280  141.4960 C   0  0  0  0  0  3  0  0  0  0  0  0
  189.6550  177.1640  137.7110 C   0  0  0  0  0  0  0  0  0  0  0  0
  187.1820  177.8060  143.7130 C   0  0  0  0  0  2  0  0  0  0  0  0
  188.6640  178.1690  143.7980 C   0  0  1  0  0  3  0  0  0  0  0  0
  187.3240  178.2600  141.2560 C   0  0  0  0  0  0  0  0  0  0  0  0
  190.7220  177.4430  142.5980 N   0  0  0  0  0  0  0  0  0  0  0  0
  191.1460  176.6080  146.2320 C   0  0  0  0  0  0  0  0  0  0  0  0
  190.3670  176.5250  147.3900 C   0  0  0  0  0  3  0  0  0  0  0  0
  189.2700  177.5880  145.0420 C   0  0  0  0  0  0  0  0  0  0  0  0
  189.0430  176.9710  147.3760 C   0  0  0  0  0  3  0  0  0  0  0  0
  190.6010  177.1380  145.0590 C   0  0  0  0  0  3  0  0  0  0  0  0
  188.4960  177.5020  146.2040 C   0  0  0  0  0  3  0  0  0  0  0  0
  192.4290  176.1760  146.2470 F   0  0  0  0  0  0  0  0  0  0  0  0
  185.2890  178.9900  142.5410 C   0  0  0  0  0  2  0  0  0  0  0  0
  184.5580  178.6270  143.8280 C   0  0  0  0  0  2  0  0  0  0  0  0
  183.3360  179.5070  144.0460 C   0  0  0  0  0  2  0  0  0  0  0  0
  182.0610  178.6870  143.9300 C   0  0  0  0  0  2  0  0  0  0  0  0
  179.0140  178.6930  143.6630 N   0  0  0  0  0  1  0  0  0  0  0  0
  181.2090  179.2050  142.8700 N   0  0  0  0  0  0  0  0  0  0  0  0
  179.8950  179.7620  143.2220 C   0  0  1  0  0  3  0  0  0  0  0  0
  179.6810  180.3040  140.8060 C   0  0  0  0  0  3  0  0  0  0  0  0
  180.8390  179.4480  140.5110 C   0  0  0  0  0  3  0  0  0  0  0  0
  181.5620  178.9370  141.5060 C   0  0  0  0  0  3  0  0  0  0  0  0
  179.2590  180.4800  142.0600 C   0  0  0  0  0  3  0  0  0  0  0  0
  1 11  1  0  0  0  0
  2  8  1  0  0  0  0
  3 10  2  0  0  0  0
  4 24  1  0  0  0  0
  4 13  1  0  0  0  0
  5  9  2  0  0  0  0
  6 12  1  0  0  0  0
  7 15  2  0  0  0  0
  8  1  2  0  0  0  0
  8  3  1  0  0  0  0
  9  1  1  0  0  0  0
 10 16  1  0  0  0  0
 10 14  1  0  0  0  0
 11 16  2  0  0  0  0
 12  5  1  0  0  0  0
 12  2  2  0  0  0  0
 13 14  1  0  0  0  0
 14 19  1  1  0  0  0
 15  3  1  0  0  0  0
 15  4  1  0  0  0  0
 17 23  1  0  0  0  0
 17 18  1  0  0  0  0
 19 21  1  0  0  0  0
 19 22  2  0  0  0  0
 20 18  2  0  0  0  0
 21 17  2  0  0  0  0
 22 20  1  0  0  0  0
 24 25  1  0  0  0  0
 25 26  1  0  0  0  0
 27 26  1  0  0  0  0
 29 30  1  0  0  0  0
 29 27  1  0  0  0  0
 30 28  1  6  0  0  0
 31 34  2  0  0  0  0
 32 31  1  0  0  0  0
 32 33  2  0  0  0  0
 33 29  1  0  0  0  0
 34 30  1  0  0  0  0
M  END
>  <MODEL>
6

>  <REMARK>
 VINA RESULT:      -9.0      2.812      8.251
  Name = 
  6 active torsions:
  status: ('A' for Active; 'I' for Inactive)
    1  A    between atoms: C_3  and  N_13
    2  A    between atoms: C_3  and  C_17
    3  A    between atoms: N_5  and  C_18
    4  A    between atoms: C_12  and  C_28
    5  A    between atoms: C_17  and  C_29
    6  A    between atoms: C_18  and  C_29
                            x       y       z     vdW  Elec       q    Type
                         _______ _______ _______ _____ _____    ______ ____

>  <TORSDO>
F 6

$$$$
=
 OpenBabel11052414133D

 34 38  0  0  1  0  0  0  0  0999 V2000
  187.4610  177.7320  146.3710 C   0  0  0  0  0  0  0  0  0  0  0  0
  189.5840  177.2140  145.3260 C   0  0  0  0  0  3  0  0  0  0  0  0
  187.7060  178.0530  143.9630 C   0  0  0  0  0  0  0  0  0  0  0  0
  187.7730  178.2280  141.4470 N   0  0  0  0  0  0  0  0  0  0  0  0
  189.3020  176.9100  147.7110 C   0  0  0  0  0  3  0  0  0  0  0  0
  191.5050  176.3610  146.6720 C   0  0  0  0  0  1  0  0  0  0  0  0
  189.7300  177.9610  142.6870 O   0  0  0  0  0  0  0  0  0  0  0  0
  188.2610  177.6690  145.2070 C   0  0  0  0  0  0  0  0  0  0  0  0
  187.9830  177.3570  147.6130 C   0  0  0  0  0  3  0  0  0  0  0  0
  186.3520  178.4610  143.9230 C   0  0  0  0  0  0  0  0  0  0  0  0
  186.1450  178.1750  146.2790 C   0  0  0  0  0  3  0  0  0  0  0  0
  190.1020  176.8370  146.5690 C   0  0  0  0  0  0  0  0  0  0  0  0
  186.3140  178.1700  141.4280 C   0  0  0  0  0  2  0  0  0  0  0  0
  185.7360  178.9300  142.6210 C   0  0  1  0  0  3  0  0  0  0  0  0
  188.4740  178.0570  142.6880 C   0  0  0  0  0  0  0  0  0  0  0  0
  185.6290  178.5300  145.0770 N   0  0  0  0  0  0  0  0  0  0  0  0
  182.1390  178.4170  141.4690 C   0  0  0  0  0  0  0  0  0  0  0  0
  181.4410  178.6790  142.6520 C   0  0  0  0  0  3  0  0  0  0  0  0
  184.2370  178.8440  142.6140 C   0  0  0  0  0  0  0  0  0  0  0  0
  182.1380  179.0220  143.8140 C   0  0  0  0  0  3  0  0  0  0  0  0
  183.5340  178.4990  141.4480 C   0  0  0  0  0  3  0  0  0  0  0  0
  183.5330  179.1040  143.7950 C   0  0  0  0  0  3  0  0  0  0  0  0
  181.4640  178.0850  140.3440 F   0  0  0  0  0  0  0  0  0  0  0  0
  188.4990  178.4890  140.2100 C   0  0  0  0  0  2  0  0  0  0  0  0
  187.7560  177.9040  139.0140 C   0  0  0  0  0  2  0  0  0  0  0  0
  188.6050  176.8830  138.2730 C   0  0  0  0  0  2  0  0  0  0  0  0
  189.9090  176.6330  139.0150 C   0  0  0  0  0  2  0  0  0  0  0  0
  190.3610  173.9830  137.5560 N   0  0  0  0  0  1  0  0  0  0  0  0
  190.9600  176.2340  138.0910 N   0  0  0  0  0  0  0  0  0  0  0  0
  190.6350  175.3000  137.0040 C   0  0  1  0  0  3  0  0  0  0  0  0
  192.9890  175.6130  136.2750 C   0  0  0  0  0  3  0  0  0  0  0  0
  193.2990  176.2650  137.5550 C   0  0  0  0  0  3  0  0  0  0  0  0
  192.3200  176.5610  138.4080 C   0  0  0  0  0  3  0  0  0  0  0  0
  191.7520  175.1940  135.9990 C   0  0  0  0  0  3  0  0  0  0  0  0
  1  9  2  0  0  0  0
  2 12  1  0  0  0  0
  3  8  1  0  0  0  0
  4 15  1  0  0  0  0
  7 15  2  0  0  0  0
  8  2  2  0  0  0  0
  8  1  1  0  0  0  0
  9  5  1  0  0  0  0
 10  3  2  0  0  0  0
 10 16  1  0  0  0  0
 11  1  1  0  0  0  0
 12  6  1  0  0  0  0
 12  5  2  0  0  0  0
 13  4  1  0  0  0  0
 13 14  1  0  0  0  0
 14 19  1  1  0  0  0
 14 10  1  0  0  0  0
 15  3  1  0  0  0  0
 16 11  2  0  0  0  0
 17 18  1  0  0  0  0
 18 20  2  0  0  0  0
 19 22  2  0  0  0  0
 21 17  2  0  0  0  0
 21 19  1  0  0  0  0
 22 20  1  0  0  0  0
 23 17  1  0  0  0  0
 24  4  1  0  0  0  0
 25 24  1  0  0  0  0
 26 25  1  0  0  0  0
 26 27  1  0  0  0  0
 29 33  1  0  0  0  0
 29 27  1  0  0  0  0
 30 28  1  1  0  0  0
 30 29  1  0  0  0  0
 31 32  1  0  0  0  0
 32 33  2  0  0  0  0
 34 31  2  0  0  0  0
 34 30  1  0  0  0  0
M  END
>  <MODEL>
7

>  <REMARK>
 VINA RESULT:      -8.8      3.365      7.718
  Name = 
  6 active torsions:
  status: ('A' for Active; 'I' for Inactive)
    1  A    between atoms: C_3  and  N_13
    2  A    between atoms: C_3  and  C_17
    3  A    between atoms: N_5  and  C_18
    4  A    between atoms: C_12  and  C_28
    5  A    between atoms: C_17  and  C_29
    6  A    between atoms: C_18  and  C_29
                            x       y       z     vdW  Elec       q    Type
                         _______ _______ _______ _____ _____    ______ ____

>  <TORSDO>
F 6

$$$$
=
 OpenBabel11052414133D

 34 38  0  0  1  0  0  0  0  0999 V2000
  187.6360  177.6480  146.3830 C   0  0  0  0  0  0  0  0  0  0  0  0
  189.7600  177.1370  145.3360 C   0  0  0  0  0  3  0  0  0  0  0  0
  187.8820  177.9850  143.9770 C   0  0  0  0  0  0  0  0  0  0  0  0
  187.9500  178.1770  141.4630 N   0  0  0  0  0  0  0  0  0  0  0  0
  189.4760  176.8180  147.7190 C   0  0  0  0  0  3  0  0  0  0  0  0
  191.6800  176.2760  146.6770 C   0  0  0  0  0  1  0  0  0  0  0  0
  189.9070  177.9020  142.7020 O   0  0  0  0  0  0  0  0  0  0  0  0
  188.4370  177.5930  145.2190 C   0  0  0  0  0  0  0  0  0  0  0  0
  188.1580  177.2650  147.6220 C   0  0  0  0  0  3  0  0  0  0  0  0
  186.5290  178.3930  143.9390 C   0  0  0  0  0  0  0  0  0  0  0  0
  186.3200  178.0900  146.2930 C   0  0  0  0  0  3  0  0  0  0  0  0
  190.2780  176.7530  146.5760 C   0  0  0  0  0  0  0  0  0  0  0  0
  186.4920  178.1190  141.4420 C   0  0  0  0  0  2  0  0  0  0  0  0
  185.9130  178.8710  142.6390 C   0  0  1  0  0  3  0  0  0  0  0  0
  188.6510  177.9980  142.7030 C   0  0  0  0  0  0  0  0  0  0  0  0
  185.8050  178.4540  145.0920 N   0  0  0  0  0  0  0  0  0  0  0  0
  182.3190  178.3170  141.4950 C   0  0  0  0  0  0  0  0  0  0  0  0
  181.6180  178.6200  142.6660 C   0  0  0  0  0  3  0  0  0  0  0  0
  184.4140  178.7840  142.6320 C   0  0  0  0  0  0  0  0  0  0  0  0
  182.3110  179.0030  143.8180 C   0  0  0  0  0  3  0  0  0  0  0  0
  183.7150  178.3990  141.4760 C   0  0  0  0  0  3  0  0  0  0  0  0
  183.7060  179.0840  143.8010 C   0  0  0  0  0  3  0  0  0  0  0  0
  181.6480  177.9460  140.3800 F   0  0  0  0  0  0  0  0  0  0  0  0
  188.6780  178.4460  140.2280 C   0  0  0  0  0  2  0  0  0  0  0  0
  189.1640  177.1490  139.5930 C   0  0  0  0  0  2  0  0  0  0  0  0
  188.8140  177.0820  138.1150 C   0  0  0  0  0  2  0  0  0  0  0  0
  187.7760  178.1370  137.7650 C   0  0  0  0  0  2  0  0  0  0  0  0
  186.5570  176.6900  135.3610 N   0  0  0  0  0  1  0  0  0  0  0  0
  186.4630  177.5320  137.5950 N   0  0  0  0  0  0  0  0  0  0  0  0
  186.3350  176.3350  136.7540 C   0  0  1  0  0  3  0  0  0  0  0  0
  183.9410  176.3440  137.4200 C   0  0  0  0  0  3  0  0  0  0  0  0
  184.0970  177.7020  137.9620 C   0  0  0  0  0  3  0  0  0  0  0  0
  185.3070  178.2520  138.0450 C   0  0  0  0  0  3  0  0  0  0  0  0
  184.9790  175.6930  136.8900 C   0  0  0  0  0  3  0  0  0  0  0  0
  1  9  2  0  0  0  0
  2 12  1  0  0  0  0
  3  8  1  0  0  0  0
  4 15  1  0  0  0  0
  7 15  2  0  0  0  0
  8  2  2  0  0  0  0
  8  1  1  0  0  0  0
  9  5  1  0  0  0  0
 10  3  2  0  0  0  0
 10 16  1  0  0  0  0
 11  1  1  0  0  0  0
 12  6  1  0  0  0  0
 12  5  2  0  0  0  0
 13  4  1  0  0  0  0
 13 14  1  0  0  0  0
 14 19  1  1  0  0  0
 14 10  1  0  0  0  0
 15  3  1  0  0  0  0
 16 11  2  0  0  0  0
 17 18  1  0  0  0  0
 18 20  2  0  0  0  0
 19 22  2  0  0  0  0
 21 17  2  0  0  0  0
 21 19  1  0  0  0  0
 22 20  1  0  0  0  0
 23 17  1  0  0  0  0
 24  4  1  0  0  0  0
 25 24  1  0  0  0  0
 26 25  1  0  0  0  0
 27 26  1  0  0  0  0
 29 27  1  0  0  0  0
 29 33  1  0  0  0  0
 30 28  1  6  0  0  0
 30 34  1  0  0  0  0
 30 29  1  0  0  0  0
 31 32  1  0  0  0  0
 32 33  2  0  0  0  0
 34 31  2  0  0  0  0
M  END
>  <MODEL>
8

>  <REMARK>
 VINA RESULT:      -8.7      2.953      8.204
  Name = 
  6 active torsions:
  status: ('A' for Active; 'I' for Inactive)
    1  A    between atoms: C_3  and  N_13
    2  A    between atoms: C_3  and  C_17
    3  A    between atoms: N_5  and  C_18
    4  A    between atoms: C_12  and  C_28
    5  A    between atoms: C_17  and  C_29
    6  A    between atoms: C_18  and  C_29
                            x       y       z     vdW  Elec       q    Type
                         _______ _______ _______ _____ _____    ______ ____

>  <TORSDO>
F 6

$$$$
=
 OpenBabel11052414133D

 34 38  0  0  1  0  0  0  0  0999 V2000
  182.8410  178.7280  142.6920 C   0  0  0  0  0  0  0  0  0  0  0  0
  185.0810  178.8100  143.6110 C   0  0  0  0  0  3  0  0  0  0  0  0
  184.7500  178.6100  141.1730 C   0  0  0  0  0  0  0  0  0  0  0  0
  186.6330  178.2730  139.5300 N   0  0  0  0  0  0  0  0  0  0  0  0
  183.1620  178.9250  145.0830 C   0  0  0  0  0  3  0  0  0  0  0  0
  185.4540  179.0090  146.0710 C   0  0  0  0  0  1  0  0  0  0  0  0
  187.0510  178.9960  141.7070 O   0  0  0  0  0  0  0  0  0  0  0  0
  184.2400  178.7200  142.4890 C   0  0  0  0  0  0  0  0  0  0  0  0
  182.3100  178.8320  143.9810 C   0  0  0  0  0  3  0  0  0  0  0  0
  183.8350  178.4820  140.1030 C   0  0  0  0  0  0  0  0  0  0  0  0
  181.9860  178.6340  141.5980 C   0  0  0  0  0  3  0  0  0  0  0  0
  184.5470  178.9120  144.8990 C   0  0  0  0  0  0  0  0  0  0  0  0
  185.6790  177.6880  138.5920 C   0  0  0  0  0  2  0  0  0  0  0  0
  184.3380  178.4160  138.6740 C   0  0  1  0  0  3  0  0  0  0  0  0
  186.2030  178.6290  140.8520 C   0  0  0  0  0  0  0  0  0  0  0  0
  182.4940  178.5210  140.3460 N   0  0  0  0  0  0  0  0  0  0  0  0
  181.6830  177.9770  135.9750 C   0  0  0  0  0  0  0  0  0  0  0  0
  181.5290  176.5870  135.9770 C   0  0  0  0  0  3  0  0  0  0  0  0
  183.3500  177.7930  137.7310 C   0  0  0  0  0  0  0  0  0  0  0  0
  182.2830  175.8010  136.8530 C   0  0  0  0  0  3  0  0  0  0  0  0
  182.5910  178.5800  136.8500 C   0  0  0  0  0  3  0  0  0  0  0  0
  183.1920  176.4030  137.7270 C   0  0  0  0  0  3  0  0  0  0  0  0
  180.9520  178.7380  135.1270 F   0  0  0  0  0  0  0  0  0  0  0  0
  188.0050  178.5180  139.1010 C   0  0  0  0  0  2  0  0  0  0  0  0
  188.8690  177.2820  139.3240 C   0  0  0  0  0  2  0  0  0  0  0  0
  190.0020  177.5600  140.3000 C   0  0  0  0  0  2  0  0  0  0  0  0
  190.1130  176.4380  141.3210 C   0  0  0  0  0  2  0  0  0  0  0  0
  191.6770  176.8170  143.9220 N   0  0  0  0  0  1  0  0  0  0  0  0
  189.6670  176.8870  142.6310 N   0  0  0  0  0  0  0  0  0  0  0  0
  190.5890  177.6680  143.4670 C   0  0  1  0  0  3  0  0  0  0  0  0
  188.7030  177.8300  145.0770 C   0  0  0  0  0  3  0  0  0  0  0  0
  187.9800  176.7880  144.3350 C   0  0  0  0  0  3  0  0  0  0  0  0
  188.4480  176.3520  143.1670 C   0  0  0  0  0  3  0  0  0  0  0  0
  189.8950  178.2660  144.6630 C   0  0  0  0  0  3  0  0  0  0  0  0
  1  9  2  0  0  0  0
  2 12  1  0  0  0  0
  3  8  1  0  0  0  0
  4 15  1  0  0  0  0
  8  1  1  0  0  0  0
  8  2  2  0  0  0  0
  9  5  1  0  0  0  0
 10 16  1  0  0  0  0
 10  3  2  0  0  0  0
 11  1  1  0  0  0  0
 12  5  2  0  0  0  0
 12  6  1  0  0  0  0
 13 14  1  0  0  0  0
 13  4  1  0  0  0  0
 14 19  1  6  0  0  0
 14 10  1  0  0  0  0
 15  3  1  0  0  0  0
 15  7  2  0  0  0  0
 16 11  2  0  0  0  0
 17 18  2  0  0  0  0
 17 21  1  0  0  0  0
 18 20  1  0  0  0  0
 20 22  2  0  0  0  0
 21 19  2  0  0  0  0
 22 19  1  0  0  0  0
 23 17  1  0  0  0  0
 24 25  1  0  0  0  0
 24  4  1  0  0  0  0
 25 26  1  0  0  0  0
 26 27  1  0  0  0  0
 27 29  1  0  0  0  0
 29 33  1  0  0  0  0
 29 30  1  0  0  0  0
 30 28  1  1  0  0  0
 30 34  1  0  0  0  0
 32 31  1  0  0  0  0
 33 32  2  0  0  0  0
 34 31  2  0  0  0  0
M  END
>  <MODEL>
9

>  <REMARK>
 VINA RESULT:      -8.6      3.033      5.630
  Name = 
  6 active torsions:
  status: ('A' for Active; 'I' for Inactive)
    1  A    between atoms: C_3  and  N_13
    2  A    between atoms: C_3  and  C_17
    3  A    between atoms: N_5  and  C_18
    4  A    between atoms: C_12  and  C_28
    5  A    between atoms: C_17  and  C_29
    6  A    between atoms: C_18  and  C_29
                            x       y       z     vdW  Elec       q    Type
                         _______ _______ _______ _____ _____    ______ ____

>  <TORSDO>
F 6

$$$$
