=
 OpenBabel11052412593D

 31 35  0  0  1  0  0  0  0  0999 V2000
  184.2200  178.0720  139.7490 N   0  0  0  0  0  0  0  0  0  0  0  0
  182.9110  177.6180  139.5790 C   0  0  0  0  0  0  0  0  0  0  0  0
  181.2790  175.7100  139.7480 C   0  0  0  0  0  3  0  0  0  0  0  0
  185.5090  178.5600  139.9050 C   0  0  2  0  0  0  0  0  0  0  0  0
  182.5850  176.3630  139.8620 C   0  0  0  0  0  3  0  0  0  0  0  0
  182.5670  180.0500  138.8010 C   0  0  0  0  0  3  0  0  0  0  0  0
  180.1230  176.2170  139.3320 C   0  0  0  0  0  3  0  0  0  0  0  0
  184.6050  179.4830  139.4340 C   0  0  0  0  0  0  0  0  0  0  0  0
  179.8150  177.5730  138.8660 C   0  0  0  0  0  3  0  0  0  0  0  0
  183.9660  180.4870  138.9990 N   0  0  0  0  0  0  0  0  0  0  0  0
  182.0400  178.7660  139.0470 C   0  0  0  0  0  0  0  0  0  0  0  0
  180.6110  178.6320  138.7480 C   0  0  0  0  0  3  0  0  0  0  0  0
  188.5700  178.7320  137.8500 N   0  0  0  0  0  0  0  0  0  0  0  0
  187.5810  178.3980  136.8340 C   0  0  0  0  0  2  0  0  0  0  0  0
  189.6960  177.8350  137.6550 C   0  0  0  0  0  1  0  0  0  0  0  0
  187.9770  178.3980  139.1410 C   0  0  0  0  0  2  0  0  0  0  0  0
  186.5320  177.9730  138.9130 C   0  0  2  0  0  3  0  0  0  0  0  0
  186.2280  178.3880  137.4990 C   0  0  0  0  0  2  0  0  0  0  0  0
  185.9000  178.7270  141.3650 C   0  0  0  0  0  2  0  0  0  0  0  0
  184.6670  179.0130  142.2150 C   0  0  0  0  0  2  0  0  0  0  0  0
  184.9690  178.9630  143.7120 C   0  0  1  0  0  3  0  0  0  0  0  0
  182.4800  179.0380  143.6180 C   0  0  0  0  0  1  0  0  0  0  0  0
  183.6930  179.1300  144.5230 C   0  0  0  0  0  2  0  0  0  0  0  0
  185.6380  177.7150  144.0720 N   0  0  0  0  0  2  0  0  0  0  0  0
  187.9790  177.7480  146.9180 C   0  0  0  0  0  0  0  0  0  0  0  0
  189.2570  177.5000  144.8920 C   0  0  0  0  0  3  0  0  0  0  0  0
  187.9140  177.8800  148.3960 C   0  0  0  0  0  1  0  0  0  0  0  0
  186.8340  177.7680  146.1840 N   0  0  0  0  0  0  0  0  0  0  0  0
  188.0710  177.5230  144.1560 C   0  0  0  0  0  3  0  0  0  0  0  0
  186.8520  177.6600  144.8250 C   0  0  0  0  0  0  0  0  0  0  0  0
  189.2150  177.6150  146.2820 C   0  0  0  0  0  3  0  0  0  0  0  0
  1  4  1  0  0  0  0
  2  1  1  0  0  0  0
  2  5  2  0  0  0  0
  3  5  1  0  0  0  0
  4 19  1  1  0  0  0
  6 10  1  0  0  0  0
  6 11  2  0  0  0  0
  7  3  2  0  0  0  0
  8  1  1  0  0  0  0
  8  4  1  0  0  0  0
  9  7  1  0  0  0  0
 10  8  2  0  0  0  0
 11  2  1  0  0  0  0
 12  9  2  0  0  0  0
 12 11  1  0  0  0  0
 13 16  1  0  0  0  0
 14 18  1  0  0  0  0
 14 13  1  0  0  0  0
 15 13  1  0  0  0  0
 17 18  1  6  0  0  0
 17 16  1  0  0  0  0
 17  4  1  0  0  0  0
 19 20  1  0  0  0  0
 21 20  1  6  0  0  0
 21 24  1  0  0  0  0
 21 23  1  0  0  0  0
 22 23  1  0  0  0  0
 24 30  1  0  0  0  0
 25 27  1  0  0  0  0
 26 31  1  0  0  0  0
 28 25  1  0  0  0  0
 29 30  1  0  0  0  0
 29 26  2  0  0  0  0
 30 28  2  0  0  0  0
 31 25  2  0  0  0  0
M  END
>  <MODEL>
1

>  <REMARK>
 VINA RESULT:      -8.0      0.000      0.000
  Name = 
  7 active torsions:
  status: ('A' for Active; 'I' for Inactive)
    1  A    between atoms: N_3  and  C_9
    2  A    between atoms: N_3  and  C_22
    3  A    between atoms: C_9  and  C_15
    4  A    between atoms: C_9  and  C_23
    5  A    between atoms: C_12  and  C_20
    6  A    between atoms: C_12  and  C_27
    7  A    between atoms: C_15  and  C_20
                            x       y       z     vdW  Elec       q    Type
                         _______ _______ _______ _____ _____    ______ ____

>  <TORSDO>
F 7

$$$$
=
 OpenBabel11052412593D

 31 35  0  0  1  0  0  0  0  0999 V2000
  183.5690  177.9670  141.1610 N   0  0  0  0  0  0  0  0  0  0  0  0
  184.1580  178.1510  142.4130 C   0  0  0  0  0  0  0  0  0  0  0  0
  186.1870  177.8680  143.8760 C   0  0  0  0  0  3  0  0  0  0  0  0
  182.9500  177.8030  139.9320 C   0  0  2  0  0  0  0  0  0  0  0  0
  185.4060  177.7610  142.6410 C   0  0  0  0  0  3  0  0  0  0  0  0
  181.8490  179.1670  142.9350 C   0  0  0  0  0  3  0  0  0  0  0  0
  185.8270  178.3710  145.0520 C   0  0  0  0  0  3  0  0  0  0  0  0
  182.1630  178.3990  140.8890 C   0  0  0  0  0  0  0  0  0  0  0  0
  184.5500  178.9650  145.4600 C   0  0  0  0  0  3  0  0  0  0  0  0
  181.2670  178.9550  141.5920 N   0  0  0  0  0  0  0  0  0  0  0  0
  183.1490  178.8220  143.3570 C   0  0  0  0  0  0  0  0  0  0  0  0
  183.4370  179.1530  144.7560 C   0  0  0  0  0  3  0  0  0  0  0  0
  181.7780  175.1580  137.6390 N   0  0  0  0  0  0  0  0  0  0  0  0
  180.9330  174.9040  138.7990 C   0  0  0  0  0  2  0  0  0  0  0  0
  182.3250  173.8780  137.2250 C   0  0  0  0  0  1  0  0  0  0  0  0
  182.8980  175.9710  138.1030 C   0  0  0  0  0  2  0  0  0  0  0  0
  182.6570  176.3350  139.5630 C   0  0  2  0  0  3  0  0  0  0  0  0
  181.2170  175.9810  139.8140 C   0  0  0  0  0  2  0  0  0  0  0  0
  183.4980  178.7420  138.8690 C   0  0  0  0  0  2  0  0  0  0  0  0
  184.9510  179.0930  139.1700 C   0  0  0  0  0  2  0  0  0  0  0  0
  185.9320  178.1290  138.5020 C   0  0  1  0  0  3  0  0  0  0  0  0
  186.2310  176.6300  136.5340 C   0  0  0  0  0  1  0  0  0  0  0  0
  185.5240  177.8640  137.0610 C   0  0  0  0  0  2  0  0  0  0  0  0
  187.2970  178.6470  138.5550 N   0  0  0  0  0  2  0  0  0  0  0  0
  189.4670  177.6810  141.3720 C   0  0  0  0  0  0  0  0  0  0  0  0
  190.3210  176.6470  139.3710 C   0  0  0  0  0  3  0  0  0  0  0  0
  189.5600  177.9430  142.8310 C   0  0  0  0  0  1  0  0  0  0  0  0
  188.4590  178.2360  140.6450 N   0  0  0  0  0  0  0  0  0  0  0  0
  189.2800  177.2250  138.6440 C   0  0  0  0  0  3  0  0  0  0  0  0
  188.3460  178.0280  139.3030 C   0  0  0  0  0  0  0  0  0  0  0  0
  190.4190  176.8760  140.7450 C   0  0  0  0  0  3  0  0  0  0  0  0
  1  2  1  0  0  0  0
  2  5  2  0  0  0  0
  2 11  1  0  0  0  0
  3  7  2  0  0  0  0
  4 19  1  6  0  0  0
  4  8  1  0  0  0  0
  4  1  1  0  0  0  0
  5  3  1  0  0  0  0
  6 11  2  0  0  0  0
  7  9  1  0  0  0  0
  8  1  1  0  0  0  0
  8 10  2  0  0  0  0
 10  6  1  0  0  0  0
 11 12  1  0  0  0  0
 12  9  2  0  0  0  0
 13 16  1  0  0  0  0
 13 14  1  0  0  0  0
 14 18  1  0  0  0  0
 15 13  1  0  0  0  0
 17 16  1  6  0  0  0
 17 18  1  0  0  0  0
 17  4  1  0  0  0  0
 19 20  1  0  0  0  0
 21 23  1  6  0  0  0
 21 24  1  0  0  0  0
 21 20  1  0  0  0  0
 22 23  1  0  0  0  0
 24 30  1  0  0  0  0
 25 27  1  0  0  0  0
 26 31  1  0  0  0  0
 28 25  1  0  0  0  0
 29 30  1  0  0  0  0
 29 26  2  0  0  0  0
 30 28  2  0  0  0  0
 31 25  2  0  0  0  0
M  END
>  <MODEL>
2

>  <REMARK>
 VINA RESULT:      -7.8      2.154      5.820
  Name = 
  7 active torsions:
  status: ('A' for Active; 'I' for Inactive)
    1  A    between atoms: N_3  and  C_9
    2  A    between atoms: N_3  and  C_22
    3  A    between atoms: C_9  and  C_15
    4  A    between atoms: C_9  and  C_23
    5  A    between atoms: C_12  and  C_20
    6  A    between atoms: C_12  and  C_27
    7  A    between atoms: C_15  and  C_20
                            x       y       z     vdW  Elec       q    Type
                         _______ _______ _______ _____ _____    ______ ____

>  <TORSDO>
F 7

$$$$
=
 OpenBabel11052412593D

 31 35  0  0  1  0  0  0  0  0999 V2000
  188.6320  176.9530  138.6050 N   0  0  0  0  0  0  0  0  0  0  0  0
  187.7750  176.6150  137.5560 C   0  0  0  0  0  0  0  0  0  0  0  0
  186.3460  174.8600  136.4540 C   0  0  0  0  0  3  0  0  0  0  0  0
  189.4860  177.3270  139.6310 C   0  0  2  0  0  0  0  0  0  0  0  0
  187.2540  175.3970  137.4700 C   0  0  0  0  0  3  0  0  0  0  0  0
  188.2390  179.0580  136.8850 C   0  0  0  0  0  3  0  0  0  0  0  0
  185.8380  175.4630  135.3840 C   0  0  0  0  0  3  0  0  0  0  0  0
  189.2280  178.3200  138.7160 C   0  0  0  0  0  0  0  0  0  0  0  0
  186.0360  176.8360  134.9060 C   0  0  0  0  0  3  0  0  0  0  0  0
  189.1400  179.3720  138.0150 N   0  0  0  0  0  0  0  0  0  0  0  0
  187.5970  177.8290  136.6330 C   0  0  0  0  0  0  0  0  0  0  0  0
  186.7660  177.8190  135.4250 C   0  0  0  0  0  3  0  0  0  0  0  0
  193.1630  177.3480  139.3070 N   0  0  0  0  0  0  0  0  0  0  0  0
  192.8040  176.4160  138.2470 C   0  0  0  0  0  2  0  0  0  0  0  0
  194.2380  176.7340  140.0660 C   0  0  0  0  0  1  0  0  0  0  0  0
  192.0100  177.4390  140.1970 C   0  0  0  0  0  2  0  0  0  0  0  0
  190.8650  176.6400  139.5870 C   0  0  2  0  0  3  0  0  0  0  0  0
  191.2990  176.3670  138.1730 C   0  0  0  0  0  2  0  0  0  0  0  0
  188.7710  177.4750  140.9650 C   0  0  0  0  0  2  0  0  0  0  0  0
  189.2310  176.3920  141.9350 C   0  0  0  0  0  2  0  0  0  0  0  0
  189.1260  176.8380  143.3940 C   0  0  1  0  0  3  0  0  0  0  0  0
  191.0010  178.3930  143.9190 C   0  0  0  0  0  1  0  0  0  0  0  0
  189.5360  178.2950  143.5390 C   0  0  0  0  0  2  0  0  0  0  0  0
  187.7740  176.6380  143.9090 N   0  0  0  0  0  2  0  0  0  0  0  0
  187.3510  178.0360  147.2930 C   0  0  0  0  0  0  0  0  0  0  0  0
  185.4950  178.7590  145.9390 C   0  0  0  0  0  3  0  0  0  0  0  0
  188.0630  177.9990  148.5960 C   0  0  0  0  0  1  0  0  0  0  0  0
  187.8620  177.3700  146.2220 N   0  0  0  0  0  0  0  0  0  0  0  0
  186.0350  178.0700  144.8530 C   0  0  0  0  0  3  0  0  0  0  0  0
  187.2340  177.3710  145.0120 C   0  0  0  0  0  0  0  0  0  0  0  0
  186.1540  178.7420  147.1700 C   0  0  0  0  0  3  0  0  0  0  0  0
  1  8  1  0  0  0  0
  1  4  1  0  0  0  0
  2  1  1  0  0  0  0
  3  5  1  0  0  0  0
  4 19  1  1  0  0  0
  5  2  2  0  0  0  0
  6 10  1  0  0  0  0
  7  3  2  0  0  0  0
  8  4  1  0  0  0  0
  9  7  1  0  0  0  0
  9 12  2  0  0  0  0
 10  8  2  0  0  0  0
 11  6  2  0  0  0  0
 11  2  1  0  0  0  0
 12 11  1  0  0  0  0
 13 15  1  0  0  0  0
 13 16  1  0  0  0  0
 14 13  1  0  0  0  0
 17 18  1  6  0  0  0
 17  4  1  0  0  0  0
 17 16  1  0  0  0  0
 18 14  1  0  0  0  0
 19 20  1  0  0  0  0
 21 20  1  6  0  0  0
 21 23  1  0  0  0  0
 21 24  1  0  0  0  0
 23 22  1  0  0  0  0
 24 30  1  0  0  0  0
 25 27  1  0  0  0  0
 26 31  1  0  0  0  0
 28 25  1  0  0  0  0
 29 30  1  0  0  0  0
 29 26  2  0  0  0  0
 30 28  2  0  0  0  0
 31 25  2  0  0  0  0
M  END
>  <MODEL>
3

>  <REMARK>
 VINA RESULT:      -7.7      3.888      5.013
  Name = 
  7 active torsions:
  status: ('A' for Active; 'I' for Inactive)
    1  A    between atoms: N_3  and  C_9
    2  A    between atoms: N_3  and  C_22
    3  A    between atoms: C_9  and  C_15
    4  A    between atoms: C_9  and  C_23
    5  A    between atoms: C_12  and  C_20
    6  A    between atoms: C_12  and  C_27
    7  A    between atoms: C_15  and  C_20
                            x       y       z     vdW  Elec       q    Type
                         _______ _______ _______ _____ _____    ______ ____

>  <TORSDO>
F 7

$$$$
=
 OpenBabel11052412593D

 31 35  0  0  1  0  0  0  0  0999 V2000
  188.6190  176.8550  138.4440 N   0  0  0  0  0  0  0  0  0  0  0  0
  187.7850  176.5280  137.3730 C   0  0  0  0  0  0  0  0  0  0  0  0
  186.4150  174.7730  136.1990 C   0  0  0  0  0  3  0  0  0  0  0  0
  189.4490  177.2200  139.4930 C   0  0  2  0  0  0  0  0  0  0  0  0
  187.2960  175.3010  137.2440 C   0  0  0  0  0  3  0  0  0  0  0  0
  188.2000  179.0000  136.7800 C   0  0  0  0  0  3  0  0  0  0  0  0
  185.9080  175.3940  135.1390 C   0  0  0  0  0  3  0  0  0  0  0  0
  189.1800  178.2330  138.6040 C   0  0  0  0  0  0  0  0  0  0  0  0
  186.0800  176.7840  134.7040 C   0  0  0  0  0  3  0  0  0  0  0  0
  189.0770  179.3020  137.9320 N   0  0  0  0  0  0  0  0  0  0  0  0
  187.5920  177.7630  136.4820 C   0  0  0  0  0  0  0  0  0  0  0  0
  186.7790  177.7690  135.2620 C   0  0  0  0  0  3  0  0  0  0  0  0
  193.1340  177.3440  139.3260 N   0  0  0  0  0  0  0  0  0  0  0  0
  192.8400  176.4960  138.1780 C   0  0  0  0  0  2  0  0  0  0  0  0
  194.1920  176.6900  140.0760 C   0  0  0  0  0  1  0  0  0  0  0  0
  191.9450  177.3370  140.1720 C   0  0  0  0  0  2  0  0  0  0  0  0
  190.8450  176.5670  139.4500 C   0  0  2  0  0  3  0  0  0  0  0  0
  191.3410  176.4220  138.0370 C   0  0  0  0  0  2  0  0  0  0  0  0
  188.7110  177.3120  140.8190 C   0  0  0  0  0  2  0  0  0  0  0  0
  187.9350  178.6210  140.9050 C   0  0  0  0  0  2  0  0  0  0  0  0
  186.9450  178.6340  142.0690 C   0  0  1  0  0  3  0  0  0  0  0  0
  184.5410  178.2550  142.6050 C   0  0  0  0  0  1  0  0  0  0  0  0
  185.5180  178.7540  141.5580 C   0  0  0  0  0  2  0  0  0  0  0  0
  187.0890  177.4380  142.8960 N   0  0  0  0  0  2  0  0  0  0  0  0
  189.5590  177.2400  145.6230 C   0  0  0  0  0  0  0  0  0  0  0  0
  187.3860  177.6020  146.5970 C   0  0  0  0  0  3  0  0  0  0  0  0
  191.0210  177.0230  145.7710 C   0  0  0  0  0  1  0  0  0  0  0  0
  188.9980  177.2630  144.3830 N   0  0  0  0  0  0  0  0  0  0  0  0
  186.8300  177.6230  145.3160 C   0  0  0  0  0  3  0  0  0  0  0  0
  187.6600  177.4480  144.2060 C   0  0  0  0  0  0  0  0  0  0  0  0
  188.7590  177.4080  146.7550 C   0  0  0  0  0  3  0  0  0  0  0  0
  1  8  1  0  0  0  0
  1  4  1  0  0  0  0
  2  1  1  0  0  0  0
  3  5  1  0  0  0  0
  4 19  1  1  0  0  0
  5  2  2  0  0  0  0
  6 10  1  0  0  0  0
  7  3  2  0  0  0  0
  8  4  1  0  0  0  0
  9  7  1  0  0  0  0
  9 12  2  0  0  0  0
 10  8  2  0  0  0  0
 11  6  2  0  0  0  0
 11  2  1  0  0  0  0
 12 11  1  0  0  0  0
 13 15  1  0  0  0  0
 13 16  1  0  0  0  0
 14 13  1  0  0  0  0
 17 18  1  6  0  0  0
 17  4  1  0  0  0  0
 17 16  1  0  0  0  0
 18 14  1  0  0  0  0
 19 20  1  0  0  0  0
 21 20  1  6  0  0  0
 21 24  1  0  0  0  0
 23 21  1  0  0  0  0
 23 22  1  0  0  0  0
 24 30  1  0  0  0  0
 25 27  1  0  0  0  0
 25 31  2  0  0  0  0
 26 31  1  0  0  0  0
 28 25  1  0  0  0  0
 29 26  2  0  0  0  0
 30 28  2  0  0  0  0
 30 29  1  0  0  0  0
M  END
>  <MODEL>
4

>  <REMARK>
 VINA RESULT:      -7.6      3.063      4.660
  Name = 
  7 active torsions:
  status: ('A' for Active; 'I' for Inactive)
    1  A    between atoms: N_3  and  C_9
    2  A    between atoms: N_3  and  C_22
    3  A    between atoms: C_9  and  C_15
    4  A    between atoms: C_9  and  C_23
    5  A    between atoms: C_12  and  C_20
    6  A    between atoms: C_12  and  C_27
    7  A    between atoms: C_15  and  C_20
                            x       y       z     vdW  Elec       q    Type
                         _______ _______ _______ _____ _____    ______ ____

>  <TORSDO>
F 7

$$$$
=
 OpenBabel11052412593D

 31 35  0  0  1  0  0  0  0  0999 V2000
  189.1300  176.5360  137.9720 N   0  0  0  0  0  0  0  0  0  0  0  0
  187.8790  176.1700  137.4720 C   0  0  0  0  0  0  0  0  0  0  0  0
  186.2850  174.3180  136.8690 C   0  0  0  0  0  3  0  0  0  0  0  0
  190.3620  176.9400  138.4640 C   0  0  2  0  0  0  0  0  0  0  0  0
  187.5380  174.8920  137.3650 C   0  0  0  0  0  3  0  0  0  0  0  0
  187.6180  178.7270  137.2940 C   0  0  0  0  0  3  0  0  0  0  0  0
  185.2050  174.9400  136.4060 C   0  0  0  0  0  3  0  0  0  0  0  0
  189.5310  177.9720  138.0970 C   0  0  0  0  0  0  0  0  0  0  0  0
  184.9510  176.3770  136.2560 C   0  0  0  0  0  3  0  0  0  0  0  0
  188.9530  179.0680  137.8310 N   0  0  0  0  0  0  0  0  0  0  0  0
  187.0850  177.4340  137.1110 C   0  0  0  0  0  0  0  0  0  0  0  0
  185.7320  177.4130  136.5490 C   0  0  0  0  0  3  0  0  0  0  0  0
  192.7460  174.6000  136.8930 N   0  0  0  0  0  0  0  0  0  0  0  0
  193.6650  175.5360  137.5280 C   0  0  0  0  0  2  0  0  0  0  0  0
  193.2110  174.4100  135.5300 C   0  0  0  0  0  1  0  0  0  0  0  0
  191.4510  175.2690  136.8120 C   0  0  0  0  0  2  0  0  0  0  0  0
  191.5510  176.6030  137.5430 C   0  0  2  0  0  3  0  0  0  0  0  0
  192.8400  176.5210  138.3150 C   0  0  0  0  0  2  0  0  0  0  0  0
  190.4960  176.7190  139.9620 C   0  0  0  0  0  2  0  0  0  0  0  0
  189.2800  177.2790  140.6910 C   0  0  0  0  0  2  0  0  0  0  0  0
  189.1770  176.7670  142.1280 C   0  0  1  0  0  3  0  0  0  0  0  0
  191.2740  176.6850  143.4710 C   0  0  0  0  0  1  0  0  0  0  0  0
  190.3970  175.9340  142.4880 C   0  0  0  0  0  2  0  0  0  0  0  0
  189.0200  177.8720  143.0710 N   0  0  0  0  0  2  0  0  0  0  0  0
  187.5340  177.8000  146.4410 C   0  0  0  0  0  0  0  0  0  0  0  0
  185.7470  177.8990  144.8300 C   0  0  0  0  0  3  0  0  0  0  0  0
  188.0010  177.7250  147.8500 C   0  0  0  0  0  1  0  0  0  0  0  0
  188.4400  177.8230  145.4260 N   0  0  0  0  0  0  0  0  0  0  0  0
  186.6920  177.9210  143.8030 C   0  0  0  0  0  3  0  0  0  0  0  0
  188.0510  177.8810  144.1210 C   0  0  0  0  0  0  0  0  0  0  0  0
  186.1670  177.8360  146.1590 C   0  0  0  0  0  3  0  0  0  0  0  0
  1  8  1  0  0  0  0
  1  4  1  0  0  0  0
  2  1  1  0  0  0  0
  3  5  1  0  0  0  0
  4 19  1  1  0  0  0
  5  2  2  0  0  0  0
  6 10  1  0  0  0  0
  7  3  2  0  0  0  0
  8  4  1  0  0  0  0
  9  7  1  0  0  0  0
  9 12  2  0  0  0  0
 10  8  2  0  0  0  0
 11  6  2  0  0  0  0
 11  2  1  0  0  0  0
 12 11  1  0  0  0  0
 13 14  1  0  0  0  0
 14 18  1  0  0  0  0
 15 13  1  0  0  0  0
 16 13  1  0  0  0  0
 17 16  1  1  0  0  0
 17 18  1  0  0  0  0
 17  4  1  0  0  0  0
 19 20  1  0  0  0  0
 21 20  1  6  0  0  0
 21 23  1  0  0  0  0
 21 24  1  0  0  0  0
 23 22  1  0  0  0  0
 24 30  1  0  0  0  0
 25 27  1  0  0  0  0
 26 31  1  0  0  0  0
 28 25  1  0  0  0  0
 29 30  1  0  0  0  0
 29 26  2  0  0  0  0
 30 28  2  0  0  0  0
 31 25  2  0  0  0  0
M  END
>  <MODEL>
5

>  <REMARK>
 VINA RESULT:      -7.3      3.363      5.251
  Name = 
  7 active torsions:
  status: ('A' for Active; 'I' for Inactive)
    1  A    between atoms: N_3  and  C_9
    2  A    between atoms: N_3  and  C_22
    3  A    between atoms: C_9  and  C_15
    4  A    between atoms: C_9  and  C_23
    5  A    between atoms: C_12  and  C_20
    6  A    between atoms: C_12  and  C_27
    7  A    between atoms: C_15  and  C_20
                            x       y       z     vdW  Elec       q    Type
                         _______ _______ _______ _____ _____    ______ ____

>  <TORSDO>
F 7

$$$$
=
 OpenBabel11052412593D

 31 35  0  0  1  0  0  0  0  0999 V2000
  188.4010  176.5950  138.0700 N   0  0  0  0  0  0  0  0  0  0  0  0
  187.3180  176.3640  137.2200 C   0  0  0  0  0  0  0  0  0  0  0  0
  185.4380  174.8390  136.5310 C   0  0  0  0  0  3  0  0  0  0  0  0
  189.4830  176.8610  138.8950 C   0  0  2  0  0  0  0  0  0  0  0  0
  186.5970  175.2540  137.3240 C   0  0  0  0  0  3  0  0  0  0  0  0
  188.0430  178.6530  136.2860 C   0  0  0  0  0  3  0  0  0  0  0  0
  184.8430  175.4710  135.5240 C   0  0  0  0  0  3  0  0  0  0  0  0
  189.2240  177.8400  137.9650 C   0  0  0  0  0  0  0  0  0  0  0  0
  185.1710  176.7630  134.9120 C   0  0  0  0  0  3  0  0  0  0  0  0
  189.1800  178.8560  137.2100 N   0  0  0  0  0  0  0  0  0  0  0  0
  187.1710  177.5460  136.2500 C   0  0  0  0  0  0  0  0  0  0  0  0
  186.1380  177.6250  135.2130 C   0  0  0  0  0  3  0  0  0  0  0  0
  192.5840  175.8860  137.1450 N   0  0  0  0  0  0  0  0  0  0  0  0
  191.7920  174.6740  136.9870 C   0  0  0  0  0  2  0  0  0  0  0  0
  193.9010  175.4760  137.5980 C   0  0  0  0  0  1  0  0  0  0  0  0
  191.9770  176.6480  138.2320 C   0  0  0  0  0  2  0  0  0  0  0  0
  190.6970  175.9400  138.6610 C   0  0  2  0  0  3  0  0  0  0  0  0
  190.4280  174.9400  137.5690 C   0  0  0  0  0  2  0  0  0  0  0  0
  189.0670  177.1950  140.3190 C   0  0  0  0  0  2  0  0  0  0  0  0
  188.2500  178.4820  140.3430 C   0  0  0  0  0  2  0  0  0  0  0  0
  187.3760  178.5910  141.5930 C   0  0  1  0  0  3  0  0  0  0  0  0
  185.7540  178.6970  139.7040 C   0  0  0  0  0  1  0  0  0  0  0  0
  185.9100  178.7210  141.2130 C   0  0  0  0  0  2  0  0  0  0  0  0
  187.5720  177.4420  142.4740 N   0  0  0  0  0  2  0  0  0  0  0  0
  186.4500  177.9860  145.9410 C   0  0  0  0  0  0  0  0  0  0  0  0
  188.7940  177.4340  145.9840 C   0  0  0  0  0  3  0  0  0  0  0  0
  185.1970  178.3580  146.6480 C   0  0  0  0  0  1  0  0  0  0  0  0
  186.4540  177.8640  144.5860 N   0  0  0  0  0  0  0  0  0  0  0  0
  188.7770  177.3130  144.5930 C   0  0  0  0  0  3  0  0  0  0  0  0
  187.5850  177.5350  143.9000 C   0  0  0  0  0  0  0  0  0  0  0  0
  187.6250  177.7750  146.6650 C   0  0  0  0  0  3  0  0  0  0  0  0
  1  4  1  0  0  0  0
  2  5  2  0  0  0  0
  2  1  1  0  0  0  0
  3  5  1  0  0  0  0
  4 19  1  1  0  0  0
  6 10  1  0  0  0  0
  7  3  2  0  0  0  0
  8  1  1  0  0  0  0
  8  4  1  0  0  0  0
  9 12  2  0  0  0  0
  9  7  1  0  0  0  0
 10  8  2  0  0  0  0
 11  6  2  0  0  0  0
 11  2  1  0  0  0  0
 12 11  1  0  0  0  0
 13 15  1  0  0  0  0
 13 16  1  0  0  0  0
 14 13  1  0  0  0  0
 14 18  1  0  0  0  0
 16 17  1  0  0  0  0
 17 18  1  6  0  0  0
 17  4  1  0  0  0  0
 19 20  1  0  0  0  0
 21 20  1  6  0  0  0
 21 24  1  0  0  0  0
 22 23  1  0  0  0  0
 23 21  1  0  0  0  0
 24 30  1  0  0  0  0
 25 27  1  0  0  0  0
 25 31  2  0  0  0  0
 26 31  1  0  0  0  0
 28 25  1  0  0  0  0
 29 26  2  0  0  0  0
 30 28  2  0  0  0  0
 30 29  1  0  0  0  0
M  END
>  <MODEL>
6

>  <REMARK>
 VINA RESULT:      -7.3      3.048      4.554
  Name = 
  7 active torsions:
  status: ('A' for Active; 'I' for Inactive)
    1  A    between atoms: N_3  and  C_9
    2  A    between atoms: N_3  and  C_22
    3  A    between atoms: C_9  and  C_15
    4  A    between atoms: C_9  and  C_23
    5  A    between atoms: C_12  and  C_20
    6  A    between atoms: C_12  and  C_27
    7  A    between atoms: C_15  and  C_20
                            x       y       z     vdW  Elec       q    Type
                         _______ _______ _______ _____ _____    ______ ____

>  <TORSDO>
F 7

$$$$
=
 OpenBabel11052412593D

 31 35  0  0  1  0  0  0  0  0999 V2000
  184.2320  177.9180  139.0720 N   0  0  0  0  0  0  0  0  0  0  0  0
  185.0820  177.6250  138.0050 C   0  0  0  0  0  0  0  0  0  0  0  0
  187.1320  178.2450  136.6830 C   0  0  0  0  0  3  0  0  0  0  0  0
  183.3640  178.1750  140.1230 C   0  0  2  0  0  0  0  0  0  0  0  0
  186.1360  178.3890  137.7470 C   0  0  0  0  0  3  0  0  0  0  0  0
  183.4200  175.6800  137.7020 C   0  0  0  0  0  3  0  0  0  0  0  0
  187.2090  177.3230  135.7290 C   0  0  0  0  0  3  0  0  0  0  0  0
  183.0390  177.0680  139.3760 C   0  0  0  0  0  0  0  0  0  0  0  0
  186.3240  176.1840  135.4600 C   0  0  0  0  0  3  0  0  0  0  0  0
  182.5480  176.0270  138.8450 N   0  0  0  0  0  0  0  0  0  0  0  0
  184.5760  176.3690  137.2800 C   0  0  0  0  0  0  0  0  0  0  0  0
  185.2300  175.7880  136.1050 C   0  0  0  0  0  3  0  0  0  0  0  0
  180.5410  180.0690  138.6860 N   0  0  0  0  0  0  0  0  0  0  0  0
  181.6610  180.9130  138.2900 C   0  0  0  0  0  2  0  0  0  0  0  0
  179.5310  180.9450  139.2540 C   0  0  0  0  0  1  0  0  0  0  0  0
  181.0190  179.2130  139.7660 C   0  0  0  0  0  2  0  0  0  0  0  0
  182.5140  179.4490  139.9430 C   0  0  2  0  0  3  0  0  0  0  0  0
  182.9290  180.2190  138.7200 C   0  0  0  0  0  2  0  0  0  0  0  0
  183.9840  177.8800  141.4800 C   0  0  0  0  0  2  0  0  0  0  0  0
  185.0440  178.9220  141.8170 C   0  0  0  0  0  2  0  0  0  0  0  0
  185.1830  179.1420  143.3240 C   0  0  1  0  0  3  0  0  0  0  0  0
  183.4370  178.9470  145.0910 C   0  0  0  0  0  1  0  0  0  0  0  0
  183.9140  179.7510  143.8960 C   0  0  0  0  0  2  0  0  0  0  0  0
  185.5010  177.8930  144.0110 N   0  0  0  0  0  2  0  0  0  0  0  0
  187.9180  177.6690  146.7830 C   0  0  0  0  0  0  0  0  0  0  0  0
  189.0660  177.1340  144.7350 C   0  0  0  0  0  3  0  0  0  0  0  0
  187.9280  177.8730  148.2550 C   0  0  0  0  0  1  0  0  0  0  0  0
  186.7650  177.8420  146.0820 N   0  0  0  0  0  0  0  0  0  0  0  0
  187.8730  177.3160  144.0340 C   0  0  0  0  0  3  0  0  0  0  0  0
  186.7170  177.6750  144.7300 C   0  0  0  0  0  0  0  0  0  0  0  0
  189.0930  177.3130  146.1180 C   0  0  0  0  0  3  0  0  0  0  0  0
  1  8  1  0  0  0  0
  1  4  1  0  0  0  0
  2  1  1  0  0  0  0
  3  5  1  0  0  0  0
  4 19  1  1  0  0  0
  5  2  2  0  0  0  0
  6 10  1  0  0  0  0
  7  3  2  0  0  0  0
  8  4  1  0  0  0  0
  9  7  1  0  0  0  0
  9 12  2  0  0  0  0
 10  8  2  0  0  0  0
 11  6  2  0  0  0  0
 11  2  1  0  0  0  0
 12 11  1  0  0  0  0
 13 15  1  0  0  0  0
 13 16  1  0  0  0  0
 14 13  1  0  0  0  0
 14 18  1  0  0  0  0
 16 17  1  0  0  0  0
 17 18  1  6  0  0  0
 17  4  1  0  0  0  0
 19 20  1  0  0  0  0
 21 20  1  6  0  0  0
 21 23  1  0  0  0  0
 21 24  1  0  0  0  0
 23 22  1  0  0  0  0
 24 30  1  0  0  0  0
 25 27  1  0  0  0  0
 26 31  1  0  0  0  0
 28 25  1  0  0  0  0
 29 30  1  0  0  0  0
 29 26  2  0  0  0  0
 30 28  2  0  0  0  0
 31 25  2  0  0  0  0
M  END
>  <MODEL>
7

>  <REMARK>
 VINA RESULT:      -7.3      1.604      4.497
  Name = 
  7 active torsions:
  status: ('A' for Active; 'I' for Inactive)
    1  A    between atoms: N_3  and  C_9
    2  A    between atoms: N_3  and  C_22
    3  A    between atoms: C_9  and  C_15
    4  A    between atoms: C_9  and  C_23
    5  A    between atoms: C_12  and  C_20
    6  A    between atoms: C_12  and  C_27
    7  A    between atoms: C_15  and  C_20
                            x       y       z     vdW  Elec       q    Type
                         _______ _______ _______ _____ _____    ______ ____

>  <TORSDO>
F 7

$$$$
=
 OpenBabel11052412593D

 31 35  0  0  1  0  0  0  0  0999 V2000
  180.9490  180.4090  137.9370 N   0  0  0  0  0  0  0  0  0  0  0  0
  180.9490  181.6690  137.3380 C   0  0  0  0  0  0  0  0  0  0  0  0
  181.7020  184.0690  137.4240 C   0  0  0  0  0  3  0  0  0  0  0  0
  180.9260  179.1420  138.5010 C   0  0  2  0  0  0  0  0  0  0  0  0
  181.5910  182.6870  137.8970 C   0  0  0  0  0  3  0  0  0  0  0  0
  179.5090  180.4290  135.5980 C   0  0  0  0  0  3  0  0  0  0  0  0
  181.1850  184.6240  136.3330 C   0  0  0  0  0  3  0  0  0  0  0  0
  180.2300  179.2510  137.3210 C   0  0  0  0  0  0  0  0  0  0  0  0
  180.3540  184.0210  135.2860 C   0  0  0  0  0  3  0  0  0  0  0  0
  179.5390  179.1110  136.2680 N   0  0  0  0  0  0  0  0  0  0  0  0
  180.1290  181.6160  136.0400 C   0  0  0  0  0  0  0  0  0  0  0  0
  179.9150  182.7710  135.1640 C   0  0  0  0  0  3  0  0  0  0  0  0
  180.4200  179.7800  142.1010 N   0  0  0  0  0  0  0  0  0  0  0  0
  180.2860  178.3290  142.0630 C   0  0  0  0  0  2  0  0  0  0  0  0
  179.3050  180.2880  142.8810 C   0  0  0  0  0  1  0  0  0  0  0  0
  180.2380  180.2570  140.7340 C   0  0  0  0  0  2  0  0  0  0  0  0
  180.1220  179.0490  139.8130 C   0  0  2  0  0  3  0  0  0  0  0  0
  180.5700  177.8830  140.6520 C   0  0  0  0  0  2  0  0  0  0  0  0
  182.2660  178.4300  138.3980 C   0  0  0  0  0  2  0  0  0  0  0  0
  183.4030  179.3890  138.7320 C   0  0  0  0  0  2  0  0  0  0  0  0
  184.6360  178.6620  139.2690 C   0  0  1  0  0  3  0  0  0  0  0  0
  185.2800  177.1250  137.4160 C   0  0  0  0  0  1  0  0  0  0  0  0
  185.6340  178.4030  138.1520 C   0  0  0  0  0  2  0  0  0  0  0  0
  185.2660  179.4210  140.3470 N   0  0  0  0  0  2  0  0  0  0  0  0
  184.3970  178.6910  143.8520 C   0  0  0  0  0  0  0  0  0  0  0  0
  186.6420  177.9170  143.4540 C   0  0  0  0  0  3  0  0  0  0  0  0
  183.2420  178.8920  144.7650 C   0  0  0  0  0  1  0  0  0  0  0  0
  184.3190  179.1060  142.5590 N   0  0  0  0  0  0  0  0  0  0  0  0
  186.5420  178.3490  142.1310 C   0  0  0  0  0  3  0  0  0  0  0  0
  185.3600  178.9500  141.6930 C   0  0  0  0  0  0  0  0  0  0  0  0
  185.5640  178.0900  144.3240 C   0  0  0  0  0  3  0  0  0  0  0  0
  1  4  1  0  0  0  0
  2  5  2  0  0  0  0
  2  1  1  0  0  0  0
  3  5  1  0  0  0  0
  4 19  1  6  0  0  0
  4 17  1  0  0  0  0
  6 11  2  0  0  0  0
  6 10  1  0  0  0  0
  7  3  2  0  0  0  0
  8  1  1  0  0  0  0
  8  4  1  0  0  0  0
  9  7  1  0  0  0  0
 10  8  2  0  0  0  0
 11  2  1  0  0  0  0
 12  9  2  0  0  0  0
 12 11  1  0  0  0  0
 13 15  1  0  0  0  0
 14 13  1  0  0  0  0
 16 13  1  0  0  0  0
 17 18  1  1  0  0  0
 17 16  1  0  0  0  0
 18 14  1  0  0  0  0
 19 20  1  0  0  0  0
 20 21  1  0  0  0  0
 21 23  1  6  0  0  0
 21 24  1  0  0  0  0
 22 23  1  0  0  0  0
 24 30  1  0  0  0  0
 25 31  2  0  0  0  0
 25 27  1  0  0  0  0
 26 31  1  0  0  0  0
 28 25  1  0  0  0  0
 29 26  2  0  0  0  0
 30 29  1  0  0  0  0
 30 28  2  0  0  0  0
M  END
>  <MODEL>
8

>  <REMARK>
 VINA RESULT:      -7.1      2.965      6.225
  Name = 
  7 active torsions:
  status: ('A' for Active; 'I' for Inactive)
    1  A    between atoms: N_3  and  C_9
    2  A    between atoms: N_3  and  C_22
    3  A    between atoms: C_9  and  C_15
    4  A    between atoms: C_9  and  C_23
    5  A    between atoms: C_12  and  C_20
    6  A    between atoms: C_12  and  C_27
    7  A    between atoms: C_15  and  C_20
                            x       y       z     vdW  Elec       q    Type
                         _______ _______ _______ _____ _____    ______ ____

>  <TORSDO>
F 7

$$$$
=
 OpenBabel11052412593D

 31 35  0  0  1  0  0  0  0  0999 V2000
  189.0540  176.3530  137.9350 N   0  0  0  0  0  0  0  0  0  0  0  0
  187.8020  176.0910  137.3770 C   0  0  0  0  0  0  0  0  0  0  0  0
  186.1100  174.3740  136.6540 C   0  0  0  0  0  3  0  0  0  0  0  0
  190.2900  176.6550  138.4860 C   0  0  2  0  0  0  0  0  0  0  0  0
  187.3780  174.8430  137.2150 C   0  0  0  0  0  3  0  0  0  0  0  0
  187.7230  178.6640  137.2760 C   0  0  0  0  0  3  0  0  0  0  0  0
  185.0940  175.0840  136.1730 C   0  0  0  0  0  3  0  0  0  0  0  0
  189.5470  177.7530  138.1230 C   0  0  0  0  0  0  0  0  0  0  0  0
  184.9450  176.5390  136.0620 C   0  0  0  0  0  3  0  0  0  0  0  0
  189.0560  178.8940  137.8740 N   0  0  0  0  0  0  0  0  0  0  0  0
  187.1110  177.4180  137.0300 C   0  0  0  0  0  0  0  0  0  0  0  0
  185.7820  177.5090  136.4180 C   0  0  0  0  0  3  0  0  0  0  0  0
  192.9330  174.3360  137.3620 N   0  0  0  0  0  0  0  0  0  0  0  0
  193.7300  175.5070  137.7060 C   0  0  0  0  0  2  0  0  0  0  0  0
  193.3820  173.8880  136.0550 C   0  0  0  0  0  1  0  0  0  0  0  0
  191.5560  174.7930  137.2060 C   0  0  0  0  0  2  0  0  0  0  0  0
  191.4890  176.2640  137.5990 C   0  0  2  0  0  3  0  0  0  0  0  0
  192.7970  176.5370  138.2900 C   0  0  0  0  0  2  0  0  0  0  0  0
  190.3500  176.3790  139.9800 C   0  0  0  0  0  2  0  0  0  0  0  0
  190.1640  177.6720  140.7650 C   0  0  0  0  0  2  0  0  0  0  0  0
  188.9390  177.6250  141.6790 C   0  0  1  0  0  3  0  0  0  0  0  0
  188.7290  176.3780  143.8260 C   0  0  0  0  0  1  0  0  0  0  0  0
  189.3620  177.5720  143.1390 C   0  0  0  0  0  2  0  0  0  0  0  0
  188.0640  178.7720  141.4460 N   0  0  0  0  0  2  0  0  0  0  0  0
  184.5600  178.9610  140.3230 C   0  0  0  0  0  0  0  0  0  0  0  0
  184.5780  178.2520  142.6240 C   0  0  0  0  0  3  0  0  0  0  0  0
  183.8170  179.3270  139.0890 C   0  0  0  0  0  1  0  0  0  0  0  0
  185.9200  179.0060  140.3340 N   0  0  0  0  0  0  0  0  0  0  0  0
  185.9730  178.3040  142.6160 C   0  0  0  0  0  3  0  0  0  0  0  0
  186.6370  178.6880  141.4480 C   0  0  0  0  0  0  0  0  0  0  0  0
  183.8640  178.5840  141.4720 C   0  0  0  0  0  3  0  0  0  0  0  0
  1  8  1  0  0  0  0
  1  4  1  0  0  0  0
  2  1  1  0  0  0  0
  3  5  1  0  0  0  0
  4 19  1  1  0  0  0
  5  2  2  0  0  0  0
  6 10  1  0  0  0  0
  7  3  2  0  0  0  0
  8  4  1  0  0  0  0
  9  7  1  0  0  0  0
  9 12  2  0  0  0  0
 10  8  2  0  0  0  0
 11  6  2  0  0  0  0
 11  2  1  0  0  0  0
 12 11  1  0  0  0  0
 13 14  1  0  0  0  0
 14 18  1  0  0  0  0
 15 13  1  0  0  0  0
 16 13  1  0  0  0  0
 17 16  1  1  0  0  0
 17 18  1  0  0  0  0
 17  4  1  0  0  0  0
 19 20  1  0  0  0  0
 21 20  1  6  0  0  0
 21 23  1  0  0  0  0
 23 22  1  0  0  0  0
 24 30  1  0  0  0  0
 24 21  1  0  0  0  0
 25 28  1  0  0  0  0
 25 31  2  0  0  0  0
 27 25  1  0  0  0  0
 28 30  2  0  0  0  0
 29 26  2  0  0  0  0
 30 29  1  0  0  0  0
 31 26  1  0  0  0  0
M  END
>  <MODEL>
9

>  <REMARK>
 VINA RESULT:      -7.1      2.795      5.913
  Name = 
  7 active torsions:
  status: ('A' for Active; 'I' for Inactive)
    1  A    between atoms: N_3  and  C_9
    2  A    between atoms: N_3  and  C_22
    3  A    between atoms: C_9  and  C_15
    4  A    between atoms: C_9  and  C_23
    5  A    between atoms: C_12  and  C_20
    6  A    between atoms: C_12  and  C_27
    7  A    between atoms: C_15  and  C_20
                            x       y       z     vdW  Elec       q    Type
                         _______ _______ _______ _____ _____    ______ ____

>  <TORSDO>
F 7

$$$$
