=
 OpenBabel11052415233D

 37 40  0  0  1  0  0  0  0  0999 V2000
  189.2520  178.1700  136.2850 C   0  0  0  0  0  2  0  0  0  0  0  0
  191.5830  174.7950  137.6110 C   0  0  0  0  0  2  0  0  0  0  0  0
  186.4000  174.3090  135.2900 N   0  0  0  0  0  2  0  0  0  0  0  0
  189.4800  176.8610  137.0270 C   0  0  2  0  0  3  0  0  0  0  0  0
  187.3680  175.3510  135.6380 C   0  0  2  0  0  3  0  0  0  0  0  0
  190.5100  177.0340  138.1440 C   0  0  2  0  0  3  0  0  0  0  0  0
  187.3470  176.4620  134.6000 C   0  0  0  0  0  2  0  0  0  0  0  0
  188.7650  174.7260  135.7980 C   0  0  2  0  0  3  0  0  0  0  0  0
  187.9190  172.7400  136.4530 C   0  0  0  0  0  2  0  0  0  0  0  0
  187.2930  179.4190  136.7750 O   0  0  0  0  0  0  0  0  0  0  0  0
  186.9520  177.7080  135.2430 N   0  0  0  0  0  2  0  0  0  0  0  0
  188.7340  173.8130  136.8660 O   0  0  0  0  0  0  0  0  0  0  0  0
  190.9050  175.6640  138.6780 C   0  0  0  0  0  2  0  0  0  0  0  0
  187.7920  178.4620  136.1260 C   0  0  0  0  0  0  0  0  0  0  0  0
  189.8710  175.7760  136.0010 C   0  0  2  0  0  3  0  0  0  0  0  0
  186.4660  173.2030  136.2570 C   0  0  1  0  0  3  0  0  0  0  0  0
  191.3060  175.1930  136.1370 C   0  0  1  0  0  0  0  0  0  0  0  0
  185.8320  173.5900  137.5890 C   0  0  0  0  0  2  0  0  0  0  0  0
  184.3500  173.2720  137.5790 C   0  0  0  0  0  1  0  0  0  0  0  0
  192.3190  176.2860  135.7230 C   0  0  0  0  0  2  0  0  0  0  0  0
  193.7030  176.1020  136.3410 C   0  0  0  0  0  2  0  0  0  0  0  0
  195.3930  175.4790  134.6480 C   0  0  0  0  0  1  0  0  0  0  0  0
  194.7850  176.6290  135.4210 C   0  0  0  0  0  2  0  0  0  0  0  0
  191.4110  174.0580  135.2850 O   0  0  0  0  0  0  0  0  0  0  0  0
  192.0180  172.9830  135.9610 C   0  0  0  0  0  2  0  0  0  0  0  0
  193.1620  172.4460  135.1290 C   0  0  0  0  0  2  0  0  0  0  0  0
  194.6650  172.6380  137.0810 C   0  0  0  0  0  1  0  0  0  0  0  0
  194.1270  171.6980  136.0230 C   0  0  0  0  0  2  0  0  0  0  0  0
  189.9200  177.8680  139.2690 C   0  0  0  0  0  2  0  0  0  0  0  0
  189.9460  177.0890  140.5740 C   0  0  0  0  0  2  0  0  0  0  0  0
  188.6240  176.7770  142.7650 C   0  0  0  0  0  2  0  0  0  0  0  0
  188.7480  177.4120  141.3980 C   0  0  0  0  0  0  0  0  0  0  0  0
  187.8600  178.3060  140.9490 C   0  0  0  0  0  3  0  0  0  0  0  0
  185.8610  179.5120  141.3280 O   0  0  0  0  0  0  0  0  0  0  0  0
  186.4550  177.9870  143.0330 C   0  0  0  0  0  3  0  0  0  0  0  0
  186.6820  178.6560  141.7490 C   0  0  0  0  0  0  0  0  0  0  0  0
  187.3450  177.1070  143.4970 C   0  0  0  0  0  3  0  0  0  0  0  0
  2 13  1  0  0  0  0
  3  5  1  0  0  0  0
  3 16  1  0  0  0  0
  4  1  1  6  0  0  0
  4  6  1  0  0  0  0
  5  7  1  6  0  0  0
  5  8  1  0  0  0  0
  6 13  1  0  0  0  0
  6 29  1  1  0  0  0
  7 11  1  0  0  0  0
  8 15  1  0  0  0  0
  8 12  1  1  0  0  0
  9 12  1  0  0  0  0
 11 14  1  0  0  0  0
 14  1  1  0  0  0  0
 14 10  2  0  0  0  0
 15 17  1  0  0  0  0
 15  4  1  0  0  0  0
 16  9  1  0  0  0  0
 16 18  1  0  0  0  0
 17  2  1  0  0  0  0
 19 18  1  0  0  0  0
 20 17  1  0  0  0  0
 20 21  1  0  0  0  0
 22 23  1  0  0  0  0
 23 21  1  0  0  0  0
 24 25  1  0  0  0  0
 24 17  1  0  0  0  0
 26 25  1  0  0  0  0
 26 28  1  0  0  0  0
 28 27  1  0  0  0  0
 29 30  1  0  0  0  0
 30 32  1  0  0  0  0
 31 37  1  0  0  0  0
 32 31  1  0  0  0  0
 33 32  2  0  0  0  0
 33 36  1  0  0  0  0
 34 36  2  0  0  0  0
 35 37  2  0  0  0  0
 36 35  1  0  0  0  0
M  END
>  <MODEL>
1

>  <REMARK>
 VINA RESULT:      -5.9      0.000      0.000
  Name = 
  11 active torsions:
  status: ('A' for Active; 'I' for Inactive)
    1  A    between atoms: C_1  and  C_5
    2  A    between atoms: C_1  and  C_36
    3  A    between atoms: C_3  and  C_32
    4  A    between atoms: C_5  and  C_23
    5  A    between atoms: C_6  and  C_31
    6  A    between atoms: C_14  and  C_37
    7  A    between atoms: C_17  and  C_26
    8  A    between atoms: C_17  and  O_33
    9  A    between atoms: C_26  and  C_34
   10  A    between atoms: C_31  and  C_37
   11  A    between atoms: O_33  and  C_36
                            x       y       z     vdW  Elec       q    Type
                         _______ _______ _______ _____ _____    ______ ____

>  <TORSDO>
F 11

$$$$
=
 OpenBabel11052415233D

 37 40  0  0  1  0  0  0  0  0999 V2000
  189.2310  177.9100  136.2360 C   0  0  0  0  0  2  0  0  0  0  0  0
  191.7620  174.6050  137.3540 C   0  0  0  0  0  2  0  0  0  0  0  0
  186.4730  173.9600  135.3280 N   0  0  0  0  0  2  0  0  0  0  0  0
  189.5520  176.5980  136.9360 C   0  0  2  0  0  3  0  0  0  0  0  0
  187.4200  175.0320  135.6410 C   0  0  2  0  0  3  0  0  0  0  0  0
  190.6380  176.7910  137.9940 C   0  0  2  0  0  3  0  0  0  0  0  0
  187.2960  176.1610  134.6290 C   0  0  0  0  0  2  0  0  0  0  0  0
  188.8460  174.4600  135.7070 C   0  0  2  0  0  3  0  0  0  0  0  0
  188.1170  172.4310  136.3690 C   0  0  0  0  0  2  0  0  0  0  0  0
  187.2590  179.0730  136.8640 O   0  0  0  0  0  0  0  0  0  0  0  0
  186.8920  177.3780  135.3190 N   0  0  0  0  0  2  0  0  0  0  0  0
  188.9130  173.5260  136.7550 O   0  0  0  0  0  0  0  0  0  0  0  0
  191.1160  175.4270  138.4750 C   0  0  0  0  0  2  0  0  0  0  0  0
  187.7530  178.1480  136.1680 C   0  0  0  0  0  0  0  0  0  0  0  0
  189.9220  175.5480  135.8660 C   0  0  2  0  0  3  0  0  0  0  0  0
  186.6380  172.8400  136.2670 C   0  0  1  0  0  3  0  0  0  0  0  0
  191.3830  175.0190  135.9060 C   0  0  1  0  0  0  0  0  0  0  0  0
  186.0700  173.1770  137.6410 C   0  0  0  0  0  2  0  0  0  0  0  0
  184.5640  173.3370  137.5640 C   0  0  0  0  0  1  0  0  0  0  0  0
  192.3280  176.1580  135.4570 C   0  0  0  0  0  2  0  0  0  0  0  0
  193.7280  176.0640  136.0590 C   0  0  0  0  0  2  0  0  0  0  0  0
  196.1030  175.5180  135.6400 C   0  0  0  0  0  1  0  0  0  0  0  0
  194.7640  175.7910  134.9880 C   0  0  0  0  0  2  0  0  0  0  0  0
  191.4810  173.9050  135.0270 O   0  0  0  0  0  0  0  0  0  0  0  0
  192.2390  172.8730  135.6130 C   0  0  0  0  0  2  0  0  0  0  0  0
  193.2140  172.3250  134.5940 C   0  0  0  0  0  2  0  0  0  0  0  0
  194.4170  172.2840  136.7530 C   0  0  0  0  0  1  0  0  0  0  0  0
  194.5530  172.0860  135.2580 C   0  0  0  0  0  2  0  0  0  0  0  0
  190.0840  177.5800  139.1690 C   0  0  0  0  0  2  0  0  0  0  0  0
  190.9640  177.3920  140.3940 C   0  0  0  0  0  2  0  0  0  0  0  0
  188.6240  177.3180  141.4750 C   0  0  0  0  0  2  0  0  0  0  0  0
  190.1290  177.3000  141.6250 C   0  0  0  0  0  0  0  0  0  0  0  0
  190.7220  177.1260  142.8110 C   0  0  0  0  0  3  0  0  0  0  0  0
  190.4870  176.8300  145.1460 O   0  0  0  0  0  0  0  0  0  0  0  0
  188.4650  177.1360  143.9620 C   0  0  0  0  0  3  0  0  0  0  0  0
  189.9230  177.0130  144.0360 C   0  0  0  0  0  0  0  0  0  0  0  0
  187.8640  177.2910  142.7790 C   0  0  0  0  0  3  0  0  0  0  0  0
  2 13  1  0  0  0  0
  3  5  1  0  0  0  0
  3 16  1  0  0  0  0
  4  1  1  6  0  0  0
  4  6  1  0  0  0  0
  5  7  1  6  0  0  0
  5  8  1  0  0  0  0
  6 13  1  0  0  0  0
  6 29  1  1  0  0  0
  7 11  1  0  0  0  0
  8 15  1  0  0  0  0
  8 12  1  1  0  0  0
  9 12  1  0  0  0  0
 11 14  1  0  0  0  0
 14  1  1  0  0  0  0
 14 10  2  0  0  0  0
 15 17  1  0  0  0  0
 15  4  1  0  0  0  0
 16  9  1  0  0  0  0
 16 18  1  0  0  0  0
 17  2  1  0  0  0  0
 19 18  1  0  0  0  0
 20 17  1  0  0  0  0
 20 21  1  0  0  0  0
 23 22  1  0  0  0  0
 23 21  1  0  0  0  0
 24 25  1  0  0  0  0
 24 17  1  0  0  0  0
 26 28  1  0  0  0  0
 26 25  1  0  0  0  0
 28 27  1  0  0  0  0
 29 30  1  0  0  0  0
 30 32  1  0  0  0  0
 31 32  1  0  0  0  0
 31 37  1  0  0  0  0
 32 33  2  0  0  0  0
 33 36  1  0  0  0  0
 35 36  1  0  0  0  0
 36 34  2  0  0  0  0
 37 35  2  0  0  0  0
M  END
>  <MODEL>
2

>  <REMARK>
 VINA RESULT:      -5.6      1.295      1.584
  Name = 
  11 active torsions:
  status: ('A' for Active; 'I' for Inactive)
    1  A    between atoms: C_1  and  C_5
    2  A    between atoms: C_1  and  C_36
    3  A    between atoms: C_3  and  C_32
    4  A    between atoms: C_5  and  C_23
    5  A    between atoms: C_6  and  C_31
    6  A    between atoms: C_14  and  C_37
    7  A    between atoms: C_17  and  C_26
    8  A    between atoms: C_17  and  O_33
    9  A    between atoms: C_26  and  C_34
   10  A    between atoms: C_31  and  C_37
   11  A    between atoms: O_33  and  C_36
                            x       y       z     vdW  Elec       q    Type
                         _______ _______ _______ _____ _____    ______ ____

>  <TORSDO>
F 11

$$$$
=
 OpenBabel11052415233D

 37 40  0  0  1  0  0  0  0  0999 V2000
  181.9600  179.3250  138.5220 C   0  0  0  0  0  2  0  0  0  0  0  0
  181.9430  175.8080  136.0280 C   0  0  0  0  0  2  0  0  0  0  0  0
  186.6750  177.9970  138.3310 N   0  0  0  0  0  2  0  0  0  0  0  0
  182.4430  178.4470  137.3770 C   0  0  2  0  0  3  0  0  0  0  0  0
  185.2340  178.2550  138.2970 C   0  0  2  0  0  3  0  0  0  0  0  0
  181.3470  178.2590  136.3280 C   0  0  2  0  0  3  0  0  0  0  0  0
  184.7560  178.7740  139.6440 C   0  0  0  0  0  2  0  0  0  0  0  0
  184.4900  176.9800  137.8640 C   0  0  2  0  0  3  0  0  0  0  0  0
  186.2350  176.2520  136.6340 C   0  0  0  0  0  2  0  0  0  0  0  0
  182.6590  181.5920  138.5800 O   0  0  0  0  0  0  0  0  0  0  0  0
  184.2100  180.1130  139.4740 N   0  0  0  0  0  2  0  0  0  0  0  0
  184.8850  176.6460  136.5570 O   0  0  0  0  0  0  0  0  0  0  0  0
  181.7720  177.1720  135.3490 C   0  0  0  0  0  2  0  0  0  0  0  0
  182.9530  180.3980  138.8470 C   0  0  0  0  0  0  0  0  0  0  0  0
  182.9610  177.1160  137.9630 C   0  0  2  0  0  3  0  0  0  0  0  0
  187.1260  177.4340  137.0500 C   0  0  1  0  0  3  0  0  0  0  0  0
  182.1670  175.8400  137.5640 C   0  0  1  0  0  0  0  0  0  0  0  0
  187.1660  178.4970  135.9580 C   0  0  0  0  0  2  0  0  0  0  0  0
  187.3820  177.8530  134.6020 C   0  0  0  0  0  1  0  0  0  0  0  0
  180.7870  175.8850  138.2630 C   0  0  0  0  0  2  0  0  0  0  0  0
  180.8660  175.7440  139.7810 C   0  0  0  0  0  2  0  0  0  0  0  0
  179.0080  177.3510  139.5050 C   0  0  0  0  0  1  0  0  0  0  0  0
  180.0420  176.8120  140.4710 C   0  0  0  0  0  2  0  0  0  0  0  0
  182.9090  174.7010  137.9840 O   0  0  0  0  0  0  0  0  0  0  0  0
  182.9420  173.7270  136.9680 C   0  0  0  0  0  2  0  0  0  0  0  0
  184.1340  172.8200  137.1800 C   0  0  0  0  0  2  0  0  0  0  0  0
  184.4250  171.0480  135.4810 C   0  0  0  0  0  1  0  0  0  0  0  0
  183.7630  171.4040  136.7960 C   0  0  0  0  0  2  0  0  0  0  0  0
  181.1200  179.5610  135.5760 C   0  0  0  0  0  2  0  0  0  0  0  0
  179.7300  180.1030  135.8660 C   0  0  0  0  0  2  0  0  0  0  0  0
  179.2320  181.7050  137.8240 C   0  0  0  0  0  2  0  0  0  0  0  0
  179.8160  181.4720  136.4490 C   0  0  0  0  0  0  0  0  0  0  0  0
  180.4690  182.4310  135.7840 C   0  0  0  0  0  3  0  0  0  0  0  0
  181.2170  184.6740  135.7200 O   0  0  0  0  0  0  0  0  0  0  0  0
  179.9410  184.0920  137.6220 C   0  0  0  0  0  3  0  0  0  0  0  0
  180.5840  183.7820  136.3430 C   0  0  0  0  0  0  0  0  0  0  0  0
  179.3020  183.1350  138.3010 C   0  0  0  0  0  3  0  0  0  0  0  0
  1 14  1  0  0  0  0
  2 17  1  0  0  0  0
  4 15  1  0  0  0  0
  4  1  1  1  0  0  0
  5  3  1  0  0  0  0
  5  7  1  1  0  0  0
  6 29  1  6  0  0  0
  6  4  1  0  0  0  0
  8 12  1  6  0  0  0
  8 15  1  0  0  0  0
  8  5  1  0  0  0  0
  9 16  1  0  0  0  0
 10 14  2  0  0  0  0
 11  7  1  0  0  0  0
 12  9  1  0  0  0  0
 13  2  1  0  0  0  0
 13  6  1  0  0  0  0
 14 11  1  0  0  0  0
 16  3  1  0  0  0  0
 17 15  1  0  0  0  0
 17 24  1  0  0  0  0
 17 20  1  0  0  0  0
 18 16  1  0  0  0  0
 19 18  1  0  0  0  0
 20 21  1  0  0  0  0
 21 23  1  0  0  0  0
 22 23  1  0  0  0  0
 25 26  1  0  0  0  0
 25 24  1  0  0  0  0
 27 28  1  0  0  0  0
 28 26  1  0  0  0  0
 29 30  1  0  0  0  0
 30 32  1  0  0  0  0
 31 37  1  0  0  0  0
 32 31  1  0  0  0  0
 33 36  1  0  0  0  0
 33 32  2  0  0  0  0
 34 36  2  0  0  0  0
 35 37  2  0  0  0  0
 36 35  1  0  0  0  0
M  END
>  <MODEL>
3

>  <REMARK>
 VINA RESULT:      -5.3      5.589      9.269
  Name = 
  11 active torsions:
  status: ('A' for Active; 'I' for Inactive)
    1  A    between atoms: C_1  and  C_5
    2  A    between atoms: C_1  and  C_36
    3  A    between atoms: C_3  and  C_32
    4  A    between atoms: C_5  and  C_23
    5  A    between atoms: C_6  and  C_31
    6  A    between atoms: C_14  and  C_37
    7  A    between atoms: C_17  and  C_26
    8  A    between atoms: C_17  and  O_33
    9  A    between atoms: C_26  and  C_34
   10  A    between atoms: C_31  and  C_37
   11  A    between atoms: O_33  and  C_36
                            x       y       z     vdW  Elec       q    Type
                         _______ _______ _______ _____ _____    ______ ____

>  <TORSDO>
F 11

$$$$
=
 OpenBabel11052415233D

 37 40  0  0  1  0  0  0  0  0999 V2000
  187.7810  178.6800  141.1300 C   0  0  0  0  0  2  0  0  0  0  0  0
  191.2970  176.2590  141.7340 C   0  0  0  0  0  2  0  0  0  0  0  0
  188.4660  176.5010  136.7920 N   0  0  0  0  0  2  0  0  0  0  0  0
  188.5990  177.3990  141.0580 C   0  0  2  0  0  3  0  0  0  0  0  0
  188.4040  177.0760  138.1370 C   0  0  2  0  0  3  0  0  0  0  0  0
  188.9450  176.8880  142.4560 C   0  0  2  0  0  3  0  0  0  0  0  0
  187.9380  178.5220  138.0740 C   0  0  0  0  0  2  0  0  0  0  0  0
  189.7720  176.9310  138.8250 C   0  0  2  0  0  3  0  0  0  0  0  0
  190.2750  175.0590  137.6710 C   0  0  0  0  0  2  0  0  0  0  0  0
  185.4390  178.5460  140.7630 O   0  0  0  0  0  0  0  0  0  0  0  0
  186.6870  178.6530  138.8070 N   0  0  0  0  0  2  0  0  0  0  0  0
  190.0660  175.5640  138.9700 O   0  0  0  0  0  0  0  0  0  0  0  0
  189.9760  175.7730  142.3420 C   0  0  0  0  0  2  0  0  0  0  0  0
  186.5810  178.6140  140.2360 C   0  0  0  0  0  0  0  0  0  0  0  0
  189.8420  177.6580  140.1790 C   0  0  2  0  0  3  0  0  0  0  0  0
  188.9790  175.1240  136.8460 C   0  0  1  0  0  3  0  0  0  0  0  0
  191.2170  177.5660  140.8980 C   0  0  1  0  0  0  0  0  0  0  0  0
  187.9330  174.1610  137.3970 C   0  0  0  0  0  2  0  0  0  0  0  0
  188.1760  172.7600  136.8700 C   0  0  0  0  0  1  0  0  0  0  0  0
  191.3490  178.7720  141.8570 C   0  0  0  0  0  2  0  0  0  0  0  0
  192.0410  178.4310  143.1750 C   0  0  0  0  0  2  0  0  0  0  0  0
  191.0980  177.6850  145.3350 C   0  0  0  0  0  1  0  0  0  0  0  0
  191.1880  178.8390  144.3590 C   0  0  0  0  0  2  0  0  0  0  0  0
  192.2420  177.5900  139.9110 O   0  0  0  0  0  0  0  0  0  0  0  0
  193.2970  176.7290  140.2680 C   0  0  0  0  0  2  0  0  0  0  0  0
  193.8020  176.0140  139.0340 C   0  0  0  0  0  2  0  0  0  0  0  0
  193.8020  176.0140  136.5620 C   0  0  0  0  0  1  0  0  0  0  0  0
  193.3210  176.7440  137.7980 C   0  0  0  0  0  2  0  0  0  0  0  0
  187.6940  176.3560  143.1380 C   0  0  0  0  0  2  0  0  0  0  0  0
  187.7000  176.7220  144.6130 C   0  0  0  0  0  2  0  0  0  0  0  0
  186.1800  177.7370  146.4310 C   0  0  0  0  0  2  0  0  0  0  0  0
  186.4640  177.4750  144.9690 C   0  0  0  0  0  0  0  0  0  0  0  0
  185.6870  177.9630  143.9960 C   0  0  0  0  0  3  0  0  0  0  0  0
  183.7590  179.1960  143.3980 O   0  0  0  0  0  0  0  0  0  0  0  0
  184.0920  178.9120  145.7210 C   0  0  0  0  0  3  0  0  0  0  0  0
  184.4750  178.7230  144.3190 C   0  0  0  0  0  0  0  0  0  0  0  0
  184.8720  178.4440  146.6980 C   0  0  0  0  0  3  0  0  0  0  0  0
  2 13  1  0  0  0  0
  3 16  1  0  0  0  0
  3  5  1  0  0  0  0
  4  1  1  1  0  0  0
  4  6  1  0  0  0  0
  5  7  1  6  0  0  0
  5  8  1  0  0  0  0
  6 29  1  6  0  0  0
  7 11  1  0  0  0  0
  8 12  1  1  0  0  0
  8 15  1  0  0  0  0
  9 12  1  0  0  0  0
 11 14  1  0  0  0  0
 13  6  1  0  0  0  0
 14 10  2  0  0  0  0
 14  1  1  0  0  0  0
 15 17  1  0  0  0  0
 15  4  1  0  0  0  0
 16 18  1  0  0  0  0
 16  9  1  0  0  0  0
 17  2  1  0  0  0  0
 17 20  1  0  0  0  0
 19 18  1  0  0  0  0
 20 21  1  0  0  0  0
 21 23  1  0  0  0  0
 23 22  1  0  0  0  0
 24 25  1  0  0  0  0
 24 17  1  0  0  0  0
 26 25  1  0  0  0  0
 27 28  1  0  0  0  0
 28 26  1  0  0  0  0
 29 30  1  0  0  0  0
 30 32  1  0  0  0  0
 31 37  1  0  0  0  0
 32 31  1  0  0  0  0
 33 36  1  0  0  0  0
 33 32  2  0  0  0  0
 34 36  2  0  0  0  0
 35 37  2  0  0  0  0
 36 35  1  0  0  0  0
M  END
>  <MODEL>
4

>  <REMARK>
 VINA RESULT:      -5.3      2.430      5.005
  Name = 
  11 active torsions:
  status: ('A' for Active; 'I' for Inactive)
    1  A    between atoms: C_1  and  C_5
    2  A    between atoms: C_1  and  C_36
    3  A    between atoms: C_3  and  C_32
    4  A    between atoms: C_5  and  C_23
    5  A    between atoms: C_6  and  C_31
    6  A    between atoms: C_14  and  C_37
    7  A    between atoms: C_17  and  C_26
    8  A    between atoms: C_17  and  O_33
    9  A    between atoms: C_26  and  C_34
   10  A    between atoms: C_31  and  C_37
   11  A    between atoms: O_33  and  C_36
                            x       y       z     vdW  Elec       q    Type
                         _______ _______ _______ _____ _____    ______ ____

>  <TORSDO>
F 11

$$$$
=
 OpenBabel11052415233D

 37 40  0  0  1  0  0  0  0  0999 V2000
  187.3240  178.6920  141.5840 C   0  0  0  0  0  2  0  0  0  0  0  0
  190.9130  176.3890  142.2160 C   0  0  0  0  0  2  0  0  0  0  0  0
  188.3130  176.8210  137.1620 N   0  0  0  0  0  2  0  0  0  0  0  0
  188.2020  177.4540  141.4750 C   0  0  2  0  0  3  0  0  0  0  0  0
  188.1610  177.3070  138.5350 C   0  0  2  0  0  3  0  0  0  0  0  0
  188.5030  176.8710  142.8560 C   0  0  2  0  0  3  0  0  0  0  0  0
  187.6340  178.7330  138.5360 C   0  0  0  0  0  2  0  0  0  0  0  0
  189.5000  177.1770  139.2800 C   0  0  2  0  0  3  0  0  0  0  0  0
  190.1410  175.4050  138.0420 C   0  0  0  0  0  2  0  0  0  0  0  0
  185.0110  178.4830  141.0920 O   0  0  0  0  0  0  0  0  0  0  0  0
  186.3440  178.7650  139.2120 N   0  0  0  0  0  2  0  0  0  0  0  0
  189.8480  175.8180  139.3570 O   0  0  0  0  0  0  0  0  0  0  0  0
  189.5880  175.8100  142.7260 C   0  0  0  0  0  2  0  0  0  0  0  0
  186.1720  178.6320  140.6290 C   0  0  0  0  0  0  0  0  0  0  0  0
  189.4720  177.8200  140.6780 C   0  0  2  0  0  3  0  0  0  0  0  0
  188.8850  175.4660  137.1580 C   0  0  1  0  0  3  0  0  0  0  0  0
  190.8140  177.7410  141.4590 C   0  0  1  0  0  0  0  0  0  0  0  0
  187.8580  174.4270  137.5960 C   0  0  0  0  0  2  0  0  0  0  0  0
  186.6660  174.4370  136.6600 C   0  0  0  0  0  1  0  0  0  0  0  0
  190.8460  178.8890  142.4940 C   0  0  0  0  0  2  0  0  0  0  0  0
  191.6790  178.5710  143.7340 C   0  0  0  0  0  2  0  0  0  0  0  0
  191.2940  177.2890  145.8130 C   0  0  0  0  0  1  0  0  0  0  0  0
  190.8000  178.4390  144.9610 C   0  0  0  0  0  2  0  0  0  0  0  0
  191.8830  177.8710  140.5280 O   0  0  0  0  0  0  0  0  0  0  0  0
  192.9110  176.9550  140.8200 C   0  0  0  0  0  2  0  0  0  0  0  0
  193.9310  176.9700  139.7020 C   0  0  0  0  0  2  0  0  0  0  0  0
  193.8470  175.3810  137.8110 C   0  0  0  0  0  1  0  0  0  0  0  0
  193.2450  176.6420  138.3930 C   0  0  0  0  0  2  0  0  0  0  0  0
  187.2470  176.2450  143.4410 C   0  0  0  0  0  2  0  0  0  0  0  0
  186.2810  177.3270  143.8950 C   0  0  0  0  0  2  0  0  0  0  0  0
  185.7020  178.7870  145.9400 C   0  0  0  0  0  2  0  0  0  0  0  0
  186.5810  177.7380  145.2960 C   0  0  0  0  0  0  0  0  0  0  0  0
  187.5580  177.1220  145.9690 C   0  0  0  0  0  3  0  0  0  0  0  0
  188.7700  176.8960  147.9880 O   0  0  0  0  0  0  0  0  0  0  0  0
  187.1130  178.5820  147.9910 C   0  0  0  0  0  3  0  0  0  0  0  0
  187.8610  177.4950  147.3550 C   0  0  0  0  0  0  0  0  0  0  0  0
  186.1240  179.1910  147.3320 C   0  0  0  0  0  3  0  0  0  0  0  0
  2 13  1  0  0  0  0
  3  5  1  0  0  0  0
  4  1  1  1  0  0  0
  4  6  1  0  0  0  0
  5  7  1  6  0  0  0
  5  8  1  0  0  0  0
  6 29  1  6  0  0  0
  7 11  1  0  0  0  0
  8 12  1  1  0  0  0
  8 15  1  0  0  0  0
  9 12  1  0  0  0  0
 11 14  1  0  0  0  0
 13  6  1  0  0  0  0
 14 10  2  0  0  0  0
 14  1  1  0  0  0  0
 15 17  1  0  0  0  0
 15  4  1  0  0  0  0
 16  3  1  0  0  0  0
 16 18  1  0  0  0  0
 16  9  1  0  0  0  0
 17  2  1  0  0  0  0
 17 20  1  0  0  0  0
 19 18  1  0  0  0  0
 20 21  1  0  0  0  0
 21 23  1  0  0  0  0
 23 22  1  0  0  0  0
 24 25  1  0  0  0  0
 24 17  1  0  0  0  0
 26 25  1  0  0  0  0
 27 28  1  0  0  0  0
 28 26  1  0  0  0  0
 29 30  1  0  0  0  0
 30 32  1  0  0  0  0
 31 37  1  0  0  0  0
 32 31  1  0  0  0  0
 32 33  2  0  0  0  0
 33 36  1  0  0  0  0
 36 34  2  0  0  0  0
 36 35  1  0  0  0  0
 37 35  2  0  0  0  0
M  END
>  <MODEL>
5

>  <REMARK>
 VINA RESULT:      -5.1      2.955      5.608
  Name = 
  11 active torsions:
  status: ('A' for Active; 'I' for Inactive)
    1  A    between atoms: C_1  and  C_5
    2  A    between atoms: C_1  and  C_36
    3  A    between atoms: C_3  and  C_32
    4  A    between atoms: C_5  and  C_23
    5  A    between atoms: C_6  and  C_31
    6  A    between atoms: C_14  and  C_37
    7  A    between atoms: C_17  and  C_26
    8  A    between atoms: C_17  and  O_33
    9  A    between atoms: C_26  and  C_34
   10  A    between atoms: C_31  and  C_37
   11  A    between atoms: O_33  and  C_36
                            x       y       z     vdW  Elec       q    Type
                         _______ _______ _______ _____ _____    ______ ____

>  <TORSDO>
F 11

$$$$
=
 OpenBabel11052415233D

 37 40  0  0  1  0  0  0  0  0999 V2000
  183.3640  177.4110  137.5010 C   0  0  0  0  0  2  0  0  0  0  0  0
  180.1620  177.3990  140.3870 C   0  0  0  0  0  2  0  0  0  0  0  0
  185.3380  179.5370  141.4530 N   0  0  0  0  0  2  0  0  0  0  0  0
  182.7450  177.1650  138.8700 C   0  0  2  0  0  3  0  0  0  0  0  0
  184.6030  178.8960  140.3600 C   0  0  2  0  0  3  0  0  0  0  0  0
  181.6530  176.0980  138.7950 C   0  0  2  0  0  3  0  0  0  0  0  0
  185.0140  179.4960  139.0240 C   0  0  0  0  0  2  0  0  0  0  0  0
  183.0910  179.0130  140.6140 C   0  0  2  0  0  3  0  0  0  0  0  0
  183.3600  179.0350  142.8530 C   0  0  0  0  0  2  0  0  0  0  0  0
  185.4830  176.4490  137.0310 O   0  0  0  0  0  0  0  0  0  0  0  0
  185.6050  178.4540  138.1950 N   0  0  0  0  0  2  0  0  0  0  0  0
  182.7730  178.3170  141.7930 O   0  0  0  0  0  0  0  0  0  0  0  0
  180.8850  176.0750  140.1100 C   0  0  0  0  0  2  0  0  0  0  0  0
  184.8610  177.4020  137.5670 C   0  0  0  0  0  0  0  0  0  0  0  0
  182.2440  178.5130  139.4310 C   0  0  2  0  0  3  0  0  0  0  0  0
  184.8940  179.0040  142.7500 C   0  0  1  0  0  3  0  0  0  0  0  0
  180.7080  178.6400  139.6300 C   0  0  1  0  0  0  0  0  0  0  0  0
  185.4290  177.5960  142.9850 C   0  0  0  0  0  2  0  0  0  0  0  0
  186.7320  177.6490  143.7570 C   0  0  0  0  0  1  0  0  0  0  0  0
  180.0380  178.7000  138.2370 C   0  0  0  0  0  2  0  0  0  0  0  0
  180.2860  180.0120  137.4960 C   0  0  0  0  0  2  0  0  0  0  0  0
  180.4300  178.3520  135.6700 C   0  0  0  0  0  1  0  0  0  0  0  0
  180.7990  179.7570  136.0940 C   0  0  0  0  0  2  0  0  0  0  0  0
  180.4480  179.8290  140.3680 O   0  0  0  0  0  0  0  0  0  0  0  0
  179.4150  179.6190  141.3000 C   0  0  0  0  0  2  0  0  0  0  0  0
  179.7410  180.3490  142.5850 C   0  0  0  0  0  2  0  0  0  0  0  0
  179.8640  178.3770  144.0690 C   0  0  0  0  0  1  0  0  0  0  0  0
  179.0870  179.6360  143.7490 C   0  0  0  0  0  2  0  0  0  0  0  0
  182.2760  174.7340  138.5460 C   0  0  0  0  0  2  0  0  0  0  0  0
  181.6650  174.0910  137.3120 C   0  0  0  0  0  2  0  0  0  0  0  0
  184.0060  173.0500  137.0260 C   0  0  0  0  0  2  0  0  0  0  0  0
  182.5080  172.9550  136.8450 C   0  0  0  0  0  0  0  0  0  0  0  0
  181.9210  171.8570  136.3540 C   0  0  0  0  0  3  0  0  0  0  0  0
  182.1670  169.6800  135.4630 O   0  0  0  0  0  0  0  0  0  0  0  0
  184.1890  170.8010  135.9550 C   0  0  0  0  0  3  0  0  0  0  0  0
  182.7270  170.7170  135.9050 C   0  0  0  0  0  0  0  0  0  0  0  0
  184.7820  171.8850  136.4590 C   0  0  0  0  0  3  0  0  0  0  0  0
  1 14  1  0  0  0  0
  3 16  1  0  0  0  0
  4  1  1  6  0  0  0
  4 15  1  0  0  0  0
  5  7  1  6  0  0  0
  5  8  1  0  0  0  0
  5  3  1  0  0  0  0
  6 29  1  1  0  0  0
  6  4  1  0  0  0  0
  6 13  1  0  0  0  0
  8 12  1  1  0  0  0
 10 14  2  0  0  0  0
 11  7  1  0  0  0  0
 12  9  1  0  0  0  0
 13  2  1  0  0  0  0
 14 11  1  0  0  0  0
 15 17  1  0  0  0  0
 15  8  1  0  0  0  0
 16  9  1  0  0  0  0
 16 18  1  0  0  0  0
 17 24  1  0  0  0  0
 17  2  1  0  0  0  0
 18 19  1  0  0  0  0
 20 17  1  0  0  0  0
 21 20  1  0  0  0  0
 22 23  1  0  0  0  0
 23 21  1  0  0  0  0
 24 25  1  0  0  0  0
 25 26  1  0  0  0  0
 26 28  1  0  0  0  0
 28 27  1  0  0  0  0
 30 29  1  0  0  0  0
 32 31  1  0  0  0  0
 32 30  1  0  0  0  0
 33 32  2  0  0  0  0
 34 36  2  0  0  0  0
 35 37  2  0  0  0  0
 36 35  1  0  0  0  0
 36 33  1  0  0  0  0
 37 31  1  0  0  0  0
M  END
>  <MODEL>
6

>  <REMARK>
 VINA RESULT:      -5.1      5.728     10.723
  Name = 
  11 active torsions:
  status: ('A' for Active; 'I' for Inactive)
    1  A    between atoms: C_1  and  C_5
    2  A    between atoms: C_1  and  C_36
    3  A    between atoms: C_3  and  C_32
    4  A    between atoms: C_5  and  C_23
    5  A    between atoms: C_6  and  C_31
    6  A    between atoms: C_14  and  C_37
    7  A    between atoms: C_17  and  C_26
    8  A    between atoms: C_17  and  O_33
    9  A    between atoms: C_26  and  C_34
   10  A    between atoms: C_31  and  C_37
   11  A    between atoms: O_33  and  C_36
                            x       y       z     vdW  Elec       q    Type
                         _______ _______ _______ _____ _____    ______ ____

>  <TORSDO>
F 11

$$$$
=
 OpenBabel11052415233D

 37 40  0  0  1  0  0  0  0  0999 V2000
  192.3050  176.6960  137.7550 C   0  0  0  0  0  2  0  0  0  0  0  0
  188.0340  176.4940  138.3070 C   0  0  0  0  0  2  0  0  0  0  0  0
  191.7060  177.4230  142.5670 N   0  0  0  0  0  2  0  0  0  0  0  0
  191.0250  176.2240  138.4290 C   0  0  2  0  0  3  0  0  0  0  0  0
  191.7160  177.2020  141.1190 C   0  0  2  0  0  3  0  0  0  0  0  0
  190.1670  175.4020  137.4660 C   0  0  2  0  0  3  0  0  0  0  0  0
  192.8050  178.0380  140.4630 C   0  0  0  0  0  2  0  0  0  0  0  0
  190.3230  177.4990  140.5410 C   0  0  2  0  0  3  0  0  0  0  0  0
  189.2860  176.9200  142.4590 C   0  0  0  0  0  2  0  0  0  0  0  0
  194.3250  175.5470  138.2380 O   0  0  0  0  0  0  0  0  0  0  0  0
  193.7640  177.1530  139.8180 N   0  0  0  0  0  2  0  0  0  0  0  0
  189.4000  176.5940  141.0930 O   0  0  0  0  0  0  0  0  0  0  0  0
  188.7930  175.1810  138.0830 C   0  0  0  0  0  2  0  0  0  0  0  0
  193.5050  176.4260  138.6100 C   0  0  0  0  0  0  0  0  0  0  0  0
  190.2890  177.4530  139.0030 C   0  0  2  0  0  3  0  0  0  0  0  0
  190.6130  176.6650  143.1930 C   0  0  1  0  0  3  0  0  0  0  0  0
  188.9060  177.7770  138.3710 C   0  0  1  0  0  0  0  0  0  0  0  0
  190.9280  175.1740  143.2470 C   0  0  0  0  0  2  0  0  0  0  0  0
  191.9510  174.8910  144.3300 C   0  0  0  0  0  1  0  0  0  0  0  0
  189.1350  178.2900  136.9300 C   0  0  0  0  0  2  0  0  0  0  0  0
  187.8920  178.2080  136.0480 C   0  0  0  0  0  2  0  0  0  0  0  0
  189.6650  177.2830  134.5940 C   0  0  0  0  0  1  0  0  0  0  0  0
  188.1690  177.4120  134.7890 C   0  0  0  0  0  2  0  0  0  0  0  0
  188.2720  178.7720  139.1670 O   0  0  0  0  0  0  0  0  0  0  0  0
  186.9740  178.3660  139.5300 C   0  0  0  0  0  2  0  0  0  0  0  0
  186.7290  178.7040  140.9850 C   0  0  0  0  0  2  0  0  0  0  0  0
  184.8040  178.4020  142.5050 C   0  0  0  0  0  1  0  0  0  0  0  0
  185.2600  179.0010  141.1910 C   0  0  0  0  0  2  0  0  0  0  0  0
  190.8280  174.0590  137.1990 C   0  0  0  0  0  2  0  0  0  0  0  0
  191.0940  173.8880  135.7120 C   0  0  0  0  0  2  0  0  0  0  0  0
  193.3320  174.8610  134.8780 C   0  0  0  0  0  2  0  0  0  0  0  0
  192.5520  173.7040  135.4620 C   0  0  0  0  0  0  0  0  0  0  0  0
  193.1440  172.5620  135.8270 C   0  0  0  0  0  3  0  0  0  0  0  0
  195.1350  171.2930  135.9740 O   0  0  0  0  0  0  0  0  0  0  0  0
  195.3630  173.4090  134.9460 C   0  0  0  0  0  3  0  0  0  0  0  0
  194.5810  172.3630  135.6090 C   0  0  0  0  0  0  0  0  0  0  0  0
  194.7830  174.5590  134.5940 C   0  0  0  0  0  3  0  0  0  0  0  0
  1 14  1  0  0  0  0
  2 17  1  0  0  0  0
  3 16  1  0  0  0  0
  4  1  1  6  0  0  0
  4 15  1  0  0  0  0
  5  7  1  6  0  0  0
  5  3  1  0  0  0  0
  6 29  1  1  0  0  0
  6 13  1  0  0  0  0
  6  4  1  0  0  0  0
  8 12  1  1  0  0  0
  8  5  1  0  0  0  0
  9 16  1  0  0  0  0
 10 14  2  0  0  0  0
 11  7  1  0  0  0  0
 12  9  1  0  0  0  0
 13  2  1  0  0  0  0
 14 11  1  0  0  0  0
 15  8  1  0  0  0  0
 16 18  1  0  0  0  0
 17 15  1  0  0  0  0
 17 24  1  0  0  0  0
 18 19  1  0  0  0  0
 20 17  1  0  0  0  0
 21 20  1  0  0  0  0
 22 23  1  0  0  0  0
 23 21  1  0  0  0  0
 24 25  1  0  0  0  0
 25 26  1  0  0  0  0
 26 28  1  0  0  0  0
 28 27  1  0  0  0  0
 30 29  1  0  0  0  0
 31 32  1  0  0  0  0
 32 30  1  0  0  0  0
 32 33  2  0  0  0  0
 35 36  1  0  0  0  0
 36 33  1  0  0  0  0
 36 34  2  0  0  0  0
 37 31  1  0  0  0  0
 37 35  2  0  0  0  0
M  END
>  <MODEL>
7

>  <REMARK>
 VINA RESULT:      -5.0      2.963      8.090
  Name = 
  11 active torsions:
  status: ('A' for Active; 'I' for Inactive)
    1  A    between atoms: C_1  and  C_5
    2  A    between atoms: C_1  and  C_36
    3  A    between atoms: C_3  and  C_32
    4  A    between atoms: C_5  and  C_23
    5  A    between atoms: C_6  and  C_31
    6  A    between atoms: C_14  and  C_37
    7  A    between atoms: C_17  and  C_26
    8  A    between atoms: C_17  and  O_33
    9  A    between atoms: C_26  and  C_34
   10  A    between atoms: C_31  and  C_37
   11  A    between atoms: O_33  and  C_36
                            x       y       z     vdW  Elec       q    Type
                         _______ _______ _______ _____ _____    ______ ____

>  <TORSDO>
F 11

$$$$
=
 OpenBabel11052415233D

 37 40  0  0  1  0  0  0  0  0999 V2000
  183.0480  175.7320  139.0760 C   0  0  0  0  0  2  0  0  0  0  0  0
  184.4520  179.6900  140.0510 C   0  0  0  0  0  2  0  0  0  0  0  0
  178.9340  178.2630  139.9210 N   0  0  0  0  0  2  0  0  0  0  0  0
  183.0690  177.2500  138.9700 C   0  0  2  0  0  3  0  0  0  0  0  0
  180.2470  177.6480  139.7110 C   0  0  2  0  0  3  0  0  0  0  0  0
  184.4070  177.7440  138.4200 C   0  0  2  0  0  3  0  0  0  0  0  0
  180.2470  176.2140  140.2200 C   0  0  0  0  0  2  0  0  0  0  0  0
  181.3330  178.5060  140.3810 C   0  0  2  0  0  3  0  0  0  0  0  0
  180.1540  180.4080  140.1020 C   0  0  0  0  0  2  0  0  0  0  0  0
  181.8810  174.5010  137.4150 O   0  0  0  0  0  0  0  0  0  0  0  0
  180.5150  175.3130  139.1080 N   0  0  0  0  0  2  0  0  0  0  0  0
  181.3620  179.7670  139.7620 O   0  0  0  0  0  0  0  0  0  0  0  0
  184.4870  179.2570  138.5810 C   0  0  0  0  0  2  0  0  0  0  0  0
  181.7970  175.1600  138.4850 C   0  0  0  0  0  0  0  0  0  0  0  0
  182.7220  177.8440  140.3520 C   0  0  2  0  0  3  0  0  0  0  0  0
  178.9530  179.6690  139.4890 C   0  0  1  0  0  3  0  0  0  0  0  0
  183.8480  178.6620  141.0460 C   0  0  1  0  0  0  0  0  0  0  0  0
  178.9580  179.7850  137.9690 C   0  0  0  0  0  2  0  0  0  0  0  0
  179.2980  181.2020  137.5500 C   0  0  0  0  0  1  0  0  0  0  0  0
  184.9640  177.6840  141.4820 C   0  0  0  0  0  2  0  0  0  0  0  0
  186.2730  178.3780  141.8520 C   0  0  0  0  0  2  0  0  0  0  0  0
  188.6980  178.3380  141.3710 C   0  0  0  0  0  1  0  0  0  0  0  0
  187.3170  178.1840  140.7710 C   0  0  0  0  0  2  0  0  0  0  0  0
  183.2890  179.3270  142.1730 O   0  0  0  0  0  0  0  0  0  0  0  0
  183.4650  178.5600  143.3400 C   0  0  0  0  0  2  0  0  0  0  0  0
  183.9630  179.4510  144.4570 C   0  0  0  0  0  2  0  0  0  0  0  0
  185.8430  178.2560  145.5270 C   0  0  0  0  0  1  0  0  0  0  0  0
  184.3720  178.5970  145.6370 C   0  0  0  0  0  2  0  0  0  0  0  0
  184.5280  177.3820  136.9480 C   0  0  0  0  0  2  0  0  0  0  0  0
  185.5420  176.2660  136.7600 C   0  0  0  0  0  2  0  0  0  0  0  0
  187.9380  175.7110  137.5340 C   0  0  0  0  0  2  0  0  0  0  0  0
  186.9090  176.7390  137.1190 C   0  0  0  0  0  0  0  0  0  0  0  0
  187.2130  178.0350  136.9900 C   0  0  0  0  0  3  0  0  0  0  0  0
  188.8400  179.7410  137.1760 O   0  0  0  0  0  0  0  0  0  0  0  0
  189.5600  177.5870  137.8320 C   0  0  0  0  0  3  0  0  0  0  0  0
  188.5560  178.5230  137.3180 C   0  0  0  0  0  0  0  0  0  0  0  0
  189.2710  176.2890  137.9450 C   0  0  0  0  0  3  0  0  0  0  0  0
  2 17  1  0  0  0  0
  4  1  1  1  0  0  0
  4 15  1  0  0  0  0
  5  3  1  0  0  0  0
  5  7  1  1  0  0  0
  5  8  1  0  0  0  0
  6 29  1  6  0  0  0
  6 13  1  0  0  0  0
  6  4  1  0  0  0  0
  8 12  1  6  0  0  0
 10 14  2  0  0  0  0
 11  7  1  0  0  0  0
 12  9  1  0  0  0  0
 13  2  1  0  0  0  0
 14  1  1  0  0  0  0
 14 11  1  0  0  0  0
 15  8  1  0  0  0  0
 15 17  1  0  0  0  0
 16  3  1  0  0  0  0
 16  9  1  0  0  0  0
 17 20  1  0  0  0  0
 17 24  1  0  0  0  0
 18 16  1  0  0  0  0
 19 18  1  0  0  0  0
 20 21  1  0  0  0  0
 23 22  1  0  0  0  0
 23 21  1  0  0  0  0
 24 25  1  0  0  0  0
 25 26  1  0  0  0  0
 26 28  1  0  0  0  0
 27 28  1  0  0  0  0
 30 29  1  0  0  0  0
 30 32  1  0  0  0  0
 31 37  1  0  0  0  0
 32 31  1  0  0  0  0
 33 32  2  0  0  0  0
 33 36  1  0  0  0  0
 34 36  2  0  0  0  0
 35 37  2  0  0  0  0
 36 35  1  0  0  0  0
M  END
>  <MODEL>
8

>  <REMARK>
 VINA RESULT:      -4.8      4.557      9.027
  Name = 
  11 active torsions:
  status: ('A' for Active; 'I' for Inactive)
    1  A    between atoms: C_1  and  C_5
    2  A    between atoms: C_1  and  C_36
    3  A    between atoms: C_3  and  C_32
    4  A    between atoms: C_5  and  C_23
    5  A    between atoms: C_6  and  C_31
    6  A    between atoms: C_14  and  C_37
    7  A    between atoms: C_17  and  C_26
    8  A    between atoms: C_17  and  O_33
    9  A    between atoms: C_26  and  C_34
   10  A    between atoms: C_31  and  C_37
   11  A    between atoms: O_33  and  C_36
                            x       y       z     vdW  Elec       q    Type
                         _______ _______ _______ _____ _____    ______ ____

>  <TORSDO>
F 11

$$$$
=
 OpenBabel11052415233D

 37 40  0  0  1  0  0  0  0  0999 V2000
  189.7630  173.8720  136.5940 C   0  0  0  0  0  2  0  0  0  0  0  0
  189.6370  177.9880  137.8690 C   0  0  0  0  0  2  0  0  0  0  0  0
  184.9750  174.9190  136.7120 N   0  0  0  0  0  2  0  0  0  0  0  0
  189.3130  175.3240  136.5170 C   0  0  2  0  0  3  0  0  0  0  0  0
  186.4310  174.7620  136.7360 C   0  0  2  0  0  3  0  0  0  0  0  0
  190.4940  176.2510  136.2270 C   0  0  2  0  0  3  0  0  0  0  0  0
  186.8060  173.3680  137.2140 C   0  0  0  0  0  2  0  0  0  0  0  0
  187.0560  175.8660  137.6060 C   0  0  2  0  0  3  0  0  0  0  0  0
  185.3930  177.3190  137.1450 C   0  0  0  0  0  2  0  0  0  0  0  0
  189.3510  172.4620  134.7290 O   0  0  0  0  0  0  0  0  0  0  0  0
  187.5320  172.6800  136.1560 N   0  0  0  0  0  2  0  0  0  0  0  0
  186.7810  177.1150  137.0220 O   0  0  0  0  0  0  0  0  0  0  0  0
  190.0560  177.6960  136.4240 C   0  0  0  0  0  2  0  0  0  0  0  0
  188.8800  172.9810  135.7750 C   0  0  0  0  0  0  0  0  0  0  0  0
  188.5670  175.6770  137.8210 C   0  0  2  0  0  3  0  0  0  0  0  0
  184.6140  176.2870  136.3130 C   0  0  1  0  0  3  0  0  0  0  0  0
  189.2370  176.7530  138.7210 C   0  0  1  0  0  0  0  0  0  0  0  0
  184.8360  176.5100  134.8210 C   0  0  0  0  0  2  0  0  0  0  0  0
  185.6920  177.7400  134.5940 C   0  0  0  0  0  1  0  0  0  0  0  0
  190.5190  176.1450  139.3390 C   0  0  0  0  0  2  0  0  0  0  0  0
  191.6080  177.1760  139.6230 C   0  0  0  0  0  2  0  0  0  0  0  0
  190.9800  176.4150  141.8900 C   0  0  0  0  0  1  0  0  0  0  0  0
  191.6750  177.5040  141.1010 C   0  0  0  0  0  2  0  0  0  0  0  0
  188.3140  177.1260  139.7380 O   0  0  0  0  0  0  0  0  0  0  0  0
  188.3320  178.5190  139.9400 C   0  0  0  0  0  2  0  0  0  0  0  0
  188.1780  178.8150  141.4160 C   0  0  0  0  0  2  0  0  0  0  0  0
  187.5860  177.2540  143.2380 C   0  0  0  0  0  1  0  0  0  0  0  0
  187.0800  177.9460  141.9900 C   0  0  0  0  0  2  0  0  0  0  0  0
  190.9700  176.0530  134.7970 C   0  0  0  0  0  2  0  0  0  0  0  0
  192.4760  176.2440  134.7100 C   0  0  0  0  0  2  0  0  0  0  0  0
  193.6870  175.8990  136.9600 C   0  0  0  0  0  2  0  0  0  0  0  0
  193.1730  175.3280  135.6570 C   0  0  0  0  0  0  0  0  0  0  0  0
  193.2560  174.0240  135.3720 C   0  0  0  0  0  3  0  0  0  0  0  0
  193.9770  171.8700  136.0300 O   0  0  0  0  0  0  0  0  0  0  0  0
  194.5340  173.6170  137.5210 C   0  0  0  0  0  3  0  0  0  0  0  0
  193.9200  173.0990  136.2960 C   0  0  0  0  0  0  0  0  0  0  0  0
  194.4400  174.9140  137.8220 C   0  0  0  0  0  3  0  0  0  0  0  0
  2 17  1  0  0  0  0
  3  5  1  0  0  0  0
  4  1  1  1  0  0  0
  4 15  1  0  0  0  0
  5  7  1  1  0  0  0
  5  8  1  0  0  0  0
  6 29  1  6  0  0  0
  6 13  1  0  0  0  0
  6  4  1  0  0  0  0
  8 12  1  6  0  0  0
  8 15  1  0  0  0  0
 10 14  2  0  0  0  0
 11  7  1  0  0  0  0
 12  9  1  0  0  0  0
 13  2  1  0  0  0  0
 14 11  1  0  0  0  0
 14  1  1  0  0  0  0
 15 17  1  0  0  0  0
 16  3  1  0  0  0  0
 16  9  1  0  0  0  0
 17 20  1  0  0  0  0
 17 24  1  0  0  0  0
 18 16  1  0  0  0  0
 19 18  1  0  0  0  0
 20 21  1  0  0  0  0
 21 23  1  0  0  0  0
 23 22  1  0  0  0  0
 24 25  1  0  0  0  0
 25 26  1  0  0  0  0
 26 28  1  0  0  0  0
 28 27  1  0  0  0  0
 30 29  1  0  0  0  0
 30 32  1  0  0  0  0
 31 37  1  0  0  0  0
 32 31  1  0  0  0  0
 33 32  2  0  0  0  0
 33 36  1  0  0  0  0
 34 36  2  0  0  0  0
 35 37  2  0  0  0  0
 36 35  1  0  0  0  0
M  END
>  <MODEL>
9

>  <REMARK>
 VINA RESULT:      -4.4      1.833      6.641
  Name = 
  11 active torsions:
  status: ('A' for Active; 'I' for Inactive)
    1  A    between atoms: C_1  and  C_5
    2  A    between atoms: C_1  and  C_36
    3  A    between atoms: C_3  and  C_32
    4  A    between atoms: C_5  and  C_23
    5  A    between atoms: C_6  and  C_31
    6  A    between atoms: C_14  and  C_37
    7  A    between atoms: C_17  and  C_26
    8  A    between atoms: C_17  and  O_33
    9  A    between atoms: C_26  and  C_34
   10  A    between atoms: C_31  and  C_37
   11  A    between atoms: O_33  and  C_36
                            x       y       z     vdW  Elec       q    Type
                         _______ _______ _______ _____ _____    ______ ____

>  <TORSDO>
F 11

$$$$
