=
 OpenBabel11052413533D

 27 31  0  0  1  0  0  0  0  0999 V2000
  184.7270  178.4530  137.9690 C   0  0  0  0  0  2  0  0  0  0  0  0
  184.0330  176.2370  137.3810 C   0  0  1  0  0  3  0  0  0  0  0  0
  185.7580  177.0000  135.6560 C   0  0  0  0  0  2  0  0  0  0  0  0
  182.0830  174.9770  137.4100 C   0  0  1  0  0  3  0  0  0  0  0  0
  183.4230  175.0560  137.8620 O   0  0  0  0  0  0  0  0  0  0  0  0
  182.3850  178.5840  141.0910 C   0  0  0  0  0  2  0  0  0  0  0  0
  183.2950  177.2070  139.4410 C   0  0  1  0  0  3  0  0  0  0  0  0
  189.0500  178.1960  137.3490 C   0  0  0  0  0  2  0  0  0  0  0  0
  182.0910  178.0040  138.9320 C   0  0  2  0  0  3  0  0  0  0  0  0
  188.4390  178.0880  138.7040 C   0  0  0  0  0  0  0  0  0  0  0  0
  184.4190  177.1190  138.4960 N   0  0  2  0  0  0  0  0  0  0  0  0
  181.0490  175.6790  138.3050 C   0  0  2  0  0  3  0  0  0  0  0  0
  186.2180  178.6050  137.6880 C   0  0  1  0  0  3  0  0  0  0  0  0
  185.2440  175.8430  136.5230 C   0  0  1  0  0  3  0  0  0  0  0  0
  188.1560  177.4580  136.3570 C   0  0  0  0  0  2  0  0  0  0  0  0
  181.8720  175.1880  135.9100 C   0  0  0  0  0  1  0  0  0  0  0  0
  189.1600  177.8920  139.7160 O   0  0  0  0  0  0  0  0  0  0  0  0
  181.5610  178.6250  140.1110 N   0  0  0  0  0  2  0  0  0  0  0  0
  187.0250  178.2030  138.8370 N   0  0  0  0  0  2  0  0  0  0  0  0
  181.0190  177.2100  138.1740 C   0  0  0  0  0  2  0  0  0  0  0  0
  186.7100  177.9850  136.3510 C   0  0  1  0  0  3  0  0  0  0  0  0
  183.6580  177.8840  140.7540 C   0  0  0  0  0  2  0  0  0  0  0  0
  185.9370  173.7850  137.5300 O   0  0  0  0  0  0  0  0  0  0  0  0
  186.8820  173.9970  136.5110 C   0  0  0  0  0  2  0  0  0  0  0  0
  186.3340  175.1160  137.3090 C   0  0  1  0  0  3  0  0  0  0  0  0
  179.8380  175.2190  140.1010 C   0  0  0  0  0  1  0  0  0  0  0  0
  181.1530  175.2660  139.6370 O   0  0  0  0  0  0  0  0  0  0  0  0
  2  5  1  1  0  0  0
  2 11  1  0  0  0  0
  4 16  1  6  0  0  0
  4  5  1  0  0  0  0
  4 12  1  0  0  0  0
  7 22  1  1  0  0  0
  8 10  1  0  0  0  0
  9 20  1  1  0  0  0
  9  7  1  0  0  0  0
  9 18  1  0  0  0  0
 10 19  1  0  0  0  0
 10 17  2  0  0  0  0
 11  1  1  6  0  0  0
 11  7  1  0  0  0  0
 12 27  1  1  0  0  0
 13  1  1  1  0  0  0
 13 19  1  0  0  0  0
 14  3  1  1  0  0  0
 14 25  1  0  0  0  0
 14  2  1  0  0  0  0
 15  8  1  0  0  0  0
 18  6  1  0  0  0  0
 20 12  1  0  0  0  0
 21  3  1  1  0  0  0
 21 15  1  0  0  0  0
 21 13  1  0  0  0  0
 22  6  1  0  0  0  0
 24 23  1  0  0  0  0
 25 24  1  6  0  0  0
 25 23  1  0  0  0  0
 27 26  1  0  0  0  0
M  END
>  <MODEL>
1

>  <REMARK>
 VINA RESULT:      -4.8      0.000      0.000
  Name = 
  2 active torsions:
  status: ('A' for Active; 'I' for Inactive)
    1  A    between atoms: C_14  and  C_19
    2  A    between atoms: O_16  and  C_17
                            x       y       z     vdW  Elec       q    Type
                         _______ _______ _______ _____ _____    ______ ____

>  <TORSDO>
F 2

$$$$
=
 OpenBabel11052413533D

 27 31  0  0  1  0  0  0  0  0999 V2000
  189.3150  178.6520  143.6030 C   0  0  0  0  0  2  0  0  0  0  0  0
  190.4060  177.0240  142.2270 C   0  0  1  0  0  3  0  0  0  0  0  0
  192.0130  177.6590  144.1100 C   0  0  0  0  0  2  0  0  0  0  0  0
  190.5390  176.4830  139.9720 C   0  0  1  0  0  3  0  0  0  0  0  0
  190.2040  176.0080  141.2640 O   0  0  0  0  0  0  0  0  0  0  0  0
  186.0740  178.6290  141.4250 C   0  0  0  0  0  2  0  0  0  0  0  0
  188.1050  177.5580  141.8410 C   0  0  1  0  0  3  0  0  0  0  0  0
  190.3650  177.2390  147.6080 C   0  0  0  0  0  2  0  0  0  0  0  0
  188.2740  178.8010  140.9630 C   0  0  2  0  0  3  0  0  0  0  0  0
  189.0390  176.9530  146.9920 C   0  0  0  0  0  0  0  0  0  0  0  0
  189.1360  177.3910  142.8770 N   0  0  2  0  0  0  0  0  0  0  0  0
  189.4010  177.1930  139.2220 C   0  0  2  0  0  3  0  0  0  0  0  0
  189.6780  178.4020  145.0630 C   0  0  1  0  0  3  0  0  0  0  0  0
  191.4430  176.5270  143.2450 C   0  0  1  0  0  3  0  0  0  0  0  0
  191.4330  177.1280  146.5250 C   0  0  0  0  0  2  0  0  0  0  0  0
  191.9030  177.1610  139.8440 C   0  0  0  0  0  1  0  0  0  0  0  0
  188.1840  176.2660  147.6090 O   0  0  0  0  0  0  0  0  0  0  0  0
  186.9300  179.1990  140.6610 N   0  0  0  0  0  2  0  0  0  0  0  0
  188.7540  177.4630  145.6920 N   0  0  0  0  0  2  0  0  0  0  0  0
  189.1170  178.6280  139.6920 C   0  0  0  0  0  2  0  0  0  0  0  0
  191.1690  178.0600  145.3290 C   0  0  1  0  0  3  0  0  0  0  0  0
  186.6980  177.6900  142.4010 C   0  0  0  0  0  2  0  0  0  0  0  0
  191.3050  174.1390  143.3240 O   0  0  0  0  0  0  0  0  0  0  0  0
  192.1370  174.4650  144.4090 C   0  0  0  0  0  2  0  0  0  0  0  0
  190.9780  175.3060  144.0370 C   0  0  1  0  0  3  0  0  0  0  0  0
  187.6780  176.6690  137.9320 C   0  0  0  0  0  1  0  0  0  0  0  0
  188.2410  176.4120  139.1830 O   0  0  0  0  0  0  0  0  0  0  0  0
  2  5  1  6  0  0  0
  2 11  1  0  0  0  0
  2 14  1  0  0  0  0
  4 16  1  1  0  0  0
  4  5  1  0  0  0  0
  6 22  1  0  0  0  0
  7 22  1  1  0  0  0
  7 11  1  0  0  0  0
  9 20  1  6  0  0  0
  9  7  1  0  0  0  0
 10  8  1  0  0  0  0
 10 17  2  0  0  0  0
 11  1  1  6  0  0  0
 12 27  1  1  0  0  0
 12 20  1  0  0  0  0
 12  4  1  0  0  0  0
 13  1  1  6  0  0  0
 13 21  1  0  0  0  0
 13 19  1  0  0  0  0
 14 25  1  0  0  0  0
 14  3  1  1  0  0  0
 15  8  1  0  0  0  0
 18  9  1  0  0  0  0
 18  6  1  0  0  0  0
 19 10  1  0  0  0  0
 21  3  1  6  0  0  0
 21 15  1  0  0  0  0
 23 25  1  0  0  0  0
 23 24  1  0  0  0  0
 25 24  1  1  0  0  0
 26 27  1  0  0  0  0
M  END
>  <MODEL>
2

>  <REMARK>
 VINA RESULT:      -4.8      5.390      8.161
  Name = 
  2 active torsions:
  status: ('A' for Active; 'I' for Inactive)
    1  A    between atoms: C_14  and  C_19
    2  A    between atoms: O_16  and  C_17
                            x       y       z     vdW  Elec       q    Type
                         _______ _______ _______ _____ _____    ______ ____

>  <TORSDO>
F 2

$$$$
=
 OpenBabel11052413533D

 27 31  0  0  1  0  0  0  0  0999 V2000
  181.2710  180.1410  139.4600 C   0  0  0  0  0  2  0  0  0  0  0  0
  181.0620  178.5150  137.7150 C   0  0  1  0  0  3  0  0  0  0  0  0
  178.9310  179.9270  137.7280 C   0  0  0  0  0  2  0  0  0  0  0  0
  181.6440  176.2970  137.3470 C   0  0  1  0  0  3  0  0  0  0  0  0
  181.7740  177.6270  136.8770 O   0  0  0  0  0  0  0  0  0  0  0  0
  184.8130  178.8710  140.5050 C   0  0  0  0  0  2  0  0  0  0  0  0
  183.1360  178.7390  138.8890 C   0  0  1  0  0  3  0  0  0  0  0  0
  179.7240  183.7270  137.4890 C   0  0  0  0  0  2  0  0  0  0  0  0
  182.8390  177.8600  140.1060 C   0  0  2  0  0  3  0  0  0  0  0  0
  181.1850  183.4710  137.6280 C   0  0  0  0  0  0  0  0  0  0  0  0
  181.9750  179.4740  138.3610 N   0  0  2  0  0  0  0  0  0  0  0  0
  182.6790  175.8720  138.4000 C   0  0  2  0  0  3  0  0  0  0  0  0
  180.6500  181.4560  139.0010 C   0  0  1  0  0  3  0  0  0  0  0  0
  179.9940  179.2270  136.8720 C   0  0  1  0  0  3  0  0  0  0  0  0
  179.0310  182.4040  137.1790 C   0  0  0  0  0  2  0  0  0  0  0  0
  180.2160  175.8290  137.6330 C   0  0  0  0  0  1  0  0  0  0  0  0
  182.0230  184.2800  137.1530 O   0  0  0  0  0  0  0  0  0  0  0  0
  184.0430  177.9180  140.8800 N   0  0  0  0  0  2  0  0  0  0  0  0
  181.6210  182.2930  138.3020 N   0  0  0  0  0  2  0  0  0  0  0  0
  182.4160  176.4130  139.8140 C   0  0  0  0  0  2  0  0  0  0  0  0
  179.3010  181.3250  138.2430 C   0  0  1  0  0  3  0  0  0  0  0  0
  184.2650  179.6450  139.3540 C   0  0  0  0  0  2  0  0  0  0  0  0
  180.8200  179.3080  134.6260 O   0  0  0  0  0  0  0  0  0  0  0  0
  179.6740  180.1200  134.5940 C   0  0  0  0  0  2  0  0  0  0  0  0
  180.5800  180.1000  135.7630 C   0  0  1  0  0  3  0  0  0  0  0  0
  184.3150  175.0390  137.1610 C   0  0  0  0  0  1  0  0  0  0  0  0
  183.9860  176.1250  137.9730 O   0  0  0  0  0  0  0  0  0  0  0  0
  2  5  1  6  0  0  0
  2 11  1  0  0  0  0
  3 21  1  0  0  0  0
  4 16  1  1  0  0  0
  4 12  1  0  0  0  0
  5  4  1  0  0  0  0
  6 18  1  0  0  0  0
  7 22  1  1  0  0  0
  7  9  1  0  0  0  0
  8 10  1  0  0  0  0
  9 20  1  6  0  0  0
  9 18  1  0  0  0  0
 10 19  1  0  0  0  0
 11  7  1  0  0  0  0
 11  1  1  1  0  0  0
 12 27  1  6  0  0  0
 12 20  1  0  0  0  0
 13  1  1  6  0  0  0
 14  2  1  0  0  0  0
 14  3  1  1  0  0  0
 15  8  1  0  0  0  0
 17 10  2  0  0  0  0
 19 13  1  0  0  0  0
 21 15  1  6  0  0  0
 21 13  1  0  0  0  0
 22  6  1  0  0  0  0
 23 25  1  0  0  0  0
 24 23  1  0  0  0  0
 25 24  1  6  0  0  0
 25 14  1  0  0  0  0
 26 27  1  0  0  0  0
M  END
>  <MODEL>
3

>  <REMARK>
 VINA RESULT:      -4.7      3.752      6.128
  Name = 
  2 active torsions:
  status: ('A' for Active; 'I' for Inactive)
    1  A    between atoms: C_14  and  C_19
    2  A    between atoms: O_16  and  C_17
                            x       y       z     vdW  Elec       q    Type
                         _______ _______ _______ _____ _____    ______ ____

>  <TORSDO>
F 2

$$$$
=
 OpenBabel11052413533D

 27 31  0  0  1  0  0  0  0  0999 V2000
  185.4530  177.5310  136.3050 C   0  0  0  0  0  2  0  0  0  0  0  0
  184.3830  175.4750  136.9100 C   0  0  1  0  0  3  0  0  0  0  0  0
  185.8750  175.0150  134.8860 C   0  0  0  0  0  2  0  0  0  0  0  0
  182.3180  174.7760  137.7090 C   0  0  1  0  0  3  0  0  0  0  0  0
  183.7140  174.7870  137.9480 O   0  0  0  0  0  0  0  0  0  0  0  0
  183.7130  179.5230  139.1790 C   0  0  0  0  0  2  0  0  0  0  0  0
  184.1410  177.3990  138.3130 C   0  0  1  0  0  3  0  0  0  0  0  0
  189.5350  176.1780  135.5050 C   0  0  0  0  0  2  0  0  0  0  0  0
  182.9830  178.0960  137.5940 C   0  0  2  0  0  3  0  0  0  0  0  0
  189.1550  176.8200  136.7950 C   0  0  0  0  0  0  0  0  0  0  0  0
  185.0660  176.6720  137.4300 N   0  0  2  0  0  0  0  0  0  0  0  0
  181.5530  175.9950  138.2470 C   0  0  2  0  0  3  0  0  0  0  0  0
  186.8810  177.2430  135.8550 C   0  0  1  0  0  3  0  0  0  0  0  0
  185.3680  174.5050  136.2410 C   0  0  1  0  0  3  0  0  0  0  0  0
  188.3960  175.2610  135.0690 C   0  0  0  0  0  2  0  0  0  0  0  0
  181.8840  174.3190  136.3150 C   0  0  0  0  0  1  0  0  0  0  0  0
  190.0050  176.9680  137.7090 O   0  0  0  0  0  0  0  0  0  0  0  0
  182.7480  179.2750  138.3750 N   0  0  0  0  0  2  0  0  0  0  0  0
  187.8110  177.2570  136.9810 N   0  0  0  0  0  2  0  0  0  0  0  0
  181.7030  177.2720  137.4050 C   0  0  0  0  0  2  0  0  0  0  0  0
  187.0520  176.0000  134.9400 C   0  0  1  0  0  3  0  0  0  0  0  0
  184.8080  178.5120  139.1060 C   0  0  0  0  0  2  0  0  0  0  0  0
  185.9680  172.9790  137.9860 O   0  0  0  0  0  0  0  0  0  0  0  0
  186.7840  172.5970  136.9080 C   0  0  0  0  0  2  0  0  0  0  0  0
  186.4710  174.0170  137.1800 C   0  0  1  0  0  3  0  0  0  0  0  0
  180.6390  176.7320  140.1250 C   0  0  0  0  0  1  0  0  0  0  0  0
  181.8270  176.2220  139.6000 O   0  0  0  0  0  0  0  0  0  0  0  0
  2 11  1  0  0  0  0
  2  5  1  1  0  0  0
  4 16  1  6  0  0  0
  4  5  1  0  0  0  0
  4 12  1  0  0  0  0
  7 22  1  6  0  0  0
  8 10  1  0  0  0  0
  9 20  1  1  0  0  0
  9  7  1  0  0  0  0
  9 18  1  0  0  0  0
 10 19  1  0  0  0  0
 10 17  2  0  0  0  0
 11  1  1  6  0  0  0
 11  7  1  0  0  0  0
 12 27  1  1  0  0  0
 13  1  1  1  0  0  0
 13 19  1  0  0  0  0
 14  3  1  6  0  0  0
 14  2  1  0  0  0  0
 14 25  1  0  0  0  0
 15  8  1  0  0  0  0
 18  6  1  0  0  0  0
 20 12  1  0  0  0  0
 21  3  1  1  0  0  0
 21 15  1  0  0  0  0
 21 13  1  0  0  0  0
 22  6  1  0  0  0  0
 24 23  1  0  0  0  0
 25 24  1  6  0  0  0
 25 23  1  0  0  0  0
 27 26  1  0  0  0  0
M  END
>  <MODEL>
4

>  <REMARK>
 VINA RESULT:      -4.6      1.495      1.795
  Name = 
  2 active torsions:
  status: ('A' for Active; 'I' for Inactive)
    1  A    between atoms: C_14  and  C_19
    2  A    between atoms: O_16  and  C_17
                            x       y       z     vdW  Elec       q    Type
                         _______ _______ _______ _____ _____    ______ ____

>  <TORSDO>
F 2

$$$$
=
 OpenBabel11052413533D

 27 31  0  0  1  0  0  0  0  0999 V2000
  179.3480  177.2120  139.6390 C   0  0  0  0  0  2  0  0  0  0  0  0
  181.6180  177.2560  138.8770 C   0  0  1  0  0  3  0  0  0  0  0  0
  180.9870  179.6270  139.5930 C   0  0  0  0  0  2  0  0  0  0  0  0
  182.9000  176.2520  137.2210 C   0  0  1  0  0  3  0  0  0  0  0  0
  182.7600  176.4650  138.6140 O   0  0  0  0  0  0  0  0  0  0  0  0
  178.9730  173.3850  138.9550 C   0  0  0  0  0  2  0  0  0  0  0  0
  180.4780  175.1630  139.0960 C   0  0  1  0  0  3  0  0  0  0  0  0
  179.5930  179.7080  143.2230 C   0  0  0  0  0  2  0  0  0  0  0  0
  179.7480  175.1260  137.7500 C   0  0  2  0  0  3  0  0  0  0  0  0
  179.5880  178.2200  143.2970 C   0  0  0  0  0  0  0  0  0  0  0  0
  180.6330  176.5060  139.6750 N   0  0  2  0  0  0  0  0  0  0  0  0
  182.1370  175.0390  136.6660 C   0  0  2  0  0  3  0  0  0  0  0  0
  179.1980  178.1500  140.8320 C   0  0  1  0  0  3  0  0  0  0  0  0
  182.0690  178.5390  139.5890 C   0  0  1  0  0  3  0  0  0  0  0  0
  180.4310  180.1280  142.0200 C   0  0  0  0  0  2  0  0  0  0  0  0
  182.8280  177.5030  136.3450 C   0  0  0  0  0  1  0  0  0  0  0  0
  179.6800  177.6350  144.4060 O   0  0  0  0  0  0  0  0  0  0  0  0
  179.0330  173.8840  137.7770 N   0  0  0  0  0  2  0  0  0  0  0  0
  179.4830  177.4670  142.0900 N   0  0  0  0  0  2  0  0  0  0  0  0
  180.6250  175.2540  136.4970 C   0  0  0  0  0  2  0  0  0  0  0  0
  179.9290  179.5150  140.7000 C   0  0  1  0  0  3  0  0  0  0  0  0
  179.6800  174.2120  139.9750 C   0  0  0  0  0  2  0  0  0  0  0  0
  183.9060  177.5710  140.7810 O   0  0  0  0  0  0  0  0  0  0  0  0
  184.0250  178.9480  141.0380 C   0  0  0  0  0  2  0  0  0  0  0  0
  182.7050  178.2830  140.9550 C   0  0  1  0  0  3  0  0  0  0  0  0
  182.4030  172.8530  136.4310 C   0  0  0  0  0  1  0  0  0  0  0  0
  182.4260  173.8730  137.3820 O   0  0  0  0  0  0  0  0  0  0  0  0
  2  5  1  1  0  0  0
  2 14  1  0  0  0  0
  2 11  1  0  0  0  0
  4 16  1  6  0  0  0
  4  5  1  0  0  0  0
  6 22  1  0  0  0  0
  7 11  1  0  0  0  0
  7 22  1  1  0  0  0
  8 10  1  0  0  0  0
  9 20  1  6  0  0  0
  9 18  1  0  0  0  0
  9  7  1  0  0  0  0
 10 17  2  0  0  0  0
 11  1  1  6  0  0  0
 12  4  1  0  0  0  0
 12 27  1  1  0  0  0
 13  1  1  6  0  0  0
 13 19  1  0  0  0  0
 14  3  1  1  0  0  0
 14 25  1  0  0  0  0
 15  8  1  0  0  0  0
 18  6  1  0  0  0  0
 19 10  1  0  0  0  0
 20 12  1  0  0  0  0
 21  3  1  6  0  0  0
 21 13  1  0  0  0  0
 21 15  1  0  0  0  0
 23 25  1  0  0  0  0
 23 24  1  0  0  0  0
 25 24  1  6  0  0  0
 26 27  1  0  0  0  0
M  END
>  <MODEL>
5

>  <REMARK>
 VINA RESULT:      -4.5      3.367      6.302
  Name = 
  2 active torsions:
  status: ('A' for Active; 'I' for Inactive)
    1  A    between atoms: C_14  and  C_19
    2  A    between atoms: O_16  and  C_17
                            x       y       z     vdW  Elec       q    Type
                         _______ _______ _______ _____ _____    ______ ____

>  <TORSDO>
F 2

$$$$
=
 OpenBabel11052413533D

 27 31  0  0  1  0  0  0  0  0999 V2000
  183.2960  177.0580  137.1730 C   0  0  0  0  0  2  0  0  0  0  0  0
  181.1270  177.0580  138.1890 C   0  0  1  0  0  3  0  0  0  0  0  0
  180.9890  175.6670  136.0490 C   0  0  0  0  0  2  0  0  0  0  0  0
  179.7720  178.5360  139.3600 C   0  0  1  0  0  3  0  0  0  0  0  0
  180.4200  177.2770  139.3930 O   0  0  0  0  0  0  0  0  0  0  0  0
  184.8410  179.2900  139.9810 C   0  0  0  0  0  2  0  0  0  0  0  0
  182.9830  178.0280  139.3480 C   0  0  1  0  0  3  0  0  0  0  0  0
  183.6900  172.8690  135.9770 C   0  0  0  0  0  2  0  0  0  0  0  0
  182.9790  179.4230  138.7180 C   0  0  2  0  0  3  0  0  0  0  0  0
  184.3300  173.4010  137.2140 C   0  0  0  0  0  0  0  0  0  0  0  0
  182.5730  176.9420  138.4440 N   0  0  2  0  0  0  0  0  0  0  0  0
  180.6250  179.7210  139.8390 C   0  0  2  0  0  3  0  0  0  0  0  0
  183.5680  175.6870  136.5630 C   0  0  1  0  0  3  0  0  0  0  0  0
  180.5660  175.7960  137.5180 C   0  0  1  0  0  3  0  0  0  0  0  0
  182.3140  173.5110  135.8330 C   0  0  0  0  0  2  0  0  0  0  0  0
  178.9310  178.8210  138.1160 C   0  0  0  0  0  1  0  0  0  0  0  0
  184.9890  172.6410  137.9690 O   0  0  0  0  0  0  0  0  0  0  0  0
  184.0650  180.1000  139.3640 N   0  0  0  0  0  2  0  0  0  0  0  0
  184.1800  174.7820  137.5320 N   0  0  0  0  0  2  0  0  0  0  0  0
  181.6680  180.2140  138.8240 C   0  0  0  0  0  2  0  0  0  0  0  0
  182.3730  175.0490  135.8030 C   0  0  1  0  0  3  0  0  0  0  0  0
  184.3970  177.8690  139.8840 C   0  0  0  0  0  2  0  0  0  0  0  0
  179.8460  174.5070  139.4020 O   0  0  0  0  0  0  0  0  0  0  0  0
  179.5560  173.6850  138.3000 C   0  0  0  0  0  2  0  0  0  0  0  0
  180.7720  174.5270  138.3430 C   0  0  1  0  0  3  0  0  0  0  0  0
  180.1590  179.7420  142.0040 C   0  0  0  0  0  1  0  0  0  0  0  0
  181.1870  179.4800  141.0970 O   0  0  0  0  0  0  0  0  0  0  0  0
  2 11  1  0  0  0  0
  2  5  1  1  0  0  0
  4 16  1  6  0  0  0
  4  5  1  0  0  0  0
  4 12  1  0  0  0  0
  7 22  1  6  0  0  0
  8 10  1  0  0  0  0
  9 20  1  1  0  0  0
  9  7  1  0  0  0  0
  9 18  1  0  0  0  0
 10 19  1  0  0  0  0
 10 17  2  0  0  0  0
 11  1  1  6  0  0  0
 11  7  1  0  0  0  0
 12 27  1  1  0  0  0
 13  1  1  1  0  0  0
 13 19  1  0  0  0  0
 14  3  1  6  0  0  0
 14  2  1  0  0  0  0
 14 25  1  0  0  0  0
 15  8  1  0  0  0  0
 18  6  1  0  0  0  0
 20 12  1  0  0  0  0
 21 15  1  1  0  0  0
 21  3  1  0  0  0  0
 21 13  1  0  0  0  0
 22  6  1  0  0  0  0
 24 23  1  0  0  0  0
 25 24  1  6  0  0  0
 25 23  1  0  0  0  0
 27 26  1  0  0  0  0
M  END
>  <MODEL>
6

>  <REMARK>
 VINA RESULT:      -4.3      2.826      4.789
  Name = 
  2 active torsions:
  status: ('A' for Active; 'I' for Inactive)
    1  A    between atoms: C_14  and  C_19
    2  A    between atoms: O_16  and  C_17
                            x       y       z     vdW  Elec       q    Type
                         _______ _______ _______ _____ _____    ______ ____

>  <TORSDO>
F 2

$$$$
=
 OpenBabel11052413533D

 27 31  0  0  1  0  0  0  0  0999 V2000
  186.9840  177.0750  142.9650 C   0  0  0  0  0  2  0  0  0  0  0  0
  188.2400  177.7840  144.8770 C   0  0  1  0  0  3  0  0  0  0  0  0
  189.6850  176.1400  143.5560 C   0  0  0  0  0  2  0  0  0  0  0  0
  187.8420  178.3060  147.1040 C   0  0  1  0  0  3  0  0  0  0  0  0
  188.3580  178.7800  145.8730 O   0  0  0  0  0  0  0  0  0  0  0  0
  183.9000  179.2750  143.9150 C   0  0  0  0  0  2  0  0  0  0  0  0
  186.1410  178.8220  144.3820 C   0  0  1  0  0  3  0  0  0  0  0  0
  190.0340  177.2060  139.8310 C   0  0  0  0  0  2  0  0  0  0  0  0
  185.1950  177.8170  145.0450 C   0  0  2  0  0  3  0  0  0  0  0  0
  189.0390  178.3010  140.0100 C   0  0  0  0  0  0  0  0  0  0  0  0
  187.3510  178.2310  143.7900 N   0  0  2  0  0  0  0  0  0  0  0  0
  186.3330  178.5160  147.3050 C   0  0  2  0  0  3  0  0  0  0  0  0
  187.9220  176.9280  141.7710 C   0  0  1  0  0  3  0  0  0  0  0  0
  189.6460  177.4470  144.3580 C   0  0  1  0  0  3  0  0  0  0  0  0
  190.4680  176.7190  141.2100 C   0  0  0  0  0  2  0  0  0  0  0  0
  188.3590  176.9420  147.5630 C   0  0  0  0  0  1  0  0  0  0  0  0
  189.0670  179.3170  139.2690 O   0  0  0  0  0  0  0  0  0  0  0  0
  183.8900  178.3620  144.8130 N   0  0  0  0  0  2  0  0  0  0  0  0
  188.0580  178.1830  141.0380 N   0  0  0  0  0  2  0  0  0  0  0  0
  185.4390  177.5330  146.5340 C   0  0  0  0  0  2  0  0  0  0  0  0
  189.2850  176.2510  142.0770 C   0  0  1  0  0  3  0  0  0  0  0  0
  185.2630  179.5450  143.3720 C   0  0  0  0  0  2  0  0  0  0  0  0
  190.8630  179.4880  144.6520 O   0  0  0  0  0  0  0  0  0  0  0  0
  191.7790  178.6380  144.0080 C   0  0  0  0  0  2  0  0  0  0  0  0
  190.3370  178.6250  143.6730 C   0  0  1  0  0  3  0  0  0  0  0  0
  186.3120  180.5140  148.2610 C   0  0  0  0  0  1  0  0  0  0  0  0
  185.9620  179.8470  147.0860 O   0  0  0  0  0  0  0  0  0  0  0  0
  2  5  1  1  0  0  0
  4 12  1  0  0  0  0
  4 16  1  6  0  0  0
  5  4  1  0  0  0  0
  6 18  1  0  0  0  0
  7 22  1  6  0  0  0
  7  9  1  0  0  0  0
  8 10  1  0  0  0  0
  8 15  1  0  0  0  0
  9 20  1  1  0  0  0
 10 19  1  0  0  0  0
 11  1  1  6  0  0  0
 11  7  1  0  0  0  0
 11  2  1  0  0  0  0
 12 27  1  6  0  0  0
 13 21  1  0  0  0  0
 13  1  1  1  0  0  0
 14  3  1  6  0  0  0
 14  2  1  0  0  0  0
 17 10  2  0  0  0  0
 18  9  1  0  0  0  0
 19 13  1  0  0  0  0
 20 12  1  0  0  0  0
 21 15  1  6  0  0  0
 21  3  1  0  0  0  0
 22  6  1  0  0  0  0
 24 23  1  0  0  0  0
 25 24  1  6  0  0  0
 25 14  1  0  0  0  0
 25 23  1  0  0  0  0
 27 26  1  0  0  0  0
M  END
>  <MODEL>
7

>  <REMARK>
 VINA RESULT:      -4.3      5.506      7.925
  Name = 
  2 active torsions:
  status: ('A' for Active; 'I' for Inactive)
    1  A    between atoms: C_14  and  C_19
    2  A    between atoms: O_16  and  C_17
                            x       y       z     vdW  Elec       q    Type
                         _______ _______ _______ _____ _____    ______ ____

>  <TORSDO>
F 2

$$$$
=
 OpenBabel11052413533D

 27 31  0  0  1  0  0  0  0  0999 V2000
  187.1460  175.2870  135.1060 C   0  0  0  0  0  2  0  0  0  0  0  0
  187.3220  176.9320  136.8380 C   0  0  1  0  0  3  0  0  0  0  0  0
  185.4920  177.6900  135.2220 C   0  0  0  0  0  2  0  0  0  0  0  0
  188.9910  177.9160  138.1180 C   0  0  1  0  0  3  0  0  0  0  0  0
  187.7830  177.1760  138.1520 O   0  0  0  0  0  0  0  0  0  0  0  0
  189.9720  173.0690  136.6380 C   0  0  0  0  0  2  0  0  0  0  0  0
  188.5620  174.8910  137.0060 C   0  0  1  0  0  3  0  0  0  0  0  0
  182.8060  174.9270  134.6940 C   0  0  0  0  0  2  0  0  0  0  0  0
  189.7840  175.2650  136.1630 C   0  0  2  0  0  3  0  0  0  0  0  0
  183.6090  173.9420  135.4720 C   0  0  0  0  0  0  0  0  0  0  0  0
  187.2960  175.4870  136.5510 N   0  0  2  0  0  0  0  0  0  0  0  0
  190.2710  177.0730  138.0010 C   0  0  2  0  0  3  0  0  0  0  0  0
  185.6800  175.1160  134.7200 C   0  0  1  0  0  3  0  0  0  0  0  0
  185.9310  177.5660  136.6870 C   0  0  1  0  0  3  0  0  0  0  0  0
  183.3710  176.3210  134.9530 C   0  0  0  0  0  2  0  0  0  0  0  0
  188.9770  179.1740  137.2490 C   0  0  0  0  0  1  0  0  0  0  0  0
  183.0480  172.9820  136.0590 O   0  0  0  0  0  0  0  0  0  0  0  0
  190.6100  174.0930  136.2100 N   0  0  0  0  0  2  0  0  0  0  0  0
  185.0230  174.1070  135.5460 N   0  0  0  0  0  2  0  0  0  0  0  0
  190.5510  176.5220  136.5950 C   0  0  0  0  0  2  0  0  0  0  0  0
  184.8650  176.4330  134.6030 C   0  0  1  0  0  3  0  0  0  0  0  0
  188.5550  173.3710  136.9940 C   0  0  0  0  0  2  0  0  0  0  0  0
  184.9050  177.6070  138.8490 O   0  0  0  0  0  0  0  0  0  0  0  0
  183.8630  177.9590  137.9740 C   0  0  0  0  0  2  0  0  0  0  0  0
  184.8790  176.9480  137.6060 C   0  0  1  0  0  3  0  0  0  0  0  0
  190.6070  176.7500  140.1660 C   0  0  0  0  0  1  0  0  0  0  0  0
  190.3230  176.0740  138.9790 O   0  0  0  0  0  0  0  0  0  0  0  0
  2  5  1  1  0  0  0
  4 16  1  6  0  0  0
  4  5  1  0  0  0  0
  6 22  1  0  0  0  0
  7 22  1  6  0  0  0
  8 15  1  0  0  0  0
  8 10  1  0  0  0  0
  9 18  1  0  0  0  0
  9 20  1  1  0  0  0
  9  7  1  0  0  0  0
 10 19  1  0  0  0  0
 10 17  2  0  0  0  0
 11  1  1  6  0  0  0
 11  2  1  0  0  0  0
 11  7  1  0  0  0  0
 12  4  1  0  0  0  0
 12 27  1  1  0  0  0
 13  1  1  1  0  0  0
 13 19  1  0  0  0  0
 14  3  1  6  0  0  0
 14  2  1  0  0  0  0
 14 25  1  0  0  0  0
 18  6  1  0  0  0  0
 20 12  1  0  0  0  0
 21 13  1  0  0  0  0
 21 15  1  1  0  0  0
 21  3  1  0  0  0  0
 24 23  1  0  0  0  0
 25 24  1  6  0  0  0
 25 23  1  0  0  0  0
 27 26  1  0  0  0  0
M  END
>  <MODEL>
8

>  <REMARK>
 VINA RESULT:      -4.3      2.921      6.953
  Name = 
  2 active torsions:
  status: ('A' for Active; 'I' for Inactive)
    1  A    between atoms: C_14  and  C_19
    2  A    between atoms: O_16  and  C_17
                            x       y       z     vdW  Elec       q    Type
                         _______ _______ _______ _____ _____    ______ ____

>  <TORSDO>
F 2

$$$$
=
 OpenBabel11052413533D

 27 31  0  0  1  0  0  0  0  0999 V2000
  188.8400  178.9040  141.4580 C   0  0  0  0  0  2  0  0  0  0  0  0
  190.3830  177.1740  140.8570 C   0  0  1  0  0  3  0  0  0  0  0  0
  191.2110  178.2410  143.0270 C   0  0  0  0  0  2  0  0  0  0  0  0
  191.3120  176.2890  138.9210 C   0  0  1  0  0  3  0  0  0  0  0  0
  190.5560  176.0030  140.0840 O   0  0  0  0  0  0  0  0  0  0  0  0
  186.5720  178.2520  138.3460 C   0  0  0  0  0  2  0  0  0  0  0  0
  188.3520  177.4390  139.6180 C   0  0  1  0  0  3  0  0  0  0  0  0
  188.4490  178.2530  145.7660 C   0  0  0  0  0  2  0  0  0  0  0  0
  188.7890  178.5340  138.6400 C   0  0  2  0  0  3  0  0  0  0  0  0
  187.4310  177.7570  144.7980 C   0  0  0  0  0  0  0  0  0  0  0  0
  188.9570  177.5310  140.9560 N   0  0  2  0  0  0  0  0  0  0  0  0
  190.4940  176.7680  137.7110 C   0  0  2  0  0  3  0  0  0  0  0  0
  188.6720  178.9260  142.9740 C   0  0  1  0  0  3  0  0  0  0  0  0
  191.0070  176.9400  142.2400 C   0  0  1  0  0  3  0  0  0  0  0  0
  189.8320  178.0590  145.1520 C   0  0  0  0  0  2  0  0  0  0  0  0
  192.6180  177.0520  139.1460 C   0  0  0  0  0  1  0  0  0  0  0  0
  186.4310  177.1090  145.1980 O   0  0  0  0  0  0  0  0  0  0  0  0
  187.6280  178.7620  137.8310 N   0  0  0  0  0  2  0  0  0  0  0  0
  187.6090  178.0240  143.4090 N   0  0  0  0  0  2  0  0  0  0  0  0
  190.0290  178.2310  137.7880 C   0  0  0  0  0  2  0  0  0  0  0  0
  189.9830  178.7600  143.7900 C   0  0  1  0  0  3  0  0  0  0  0  0
  186.8350  177.5400  139.6300 C   0  0  0  0  0  2  0  0  0  0  0  0
  191.0250  174.6230  142.8440 O   0  0  0  0  0  0  0  0  0  0  0  0
  191.2430  175.2910  144.0610 C   0  0  0  0  0  2  0  0  0  0  0  0
  190.3240  175.8270  143.0330 C   0  0  1  0  0  3  0  0  0  0  0  0
  189.3090  175.9420  136.0320 C   0  0  0  0  0  1  0  0  0  0  0  0
  189.4400  175.8950  137.4210 O   0  0  0  0  0  0  0  0  0  0  0  0
  2  5  1  6  0  0  0
  2 11  1  0  0  0  0
  2 14  1  0  0  0  0
  4 16  1  1  0  0  0
  4  5  1  0  0  0  0
  6 22  1  0  0  0  0
  7 22  1  1  0  0  0
  7 11  1  0  0  0  0
  9 20  1  6  0  0  0
  9  7  1  0  0  0  0
 10 17  2  0  0  0  0
 10  8  1  0  0  0  0
 11  1  1  6  0  0  0
 12 27  1  1  0  0  0
 12 20  1  0  0  0  0
 12  4  1  0  0  0  0
 13  1  1  6  0  0  0
 13 19  1  0  0  0  0
 13 21  1  0  0  0  0
 14  3  1  1  0  0  0
 14 25  1  0  0  0  0
 15  8  1  0  0  0  0
 18  6  1  0  0  0  0
 18  9  1  0  0  0  0
 19 10  1  0  0  0  0
 21  3  1  6  0  0  0
 21 15  1  0  0  0  0
 23 25  1  0  0  0  0
 23 24  1  0  0  0  0
 25 24  1  1  0  0  0
 26 27  1  0  0  0  0
M  END
>  <MODEL>
9

>  <REMARK>
 VINA RESULT:      -4.3      4.327      7.632
  Name = 
  2 active torsions:
  status: ('A' for Active; 'I' for Inactive)
    1  A    between atoms: C_14  and  C_19
    2  A    between atoms: O_16  and  C_17
                            x       y       z     vdW  Elec       q    Type
                         _______ _______ _______ _____ _____    ______ ____

>  <TORSDO>
F 2

$$$$
