=
 OpenBabel11052415323D

 37 38  0  0  1  0  0  0  0  0999 V2000
  188.9390  178.4150  138.7380 C   0  0  0  0  0  0  0  0  0  0  0  0
  191.7270  177.0150  138.2950 C   0  0  0  0  0  2  0  0  0  0  0  0
  189.4450  177.1800  139.4300 C   0  0  1  0  0  3  0  0  0  0  0  0
  188.3810  178.2850  137.3420 C   0  0  1  0  0  3  0  0  0  0  0  0
  190.3720  176.3590  138.5200 C   0  0  1  0  0  3  0  0  0  0  0  0
  188.4090  176.8220  136.8480 C   0  0  2  0  0  3  0  0  0  0  0  0
  191.3630  173.7710  137.0170 S   0  0  0  0  0  0  0  0  0  0  0  0
  192.8050  175.9850  137.9570 C   0  0  0  0  0  2  0  0  0  0  0  0
  189.0120  179.5120  139.2740 O   0  0  0  0  0  0  0  0  0  0  0  0
  189.7500  176.1040  137.1390 C   0  0  2  0  0  3  0  0  0  0  0  0
  192.5300  175.1510  136.6990 C   0  0  2  0  0  3  0  0  0  0  0  0
  189.7390  174.6130  136.7830 C   0  0  2  0  0  3  0  0  0  0  0  0
  192.1560  175.9340  135.6040 O   0  0  0  0  0  0  0  0  0  0  0  0
  193.2730  176.1240  134.9350 O   0  0  0  0  0  1  0  0  0  0  0  0
  188.0840  176.7560  135.3820 C   0  0  0  0  0  0  0  0  0  0  0  0
  188.7200  177.4410  134.5950 O   0  0  0  0  0  0  0  0  0  0  0  0
  186.9790  175.8780  134.8810 C   0  0  0  0  0  2  0  0  0  0  0  0
  185.7400  176.6470  134.7400 C   0  0  0  0  0  0  0  0  0  0  0  0
  184.7200  177.2790  134.6230 C   0  0  0  0  0  3  0  0  0  0  0  0
  190.6790  176.1390  141.4020 C   0  0  0  0  0  1  0  0  0  0  0  0
  189.8830  177.3330  140.9000 C   0  0  2  0  0  3  0  0  0  0  0  0
  188.6850  177.5650  141.8100 C   0  0  0  0  0  2  0  0  0  0  0  0
  188.4820  176.3840  142.7450 C   0  0  0  0  0  2  0  0  0  0  0  0
  186.8460  177.3740  144.1420 F   0  0  0  0  0  0  0  0  0  0  0  0
  188.1370  176.8740  144.1370 C   0  0  2  0  0  3  0  0  0  0  0  0
  189.1170  177.9650  144.5360 C   0  0  0  0  0  2  0  0  0  0  0  0
  189.8090  177.6300  145.8490 C   0  0  0  0  0  2  0  0  0  0  0  0
  191.7470  177.8110  144.4630 O   0  0  0  0  0  1  0  0  0  0  0  0
  191.2530  177.2110  145.6230 C   0  0  0  0  0  2  0  0  0  0  0  0
  188.6650  173.8760  137.5800 C   0  0  0  0  0  2  0  0  0  0  0  0
  187.9190  172.8510  136.7340 C   0  0  0  0  0  0  0  0  0  0  0  0
  188.2030  171.5690  137.1660 F   0  0  0  0  0  0  0  0  0  0  0  0
  188.2760  172.9810  135.4050 F   0  0  0  0  0  0  0  0  0  0  0  0
  186.4310  173.0960  136.8710 C   0  0  0  0  0  1  0  0  0  0  0  0
  186.9520  178.8140  137.2950 C   0  0  0  0  0  2  0  0  0  0  0  0
  186.0580  177.9600  138.1280 C   0  0  0  0  0  3  0  0  0  0  0  0
  184.8310  178.3760  138.4240 C   0  0  0  0  0  2  0  0  0  0  0  0
  1  9  2  0  0  0  0
  1  3  1  0  0  0  0
  3 21  1  1  0  0  0
  4 35  1  1  0  0  0
  4  1  1  0  0  0  0
  5  2  1  6  0  0  0
  5  3  1  0  0  0  0
  6 15  1  6  0  0  0
  6 10  1  0  0  0  0
  6  4  1  0  0  0  0
  8  2  1  0  0  0  0
 10  5  1  0  0  0  0
 11  7  1  0  0  0  0
 11  8  1  0  0  0  0
 12  7  1  0  0  0  0
 12 10  1  0  0  0  0
 12 30  1  0  0  0  0
 13 11  1  0  0  0  0
 14 13  1  0  0  0  0
 16 15  2  0  0  0  0
 17 15  1  0  0  0  0
 18 17  1  0  0  0  0
 19 18  3  0  0  0  0
 21 20  1  0  0  0  0
 21 22  1  0  0  0  0
 22 23  1  0  0  0  0
 23 25  1  0  0  0  0
 25 24  1  0  0  0  0
 25 26  1  0  0  0  0
 26 27  1  0  0  0  0
 28 29  1  0  0  0  0
 29 27  1  0  0  0  0
 31 34  1  0  0  0  0
 31 32  1  0  0  0  0
 31 30  1  0  0  0  0
 33 31  1  0  0  0  0
 35 36  1  0  0  0  0
 36 37  2  0  0  0  0
M  END
>  <MODEL>
1

>  <REMARK>
 VINA RESULT:      -4.8      0.000      0.000
  Name = 
  15 active torsions:
  status: ('A' for Active; 'I' for Inactive)
    1  A    between atoms: C_1  and  C_5
    2  A    between atoms: C_1  and  C_36
    3  A    between atoms: C_2  and  C_18
    4  A    between atoms: C_2  and  C_35
    5  A    between atoms: C_3  and  C_32
    6  A    between atoms: C_6  and  C_31
    7  A    between atoms: C_6  and  C_35
    8  A    between atoms: C_9  and  C_13
    9  A    between atoms: C_9  and  C_16
   10  A    between atoms: C_10  and  C_37
   11  A    between atoms: O_11  and  C_33
   12  A    between atoms: C_18  and  C_19
   13  A    between atoms: C_20  and  C_21
   14  A    between atoms: C_21  and  C_32
   15  A    between atoms: C_31  and  C_37
                            x       y       z     vdW  Elec       q    Type
                         _______ _______ _______ _____ _____    ______ ____

>  <TORSDO>
F 15

$$$$
=
 OpenBabel11052415323D

 37 38  0  0  1  0  0  0  0  0999 V2000
  183.3170  179.9730  138.8830 C   0  0  0  0  0  0  0  0  0  0  0  0
  184.8710  177.6940  137.3610 C   0  0  0  0  0  2  0  0  0  0  0  0
  183.9730  178.7670  139.4960 C   0  0  1  0  0  3  0  0  0  0  0  0
  181.9620  179.8100  138.2390 C   0  0  1  0  0  3  0  0  0  0  0  0
  183.9330  177.5560  138.5510 C   0  0  1  0  0  3  0  0  0  0  0  0
  181.4480  178.3580  138.3460 C   0  0  2  0  0  3  0  0  0  0  0  0
  183.2960  174.5820  137.7200 S   0  0  0  0  0  0  0  0  0  0  0  0
  185.2930  176.3300  136.8130 C   0  0  0  0  0  2  0  0  0  0  0  0
  183.8810  181.0570  138.8670 O   0  0  0  0  0  0  0  0  0  0  0  0
  182.5240  177.3000  137.9970 C   0  0  2  0  0  3  0  0  0  0  0  0
  184.1390  175.4410  136.3340 C   0  0  2  0  0  3  0  0  0  0  0  0
  182.0680  175.8560  138.2380 C   0  0  2  0  0  3  0  0  0  0  0  0
  183.2480  176.1180  135.4970 O   0  0  0  0  0  0  0  0  0  0  0  0
  182.6730  175.1700  134.7870 O   0  0  0  0  0  1  0  0  0  0  0  0
  180.2260  178.1680  137.4910 C   0  0  0  0  0  0  0  0  0  0  0  0
  179.1180  178.2590  137.9980 O   0  0  0  0  0  0  0  0  0  0  0  0
  180.3540  177.8500  136.0330 C   0  0  0  0  0  2  0  0  0  0  0  0
  180.5940  179.0750  135.2630 C   0  0  0  0  0  0  0  0  0  0  0  0
  180.7920  180.0810  134.6290 C   0  0  0  0  0  3  0  0  0  0  0  0
  186.4780  178.3100  139.6060 C   0  0  0  0  0  1  0  0  0  0  0  0
  185.2920  179.0010  140.2590 C   0  0  2  0  0  3  0  0  0  0  0  0
  185.1760  178.5530  141.7090 C   0  0  0  0  0  2  0  0  0  0  0  0
  183.7190  178.4250  142.1190 C   0  0  0  0  0  2  0  0  0  0  0  0
  184.3880  178.3580  144.3900 F   0  0  0  0  0  0  0  0  0  0  0  0
  183.5170  178.9830  143.5130 C   0  0  2  0  0  3  0  0  0  0  0  0
  182.0820  178.7350  143.9440 C   0  0  0  0  0  2  0  0  0  0  0  0
  181.1040  179.0830  142.8310 C   0  0  0  0  0  2  0  0  0  0  0  0
  179.3030  178.3700  144.2300 O   0  0  0  0  0  1  0  0  0  0  0  0
  179.7240  179.3980  143.3850 C   0  0  0  0  0  2  0  0  0  0  0  0
  181.7040  175.6430  139.7060 C   0  0  0  0  0  2  0  0  0  0  0  0
  180.2500  175.2250  139.8860 C   0  0  0  0  0  0  0  0  0  0  0  0
  179.4870  176.2980  140.3070 F   0  0  0  0  0  0  0  0  0  0  0  0
  180.1590  174.2020  140.8110 F   0  0  0  0  0  0  0  0  0  0  0  0
  179.7150  174.7360  138.5560 C   0  0  0  0  0  1  0  0  0  0  0  0
  180.9570  180.7580  138.8810 C   0  0  0  0  0  2  0  0  0  0  0  0
  180.4140  181.7020  137.8630 C   0  0  0  0  0  3  0  0  0  0  0  0
  181.1310  182.7560  137.4870 C   0  0  0  0  0  2  0  0  0  0  0  0
  1  3  1  0  0  0  0
  3 21  1  6  0  0  0
  4  6  1  0  0  0  0
  4 35  1  1  0  0  0
  4  1  1  0  0  0  0
  5  2  1  6  0  0  0
  5  3  1  0  0  0  0
  6 15  1  6  0  0  0
  7 12  1  0  0  0  0
  8  2  1  0  0  0  0
  9  1  2  0  0  0  0
 10 12  1  0  0  0  0
 10  6  1  0  0  0  0
 10  5  1  0  0  0  0
 11  8  1  0  0  0  0
 11  7  1  0  0  0  0
 12 30  1  0  0  0  0
 13 11  1  0  0  0  0
 14 13  1  0  0  0  0
 15 16  2  0  0  0  0
 17 15  1  0  0  0  0
 18 17  1  0  0  0  0
 19 18  3  0  0  0  0
 20 21  1  0  0  0  0
 21 22  1  0  0  0  0
 22 23  1  0  0  0  0
 23 25  1  0  0  0  0
 25 26  1  0  0  0  0
 25 24  1  0  0  0  0
 27 29  1  0  0  0  0
 27 26  1  0  0  0  0
 29 28  1  0  0  0  0
 30 31  1  0  0  0  0
 31 32  1  0  0  0  0
 31 33  1  0  0  0  0
 34 31  1  0  0  0  0
 36 35  1  0  0  0  0
 37 36  2  0  0  0  0
M  END
>  <MODEL>
2

>  <REMARK>
 VINA RESULT:      -4.6      5.496      7.592
  Name = 
  15 active torsions:
  status: ('A' for Active; 'I' for Inactive)
    1  A    between atoms: C_1  and  C_5
    2  A    between atoms: C_1  and  C_36
    3  A    between atoms: C_2  and  C_18
    4  A    between atoms: C_2  and  C_35
    5  A    between atoms: C_3  and  C_32
    6  A    between atoms: C_6  and  C_31
    7  A    between atoms: C_6  and  C_35
    8  A    between atoms: C_9  and  C_13
    9  A    between atoms: C_9  and  C_16
   10  A    between atoms: C_10  and  C_37
   11  A    between atoms: O_11  and  C_33
   12  A    between atoms: C_18  and  C_19
   13  A    between atoms: C_20  and  C_21
   14  A    between atoms: C_21  and  C_32
   15  A    between atoms: C_31  and  C_37
                            x       y       z     vdW  Elec       q    Type
                         _______ _______ _______ _____ _____    ______ ____

>  <TORSDO>
F 15

$$$$
=
 OpenBabel11052415323D

 37 38  0  0  1  0  0  0  0  0999 V2000
  183.2420  179.9640  138.8850 C   0  0  0  0  0  0  0  0  0  0  0  0
  184.8130  177.5750  137.5610 C   0  0  0  0  0  2  0  0  0  0  0  0
  183.7600  178.7350  139.5780 C   0  0  1  0  0  3  0  0  0  0  0  0
  181.9540  179.8650  138.1040 C   0  0  1  0  0  3  0  0  0  0  0  0
  183.7490  177.5110  138.6480 C   0  0  1  0  0  3  0  0  0  0  0  0
  181.3490  178.4460  138.1750 C   0  0  2  0  0  3  0  0  0  0  0  0
  183.0330  174.5630  137.7910 S   0  0  0  0  0  0  0  0  0  0  0  0
  185.2100  176.1810  137.0760 C   0  0  0  0  0  2  0  0  0  0  0  0
  183.8660  181.0150  138.9150 O   0  0  0  0  0  0  0  0  0  0  0  0
  182.3930  177.3240  137.9530 C   0  0  2  0  0  3  0  0  0  0  0  0
  184.0630  175.3480  136.4900 C   0  0  2  0  0  3  0  0  0  0  0  0
  181.8330  175.9130  138.1620 C   0  0  2  0  0  3  0  0  0  0  0  0
  183.3040  176.0590  135.5570 O   0  0  0  0  0  0  0  0  0  0  0  0
  182.7150  175.1310  134.8320 O   0  0  0  0  0  1  0  0  0  0  0  0
  180.2140  178.3090  137.1980 C   0  0  0  0  0  0  0  0  0  0  0  0
  179.0670  178.2630  137.6140 O   0  0  0  0  0  0  0  0  0  0  0  0
  180.4770  178.2110  135.7270 C   0  0  0  0  0  2  0  0  0  0  0  0
  180.4300  179.5390  135.1100 C   0  0  0  0  0  0  0  0  0  0  0  0
  180.3920  180.6310  134.6010 C   0  0  0  0  0  3  0  0  0  0  0  0
  186.2880  178.4820  139.7790 C   0  0  0  0  0  1  0  0  0  0  0  0
  185.0040  178.9090  140.4710 C   0  0  2  0  0  3  0  0  0  0  0  0
  184.8530  178.1460  141.7800 C   0  0  0  0  0  2  0  0  0  0  0  0
  183.6790  178.6810  142.5830 C   0  0  0  0  0  2  0  0  0  0  0  0
  184.8720  180.3680  143.7420 F   0  0  0  0  0  0  0  0  0  0  0  0
  184.1570  179.1960  143.9260 C   0  0  2  0  0  3  0  0  0  0  0  0
  185.0430  178.1460  144.5730 C   0  0  0  0  0  2  0  0  0  0  0  0
  186.0780  178.7870  145.4880 C   0  0  0  0  0  2  0  0  0  0  0  0
  186.8700  178.1470  147.6500 O   0  0  0  0  0  1  0  0  0  0  0  0
  185.7350  178.5630  146.9530 C   0  0  0  0  0  2  0  0  0  0  0  0
  181.3060  175.7460  139.5870 C   0  0  0  0  0  2  0  0  0  0  0  0
  179.9170  175.1230  139.6200 C   0  0  0  0  0  0  0  0  0  0  0  0
  179.9930  173.7900  139.9760 F   0  0  0  0  0  0  0  0  0  0  0  0
  179.3140  175.2370  138.3800 F   0  0  0  0  0  0  0  0  0  0  0  0
  179.0770  175.8570  140.6450 C   0  0  0  0  0  1  0  0  0  0  0  0
  180.9430  180.8790  138.6260 C   0  0  0  0  0  2  0  0  0  0  0  0
  180.9970  182.1280  137.8130 C   0  0  0  0  0  3  0  0  0  0  0  0
  179.8840  182.8150  137.5770 C   0  0  0  0  0  2  0  0  0  0  0  0
  1  9  2  0  0  0  0
  1  3  1  0  0  0  0
  3 21  1  6  0  0  0
  4  6  1  0  0  0  0
  4 35  1  1  0  0  0
  4  1  1  0  0  0  0
  5  2  1  6  0  0  0
  5  3  1  0  0  0  0
  6 15  1  6  0  0  0
  7 12  1  0  0  0  0
  8  2  1  0  0  0  0
 10 12  1  0  0  0  0
 10  6  1  0  0  0  0
 10  5  1  0  0  0  0
 11  8  1  0  0  0  0
 11  7  1  0  0  0  0
 12 30  1  0  0  0  0
 13 11  1  0  0  0  0
 14 13  1  0  0  0  0
 15 16  2  0  0  0  0
 17 15  1  0  0  0  0
 18 17  1  0  0  0  0
 19 18  3  0  0  0  0
 20 21  1  0  0  0  0
 21 22  1  0  0  0  0
 22 23  1  0  0  0  0
 23 25  1  0  0  0  0
 24 25  1  0  0  0  0
 25 26  1  0  0  0  0
 26 27  1  0  0  0  0
 27 29  1  0  0  0  0
 29 28  1  0  0  0  0
 30 31  1  0  0  0  0
 31 32  1  0  0  0  0
 31 34  1  0  0  0  0
 33 31  1  0  0  0  0
 36 35  1  0  0  0  0
 37 36  2  0  0  0  0
M  END
>  <MODEL>
3

>  <REMARK>
 VINA RESULT:      -4.5      5.201      7.056
  Name = 
  15 active torsions:
  status: ('A' for Active; 'I' for Inactive)
    1  A    between atoms: C_1  and  C_5
    2  A    between atoms: C_1  and  C_36
    3  A    between atoms: C_2  and  C_18
    4  A    between atoms: C_2  and  C_35
    5  A    between atoms: C_3  and  C_32
    6  A    between atoms: C_6  and  C_31
    7  A    between atoms: C_6  and  C_35
    8  A    between atoms: C_9  and  C_13
    9  A    between atoms: C_9  and  C_16
   10  A    between atoms: C_10  and  C_37
   11  A    between atoms: O_11  and  C_33
   12  A    between atoms: C_18  and  C_19
   13  A    between atoms: C_20  and  C_21
   14  A    between atoms: C_21  and  C_32
   15  A    between atoms: C_31  and  C_37
                            x       y       z     vdW  Elec       q    Type
                         _______ _______ _______ _____ _____    ______ ____

>  <TORSDO>
F 15

$$$$
=
 OpenBabel11052415323D

 37 38  0  0  1  0  0  0  0  0999 V2000
  185.3510  178.6980  139.5130 C   0  0  0  0  0  0  0  0  0  0  0  0
  187.5580  178.9430  137.2780 C   0  0  0  0  0  2  0  0  0  0  0  0
  186.6590  177.9580  139.4550 C   0  0  1  0  0  3  0  0  0  0  0  0
  184.2050  178.2070  138.6640 C   0  0  1  0  0  3  0  0  0  0  0  0
  187.0960  177.6890  138.0070 C   0  0  1  0  0  3  0  0  0  0  0  0
  184.5880  176.9480  137.8550 C   0  0  2  0  0  3  0  0  0  0  0  0
  188.0180  175.9170  135.5680 S   0  0  0  0  0  0  0  0  0  0  0  0
  188.5330  178.6130  136.1470 C   0  0  0  0  0  2  0  0  0  0  0  0
  185.2250  179.7010  140.2010 O   0  0  0  0  0  0  0  0  0  0  0  0
  185.9720  177.0600  137.1700 C   0  0  2  0  0  3  0  0  0  0  0  0
  187.9750  177.6820  135.0640 C   0  0  2  0  0  3  0  0  0  0  0  0
  186.4260  175.7670  136.4850 C   0  0  2  0  0  3  0  0  0  0  0  0
  186.7170  178.0810  134.6060 O   0  0  0  0  0  0  0  0  0  0  0  0
  186.7690  179.3970  134.5940 O   0  0  0  0  0  1  0  0  0  0  0  0
  183.5230  176.6300  136.8430 C   0  0  0  0  0  0  0  0  0  0  0  0
  183.3760  177.3620  135.8760 O   0  0  0  0  0  0  0  0  0  0  0  0
  182.6330  175.4380  137.0170 C   0  0  0  0  0  2  0  0  0  0  0  0
  181.2310  175.8160  136.8180 C   0  0  0  0  0  0  0  0  0  0  0  0
  180.0770  176.1270  136.6560 C   0  0  0  0  0  3  0  0  0  0  0  0
  189.1160  177.8010  140.1120 C   0  0  0  0  0  1  0  0  0  0  0  0
  187.7610  178.4090  140.4340 C   0  0  2  0  0  3  0  0  0  0  0  0
  187.3860  178.0850  141.8730 C   0  0  0  0  0  2  0  0  0  0  0  0
  188.6290  177.8310  142.7090 C   0  0  0  0  0  2  0  0  0  0  0  0
  188.4640  175.7340  143.7990 F   0  0  0  0  0  0  0  0  0  0  0  0
  188.2610  177.0920  143.9800 C   0  0  2  0  0  3  0  0  0  0  0  0
  186.8000  177.3570  144.3030 C   0  0  0  0  0  2  0  0  0  0  0  0
  186.6510  178.0440  145.6540 C   0  0  0  0  0  2  0  0  0  0  0  0
  184.6630  178.8520  146.7050 O   0  0  0  0  0  1  0  0  0  0  0  0
  185.5290  179.0690  145.6320 C   0  0  0  0  0  2  0  0  0  0  0  0
  186.5280  174.6260  137.4960 C   0  0  0  0  0  2  0  0  0  0  0  0
  186.0610  173.2970  136.9180 C   0  0  0  0  0  0  0  0  0  0  0  0
  187.0620  172.3490  137.0140 F   0  0  0  0  0  0  0  0  0  0  0  0
  185.6980  173.4550  135.5930 F   0  0  0  0  0  0  0  0  0  0  0  0
  184.8570  172.8190  137.7040 C   0  0  0  0  0  1  0  0  0  0  0  0
  182.9940  177.9030  139.5400 C   0  0  0  0  0  2  0  0  0  0  0  0
  182.0090  179.0200  139.4630 C   0  0  0  0  0  3  0  0  0  0  0  0
  181.3640  179.2590  138.3260 C   0  0  0  0  0  2  0  0  0  0  0  0
  1  9  2  0  0  0  0
  3  1  1  0  0  0  0
  3 21  1  6  0  0  0
  4  1  1  0  0  0  0
  4 35  1  1  0  0  0
  5  2  1  6  0  0  0
  5  3  1  0  0  0  0
  6 15  1  6  0  0  0
  6  4  1  0  0  0  0
  7 12  1  0  0  0  0
  8  2  1  0  0  0  0
 10  6  1  0  0  0  0
 10  5  1  0  0  0  0
 11  7  1  0  0  0  0
 11  8  1  0  0  0  0
 12 10  1  0  0  0  0
 12 30  1  0  0  0  0
 13 11  1  0  0  0  0
 14 13  1  0  0  0  0
 15 17  1  0  0  0  0
 16 15  2  0  0  0  0
 18 17  1  0  0  0  0
 19 18  3  0  0  0  0
 20 21  1  0  0  0  0
 21 22  1  0  0  0  0
 22 23  1  0  0  0  0
 23 25  1  0  0  0  0
 24 25  1  0  0  0  0
 25 26  1  0  0  0  0
 26 27  1  0  0  0  0
 29 27  1  0  0  0  0
 29 28  1  0  0  0  0
 31 32  1  0  0  0  0
 31 30  1  0  0  0  0
 31 34  1  0  0  0  0
 33 31  1  0  0  0  0
 36 35  1  0  0  0  0
 37 36  2  0  0  0  0
M  END
>  <MODEL>
4

>  <REMARK>
 VINA RESULT:      -4.4      3.028      4.138
  Name = 
  15 active torsions:
  status: ('A' for Active; 'I' for Inactive)
    1  A    between atoms: C_1  and  C_5
    2  A    between atoms: C_1  and  C_36
    3  A    between atoms: C_2  and  C_18
    4  A    between atoms: C_2  and  C_35
    5  A    between atoms: C_3  and  C_32
    6  A    between atoms: C_6  and  C_31
    7  A    between atoms: C_6  and  C_35
    8  A    between atoms: C_9  and  C_13
    9  A    between atoms: C_9  and  C_16
   10  A    between atoms: C_10  and  C_37
   11  A    between atoms: O_11  and  C_33
   12  A    between atoms: C_18  and  C_19
   13  A    between atoms: C_20  and  C_21
   14  A    between atoms: C_21  and  C_32
   15  A    between atoms: C_31  and  C_37
                            x       y       z     vdW  Elec       q    Type
                         _______ _______ _______ _____ _____    ______ ____

>  <TORSDO>
F 15

$$$$
=
 OpenBabel11052415323D

 37 38  0  0  1  0  0  0  0  0999 V2000
  183.2130  179.4300  138.6790 C   0  0  0  0  0  0  0  0  0  0  0  0
  186.1450  178.6800  137.8040 C   0  0  0  0  0  2  0  0  0  0  0  0
  184.1210  178.4330  139.3410 C   0  0  1  0  0  3  0  0  0  0  0  0
  182.4770  179.0190  137.4270 C   0  0  1  0  0  3  0  0  0  0  0  0
  185.0560  177.7540  138.3270 C   0  0  1  0  0  3  0  0  0  0  0  0
  182.7860  177.5580  137.0350 C   0  0  2  0  0  3  0  0  0  0  0  0
  186.3940  175.3190  136.8370 S   0  0  0  0  0  0  0  0  0  0  0  0
  187.3730  177.9000  137.3350 C   0  0  0  0  0  2  0  0  0  0  0  0
  183.0980  180.5660  139.1160 O   0  0  0  0  0  0  0  0  0  0  0  0
  184.2930  177.2100  137.1100 C   0  0  2  0  0  3  0  0  0  0  0  0
  187.1080  176.8900  136.2120 C   0  0  2  0  0  3  0  0  0  0  0  0
  184.5960  175.7280  136.8630 C   0  0  2  0  0  3  0  0  0  0  0  0
  186.3700  177.4370  135.1590 O   0  0  0  0  0  0  0  0  0  0  0  0
  187.1820  178.3100  134.6020 O   0  0  0  0  0  1  0  0  0  0  0  0
  182.2440  177.2550  135.6650 C   0  0  0  0  0  0  0  0  0  0  0  0
  182.5240  177.9930  134.7330 O   0  0  0  0  0  0  0  0  0  0  0  0
  181.3530  176.0730  135.4380 C   0  0  0  0  0  2  0  0  0  0  0  0
  180.4880  175.8560  136.6020 C   0  0  0  0  0  0  0  0  0  0  0  0
  179.7770  175.6750  137.5580 C   0  0  0  0  0  3  0  0  0  0  0  0
  186.2510  178.6130  140.7290 C   0  0  0  0  0  1  0  0  0  0  0  0
  184.7490  178.8450  140.6870 C   0  0  2  0  0  3  0  0  0  0  0  0
  184.0890  178.1170  141.8490 C   0  0  0  0  0  2  0  0  0  0  0  0
  182.6450  178.5590  142.0110 C   0  0  0  0  0  2  0  0  0  0  0  0
  181.3270  179.7960  143.5430 F   0  0  0  0  0  0  0  0  0  0  0  0
  182.3530  178.8690  143.4650 C   0  0  2  0  0  3  0  0  0  0  0  0
  183.6070  179.4300  144.1140 C   0  0  0  0  0  2  0  0  0  0  0  0
  183.8680  178.7770  145.4640 C   0  0  0  0  0  2  0  0  0  0  0  0
  185.5530  179.4400  147.0230 O   0  0  0  0  0  1  0  0  0  0  0  0
  185.3490  178.7870  145.8070 C   0  0  0  0  0  2  0  0  0  0  0  0
  183.8910  174.8520  137.8980 C   0  0  0  0  0  2  0  0  0  0  0  0
  183.4750  173.5030  137.3270 C   0  0  0  0  0  0  0  0  0  0  0  0
  182.1310  173.2750  137.5530 F   0  0  0  0  0  0  0  0  0  0  0  0
  184.2190  172.4910  137.9070 F   0  0  0  0  0  0  0  0  0  0  0  0
  183.7280  173.5060  135.8340 C   0  0  0  0  0  1  0  0  0  0  0  0
  180.9750  179.1910  137.6190 C   0  0  0  0  0  2  0  0  0  0  0  0
  180.5160  180.4640  136.9940 C   0  0  0  0  0  3  0  0  0  0  0  0
  180.2380  180.5030  135.6950 C   0  0  0  0  0  2  0  0  0  0  0  0
  1  9  2  0  0  0  0
  1  3  1  0  0  0  0
  3 21  1  1  0  0  0
  4 35  1  1  0  0  0
  4  1  1  0  0  0  0
  5  2  1  6  0  0  0
  5  3  1  0  0  0  0
  6 15  1  6  0  0  0
  6 10  1  0  0  0  0
  6  4  1  0  0  0  0
  7 12  1  0  0  0  0
  8  2  1  0  0  0  0
 10  5  1  0  0  0  0
 11  7  1  0  0  0  0
 11  8  1  0  0  0  0
 12 10  1  0  0  0  0
 12 30  1  0  0  0  0
 13 11  1  0  0  0  0
 14 13  1  0  0  0  0
 16 15  2  0  0  0  0
 17 15  1  0  0  0  0
 17 18  1  0  0  0  0
 18 19  3  0  0  0  0
 21 20  1  0  0  0  0
 21 22  1  0  0  0  0
 22 23  1  0  0  0  0
 23 25  1  0  0  0  0
 25 24  1  0  0  0  0
 25 26  1  0  0  0  0
 26 27  1  0  0  0  0
 27 29  1  0  0  0  0
 29 28  1  0  0  0  0
 31 32  1  0  0  0  0
 31 30  1  0  0  0  0
 31 33  1  0  0  0  0
 34 31  1  0  0  0  0
 36 35  1  0  0  0  0
 37 36  2  0  0  0  0
M  END
>  <MODEL>
5

>  <REMARK>
 VINA RESULT:      -4.4      4.039      5.700
  Name = 
  15 active torsions:
  status: ('A' for Active; 'I' for Inactive)
    1  A    between atoms: C_1  and  C_5
    2  A    between atoms: C_1  and  C_36
    3  A    between atoms: C_2  and  C_18
    4  A    between atoms: C_2  and  C_35
    5  A    between atoms: C_3  and  C_32
    6  A    between atoms: C_6  and  C_31
    7  A    between atoms: C_6  and  C_35
    8  A    between atoms: C_9  and  C_13
    9  A    between atoms: C_9  and  C_16
   10  A    between atoms: C_10  and  C_37
   11  A    between atoms: O_11  and  C_33
   12  A    between atoms: C_18  and  C_19
   13  A    between atoms: C_20  and  C_21
   14  A    between atoms: C_21  and  C_32
   15  A    between atoms: C_31  and  C_37
                            x       y       z     vdW  Elec       q    Type
                         _______ _______ _______ _____ _____    ______ ____

>  <TORSDO>
F 15

$$$$
=
 OpenBabel11052415323D

 37 38  0  0  1  0  0  0  0  0999 V2000
  182.7200  177.6120  136.3920 C   0  0  0  0  0  0  0  0  0  0  0  0
  180.9580  180.2120  136.1420 C   0  0  0  0  0  2  0  0  0  0  0  0
  181.2550  177.7400  136.7070 C   0  0  1  0  0  3  0  0  0  0  0  0
  183.7230  178.1000  137.4070 C   0  0  1  0  0  3  0  0  0  0  0  0
  180.9070  179.1440  137.2250 C   0  0  1  0  0  3  0  0  0  0  0  0
  183.0350  178.6570  138.6720 C   0  0  2  0  0  3  0  0  0  0  0  0
  179.7120  181.2420  139.2530 S   0  0  0  0  0  0  0  0  0  0  0  0
  180.0510  181.3980  136.4730 C   0  0  0  0  0  2  0  0  0  0  0  0
  183.0960  177.1600  135.3200 O   0  0  0  0  0  0  0  0  0  0  0  0
  181.8430  179.5930  138.3570 C   0  0  2  0  0  3  0  0  0  0  0  0
  180.3830  182.1180  137.7860 C   0  0  2  0  0  3  0  0  0  0  0  0
  181.0640  180.0370  139.6000 C   0  0  2  0  0  3  0  0  0  0  0  0
  181.7420  182.4150  137.9100 O   0  0  0  0  0  0  0  0  0  0  0  0
  181.8400  183.6780  137.5530 O   0  0  0  0  0  1  0  0  0  0  0  0
  184.0350  179.3560  139.5510 C   0  0  0  0  0  0  0  0  0  0  0  0
  184.5360  180.4040  139.1730 O   0  0  0  0  0  0  0  0  0  0  0  0
  184.4360  178.7720  140.8700 C   0  0  0  0  0  2  0  0  0  0  0  0
  185.8960  178.7000  140.9740 C   0  0  0  0  0  0  0  0  0  0  0  0
  187.0970  178.6430  141.0610 C   0  0  0  0  0  3  0  0  0  0  0  0
  178.9310  177.8340  135.6680 C   0  0  0  0  0  1  0  0  0  0  0  0
  180.2670  177.1110  135.7060 C   0  0  2  0  0  3  0  0  0  0  0  0
  180.0390  175.6370  136.0100 C   0  0  0  0  0  2  0  0  0  0  0  0
  180.4750  175.3050  137.4270 C   0  0  0  0  0  2  0  0  0  0  0  0
  182.6350  174.6190  138.1160 F   0  0  0  0  0  0  0  0  0  0  0  0
  181.5180  174.2060  137.4090 C   0  0  2  0  0  3  0  0  0  0  0  0
  181.9000  173.9080  135.9690 C   0  0  0  0  0  2  0  0  0  0  0  0
  183.3260  173.3850  135.8740 C   0  0  0  0  0  2  0  0  0  0  0  0
  184.8510  171.8640  136.9090 O   0  0  0  0  0  1  0  0  0  0  0  0
  183.4970  172.0980  136.6660 C   0  0  0  0  0  2  0  0  0  0  0  0
  180.4900  178.8290  140.3380 C   0  0  0  0  0  2  0  0  0  0  0  0
  180.5780  178.9800  141.8520 C   0  0  0  0  0  0  0  0  0  0  0  0
  180.0190  180.1790  142.2510 F   0  0  0  0  0  0  0  0  0  0  0  0
  181.8990  178.9270  142.2590 F   0  0  0  0  0  0  0  0  0  0  0  0
  179.8170  177.8430  142.5010 C   0  0  0  0  0  1  0  0  0  0  0  0
  184.6710  176.9700  137.7950 C   0  0  0  0  0  2  0  0  0  0  0  0
  185.9840  177.1380  137.1090 C   0  0  0  0  0  3  0  0  0  0  0  0
  186.6620  178.2730  137.2430 C   0  0  0  0  0  2  0  0  0  0  0  0
  1  3  1  0  0  0  0
  1  4  1  0  0  0  0
  2  8  1  0  0  0  0
  3 21  1  6  0  0  0
  3  5  1  0  0  0  0
  4 35  1  1  0  0  0
  4  6  1  0  0  0  0
  5  2  1  6  0  0  0
  5 10  1  0  0  0  0
  6 15  1  6  0  0  0
  7 12  1  0  0  0  0
  8 11  1  0  0  0  0
  9  1  2  0  0  0  0
 10  6  1  0  0  0  0
 10 12  1  0  0  0  0
 11 13  1  0  0  0  0
 11  7  1  0  0  0  0
 12 30  1  0  0  0  0
 14 13  1  0  0  0  0
 15 17  1  0  0  0  0
 16 15  2  0  0  0  0
 17 18  1  0  0  0  0
 18 19  3  0  0  0  0
 20 21  1  0  0  0  0
 21 22  1  0  0  0  0
 22 23  1  0  0  0  0
 25 23  1  0  0  0  0
 25 24  1  0  0  0  0
 26 25  1  0  0  0  0
 27 26  1  0  0  0  0
 27 29  1  0  0  0  0
 29 28  1  0  0  0  0
 30 31  1  0  0  0  0
 31 32  1  0  0  0  0
 31 33  1  0  0  0  0
 31 34  1  0  0  0  0
 36 37  2  0  0  0  0
 36 35  1  0  0  0  0
M  END
>  <MODEL>
6

>  <REMARK>
 VINA RESULT:      -4.3      5.290     10.007
  Name = 
  15 active torsions:
  status: ('A' for Active; 'I' for Inactive)
    1  A    between atoms: C_1  and  C_5
    2  A    between atoms: C_1  and  C_36
    3  A    between atoms: C_2  and  C_18
    4  A    between atoms: C_2  and  C_35
    5  A    between atoms: C_3  and  C_32
    6  A    between atoms: C_6  and  C_31
    7  A    between atoms: C_6  and  C_35
    8  A    between atoms: C_9  and  C_13
    9  A    between atoms: C_9  and  C_16
   10  A    between atoms: C_10  and  C_37
   11  A    between atoms: O_11  and  C_33
   12  A    between atoms: C_18  and  C_19
   13  A    between atoms: C_20  and  C_21
   14  A    between atoms: C_21  and  C_32
   15  A    between atoms: C_31  and  C_37
                            x       y       z     vdW  Elec       q    Type
                         _______ _______ _______ _____ _____    ______ ____

>  <TORSDO>
F 15

$$$$
=
 OpenBabel11052415323D

 37 38  0  0  1  0  0  0  0  0999 V2000
  184.7100  178.1000  141.8680 C   0  0  0  0  0  0  0  0  0  0  0  0
  182.0570  176.7240  140.8700 C   0  0  0  0  0  2  0  0  0  0  0  0
  183.3240  178.6810  141.9120 C   0  0  1  0  0  3  0  0  0  0  0  0
  185.4680  178.1340  140.5640 C   0  0  1  0  0  3  0  0  0  0  0  0
  182.4630  178.1850  140.7390 C   0  0  1  0  0  3  0  0  0  0  0  0
  184.6510  178.8160  139.4440 C   0  0  2  0  0  3  0  0  0  0  0  0
  180.5940  178.4910  138.2190 S   0  0  0  0  0  0  0  0  0  0  0  0
  180.7650  176.4250  140.1100 C   0  0  0  0  0  2  0  0  0  0  0  0
  185.2040  177.5740  142.8550 O   0  0  0  0  0  0  0  0  0  0  0  0
  183.1770  178.3440  139.3890 C   0  0  2  0  0  3  0  0  0  0  0  0
  180.8220  176.7100  138.6030 C   0  0  2  0  0  3  0  0  0  0  0  0
  182.3210  179.1160  138.3780 C   0  0  2  0  0  3  0  0  0  0  0  0
  181.9560  176.1670  137.9940 O   0  0  0  0  0  0  0  0  0  0  0  0
  181.6750  174.8900  137.8460 O   0  0  0  0  0  1  0  0  0  0  0  0
  185.3170  178.6170  138.1110 C   0  0  0  0  0  0  0  0  0  0  0  0
  185.9780  179.5240  137.6290 O   0  0  0  0  0  0  0  0  0  0  0  0
  185.1630  177.3290  137.3620 C   0  0  0  0  0  2  0  0  0  0  0  0
  186.4670  176.6830  137.1840 C   0  0  0  0  0  0  0  0  0  0  0  0
  187.5400  176.1540  137.0370 C   0  0  0  0  0  3  0  0  0  0  0  0
  181.2410  179.3430  143.2220 C   0  0  0  0  0  1  0  0  0  0  0  0
  182.6380  178.7470  143.2900 C   0  0  2  0  0  3  0  0  0  0  0  0
  183.4780  179.5340  144.2870 C   0  0  0  0  0  2  0  0  0  0  0  0
  183.7980  178.6870  145.5070 C   0  0  0  0  0  2  0  0  0  0  0  0
  185.8700  179.7380  145.0430 F   0  0  0  0  0  0  0  0  0  0  0  0
  185.2030  178.9810  145.9920 C   0  0  2  0  0  3  0  0  0  0  0  0
  185.9360  177.6680  146.2140 C   0  0  0  0  0  2  0  0  0  0  0  0
  187.4190  177.9010  146.4660 C   0  0  0  0  0  2  0  0  0  0  0  0
  189.3460  176.7600  145.6340 O   0  0  0  0  0  1  0  0  0  0  0  0
  188.2510  177.5340  145.2480 C   0  0  0  0  0  2  0  0  0  0  0  0
  182.2930  180.6050  138.7200 C   0  0  0  0  0  2  0  0  0  0  0  0
  181.2180  181.3550  137.9440 C   0  0  0  0  0  0  0  0  0  0  0  0
  179.9800  181.1660  138.5290 F   0  0  0  0  0  0  0  0  0  0  0  0
  181.1820  180.9170  136.6340 F   0  0  0  0  0  0  0  0  0  0  0  0
  181.5470  182.8340  137.9600 C   0  0  0  0  0  1  0  0  0  0  0  0
  186.7950  178.8620  140.7440 C   0  0  0  0  0  2  0  0  0  0  0  0
  187.9320  177.9240  140.5220 C   0  0  0  0  0  3  0  0  0  0  0  0
  188.9100  178.2530  139.6840 C   0  0  0  0  0  2  0  0  0  0  0  0
  1  3  1  0  0  0  0
  1  9  2  0  0  0  0
  3 21  1  1  0  0  0
  4 35  1  1  0  0  0
  4  1  1  0  0  0  0
  5  2  1  1  0  0  0
  5  3  1  0  0  0  0
  6 15  1  6  0  0  0
  6  4  1  0  0  0  0
  7 12  1  0  0  0  0
  7 11  1  0  0  0  0
  8  2  1  0  0  0  0
 10  6  1  0  0  0  0
 10  5  1  0  0  0  0
 11  8  1  0  0  0  0
 12 30  1  0  0  0  0
 12 10  1  0  0  0  0
 13 11  1  0  0  0  0
 14 13  1  0  0  0  0
 16 15  2  0  0  0  0
 17 15  1  0  0  0  0
 18 17  1  0  0  0  0
 19 18  3  0  0  0  0
 20 21  1  0  0  0  0
 21 22  1  0  0  0  0
 22 23  1  0  0  0  0
 23 25  1  0  0  0  0
 24 25  1  0  0  0  0
 25 26  1  0  0  0  0
 26 27  1  0  0  0  0
 29 28  1  0  0  0  0
 29 27  1  0  0  0  0
 31 34  1  0  0  0  0
 31 32  1  0  0  0  0
 31 30  1  0  0  0  0
 33 31  1  0  0  0  0
 36 35  1  0  0  0  0
 37 36  2  0  0  0  0
M  END
>  <MODEL>
7

>  <REMARK>
 VINA RESULT:      -4.1      4.830      7.618
  Name = 
  15 active torsions:
  status: ('A' for Active; 'I' for Inactive)
    1  A    between atoms: C_1  and  C_5
    2  A    between atoms: C_1  and  C_36
    3  A    between atoms: C_2  and  C_18
    4  A    between atoms: C_2  and  C_35
    5  A    between atoms: C_3  and  C_32
    6  A    between atoms: C_6  and  C_31
    7  A    between atoms: C_6  and  C_35
    8  A    between atoms: C_9  and  C_13
    9  A    between atoms: C_9  and  C_16
   10  A    between atoms: C_10  and  C_37
   11  A    between atoms: O_11  and  C_33
   12  A    between atoms: C_18  and  C_19
   13  A    between atoms: C_20  and  C_21
   14  A    between atoms: C_21  and  C_32
   15  A    between atoms: C_31  and  C_37
                            x       y       z     vdW  Elec       q    Type
                         _______ _______ _______ _____ _____    ______ ____

>  <TORSDO>
F 15

$$$$
=
 OpenBabel11052415323D

 37 38  0  0  1  0  0  0  0  0999 V2000
  185.4020  178.5790  139.6490 C   0  0  0  0  0  0  0  0  0  0  0  0
  187.6110  178.8370  137.4170 C   0  0  0  0  0  2  0  0  0  0  0  0
  186.6940  177.8140  139.5690 C   0  0  1  0  0  3  0  0  0  0  0  0
  184.2440  178.1360  138.7900 C   0  0  1  0  0  3  0  0  0  0  0  0
  187.1220  177.5750  138.1120 C   0  0  1  0  0  3  0  0  0  0  0  0
  184.5990  176.8920  137.9460 C   0  0  2  0  0  3  0  0  0  0  0  0
  188.0030  175.8490  135.6250 S   0  0  0  0  0  0  0  0  0  0  0  0
  188.5760  178.5170  136.2760 C   0  0  0  0  0  2  0  0  0  0  0  0
  185.2980  179.5660  140.3640 O   0  0  0  0  0  0  0  0  0  0  0  0
  185.9840  176.9930  137.2610 C   0  0  2  0  0  3  0  0  0  0  0  0
  187.9970  177.6270  135.1690 C   0  0  2  0  0  3  0  0  0  0  0  0
  186.4090  175.7080  136.5410 C   0  0  2  0  0  3  0  0  0  0  0  0
  186.7470  178.0660  134.7240 O   0  0  0  0  0  0  0  0  0  0  0  0
  186.8680  179.3730  134.6300 O   0  0  0  0  0  1  0  0  0  0  0  0
  183.5270  176.6230  136.9270 C   0  0  0  0  0  0  0  0  0  0  0  0
  183.2240  177.4980  136.1300 O   0  0  0  0  0  0  0  0  0  0  0  0
  182.8150  175.3060  136.8940 C   0  0  0  0  0  2  0  0  0  0  0  0
  181.6180  175.3510  137.7380 C   0  0  0  0  0  0  0  0  0  0  0  0
  180.6340  175.3900  138.4330 C   0  0  0  0  0  3  0  0  0  0  0  0
  189.1250  177.5160  140.2700 C   0  0  0  0  0  1  0  0  0  0  0  0
  187.8060  178.2150  140.5570 C   0  0  2  0  0  3  0  0  0  0  0  0
  187.3890  177.9440  141.9950 C   0  0  0  0  0  2  0  0  0  0  0  0
  188.4710  177.1730  142.7340 C   0  0  0  0  0  2  0  0  0  0  0  0
  190.1830  178.6450  143.4510 F   0  0  0  0  0  0  0  0  0  0  0  0
  189.0250  178.0100  143.8690 C   0  0  2  0  0  3  0  0  0  0  0  0
  189.3290  177.1050  145.0500 C   0  0  0  0  0  2  0  0  0  0  0  0
  190.7560  177.3020  145.5420 C   0  0  0  0  0  2  0  0  0  0  0  0
  192.1800  176.2060  147.1180 O   0  0  0  0  0  1  0  0  0  0  0  0
  190.9250  176.7980  146.9670 C   0  0  0  0  0  2  0  0  0  0  0  0
  186.4880  174.5390  137.5210 C   0  0  0  0  0  2  0  0  0  0  0  0
  186.1120  173.2140  136.8720 C   0  0  0  0  0  0  0  0  0  0  0  0
  187.1510  172.3080  136.9850 F   0  0  0  0  0  0  0  0  0  0  0  0
  185.8100  173.4060  135.5360 F   0  0  0  0  0  0  0  0  0  0  0  0
  184.8940  172.6540  137.5770 C   0  0  0  0  0  1  0  0  0  0  0  0
  183.0290  177.8350  139.6590 C   0  0  0  0  0  2  0  0  0  0  0  0
  181.8690  178.6690  139.2310 C   0  0  0  0  0  3  0  0  0  0  0  0
  182.0760  179.8100  138.5830 C   0  0  0  0  0  2  0  0  0  0  0  0
  1  9  2  0  0  0  0
  3  1  1  0  0  0  0
  3 21  1  1  0  0  0
  4  1  1  0  0  0  0
  4 35  1  1  0  0  0
  5  2  1  6  0  0  0
  5  3  1  0  0  0  0
  6 15  1  6  0  0  0
  6  4  1  0  0  0  0
  7 12  1  0  0  0  0
  8  2  1  0  0  0  0
 10  6  1  0  0  0  0
 10  5  1  0  0  0  0
 11  7  1  0  0  0  0
 11  8  1  0  0  0  0
 12 10  1  0  0  0  0
 12 30  1  0  0  0  0
 13 11  1  0  0  0  0
 14 13  1  0  0  0  0
 16 15  2  0  0  0  0
 17 15  1  0  0  0  0
 17 18  1  0  0  0  0
 18 19  3  0  0  0  0
 20 21  1  0  0  0  0
 21 22  1  0  0  0  0
 22 23  1  0  0  0  0
 23 25  1  0  0  0  0
 24 25  1  0  0  0  0
 25 26  1  0  0  0  0
 26 27  1  0  0  0  0
 27 29  1  0  0  0  0
 29 28  1  0  0  0  0
 31 32  1  0  0  0  0
 31 30  1  0  0  0  0
 31 34  1  0  0  0  0
 33 31  1  0  0  0  0
 36 35  1  0  0  0  0
 37 36  2  0  0  0  0
M  END
>  <MODEL>
8

>  <REMARK>
 VINA RESULT:      -4.1      2.742      3.838
  Name = 
  15 active torsions:
  status: ('A' for Active; 'I' for Inactive)
    1  A    between atoms: C_1  and  C_5
    2  A    between atoms: C_1  and  C_36
    3  A    between atoms: C_2  and  C_18
    4  A    between atoms: C_2  and  C_35
    5  A    between atoms: C_3  and  C_32
    6  A    between atoms: C_6  and  C_31
    7  A    between atoms: C_6  and  C_35
    8  A    between atoms: C_9  and  C_13
    9  A    between atoms: C_9  and  C_16
   10  A    between atoms: C_10  and  C_37
   11  A    between atoms: O_11  and  C_33
   12  A    between atoms: C_18  and  C_19
   13  A    between atoms: C_20  and  C_21
   14  A    between atoms: C_21  and  C_32
   15  A    between atoms: C_31  and  C_37
                            x       y       z     vdW  Elec       q    Type
                         _______ _______ _______ _____ _____    ______ ____

>  <TORSDO>
F 15

$$$$
=
 OpenBabel11052415323D

 37 38  0  0  1  0  0  0  0  0999 V2000
  188.4880  178.2530  138.8320 C   0  0  0  0  0  0  0  0  0  0  0  0
  191.3410  176.9970  138.3700 C   0  0  0  0  0  2  0  0  0  0  0  0
  189.0430  177.0180  139.4850 C   0  0  1  0  0  3  0  0  0  0  0  0
  187.9500  178.1480  137.4260 C   0  0  1  0  0  3  0  0  0  0  0  0
  190.0150  176.2720  138.5560 C   0  0  1  0  0  3  0  0  0  0  0  0
  188.0500  176.7070  136.8800 C   0  0  2  0  0  3  0  0  0  0  0  0
  191.1380  173.7880  136.9730 S   0  0  0  0  0  0  0  0  0  0  0  0
  192.4680  176.0300  138.0080 C   0  0  0  0  0  2  0  0  0  0  0  0
  188.5050  179.3310  139.4070 O   0  0  0  0  0  0  0  0  0  0  0  0
  189.4190  176.0400  137.1600 C   0  0  2  0  0  3  0  0  0  0  0  0
  192.2440  175.2300  136.7190 C   0  0  2  0  0  3  0  0  0  0  0  0
  189.4800  174.5640  136.7520 C   0  0  2  0  0  3  0  0  0  0  0  0
  191.8450  176.0340  135.6480 O   0  0  0  0  0  0  0  0  0  0  0  0
  191.7770  175.2120  134.6220 O   0  0  0  0  0  1  0  0  0  0  0  0
  187.7420  176.6790  135.4090 C   0  0  0  0  0  0  0  0  0  0  0  0
  188.3650  177.4080  134.6520 O   0  0  0  0  0  0  0  0  0  0  0  0
  186.6710  175.7840  134.8670 C   0  0  0  0  0  2  0  0  0  0  0  0
  185.3620  176.4370  134.9660 C   0  0  0  0  0  0  0  0  0  0  0  0
  184.2860  176.9730  135.0480 C   0  0  0  0  0  3  0  0  0  0  0  0
  190.6460  176.2530  141.3130 C   0  0  0  0  0  1  0  0  0  0  0  0
  189.4590  177.1370  140.9640 C   0  0  2  0  0  3  0  0  0  0  0  0
  188.2950  176.8150  141.8910 C   0  0  0  0  0  2  0  0  0  0  0  0
  187.8570  178.0530  142.6540 C   0  0  0  0  0  2  0  0  0  0  0  0
  186.2920  179.5250  141.6560 F   0  0  0  0  0  0  0  0  0  0  0  0
  186.3960  178.3470  142.3770 C   0  0  2  0  0  3  0  0  0  0  0  0
  185.6570  178.4820  143.6970 C   0  0  0  0  0  2  0  0  0  0  0  0
  184.1650  178.2380  143.5210 C   0  0  0  0  0  2  0  0  0  0  0  0
  183.6550  179.3710  145.5620 O   0  0  0  0  0  1  0  0  0  0  0  0
  183.3440  179.3210  144.2030 C   0  0  0  0  0  2  0  0  0  0  0  0
  188.4320  173.7500  137.5090 C   0  0  0  0  0  2  0  0  0  0  0  0
  187.7860  172.6830  136.6350 C   0  0  0  0  0  0  0  0  0  0  0  0
  186.4200  172.8780  136.5640 F   0  0  0  0  0  0  0  0  0  0  0  0
  188.0470  171.4250  137.1480 F   0  0  0  0  0  0  0  0  0  0  0  0
  188.3690  172.7760  135.2400 C   0  0  0  0  0  1  0  0  0  0  0  0
  186.4990  178.6130  137.3810 C   0  0  0  0  0  2  0  0  0  0  0  0
  185.7710  178.1510  138.5980 C   0  0  0  0  0  3  0  0  0  0  0  0
  184.5620  178.6300  138.8690 C   0  0  0  0  0  2  0  0  0  0  0  0
  1  9  2  0  0  0  0
  1  3  1  0  0  0  0
  3 21  1  1  0  0  0
  4 35  1  1  0  0  0
  4  1  1  0  0  0  0
  5  2  1  6  0  0  0
  5  3  1  0  0  0  0
  6 15  1  6  0  0  0
  6 10  1  0  0  0  0
  6  4  1  0  0  0  0
  8  2  1  0  0  0  0
 10  5  1  0  0  0  0
 11  7  1  0  0  0  0
 11  8  1  0  0  0  0
 12  7  1  0  0  0  0
 12 10  1  0  0  0  0
 12 30  1  0  0  0  0
 13 11  1  0  0  0  0
 14 13  1  0  0  0  0
 16 15  2  0  0  0  0
 17 18  1  0  0  0  0
 17 15  1  0  0  0  0
 18 19  3  0  0  0  0
 21 20  1  0  0  0  0
 21 22  1  0  0  0  0
 22 23  1  0  0  0  0
 24 25  1  0  0  0  0
 25 23  1  0  0  0  0
 25 26  1  0  0  0  0
 27 26  1  0  0  0  0
 27 29  1  0  0  0  0
 29 28  1  0  0  0  0
 31 33  1  0  0  0  0
 31 30  1  0  0  0  0
 32 31  1  0  0  0  0
 34 31  1  0  0  0  0
 35 36  1  0  0  0  0
 36 37  2  0  0  0  0
M  END
>  <MODEL>
9

>  <REMARK>
 VINA RESULT:      -4.1      2.060      2.530
  Name = 
  15 active torsions:
  status: ('A' for Active; 'I' for Inactive)
    1  A    between atoms: C_1  and  C_5
    2  A    between atoms: C_1  and  C_36
    3  A    between atoms: C_2  and  C_18
    4  A    between atoms: C_2  and  C_35
    5  A    between atoms: C_3  and  C_32
    6  A    between atoms: C_6  and  C_31
    7  A    between atoms: C_6  and  C_35
    8  A    between atoms: C_9  and  C_13
    9  A    between atoms: C_9  and  C_16
   10  A    between atoms: C_10  and  C_37
   11  A    between atoms: O_11  and  C_33
   12  A    between atoms: C_18  and  C_19
   13  A    between atoms: C_20  and  C_21
   14  A    between atoms: C_21  and  C_32
   15  A    between atoms: C_31  and  C_37
                            x       y       z     vdW  Elec       q    Type
                         _______ _______ _______ _____ _____    ______ ____

>  <TORSDO>
F 15

$$$$
