=
 OpenBabel11052416493D

 32 37  0  0  1  0  0  0  0  0999 V2000
  187.2810  174.7570  136.7370 N   0  0  0  0  0  0  0  0  0  0  0  0
  190.8910  175.3590  137.2170 C   0  0  0  0  0  2  0  0  0  0  0  0
  186.6950  178.4230  138.7710 C   0  0  0  0  0  3  0  0  0  0  0  0
  188.8460  176.6280  143.9690 C   0  0  0  0  0  2  0  0  0  0  0  0
  187.3870  176.9410  144.3220 C   0  0  0  0  0  2  0  0  0  0  0  0
  188.6550  177.5970  137.2650 C   0  0  0  0  0  0  0  0  0  0  0  0
  189.5000  177.4420  139.5990 N   0  0  0  0  0  0  0  0  0  0  0  0
  188.5560  174.3600  137.3310 C   0  0  0  0  0  2  0  0  0  0  0  0
  190.9360  176.8230  137.6710 C   0  0  0  0  0  2  0  0  0  0  0  0
  189.0700  176.5840  142.4640 C   0  0  0  0  0  2  0  0  0  0  0  0
  188.5150  177.8130  140.3550 C   0  0  0  0  0  0  0  0  0  0  0  0
  188.6170  177.9110  141.8400 C   0  0  1  0  0  3  0  0  0  0  0  0
  186.5400  178.6520  141.1700 N   0  0  0  0  0  0  0  0  0  0  0  0
  187.5380  175.3490  135.4810 N   0  0  0  0  0  2  0  0  0  0  0  0
  188.9180  175.8170  135.4860 C   0  0  1  0  0  3  0  0  0  0  0  0
  186.5320  173.5390  136.4840 C   0  0  0  0  0  1  0  0  0  0  0  0
  189.6170  177.3260  138.1750 C   0  0  0  0  0  0  0  0  0  0  0  0
  188.9520  177.3170  135.8180 C   0  0  0  0  0  2  0  0  0  0  0  0
  189.6460  174.8850  136.4390 C   0  0  1  0  0  3  0  0  0  0  0  0
  186.5720  177.3850  143.1050 C   0  0  0  0  0  2  0  0  0  0  0  0
  187.2950  178.4030  142.3340 N   0  0  1  0  0  0  0  0  0  0  0  0
  187.3410  178.0840  137.5480 N   0  0  0  0  0  0  0  0  0  0  0  0
  187.2250  178.3000  139.9790 C   0  0  2  0  0  3  0  0  0  0  0  0
  185.3260  179.4640  141.2000 C   0  0  0  0  0  2  0  0  0  0  0  0
  183.8490  177.6050  140.6190 C   0  0  0  0  0  3  0  0  0  0  0  0
  182.8320  176.9580  139.7710 C   0  0  0  0  0  0  0  0  0  0  0  0
  183.7210  179.5670  139.1740 C   0  0  0  0  0  0  0  0  0  0  0  0
  182.7060  178.9150  138.3260 C   0  0  0  0  0  3  0  0  0  0  0  0
  182.2840  177.6800  138.6090 C   0  0  0  0  0  3  0  0  0  0  0  0
  182.4340  175.7950  140.0380 O   0  0  0  0  0  0  0  0  0  0  0  0
  184.1110  180.7320  138.8950 O   0  0  0  0  0  0  0  0  0  0  0  0
  184.2710  178.8440  140.3450 C   0  0  0  0  0  0  0  0  0  0  0  0
  1  8  1  0  0  0  0
  2  9  1  0  0  0  0
  4  5  1  0  0  0  0
  6 22  1  0  0  0  0
  6 17  2  0  0  0  0
  7 11  2  0  0  0  0
  9 17  1  0  0  0  0
 10  4  1  0  0  0  0
 11 12  1  0  0  0  0
 12 21  1  0  0  0  0
 12 10  1  1  0  0  0
 13 24  1  0  0  0  0
 13 21  1  0  0  0  0
 14 15  1  0  0  0  0
 14  1  1  0  0  0  0
 15 18  1  1  0  0  0
 15 19  1  0  0  0  0
 16  1  1  0  0  0  0
 17  7  1  0  0  0  0
 18  6  1  0  0  0  0
 19  2  1  1  0  0  0
 19  8  1  0  0  0  0
 20  5  1  0  0  0  0
 21 20  1  1  0  0  0
 22  3  2  0  0  0  0
 23  3  1  1  0  0  0
 23 11  1  0  0  0  0
 23 13  1  0  0  0  0
 26 30  2  0  0  0  0
 26 25  1  0  0  0  0
 27 32  1  0  0  0  0
 28 29  2  0  0  0  0
 28 27  1  0  0  0  0
 29 26  1  0  0  0  0
 31 27  2  0  0  0  0
 32 25  2  0  0  0  0
 32 24  1  0  0  0  0
M  END
>  <MODEL>
1

>  <REMARK>
 VINA RESULT:      -7.6      0.000      0.000
  Name = 
  2 active torsions:
  status: ('A' for Active; 'I' for Inactive)
    1  A    between atoms: N_16  and  C_27
    2  A    between atoms: C_27  and  C_32
                            x       y       z     vdW  Elec       q    Type
                         _______ _______ _______ _____ _____    ______ ____

>  <TORSDO>
F 2

$$$$
=
 OpenBabel11052416493D

 32 37  0  0  1  0  0  0  0  0999 V2000
  186.8020  174.4320  136.8510 N   0  0  0  0  0  0  0  0  0  0  0  0
  189.2640  177.1760  137.0270 C   0  0  0  0  0  2  0  0  0  0  0  0
  183.8500  177.4470  137.1940 C   0  0  0  0  0  3  0  0  0  0  0  0
  185.2950  179.1470  142.6620 C   0  0  0  0  0  2  0  0  0  0  0  0
  183.8660  178.6280  142.8590 C   0  0  0  0  0  2  0  0  0  0  0  0
  186.2400  177.5030  136.1550 C   0  0  0  0  0  0  0  0  0  0  0  0
  186.4390  178.6710  138.3420 N   0  0  0  0  0  0  0  0  0  0  0  0
  187.8990  175.0970  137.5510 C   0  0  0  0  0  2  0  0  0  0  0  0
  188.3960  178.4260  136.8360 C   0  0  0  0  0  2  0  0  0  0  0  0
  185.8640  178.7450  141.3070 C   0  0  0  0  0  2  0  0  0  0  0  0
  185.2620  178.6100  138.8820 C   0  0  0  0  0  0  0  0  0  0  0  0
  184.9310  179.2390  140.1940 C   0  0  1  0  0  3  0  0  0  0  0  0
  183.0200  178.3240  139.2860 N   0  0  0  0  0  0  0  0  0  0  0  0
  186.9910  174.5990  135.4620 N   0  0  0  0  0  2  0  0  0  0  0  0
  187.8470  175.7620  135.2680 C   0  0  1  0  0  3  0  0  0  0  0  0
  186.9210  173.0120  137.1270 C   0  0  0  0  0  1  0  0  0  0  0  0
  186.9400  178.1790  137.0920 C   0  0  0  0  0  0  0  0  0  0  0  0
  186.9810  176.9910  134.9520 C   0  0  0  0  0  2  0  0  0  0  0  0
  188.7070  175.8310  136.5180 C   0  0  1  0  0  3  0  0  0  0  0  0
  183.2650  178.0620  141.5710 C   0  0  0  0  0  2  0  0  0  0  0  0
  183.4810  178.9800  140.4460 N   0  0  1  0  0  0  0  0  0  0  0  0
  184.8490  177.1730  136.2180 N   0  0  0  0  0  0  0  0  0  0  0  0
  184.0500  178.0750  138.3440 C   0  0  2  0  0  3  0  0  0  0  0  0
  181.5960  178.2080  138.9830 C   0  0  0  0  0  2  0  0  0  0  0  0
  181.1840  180.1390  137.5420 C   0  0  0  0  0  3  0  0  0  0  0  0
  180.6440  181.4850  137.2810 C   0  0  0  0  0  0  0  0  0  0  0  0
  180.2820  180.2800  139.8050 C   0  0  0  0  0  0  0  0  0  0  0  0
  179.7470  181.6280  139.5420 C   0  0  0  0  0  3  0  0  0  0  0  0
  179.9170  182.1990  138.3460 C   0  0  0  0  0  3  0  0  0  0  0  0
  180.8050  182.0230  136.1550 O   0  0  0  0  0  0  0  0  0  0  0  0
  180.1160  179.7530  140.9370 O   0  0  0  0  0  0  0  0  0  0  0  0
  181.0100  179.5590  138.7350 C   0  0  0  0  0  0  0  0  0  0  0  0
  1 16  1  0  0  0  0
  1  8  1  0  0  0  0
  4  5  1  0  0  0  0
  6 22  1  0  0  0  0
  6 17  2  0  0  0  0
  7 11  2  0  0  0  0
  9  2  1  0  0  0  0
  9 17  1  0  0  0  0
 10  4  1  0  0  0  0
 11 12  1  0  0  0  0
 12 21  1  0  0  0  0
 12 10  1  1  0  0  0
 13 21  1  0  0  0  0
 14  1  1  0  0  0  0
 15 18  1  1  0  0  0
 15 14  1  0  0  0  0
 15 19  1  0  0  0  0
 17  7  1  0  0  0  0
 18  6  1  0  0  0  0
 19  2  1  1  0  0  0
 19  8  1  0  0  0  0
 20  5  1  0  0  0  0
 21 20  1  1  0  0  0
 22  3  2  0  0  0  0
 23  3  1  1  0  0  0
 23 11  1  0  0  0  0
 23 13  1  0  0  0  0
 24 13  1  0  0  0  0
 25 32  2  0  0  0  0
 26 25  1  0  0  0  0
 26 29  1  0  0  0  0
 27 31  2  0  0  0  0
 28 27  1  0  0  0  0
 29 28  2  0  0  0  0
 30 26  2  0  0  0  0
 32 24  1  0  0  0  0
 32 27  1  0  0  0  0
M  END
>  <MODEL>
2

>  <REMARK>
 VINA RESULT:      -7.6      2.428      3.729
  Name = 
  2 active torsions:
  status: ('A' for Active; 'I' for Inactive)
    1  A    between atoms: N_16  and  C_27
    2  A    between atoms: C_27  and  C_32
                            x       y       z     vdW  Elec       q    Type
                         _______ _______ _______ _____ _____    ______ ____

>  <TORSDO>
F 2

$$$$
=
 OpenBabel11052416493D

 32 37  0  0  1  0  0  0  0  0999 V2000
  186.4980  174.4410  136.8190 N   0  0  0  0  0  0  0  0  0  0  0  0
  188.5430  177.4780  136.3540 C   0  0  0  0  0  2  0  0  0  0  0  0
  183.3110  177.0770  137.7240 C   0  0  0  0  0  3  0  0  0  0  0  0
  185.6720  179.2680  142.6740 C   0  0  0  0  0  2  0  0  0  0  0  0
  184.4050  178.5860  143.2030 C   0  0  0  0  0  2  0  0  0  0  0  0
  185.3860  177.3700  136.1740 C   0  0  0  0  0  0  0  0  0  0  0  0
  185.8980  178.6820  138.2240 N   0  0  0  0  0  0  0  0  0  0  0  0
  187.6210  175.2790  137.2340 C   0  0  0  0  0  2  0  0  0  0  0  0
  187.4940  178.5960  136.3250 C   0  0  0  0  0  2  0  0  0  0  0  0
  185.9800  178.8600  141.2390 C   0  0  0  0  0  2  0  0  0  0  0  0
  184.8870  178.5070  139.0160 C   0  0  0  0  0  0  0  0  0  0  0  0
  184.7680  179.1660  140.3490 C   0  0  1  0  0  3  0  0  0  0  0  0
  182.8470  177.9660  139.9210 N   0  0  0  0  0  0  0  0  0  0  0  0
  186.3550  174.5470  135.4180 N   0  0  0  0  0  2  0  0  0  0  0  0
  186.9810  175.7940  135.0020 C   0  0  1  0  0  3  0  0  0  0  0  0
  186.8660  173.0660  137.1030 C   0  0  0  0  0  1  0  0  0  0  0  0
  186.1760  178.1840  136.9090 C   0  0  0  0  0  0  0  0  0  0  0  0
  185.9080  176.8840  134.8510 C   0  0  0  0  0  2  0  0  0  0  0  0
  188.0770  176.0450  136.0240 C   0  0  1  0  0  3  0  0  0  0  0  0
  183.6190  177.8740  142.1000 C   0  0  0  0  0  2  0  0  0  0  0  0
  183.4570  178.7420  140.9280 N   0  0  1  0  0  0  0  0  0  0  0  0
  184.1010  176.8730  136.5570 N   0  0  0  0  0  0  0  0  0  0  0  0
  183.6710  177.7930  138.7800 C   0  0  2  0  0  3  0  0  0  0  0  0
  181.4210  177.6540  139.9500 C   0  0  0  0  0  2  0  0  0  0  0  0
  180.3280  178.1090  142.0890 C   0  0  0  0  0  3  0  0  0  0  0  0
  179.5990  178.9820  143.0260 C   0  0  0  0  0  0  0  0  0  0  0  0
  180.3910  179.9630  140.5030 C   0  0  0  0  0  0  0  0  0  0  0  0
  179.6580  180.8320  141.4410 C   0  0  0  0  0  3  0  0  0  0  0  0
  179.2840  180.3680  142.6370 C   0  0  0  0  0  3  0  0  0  0  0  0
  179.2460  178.5450  144.1520 O   0  0  0  0  0  0  0  0  0  0  0  0
  180.7380  180.4120  139.3780 O   0  0  0  0  0  0  0  0  0  0  0  0
  180.7120  178.5700  140.8930 C   0  0  0  0  0  0  0  0  0  0  0  0
  1 16  1  0  0  0  0
  1  8  1  0  0  0  0
  4  5  1  0  0  0  0
  6 22  1  0  0  0  0
  6 17  2  0  0  0  0
  7 11  2  0  0  0  0
  9  2  1  0  0  0  0
  9 17  1  0  0  0  0
 10  4  1  0  0  0  0
 11 12  1  0  0  0  0
 12 21  1  0  0  0  0
 12 10  1  1  0  0  0
 13 24  1  0  0  0  0
 13 21  1  0  0  0  0
 14  1  1  0  0  0  0
 15 18  1  1  0  0  0
 15 14  1  0  0  0  0
 15 19  1  0  0  0  0
 17  7  1  0  0  0  0
 18  6  1  0  0  0  0
 19  2  1  1  0  0  0
 19  8  1  0  0  0  0
 20  5  1  0  0  0  0
 21 20  1  1  0  0  0
 22  3  2  0  0  0  0
 23  3  1  1  0  0  0
 23 11  1  0  0  0  0
 23 13  1  0  0  0  0
 24 32  1  0  0  0  0
 25 26  1  0  0  0  0
 26 30  2  0  0  0  0
 27 32  1  0  0  0  0
 27 28  1  0  0  0  0
 28 29  2  0  0  0  0
 29 26  1  0  0  0  0
 31 27  2  0  0  0  0
 32 25  2  0  0  0  0
M  END
>  <MODEL>
3

>  <REMARK>
 VINA RESULT:      -7.1      2.840      3.738
  Name = 
  2 active torsions:
  status: ('A' for Active; 'I' for Inactive)
    1  A    between atoms: N_16  and  C_27
    2  A    between atoms: C_27  and  C_32
                            x       y       z     vdW  Elec       q    Type
                         _______ _______ _______ _____ _____    ______ ____

>  <TORSDO>
F 2

$$$$
=
 OpenBabel11052416493D

 32 37  0  0  1  0  0  0  0  0999 V2000
  186.6030  174.6590  136.7840 N   0  0  0  0  0  0  0  0  0  0  0  0
  189.8090  176.3100  137.5710 C   0  0  0  0  0  2  0  0  0  0  0  0
  184.7860  178.3420  137.8090 C   0  0  0  0  0  3  0  0  0  0  0  0
  186.2990  178.2440  143.5160 C   0  0  0  0  0  2  0  0  0  0  0  0
  184.7690  178.2050  143.5940 C   0  0  0  0  0  2  0  0  0  0  0  0
  187.1320  177.8130  136.8040 C   0  0  0  0  0  0  0  0  0  0  0  0
  187.5400  178.3480  139.1980 N   0  0  0  0  0  0  0  0  0  0  0  0
  187.8030  174.7500  137.6140 C   0  0  0  0  0  2  0  0  0  0  0  0
  189.4160  177.7890  137.6710 C   0  0  0  0  0  2  0  0  0  0  0  0
  186.8040  177.9740  142.1040 C   0  0  0  0  0  2  0  0  0  0  0  0
  186.3720  178.5730  139.7130 C   0  0  0  0  0  0  0  0  0  0  0  0
  186.1690  178.9800  141.1340 C   0  0  1  0  0  3  0  0  0  0  0  0
  184.1370  178.9770  140.0460 N   0  0  0  0  0  0  0  0  0  0  0  0
  186.9390  175.0450  135.4680 N   0  0  0  0  0  2  0  0  0  0  0  0
  188.1400  175.8660  135.5420 C   0  0  1  0  0  3  0  0  0  0  0  0
  186.2290  173.2570  136.7300 C   0  0  0  0  0  1  0  0  0  0  0  0
  187.9440  177.9970  137.8680 C   0  0  0  0  0  0  0  0  0  0  0  0
  187.7510  177.3520  135.5140 C   0  0  0  0  0  2  0  0  0  0  0  0
  188.8810  175.3720  136.7730 C   0  0  1  0  0  3  0  0  0  0  0  0
  184.1120  178.1650  142.2130 C   0  0  0  0  0  2  0  0  0  0  0  0
  184.7000  179.1750  141.3240 N   0  0  1  0  0  0  0  0  0  0  0  0
  185.7100  177.9650  136.7930 N   0  0  0  0  0  0  0  0  0  0  0  0
  185.0950  178.6050  139.0700 C   0  0  2  0  0  3  0  0  0  0  0  0
  182.7800  179.4140  139.7290 C   0  0  0  0  0  2  0  0  0  0  0  0
  181.8620  177.1750  139.3800 C   0  0  0  0  0  3  0  0  0  0  0  0
  180.8890  176.1030  139.6540 C   0  0  0  0  0  0  0  0  0  0  0  0
  180.7420  178.5410  141.0640 C   0  0  0  0  0  0  0  0  0  0  0  0
  179.7690  177.4670  141.3320 C   0  0  0  0  0  3  0  0  0  0  0  0
  179.8380  176.3120  140.6660 C   0  0  0  0  0  3  0  0  0  0  0  0
  180.9540  175.0140  139.0260 O   0  0  0  0  0  0  0  0  0  0  0  0
  180.6650  179.6270  141.6980 O   0  0  0  0  0  0  0  0  0  0  0  0
  181.8020  178.3310  140.0490 C   0  0  0  0  0  0  0  0  0  0  0  0
  1  8  1  0  0  0  0
  2  9  1  0  0  0  0
  4  5  1  0  0  0  0
  6 17  2  0  0  0  0
  7 11  2  0  0  0  0
  9 17  1  0  0  0  0
 10  4  1  0  0  0  0
 11 12  1  0  0  0  0
 12 21  1  0  0  0  0
 12 10  1  1  0  0  0
 13 21  1  0  0  0  0
 14 15  1  0  0  0  0
 14  1  1  0  0  0  0
 15 18  1  1  0  0  0
 15 19  1  0  0  0  0
 16  1  1  0  0  0  0
 17  7  1  0  0  0  0
 18  6  1  0  0  0  0
 19  2  1  1  0  0  0
 19  8  1  0  0  0  0
 20  5  1  0  0  0  0
 21 20  1  1  0  0  0
 22  6  1  0  0  0  0
 22  3  2  0  0  0  0
 23  3  1  1  0  0  0
 23 11  1  0  0  0  0
 23 13  1  0  0  0  0
 24 13  1  0  0  0  0
 24 32  1  0  0  0  0
 25 26  1  0  0  0  0
 25 32  2  0  0  0  0
 26 29  1  0  0  0  0
 27 28  1  0  0  0  0
 27 31  2  0  0  0  0
 29 28  2  0  0  0  0
 30 26  2  0  0  0  0
 32 27  1  0  0  0  0
M  END
>  <MODEL>
4

>  <REMARK>
 VINA RESULT:      -7.0      1.857      2.447
  Name = 
  2 active torsions:
  status: ('A' for Active; 'I' for Inactive)
    1  A    between atoms: N_16  and  C_27
    2  A    between atoms: C_27  and  C_32
                            x       y       z     vdW  Elec       q    Type
                         _______ _______ _______ _____ _____    ______ ____

>  <TORSDO>
F 2

$$$$
=
 OpenBabel11052416493D

 32 37  0  0  1  0  0  0  0  0999 V2000
  187.6180  174.5620  136.8810 N   0  0  0  0  0  0  0  0  0  0  0  0
  191.2800  174.1840  137.1390 C   0  0  0  0  0  2  0  0  0  0  0  0
  188.1560  178.2830  138.8270 C   0  0  0  0  0  3  0  0  0  0  0  0
  190.0710  176.0600  143.9520 C   0  0  0  0  0  2  0  0  0  0  0  0
  188.7730  176.7580  144.3750 C   0  0  0  0  0  2  0  0  0  0  0  0
  189.7280  176.9390  137.2400 C   0  0  0  0  0  0  0  0  0  0  0  0
  190.6450  176.6000  139.5280 N   0  0  0  0  0  0  0  0  0  0  0  0
  188.7760  173.8480  137.4150 C   0  0  0  0  0  2  0  0  0  0  0  0
  191.7420  175.5890  137.5430 C   0  0  0  0  0  2  0  0  0  0  0  0
  190.1820  175.9340  142.4380 C   0  0  0  0  0  2  0  0  0  0  0  0
  189.8430  177.2330  140.3250 C   0  0  0  0  0  0  0  0  0  0  0  0
  190.0600  177.3240  141.7990 C   0  0  1  0  0  3  0  0  0  0  0  0
  188.2170  178.5830  141.2220 N   0  0  0  0  0  0  0  0  0  0  0  0
  187.9440  175.0440  135.5940 N   0  0  0  0  0  2  0  0  0  0  0  0
  189.3960  175.1260  135.5070 C   0  0  1  0  0  3  0  0  0  0  0  0
  186.5580  173.5850  136.7090 C   0  0  0  0  0  1  0  0  0  0  0  0
  190.6380  176.4350  138.1040 C   0  0  0  0  0  0  0  0  0  0  0  0
  189.8490  176.5670  135.7890 C   0  0  0  0  0  2  0  0  0  0  0  0
  189.9080  174.0480  136.4480 C   0  0  1  0  0  3  0  0  0  0  0  0
  188.0320  177.3840  143.1920 C   0  0  0  0  0  2  0  0  0  0  0  0
  188.9510  178.1600  142.3500 N   0  0  1  0  0  0  0  0  0  0  0  0
  188.6110  177.7640  137.5810 N   0  0  0  0  0  0  0  0  0  0  0  0
  188.7090  178.0420  140.0070 C   0  0  2  0  0  3  0  0  0  0  0  0
  187.2680  179.6900  141.2950 C   0  0  0  0  0  2  0  0  0  0  0  0
  185.5180  178.9720  142.8430 C   0  0  0  0  0  3  0  0  0  0  0  0
  184.1800  178.4340  143.1470 C   0  0  0  0  0  0  0  0  0  0  0  0
  184.9670  178.8400  140.4690 C   0  0  0  0  0  0  0  0  0  0  0  0
  183.6320  178.2980  140.7770 C   0  0  0  0  0  3  0  0  0  0  0  0
  183.2580  178.1060  142.0450 C   0  0  0  0  0  3  0  0  0  0  0  0
  183.8280  178.2530  144.3410 O   0  0  0  0  0  0  0  0  0  0  0  0
  185.3080  179.0160  139.2690 O   0  0  0  0  0  0  0  0  0  0  0  0
  185.8950  179.1740  141.5760 C   0  0  0  0  0  0  0  0  0  0  0  0
  1  8  1  0  0  0  0
  2  9  1  0  0  0  0
  4  5  1  0  0  0  0
  6 22  1  0  0  0  0
  6 17  2  0  0  0  0
  7 11  2  0  0  0  0
  9 17  1  0  0  0  0
 10  4  1  0  0  0  0
 11 12  1  0  0  0  0
 12 21  1  0  0  0  0
 12 10  1  1  0  0  0
 13 24  1  0  0  0  0
 13 21  1  0  0  0  0
 14  1  1  0  0  0  0
 15 14  1  0  0  0  0
 15 18  1  1  0  0  0
 15 19  1  0  0  0  0
 16  1  1  0  0  0  0
 17  7  1  0  0  0  0
 18  6  1  0  0  0  0
 19  2  1  1  0  0  0
 19  8  1  0  0  0  0
 20  5  1  0  0  0  0
 21 20  1  1  0  0  0
 22  3  2  0  0  0  0
 23  3  1  1  0  0  0
 23 11  1  0  0  0  0
 23 13  1  0  0  0  0
 24 32  1  0  0  0  0
 25 26  1  0  0  0  0
 26 30  2  0  0  0  0
 27 28  1  0  0  0  0
 27 32  1  0  0  0  0
 28 29  2  0  0  0  0
 29 26  1  0  0  0  0
 31 27  2  0  0  0  0
 32 25  2  0  0  0  0
M  END
>  <MODEL>
5

>  <REMARK>
 VINA RESULT:      -6.9      1.543      1.974
  Name = 
  2 active torsions:
  status: ('A' for Active; 'I' for Inactive)
    1  A    between atoms: N_16  and  C_27
    2  A    between atoms: C_27  and  C_32
                            x       y       z     vdW  Elec       q    Type
                         _______ _______ _______ _____ _____    ______ ____

>  <TORSDO>
F 2

$$$$
=
 OpenBabel11052416493D

 32 37  0  0  1  0  0  0  0  0999 V2000
  186.3780  174.3910  136.7050 N   0  0  0  0  0  0  0  0  0  0  0  0
  188.9330  177.0490  136.8720 C   0  0  0  0  0  2  0  0  0  0  0  0
  183.5320  177.5090  137.0230 C   0  0  0  0  0  3  0  0  0  0  0  0
  185.0210  179.1890  142.4850 C   0  0  0  0  0  2  0  0  0  0  0  0
  183.5750  178.7210  142.6820 C   0  0  0  0  0  2  0  0  0  0  0  0
  185.9250  177.4760  135.9910 C   0  0  0  0  0  0  0  0  0  0  0  0
  186.1580  178.6490  138.1710 N   0  0  0  0  0  0  0  0  0  0  0  0
  187.4960  175.0220  137.4040 C   0  0  0  0  0  2  0  0  0  0  0  0
  188.1100  178.3280  136.6710 C   0  0  0  0  0  2  0  0  0  0  0  0
  185.5790  178.7600  141.1340 C   0  0  0  0  0  2  0  0  0  0  0  0
  184.9790  178.6320  138.7080 C   0  0  0  0  0  0  0  0  0  0  0  0
  184.6670  179.2800  140.0160 C   0  0  1  0  0  3  0  0  0  0  0  0
  182.7280  178.4260  139.1070 N   0  0  0  0  0  0  0  0  0  0  0  0
  186.5770  174.5430  135.3150 N   0  0  0  0  0  2  0  0  0  0  0  0
  187.4720  175.6750  135.1180 C   0  0  1  0  0  3  0  0  0  0  0  0
  186.4470  172.9690  136.9890 C   0  0  0  0  0  1  0  0  0  0  0  0
  186.6460  178.1330  136.9260 C   0  0  0  0  0  0  0  0  0  0  0  0
  186.6500  176.9310  134.7920 C   0  0  0  0  0  2  0  0  0  0  0  0
  188.3320  175.7210  136.3700 C   0  0  1  0  0  3  0  0  0  0  0  0
  182.9570  178.1690  141.3950 C   0  0  0  0  0  2  0  0  0  0  0  0
  183.2080  179.0720  140.2650 N   0  0  1  0  0  0  0  0  0  0  0  0
  184.5230  177.1950  136.0510 N   0  0  0  0  0  0  0  0  0  0  0  0
  183.7510  178.1370  138.1690 C   0  0  2  0  0  3  0  0  0  0  0  0
  181.3010  178.3580  138.8020 C   0  0  0  0  0  2  0  0  0  0  0  0
  181.0060  175.9500  138.4990 C   0  0  0  0  0  3  0  0  0  0  0  0
  180.4430  174.6430  138.8810 C   0  0  0  0  0  0  0  0  0  0  0  0
  179.8740  176.9340  140.4240 C   0  0  0  0  0  0  0  0  0  0  0  0
  179.3100  175.6250  140.8010 C   0  0  0  0  0  3  0  0  0  0  0  0
  179.5800  174.5390  140.0710 C   0  0  0  0  0  3  0  0  0  0  0  0
  180.6980  173.6200  138.1940 O   0  0  0  0  0  0  0  0  0  0  0  0
  179.6110  177.9510  141.1200 O   0  0  0  0  0  0  0  0  0  0  0  0
  180.7450  177.0390  139.2300 C   0  0  0  0  0  0  0  0  0  0  0  0
  1 16  1  0  0  0  0
  1  8  1  0  0  0  0
  4  5  1  0  0  0  0
  6 22  1  0  0  0  0
  6 17  2  0  0  0  0
  7 11  2  0  0  0  0
  9  2  1  0  0  0  0
  9 17  1  0  0  0  0
 10  4  1  0  0  0  0
 11 12  1  0  0  0  0
 12 21  1  0  0  0  0
 12 10  1  1  0  0  0
 13 21  1  0  0  0  0
 14  1  1  0  0  0  0
 15 18  1  1  0  0  0
 15 14  1  0  0  0  0
 15 19  1  0  0  0  0
 17  7  1  0  0  0  0
 18  6  1  0  0  0  0
 19  2  1  1  0  0  0
 19  8  1  0  0  0  0
 20  5  1  0  0  0  0
 21 20  1  1  0  0  0
 22  3  2  0  0  0  0
 23  3  1  1  0  0  0
 23 11  1  0  0  0  0
 23 13  1  0  0  0  0
 24 13  1  0  0  0  0
 24 32  1  0  0  0  0
 25 26  1  0  0  0  0
 25 32  2  0  0  0  0
 26 29  1  0  0  0  0
 27 28  1  0  0  0  0
 27 31  2  0  0  0  0
 29 28  2  0  0  0  0
 30 26  2  0  0  0  0
 32 27  1  0  0  0  0
M  END
>  <MODEL>
6

>  <REMARK>
 VINA RESULT:      -6.8      2.586      3.739
  Name = 
  2 active torsions:
  status: ('A' for Active; 'I' for Inactive)
    1  A    between atoms: N_16  and  C_27
    2  A    between atoms: C_27  and  C_32
                            x       y       z     vdW  Elec       q    Type
                         _______ _______ _______ _____ _____    ______ ____

>  <TORSDO>
F 2

$$$$
=
 OpenBabel11052416493D

 32 37  0  0  1  0  0  0  0  0999 V2000
  185.0540  173.9100  136.4490 N   0  0  0  0  0  0  0  0  0  0  0  0
  188.0180  175.8820  137.4240 C   0  0  0  0  0  2  0  0  0  0  0  0
  182.9890  177.6040  136.3480 C   0  0  0  0  0  3  0  0  0  0  0  0
  183.4260  178.7460  142.1250 C   0  0  0  0  0  2  0  0  0  0  0  0
  181.9080  178.6290  141.9400 C   0  0  0  0  0  2  0  0  0  0  0  0
  185.4920  177.0300  135.9030 C   0  0  0  0  0  0  0  0  0  0  0  0
  185.4390  178.0600  138.1670 N   0  0  0  0  0  0  0  0  0  0  0  0
  186.0780  174.2400  137.4390 C   0  0  0  0  0  2  0  0  0  0  0  0
  187.5770  177.3240  137.1430 C   0  0  0  0  0  2  0  0  0  0  0  0
  184.1880  178.2310  140.9120 C   0  0  0  0  0  2  0  0  0  0  0  0
  184.1900  178.3100  138.4100 C   0  0  0  0  0  0  0  0  0  0  0  0
  183.7190  178.9800  139.6570 C   0  0  1  0  0  3  0  0  0  0  0  0
  181.9230  178.6330  138.2550 N   0  0  0  0  0  0  0  0  0  0  0  0
  185.6180  174.0450  135.1610 N   0  0  0  0  0  2  0  0  0  0  0  0
  186.7640  174.9370  135.2710 C   0  0  1  0  0  3  0  0  0  0  0  0
  184.7320  172.5050  136.6240 C   0  0  0  0  0  1  0  0  0  0  0  0
  186.0900  177.4750  137.0310 C   0  0  0  0  0  0  0  0  0  0  0  0
  186.3500  176.3600  134.8660 C   0  0  0  0  0  2  0  0  0  0  0  0
  187.2770  174.7470  136.6880 C   0  0  1  0  0  3  0  0  0  0  0  0
  181.5190  178.2720  140.5040 C   0  0  0  0  0  2  0  0  0  0  0  0
  182.2360  179.1170  139.5410 N   0  0  1  0  0  0  0  0  0  0  0  0
  184.0930  177.0880  135.6120 N   0  0  0  0  0  0  0  0  0  0  0  0
  183.0540  178.1330  137.5610 C   0  0  2  0  0  3  0  0  0  0  0  0
  180.6370  178.9110  137.6200 C   0  0  0  0  0  2  0  0  0  0  0  0
  180.7920  181.3510  137.6130 C   0  0  0  0  0  3  0  0  0  0  0  0
  180.8140  182.6590  136.9340 C   0  0  0  0  0  0  0  0  0  0  0  0
  180.5830  180.2850  135.4280 C   0  0  0  0  0  0  0  0  0  0  0  0
  180.6000  181.5950  134.7520 C   0  0  0  0  0  3  0  0  0  0  0  0
  180.7110  182.7200  135.4650 C   0  0  0  0  0  3  0  0  0  0  0  0
  180.9180  183.7180  137.6050 O   0  0  0  0  0  0  0  0  0  0  0  0
  180.4770  179.2320  134.7450 O   0  0  0  0  0  0  0  0  0  0  0  0
  180.6900  180.2210  136.9050 C   0  0  0  0  0  0  0  0  0  0  0  0
  1 16  1  0  0  0  0
  1  8  1  0  0  0  0
  5  4  1  0  0  0  0
  6 17  2  0  0  0  0
  7 11  2  0  0  0  0
  9  2  1  0  0  0  0
 10  4  1  0  0  0  0
 11 12  1  0  0  0  0
 12 10  1  1  0  0  0
 13 21  1  0  0  0  0
 14 15  1  0  0  0  0
 14  1  1  0  0  0  0
 15 18  1  1  0  0  0
 15 19  1  0  0  0  0
 17  9  1  0  0  0  0
 17  7  1  0  0  0  0
 18  6  1  0  0  0  0
 19  2  1  1  0  0  0
 19  8  1  0  0  0  0
 20  5  1  0  0  0  0
 21 12  1  0  0  0  0
 21 20  1  1  0  0  0
 22  6  1  0  0  0  0
 22  3  2  0  0  0  0
 23  3  1  1  0  0  0
 23 13  1  0  0  0  0
 23 11  1  0  0  0  0
 24 13  1  0  0  0  0
 26 30  2  0  0  0  0
 26 25  1  0  0  0  0
 27 32  1  0  0  0  0
 28 27  1  0  0  0  0
 28 29  2  0  0  0  0
 29 26  1  0  0  0  0
 31 27  2  0  0  0  0
 32 25  2  0  0  0  0
 32 24  1  0  0  0  0
M  END
>  <MODEL>
7

>  <REMARK>
 VINA RESULT:      -6.6      3.182      4.837
  Name = 
  2 active torsions:
  status: ('A' for Active; 'I' for Inactive)
    1  A    between atoms: N_16  and  C_27
    2  A    between atoms: C_27  and  C_32
                            x       y       z     vdW  Elec       q    Type
                         _______ _______ _______ _____ _____    ______ ____

>  <TORSDO>
F 2

$$$$
=
 OpenBabel11052416493D

 32 37  0  0  1  0  0  0  0  0999 V2000
  191.4830  175.5520  143.5350 N   0  0  0  0  0  0  0  0  0  0  0  0
  188.1290  177.0160  143.0510 C   0  0  0  0  0  2  0  0  0  0  0  0
  192.4830  177.3490  139.8340 C   0  0  0  0  0  3  0  0  0  0  0  0
  188.8090  174.1130  136.5320 C   0  0  0  0  0  2  0  0  0  0  0  0
  190.1770  173.7090  135.9710 C   0  0  0  0  0  2  0  0  0  0  0  0
  190.7810  178.0590  141.6770 C   0  0  0  0  0  0  0  0  0  0  0  0
  189.4090  177.0930  139.8410 N   0  0  0  0  0  0  0  0  0  0  0  0
  190.0480  175.3710  143.3280 C   0  0  0  0  0  2  0  0  0  0  0  0
  188.3490  178.0000  141.8950 C   0  0  0  0  0  2  0  0  0  0  0  0
  188.9350  174.8770  137.8440 C   0  0  0  0  0  2  0  0  0  0  0  0
  190.2530  176.7010  138.9400 C   0  0  0  0  0  0  0  0  0  0  0  0
  189.8380  176.1010  137.6380 C   0  0  1  0  0  3  0  0  0  0  0  0
  192.1320  176.3280  137.6740 N   0  0  0  0  0  0  0  0  0  0  0  0
  191.6800  176.7220  144.3010 N   0  0  0  0  0  2  0  0  0  0  0  0
  190.5000  177.5600  144.1410 C   0  0  1  0  0  3  0  0  0  0  0  0
  191.9400  174.4360  144.3430 C   0  0  0  0  0  1  0  0  0  0  0  0
  189.5990  177.7230  141.1150 C   0  0  0  0  0  0  0  0  0  0  0  0
  190.7670  178.6270  143.0680 C   0  0  0  0  0  2  0  0  0  0  0  0
  189.3610  176.5900  143.8770 C   0  0  1  0  0  3  0  0  0  0  0  0
  191.3360  174.3810  136.7110 C   0  0  0  0  0  2  0  0  0  0  0  0
  191.0900  175.8200  136.8720 N   0  0  1  0  0  0  0  0  0  0  0  0
  192.0740  177.8780  141.0910 N   0  0  0  0  0  2  0  0  0  0  0  0
  191.6750  176.8450  138.9130 C   0  0  0  0  0  0  0  0  0  0  0  0
  193.4690  176.5660  137.1370 C   0  0  0  0  0  2  0  0  0  0  0  0
  194.4540  174.5600  138.1300 C   0  0  0  0  0  3  0  0  0  0  0  0
  195.2160  173.3010  138.0530 C   0  0  0  0  0  0  0  0  0  0  0  0
  194.7330  174.8090  135.7190 C   0  0  0  0  0  0  0  0  0  0  0  0
  195.4980  173.5510  135.6460 C   0  0  0  0  0  3  0  0  0  0  0  0
  195.7270  172.8360  136.7510 C   0  0  0  0  0  3  0  0  0  0  0  0
  195.4300  172.6280  139.0940 O   0  0  0  0  0  0  0  0  0  0  0  0
  194.5260  175.4750  134.6690 O   0  0  0  0  0  0  0  0  0  0  0  0
  194.2160  175.2770  137.0260 C   0  0  0  0  0  0  0  0  0  0  0  0
  1 14  1  0  0  0  0
  1 16  1  0  0  0  0
  3 22  1  0  0  0  0
  4 10  1  0  0  0  0
  5  4  1  0  0  0  0
  5 20  1  0  0  0  0
  6 18  1  0  0  0  0
  7 17  1  0  0  0  0
  8  1  1  0  0  0  0
  8 19  1  0  0  0  0
  9  2  1  0  0  0  0
 11  7  2  0  0  0  0
 12 10  1  1  0  0  0
 12 11  1  0  0  0  0
 13 23  1  0  0  0  0
 15 18  1  6  0  0  0
 15 14  1  0  0  0  0
 17  6  2  0  0  0  0
 17  9  1  0  0  0  0
 19  2  1  6  0  0  0
 19 15  1  0  0  0  0
 21 20  1  1  0  0  0
 21 12  1  0  0  0  0
 21 13  1  0  0  0  0
 22  6  1  0  0  0  0
 23 11  1  0  0  0  0
 23  3  2  0  0  0  0
 24 13  1  0  0  0  0
 26 25  1  0  0  0  0
 26 30  2  0  0  0  0
 27 32  1  0  0  0  0
 28 27  1  0  0  0  0
 28 29  2  0  0  0  0
 29 26  1  0  0  0  0
 31 27  2  0  0  0  0
 32 24  1  0  0  0  0
 32 25  2  0  0  0  0
M  END
>  <MODEL>
8

>  <REMARK>
 VINA RESULT:      -6.4      4.543      8.784
  Name = 
  2 active torsions:
  status: ('A' for Active; 'I' for Inactive)
    1  A    between atoms: N_16  and  C_27
    2  A    between atoms: C_27  and  C_32
                            x       y       z     vdW  Elec       q    Type
                         _______ _______ _______ _____ _____    ______ ____

>  <TORSDO>
F 2

$$$$
=
 OpenBabel11052416493D

 32 37  0  0  1  0  0  0  0  0999 V2000
  189.0540  176.8230  139.4110 N   0  0  0  0  0  0  0  0  0  0  0  0
  188.6270  179.0000  136.4620 C   0  0  0  0  0  2  0  0  0  0  0  0
  186.6280  174.0360  137.3430 C   0  0  0  0  0  3  0  0  0  0  0  0
  181.7170  177.3150  137.3620 C   0  0  0  0  0  2  0  0  0  0  0  0
  181.2880  176.0990  138.1900 C   0  0  0  0  0  2  0  0  0  0  0  0
  188.2740  175.8560  136.4640 C   0  0  0  0  0  0  0  0  0  0  0  0
  185.9970  176.7870  136.0980 N   0  0  0  0  0  0  0  0  0  0  0  0
  188.5450  178.0600  138.8220 C   0  0  0  0  0  2  0  0  0  0  0  0
  188.0240  178.0510  135.4200 C   0  0  0  0  0  2  0  0  0  0  0  0
  183.2260  177.3600  137.1560 C   0  0  0  0  0  2  0  0  0  0  0  0
  185.1750  175.9040  136.5710 C   0  0  0  0  0  0  0  0  0  0  0  0
  183.6920  176.0500  136.5070 C   0  0  1  0  0  3  0  0  0  0  0  0
  184.2150  173.9980  137.4160 N   0  0  0  0  0  0  0  0  0  0  0  0
  190.2480  176.4690  138.7460 N   0  0  0  0  0  2  0  0  0  0  0  0
  190.2370  177.1170  137.4420 C   0  0  1  0  0  3  0  0  0  0  0  0
  189.4090  177.1220  140.7870 C   0  0  0  0  0  1  0  0  0  0  0  0
  187.4280  176.8140  136.0230 C   0  0  0  0  0  0  0  0  0  0  0  0
  189.7510  176.1230  136.3760 C   0  0  0  0  0  2  0  0  0  0  0  0
  189.4100  178.3770  137.6350 C   0  0  1  0  0  3  0  0  0  0  0  0
  182.4250  175.0950  138.3890 C   0  0  0  0  0  2  0  0  0  0  0  0
  183.1080  174.8180  137.1190 N   0  0  1  0  0  0  0  0  0  0  0  0
  187.9000  174.6130  137.0630 N   0  0  0  0  0  0  0  0  0  0  0  0
  185.4570  174.6140  137.1190 C   0  0  2  0  0  3  0  0  0  0  0  0
  184.0610  172.5740  137.7020 C   0  0  0  0  0  2  0  0  0  0  0  0
  181.7740  171.8380  137.2510 C   0  0  0  0  0  3  0  0  0  0  0  0
  180.7420  171.2230  136.3970 C   0  0  0  0  0  0  0  0  0  0  0  0
  183.3840  171.4970  135.4490 C   0  0  0  0  0  0  0  0  0  0  0  0
  182.3500  170.8790  134.5990 C   0  0  0  0  0  3  0  0  0  0  0  0
  181.0980  170.7500  135.0470 C   0  0  0  0  0  3  0  0  0  0  0  0
  179.5630  171.1010  136.8190 O   0  0  0  0  0  0  0  0  0  0  0  0
  184.5610  171.6130  135.0140 O   0  0  0  0  0  0  0  0  0  0  0  0
  183.0270  171.9770  136.8050 C   0  0  0  0  0  0  0  0  0  0  0  0
  1 16  1  0  0  0  0
  4  5  1  0  0  0  0
  5 20  1  0  0  0  0
  6 22  1  0  0  0  0
  7 11  2  0  0  0  0
  8  1  1  0  0  0  0
  9 17  1  0  0  0  0
  9  2  1  0  0  0  0
 10  4  1  0  0  0  0
 11 23  1  0  0  0  0
 12 11  1  0  0  0  0
 12 21  1  0  0  0  0
 12 10  1  1  0  0  0
 13 24  1  0  0  0  0
 14  1  1  0  0  0  0
 15 18  1  6  0  0  0
 15 19  1  0  0  0  0
 15 14  1  0  0  0  0
 17  7  1  0  0  0  0
 17  6  2  0  0  0  0
 18  6  1  0  0  0  0
 19  2  1  6  0  0  0
 19  8  1  0  0  0  0
 21 13  1  0  0  0  0
 21 20  1  1  0  0  0
 22  3  2  0  0  0  0
 23  3  1  1  0  0  0
 23 13  1  0  0  0  0
 26 30  2  0  0  0  0
 26 25  1  0  0  0  0
 27 32  1  0  0  0  0
 28 29  2  0  0  0  0
 28 27  1  0  0  0  0
 29 26  1  0  0  0  0
 31 27  2  0  0  0  0
 32 25  2  0  0  0  0
 32 24  1  0  0  0  0
M  END
>  <MODEL>
9

>  <REMARK>
 VINA RESULT:      -5.8      3.283      6.337
  Name = 
  2 active torsions:
  status: ('A' for Active; 'I' for Inactive)
    1  A    between atoms: N_16  and  C_27
    2  A    between atoms: C_27  and  C_32
                            x       y       z     vdW  Elec       q    Type
                         _______ _______ _______ _____ _____    ______ ____

>  <TORSDO>
F 2

$$$$
