=
 OpenBabel11052417043D

 32 36  0  0  1  0  0  0  0  0999 V2000
  184.2600  178.1910  141.3270 C   0  0  0  0  0  0  0  0  0  0  0  0
  180.5940  178.7590  138.9400 C   0  0  1  0  0  3  0  0  0  0  0  0
  180.0180  181.0500  138.1090 C   0  0  0  0  0  0  0  0  0  0  0  0
  179.9690  182.0400  137.0170 C   0  0  0  0  0  0  0  0  0  0  0  0
  182.8950  179.9510  139.0380 C   0  0  0  0  0  2  0  0  0  0  0  0
  181.5120  176.5290  139.2410 N   0  0  0  0  0  2  0  0  0  0  0  0
  179.8820  183.8620  134.9380 N   0  0  0  0  0  0  0  0  0  0  0  0
  183.3970  177.1090  140.7070 C   0  0  0  0  0  2  0  0  0  0  0  0
  180.4170  177.2670  138.6200 C   0  0  2  0  0  3  0  0  0  0  0  0
  180.2850  176.8780  137.1410 C   0  0  2  0  0  3  0  0  0  0  0  0
  180.3690  179.2650  136.4060 C   0  0  2  0  0  3  0  0  0  0  0  0
  179.4480  184.2390  136.1710 C   0  0  0  0  0  3  0  0  0  0  0  0
  184.6900  179.2890  140.6720 C   0  0  0  0  0  3  0  0  0  0  0  0
  182.5800  177.4920  139.4700 C   0  0  2  0  0  3  0  0  0  0  0  0
  179.4860  183.3350  137.2340 C   0  0  0  0  0  3  0  0  0  0  0  0
  184.3790  179.6290  139.2460 C   0  0  0  0  0  2  0  0  0  0  0  0
  180.9520  177.8650  136.1890 C   0  0  1  0  0  3  0  0  0  0  0  0
  180.9940  180.3160  135.4830 C   0  0  0  0  0  2  0  0  0  0  0  0
  181.9620  178.8690  139.6030 C   0  0  2  0  0  3  0  0  0  0  0  0
  179.7440  181.3960  139.2910 O   0  0  0  0  0  0  0  0  0  0  0  0
  180.3600  182.6090  134.7020 C   0  0  0  0  0  3  0  0  0  0  0  0
  180.3940  179.6920  137.8150 N   0  0  0  0  0  0  0  0  0  0  0  0
  180.4030  181.6690  135.7330 C   0  0  0  0  0  0  0  0  0  0  0  0
  178.9310  175.8990  135.6890 C   0  0  0  0  0  1  0  0  0  0  0  0
  178.9350  176.7310  136.8100 O   0  0  0  0  0  0  0  0  0  0  0  0
  183.0120  176.5890  135.5850 C   0  0  0  0  0  1  0  0  0  0  0  0
  182.4720  177.8050  136.3110 C   0  0  0  0  0  2  0  0  0  0  0  0
  184.6300  177.9880  142.6620 O   0  0  0  0  0  0  0  0  0  0  0  0
  184.7660  179.0450  143.6050 C   0  0  0  0  0  2  0  0  0  0  0  0
  183.6130  179.0250  144.5480 C   0  0  0  0  0  0  0  0  0  0  0  0
  182.2200  179.0040  144.0220 C   0  0  0  0  0  1  0  0  0  0  0  0
  183.8080  179.0620  145.7520 O   0  0  0  0  0  0  0  0  0  0  0  0
  1 28  1  0  0  0  0
  2 22  1  6  0  0  0
  2 19  1  0  0  0  0
  3 20  2  0  0  0  0
  4 15  1  0  0  0  0
  4  3  1  0  0  0  0
  5 16  1  0  0  0  0
  6 14  1  0  0  0  0
  7 12  1  0  0  0  0
  8  1  1  0  0  0  0
  9  2  1  0  0  0  0
  9  6  1  6  0  0  0
 10 25  1  6  0  0  0
 10  9  1  0  0  0  0
 11 18  1  6  0  0  0
 11 22  1  0  0  0  0
 12 15  2  0  0  0  0
 13  1  2  0  0  0  0
 14 19  1  0  0  0  0
 14  8  1  1  0  0  0
 16 13  1  0  0  0  0
 17 27  1  1  0  0  0
 17 11  1  0  0  0  0
 17 10  1  0  0  0  0
 18 23  1  0  0  0  0
 19  5  1  6  0  0  0
 21  7  2  0  0  0  0
 21 23  1  0  0  0  0
 22  3  1  0  0  0  0
 23  4  2  0  0  0  0
 24 25  1  0  0  0  0
 26 27  1  0  0  0  0
 28 29  1  0  0  0  0
 29 30  1  0  0  0  0
 30 32  2  0  0  0  0
 31 30  1  0  0  0  0
M  END
>  <MODEL>
1

>  <REMARK>
 VINA RESULT:      -5.5      0.000      0.000
  Name = 
  5 active torsions:
  status: ('A' for Active; 'I' for Inactive)
    1  A    between atoms: C_1  and  C_10
    2  A    between atoms: C_2  and  O_24
    3  A    between atoms: C_10  and  O_24
    4  A    between atoms: O_13  and  C_15
    5  A    between atoms: C_25  and  C_26
                            x       y       z     vdW  Elec       q    Type
                         _______ _______ _______ _____ _____    ______ ____

>  <TORSDO>
F 5

$$$$
=
 OpenBabel11052417043D

 32 36  0  0  1  0  0  0  0  0999 V2000
  186.1230  178.5710  140.7380 C   0  0  0  0  0  0  0  0  0  0  0  0
  181.9100  179.8300  140.3950 C   0  0  1  0  0  3  0  0  0  0  0  0
  181.1040  180.8340  138.2470 C   0  0  0  0  0  0  0  0  0  0  0  0
  180.3750  180.7090  136.9700 C   0  0  0  0  0  0  0  0  0  0  0  0
  183.6870  178.9750  138.7130 C   0  0  0  0  0  2  0  0  0  0  0  0
  182.5840  178.3250  142.1800 N   0  0  0  0  0  2  0  0  0  0  0  0
  178.9890  180.4370  134.5940 N   0  0  0  0  0  0  0  0  0  0  0  0
  184.9910  178.2420  141.6910 C   0  0  0  0  0  2  0  0  0  0  0  0
  181.4370  179.0320  141.6200 C   0  0  2  0  0  3  0  0  0  0  0  0
  180.2640  178.0630  141.4140 C   0  0  2  0  0  3  0  0  0  0  0  0
  179.9960  178.7410  139.0240 C   0  0  2  0  0  3  0  0  0  0  0  0
  179.5900  181.6240  134.8800 C   0  0  0  0  0  3  0  0  0  0  0  0
  186.0500  178.4440  139.3970 C   0  0  0  0  0  3  0  0  0  0  0  0
  183.5730  178.2350  141.1150 C   0  0  2  0  0  3  0  0  0  0  0  0
  180.2960  181.7810  136.0740 C   0  0  0  0  0  3  0  0  0  0  0  0
  184.8490  177.9770  138.6320 C   0  0  0  0  0  2  0  0  0  0  0  0
  180.1360  177.5550  139.9820 C   0  0  1  0  0  3  0  0  0  0  0  0
  179.8650  178.3080  137.5610 C   0  0  0  0  0  2  0  0  0  0  0  0
  183.3470  179.3840  140.1530 C   0  0  2  0  0  3  0  0  0  0  0  0
  181.7780  181.8710  138.4930 O   0  0  0  0  0  0  0  0  0  0  0  0
  179.0540  179.3790  135.4470 C   0  0  0  0  0  3  0  0  0  0  0  0
  181.0470  179.7570  139.2010 N   0  0  0  0  0  0  0  0  0  0  0  0
  179.7390  179.4970  136.6580 C   0  0  0  0  0  0  0  0  0  0  0  0
  179.2700  178.9960  143.1580 C   0  0  0  0  0  1  0  0  0  0  0  0
  179.0720  178.6740  141.8140 O   0  0  0  0  0  0  0  0  0  0  0  0
  180.7510  175.2240  139.3280 C   0  0  0  0  0  1  0  0  0  0  0  0
  181.2820  176.6100  139.6300 C   0  0  0  0  0  2  0  0  0  0  0  0
  187.3120  179.0130  141.3300 O   0  0  0  0  0  0  0  0  0  0  0  0
  188.5580  178.3400  141.1820 C   0  0  0  0  0  2  0  0  0  0  0  0
  188.9620  177.7450  142.4860 C   0  0  0  0  0  0  0  0  0  0  0  0
  187.9970  176.9130  143.2580 C   0  0  0  0  0  1  0  0  0  0  0  0
  190.0720  177.9670  142.9410 O   0  0  0  0  0  0  0  0  0  0  0  0
  1 28  1  0  0  0  0
  1  8  1  0  0  0  0
  2 22  1  6  0  0  0
  2  9  1  0  0  0  0
  3 20  2  0  0  0  0
  3 22  1  0  0  0  0
  4  3  1  0  0  0  0
  7 12  2  0  0  0  0
  7 21  1  0  0  0  0
  9  6  1  6  0  0  0
 10  9  1  0  0  0  0
 10 25  1  6  0  0  0
 11 18  1  6  0  0  0
 11 22  1  0  0  0  0
 11 17  1  0  0  0  0
 12 15  1  0  0  0  0
 13  1  2  0  0  0  0
 14  8  1  1  0  0  0
 14  6  1  0  0  0  0
 15  4  2  0  0  0  0
 16  5  1  0  0  0  0
 16 13  1  0  0  0  0
 17 27  1  6  0  0  0
 17 10  1  0  0  0  0
 19  5  1  6  0  0  0
 19  2  1  0  0  0  0
 19 14  1  0  0  0  0
 21 23  2  0  0  0  0
 23  4  1  0  0  0  0
 23 18  1  0  0  0  0
 25 24  1  0  0  0  0
 26 27  1  0  0  0  0
 29 28  1  0  0  0  0
 29 30  1  0  0  0  0
 30 32  2  0  0  0  0
 30 31  1  0  0  0  0
M  END
>  <MODEL>
2

>  <REMARK>
 VINA RESULT:      -5.0      2.464      3.723
  Name = 
  5 active torsions:
  status: ('A' for Active; 'I' for Inactive)
    1  A    between atoms: C_1  and  C_10
    2  A    between atoms: C_2  and  O_24
    3  A    between atoms: C_10  and  O_24
    4  A    between atoms: O_13  and  C_15
    5  A    between atoms: C_25  and  C_26
                            x       y       z     vdW  Elec       q    Type
                         _______ _______ _______ _____ _____    ______ ____

>  <TORSDO>
F 5

$$$$
=
 OpenBabel11052417043D

 32 36  0  0  1  0  0  0  0  0999 V2000
  187.2250  175.6400  136.8500 C   0  0  0  0  0  0  0  0  0  0  0  0
  183.3120  176.7690  138.5460 C   0  0  1  0  0  3  0  0  0  0  0  0
  182.6300  179.1790  138.5490 C   0  0  0  0  0  0  0  0  0  0  0  0
  181.8440  180.2870  137.9740 C   0  0  0  0  0  0  0  0  0  0  0  0
  184.8350  177.7520  136.6910 C   0  0  0  0  0  2  0  0  0  0  0  0
  183.7580  174.4520  137.9630 N   0  0  0  0  0  2  0  0  0  0  0  0
  180.3440  182.3330  136.8730 N   0  0  0  0  0  0  0  0  0  0  0  0
  186.0870  174.7090  137.2220 C   0  0  0  0  0  2  0  0  0  0  0  0
  182.7440  175.3420  138.5190 C   0  0  2  0  0  3  0  0  0  0  0  0
  181.4040  175.1350  137.8000 C   0  0  2  0  0  3  0  0  0  0  0  0
  181.1790  177.5750  137.3100 C   0  0  2  0  0  3  0  0  0  0  0  0
  181.1670  182.6020  137.9230 C   0  0  0  0  0  3  0  0  0  0  0  0
  187.0790  176.7660  136.1230 C   0  0  0  0  0  3  0  0  0  0  0  0
  184.6730  175.2940  137.2030 C   0  0  2  0  0  3  0  0  0  0  0  0
  181.9340  181.5840  138.4910 C   0  0  0  0  0  3  0  0  0  0  0  0
  185.7840  177.2900  135.5800 C   0  0  0  0  0  2  0  0  0  0  0  0
  181.1290  176.1670  136.7110 C   0  0  1  0  0  3  0  0  0  0  0  0
  180.9150  178.6700  136.2710 C   0  0  0  0  0  2  0  0  0  0  0  0
  184.6300  176.6930  137.7850 C   0  0  2  0  0  3  0  0  0  0  0  0
  183.4960  179.4100  139.4370 O   0  0  0  0  0  0  0  0  0  0  0  0
  180.2420  181.0810  136.3500 C   0  0  0  0  0  3  0  0  0  0  0  0
  182.4080  177.8360  138.0780 N   0  0  0  0  0  0  0  0  0  0  0  0
  180.9800  180.0300  136.8960 C   0  0  0  0  0  0  0  0  0  0  0  0
  179.8770  173.8270  138.7270 C   0  0  0  0  0  1  0  0  0  0  0  0
  180.3630  175.1360  138.7330 O   0  0  0  0  0  0  0  0  0  0  0  0
  181.8190  174.6220  134.8740 C   0  0  0  0  0  1  0  0  0  0  0  0
  182.0640  175.9700  135.5210 C   0  0  0  0  0  2  0  0  0  0  0  0
  188.4970  175.2580  137.2930 O   0  0  0  0  0  0  0  0  0  0  0  0
  189.6150  176.1380  137.3140 C   0  0  0  0  0  2  0  0  0  0  0  0
  189.8370  176.6310  138.7020 C   0  0  0  0  0  0  0  0  0  0  0  0
  189.2240  177.9150  139.1450 C   0  0  0  0  0  1  0  0  0  0  0  0
  190.5500  176.0020  139.4670 O   0  0  0  0  0  0  0  0  0  0  0  0
  1  8  1  0  0  0  0
  1 28  1  0  0  0  0
  2 22  1  6  0  0  0
  3 20  2  0  0  0  0
  4 15  1  0  0  0  0
  4  3  1  0  0  0  0
  7 12  1  0  0  0  0
  9  6  1  6  0  0  0
  9  2  1  0  0  0  0
 10  9  1  0  0  0  0
 10 25  1  1  0  0  0
 11 18  1  6  0  0  0
 11 22  1  0  0  0  0
 12 15  2  0  0  0  0
 13  1  2  0  0  0  0
 14  8  1  1  0  0  0
 14 19  1  0  0  0  0
 14  6  1  0  0  0  0
 16 13  1  0  0  0  0
 16  5  1  0  0  0  0
 17 27  1  6  0  0  0
 17 11  1  0  0  0  0
 17 10  1  0  0  0  0
 18 23  1  0  0  0  0
 19  5  1  6  0  0  0
 19  2  1  0  0  0  0
 21  7  2  0  0  0  0
 21 23  1  0  0  0  0
 22  3  1  0  0  0  0
 23  4  2  0  0  0  0
 24 25  1  0  0  0  0
 26 27  1  0  0  0  0
 28 29  1  0  0  0  0
 29 30  1  0  0  0  0
 30 31  1  0  0  0  0
 30 32  2  0  0  0  0
M  END
>  <MODEL>
3

>  <REMARK>
 VINA RESULT:      -4.9      3.431      4.630
  Name = 
  5 active torsions:
  status: ('A' for Active; 'I' for Inactive)
    1  A    between atoms: C_1  and  C_10
    2  A    between atoms: C_2  and  O_24
    3  A    between atoms: C_10  and  O_24
    4  A    between atoms: O_13  and  C_15
    5  A    between atoms: C_25  and  C_26
                            x       y       z     vdW  Elec       q    Type
                         _______ _______ _______ _____ _____    ______ ____

>  <TORSDO>
F 5

$$$$
=
 OpenBabel11052417043D

 32 36  0  0  1  0  0  0  0  0999 V2000
  181.9120  180.8230  138.4390 C   0  0  0  0  0  0  0  0  0  0  0  0
  182.1580  177.0340  136.1930 C   0  0  1  0  0  3  0  0  0  0  0  0
  184.3930  175.9570  135.8520 C   0  0  0  0  0  0  0  0  0  0  0  0
  185.3840  174.9250  136.2100 C   0  0  0  0  0  0  0  0  0  0  0  0
  183.5580  178.1080  138.0930 C   0  0  0  0  0  2  0  0  0  0  0  0
  180.0200  177.7880  137.0710 N   0  0  0  0  0  2  0  0  0  0  0  0
  187.2080  172.9660  136.9030 N   0  0  0  0  0  0  0  0  0  0  0  0
  180.7600  179.9200  138.0420 C   0  0  0  0  0  2  0  0  0  0  0  0
  180.6580  176.7190  136.3090 C   0  0  2  0  0  3  0  0  0  0  0  0
  180.2730  175.3510  136.8870 C   0  0  2  0  0  3  0  0  0  0  0  0
  182.6630  174.6500  137.0810 C   0  0  2  0  0  3  0  0  0  0  0  0
  187.5320  173.8620  135.9320 C   0  0  0  0  0  3  0  0  0  0  0  0
  183.0510  180.3930  139.0180 C   0  0  0  0  0  3  0  0  0  0  0  0
  181.0760  178.4370  137.8350 C   0  0  2  0  0  3  0  0  0  0  0  0
  186.6260  174.8600  135.5690 C   0  0  0  0  0  3  0  0  0  0  0  0
  183.3740  178.9670  139.3500 C   0  0  0  0  0  2  0  0  0  0  0  0
  181.3260  174.7630  137.8200 C   0  0  1  0  0  3  0  0  0  0  0  0
  183.7760  174.0690  137.9590 C   0  0  0  0  0  2  0  0  0  0  0  0
  182.3890  178.2340  137.1050 C   0  0  2  0  0  3  0  0  0  0  0  0
  184.7010  176.8810  135.0490 O   0  0  0  0  0  0  0  0  0  0  0  0
  186.0080  173.0100  137.5430 C   0  0  0  0  0  3  0  0  0  0  0  0
  183.0780  175.9070  136.4360 N   0  0  0  0  0  0  0  0  0  0  0  0
  185.0670  173.9830  137.2020 C   0  0  0  0  0  0  0  0  0  0  0  0
  178.9330  173.6880  136.3050 C   0  0  0  0  0  1  0  0  0  0  0  0
  180.0030  174.4580  135.8460 O   0  0  0  0  0  0  0  0  0  0  0  0
  180.1190  175.4080  139.9090 C   0  0  0  0  0  1  0  0  0  0  0  0
  181.4070  175.5530  139.1240 C   0  0  0  0  0  2  0  0  0  0  0  0
  181.7320  182.1890  138.1880 O   0  0  0  0  0  0  0  0  0  0  0  0
  180.6800  182.7040  137.3790 C   0  0  0  0  0  2  0  0  0  0  0  0
  181.1330  183.9550  136.7090 C   0  0  0  0  0  0  0  0  0  0  0  0
  180.6900  184.2590  135.3200 C   0  0  0  0  0  1  0  0  0  0  0  0
  181.8950  184.7150  137.2840 O   0  0  0  0  0  0  0  0  0  0  0  0
  1 13  2  0  0  0  0
  2  9  1  0  0  0  0
  2 22  1  1  0  0  0
  2 19  1  0  0  0  0
  3  4  1  0  0  0  0
  3 22  1  0  0  0  0
  4 23  1  0  0  0  0
  5 16  1  0  0  0  0
  6 14  1  0  0  0  0
  7 21  1  0  0  0  0
  8  1  1  0  0  0  0
  9 10  1  0  0  0  0
  9  6  1  1  0  0  0
 10 25  1  6  0  0  0
 10 17  1  0  0  0  0
 11 17  1  0  0  0  0
 11 18  1  1  0  0  0
 12  7  2  0  0  0  0
 13 16  1  0  0  0  0
 14  8  1  6  0  0  0
 15 12  1  0  0  0  0
 15  4  2  0  0  0  0
 17 27  1  1  0  0  0
 19 14  1  0  0  0  0
 19  5  1  1  0  0  0
 20  3  2  0  0  0  0
 22 11  1  0  0  0  0
 23 21  2  0  0  0  0
 23 18  1  0  0  0  0
 25 24  1  0  0  0  0
 27 26  1  0  0  0  0
 28  1  1  0  0  0  0
 29 28  1  0  0  0  0
 30 32  2  0  0  0  0
 30 29  1  0  0  0  0
 31 30  1  0  0  0  0
M  END
>  <MODEL>
4

>  <REMARK>
 VINA RESULT:      -4.9      3.121      7.009
  Name = 
  5 active torsions:
  status: ('A' for Active; 'I' for Inactive)
    1  A    between atoms: C_1  and  C_10
    2  A    between atoms: C_2  and  O_24
    3  A    between atoms: C_10  and  O_24
    4  A    between atoms: O_13  and  C_15
    5  A    between atoms: C_25  and  C_26
                            x       y       z     vdW  Elec       q    Type
                         _______ _______ _______ _____ _____    ______ ____

>  <TORSDO>
F 5

$$$$
=
 OpenBabel11052417043D

 32 36  0  0  1  0  0  0  0  0999 V2000
  189.0910  177.8450  142.8320 C   0  0  0  0  0  0  0  0  0  0  0  0
  190.6910  177.8200  138.7210 C   0  0  1  0  0  3  0  0  0  0  0  0
  192.6670  176.3780  138.1860 C   0  0  0  0  0  0  0  0  0  0  0  0
  193.2320  175.1490  137.5980 C   0  0  0  0  0  0  0  0  0  0  0  0
  190.6150  176.0850  140.6460 C   0  0  0  0  0  2  0  0  0  0  0  0
  188.4620  178.6910  139.1500 N   0  0  0  0  0  2  0  0  0  0  0  0
  194.2520  172.8380  136.4730 N   0  0  0  0  0  0  0  0  0  0  0  0
  188.4340  178.4210  141.5920 C   0  0  0  0  0  2  0  0  0  0  0  0
  189.4410  178.4560  138.0930 C   0  0  2  0  0  3  0  0  0  0  0  0
  188.7890  177.7090  136.9220 C   0  0  2  0  0  3  0  0  0  0  0  0
  190.5550  175.9420  136.9370 C   0  0  2  0  0  3  0  0  0  0  0  0
  195.1010  173.7150  137.0750 C   0  0  0  0  0  3  0  0  0  0  0  0
  189.6330  176.6120  142.9020 C   0  0  0  0  0  3  0  0  0  0  0  0
  188.8190  177.8010  140.2470 C   0  0  2  0  0  3  0  0  0  0  0  0
  194.6060  174.8860  137.6500 C   0  0  0  0  0  3  0  0  0  0  0  0
  189.6920  175.6220  141.7780 C   0  0  0  0  0  2  0  0  0  0  0  0
  189.0460  176.2070  136.9360 C   0  0  1  0  0  3  0  0  0  0  0  0
  190.8930  174.4480  136.9550 C   0  0  0  0  0  2  0  0  0  0  0  0
  190.3040  177.5090  140.1620 C   0  0  2  0  0  3  0  0  0  0  0  0
  193.3990  177.1530  138.8600 O   0  0  0  0  0  0  0  0  0  0  0  0
  192.9130  173.0690  136.4130 C   0  0  0  0  0  3  0  0  0  0  0  0
  191.2720  176.6760  137.9930 N   0  0  0  0  0  0  0  0  0  0  0  0
  192.3760  174.2340  136.9640 C   0  0  0  0  0  0  0  0  0  0  0  0
  188.4200  177.6600  134.7390 C   0  0  0  0  0  1  0  0  0  0  0  0
  189.2230  178.2580  135.7120 O   0  0  0  0  0  0  0  0  0  0  0  0
  187.0940  174.7810  137.5630 C   0  0  0  0  0  1  0  0  0  0  0  0
  188.3010  175.5330  138.0850 C   0  0  0  0  0  2  0  0  0  0  0  0
  189.0960  178.6720  143.9610 O   0  0  0  0  0  0  0  0  0  0  0  0
  189.5730  178.2530  145.2360 C   0  0  0  0  0  2  0  0  0  0  0  0
  188.4200  177.8740  146.1000 C   0  0  0  0  0  0  0  0  0  0  0  0
  188.6530  177.1340  147.3720 C   0  0  0  0  0  1  0  0  0  0  0  0
  187.2810  178.1380  145.7500 O   0  0  0  0  0  0  0  0  0  0  0  0
  1 13  2  0  0  0  0
  1 28  1  0  0  0  0
  2 22  1  6  0  0  0
  2 19  1  0  0  0  0
  3 20  2  0  0  0  0
  4 15  1  0  0  0  0
  4  3  1  0  0  0  0
  5 16  1  0  0  0  0
  6 14  1  0  0  0  0
  7 12  1  0  0  0  0
  8  1  1  0  0  0  0
  9  2  1  0  0  0  0
  9  6  1  1  0  0  0
 10 25  1  6  0  0  0
 10 17  1  0  0  0  0
 10  9  1  0  0  0  0
 11 18  1  1  0  0  0
 11 22  1  0  0  0  0
 12 15  2  0  0  0  0
 14  8  1  1  0  0  0
 16 13  1  0  0  0  0
 17 11  1  0  0  0  0
 17 27  1  1  0  0  0
 18 23  1  0  0  0  0
 19 14  1  0  0  0  0
 19  5  1  6  0  0  0
 21  7  2  0  0  0  0
 21 23  1  0  0  0  0
 22  3  1  0  0  0  0
 23  4  2  0  0  0  0
 24 25  1  0  0  0  0
 26 27  1  0  0  0  0
 28 29  1  0  0  0  0
 29 30  1  0  0  0  0
 30 31  1  0  0  0  0
 32 30  2  0  0  0  0
M  END
>  <MODEL>
5

>  <REMARK>
 VINA RESULT:      -4.4      7.595     10.533
  Name = 
  5 active torsions:
  status: ('A' for Active; 'I' for Inactive)
    1  A    between atoms: C_1  and  C_10
    2  A    between atoms: C_2  and  O_24
    3  A    between atoms: C_10  and  O_24
    4  A    between atoms: O_13  and  C_15
    5  A    between atoms: C_25  and  C_26
                            x       y       z     vdW  Elec       q    Type
                         _______ _______ _______ _____ _____    ______ ____

>  <TORSDO>
F 5

$$$$
=
 OpenBabel11052417043D

 32 36  0  0  1  0  0  0  0  0999 V2000
  189.9760  177.2160  141.5870 C   0  0  0  0  0  0  0  0  0  0  0  0
  189.1730  175.5800  137.5700 C   0  0  1  0  0  3  0  0  0  0  0  0
  186.8040  175.1710  136.8670 C   0  0  0  0  0  0  0  0  0  0  0  0
  185.6070  175.5770  136.1070 C   0  0  0  0  0  0  0  0  0  0  0  0
  187.8660  177.1240  139.1920 C   0  0  0  0  0  2  0  0  0  0  0  0
  191.3420  176.5550  138.0710 N   0  0  0  0  0  2  0  0  0  0  0  0
  183.3890  176.3670  134.6560 N   0  0  0  0  0  0  0  0  0  0  0  0
  190.9570  177.0930  140.4380 C   0  0  0  0  0  2  0  0  0  0  0  0
  190.5690  175.9050  137.0180 C   0  0  2  0  0  3  0  0  0  0  0  0
  190.6360  176.7300  135.7250 C   0  0  2  0  0  3  0  0  0  0  0  0
  188.1470  176.7710  135.5070 C   0  0  2  0  0  3  0  0  0  0  0  0
  183.3210  175.2380  135.4130 C   0  0  0  0  0  3  0  0  0  0  0  0
  188.7330  177.7290  141.4750 C   0  0  0  0  0  3  0  0  0  0  0  0
  190.3760  177.0880  139.0220 C   0  0  2  0  0  3  0  0  0  0  0  0
  184.4290  174.8240  136.1540 C   0  0  0  0  0  3  0  0  0  0  0  0
  188.1150  178.2430  140.2100 C   0  0  0  0  0  2  0  0  0  0  0  0
  189.4190  177.6230  135.5070 C   0  0  1  0  0  3  0  0  0  0  0  0
  186.8780  177.6030  135.2960 C   0  0  0  0  0  2  0  0  0  0  0  0
  189.1090  176.2610  138.9320 C   0  0  2  0  0  3  0  0  0  0  0  0
  186.7440  174.2050  137.6760 O   0  0  0  0  0  0  0  0  0  0  0  0
  184.5220  177.1190  134.5970 C   0  0  0  0  0  3  0  0  0  0  0  0
  188.0350  175.8950  136.6860 N   0  0  0  0  0  0  0  0  0  0  0  0
  185.6580  176.7330  135.3110 C   0  0  0  0  0  0  0  0  0  0  0  0
  191.9830  175.1770  134.9030 C   0  0  0  0  0  1  0  0  0  0  0  0
  190.8060  175.8770  134.6300 O   0  0  0  0  0  0  0  0  0  0  0  0
  188.0070  179.3760  136.5880 C   0  0  0  0  0  1  0  0  0  0  0  0
  189.3940  178.7700  136.5130 C   0  0  0  0  0  2  0  0  0  0  0  0
  190.4360  176.7760  142.8340 O   0  0  0  0  0  0  0  0  0  0  0  0
  191.3800  177.4960  143.6190 C   0  0  0  0  0  2  0  0  0  0  0  0
  190.9480  177.4950  145.0450 C   0  0  0  0  0  0  0  0  0  0  0  0
  189.5560  177.8900  145.4020 C   0  0  0  0  0  1  0  0  0  0  0  0
  191.7420  177.2050  145.9240 O   0  0  0  0  0  0  0  0  0  0  0  0
  1 28  1  0  0  0  0
  2 22  1  6  0  0  0
  2 19  1  0  0  0  0
  3 20  2  0  0  0  0
  4 15  1  0  0  0  0
  4  3  1  0  0  0  0
  5 16  1  0  0  0  0
  6 14  1  0  0  0  0
  7 12  1  0  0  0  0
  8  1  1  0  0  0  0
  9  2  1  0  0  0  0
  9  6  1  1  0  0  0
 10 25  1  6  0  0  0
 10  9  1  0  0  0  0
 11 18  1  1  0  0  0
 11 22  1  0  0  0  0
 12 15  2  0  0  0  0
 13  1  2  0  0  0  0
 14  8  1  1  0  0  0
 16 13  1  0  0  0  0
 17 11  1  0  0  0  0
 17 10  1  0  0  0  0
 17 27  1  1  0  0  0
 18 23  1  0  0  0  0
 19 14  1  0  0  0  0
 19  5  1  6  0  0  0
 21  7  2  0  0  0  0
 21 23  1  0  0  0  0
 22  3  1  0  0  0  0
 23  4  2  0  0  0  0
 25 24  1  0  0  0  0
 27 26  1  0  0  0  0
 28 29  1  0  0  0  0
 29 30  1  0  0  0  0
 30 31  1  0  0  0  0
 30 32  2  0  0  0  0
M  END
>  <MODEL>
6

>  <REMARK>
 VINA RESULT:      -4.0      6.014      8.329
  Name = 
  5 active torsions:
  status: ('A' for Active; 'I' for Inactive)
    1  A    between atoms: C_1  and  C_10
    2  A    between atoms: C_2  and  O_24
    3  A    between atoms: C_10  and  O_24
    4  A    between atoms: O_13  and  C_15
    5  A    between atoms: C_25  and  C_26
                            x       y       z     vdW  Elec       q    Type
                         _______ _______ _______ _____ _____    ______ ____

>  <TORSDO>
F 5

$$$$
=
 OpenBabel11052417043D

 32 36  0  0  1  0  0  0  0  0999 V2000
  186.8700  176.6170  137.5810 C   0  0  0  0  0  0  0  0  0  0  0  0
  182.5490  176.1860  138.3600 C   0  0  1  0  0  3  0  0  0  0  0  0
  181.4400  177.7310  139.9900 C   0  0  0  0  0  0  0  0  0  0  0  0
  180.5970  178.9100  140.2650 C   0  0  0  0  0  0  0  0  0  0  0  0
  184.2110  178.1760  138.4170 C   0  0  0  0  0  2  0  0  0  0  0  0
  183.5340  175.1600  136.3900 N   0  0  0  0  0  2  0  0  0  0  0  0
  179.0000  181.1180  140.7360 N   0  0  0  0  0  0  0  0  0  0  0  0
  185.8750  175.7930  136.7860 C   0  0  0  0  0  2  0  0  0  0  0  0
  182.2780  175.3330  137.1120 C   0  0  2  0  0  3  0  0  0  0  0  0
  181.1790  175.8200  136.1570 C   0  0  2  0  0  3  0  0  0  0  0  0
  180.6060  177.7460  137.6410 C   0  0  2  0  0  3  0  0  0  0  0  0
  179.5220  180.4370  141.7930 C   0  0  0  0  0  3  0  0  0  0  0  0
  186.6690  177.8960  137.9560 C   0  0  0  0  0  3  0  0  0  0  0  0
  184.4120  176.2380  136.8250 C   0  0  2  0  0  3  0  0  0  0  0  0
  180.3320  179.3210  141.5760 C   0  0  0  0  0  3  0  0  0  0  0  0
  185.4400  178.7050  137.6690 C   0  0  0  0  0  2  0  0  0  0  0  0
  180.9480  177.3270  136.2090 C   0  0  1  0  0  3  0  0  0  0  0  0
  180.3630  179.2530  137.7740 C   0  0  0  0  0  2  0  0  0  0  0  0
  183.9870  176.6700  138.2140 C   0  0  2  0  0  3  0  0  0  0  0  0
  182.0440  177.1500  140.9330 O   0  0  0  0  0  0  0  0  0  0  0  0
  179.2460  180.7400  139.4520 C   0  0  0  0  0  3  0  0  0  0  0  0
  181.5780  177.2610  138.6360 N   0  0  0  0  0  0  0  0  0  0  0  0
  180.0400  179.6220  139.1900 C   0  0  0  0  0  0  0  0  0  0  0  0
  180.1540  173.8830  135.8490 C   0  0  0  0  0  1  0  0  0  0  0  0
  179.9870  175.1430  136.4260 O   0  0  0  0  0  0  0  0  0  0  0  0
  181.6460  179.1010  134.5950 C   0  0  0  0  0  1  0  0  0  0  0  0
  182.1300  178.0840  135.6100 C   0  0  0  0  0  2  0  0  0  0  0  0
  188.0700  175.9760  137.9090 O   0  0  0  0  0  0  0  0  0  0  0  0
  189.3500  176.4660  137.5230 C   0  0  0  0  0  2  0  0  0  0  0  0
  190.2710  176.4350  138.6930 C   0  0  0  0  0  0  0  0  0  0  0  0
  190.0920  177.4060  139.8090 C   0  0  0  0  0  1  0  0  0  0  0  0
  191.1940  175.6370  138.7230 O   0  0  0  0  0  0  0  0  0  0  0  0
  1 28  1  0  0  0  0
  1 13  2  0  0  0  0
  2 22  1  6  0  0  0
  3  4  1  0  0  0  0
  3 20  2  0  0  0  0
  4 15  1  0  0  0  0
  6 14  1  0  0  0  0
  7 12  1  0  0  0  0
  8  1  1  0  0  0  0
  9  6  1  6  0  0  0
  9  2  1  0  0  0  0
 10 17  1  0  0  0  0
 10 25  1  1  0  0  0
 10  9  1  0  0  0  0
 11 18  1  6  0  0  0
 11 22  1  0  0  0  0
 14  8  1  1  0  0  0
 14 19  1  0  0  0  0
 15 12  2  0  0  0  0
 16 13  1  0  0  0  0
 16  5  1  0  0  0  0
 17 27  1  1  0  0  0
 17 11  1  0  0  0  0
 18 23  1  0  0  0  0
 19  2  1  0  0  0  0
 19  5  1  6  0  0  0
 21  7  2  0  0  0  0
 22  3  1  0  0  0  0
 23 21  1  0  0  0  0
 23  4  2  0  0  0  0
 24 25  1  0  0  0  0
 26 27  1  0  0  0  0
 29 28  1  0  0  0  0
 29 30  1  0  0  0  0
 30 32  2  0  0  0  0
 30 31  1  0  0  0  0
M  END
>  <MODEL>
7

>  <REMARK>
 VINA RESULT:      -3.7      3.355      4.952
  Name = 
  5 active torsions:
  status: ('A' for Active; 'I' for Inactive)
    1  A    between atoms: C_1  and  C_10
    2  A    between atoms: C_2  and  O_24
    3  A    between atoms: C_10  and  O_24
    4  A    between atoms: O_13  and  C_15
    5  A    between atoms: C_25  and  C_26
                            x       y       z     vdW  Elec       q    Type
                         _______ _______ _______ _____ _____    ______ ____

>  <TORSDO>
F 5

$$$$
=
 OpenBabel11052417043D

 32 36  0  0  1  0  0  0  0  0999 V2000
  186.5920  177.6760  136.9200 C   0  0  0  0  0  0  0  0  0  0  0  0
  182.1830  177.5600  136.8360 C   0  0  1  0  0  3  0  0  0  0  0  0
  181.0310  175.6320  135.7270 C   0  0  0  0  0  0  0  0  0  0  0  0
  180.3030  174.3530  135.8170 C   0  0  0  0  0  0  0  0  0  0  0  0
  184.0430  175.7540  136.8490 C   0  0  0  0  0  2  0  0  0  0  0  0
  183.3280  179.0360  138.3910 N   0  0  0  0  0  2  0  0  0  0  0  0
  178.9310  171.9620  136.0320 N   0  0  0  0  0  0  0  0  0  0  0  0
  185.6390  178.5490  137.7150 C   0  0  0  0  0  2  0  0  0  0  0  0
  182.0060  178.6130  137.9400 C   0  0  2  0  0  3  0  0  0  0  0  0
  181.1330  178.2270  139.1430 C   0  0  2  0  0  3  0  0  0  0  0  0
  180.5750  176.0040  138.1480 C   0  0  2  0  0  3  0  0  0  0  0  0
  179.1980  172.4660  134.7970 C   0  0  0  0  0  3  0  0  0  0  0  0
  186.4910  176.3360  136.8190 C   0  0  0  0  0  3  0  0  0  0  0  0
  184.2510  177.9760  138.0100 C   0  0  2  0  0  3  0  0  0  0  0  0
  179.8920  173.6700  134.6670 C   0  0  0  0  0  3  0  0  0  0  0  0
  185.4270  175.4930  137.4550 C   0  0  0  0  0  2  0  0  0  0  0  0
  181.0800  176.7260  139.4010 C   0  0  1  0  0  3  0  0  0  0  0  0
  180.4970  174.4850  138.3320 C   0  0  0  0  0  2  0  0  0  0  0  0
  183.6740  177.2440  136.8160 C   0  0  2  0  0  3  0  0  0  0  0  0
  181.4080  176.0690  134.6050 O   0  0  0  0  0  0  0  0  0  0  0  0
  179.3230  172.6050  137.1650 C   0  0  0  0  0  3  0  0  0  0  0  0
  181.3170  176.3700  136.9300 N   0  0  0  0  0  0  0  0  0  0  0  0
  180.0070  173.8190  137.0820 C   0  0  0  0  0  0  0  0  0  0  0  0
  179.5070  179.2930  140.2010 C   0  0  0  0  0  1  0  0  0  0  0  0
  179.8410  178.7300  138.9680 O   0  0  0  0  0  0  0  0  0  0  0  0
  182.9530  177.1110  141.0070 C   0  0  0  0  0  1  0  0  0  0  0  0
  182.4210  176.2080  139.9120 C   0  0  0  0  0  2  0  0  0  0  0  0
  187.6420  178.3450  136.2790 O   0  0  0  0  0  0  0  0  0  0  0  0
  189.0140  178.0290  136.4900 C   0  0  0  0  0  2  0  0  0  0  0  0
  189.4600  178.5850  137.7980 C   0  0  0  0  0  0  0  0  0  0  0  0
  189.9340  177.6710  138.8750 C   0  0  0  0  0  1  0  0  0  0  0  0
  189.4030  179.7870  138.0020 O   0  0  0  0  0  0  0  0  0  0  0  0
  1  8  1  0  0  0  0
  2 22  1  1  0  0  0
  2  9  1  0  0  0  0
  3  4  1  0  0  0  0
  3 22  1  0  0  0  0
  4 23  1  0  0  0  0
  5 16  1  0  0  0  0
  7 21  1  0  0  0  0
  9  6  1  1  0  0  0
  9 10  1  0  0  0  0
 10 25  1  6  0  0  0
 10 17  1  0  0  0  0
 11 18  1  1  0  0  0
 11 17  1  0  0  0  0
 12  7  2  0  0  0  0
 13  1  2  0  0  0  0
 13 16  1  0  0  0  0
 14  8  1  6  0  0  0
 14  6  1  0  0  0  0
 15 12  1  0  0  0  0
 15  4  2  0  0  0  0
 17 27  1  6  0  0  0
 19  2  1  0  0  0  0
 19  5  1  1  0  0  0
 19 14  1  0  0  0  0
 20  3  2  0  0  0  0
 22 11  1  0  0  0  0
 23 21  2  0  0  0  0
 23 18  1  0  0  0  0
 25 24  1  0  0  0  0
 27 26  1  0  0  0  0
 28 29  1  0  0  0  0
 28  1  1  0  0  0  0
 29 30  1  0  0  0  0
 30 32  2  0  0  0  0
 30 31  1  0  0  0  0
M  END
>  <MODEL>
8

>  <REMARK>
 VINA RESULT:      -3.4      3.571      6.646
  Name = 
  5 active torsions:
  status: ('A' for Active; 'I' for Inactive)
    1  A    between atoms: C_1  and  C_10
    2  A    between atoms: C_2  and  O_24
    3  A    between atoms: C_10  and  O_24
    4  A    between atoms: O_13  and  C_15
    5  A    between atoms: C_25  and  C_26
                            x       y       z     vdW  Elec       q    Type
                         _______ _______ _______ _____ _____    ______ ____

>  <TORSDO>
F 5

$$$$
=
 OpenBabel11052417043D

 32 36  0  0  1  0  0  0  0  0999 V2000
  189.5630  177.5720  140.3850 C   0  0  0  0  0  0  0  0  0  0  0  0
  187.1080  175.2880  137.5190 C   0  0  1  0  0  3  0  0  0  0  0  0
  184.6800  175.8500  137.2680 C   0  0  0  0  0  0  0  0  0  0  0  0
  183.5880  176.4980  136.5180 C   0  0  0  0  0  0  0  0  0  0  0  0
  187.0260  177.7060  138.4500 C   0  0  0  0  0  2  0  0  0  0  0  0
  189.5320  175.2140  137.3670 N   0  0  0  0  0  2  0  0  0  0  0  0
  181.5680  177.7160  135.0750 N   0  0  0  0  0  0  0  0  0  0  0  0
  190.0580  176.6220  139.3110 C   0  0  0  0  0  2  0  0  0  0  0  0
  188.3080  174.7040  136.7590 C   0  0  2  0  0  3  0  0  0  0  0  0
  188.3430  174.9130  135.2380 C   0  0  2  0  0  3  0  0  0  0  0  0
  186.1230  176.0610  135.2470 C   0  0  2  0  0  3  0  0  0  0  0  0
  181.2630  177.0810  136.2390 C   0  0  0  0  0  3  0  0  0  0  0  0
  188.6510  178.5440  140.1790 C   0  0  0  0  0  3  0  0  0  0  0  0
  189.1610  176.4250  138.0870 C   0  0  2  0  0  3  0  0  0  0  0  0
  182.2690  176.4620  136.9830 C   0  0  0  0  0  3  0  0  0  0  0  0
  187.9700  178.8370  138.8760 C   0  0  0  0  0  2  0  0  0  0  0  0
  187.5770  176.1480  134.7740 C   0  0  1  0  0  3  0  0  0  0  0  0
  185.2890  177.2720  134.8200 C   0  0  0  0  0  2  0  0  0  0  0  0
  187.6970  176.3250  138.4680 C   0  0  2  0  0  3  0  0  0  0  0  0
  184.4610  175.3610  138.4100 O   0  0  0  0  0  0  0  0  0  0  0  0
  182.8440  177.7690  134.6030 C   0  0  0  0  0  3  0  0  0  0  0  0
  185.9970  175.7930  136.6900 N   0  0  0  0  0  0  0  0  0  0  0  0
  183.8780  177.1510  135.3090 C   0  0  0  0  0  0  0  0  0  0  0  0
  188.0660  172.7320  135.4980 C   0  0  0  0  0  1  0  0  0  0  0  0
  187.8520  173.7740  134.5940 O   0  0  0  0  0  0  0  0  0  0  0  0
  189.6760  177.4900  134.5940 C   0  0  0  0  0  1  0  0  0  0  0  0
  188.2900  177.4280  135.2020 C   0  0  0  0  0  2  0  0  0  0  0  0
  190.1300  177.4080  141.6540 O   0  0  0  0  0  0  0  0  0  0  0  0
  189.7230  178.1560  142.7960 C   0  0  0  0  0  2  0  0  0  0  0  0
  190.3170  177.5570  144.0230 C   0  0  0  0  0  0  0  0  0  0  0  0
  191.0450  176.2590  143.9420 C   0  0  0  0  0  1  0  0  0  0  0  0
  190.1790  178.1100  145.1020 O   0  0  0  0  0  0  0  0  0  0  0  0
  1 28  1  0  0  0  0
  2 22  1  6  0  0  0
  2 19  1  0  0  0  0
  3 20  2  0  0  0  0
  4 15  1  0  0  0  0
  4  3  1  0  0  0  0
  5 16  1  0  0  0  0
  6 14  1  0  0  0  0
  7 12  1  0  0  0  0
  8  1  1  0  0  0  0
  9  6  1  1  0  0  0
  9  2  1  0  0  0  0
 10 25  1  6  0  0  0
 10  9  1  0  0  0  0
 11 18  1  1  0  0  0
 11 22  1  0  0  0  0
 12 15  2  0  0  0  0
 13  1  2  0  0  0  0
 14 19  1  0  0  0  0
 14  8  1  1  0  0  0
 16 13  1  0  0  0  0
 17 27  1  1  0  0  0
 17 10  1  0  0  0  0
 17 11  1  0  0  0  0
 18 23  1  0  0  0  0
 19  5  1  6  0  0  0
 21  7  2  0  0  0  0
 21 23  1  0  0  0  0
 22  3  1  0  0  0  0
 23  4  2  0  0  0  0
 25 24  1  0  0  0  0
 26 27  1  0  0  0  0
 28 29  1  0  0  0  0
 29 30  1  0  0  0  0
 30 32  2  0  0  0  0
 31 30  1  0  0  0  0
M  END
>  <MODEL>
9

>  <REMARK>
 VINA RESULT:      -3.3      5.060      6.896
  Name = 
  5 active torsions:
  status: ('A' for Active; 'I' for Inactive)
    1  A    between atoms: C_1  and  C_10
    2  A    between atoms: C_2  and  O_24
    3  A    between atoms: C_10  and  O_24
    4  A    between atoms: O_13  and  C_15
    5  A    between atoms: C_25  and  C_26
                            x       y       z     vdW  Elec       q    Type
                         _______ _______ _______ _____ _____    ______ ____

>  <TORSDO>
F 5

$$$$
