=
 OpenBabel11052415333D

 37 37  0  0  1  0  0  0  0  0999 V2000
  190.2620  177.4620  141.6390 C   0  0  2  0  0  3  0  0  0  0  0  0
  190.7290  176.3150  139.4260 N   0  0  0  0  0  2  0  0  0  0  0  0
  192.6420  176.4600  138.0800 O   0  0  0  0  0  0  0  0  0  0  0  0
  191.1840  177.1460  140.5010 C   0  0  0  0  0  0  0  0  0  0  0  0
  191.4850  175.9890  138.2550 C   0  0  0  0  0  0  0  0  0  0  0  0
  192.3430  177.6400  140.4930 O   0  0  0  0  0  0  0  0  0  0  0  0
  190.8740  175.0920  137.2280 C   0  0  2  0  0  3  0  0  0  0  0  0
  191.7950  173.9230  136.9330 C   0  0  0  0  0  1  0  0  0  0  0  0
  189.6220  176.8380  136.1830 O   0  0  0  0  0  1  0  0  0  0  0  0
  190.5790  175.8510  135.9450 C   0  0  0  0  0  2  0  0  0  0  0  0
  190.5310  176.6430  142.7490 O   0  0  0  0  0  0  0  0  0  0  0  0
  190.4220  177.4470  143.8990 C   0  0  0  0  0  0  0  0  0  0  0  0
  190.9670  178.8600  143.8080 C   0  0  0  0  0  2  0  0  0  0  0  0
  191.7810  177.7680  144.4820 C   0  0  0  0  0  2  0  0  0  0  0  0
  189.3760  177.1210  144.9680 C   0  0  1  0  0  3  0  0  0  0  0  0
  190.0030  177.1580  146.3570 C   0  0  0  0  0  2  0  0  0  0  0  0
  188.9620  176.9150  147.4400 C   0  0  0  0  0  2  0  0  0  0  0  0
  188.9250  178.0790  148.4120 C   0  0  0  0  0  1  0  0  0  0  0  0
  188.1920  178.0800  144.8970 C   0  0  0  0  0  2  0  0  0  0  0  0
  187.0880  176.3600  143.7200 O   0  0  0  0  0  0  0  0  0  0  0  0
  186.9770  177.3870  144.3710 C   0  0  0  0  0  0  0  0  0  0  0  0
  185.6250  177.9820  144.5970 C   0  0  0  0  0  2  0  0  0  0  0  0
  185.6210  178.8670  145.8030 C   0  0  0  0  0  3  0  0  0  0  0  0
  184.9980  178.4960  146.9190 C   0  0  0  0  0  2  0  0  0  0  0  0
  188.7900  177.3580  141.2270 C   0  0  0  0  0  2  0  0  0  0  0  0
  188.1440  178.7150  140.9720 C   0  0  0  0  0  2  0  0  0  0  0  0
  186.2370  178.4430  139.3470 C   0  0  0  0  0  0  0  0  0  0  0  0
  186.7300  178.5520  140.6830 N   0  0  0  0  0  2  0  0  0  0  0  0
  187.0270  178.4980  138.3670 O   0  0  0  0  0  0  0  0  0  0  0  0
  184.7750  178.2720  139.0990 C   0  0  0  0  0  2  0  0  0  0  0  0
  182.9670  179.5680  140.3430 N   0  0  0  0  0  2  0  0  0  0  0  0
  184.0300  179.5380  139.3860 C   0  0  0  0  0  0  0  0  0  0  0  0
  184.3430  180.5950  138.7800 O   0  0  0  0  0  0  0  0  0  0  0  0
  182.5520  178.4010  141.1120 C   0  0  2  0  0  3  0  0  0  0  0  0
  181.0630  178.1720  140.9410 C   0  0  0  0  0  1  0  0  0  0  0  0
  181.5870  179.0120  143.3250 C   0  0  0  0  0  1  0  0  0  0  0  0
  182.8510  178.6200  142.5840 C   0  0  0  0  0  2  0  0  0  0  0  0
  1 25  1  6  0  0  0
  1 11  1  0  0  0  0
  2  4  1  0  0  0  0
  3  5  2  0  0  0  0
  4  1  1  0  0  0  0
  5  2  1  0  0  0  0
  6  4  2  0  0  0  0
  7  8  1  6  0  0  0
  7  5  1  0  0  0  0
 10  9  1  0  0  0  0
 10  7  1  0  0  0  0
 11 12  1  0  0  0  0
 12 14  1  0  0  0  0
 12 15  1  0  0  0  0
 13 12  1  0  0  0  0
 13 14  1  0  0  0  0
 15 19  1  1  0  0  0
 15 16  1  0  0  0  0
 16 17  1  0  0  0  0
 17 18  1  0  0  0  0
 20 21  2  0  0  0  0
 21 22  1  0  0  0  0
 21 19  1  0  0  0  0
 22 23  1  0  0  0  0
 23 24  2  0  0  0  0
 26 25  1  0  0  0  0
 27 28  1  0  0  0  0
 28 26  1  0  0  0  0
 29 27  2  0  0  0  0
 30 27  1  0  0  0  0
 30 32  1  0  0  0  0
 31 34  1  0  0  0  0
 32 31  1  0  0  0  0
 33 32  2  0  0  0  0
 34 35  1  1  0  0  0
 34 37  1  0  0  0  0
 37 36  1  0  0  0  0
M  END
>  <MODEL>
1

>  <REMARK>
 VINA RESULT:      -7.0      0.000      0.000
  Name = 
  19 active torsions:
  status: ('A' for Active; 'I' for Inactive)
    1  A    between atoms: N_1  and  C_5
    2  A    between atoms: C_2  and  C_19
    3  A    between atoms: C_2  and  C_35
    4  A    between atoms: C_3  and  C_32
    5  A    between atoms: C_4  and  O_10
    6  A    between atoms: C_4  and  C_13
    7  A    between atoms: C_5  and  C_23
    8  A    between atoms: C_7  and  C_14
    9  A    between atoms: C_7  and  C_27
   10  A    between atoms: C_9  and  C_13
   11  A    between atoms: C_9  and  C_16
   12  A    between atoms: O_10  and  C_14
   13  A    between atoms: C_11  and  C_36
   14  A    between atoms: C_13  and  C_20
   15  A    between atoms: C_14  and  C_31
   16  A    between atoms: C_20  and  C_25
   17  A    between atoms: C_25  and  C_32
   18  A    between atoms: C_26  and  C_36
   19  A    between atoms: C_27  and  N_33
                            x       y       z     vdW  Elec       q    Type
                         _______ _______ _______ _____ _____    ______ ____

>  <TORSDO>
F 19

$$$$
=
 OpenBabel11052415333D

 37 37  0  0  1  0  0  0  0  0999 V2000
  190.0210  177.4700  141.8470 C   0  0  2  0  0  3  0  0  0  0  0  0
  190.1590  176.6630  139.4470 N   0  0  0  0  0  2  0  0  0  0  0  0
  191.9450  176.8560  137.9410 O   0  0  0  0  0  0  0  0  0  0  0  0
  190.7960  177.2640  140.5820 C   0  0  0  0  0  0  0  0  0  0  0  0
  190.7660  176.4670  138.1660 C   0  0  0  0  0  0  0  0  0  0  0  0
  191.9940  177.6490  140.5250 O   0  0  0  0  0  0  0  0  0  0  0  0
  189.9720  175.8070  137.0850 C   0  0  2  0  0  3  0  0  0  0  0  0
  190.6780  174.5540  136.6020 C   0  0  0  0  0  1  0  0  0  0  0  0
  189.2750  177.9810  136.3820 O   0  0  0  0  0  1  0  0  0  0  0  0
  189.7460  176.7520  135.9180 C   0  0  0  0  0  2  0  0  0  0  0  0
  190.5280  176.6710  142.8860 O   0  0  0  0  0  0  0  0  0  0  0  0
  190.6020  177.4770  144.0370 C   0  0  0  0  0  0  0  0  0  0  0  0
  190.4560  178.9750  143.8430 C   0  0  0  0  0  2  0  0  0  0  0  0
  191.8330  178.3570  144.0210 C   0  0  0  0  0  2  0  0  0  0  0  0
  190.3170  176.8750  145.4160 C   0  0  1  0  0  3  0  0  0  0  0  0
  191.6010  176.3460  146.0440 C   0  0  0  0  0  2  0  0  0  0  0  0
  191.5940  176.5270  147.5540 C   0  0  0  0  0  2  0  0  0  0  0  0
  192.7290  175.7460  148.1890 C   0  0  0  0  0  1  0  0  0  0  0  0
  189.6560  177.8930  146.3410 C   0  0  0  0  0  2  0  0  0  0  0  0
  187.8030  177.3270  147.6850 O   0  0  0  0  0  0  0  0  0  0  0  0
  188.2170  177.5560  146.5600 C   0  0  0  0  0  0  0  0  0  0  0  0
  187.2930  177.4460  145.3910 C   0  0  0  0  0  2  0  0  0  0  0  0
  185.9050  177.8640  145.7600 C   0  0  0  0  0  3  0  0  0  0  0  0
  185.5360  179.1410  145.6910 C   0  0  0  0  0  2  0  0  0  0  0  0
  188.5230  177.2210  141.6470 C   0  0  0  0  0  2  0  0  0  0  0  0
  187.7270  178.5020  141.4290 C   0  0  0  0  0  2  0  0  0  0  0  0
  185.2570  178.9890  141.5440 C   0  0  0  0  0  0  0  0  0  0  0  0
  186.4410  178.4160  142.0990 N   0  0  0  0  0  2  0  0  0  0  0  0
  185.2980  179.6040  140.4450 O   0  0  0  0  0  0  0  0  0  0  0  0
  183.9570  178.8700  142.2670 C   0  0  0  0  0  2  0  0  0  0  0  0
  181.5330  178.4490  141.6020 N   0  0  0  0  0  2  0  0  0  0  0  0
  182.9280  178.1930  141.4170 C   0  0  0  0  0  0  0  0  0  0  0  0
  183.2940  177.3870  140.5230 O   0  0  0  0  0  0  0  0  0  0  0  0
  181.0180  179.3850  142.5940 C   0  0  2  0  0  3  0  0  0  0  0  0
  180.6010  178.6350  143.8440 C   0  0  0  0  0  1  0  0  0  0  0  0
  180.0720  180.5420  140.6010 C   0  0  0  0  0  1  0  0  0  0  0  0
  179.8120  180.1170  142.0340 C   0  0  0  0  0  2  0  0  0  0  0  0
  1 25  1  6  0  0  0
  1 11  1  0  0  0  0
  2  4  1  0  0  0  0
  3  5  2  0  0  0  0
  4  1  1  0  0  0  0
  5  2  1  0  0  0  0
  6  4  2  0  0  0  0
  7  8  1  6  0  0  0
  7  5  1  0  0  0  0
 10  9  1  0  0  0  0
 10  7  1  0  0  0  0
 11 12  1  0  0  0  0
 12 15  1  0  0  0  0
 13 14  1  0  0  0  0
 13 12  1  0  0  0  0
 14 12  1  0  0  0  0
 15 16  1  1  0  0  0
 15 19  1  0  0  0  0
 16 17  1  0  0  0  0
 17 18  1  0  0  0  0
 19 21  1  0  0  0  0
 21 20  2  0  0  0  0
 22 23  1  0  0  0  0
 22 21  1  0  0  0  0
 24 23  2  0  0  0  0
 26 25  1  0  0  0  0
 26 28  1  0  0  0  0
 27 28  1  0  0  0  0
 27 30  1  0  0  0  0
 29 27  2  0  0  0  0
 31 34  1  0  0  0  0
 32 31  1  0  0  0  0
 32 30  1  0  0  0  0
 33 32  2  0  0  0  0
 34 35  1  1  0  0  0
 36 37  1  0  0  0  0
 37 34  1  0  0  0  0
M  END
>  <MODEL>
2

>  <REMARK>
 VINA RESULT:      -6.9      1.655      2.135
  Name = 
  19 active torsions:
  status: ('A' for Active; 'I' for Inactive)
    1  A    between atoms: N_1  and  C_5
    2  A    between atoms: C_2  and  C_19
    3  A    between atoms: C_2  and  C_35
    4  A    between atoms: C_3  and  C_32
    5  A    between atoms: C_4  and  O_10
    6  A    between atoms: C_4  and  C_13
    7  A    between atoms: C_5  and  C_23
    8  A    between atoms: C_7  and  C_14
    9  A    between atoms: C_7  and  C_27
   10  A    between atoms: C_9  and  C_13
   11  A    between atoms: C_9  and  C_16
   12  A    between atoms: O_10  and  C_14
   13  A    between atoms: C_11  and  C_36
   14  A    between atoms: C_13  and  C_20
   15  A    between atoms: C_14  and  C_31
   16  A    between atoms: C_20  and  C_25
   17  A    between atoms: C_25  and  C_32
   18  A    between atoms: C_26  and  C_36
   19  A    between atoms: C_27  and  N_33
                            x       y       z     vdW  Elec       q    Type
                         _______ _______ _______ _____ _____    ______ ____

>  <TORSDO>
F 19

$$$$
=
 OpenBabel11052415333D

 37 37  0  0  1  0  0  0  0  0999 V2000
  190.1750  177.4630  141.7540 C   0  0  2  0  0  3  0  0  0  0  0  0
  190.7160  176.3660  139.5320 N   0  0  0  0  0  2  0  0  0  0  0  0
  192.6830  176.5180  138.2680 O   0  0  0  0  0  0  0  0  0  0  0  0
  191.1380  177.1630  140.6460 C   0  0  0  0  0  0  0  0  0  0  0  0
  191.5140  176.0590  138.3850 C   0  0  0  0  0  0  0  0  0  0  0  0
  192.3030  177.6410  140.6970 O   0  0  0  0  0  0  0  0  0  0  0  0
  190.9330  175.1970  137.3110 C   0  0  2  0  0  3  0  0  0  0  0  0
  191.8380  174.0100  137.0400 C   0  0  0  0  0  1  0  0  0  0  0  0
  189.7490  176.9670  136.2270 O   0  0  0  0  0  1  0  0  0  0  0  0
  190.7230  175.9860  136.0300 C   0  0  0  0  0  2  0  0  0  0  0  0
  190.4400  176.6680  142.8820 O   0  0  0  0  0  0  0  0  0  0  0  0
  190.3160  177.4930  144.0150 C   0  0  0  0  0  0  0  0  0  0  0  0
  190.8330  178.9150  143.8940 C   0  0  0  0  0  2  0  0  0  0  0  0
  191.6690  177.8530  144.5890 C   0  0  0  0  0  2  0  0  0  0  0  0
  189.2780  177.1690  145.0930 C   0  0  1  0  0  3  0  0  0  0  0  0
  189.9380  177.0920  146.4640 C   0  0  0  0  0  2  0  0  0  0  0  0
  188.9020  176.9680  147.5710 C   0  0  0  0  0  2  0  0  0  0  0  0
  188.9260  178.1950  148.4620 C   0  0  0  0  0  1  0  0  0  0  0  0
  188.1510  178.1970  145.1050 C   0  0  0  0  0  2  0  0  0  0  0  0
  186.6330  176.8570  143.8950 O   0  0  0  0  0  0  0  0  0  0  0  0
  186.8280  177.5370  144.8900 C   0  0  0  0  0  0  0  0  0  0  0  0
  185.7210  177.7550  145.8700 C   0  0  0  0  0  2  0  0  0  0  0  0
  184.9470  178.9930  145.5420 C   0  0  0  0  0  3  0  0  0  0  0  0
  183.7100  178.9160  145.0570 C   0  0  0  0  0  2  0  0  0  0  0  0
  188.7190  177.3050  141.3030 C   0  0  0  0  0  2  0  0  0  0  0  0
  187.9840  178.6350  141.1820 C   0  0  0  0  0  2  0  0  0  0  0  0
  185.5020  179.0660  141.2550 C   0  0  0  0  0  0  0  0  0  0  0  0
  186.6390  178.4220  140.6780 N   0  0  0  0  0  2  0  0  0  0  0  0
  185.6370  179.8390  142.2410 O   0  0  0  0  0  0  0  0  0  0  0  0
  184.1390  178.8200  140.6990 C   0  0  0  0  0  2  0  0  0  0  0  0
  183.7280  178.3830  138.2220 N   0  0  0  0  0  2  0  0  0  0  0  0
  184.0440  179.2900  139.2810 C   0  0  0  0  0  0  0  0  0  0  0  0
  184.2400  180.5040  139.0150 O   0  0  0  0  0  0  0  0  0  0  0  0
  183.4590  176.9660  138.4380 C   0  0  2  0  0  3  0  0  0  0  0  0
  184.0390  176.1500  137.3000 C   0  0  0  0  0  1  0  0  0  0  0  0
  181.4320  176.3440  137.1310 C   0  0  0  0  0  1  0  0  0  0  0  0
  181.9610  176.7290  138.4990 C   0  0  0  0  0  2  0  0  0  0  0  0
  1 25  1  6  0  0  0
  1 11  1  0  0  0  0
  2  4  1  0  0  0  0
  3  5  2  0  0  0  0
  4  6  2  0  0  0  0
  4  1  1  0  0  0  0
  5  2  1  0  0  0  0
  7  8  1  6  0  0  0
  7  5  1  0  0  0  0
 10  9  1  0  0  0  0
 10  7  1  0  0  0  0
 11 12  1  0  0  0  0
 12 14  1  0  0  0  0
 12 15  1  0  0  0  0
 13 12  1  0  0  0  0
 13 14  1  0  0  0  0
 15 19  1  1  0  0  0
 15 16  1  0  0  0  0
 16 17  1  0  0  0  0
 17 18  1  0  0  0  0
 20 21  2  0  0  0  0
 21 19  1  0  0  0  0
 21 22  1  0  0  0  0
 23 22  1  0  0  0  0
 24 23  2  0  0  0  0
 26 25  1  0  0  0  0
 27 29  2  0  0  0  0
 28 26  1  0  0  0  0
 28 27  1  0  0  0  0
 30 27  1  0  0  0  0
 31 34  1  0  0  0  0
 31 32  1  0  0  0  0
 32 30  1  0  0  0  0
 33 32  2  0  0  0  0
 34 35  1  6  0  0  0
 34 37  1  0  0  0  0
 36 37  1  0  0  0  0
M  END
>  <MODEL>
3

>  <REMARK>
 VINA RESULT:      -6.9      1.416      1.979
  Name = 
  19 active torsions:
  status: ('A' for Active; 'I' for Inactive)
    1  A    between atoms: N_1  and  C_5
    2  A    between atoms: C_2  and  C_19
    3  A    between atoms: C_2  and  C_35
    4  A    between atoms: C_3  and  C_32
    5  A    between atoms: C_4  and  O_10
    6  A    between atoms: C_4  and  C_13
    7  A    between atoms: C_5  and  C_23
    8  A    between atoms: C_7  and  C_14
    9  A    between atoms: C_7  and  C_27
   10  A    between atoms: C_9  and  C_13
   11  A    between atoms: C_9  and  C_16
   12  A    between atoms: O_10  and  C_14
   13  A    between atoms: C_11  and  C_36
   14  A    between atoms: C_13  and  C_20
   15  A    between atoms: C_14  and  C_31
   16  A    between atoms: C_20  and  C_25
   17  A    between atoms: C_25  and  C_32
   18  A    between atoms: C_26  and  C_36
   19  A    between atoms: C_27  and  N_33
                            x       y       z     vdW  Elec       q    Type
                         _______ _______ _______ _____ _____    ______ ____

>  <TORSDO>
F 19

$$$$
=
 OpenBabel11052415333D

 37 37  0  0  1  0  0  0  0  0999 V2000
  190.0740  177.5570  141.7780 C   0  0  2  0  0  3  0  0  0  0  0  0
  190.2890  176.5920  139.4430 N   0  0  0  0  0  2  0  0  0  0  0  0
  192.1230  176.6840  137.9870 O   0  0  0  0  0  0  0  0  0  0  0  0
  190.8890  177.2670  140.5550 C   0  0  0  0  0  0  0  0  0  0  0  0
  190.9360  176.3110  138.1980 C   0  0  0  0  0  0  0  0  0  0  0  0
  192.0900  177.6470  140.5120 O   0  0  0  0  0  0  0  0  0  0  0  0
  190.1770  175.5810  137.1380 C   0  0  2  0  0  3  0  0  0  0  0  0
  190.5290  174.1050  137.1570 C   0  0  0  0  0  1  0  0  0  0  0  0
  191.3320  175.3210  135.0630 O   0  0  0  0  0  1  0  0  0  0  0  0
  190.4630  176.1590  135.7630 C   0  0  0  0  0  2  0  0  0  0  0  0
  190.4420  176.7170  142.8420 O   0  0  0  0  0  0  0  0  0  0  0  0
  190.6060  177.5280  143.9800 C   0  0  0  0  0  0  0  0  0  0  0  0
  190.5120  179.0290  143.7780 C   0  0  0  0  0  2  0  0  0  0  0  0
  191.8690  178.3560  143.8940 C   0  0  0  0  0  2  0  0  0  0  0  0
  190.3660  176.9490  145.3770 C   0  0  1  0  0  3  0  0  0  0  0  0
  191.6890  176.5700  146.0320 C   0  0  0  0  0  2  0  0  0  0  0  0
  191.4650  175.7750  147.3100 C   0  0  0  0  0  2  0  0  0  0  0  0
  192.7070  175.8080  148.1810 C   0  0  0  0  0  1  0  0  0  0  0  0
  189.6000  177.9290  146.2600 C   0  0  0  0  0  2  0  0  0  0  0  0
  188.0040  176.8820  147.6460 O   0  0  0  0  0  0  0  0  0  0  0  0
  188.2330  177.4090  146.5700 C   0  0  0  0  0  0  0  0  0  0  0  0
  187.1570  177.4870  145.5360 C   0  0  0  0  0  2  0  0  0  0  0  0
  186.2630  178.6620  145.7760 C   0  0  0  0  0  3  0  0  0  0  0  0
  184.9390  178.5220  145.7850 C   0  0  0  0  0  2  0  0  0  0  0  0
  188.5700  177.4590  141.4980 C   0  0  0  0  0  2  0  0  0  0  0  0
  187.9520  178.7880  141.0810 C   0  0  0  0  0  2  0  0  0  0  0  0
  185.4500  179.0660  141.1980 C   0  0  0  0  0  0  0  0  0  0  0  0
  186.6200  178.5760  140.5420 N   0  0  0  0  0  2  0  0  0  0  0  0
  185.5420  179.6940  142.2860 O   0  0  0  0  0  0  0  0  0  0  0  0
  184.1030  178.8270  140.6030 C   0  0  0  0  0  2  0  0  0  0  0  0
  183.8890  178.3790  138.1030 N   0  0  0  0  0  2  0  0  0  0  0  0
  184.0500  179.3010  139.1840 C   0  0  0  0  0  0  0  0  0  0  0  0
  184.1440  180.5310  138.9370 O   0  0  0  0  0  0  0  0  0  0  0  0
  183.7460  176.9410  138.2950 C   0  0  2  0  0  3  0  0  0  0  0  0
  184.4860  176.1960  137.2010 C   0  0  0  0  0  1  0  0  0  0  0  0
  181.8330  175.9950  139.5800 C   0  0  0  0  0  1  0  0  0  0  0  0
  182.2780  176.5580  138.2440 C   0  0  0  0  0  2  0  0  0  0  0  0
  1 25  1  6  0  0  0
  1 11  1  0  0  0  0
  2  4  1  0  0  0  0
  3  5  2  0  0  0  0
  4  1  1  0  0  0  0
  5  2  1  0  0  0  0
  6  4  2  0  0  0  0
  7  8  1  6  0  0  0
  7  5  1  0  0  0  0
  9 10  1  0  0  0  0
 10  7  1  0  0  0  0
 11 12  1  0  0  0  0
 12 15  1  0  0  0  0
 13 14  1  0  0  0  0
 13 12  1  0  0  0  0
 14 12  1  0  0  0  0
 15 16  1  1  0  0  0
 15 19  1  0  0  0  0
 16 17  1  0  0  0  0
 17 18  1  0  0  0  0
 19 21  1  0  0  0  0
 21 20  2  0  0  0  0
 22 23  1  0  0  0  0
 22 21  1  0  0  0  0
 23 24  2  0  0  0  0
 26 25  1  0  0  0  0
 27 29  2  0  0  0  0
 28 26  1  0  0  0  0
 28 27  1  0  0  0  0
 30 27  1  0  0  0  0
 31 34  1  0  0  0  0
 31 32  1  0  0  0  0
 32 30  1  0  0  0  0
 33 32  2  0  0  0  0
 34 35  1  6  0  0  0
 37 34  1  0  0  0  0
 37 36  1  0  0  0  0
M  END
>  <MODEL>
4

>  <REMARK>
 VINA RESULT:      -6.8      1.732      2.306
  Name = 
  19 active torsions:
  status: ('A' for Active; 'I' for Inactive)
    1  A    between atoms: N_1  and  C_5
    2  A    between atoms: C_2  and  C_19
    3  A    between atoms: C_2  and  C_35
    4  A    between atoms: C_3  and  C_32
    5  A    between atoms: C_4  and  O_10
    6  A    between atoms: C_4  and  C_13
    7  A    between atoms: C_5  and  C_23
    8  A    between atoms: C_7  and  C_14
    9  A    between atoms: C_7  and  C_27
   10  A    between atoms: C_9  and  C_13
   11  A    between atoms: C_9  and  C_16
   12  A    between atoms: O_10  and  C_14
   13  A    between atoms: C_11  and  C_36
   14  A    between atoms: C_13  and  C_20
   15  A    between atoms: C_14  and  C_31
   16  A    between atoms: C_20  and  C_25
   17  A    between atoms: C_25  and  C_32
   18  A    between atoms: C_26  and  C_36
   19  A    between atoms: C_27  and  N_33
                            x       y       z     vdW  Elec       q    Type
                         _______ _______ _______ _____ _____    ______ ____

>  <TORSDO>
F 19

$$$$
=
 OpenBabel11052415333D

 37 37  0  0  1  0  0  0  0  0999 V2000
  189.2320  177.6660  141.8870 C   0  0  2  0  0  3  0  0  0  0  0  0
  188.0170  177.9190  139.6750 N   0  0  0  0  0  2  0  0  0  0  0  0
  185.8600  178.7440  139.2790 O   0  0  0  0  0  0  0  0  0  0  0  0
  188.0460  178.1240  141.0930 C   0  0  0  0  0  0  0  0  0  0  0  0
  186.9240  178.2520  138.8130 C   0  0  0  0  0  0  0  0  0  0  0  0
  187.0760  178.6610  141.6910 O   0  0  0  0  0  0  0  0  0  0  0  0
  187.0540  177.9910  137.3480 C   0  0  2  0  0  3  0  0  0  0  0  0
  185.8810  177.1670  136.8520 C   0  0  0  0  0  1  0  0  0  0  0  0
  189.2970  178.1790  136.5440 O   0  0  0  0  0  1  0  0  0  0  0  0
  188.3560  177.2720  137.0340 C   0  0  0  0  0  2  0  0  0  0  0  0
  189.9920  178.7580  142.3360 O   0  0  0  0  0  0  0  0  0  0  0  0
  190.3720  178.4880  143.6630 C   0  0  0  0  0  0  0  0  0  0  0  0
  191.1460  179.5690  144.3940 C   0  0  0  0  0  2  0  0  0  0  0  0
  191.8750  178.3760  143.7980 C   0  0  0  0  0  2  0  0  0  0  0  0
  189.6200  177.4310  144.4770 C   0  0  1  0  0  3  0  0  0  0  0  0
  190.6010  176.5090  145.1920 C   0  0  0  0  0  2  0  0  0  0  0  0
  190.5540  176.7120  146.6990 C   0  0  0  0  0  2  0  0  0  0  0  0
  191.8150  176.1730  147.3480 C   0  0  0  0  0  1  0  0  0  0  0  0
  188.6730  178.0770  145.4840 C   0  0  0  0  0  2  0  0  0  0  0  0
  187.0030  176.8400  144.3690 O   0  0  0  0  0  0  0  0  0  0  0  0
  187.2850  177.5480  145.3220 C   0  0  0  0  0  0  0  0  0  0  0  0
  186.2240  177.9340  146.3020 C   0  0  0  0  0  2  0  0  0  0  0  0
  185.4000  179.0700  145.7850 C   0  0  0  0  0  3  0  0  0  0  0  0
  184.2460  178.8480  145.1600 C   0  0  0  0  0  2  0  0  0  0  0  0
  190.1010  176.6810  141.0980 C   0  0  0  0  0  2  0  0  0  0  0  0
  191.1900  177.3670  140.2800 C   0  0  0  0  0  2  0  0  0  0  0  0
  192.6350  176.5160  138.4000 C   0  0  0  0  0  0  0  0  0  0  0  0
  191.3520  176.7010  139.0000 N   0  0  0  0  0  2  0  0  0  0  0  0
  193.6750  176.9430  138.9680 O   0  0  0  0  0  0  0  0  0  0  0  0
  192.7520  175.8210  137.0840 C   0  0  0  0  0  2  0  0  0  0  0  0
  193.6950  173.4600  137.2560 N   0  0  0  0  0  2  0  0  0  0  0  0
  192.5700  174.3430  137.2390 C   0  0  0  0  0  0  0  0  0  0  0  0
  191.4110  173.8690  137.3590 O   0  0  0  0  0  0  0  0  0  0  0  0
  195.0740  173.9200  137.1500 C   0  0  2  0  0  3  0  0  0  0  0  0
  195.6750  173.4520  135.8380 C   0  0  0  0  0  1  0  0  0  0  0  0
  196.0720  174.4020  139.3800 C   0  0  0  0  0  1  0  0  0  0  0  0
  195.8950  173.3570  138.2950 C   0  0  0  0  0  2  0  0  0  0  0  0
  1 25  1  6  0  0  0
  1 11  1  0  0  0  0
  2  4  1  0  0  0  0
  4  6  2  0  0  0  0
  4  1  1  0  0  0  0
  5  3  2  0  0  0  0
  5  2  1  0  0  0  0
  7  8  1  1  0  0  0
  7  5  1  0  0  0  0
  9 10  1  0  0  0  0
 10  7  1  0  0  0  0
 11 12  1  0  0  0  0
 12 14  1  0  0  0  0
 12 13  1  0  0  0  0
 12 15  1  0  0  0  0
 14 13  1  0  0  0  0
 15 16  1  1  0  0  0
 15 19  1  0  0  0  0
 16 17  1  0  0  0  0
 17 18  1  0  0  0  0
 20 21  2  0  0  0  0
 21 19  1  0  0  0  0
 21 22  1  0  0  0  0
 23 22  1  0  0  0  0
 24 23  2  0  0  0  0
 26 25  1  0  0  0  0
 27 29  2  0  0  0  0
 27 28  1  0  0  0  0
 28 26  1  0  0  0  0
 30 32  1  0  0  0  0
 30 27  1  0  0  0  0
 32 31  1  0  0  0  0
 32 33  2  0  0  0  0
 34 35  1  6  0  0  0
 34 31  1  0  0  0  0
 34 37  1  0  0  0  0
 37 36  1  0  0  0  0
M  END
>  <MODEL>
5

>  <REMARK>
 VINA RESULT:      -6.5      2.156      6.847
  Name = 
  19 active torsions:
  status: ('A' for Active; 'I' for Inactive)
    1  A    between atoms: N_1  and  C_5
    2  A    between atoms: C_2  and  C_19
    3  A    between atoms: C_2  and  C_35
    4  A    between atoms: C_3  and  C_32
    5  A    between atoms: C_4  and  O_10
    6  A    between atoms: C_4  and  C_13
    7  A    between atoms: C_5  and  C_23
    8  A    between atoms: C_7  and  C_14
    9  A    between atoms: C_7  and  C_27
   10  A    between atoms: C_9  and  C_13
   11  A    between atoms: C_9  and  C_16
   12  A    between atoms: O_10  and  C_14
   13  A    between atoms: C_11  and  C_36
   14  A    between atoms: C_13  and  C_20
   15  A    between atoms: C_14  and  C_31
   16  A    between atoms: C_20  and  C_25
   17  A    between atoms: C_25  and  C_32
   18  A    between atoms: C_26  and  C_36
   19  A    between atoms: C_27  and  N_33
                            x       y       z     vdW  Elec       q    Type
                         _______ _______ _______ _____ _____    ______ ____

>  <TORSDO>
F 19

$$$$
=
 OpenBabel11052415333D

 37 37  0  0  1  0  0  0  0  0999 V2000
  188.2840  177.9290  138.3170 C   0  0  2  0  0  3  0  0  0  0  0  0
  186.7450  178.5370  140.2380 N   0  0  0  0  0  2  0  0  0  0  0  0
  184.6380  179.5610  140.1550 O   0  0  0  0  0  0  0  0  0  0  0  0
  186.9770  178.4560  138.8260 C   0  0  0  0  0  0  0  0  0  0  0  0
  185.5700  179.0750  140.8540 C   0  0  0  0  0  0  0  0  0  0  0  0
  186.1090  178.8500  138.0020 O   0  0  0  0  0  0  0  0  0  0  0  0
  185.4700  179.0720  142.3440 C   0  0  2  0  0  3  0  0  0  0  0  0
  186.4810  178.1100  142.9400 C   0  0  0  0  0  1  0  0  0  0  0  0
  183.9210  178.9560  144.1600 O   0  0  0  0  0  1  0  0  0  0  0  0
  184.0710  178.6920  142.7980 C   0  0  0  0  0  2  0  0  0  0  0  0
  188.1680  176.5840  137.9270 O   0  0  0  0  0  0  0  0  0  0  0  0
  188.6950  176.4780  136.6260 C   0  0  0  0  0  0  0  0  0  0  0  0
  188.5990  177.7050  135.7390 C   0  0  0  0  0  2  0  0  0  0  0  0
  187.6080  176.5650  135.5780 C   0  0  0  0  0  2  0  0  0  0  0  0
  189.7460  175.4100  136.3080 C   0  0  1  0  0  3  0  0  0  0  0  0
  191.1500  175.9930  136.4180 C   0  0  0  0  0  2  0  0  0  0  0  0
  191.8620  175.4910  137.6650 C   0  0  0  0  0  2  0  0  0  0  0  0
  192.9360  176.4720  138.0960 C   0  0  0  0  0  1  0  0  0  0  0  0
  189.6030  174.2000  137.2260 C   0  0  0  0  0  2  0  0  0  0  0  0
  189.6050  172.6500  135.4480 O   0  0  0  0  0  0  0  0  0  0  0  0
  189.0650  173.0250  136.4760 C   0  0  0  0  0  0  0  0  0  0  0  0
  187.8270  172.3400  136.9570 C   0  0  0  0  0  2  0  0  0  0  0  0
  186.6800  173.2970  137.0450 C   0  0  0  0  0  3  0  0  0  0  0  0
  185.5430  172.9460  137.6400 C   0  0  0  0  0  2  0  0  0  0  0  0
  189.4100  178.1070  139.3400 C   0  0  0  0  0  2  0  0  0  0  0  0
  189.6980  176.8410  140.1380 C   0  0  0  0  0  2  0  0  0  0  0  0
  190.3670  176.5740  142.5530 C   0  0  0  0  0  0  0  0  0  0  0  0
  190.5740  177.1390  141.2580 N   0  0  0  0  0  2  0  0  0  0  0  0
  189.3980  175.7990  142.7660 O   0  0  0  0  0  0  0  0  0  0  0  0
  191.2970  176.9070  143.6720 C   0  0  0  0  0  2  0  0  0  0  0  0
  190.1120  178.3490  145.4070 N   0  0  0  0  0  2  0  0  0  0  0  0
  190.9670  178.2410  144.2670 C   0  0  0  0  0  0  0  0  0  0  0  0
  191.4530  179.2850  143.7580 O   0  0  0  0  0  0  0  0  0  0  0  0
  189.5250  177.1950  146.0780 C   0  0  2  0  0  3  0  0  0  0  0  0
  188.0210  177.3600  146.1710 C   0  0  0  0  0  1  0  0  0  0  0  0
  191.3990  176.2960  147.4510 C   0  0  0  0  0  1  0  0  0  0  0  0
  190.0940  177.0680  147.4790 C   0  0  0  0  0  2  0  0  0  0  0  0
  1  4  1  0  0  0  0
  1 25  1  1  0  0  0
  2  5  1  0  0  0  0
  3  5  2  0  0  0  0
  4  2  1  0  0  0  0
  5  7  1  0  0  0  0
  6  4  2  0  0  0  0
  7 10  1  0  0  0  0
  7  8  1  1  0  0  0
 10  9  1  0  0  0  0
 11  1  1  0  0  0  0
 12 11  1  0  0  0  0
 13 12  1  0  0  0  0
 14 13  1  0  0  0  0
 14 12  1  0  0  0  0
 15 16  1  1  0  0  0
 15 12  1  0  0  0  0
 15 19  1  0  0  0  0
 16 17  1  0  0  0  0
 17 18  1  0  0  0  0
 20 21  2  0  0  0  0
 21 22  1  0  0  0  0
 21 19  1  0  0  0  0
 22 23  1  0  0  0  0
 23 24  2  0  0  0  0
 25 26  1  0  0  0  0
 26 28  1  0  0  0  0
 27 29  2  0  0  0  0
 27 30  1  0  0  0  0
 28 27  1  0  0  0  0
 30 32  1  0  0  0  0
 31 34  1  0  0  0  0
 32 31  1  0  0  0  0
 33 32  2  0  0  0  0
 34 35  1  1  0  0  0
 34 37  1  0  0  0  0
 36 37  1  0  0  0  0
M  END
>  <MODEL>
6

>  <REMARK>
 VINA RESULT:      -6.5      2.528      8.317
  Name = 
  19 active torsions:
  status: ('A' for Active; 'I' for Inactive)
    1  A    between atoms: N_1  and  C_5
    2  A    between atoms: C_2  and  C_19
    3  A    between atoms: C_2  and  C_35
    4  A    between atoms: C_3  and  C_32
    5  A    between atoms: C_4  and  O_10
    6  A    between atoms: C_4  and  C_13
    7  A    between atoms: C_5  and  C_23
    8  A    between atoms: C_7  and  C_14
    9  A    between atoms: C_7  and  C_27
   10  A    between atoms: C_9  and  C_13
   11  A    between atoms: C_9  and  C_16
   12  A    between atoms: O_10  and  C_14
   13  A    between atoms: C_11  and  C_36
   14  A    between atoms: C_13  and  C_20
   15  A    between atoms: C_14  and  C_31
   16  A    between atoms: C_20  and  C_25
   17  A    between atoms: C_25  and  C_32
   18  A    between atoms: C_26  and  C_36
   19  A    between atoms: C_27  and  N_33
                            x       y       z     vdW  Elec       q    Type
                         _______ _______ _______ _____ _____    ______ ____

>  <TORSDO>
F 19

$$$$
=
 OpenBabel11052415333D

 37 37  0  0  1  0  0  0  0  0999 V2000
  189.5200  177.4720  141.3580 C   0  0  2  0  0  3  0  0  0  0  0  0
  189.2180  177.5070  138.8410 N   0  0  0  0  0  2  0  0  0  0  0  0
  190.8200  177.1320  137.1720 O   0  0  0  0  0  0  0  0  0  0  0  0
  190.0610  177.2720  139.9760 C   0  0  0  0  0  0  0  0  0  0  0  0
  189.6280  177.4130  137.4730 C   0  0  0  0  0  0  0  0  0  0  0  0
  191.2640  176.9260  139.8300 O   0  0  0  0  0  0  0  0  0  0  0  0
  188.6220  177.6730  136.3990 C   0  0  2  0  0  3  0  0  0  0  0  0
  187.6920  178.7990  136.8070 C   0  0  0  0  0  1  0  0  0  0  0  0
  186.4940  176.5920  136.5200 O   0  0  0  0  0  1  0  0  0  0  0  0
  187.8120  176.4230  136.0940 C   0  0  0  0  0  2  0  0  0  0  0  0
  190.1090  176.5750  142.2660 O   0  0  0  0  0  0  0  0  0  0  0  0
  190.4820  177.3140  143.4030 C   0  0  0  0  0  0  0  0  0  0  0  0
  190.7250  178.8000  143.2130 C   0  0  0  0  0  2  0  0  0  0  0  0
  191.8970  177.8360  143.2860 C   0  0  0  0  0  2  0  0  0  0  0  0
  190.1550  176.7870  144.8030 C   0  0  1  0  0  3  0  0  0  0  0  0
  191.4330  176.4180  145.5470 C   0  0  0  0  0  2  0  0  0  0  0  0
  191.2810  176.6270  147.0460 C   0  0  0  0  0  2  0  0  0  0  0  0
  192.1720  175.6670  147.8110 C   0  0  0  0  0  1  0  0  0  0  0  0
  189.3510  177.8050  145.6060 C   0  0  0  0  0  2  0  0  0  0  0  0
  187.4440  176.7280  144.7330 O   0  0  0  0  0  0  0  0  0  0  0  0
  187.8970  177.4620  145.5970 C   0  0  0  0  0  0  0  0  0  0  0  0
  186.9850  178.0620  146.6170 C   0  0  0  0  0  2  0  0  0  0  0  0
  187.7290  178.4060  147.8690 C   0  0  0  0  0  3  0  0  0  0  0  0
  187.9180  177.4970  148.8220 C   0  0  0  0  0  2  0  0  0  0  0  0
  187.9920  177.3620  141.3950 C   0  0  0  0  0  2  0  0  0  0  0  0
  187.3080  178.6700  141.7770 C   0  0  0  0  0  2  0  0  0  0  0  0
  184.8130  178.9380  141.5490 C   0  0  0  0  0  0  0  0  0  0  0  0
  185.9520  178.4140  142.2320 N   0  0  0  0  0  2  0  0  0  0  0  0
  184.9550  179.6570  140.5240 O   0  0  0  0  0  0  0  0  0  0  0  0
  183.4380  178.6440  142.0520 C   0  0  0  0  0  2  0  0  0  0  0  0
  181.1900  178.4920  140.8610 N   0  0  0  0  0  2  0  0  0  0  0  0
  182.5670  178.1150  140.9550 C   0  0  0  0  0  0  0  0  0  0  0  0
  183.0520  177.3300  140.1010 O   0  0  0  0  0  0  0  0  0  0  0  0
  180.5490  179.4150  141.7890 C   0  0  2  0  0  3  0  0  0  0  0  0
  179.7840  178.6400  142.8450 C   0  0  0  0  0  1  0  0  0  0  0  0
  180.2540  180.9090  139.8180 C   0  0  0  0  0  1  0  0  0  0  0  0
  179.5810  180.3110  141.0390 C   0  0  0  0  0  2  0  0  0  0  0  0
  1 25  1  6  0  0  0
  1 11  1  0  0  0  0
  2  4  1  0  0  0  0
  3  5  2  0  0  0  0
  4  1  1  0  0  0  0
  5  2  1  0  0  0  0
  6  4  2  0  0  0  0
  7  8  1  1  0  0  0
  7  5  1  0  0  0  0
 10  7  1  0  0  0  0
 10  9  1  0  0  0  0
 11 12  1  0  0  0  0
 12 15  1  0  0  0  0
 13 14  1  0  0  0  0
 13 12  1  0  0  0  0
 14 12  1  0  0  0  0
 15 16  1  1  0  0  0
 15 19  1  0  0  0  0
 16 17  1  0  0  0  0
 17 18  1  0  0  0  0
 20 21  2  0  0  0  0
 21 19  1  0  0  0  0
 21 22  1  0  0  0  0
 22 23  1  0  0  0  0
 23 24  2  0  0  0  0
 25 26  1  0  0  0  0
 26 28  1  0  0  0  0
 27 30  1  0  0  0  0
 27 28  1  0  0  0  0
 29 27  2  0  0  0  0
 31 32  1  0  0  0  0
 31 34  1  0  0  0  0
 32 30  1  0  0  0  0
 33 32  2  0  0  0  0
 34 35  1  1  0  0  0
 36 37  1  0  0  0  0
 37 34  1  0  0  0  0
M  END
>  <MODEL>
7

>  <REMARK>
 VINA RESULT:      -6.3      1.884      2.628
  Name = 
  19 active torsions:
  status: ('A' for Active; 'I' for Inactive)
    1  A    between atoms: N_1  and  C_5
    2  A    between atoms: C_2  and  C_19
    3  A    between atoms: C_2  and  C_35
    4  A    between atoms: C_3  and  C_32
    5  A    between atoms: C_4  and  O_10
    6  A    between atoms: C_4  and  C_13
    7  A    between atoms: C_5  and  C_23
    8  A    between atoms: C_7  and  C_14
    9  A    between atoms: C_7  and  C_27
   10  A    between atoms: C_9  and  C_13
   11  A    between atoms: C_9  and  C_16
   12  A    between atoms: O_10  and  C_14
   13  A    between atoms: C_11  and  C_36
   14  A    between atoms: C_13  and  C_20
   15  A    between atoms: C_14  and  C_31
   16  A    between atoms: C_20  and  C_25
   17  A    between atoms: C_25  and  C_32
   18  A    between atoms: C_26  and  C_36
   19  A    between atoms: C_27  and  N_33
                            x       y       z     vdW  Elec       q    Type
                         _______ _______ _______ _____ _____    ______ ____

>  <TORSDO>
F 19

$$$$
=
 OpenBabel11052415333D

 37 37  0  0  1  0  0  0  0  0999 V2000
  190.5130  177.3360  140.9670 C   0  0  2  0  0  3  0  0  0  0  0  0
  191.6240  176.5770  138.8170 N   0  0  0  0  0  2  0  0  0  0  0  0
  193.8770  176.7510  138.1950 O   0  0  0  0  0  0  0  0  0  0  0  0
  191.7410  177.1340  140.1320 C   0  0  0  0  0  0  0  0  0  0  0  0
  192.7040  176.3910  137.8980 C   0  0  0  0  0  0  0  0  0  0  0  0
  192.8610  177.4870  140.5890 O   0  0  0  0  0  0  0  0  0  0  0  0
  192.4220  175.7770  136.5650 C   0  0  2  0  0  3  0  0  0  0  0  0
  190.9340  175.5260  136.4040 C   0  0  0  0  0  1  0  0  0  0  0  0
  193.1090  173.7150  137.5570 O   0  0  0  0  0  1  0  0  0  0  0  0
  193.1850  174.4750  136.3890 C   0  0  0  0  0  2  0  0  0  0  0  0
  190.4800  176.4320  142.0420 O   0  0  0  0  0  0  0  0  0  0  0  0
  190.3000  177.1840  143.2170 C   0  0  0  0  0  0  0  0  0  0  0  0
  190.7690  178.6270  143.1920 C   0  0  0  0  0  2  0  0  0  0  0  0
  191.6250  177.5560  143.8460 C   0  0  0  0  0  2  0  0  0  0  0  0
  189.2490  176.7610  144.2470 C   0  0  1  0  0  3  0  0  0  0  0  0
  189.0190  177.8730  145.2640 C   0  0  0  0  0  2  0  0  0  0  0  0
  188.9570  177.3230  146.6800 C   0  0  0  0  0  2  0  0  0  0  0  0
  190.3050  176.7630  147.0930 C   0  0  0  0  0  1  0  0  0  0  0  0
  187.9340  176.3810  143.5730 C   0  0  0  0  0  2  0  0  0  0  0  0
  187.1640  178.3290  142.4900 O   0  0  0  0  0  0  0  0  0  0  0  0
  187.0410  177.5720  143.4390 C   0  0  0  0  0  0  0  0  0  0  0  0
  186.0300  177.8660  144.4990 C   0  0  0  0  0  2  0  0  0  0  0  0
  184.7880  178.4560  143.9110 C   0  0  0  0  0  3  0  0  0  0  0  0
  183.8720  179.0320  144.6860 C   0  0  0  0  0  2  0  0  0  0  0  0
  189.2320  177.2390  140.1320 C   0  0  0  0  0  2  0  0  0  0  0  0
  188.8750  178.5450  139.4310 C   0  0  0  0  0  2  0  0  0  0  0  0
  187.4780  178.2250  137.3590 C   0  0  0  0  0  0  0  0  0  0  0  0
  187.5890  178.4260  138.7680 N   0  0  0  0  0  2  0  0  0  0  0  0
  188.5100  178.1570  136.6390 O   0  0  0  0  0  0  0  0  0  0  0  0
  186.1330  178.1030  136.7230 C   0  0  0  0  0  2  0  0  0  0  0  0
  184.3020  177.3940  138.3470 N   0  0  0  0  0  2  0  0  0  0  0  0
  185.3130  177.0470  137.3970 C   0  0  0  0  0  0  0  0  0  0  0  0
  185.5130  175.8360  137.1230 O   0  0  0  0  0  0  0  0  0  0  0  0
  183.9830  178.7690  138.7080 C   0  0  2  0  0  3  0  0  0  0  0  0
  184.3920  179.0360  140.1440 C   0  0  0  0  0  1  0  0  0  0  0  0
  181.7950  177.7360  138.1160 C   0  0  0  0  0  1  0  0  0  0  0  0
  182.4900  179.0050  138.5700 C   0  0  0  0  0  2  0  0  0  0  0  0
  1 25  1  6  0  0  0
  1 11  1  0  0  0  0
  2  4  1  0  0  0  0
  4  6  2  0  0  0  0
  4  1  1  0  0  0  0
  5  3  2  0  0  0  0
  5  2  1  0  0  0  0
  7  8  1  1  0  0  0
  7  5  1  0  0  0  0
 10  7  1  0  0  0  0
 10  9  1  0  0  0  0
 11 12  1  0  0  0  0
 12 14  1  0  0  0  0
 12 15  1  0  0  0  0
 13 12  1  0  0  0  0
 13 14  1  0  0  0  0
 15 19  1  6  0  0  0
 15 16  1  0  0  0  0
 16 17  1  0  0  0  0
 17 18  1  0  0  0  0
 20 21  2  0  0  0  0
 21 19  1  0  0  0  0
 21 22  1  0  0  0  0
 23 22  1  0  0  0  0
 23 24  2  0  0  0  0
 26 25  1  0  0  0  0
 27 28  1  0  0  0  0
 28 26  1  0  0  0  0
 29 27  2  0  0  0  0
 30 27  1  0  0  0  0
 30 32  1  0  0  0  0
 31 34  1  0  0  0  0
 32 31  1  0  0  0  0
 33 32  2  0  0  0  0
 34 35  1  1  0  0  0
 36 37  1  0  0  0  0
 37 34  1  0  0  0  0
M  END
>  <MODEL>
8

>  <REMARK>
 VINA RESULT:      -6.3      1.808      2.444
  Name = 
  19 active torsions:
  status: ('A' for Active; 'I' for Inactive)
    1  A    between atoms: N_1  and  C_5
    2  A    between atoms: C_2  and  C_19
    3  A    between atoms: C_2  and  C_35
    4  A    between atoms: C_3  and  C_32
    5  A    between atoms: C_4  and  O_10
    6  A    between atoms: C_4  and  C_13
    7  A    between atoms: C_5  and  C_23
    8  A    between atoms: C_7  and  C_14
    9  A    between atoms: C_7  and  C_27
   10  A    between atoms: C_9  and  C_13
   11  A    between atoms: C_9  and  C_16
   12  A    between atoms: O_10  and  C_14
   13  A    between atoms: C_11  and  C_36
   14  A    between atoms: C_13  and  C_20
   15  A    between atoms: C_14  and  C_31
   16  A    between atoms: C_20  and  C_25
   17  A    between atoms: C_25  and  C_32
   18  A    between atoms: C_26  and  C_36
   19  A    between atoms: C_27  and  N_33
                            x       y       z     vdW  Elec       q    Type
                         _______ _______ _______ _____ _____    ______ ____

>  <TORSDO>
F 19

$$$$
=
 OpenBabel11052415333D

 37 37  0  0  1  0  0  0  0  0999 V2000
  184.8170  178.3580  143.7500 C   0  0  2  0  0  3  0  0  0  0  0  0
  182.6140  178.6280  142.5220 N   0  0  0  0  0  2  0  0  0  0  0  0
  180.8610  180.1160  142.9750 O   0  0  0  0  0  0  0  0  0  0  0  0
  183.5150  179.0710  143.5450 C   0  0  0  0  0  0  0  0  0  0  0  0
  181.3200  179.1800  142.2640 C   0  0  0  0  0  0  0  0  0  0  0  0
  183.2170  180.0370  144.2970 O   0  0  0  0  0  0  0  0  0  0  0  0
  180.5050  178.6170  141.1450 C   0  0  2  0  0  3  0  0  0  0  0  0
  181.3920  178.2800  139.9620 C   0  0  0  0  0  1  0  0  0  0  0  0
  179.9820  180.6300  139.9670 O   0  0  0  0  0  1  0  0  0  0  0  0
  179.4220  179.5910  140.7130 C   0  0  0  0  0  2  0  0  0  0  0  0
  185.7260  179.1610  144.4590 O   0  0  0  0  0  0  0  0  0  0  0  0
  186.0600  178.4730  145.6400 C   0  0  0  0  0  0  0  0  0  0  0  0
  184.9150  178.0480  146.5400 C   0  0  0  0  0  2  0  0  0  0  0  0
  185.7270  179.2890  146.8700 C   0  0  0  0  0  2  0  0  0  0  0  0
  187.4030  177.7460  145.7520 C   0  0  1  0  0  3  0  0  0  0  0  0
  188.1890  177.8740  144.4530 C   0  0  0  0  0  2  0  0  0  0  0  0
  188.4140  176.5150  143.8070 C   0  0  0  0  0  2  0  0  0  0  0  0
  189.6740  176.5300  142.9620 C   0  0  0  0  0  1  0  0  0  0  0  0
  188.2260  178.2760  146.9220 C   0  0  0  0  0  2  0  0  0  0  0  0
  188.3690  176.2220  148.0720 O   0  0  0  0  0  0  0  0  0  0  0  0
  188.9720  177.1690  147.5930 C   0  0  0  0  0  0  0  0  0  0  0  0
  190.4590  177.2470  147.7230 C   0  0  0  0  0  2  0  0  0  0  0  0
  191.1350  176.7500  146.4850 C   0  0  0  0  0  3  0  0  0  0  0  0
  192.0540  175.7890  146.5480 C   0  0  0  0  0  2  0  0  0  0  0  0
  185.4230  177.8830  142.4260 C   0  0  0  0  0  2  0  0  0  0  0  0
  185.9950  179.0220  141.5880 C   0  0  0  0  0  2  0  0  0  0  0  0
  187.4530  178.3070  139.6620 C   0  0  0  0  0  0  0  0  0  0  0  0
  187.2850  178.6430  141.0390 N   0  0  0  0  0  2  0  0  0  0  0  0
  186.4690  178.3170  138.8760 O   0  0  0  0  0  0  0  0  0  0  0  0
  188.8010  177.9290  139.1420 C   0  0  0  0  0  2  0  0  0  0  0  0
  189.2290  177.6600  136.6450 N   0  0  0  0  0  2  0  0  0  0  0  0
  189.0330  178.5060  137.7810 C   0  0  0  0  0  0  0  0  0  0  0  0
  189.0540  179.7550  137.6310 O   0  0  0  0  0  0  0  0  0  0  0  0
  189.1950  176.2040  136.7170 C   0  0  2  0  0  3  0  0  0  0  0  0
  190.3720  175.6210  135.9600 C   0  0  0  0  0  1  0  0  0  0  0  0
  186.9750  175.1750  137.1810 C   0  0  0  0  0  1  0  0  0  0  0  0
  187.9090  175.6870  136.1010 C   0  0  0  0  0  2  0  0  0  0  0  0
  1 25  1  6  0  0  0
  1 11  1  0  0  0  0
  2  4  1  0  0  0  0
  4  1  1  0  0  0  0
  4  6  2  0  0  0  0
  5  2  1  0  0  0  0
  5  3  2  0  0  0  0
  7  8  1  6  0  0  0
  7  5  1  0  0  0  0
  9 10  1  0  0  0  0
 10  7  1  0  0  0  0
 11 12  1  0  0  0  0
 12 15  1  0  0  0  0
 12 13  1  0  0  0  0
 12 14  1  0  0  0  0
 13 14  1  0  0  0  0
 15 16  1  6  0  0  0
 15 19  1  0  0  0  0
 17 16  1  0  0  0  0
 18 17  1  0  0  0  0
 19 21  1  0  0  0  0
 21 22  1  0  0  0  0
 21 20  2  0  0  0  0
 23 24  2  0  0  0  0
 23 22  1  0  0  0  0
 26 25  1  0  0  0  0
 27 28  1  0  0  0  0
 28 26  1  0  0  0  0
 29 27  2  0  0  0  0
 30 27  1  0  0  0  0
 31 34  1  0  0  0  0
 31 32  1  0  0  0  0
 32 30  1  0  0  0  0
 33 32  2  0  0  0  0
 34 35  1  6  0  0  0
 37 34  1  0  0  0  0
 37 36  1  0  0  0  0
M  END
>  <MODEL>
9

>  <REMARK>
 VINA RESULT:      -6.3      2.425      7.372
  Name = 
  19 active torsions:
  status: ('A' for Active; 'I' for Inactive)
    1  A    between atoms: N_1  and  C_5
    2  A    between atoms: C_2  and  C_19
    3  A    between atoms: C_2  and  C_35
    4  A    between atoms: C_3  and  C_32
    5  A    between atoms: C_4  and  O_10
    6  A    between atoms: C_4  and  C_13
    7  A    between atoms: C_5  and  C_23
    8  A    between atoms: C_7  and  C_14
    9  A    between atoms: C_7  and  C_27
   10  A    between atoms: C_9  and  C_13
   11  A    between atoms: C_9  and  C_16
   12  A    between atoms: O_10  and  C_14
   13  A    between atoms: C_11  and  C_36
   14  A    between atoms: C_13  and  C_20
   15  A    between atoms: C_14  and  C_31
   16  A    between atoms: C_20  and  C_25
   17  A    between atoms: C_25  and  C_32
   18  A    between atoms: C_26  and  C_36
   19  A    between atoms: C_27  and  N_33
                            x       y       z     vdW  Elec       q    Type
                         _______ _______ _______ _____ _____    ______ ____

>  <TORSDO>
F 19

$$$$
