=
 OpenBabel11052416213D

 43 49  0  0  1  0  0  0  0  0999 V2000
  191.2120  176.7980  147.0030 C   0  0  0  0  0  0  0  0  0  0  0  0
  187.1140  177.6880  144.1730 C   0  0  0  0  0  0  0  0  0  0  0  0
  188.0770  178.1670  141.6070 C   0  0  0  0  0  0  0  0  0  0  0  0
  188.9410  177.1210  146.2320 C   0  0  0  0  0  0  0  0  0  0  0  0
  191.6870  177.0270  145.7090 C   0  0  0  0  0  3  0  0  0  0  0  0
  192.1010  176.5250  148.0310 O   0  0  0  0  0  1  0  0  0  0  0  0
  189.4150  177.3560  144.9190 C   0  0  0  0  0  0  0  0  0  0  0  0
  189.8400  176.8430  147.2640 C   0  0  0  0  0  3  0  0  0  0  0  0
  190.7940  177.3050  144.6710 C   0  0  0  0  0  3  0  0  0  0  0  0
  188.9350  177.8780  142.6190 N   0  0  0  0  0  0  0  0  0  0  0  0
  188.5000  177.6410  143.8890 C   0  0  0  0  0  0  0  0  0  0  0  0
  186.6650  177.4470  145.4800 C   0  0  0  0  0  3  0  0  0  0  0  0
  186.2140  177.9750  143.1310 C   0  0  0  0  0  0  0  0  0  0  0  0
  186.7030  178.2180  141.8460 C   0  0  0  0  0  3  0  0  0  0  0  0
  187.5730  177.1660  146.5010 C   0  0  0  0  0  3  0  0  0  0  0  0
  184.7390  178.0700  143.3630 C   0  0  0  0  0  2  0  0  0  0  0  0
  182.5260  178.2010  141.3750 C   0  0  0  0  0  2  0  0  0  0  0  0
  181.4480  178.6340  142.2700 N   0  0  0  0  0  0  0  0  0  0  0  0
  183.1450  179.8420  143.6500 C   0  0  0  0  0  2  0  0  0  0  0  0
  183.7550  179.1160  141.4410 C   0  0  0  0  0  2  0  0  0  0  0  0
  184.2270  179.3230  142.8120 N   0  0  0  0  0  0  0  0  0  0  0  0
  181.9030  178.9390  143.6310 C   0  0  0  0  0  2  0  0  0  0  0  0
  179.7020  180.3830  142.7100 C   0  0  0  0  0  1  0  0  0  0  0  0
  180.5940  179.6800  141.6910 C   0  0  0  0  0  2  0  0  0  0  0  0
  188.6010  178.4070  140.2370 C   0  0  0  0  0  2  0  0  0  0  0  0
  187.5230  178.2850  139.2710 N   0  0  0  0  0  2  0  0  0  0  0  0
  188.1290  178.3220  137.9500 C   0  0  0  0  0  2  0  0  0  0  0  0
  185.9680  178.0200  137.0090 F   0  0  0  0  0  0  0  0  0  0  0  0
  187.2670  177.5510  136.9610 C   0  0  2  0  0  3  0  0  0  0  0  0
  187.2760  176.0710  137.3070 C   0  0  0  0  0  2  0  0  0  0  0  0
  187.7570  175.2880  136.1740 N   0  0  0  0  0  0  0  0  0  0  0  0
  189.8140  173.9930  136.1040 C   0  0  2  0  0  3  0  0  0  0  0  0
  190.0280  174.8830  137.3270 C   0  0  2  0  0  3  0  0  0  0  0  0
  187.4000  173.8930  136.4070 C   0  0  0  0  0  3  0  0  0  0  0  0
  189.2180  175.3770  136.1240 C   0  0  2  0  0  0  0  0  0  0  0  0
  189.8210  176.2800  135.0580 C   0  0  0  0  0  1  0  0  0  0  0  0
  188.6600  173.0500  136.3470 C   0  0  0  0  0  3  0  0  0  0  0  0
  191.3800  175.4270  137.3170 N   0  0  2  0  0  0  0  0  0  0  0  0
  192.9370  176.7260  138.6770 C   0  0  0  0  0  3  0  0  0  0  0  0
  193.7360  174.8260  137.4160 C   0  0  0  0  0  2  0  0  0  0  0  0
  193.9200  176.0250  138.2150 N   0  0  0  0  0  0  0  0  0  0  0  0
  192.3000  174.3070  137.4980 C   0  0  0  0  0  2  0  0  0  0  0  0
  191.5090  176.2840  138.4950 C   0  0  0  0  0  2  0  0  0  0  0  0
  1  8  1  0  0  0  0
  1  6  1  0  0  0  0
  2 12  1  0  0  0  0
  3 14  2  0  0  0  0
  3 10  1  0  0  0  0
  4 15  1  0  0  0  0
  4  8  2  0  0  0  0
  5  1  2  0  0  0  0
  7  4  1  0  0  0  0
  9  7  2  0  0  0  0
  9  5  1  0  0  0  0
 10 11  2  0  0  0  0
 11  2  1  0  0  0  0
 11  7  1  0  0  0  0
 12 15  2  0  0  0  0
 13 16  1  0  0  0  0
 13  2  2  0  0  0  0
 14 13  1  0  0  0  0
 17 20  1  0  0  0  0
 17 18  1  0  0  0  0
 18 22  1  0  0  0  0
 20 21  1  0  0  0  0
 21 16  1  0  0  0  0
 21 19  1  0  0  0  0
 22 19  1  0  0  0  0
 24 18  1  0  0  0  0
 24 23  1  0  0  0  0
 25  3  1  0  0  0  0
 26 25  1  0  0  0  0
 27 26  1  0  0  0  0
 29 28  1  1  0  0  0
 29 30  1  0  0  0  0
 29 27  1  0  0  0  0
 31 34  1  0  0  0  0
 31 30  1  0  0  0  0
 32 35  1  0  0  0  0
 32 37  1  1  0  0  0
 32 33  1  0  0  0  0
 33 38  1  6  0  0  0
 35 36  1  6  0  0  0
 35 31  1  0  0  0  0
 35 33  1  0  0  0  0
 37 34  2  0  0  0  0
 38 42  1  1  0  0  0
 38 43  1  0  0  0  0
 40 42  1  0  0  0  0
 40 41  1  0  0  0  0
 41 39  2  0  0  0  0
 43 39  1  0  0  0  0
M  END
>  <MODEL>
1

>  <REMARK>
 VINA RESULT:      -9.3      0.000      0.000
  Name = 
  10 active torsions:
  status: ('A' for Active; 'I' for Inactive)
    1  A    between atoms: C_1  and  C_34
    2  A    between atoms: C_1  and  N_35
    3  A    between atoms: C_2  and  N_7
    4  A    between atoms: C_2  and  C_13
    5  A    between atoms: C_3  and  N_4
    6  A    between atoms: C_3  and  C_12
    7  A    between atoms: N_7  and  C_17
    8  A    between atoms: N_11  and  C_14
    9  A    between atoms: C_12  and  C_17
   10  A    between atoms: N_19  and  C_37
                            x       y       z     vdW  Elec       q    Type
                         _______ _______ _______ _____ _____    ______ ____

>  <TORSDO>
F 10

$$$$
=
 OpenBabel11052416213D

 43 49  0  0  1  0  0  0  0  0999 V2000
  188.0240  177.6040  147.3440 C   0  0  0  0  0  0  0  0  0  0  0  0
  185.7870  178.4070  142.8770 C   0  0  0  0  0  0  0  0  0  0  0  0
  187.8270  178.2580  140.9910 C   0  0  0  0  0  0  0  0  0  0  0  0
  186.4110  178.0390  145.5930 C   0  0  0  0  0  0  0  0  0  0  0  0
  189.0410  177.5180  146.3890 C   0  0  0  0  0  3  0  0  0  0  0  0
  188.3170  177.4330  148.6880 O   0  0  0  0  0  1  0  0  0  0  0  0
  187.4370  177.9550  144.6200 C   0  0  0  0  0  0  0  0  0  0  0  0
  186.7100  177.8630  146.9460 C   0  0  0  0  0  3  0  0  0  0  0  0
  188.7500  177.6930  145.0330 C   0  0  0  0  0  3  0  0  0  0  0  0
  188.0970  178.0720  142.3090 N   0  0  0  0  0  0  0  0  0  0  0  0
  187.1240  178.1410  143.2620 C   0  0  0  0  0  0  0  0  0  0  0  0
  184.7850  178.4820  143.8570 C   0  0  0  0  0  3  0  0  0  0  0  0
  185.4940  178.5910  141.5140 C   0  0  0  0  0  0  0  0  0  0  0  0
  186.5220  178.5190  140.5730 C   0  0  0  0  0  3  0  0  0  0  0  0
  185.0970  178.2980  145.2050 C   0  0  0  0  0  3  0  0  0  0  0  0
  184.1100  178.9040  141.0380 C   0  0  0  0  0  2  0  0  0  0  0  0
  181.5390  177.6720  140.1810 C   0  0  0  0  0  2  0  0  0  0  0  0
  181.0400  178.7620  139.3360 N   0  0  0  0  0  0  0  0  0  0  0  0
  183.4040  179.3550  138.7870 C   0  0  0  0  0  2  0  0  0  0  0  0
  182.9510  177.2170  139.7880 C   0  0  0  0  0  2  0  0  0  0  0  0
  183.8970  178.3310  139.7110 N   0  0  0  0  0  0  0  0  0  0  0  0
  182.0030  179.8560  139.1610 C   0  0  0  0  0  2  0  0  0  0  0  0
  180.4770  179.3390  136.9590 C   0  0  0  0  0  1  0  0  0  0  0  0
  180.4470  178.2980  138.0750 C   0  0  0  0  0  2  0  0  0  0  0  0
  188.9220  178.1620  139.9900 C   0  0  0  0  0  2  0  0  0  0  0  0
  188.6360  179.0350  138.8650 N   0  0  0  0  0  2  0  0  0  0  0  0
  189.0130  178.3140  137.6600 C   0  0  0  0  0  2  0  0  0  0  0  0
  186.6730  178.5220  137.3090 F   0  0  0  0  0  0  0  0  0  0  0  0
  187.7730  177.7520  136.9810 C   0  0  2  0  0  3  0  0  0  0  0  0
  187.5340  176.3220  137.4350 C   0  0  0  0  0  2  0  0  0  0  0  0
  187.8160  175.3910  136.3480 N   0  0  0  0  0  0  0  0  0  0  0  0
  189.7060  173.8660  136.2290 C   0  0  2  0  0  3  0  0  0  0  0  0
  190.1330  174.8300  137.3340 C   0  0  2  0  0  3  0  0  0  0  0  0
  187.3370  174.0720  136.7490 C   0  0  0  0  0  3  0  0  0  0  0  0
  189.2670  175.3060  136.1630 C   0  0  2  0  0  0  0  0  0  0  0  0
  189.8560  176.0340  134.9640 C   0  0  0  0  0  1  0  0  0  0  0  0
  188.4880  173.0880  136.6640 C   0  0  0  0  0  3  0  0  0  0  0  0
  191.5280  175.2110  137.1520 N   0  0  2  0  0  0  0  0  0  0  0  0
  193.3620  176.3740  138.2690 C   0  0  0  0  0  3  0  0  0  0  0  0
  193.7970  174.3420  137.0350 C   0  0  0  0  0  2  0  0  0  0  0  0
  194.2030  175.5440  137.7440 N   0  0  0  0  0  0  0  0  0  0  0  0
  192.3310  173.9990  137.2960 C   0  0  0  0  0  2  0  0  0  0  0  0
  191.8820  176.0950  138.2630 C   0  0  0  0  0  2  0  0  0  0  0  0
  1  6  1  0  0  0  0
  2 11  1  0  0  0  0
  2 12  1  0  0  0  0
  3 10  1  0  0  0  0
  4  8  2  0  0  0  0
  5  1  2  0  0  0  0
  7  9  2  0  0  0  0
  7  4  1  0  0  0  0
  8  1  1  0  0  0  0
  9  5  1  0  0  0  0
 10 11  2  0  0  0  0
 11  7  1  0  0  0  0
 12 15  2  0  0  0  0
 13  2  2  0  0  0  0
 14  3  2  0  0  0  0
 14 13  1  0  0  0  0
 15  4  1  0  0  0  0
 16 13  1  0  0  0  0
 18 17  1  0  0  0  0
 19 22  1  0  0  0  0
 19 21  1  0  0  0  0
 20 17  1  0  0  0  0
 21 20  1  0  0  0  0
 21 16  1  0  0  0  0
 22 18  1  0  0  0  0
 23 24  1  0  0  0  0
 24 18  1  0  0  0  0
 25  3  1  0  0  0  0
 26 25  1  0  0  0  0
 27 26  1  0  0  0  0
 29 28  1  1  0  0  0
 29 30  1  0  0  0  0
 29 27  1  0  0  0  0
 31 34  1  0  0  0  0
 31 30  1  0  0  0  0
 32 37  1  1  0  0  0
 32 33  1  0  0  0  0
 33 38  1  6  0  0  0
 35 36  1  6  0  0  0
 35 32  1  0  0  0  0
 35 31  1  0  0  0  0
 35 33  1  0  0  0  0
 37 34  2  0  0  0  0
 38 42  1  1  0  0  0
 38 43  1  0  0  0  0
 40 42  1  0  0  0  0
 40 41  1  0  0  0  0
 41 39  2  0  0  0  0
 43 39  1  0  0  0  0
M  END
>  <MODEL>
2

>  <REMARK>
 VINA RESULT:      -9.0      1.635      2.302
  Name = 
  10 active torsions:
  status: ('A' for Active; 'I' for Inactive)
    1  A    between atoms: C_1  and  C_34
    2  A    between atoms: C_1  and  N_35
    3  A    between atoms: C_2  and  N_7
    4  A    between atoms: C_2  and  C_13
    5  A    between atoms: C_3  and  N_4
    6  A    between atoms: C_3  and  C_12
    7  A    between atoms: N_7  and  C_17
    8  A    between atoms: N_11  and  C_14
    9  A    between atoms: C_12  and  C_17
   10  A    between atoms: N_19  and  C_37
                            x       y       z     vdW  Elec       q    Type
                         _______ _______ _______ _____ _____    ______ ____

>  <TORSDO>
F 10

$$$$
=
 OpenBabel11052416213D

 43 49  0  0  1  0  0  0  0  0999 V2000
  191.2920  176.6250  147.0050 C   0  0  0  0  0  0  0  0  0  0  0  0
  189.0110  177.9210  142.6790 C   0  0  0  0  0  0  0  0  0  0  0  0
  186.3080  178.1350  143.3030 C   0  0  0  0  0  0  0  0  0  0  0  0
  190.8270  177.2150  144.7050 C   0  0  0  0  0  0  0  0  0  0  0  0
  189.9340  176.7470  147.3140 C   0  0  0  0  0  3  0  0  0  0  0  0
  192.1990  176.2690  147.9920 O   0  0  0  0  0  1  0  0  0  0  0  0
  189.4500  177.3390  145.0100 C   0  0  0  0  0  0  0  0  0  0  0  0
  191.7380  176.8600  145.7030 C   0  0  0  0  0  3  0  0  0  0  0  0
  189.0160  177.1020  146.3220 C   0  0  0  0  0  3  0  0  0  0  0  0
  187.2100  177.8080  144.2650 N   0  0  0  0  0  0  0  0  0  0  0  0
  188.5410  177.6910  143.9950 C   0  0  0  0  0  0  0  0  0  0  0  0
  190.3800  177.7980  142.4000 C   0  0  0  0  0  3  0  0  0  0  0  0
  188.0870  178.2710  141.6780 C   0  0  0  0  0  0  0  0  0  0  0  0
  186.7320  178.3730  141.9960 C   0  0  0  0  0  3  0  0  0  0  0  0
  191.2810  177.4470  143.4060 C   0  0  0  0  0  3  0  0  0  0  0  0
  188.5070  178.5000  140.2600 C   0  0  0  0  0  2  0  0  0  0  0  0
  188.2880  178.6020  137.2920 C   0  0  0  0  0  2  0  0  0  0  0  0
  189.5480  177.9320  136.9530 N   0  0  0  0  0  0  0  0  0  0  0  0
  189.3520  176.6010  139.0580 C   0  0  0  0  0  2  0  0  0  0  0  0
  187.4170  177.7760  138.2490 C   0  0  0  0  0  2  0  0  0  0  0  0
  188.1500  177.3440  139.4410 N   0  0  0  0  0  0  0  0  0  0  0  0
  190.2640  177.4040  138.1200 C   0  0  0  0  0  2  0  0  0  0  0  0
  190.6180  176.0330  135.7090 C   0  0  0  0  0  1  0  0  0  0  0  0
  189.4160  176.9610  135.8590 C   0  0  0  0  0  2  0  0  0  0  0  0
  184.8680  178.2610  143.6510 C   0  0  0  0  0  2  0  0  0  0  0  0
  184.1790  179.0200  142.6220 N   0  0  0  0  0  2  0  0  0  0  0  0
  183.1480  178.1550  142.0730 C   0  0  0  0  0  2  0  0  0  0  0  0
  181.0610  178.5950  143.1200 F   0  0  0  0  0  0  0  0  0  0  0  0
  181.8230  178.9010  142.0090 C   0  0  2  0  0  3  0  0  0  0  0  0
  181.0620  178.5010  140.7570 C   0  0  0  0  0  2  0  0  0  0  0  0
  181.1670  179.5450  139.7430 N   0  0  0  0  0  0  0  0  0  0  0  0
  181.6330  179.2020  137.3820 C   0  0  2  0  0  3  0  0  0  0  0  0
  182.0310  177.8590  137.9930 C   0  0  2  0  0  3  0  0  0  0  0  0
  179.8930  179.6150  139.0340 C   0  0  0  0  0  3  0  0  0  0  0  0
  182.2000  179.1650  138.7780 C   0  0  2  0  0  0  0  0  0  0  0  0
  183.5380  179.8830  138.8750 C   0  0  0  0  0  1  0  0  0  0  0  0
  180.1500  179.4270  137.5510 C   0  0  0  0  0  3  0  0  0  0  0  0
  183.2970  177.4110  137.4290 N   0  0  2  0  0  0  0  0  0  0  0  0
  184.6910  175.4210  137.1820 C   0  0  0  0  0  3  0  0  0  0  0  0
  184.4660  176.9700  135.3410 C   0  0  0  0  0  2  0  0  0  0  0  0
  185.0720  175.8370  136.0190 N   0  0  0  0  0  0  0  0  0  0  0  0
  183.1330  177.3630  135.9780 C   0  0  0  0  0  2  0  0  0  0  0  0
  183.5080  176.0360  137.8820 C   0  0  0  0  0  2  0  0  0  0  0  0
  1  5  1  0  0  0  0
  1  6  1  0  0  0  0
  2 11  1  0  0  0  0
  3 25  1  0  0  0  0
  3 10  1  0  0  0  0
  4  7  2  0  0  0  0
  4  8  1  0  0  0  0
  7  9  1  0  0  0  0
  8  1  2  0  0  0  0
  9  5  2  0  0  0  0
 11 10  2  0  0  0  0
 11  7  1  0  0  0  0
 12  2  1  0  0  0  0
 12 15  2  0  0  0  0
 13 14  1  0  0  0  0
 13  2  2  0  0  0  0
 14  3  2  0  0  0  0
 15  4  1  0  0  0  0
 16 13  1  0  0  0  0
 17 20  1  0  0  0  0
 18 17  1  0  0  0  0
 18 22  1  0  0  0  0
 19 21  1  0  0  0  0
 20 21  1  0  0  0  0
 21 16  1  0  0  0  0
 22 19  1  0  0  0  0
 23 24  1  0  0  0  0
 24 18  1  0  0  0  0
 26 25  1  0  0  0  0
 27 26  1  0  0  0  0
 29 27  1  0  0  0  0
 29 28  1  1  0  0  0
 30 29  1  0  0  0  0
 31 30  1  0  0  0  0
 32 37  1  1  0  0  0
 32 33  1  0  0  0  0
 32 35  1  0  0  0  0
 33 38  1  6  0  0  0
 33 35  1  0  0  0  0
 34 31  1  0  0  0  0
 35 36  1  1  0  0  0
 35 31  1  0  0  0  0
 37 34  2  0  0  0  0
 38 42  1  6  0  0  0
 38 43  1  0  0  0  0
 39 43  1  0  0  0  0
 40 42  1  0  0  0  0
 40 41  1  0  0  0  0
 41 39  2  0  0  0  0
M  END
>  <MODEL>
3

>  <REMARK>
 VINA RESULT:      -9.0      2.467      7.044
  Name = 
  10 active torsions:
  status: ('A' for Active; 'I' for Inactive)
    1  A    between atoms: C_1  and  C_34
    2  A    between atoms: C_1  and  N_35
    3  A    between atoms: C_2  and  N_7
    4  A    between atoms: C_2  and  C_13
    5  A    between atoms: C_3  and  N_4
    6  A    between atoms: C_3  and  C_12
    7  A    between atoms: N_7  and  C_17
    8  A    between atoms: N_11  and  C_14
    9  A    between atoms: C_12  and  C_17
   10  A    between atoms: N_19  and  C_37
                            x       y       z     vdW  Elec       q    Type
                         _______ _______ _______ _____ _____    ______ ____

>  <TORSDO>
F 10

$$$$
=
 OpenBabel11052416213D

 43 49  0  0  1  0  0  0  0  0999 V2000
  191.1830  176.9560  147.1310 C   0  0  0  0  0  0  0  0  0  0  0  0
  187.1810  177.6400  144.1120 C   0  0  0  0  0  0  0  0  0  0  0  0
  188.2330  178.0200  141.5640 C   0  0  0  0  0  0  0  0  0  0  0  0
  188.9380  177.2020  146.2610 C   0  0  0  0  0  0  0  0  0  0  0  0
  191.7030  177.1350  145.8450 C   0  0  0  0  0  3  0  0  0  0  0  0
  192.0370  176.7470  148.2020 O   0  0  0  0  0  1  0  0  0  0  0  0
  189.4580  177.3860  144.9570 C   0  0  0  0  0  0  0  0  0  0  0  0
  189.8020  176.9880  147.3380 C   0  0  0  0  0  3  0  0  0  0  0  0
  190.8460  177.3490  144.7630 C   0  0  0  0  0  3  0  0  0  0  0  0
  189.0570  177.7940  142.6200 N   0  0  0  0  0  0  0  0  0  0  0  0
  188.5780  177.6060  143.8820 C   0  0  0  0  0  0  0  0  0  0  0  0
  186.6870  177.4510  145.4110 C   0  0  0  0  0  3  0  0  0  0  0  0
  186.3170  177.8630  143.0240 C   0  0  0  0  0  0  0  0  0  0  0  0
  186.8510  178.0570  141.7490 C   0  0  0  0  0  3  0  0  0  0  0  0
  187.5600  177.2340  146.4770 C   0  0  0  0  0  3  0  0  0  0  0  0
  184.8330  177.9410  143.1970 C   0  0  0  0  0  2  0  0  0  0  0  0
  182.5170  178.2020  141.3430 C   0  0  0  0  0  2  0  0  0  0  0  0
  181.5090  178.6550  142.3080 N   0  0  0  0  0  0  0  0  0  0  0  0
  183.3280  179.7660  143.6120 C   0  0  0  0  0  2  0  0  0  0  0  0
  183.7840  179.0680  141.3570 C   0  0  0  0  0  2  0  0  0  0  0  0
  184.3400  179.2250  142.7030 N   0  0  0  0  0  0  0  0  0  0  0  0
  182.0530  178.9120  143.6460 C   0  0  0  0  0  2  0  0  0  0  0  0
  179.6720  180.2840  142.8250 C   0  0  0  0  0  1  0  0  0  0  0  0
  180.6660  179.7450  141.8010 C   0  0  0  0  0  2  0  0  0  0  0  0
  188.8050  178.2070  140.2040 C   0  0  0  0  0  2  0  0  0  0  0  0
  189.4880  176.9940  139.7890 N   0  0  0  0  0  2  0  0  0  0  0  0
  189.2360  176.8300  138.3660 C   0  0  0  0  0  2  0  0  0  0  0  0
  190.2400  177.0560  136.2250 F   0  0  0  0  0  0  0  0  0  0  0  0
  190.5150  177.0780  137.5800 C   0  0  2  0  0  3  0  0  0  0  0  0
  191.5380  176.0000  137.8980 C   0  0  0  0  0  2  0  0  0  0  0  0
  192.0550  175.4120  136.6670 N   0  0  0  0  0  0  0  0  0  0  0  0
  193.9840  173.9440  136.4870 C   0  0  2  0  0  3  0  0  0  0  0  0
  194.1570  174.5420  137.8820 C   0  0  2  0  0  3  0  0  0  0  0  0
  191.5530  174.0460  136.5750 C   0  0  0  0  0  3  0  0  0  0  0  0
  193.5160  175.3520  136.7500 C   0  0  2  0  0  0  0  0  0  0  0  0
  194.2990  176.3790  135.9460 C   0  0  0  0  0  1  0  0  0  0  0  0
  192.7330  173.1010  136.4380 C   0  0  0  0  0  3  0  0  0  0  0  0
  195.5470  174.9280  138.0900 N   0  0  2  0  0  0  0  0  0  0  0  0
  197.2780  175.0150  139.8100 C   0  0  0  0  0  3  0  0  0  0  0  0
  197.8460  174.3330  137.5620 C   0  0  0  0  0  2  0  0  0  0  0  0
  198.1730  174.7410  138.9180 N   0  0  0  0  0  0  0  0  0  0  0  0
  196.3790  173.9230  137.4340 C   0  0  0  0  0  2  0  0  0  0  0  0
  195.8110  174.8320  139.5260 C   0  0  0  0  0  2  0  0  0  0  0  0
  1  8  1  0  0  0  0
  1  6  1  0  0  0  0
  2 12  1  0  0  0  0
  3 14  2  0  0  0  0
  3 10  1  0  0  0  0
  4 15  1  0  0  0  0
  4  8  2  0  0  0  0
  5  1  2  0  0  0  0
  7  4  1  0  0  0  0
  9  7  2  0  0  0  0
  9  5  1  0  0  0  0
 10 11  2  0  0  0  0
 11  2  1  0  0  0  0
 11  7  1  0  0  0  0
 12 15  2  0  0  0  0
 13 16  1  0  0  0  0
 13  2  2  0  0  0  0
 14 13  1  0  0  0  0
 17 20  1  0  0  0  0
 17 18  1  0  0  0  0
 18 22  1  0  0  0  0
 19 22  1  0  0  0  0
 20 21  1  0  0  0  0
 21 16  1  0  0  0  0
 21 19  1  0  0  0  0
 24 18  1  0  0  0  0
 24 23  1  0  0  0  0
 25  3  1  0  0  0  0
 26 25  1  0  0  0  0
 27 26  1  0  0  0  0
 29 28  1  6  0  0  0
 29 30  1  0  0  0  0
 29 27  1  0  0  0  0
 31 35  1  0  0  0  0
 31 30  1  0  0  0  0
 32 37  1  1  0  0  0
 32 35  1  0  0  0  0
 32 33  1  0  0  0  0
 33 38  1  6  0  0  0
 34 31  1  0  0  0  0
 35 36  1  6  0  0  0
 35 33  1  0  0  0  0
 37 34  2  0  0  0  0
 38 42  1  6  0  0  0
 38 43  1  0  0  0  0
 40 41  1  0  0  0  0
 41 39  2  0  0  0  0
 42 40  1  0  0  0  0
 43 39  1  0  0  0  0
M  END
>  <MODEL>
4

>  <REMARK>
 VINA RESULT:      -9.0      1.684      2.659
  Name = 
  10 active torsions:
  status: ('A' for Active; 'I' for Inactive)
    1  A    between atoms: C_1  and  C_34
    2  A    between atoms: C_1  and  N_35
    3  A    between atoms: C_2  and  N_7
    4  A    between atoms: C_2  and  C_13
    5  A    between atoms: C_3  and  N_4
    6  A    between atoms: C_3  and  C_12
    7  A    between atoms: N_7  and  C_17
    8  A    between atoms: N_11  and  C_14
    9  A    between atoms: C_12  and  C_17
   10  A    between atoms: N_19  and  C_37
                            x       y       z     vdW  Elec       q    Type
                         _______ _______ _______ _____ _____    ______ ____

>  <TORSDO>
F 10

$$$$
=
 OpenBabel11052416213D

 43 49  0  0  1  0  0  0  0  0999 V2000
  187.9150  177.4440  147.3280 C   0  0  0  0  0  0  0  0  0  0  0  0
  186.3800  178.4450  142.6130 C   0  0  0  0  0  0  0  0  0  0  0  0
  188.6110  178.0270  141.0030 C   0  0  0  0  0  0  0  0  0  0  0  0
  186.6030  178.0430  145.3850 C   0  0  0  0  0  0  0  0  0  0  0  0
  189.0280  177.2240  146.5120 C   0  0  0  0  0  3  0  0  0  0  0  0
  188.0120  177.2580  148.6980 O   0  0  0  0  0  1  0  0  0  0  0  0
  187.7270  177.8240  144.5520 C   0  0  0  0  0  0  0  0  0  0  0  0
  186.7040  177.8520  146.7650 C   0  0  0  0  0  3  0  0  0  0  0  0
  188.9360  177.4130  145.1300 C   0  0  0  0  0  3  0  0  0  0  0  0
  188.6860  177.8290  142.3450 N   0  0  0  0  0  0  0  0  0  0  0  0
  187.6150  178.0270  143.1650 C   0  0  0  0  0  0  0  0  0  0  0  0
  185.2770  178.6520  143.4550 C   0  0  0  0  0  3  0  0  0  0  0  0
  186.2870  178.6430  141.2230 C   0  0  0  0  0  0  0  0  0  0  0  0
  187.4110  178.4360  140.4210 C   0  0  0  0  0  3  0  0  0  0  0  0
  185.3900  178.4520  144.8320 C   0  0  0  0  0  3  0  0  0  0  0  0
  185.0230  179.1130  140.5740 C   0  0  0  0  0  2  0  0  0  0  0  0
  182.1070  178.5460  140.7700 C   0  0  0  0  0  2  0  0  0  0  0  0
  181.6920  179.0590  139.4600 N   0  0  0  0  0  0  0  0  0  0  0  0
  183.9290  178.4170  138.5530 C   0  0  0  0  0  2  0  0  0  0  0  0
  183.2380  177.5140  140.6710 C   0  0  0  0  0  2  0  0  0  0  0  0
  184.3730  178.0010  139.8840 N   0  0  0  0  0  0  0  0  0  0  0  0
  182.8140  179.4700  138.6090 C   0  0  0  0  0  2  0  0  0  0  0  0
  179.7060  177.5450  139.7070 C   0  0  0  0  0  1  0  0  0  0  0  0
  180.7250  178.1920  138.7740 C   0  0  0  0  0  2  0  0  0  0  0  0
  189.8050  177.7870  140.1510 C   0  0  0  0  0  2  0  0  0  0  0  0
  189.8920  176.3760  139.8150 N   0  0  0  0  0  2  0  0  0  0  0  0
  190.9740  176.2340  138.8550 C   0  0  0  0  0  2  0  0  0  0  0  0
  190.9400  176.1830  136.4800 F   0  0  0  0  0  0  0  0  0  0  0  0
  190.4700  175.5300  137.6040 C   0  0  2  0  0  3  0  0  0  0  0  0
  188.9500  175.5330  137.5830 C   0  0  0  0  0  2  0  0  0  0  0  0
  188.4610  176.2200  136.3920 N   0  0  0  0  0  0  0  0  0  0  0  0
  186.1300  176.5030  135.7640 C   0  0  2  0  0  3  0  0  0  0  0  0
  186.0520  175.4090  136.8270 C   0  0  2  0  0  3  0  0  0  0  0  0
  188.0670  177.5700  136.7810 C   0  0  0  0  0  3  0  0  0  0  0  0
  187.2680  175.5260  135.9020 C   0  0  2  0  0  0  0  0  0  0  0  0
  187.4320  174.6540  134.6670 C   0  0  0  0  0  1  0  0  0  0  0  0
  186.6200  177.7910  136.3820 C   0  0  0  0  0  3  0  0  0  0  0  0
  185.1500  174.3520  136.3880 N   0  0  2  0  0  0  0  0  0  0  0  0
  184.0460  172.3210  137.1760 C   0  0  0  0  0  3  0  0  0  0  0  0
  182.8490  173.8720  135.7620 C   0  0  0  0  0  2  0  0  0  0  0  0
  183.0180  172.6000  136.4440 N   0  0  0  0  0  0  0  0  0  0  0  0
  183.8130  174.9320  136.2940 C   0  0  0  0  0  2  0  0  0  0  0  0
  185.1100  173.3500  137.4550 C   0  0  0  0  0  2  0  0  0  0  0  0
  1  6  1  0  0  0  0
  2 11  1  0  0  0  0
  2 12  1  0  0  0  0
  3 10  1  0  0  0  0
  4  8  2  0  0  0  0
  5  1  2  0  0  0  0
  7  9  2  0  0  0  0
  7  4  1  0  0  0  0
  8  1  1  0  0  0  0
  9  5  1  0  0  0  0
 10 11  2  0  0  0  0
 11  7  1  0  0  0  0
 12 15  2  0  0  0  0
 13  2  2  0  0  0  0
 14  3  2  0  0  0  0
 14 13  1  0  0  0  0
 15  4  1  0  0  0  0
 16 13  1  0  0  0  0
 18 17  1  0  0  0  0
 19 22  1  0  0  0  0
 19 21  1  0  0  0  0
 20 17  1  0  0  0  0
 21 16  1  0  0  0  0
 21 20  1  0  0  0  0
 22 18  1  0  0  0  0
 24 18  1  0  0  0  0
 24 23  1  0  0  0  0
 25  3  1  0  0  0  0
 26 25  1  0  0  0  0
 27 26  1  0  0  0  0
 29 28  1  6  0  0  0
 29 27  1  0  0  0  0
 30 29  1  0  0  0  0
 31 34  1  0  0  0  0
 31 30  1  0  0  0  0
 32 35  1  0  0  0  0
 32 37  1  1  0  0  0
 32 33  1  0  0  0  0
 33 38  1  6  0  0  0
 35 36  1  6  0  0  0
 35 31  1  0  0  0  0
 35 33  1  0  0  0  0
 37 34  2  0  0  0  0
 38 42  1  1  0  0  0
 38 43  1  0  0  0  0
 39 43  1  0  0  0  0
 40 42  1  0  0  0  0
 40 41  1  0  0  0  0
 41 39  2  0  0  0  0
M  END
>  <MODEL>
5

>  <REMARK>
 VINA RESULT:      -9.0      2.363      4.547
  Name = 
  10 active torsions:
  status: ('A' for Active; 'I' for Inactive)
    1  A    between atoms: C_1  and  C_34
    2  A    between atoms: C_1  and  N_35
    3  A    between atoms: C_2  and  N_7
    4  A    between atoms: C_2  and  C_13
    5  A    between atoms: C_3  and  N_4
    6  A    between atoms: C_3  and  C_12
    7  A    between atoms: N_7  and  C_17
    8  A    between atoms: N_11  and  C_14
    9  A    between atoms: C_12  and  C_17
   10  A    between atoms: N_19  and  C_37
                            x       y       z     vdW  Elec       q    Type
                         _______ _______ _______ _____ _____    ______ ____

>  <TORSDO>
F 10

$$$$
=
 OpenBabel11052416213D

 43 49  0  0  1  0  0  0  0  0999 V2000
  191.2720  176.5560  146.9130 C   0  0  0  0  0  0  0  0  0  0  0  0
  188.9890  177.9020  142.6040 C   0  0  0  0  0  0  0  0  0  0  0  0
  186.3100  178.2600  143.2650 C   0  0  0  0  0  0  0  0  0  0  0  0
  190.8000  177.1360  144.6120 C   0  0  0  0  0  0  0  0  0  0  0  0
  189.9260  176.7500  147.2410 C   0  0  0  0  0  3  0  0  0  0  0  0
  192.1750  176.1700  147.8910 O   0  0  0  0  0  1  0  0  0  0  0  0
  189.4360  177.3320  144.9360 C   0  0  0  0  0  0  0  0  0  0  0  0
  191.7080  176.7500  145.6010 C   0  0  0  0  0  3  0  0  0  0  0  0
  189.0120  177.1370  146.2580 C   0  0  0  0  0  3  0  0  0  0  0  0
  187.2110  177.9020  144.2180 N   0  0  0  0  0  0  0  0  0  0  0  0
  188.5300  177.7150  143.9300 C   0  0  0  0  0  0  0  0  0  0  0  0
  190.3460  177.7070  142.3050 C   0  0  0  0  0  3  0  0  0  0  0  0
  188.0680  178.2840  141.6110 C   0  0  0  0  0  0  0  0  0  0  0  0
  186.7250  178.4580  141.9480 C   0  0  0  0  0  3  0  0  0  0  0  0
  191.2440  177.3260  143.3030 C   0  0  0  0  0  3  0  0  0  0  0  0
  188.4760  178.4720  140.1840 C   0  0  0  0  0  2  0  0  0  0  0  0
  187.9490  178.5560  137.2540 C   0  0  0  0  0  2  0  0  0  0  0  0
  189.2050  177.9600  136.7850 N   0  0  0  0  0  0  0  0  0  0  0  0
  189.3030  176.6230  138.8930 C   0  0  0  0  0  2  0  0  0  0  0  0
  187.2310  177.6830  138.2920 C   0  0  0  0  0  2  0  0  0  0  0  0
  188.1050  177.2950  139.4000 N   0  0  0  0  0  0  0  0  0  0  0  0
  190.0660  177.4760  137.8710 C   0  0  0  0  0  2  0  0  0  0  0  0
  187.9850  177.4010  134.6650 C   0  0  0  0  0  1  0  0  0  0  0  0
  189.0190  176.9820  135.7060 C   0  0  0  0  0  2  0  0  0  0  0  0
  184.8840  178.4630  143.6330 C   0  0  0  0  0  2  0  0  0  0  0  0
  184.0710  178.5170  142.4310 N   0  0  0  0  0  2  0  0  0  0  0  0
  182.7230  178.8730  142.8450 C   0  0  0  0  0  2  0  0  0  0  0  0
  180.9590  177.8490  141.6260 F   0  0  0  0  0  0  0  0  0  0  0  0
  181.8070  178.9410  141.6320 C   0  0  2  0  0  3  0  0  0  0  0  0
  182.6330  178.9360  140.3560 C   0  0  0  0  0  2  0  0  0  0  0  0
  181.9840  178.1220  139.3340 N   0  0  0  0  0  0  0  0  0  0  0  0
  181.4190  178.8410  137.0820 C   0  0  2  0  0  3  0  0  0  0  0  0
  181.6900  180.1670  137.7910 C   0  0  2  0  0  3  0  0  0  0  0  0
  183.0190  177.6090  138.4430 C   0  0  0  0  0  3  0  0  0  0  0  0
  181.0920  178.9750  138.5470 C   0  0  2  0  0  0  0  0  0  0  0  0
  179.6000  178.8540  138.8170 C   0  0  0  0  0  1  0  0  0  0  0  0
  182.6850  178.0200  137.0210 C   0  0  0  0  0  3  0  0  0  0  0  0
  180.6640  181.1400  137.4360 N   0  0  2  0  0  0  0  0  0  0  0  0
  180.2660  183.5450  137.2960 C   0  0  0  0  0  3  0  0  0  0  0  0
  179.4160  182.0810  135.5710 C   0  0  0  0  0  2  0  0  0  0  0  0
  179.5170  183.3570  136.2590 N   0  0  0  0  0  0  0  0  0  0  0  0
  180.5390  181.1280  135.9810 C   0  0  0  0  0  2  0  0  0  0  0  0
  181.1730  182.4590  137.8120 C   0  0  0  0  0  2  0  0  0  0  0  0
  1  5  1  0  0  0  0
  1  6  1  0  0  0  0
  2 11  1  0  0  0  0
  3 25  1  0  0  0  0
  3 10  1  0  0  0  0
  4  7  2  0  0  0  0
  4  8  1  0  0  0  0
  7  9  1  0  0  0  0
  8  1  2  0  0  0  0
  9  5  2  0  0  0  0
 11 10  2  0  0  0  0
 11  7  1  0  0  0  0
 12  2  1  0  0  0  0
 12 15  2  0  0  0  0
 13 14  1  0  0  0  0
 13  2  2  0  0  0  0
 14  3  2  0  0  0  0
 15  4  1  0  0  0  0
 16 13  1  0  0  0  0
 17 20  1  0  0  0  0
 18 17  1  0  0  0  0
 18 22  1  0  0  0  0
 19 21  1  0  0  0  0
 20 21  1  0  0  0  0
 21 16  1  0  0  0  0
 22 19  1  0  0  0  0
 23 24  1  0  0  0  0
 24 18  1  0  0  0  0
 26 27  1  0  0  0  0
 26 25  1  0  0  0  0
 29 28  1  6  0  0  0
 29 27  1  0  0  0  0
 30 29  1  0  0  0  0
 31 30  1  0  0  0  0
 32 37  1  1  0  0  0
 32 33  1  0  0  0  0
 32 35  1  0  0  0  0
 33 38  1  6  0  0  0
 33 35  1  0  0  0  0
 34 31  1  0  0  0  0
 35 36  1  1  0  0  0
 35 31  1  0  0  0  0
 37 34  2  0  0  0  0
 38 42  1  6  0  0  0
 38 43  1  0  0  0  0
 39 43  1  0  0  0  0
 40 42  1  0  0  0  0
 40 41  1  0  0  0  0
 41 39  2  0  0  0  0
M  END
>  <MODEL>
6

>  <REMARK>
 VINA RESULT:      -8.9      3.122      7.993
  Name = 
  10 active torsions:
  status: ('A' for Active; 'I' for Inactive)
    1  A    between atoms: C_1  and  C_34
    2  A    between atoms: C_1  and  N_35
    3  A    between atoms: C_2  and  N_7
    4  A    between atoms: C_2  and  C_13
    5  A    between atoms: C_3  and  N_4
    6  A    between atoms: C_3  and  C_12
    7  A    between atoms: N_7  and  C_17
    8  A    between atoms: N_11  and  C_14
    9  A    between atoms: C_12  and  C_17
   10  A    between atoms: N_19  and  C_37
                            x       y       z     vdW  Elec       q    Type
                         _______ _______ _______ _____ _____    ______ ____

>  <TORSDO>
F 10

$$$$
=
 OpenBabel11052416213D

 43 49  0  0  1  0  0  0  0  0999 V2000
  181.6540  178.8170  143.1040 C   0  0  0  0  0  0  0  0  0  0  0  0
  186.6530  178.4170  143.7720 C   0  0  0  0  0  0  0  0  0  0  0  0
  187.7320  178.2610  141.2120 C   0  0  0  0  0  0  0  0  0  0  0  0
  183.8680  178.6570  144.0670 C   0  0  0  0  0  0  0  0  0  0  0  0
  182.2040  178.7510  141.8200 C   0  0  0  0  0  3  0  0  0  0  0  0
  180.2810  178.9260  143.2660 O   0  0  0  0  0  1  0  0  0  0  0  0
  184.4320  178.5880  142.7700 C   0  0  0  0  0  0  0  0  0  0  0  0
  182.4850  178.7710  144.2250 C   0  0  0  0  0  3  0  0  0  0  0  0
  183.5870  178.6370  141.6530 C   0  0  0  0  0  3  0  0  0  0  0  0
  186.3900  178.3900  141.3850 N   0  0  0  0  0  0  0  0  0  0  0  0
  185.8260  178.4670  142.6230 C   0  0  0  0  0  0  0  0  0  0  0  0
  186.0730  178.4920  145.0480 C   0  0  0  0  0  3  0  0  0  0  0  0
  188.0440  178.2950  143.6060 C   0  0  0  0  0  0  0  0  0  0  0  0
  188.5790  178.2130  142.3190 C   0  0  0  0  0  3  0  0  0  0  0  0
  184.6910  178.6110  145.1930 C   0  0  0  0  0  3  0  0  0  0  0  0
  188.9760  178.2070  144.7730 C   0  0  0  0  0  2  0  0  0  0  0  0
  191.6390  176.8840  144.9340 C   0  0  0  0  0  2  0  0  0  0  0  0
  191.7980  176.8810  146.3920 N   0  0  0  0  0  0  0  0  0  0  0  0
  189.3160  176.7040  146.6150 C   0  0  0  0  0  2  0  0  0  0  0  0
  190.3200  176.2420  144.4810 C   0  0  0  0  0  2  0  0  0  0  0  0
  189.1560  176.8110  145.1640 N   0  0  0  0  0  0  0  0  0  0  0  0
  190.6120  177.3580  147.1120 C   0  0  0  0  0  2  0  0  0  0  0  0
  192.7820  175.6950  148.3730 C   0  0  0  0  0  1  0  0  0  0  0  0
  192.3310  175.6170  146.9170 C   0  0  0  0  0  2  0  0  0  0  0  0
  188.2980  178.1940  139.8400 C   0  0  0  0  0  2  0  0  0  0  0  0
  189.0450  176.9580  139.6780 N   0  0  0  0  0  2  0  0  0  0  0  0
  190.3920  177.3250  139.2700 C   0  0  0  0  0  2  0  0  0  0  0  0
  189.5210  176.3980  137.2630 F   0  0  0  0  0  0  0  0  0  0  0  0
  190.7000  176.7360  137.9020 C   0  0  2  0  0  3  0  0  0  0  0  0
  191.5580  175.4920  138.0530 C   0  0  0  0  0  2  0  0  0  0  0  0
  192.0790  175.0740  136.7550 N   0  0  0  0  0  0  0  0  0  0  0  0
  194.1170  173.8030  136.3770 C   0  0  2  0  0  3  0  0  0  0  0  0
  194.2880  174.2740  137.8200 C   0  0  2  0  0  3  0  0  0  0  0  0
  191.6900  173.6850  136.5390 C   0  0  0  0  0  3  0  0  0  0  0  0
  193.5420  175.1330  136.7930 C   0  0  2  0  0  0  0  0  0  0  0  0
  194.2080  176.2970  136.0760 C   0  0  0  0  0  1  0  0  0  0  0  0
  192.9380  172.8640  136.2760 C   0  0  0  0  0  3  0  0  0  0  0  0
  195.6470  174.7560  138.0280 N   0  0  2  0  0  0  0  0  0  0  0  0
  197.3550  174.9950  139.7570 C   0  0  0  0  0  3  0  0  0  0  0  0
  197.9850  174.3040  137.5290 C   0  0  0  0  0  2  0  0  0  0  0  0
  198.2730  174.7630  138.8780 N   0  0  0  0  0  0  0  0  0  0  0  0
  196.5500  173.7950  137.4000 C   0  0  0  0  0  2  0  0  0  0  0  0
  195.9050  174.7090  139.4680 C   0  0  0  0  0  2  0  0  0  0  0  0
  1  6  1  0  0  0  0
  1  8  1  0  0  0  0
  2 12  1  0  0  0  0
  3 10  2  0  0  0  0
  3 14  1  0  0  0  0
  4  8  2  0  0  0  0
  4 15  1  0  0  0  0
  5  1  2  0  0  0  0
  7  4  1  0  0  0  0
  9  5  1  0  0  0  0
  9  7  2  0  0  0  0
 10 11  1  0  0  0  0
 11  7  1  0  0  0  0
 11  2  2  0  0  0  0
 12 15  2  0  0  0  0
 13  2  1  0  0  0  0
 13 16  1  0  0  0  0
 14 13  2  0  0  0  0
 16 21  1  0  0  0  0
 17 18  1  0  0  0  0
 18 24  1  0  0  0  0
 18 22  1  0  0  0  0
 19 22  1  0  0  0  0
 20 17  1  0  0  0  0
 20 21  1  0  0  0  0
 21 19  1  0  0  0  0
 24 23  1  0  0  0  0
 25  3  1  0  0  0  0
 26 25  1  0  0  0  0
 27 26  1  0  0  0  0
 29 28  1  1  0  0  0
 29 30  1  0  0  0  0
 29 27  1  0  0  0  0
 31 35  1  0  0  0  0
 31 30  1  0  0  0  0
 32 37  1  1  0  0  0
 32 35  1  0  0  0  0
 32 33  1  0  0  0  0
 33 38  1  6  0  0  0
 34 31  1  0  0  0  0
 35 36  1  6  0  0  0
 35 33  1  0  0  0  0
 37 34  2  0  0  0  0
 38 42  1  6  0  0  0
 38 43  1  0  0  0  0
 40 41  1  0  0  0  0
 41 39  2  0  0  0  0
 42 40  1  0  0  0  0
 43 39  1  0  0  0  0
M  END
>  <MODEL>
7

>  <REMARK>
 VINA RESULT:      -8.9      2.899      6.527
  Name = 
  10 active torsions:
  status: ('A' for Active; 'I' for Inactive)
    1  A    between atoms: C_1  and  C_34
    2  A    between atoms: C_1  and  N_35
    3  A    between atoms: C_2  and  N_7
    4  A    between atoms: C_2  and  C_13
    5  A    between atoms: C_3  and  N_4
    6  A    between atoms: C_3  and  C_12
    7  A    between atoms: N_7  and  C_17
    8  A    between atoms: N_11  and  C_14
    9  A    between atoms: C_12  and  C_17
   10  A    between atoms: N_19  and  C_37
                            x       y       z     vdW  Elec       q    Type
                         _______ _______ _______ _____ _____    ______ ____

>  <TORSDO>
F 10

$$$$
=
 OpenBabel11052416213D

 43 49  0  0  1  0  0  0  0  0999 V2000
  188.0880  177.4710  147.4380 C   0  0  0  0  0  0  0  0  0  0  0  0
  186.0880  178.4100  142.8870 C   0  0  0  0  0  0  0  0  0  0  0  0
  188.2090  178.2350  141.0950 C   0  0  0  0  0  0  0  0  0  0  0  0
  186.5720  177.9790  145.6210 C   0  0  0  0  0  0  0  0  0  0  0  0
  189.1470  177.3720  146.5300 C   0  0  0  0  0  3  0  0  0  0  0  0
  188.3130  177.2690  148.7910 O   0  0  0  0  0  1  0  0  0  0  0  0
  187.6400  177.8830  144.6970 C   0  0  0  0  0  0  0  0  0  0  0  0
  186.8020  177.7730  146.9830 C   0  0  0  0  0  3  0  0  0  0  0  0
  188.9250  177.5770  145.1660 C   0  0  0  0  0  3  0  0  0  0  0  0
  188.4110  178.0200  142.4210 N   0  0  0  0  0  0  0  0  0  0  0  0
  187.3970  178.1000  143.3280 C   0  0  0  0  0  0  0  0  0  0  0  0
  185.0430  178.4960  143.8190 C   0  0  0  0  0  3  0  0  0  0  0  0
  185.8640  178.6240  141.5140 C   0  0  0  0  0  0  0  0  0  0  0  0
  186.9330  178.5390  140.6210 C   0  0  0  0  0  3  0  0  0  0  0  0
  185.2850  178.2820  145.1770 C   0  0  0  0  0  3  0  0  0  0  0  0
  184.5140  178.9840  140.9800 C   0  0  0  0  0  2  0  0  0  0  0  0
  181.7880  177.8530  140.5830 C   0  0  0  0  0  2  0  0  0  0  0  0
  181.3440  178.7230  139.4880 N   0  0  0  0  0  0  0  0  0  0  0  0
  183.7150  178.8840  138.7170 C   0  0  0  0  0  2  0  0  0  0  0  0
  183.1230  177.1580  140.2830 C   0  0  0  0  0  2  0  0  0  0  0  0
  184.1650  178.1000  139.8700 N   0  0  0  0  0  0  0  0  0  0  0  0
  182.3940  179.6170  138.9870 C   0  0  0  0  0  2  0  0  0  0  0  0
  179.7010  176.9070  138.9370 C   0  0  0  0  0  1  0  0  0  0  0  0
  180.6320  178.0020  138.4240 C   0  0  0  0  0  2  0  0  0  0  0  0
  189.3480  178.1250  140.1450 C   0  0  0  0  0  2  0  0  0  0  0  0
  189.5930  176.7270  139.8340 N   0  0  0  0  0  2  0  0  0  0  0  0
  189.3580  176.5610  138.4090 C   0  0  0  0  0  2  0  0  0  0  0  0
  190.4160  176.7650  136.2910 F   0  0  0  0  0  0  0  0  0  0  0  0
  190.6700  176.6870  137.6480 C   0  0  2  0  0  3  0  0  0  0  0  0
  191.5480  175.4780  137.9220 C   0  0  0  0  0  2  0  0  0  0  0  0
  192.1840  175.0240  136.6900 N   0  0  0  0  0  0  0  0  0  0  0  0
  194.2860  173.8130  136.5310 C   0  0  2  0  0  3  0  0  0  0  0  0
  194.3260  174.3520  137.9590 C   0  0  2  0  0  3  0  0  0  0  0  0
  191.8600  173.6130  136.5090 C   0  0  0  0  0  3  0  0  0  0  0  0
  193.6370  175.1370  136.8380 C   0  0  2  0  0  0  0  0  0  0  0  0
  194.3190  176.2930  136.1220 C   0  0  0  0  0  1  0  0  0  0  0  0
  193.1510  172.8270  136.3830 C   0  0  0  0  0  3  0  0  0  0  0  0
  195.6480  174.8920  138.2500 N   0  0  2  0  0  0  0  0  0  0  0  0
  197.2260  175.2220  140.0850 C   0  0  0  0  0  3  0  0  0  0  0  0
  198.0310  174.5320  137.9130 C   0  0  0  0  0  2  0  0  0  0  0  0
  198.2090  175.0170  139.2710 N   0  0  0  0  0  0  0  0  0  0  0  0
  196.6290  173.9620  137.6960 C   0  0  0  0  0  2  0  0  0  0  0  0
  195.8110  174.8720  139.7040 C   0  0  0  0  0  2  0  0  0  0  0  0
  1  6  1  0  0  0  0
  2 11  1  0  0  0  0
  2 12  1  0  0  0  0
  3 10  1  0  0  0  0
  4  8  2  0  0  0  0
  5  1  2  0  0  0  0
  7  9  2  0  0  0  0
  7  4  1  0  0  0  0
  8  1  1  0  0  0  0
  9  5  1  0  0  0  0
 10 11  2  0  0  0  0
 11  7  1  0  0  0  0
 12 15  2  0  0  0  0
 13  2  2  0  0  0  0
 14  3  2  0  0  0  0
 14 13  1  0  0  0  0
 15  4  1  0  0  0  0
 16 13  1  0  0  0  0
 18 17  1  0  0  0  0
 19 22  1  0  0  0  0
 19 21  1  0  0  0  0
 20 17  1  0  0  0  0
 21 20  1  0  0  0  0
 21 16  1  0  0  0  0
 22 18  1  0  0  0  0
 24 23  1  0  0  0  0
 24 18  1  0  0  0  0
 25  3  1  0  0  0  0
 26 25  1  0  0  0  0
 27 26  1  0  0  0  0
 29 28  1  6  0  0  0
 29 30  1  0  0  0  0
 29 27  1  0  0  0  0
 31 35  1  0  0  0  0
 31 30  1  0  0  0  0
 32 37  1  1  0  0  0
 32 35  1  0  0  0  0
 32 33  1  0  0  0  0
 33 38  1  6  0  0  0
 34 31  1  0  0  0  0
 35 36  1  6  0  0  0
 35 33  1  0  0  0  0
 37 34  2  0  0  0  0
 38 42  1  6  0  0  0
 38 43  1  0  0  0  0
 40 41  1  0  0  0  0
 41 39  2  0  0  0  0
 42 40  1  0  0  0  0
 43 39  1  0  0  0  0
M  END
>  <MODEL>
8

>  <REMARK>
 VINA RESULT:      -8.8      2.291      3.513
  Name = 
  10 active torsions:
  status: ('A' for Active; 'I' for Inactive)
    1  A    between atoms: C_1  and  C_34
    2  A    between atoms: C_1  and  N_35
    3  A    between atoms: C_2  and  N_7
    4  A    between atoms: C_2  and  C_13
    5  A    between atoms: C_3  and  N_4
    6  A    between atoms: C_3  and  C_12
    7  A    between atoms: N_7  and  C_17
    8  A    between atoms: N_11  and  C_14
    9  A    between atoms: C_12  and  C_17
   10  A    between atoms: N_19  and  C_37
                            x       y       z     vdW  Elec       q    Type
                         _______ _______ _______ _____ _____    ______ ____

>  <TORSDO>
F 10

$$$$
=
 OpenBabel11052416213D

 43 49  0  0  1  0  0  0  0  0999 V2000
  184.0060  178.8950  144.7270 C   0  0  0  0  0  0  0  0  0  0  0  0
  183.5950  178.4100  139.7080 C   0  0  0  0  0  0  0  0  0  0  0  0
  186.2090  178.3210  138.7570 C   0  0  0  0  0  0  0  0  0  0  0  0
  183.1580  178.6750  142.4720 C   0  0  0  0  0  0  0  0  0  0  0  0
  185.3160  178.8370  144.2430 C   0  0  0  0  0  3  0  0  0  0  0  0
  183.7740  179.0340  146.0870 O   0  0  0  0  0  1  0  0  0  0  0  0
  184.4820  178.6180  141.9740 C   0  0  0  0  0  0  0  0  0  0  0  0
  182.9290  178.8130  143.8420 C   0  0  0  0  0  3  0  0  0  0  0  0
  185.5540  178.6990  142.8730 C   0  0  0  0  0  3  0  0  0  0  0  0
  185.9670  178.4370  140.0890 N   0  0  0  0  0  0  0  0  0  0  0  0
  184.7000  178.4860  140.5910 C   0  0  0  0  0  0  0  0  0  0  0  0
  182.2910  178.4640  140.2230 C   0  0  0  0  0  3  0  0  0  0  0  0
  183.8330  178.2790  138.3280 C   0  0  0  0  0  0  0  0  0  0  0  0
  185.1470  178.2390  137.8560 C   0  0  0  0  0  3  0  0  0  0  0  0
  182.0760  178.5960  141.5950 C   0  0  0  0  0  3  0  0  0  0  0  0
  182.7160  178.2220  137.3340 C   0  0  0  0  0  2  0  0  0  0  0  0
  180.8600  175.9060  137.5820 C   0  0  0  0  0  2  0  0  0  0  0  0
  180.0540  176.1380  136.3780 N   0  0  0  0  0  0  0  0  0  0  0  0
  182.0590  177.1520  135.2870 C   0  0  0  0  0  2  0  0  0  0  0  0
  182.3650  175.8490  137.2840 C   0  0  0  0  0  2  0  0  0  0  0  0
  182.8300  177.0110  136.5240 N   0  0  0  0  0  0  0  0  0  0  0  0
  180.5490  177.2390  135.5440 C   0  0  0  0  0  2  0  0  0  0  0  0
  179.3830  173.7230  136.4950 C   0  0  0  0  0  1  0  0  0  0  0  0
  179.7710  174.9120  135.6210 C   0  0  0  0  0  2  0  0  0  0  0  0
  187.6090  178.2600  138.2610 C   0  0  0  0  0  2  0  0  0  0  0  0
  188.5230  178.6410  139.3240 N   0  0  0  0  0  2  0  0  0  0  0  0
  189.4480  177.5350  139.5080 C   0  0  0  0  0  2  0  0  0  0  0  0
  188.2440  176.6170  141.3390 F   0  0  0  0  0  0  0  0  0  0  0  0
  189.4780  177.1200  140.9710 C   0  0  2  0  0  3  0  0  0  0  0  0
  189.8090  178.3180  141.8450 C   0  0  0  0  0  2  0  0  0  0  0  0
  191.0370  178.0760  142.5940 N   0  0  0  0  0  0  0  0  0  0  0  0
  191.1910  177.0460  144.7900 C   0  0  2  0  0  3  0  0  0  0  0  0
  189.7060  177.3930  144.6940 C   0  0  2  0  0  3  0  0  0  0  0  0
  191.4200  176.6830  142.3940 C   0  0  0  0  0  3  0  0  0  0  0  0
  190.7670  178.2700  144.0200 C   0  0  2  0  0  0  0  0  0  0  0  0
  191.2770  179.5550  144.6540 C   0  0  0  0  0  1  0  0  0  0  0  0
  191.5480  176.0120  143.7490 C   0  0  0  0  0  3  0  0  0  0  0  0
  189.2500  177.9810  145.9480 N   0  0  2  0  0  0  0  0  0  0  0  0
  187.3040  178.0960  147.4180 C   0  0  0  0  0  3  0  0  0  0  0  0
  189.5180  177.8950  148.3640 C   0  0  0  0  0  2  0  0  0  0  0  0
  188.0870  178.1320  148.4460 N   0  0  0  0  0  0  0  0  0  0  0  0
  189.9110  177.2580  147.0310 C   0  0  0  0  0  2  0  0  0  0  0  0
  187.8180  177.7040  146.0580 C   0  0  0  0  0  2  0  0  0  0  0  0
  1  6  1  0  0  0  0
  2 12  1  0  0  0  0
  2 11  1  0  0  0  0
  3 10  1  0  0  0  0
  4  8  1  0  0  0  0
  5  1  1  0  0  0  0
  7  4  2  0  0  0  0
  7  9  1  0  0  0  0
  8  1  2  0  0  0  0
  9  5  2  0  0  0  0
 10 11  2  0  0  0  0
 11  7  1  0  0  0  0
 12 15  2  0  0  0  0
 13  2  2  0  0  0  0
 14 13  1  0  0  0  0
 14  3  2  0  0  0  0
 15  4  1  0  0  0  0
 16 13  1  0  0  0  0
 18 17  1  0  0  0  0
 19 22  1  0  0  0  0
 19 21  1  0  0  0  0
 20 17  1  0  0  0  0
 21 20  1  0  0  0  0
 21 16  1  0  0  0  0
 22 18  1  0  0  0  0
 24 18  1  0  0  0  0
 24 23  1  0  0  0  0
 25  3  1  0  0  0  0
 25 26  1  0  0  0  0
 26 27  1  0  0  0  0
 27 29  1  0  0  0  0
 29 28  1  1  0  0  0
 29 30  1  0  0  0  0
 30 31  1  0  0  0  0
 31 35  1  0  0  0  0
 32 37  1  6  0  0  0
 33 32  1  0  0  0  0
 33 38  1  1  0  0  0
 34 31  1  0  0  0  0
 34 37  2  0  0  0  0
 35 36  1  1  0  0  0
 35 33  1  0  0  0  0
 35 32  1  0  0  0  0
 38 43  1  1  0  0  0
 38 42  1  0  0  0  0
 39 41  2  0  0  0  0
 40 41  1  0  0  0  0
 42 40  1  0  0  0  0
 43 39  1  0  0  0  0
M  END
>  <MODEL>
9

>  <REMARK>
 VINA RESULT:      -8.8      3.518      7.392
  Name = 
  10 active torsions:
  status: ('A' for Active; 'I' for Inactive)
    1  A    between atoms: C_1  and  C_34
    2  A    between atoms: C_1  and  N_35
    3  A    between atoms: C_2  and  N_7
    4  A    between atoms: C_2  and  C_13
    5  A    between atoms: C_3  and  N_4
    6  A    between atoms: C_3  and  C_12
    7  A    between atoms: N_7  and  C_17
    8  A    between atoms: N_11  and  C_14
    9  A    between atoms: C_12  and  C_17
   10  A    between atoms: N_19  and  C_37
                            x       y       z     vdW  Elec       q    Type
                         _______ _______ _______ _____ _____    ______ ____

>  <TORSDO>
F 10

$$$$
