=
 OpenBabel11052413353D

 28 32  0  0  1  0  0  0  0  0999 V2000
  186.6380  177.8500  142.1120 C   0  0  2  0  0  3  0  0  0  0  0  0
  190.4380  176.7240  145.5910 C   0  0  0  0  0  3  0  0  0  0  0  0
  184.6220  178.4510  146.5060 F   0  0  0  0  0  0  0  0  0  0  0  0
  189.4640  177.4480  147.6980 C   0  0  0  0  0  0  0  0  0  0  0  0
  188.1120  177.4920  145.6670 C   0  0  0  0  0  0  0  0  0  0  0  0
  191.7640  176.6950  147.6180 C   0  0  0  0  0  0  0  0  0  0  0  0
  189.3370  177.2200  146.3060 C   0  0  0  0  0  0  0  0  0  0  0  0
  187.1630  178.1900  147.7960 C   0  0  0  0  0  3  0  0  0  0  0  0
  190.6750  177.1850  148.3440 C   0  0  0  0  0  3  0  0  0  0  0  0
  185.6640  178.3170  144.4100 C   0  0  0  0  0  0  0  0  0  0  0  0
  187.9020  177.1850  144.2100 C   0  0  0  0  0  2  0  0  0  0  0  0
  188.3780  177.9290  148.4320 C   0  0  0  0  0  3  0  0  0  0  0  0
  184.2000  178.7950  142.4750 C   0  0  0  0  0  3  0  0  0  0  0  0
  185.7370  178.2660  145.7500 C   0  0  0  0  0  0  0  0  0  0  0  0
  184.3480  178.5110  143.7680 C   0  0  0  0  0  3  0  0  0  0  0  0
  192.9660  176.4360  148.2620 O   0  0  0  0  0  1  0  0  0  0  0  0
  191.6450  176.4640  146.2440 C   0  0  0  0  0  3  0  0  0  0  0  0
  187.0240  177.9790  146.4200 C   0  0  0  0  0  0  0  0  0  0  0  0
  185.5890  179.1560  141.3970 S   0  0  0  0  0  0  0  0  0  0  0  0
  186.9350  178.1960  143.5790 C   0  0  1  0  0  3  0  0  0  0  0  0
  187.8880  177.7070  141.2940 C   0  0  0  0  0  0  0  0  0  0  0  0
  188.0030  178.3040  140.0280 C   0  0  0  0  0  3  0  0  0  0  0  0
  190.2450  177.4130  139.8050 C   0  0  0  0  0  0  0  0  0  0  0  0
  188.9550  176.9610  141.8060 C   0  0  0  0  0  3  0  0  0  0  0  0
  189.2810  178.7570  138.0360 O   0  0  0  0  0  1  0  0  0  0  0  0
  189.1780  178.1590  139.2870 C   0  0  0  0  0  0  0  0  0  0  0  0
  191.4170  177.2630  139.0760 O   0  0  0  0  0  1  0  0  0  0  0  0
  190.1300  176.8150  141.0640 C   0  0  0  0  0  3  0  0  0  0  0  0
  1 21  1  6  0  0  0
  1 20  1  0  0  0  0
  2 17  2  0  0  0  0
  2  7  1  0  0  0  0
  4  9  1  0  0  0  0
  4 12  1  0  0  0  0
  5  7  1  0  0  0  0
  5 18  2  0  0  0  0
  6 16  1  0  0  0  0
  6  9  2  0  0  0  0
  7  4  2  0  0  0  0
  8 12  2  0  0  0  0
 10 14  2  0  0  0  0
 11  5  1  0  0  0  0
 13 15  2  0  0  0  0
 14 18  1  0  0  0  0
 14  3  1  0  0  0  0
 15 10  1  0  0  0  0
 17  6  1  0  0  0  0
 18  8  1  0  0  0  0
 19  1  1  0  0  0  0
 19 13  1  0  0  0  0
 20 11  1  1  0  0  0
 20 10  1  0  0  0  0
 21 24  1  0  0  0  0
 22 21  2  0  0  0  0
 23 28  1  0  0  0  0
 25 26  1  0  0  0  0
 26 23  2  0  0  0  0
 26 22  1  0  0  0  0
 27 23  1  0  0  0  0
 28 24  2  0  0  0  0
M  END
>  <MODEL>
1

>  <REMARK>
 VINA RESULT:     -11.9      0.000      0.000
  Name = 
  1 active torsions:
  status: ('A' for Active; 'I' for Inactive)
    1  A    between atoms: C_1  and  C_2
                            x       y       z     vdW  Elec       q    Type
                         _______ _______ _______ _____ _____    ______ ____

>  <TORSDO>
F 1

$$$$
=
 OpenBabel11052413353D

 28 32  0  0  1  0  0  0  0  0999 V2000
  186.6350  177.7010  145.9980 C   0  0  2  0  0  3  0  0  0  0  0  0
  188.4650  177.3700  141.0630 C   0  0  0  0  0  3  0  0  0  0  0  0
  191.4180  176.8780  146.4190 F   0  0  0  0  0  0  0  0  0  0  0  0
  190.8750  177.3770  141.3860 C   0  0  0  0  0  0  0  0  0  0  0  0
  189.4000  177.2910  143.3270 C   0  0  0  0  0  0  0  0  0  0  0  0
  189.9490  177.4610  139.1500 C   0  0  0  0  0  0  0  0  0  0  0  0
  189.5680  177.3460  141.9300 C   0  0  0  0  0  0  0  0  0  0  0  0
  191.8160  177.2800  143.6140 C   0  0  0  0  0  3  0  0  0  0  0  0
  191.0570  177.4350  140.0020 C   0  0  0  0  0  3  0  0  0  0  0  0
  189.1540  177.4400  146.1860 C   0  0  0  0  0  0  0  0  0  0  0  0
  188.0350  177.1700  143.9480 C   0  0  0  0  0  2  0  0  0  0  0  0
  191.9880  177.3430  142.2300 C   0  0  0  0  0  3  0  0  0  0  0  0
  187.9120  177.7030  148.3080 C   0  0  0  0  0  3  0  0  0  0  0  0
  190.3550  177.2010  145.6350 C   0  0  0  0  0  0  0  0  0  0  0  0
  188.9880  177.2820  147.6450 C   0  0  0  0  0  3  0  0  0  0  0  0
  190.1330  177.5190  137.7750 O   0  0  0  0  0  1  0  0  0  0  0  0
  188.6560  177.4280  139.6800 C   0  0  0  0  0  3  0  0  0  0  0  0
  190.5320  177.2580  144.1680 C   0  0  0  0  0  0  0  0  0  0  0  0
  186.6170  178.6770  147.5360 S   0  0  0  0  0  0  0  0  0  0  0  0
  187.9940  177.8860  145.3050 C   0  0  1  0  0  3  0  0  0  0  0  0
  185.4870  178.1170  145.1260 C   0  0  0  0  0  0  0  0  0  0  0  0
  185.5520  177.9940  143.7280 C   0  0  0  0  0  3  0  0  0  0  0  0
  183.3140  178.9040  143.5380 C   0  0  0  0  0  0  0  0  0  0  0  0
  184.3330  178.6380  145.7210 C   0  0  0  0  0  3  0  0  0  0  0  0
  184.5440  178.2570  141.5550 O   0  0  0  0  0  1  0  0  0  0  0  0
  184.4690  178.3850  142.9370 C   0  0  0  0  0  0  0  0  0  0  0  0
  182.2320  179.2950  142.7610 O   0  0  0  0  0  1  0  0  0  0  0  0
  183.2500  179.0300  144.9290 C   0  0  0  0  0  3  0  0  0  0  0  0
  1 21  1  6  0  0  0
  1 19  1  0  0  0  0
  2  7  1  0  0  0  0
  4  7  2  0  0  0  0
  4 12  1  0  0  0  0
  5 11  1  0  0  0  0
  5 18  2  0  0  0  0
  6 17  1  0  0  0  0
  6  9  2  0  0  0  0
  7  5  1  0  0  0  0
  8 18  1  0  0  0  0
  9  4  1  0  0  0  0
 10 15  1  0  0  0  0
 12  8  2  0  0  0  0
 14 10  2  0  0  0  0
 14  3  1  0  0  0  0
 15 13  2  0  0  0  0
 16  6  1  0  0  0  0
 17  2  2  0  0  0  0
 18 14  1  0  0  0  0
 19 13  1  0  0  0  0
 20 11  1  6  0  0  0
 20  1  1  0  0  0  0
 20 10  1  0  0  0  0
 21 24  1  0  0  0  0
 22 21  2  0  0  0  0
 23 28  1  0  0  0  0
 25 26  1  0  0  0  0
 26 23  2  0  0  0  0
 26 22  1  0  0  0  0
 27 23  1  0  0  0  0
 28 24  2  0  0  0  0
M  END
>  <MODEL>
2

>  <REMARK>
 VINA RESULT:     -11.9      2.929      6.372
  Name = 
  1 active torsions:
  status: ('A' for Active; 'I' for Inactive)
    1  A    between atoms: C_1  and  C_2
                            x       y       z     vdW  Elec       q    Type
                         _______ _______ _______ _____ _____    ______ ____

>  <TORSDO>
F 1

$$$$
=
 OpenBabel11052413353D

 28 32  0  0  1  0  0  0  0  0999 V2000
  190.1730  177.3740  143.1840 C   0  0  2  0  0  3  0  0  0  0  0  0
  185.1070  178.8100  142.8900 C   0  0  0  0  0  3  0  0  0  0  0  0
  188.6120  177.6470  147.7900 F   0  0  0  0  0  0  0  0  0  0  0  0
  184.3350  178.5140  145.1760 C   0  0  0  0  0  0  0  0  0  0  0  0
  186.7000  178.2210  144.6560 C   0  0  0  0  0  0  0  0  0  0  0  0
  182.7610  179.0900  143.4270 C   0  0  0  0  0  0  0  0  0  0  0  0
  185.3900  178.5150  144.2320 C   0  0  0  0  0  0  0  0  0  0  0  0
  185.8970  177.9510  146.9360 C   0  0  0  0  0  3  0  0  0  0  0  0
  183.0290  178.8000  144.7680 C   0  0  0  0  0  3  0  0  0  0  0  0
  189.2870  177.3610  145.5630 C   0  0  0  0  0  0  0  0  0  0  0  0
  187.8660  178.2940  143.7080 C   0  0  0  0  0  2  0  0  0  0  0  0
  184.5950  178.2340  146.5190 C   0  0  0  0  0  3  0  0  0  0  0  0
  191.6410  176.6650  145.2600 C   0  0  0  0  0  3  0  0  0  0  0  0
  188.3250  177.6300  146.4610 C   0  0  0  0  0  0  0  0  0  0  0  0
  190.6710  177.1500  146.0340 C   0  0  0  0  0  3  0  0  0  0  0  0
  181.4630  179.3730  143.0260 O   0  0  0  0  0  1  0  0  0  0  0  0
  183.7990  179.0960  142.4910 C   0  0  0  0  0  3  0  0  0  0  0  0
  186.9490  177.9390  146.0150 C   0  0  0  0  0  0  0  0  0  0  0  0
  191.3380  176.0390  143.6050 S   0  0  0  0  0  0  0  0  0  0  0  0
  188.9340  177.2590  144.0850 C   0  0  1  0  0  3  0  0  0  0  0  0
  189.8280  177.2970  141.7250 C   0  0  0  0  0  0  0  0  0  0  0  0
  188.6970  177.9500  141.2090 C   0  0  0  0  0  3  0  0  0  0  0  0
  189.2270  177.1280  138.9920 C   0  0  0  0  0  0  0  0  0  0  0  0
  190.6510  176.5590  140.8680 C   0  0  0  0  0  3  0  0  0  0  0  0
  187.2780  178.5200  139.3460 O   0  0  0  0  0  1  0  0  0  0  0  0
  188.3980  177.8670  139.8460 C   0  0  0  0  0  0  0  0  0  0  0  0
  188.9390  177.0400  137.6360 O   0  0  0  0  0  1  0  0  0  0  0  0
  190.3520  176.4750  139.5060 C   0  0  0  0  0  3  0  0  0  0  0  0
  1 21  1  6  0  0  0
  1 19  1  0  0  0  0
  1 20  1  0  0  0  0
  2  7  1  0  0  0  0
  4 12  1  0  0  0  0
  5 18  2  0  0  0  0
  6  9  2  0  0  0  0
  7  5  1  0  0  0  0
  7  4  2  0  0  0  0
  9  4  1  0  0  0  0
 10 15  1  0  0  0  0
 10 14  2  0  0  0  0
 11  5  1  0  0  0  0
 12  8  2  0  0  0  0
 13 15  2  0  0  0  0
 14  3  1  0  0  0  0
 16  6  1  0  0  0  0
 17  2  2  0  0  0  0
 17  6  1  0  0  0  0
 18 14  1  0  0  0  0
 18  8  1  0  0  0  0
 19 13  1  0  0  0  0
 20 11  1  6  0  0  0
 20 10  1  0  0  0  0
 22 21  1  0  0  0  0
 23 28  2  0  0  0  0
 23 26  1  0  0  0  0
 24 21  2  0  0  0  0
 25 26  1  0  0  0  0
 26 22  2  0  0  0  0
 27 23  1  0  0  0  0
 28 24  1  0  0  0  0
M  END
>  <MODEL>
3

>  <REMARK>
 VINA RESULT:     -11.7      2.856      5.353
  Name = 
  1 active torsions:
  status: ('A' for Active; 'I' for Inactive)
    1  A    between atoms: C_1  and  C_2
                            x       y       z     vdW  Elec       q    Type
                         _______ _______ _______ _____ _____    ______ ____

>  <TORSDO>
F 1

$$$$
=
 OpenBabel11052413353D

 28 32  0  0  1  0  0  0  0  0999 V2000
  190.6260  177.3300  144.5610 C   0  0  2  0  0  3  0  0  0  0  0  0
  185.7390  178.7230  143.1510 C   0  0  0  0  0  3  0  0  0  0  0  0
  188.1200  177.7310  148.7180 F   0  0  0  0  0  0  0  0  0  0  0  0
  184.4980  178.4900  145.2290 C   0  0  0  0  0  0  0  0  0  0  0  0
  186.9200  178.1980  145.2330 C   0  0  0  0  0  0  0  0  0  0  0  0
  183.3330  179.0030  143.1680 C   0  0  0  0  0  0  0  0  0  0  0  0
  185.7300  178.4700  144.5310 C   0  0  0  0  0  0  0  0  0  0  0  0
  185.6490  177.9910  147.2980 C   0  0  0  0  0  3  0  0  0  0  0  0
  183.3090  178.7550  144.5440 C   0  0  0  0  0  3  0  0  0  0  0  0
  189.2540  177.3830  146.6970 C   0  0  0  0  0  0  0  0  0  0  0  0
  188.2610  178.2500  144.5540 C   0  0  0  0  0  2  0  0  0  0  0  0
  184.4660  178.2530  146.6050 C   0  0  0  0  0  3  0  0  0  0  0  0
  191.6180  176.6940  146.9230 C   0  0  0  0  0  3  0  0  0  0  0  0
  188.1230  177.6730  147.3600 C   0  0  0  0  0  0  0  0  0  0  0  0
  190.5060  177.1950  147.4570 C   0  0  0  0  0  3  0  0  0  0  0  0
  182.1500  179.2650  142.4910 O   0  0  0  0  0  1  0  0  0  0  0  0
  184.5450  178.9870  142.4740 C   0  0  0  0  0  3  0  0  0  0  0  0
  186.8740  177.9580  146.6220 C   0  0  0  0  0  0  0  0  0  0  0  0
  191.6750  176.0160  145.2610 S   0  0  0  0  0  0  0  0  0  0  0  0
  189.2240  177.2340  145.1810 C   0  0  1  0  0  3  0  0  0  0  0  0
  190.5990  177.2070  143.0650 C   0  0  0  0  0  0  0  0  0  0  0  0
  191.7550  177.4180  142.2960 C   0  0  0  0  0  3  0  0  0  0  0  0
  190.5010  176.9600  140.2740 C   0  0  0  0  0  0  0  0  0  0  0  0
  189.3980  176.8760  142.4300 C   0  0  0  0  0  3  0  0  0  0  0  0
  192.8580  177.5030  140.1550 O   0  0  0  0  0  1  0  0  0  0  0  0
  191.7070  177.2940  140.9050 C   0  0  0  0  0  0  0  0  0  0  0  0
  190.4430  176.8340  138.8930 O   0  0  0  0  0  1  0  0  0  0  0  0
  189.3490  176.7530  141.0390 C   0  0  0  0  0  3  0  0  0  0  0  0
  1 21  1  6  0  0  0
  1 20  1  0  0  0  0
  1 19  1  0  0  0  0
  2  7  1  0  0  0  0
  4 12  1  0  0  0  0
  5 18  2  0  0  0  0
  6  9  2  0  0  0  0
  7  4  2  0  0  0  0
  7  5  1  0  0  0  0
  9  4  1  0  0  0  0
 10 14  2  0  0  0  0
 10 15  1  0  0  0  0
 11  5  1  0  0  0  0
 12  8  2  0  0  0  0
 13 15  2  0  0  0  0
 14  3  1  0  0  0  0
 16  6  1  0  0  0  0
 17  2  2  0  0  0  0
 17  6  1  0  0  0  0
 18  8  1  0  0  0  0
 18 14  1  0  0  0  0
 19 13  1  0  0  0  0
 20 11  1  6  0  0  0
 20 10  1  0  0  0  0
 22 21  2  0  0  0  0
 23 26  2  0  0  0  0
 23 28  1  0  0  0  0
 24 21  1  0  0  0  0
 25 26  1  0  0  0  0
 26 22  1  0  0  0  0
 27 23  1  0  0  0  0
 28 24  2  0  0  0  0
M  END
>  <MODEL>
4

>  <REMARK>
 VINA RESULT:     -11.6      2.593      5.464
  Name = 
  1 active torsions:
  status: ('A' for Active; 'I' for Inactive)
    1  A    between atoms: C_1  and  C_2
                            x       y       z     vdW  Elec       q    Type
                         _______ _______ _______ _____ _____    ______ ____

>  <TORSDO>
F 1

$$$$
=
 OpenBabel11052413353D

 28 32  0  0  1  0  0  0  0  0999 V2000
  186.3540  177.9570  142.1150 C   0  0  2  0  0  3  0  0  0  0  0  0
  190.3080  176.7210  145.3780 C   0  0  0  0  0  3  0  0  0  0  0  0
  184.5450  178.4280  146.6130 F   0  0  0  0  0  0  0  0  0  0  0  0
  189.4350  177.3820  147.5490 C   0  0  0  0  0  0  0  0  0  0  0  0
  187.9900  177.4890  145.5860 C   0  0  0  0  0  0  0  0  0  0  0  0
  191.7260  176.6280  147.3400 C   0  0  0  0  0  0  0  0  0  0  0  0
  189.2420  177.1960  146.1590 C   0  0  0  0  0  0  0  0  0  0  0  0
  187.1430  178.1250  147.7760 C   0  0  0  0  0  3  0  0  0  0  0  0
  190.6740  177.0980  148.1300 C   0  0  0  0  0  3  0  0  0  0  0  0
  185.4890  178.3560  144.4690 C   0  0  0  0  0  0  0  0  0  0  0  0
  187.7120  177.2270  144.1310 C   0  0  0  0  0  2  0  0  0  0  0  0
  188.3850  177.8430  148.3470 C   0  0  0  0  0  3  0  0  0  0  0  0
  183.9380  178.8940  142.6190 C   0  0  0  0  0  3  0  0  0  0  0  0
  185.6230  178.2640  145.8020 C   0  0  0  0  0  0  0  0  0  0  0  0
  184.1450  178.5710  143.8950 C   0  0  0  0  0  3  0  0  0  0  0  0
  192.9560  176.3480  147.9200 O   0  0  0  0  0  1  0  0  0  0  0  0
  191.5430  176.4400  145.9670 C   0  0  0  0  0  3  0  0  0  0  0  0
  186.9390  177.9550  146.4030 C   0  0  0  0  0  0  0  0  0  0  0  0
  185.2770  179.2860  141.4890 S   0  0  0  0  0  0  0  0  0  0  0  0
  186.7200  178.2580  143.5770 C   0  0  1  0  0  3  0  0  0  0  0  0
  187.5640  177.8360  141.2360 C   0  0  0  0  0  0  0  0  0  0  0  0
  188.7790  177.3370  141.7340 C   0  0  0  0  0  3  0  0  0  0  0  0
  189.7970  177.6240  139.5530 C   0  0  0  0  0  0  0  0  0  0  0  0
  187.4750  178.2300  139.8970 C   0  0  0  0  0  3  0  0  0  0  0  0
  191.0870  176.7330  141.3980 O   0  0  0  0  0  1  0  0  0  0  0  0
  189.8910  177.2310  140.8940 C   0  0  0  0  0  0  0  0  0  0  0  0
  190.8960  177.5220  138.7110 O   0  0  0  0  0  1  0  0  0  0  0  0
  188.5880  178.1240  139.0580 C   0  0  0  0  0  3  0  0  0  0  0  0
  1 21  1  6  0  0  0
  1 20  1  0  0  0  0
  2 17  2  0  0  0  0
  2  7  1  0  0  0  0
  4  9  1  0  0  0  0
  4 12  1  0  0  0  0
  5  7  1  0  0  0  0
  5 18  2  0  0  0  0
  6 16  1  0  0  0  0
  6  9  2  0  0  0  0
  7  4  2  0  0  0  0
  8 12  2  0  0  0  0
 10 14  2  0  0  0  0
 11  5  1  0  0  0  0
 13 15  2  0  0  0  0
 14 18  1  0  0  0  0
 14  3  1  0  0  0  0
 15 10  1  0  0  0  0
 17  6  1  0  0  0  0
 18  8  1  0  0  0  0
 19  1  1  0  0  0  0
 19 13  1  0  0  0  0
 20 11  1  1  0  0  0
 20 10  1  0  0  0  0
 21 22  1  0  0  0  0
 23 26  1  0  0  0  0
 24 21  2  0  0  0  0
 26 25  1  0  0  0  0
 26 22  2  0  0  0  0
 27 23  1  0  0  0  0
 28 23  2  0  0  0  0
 28 24  1  0  0  0  0
M  END
>  <MODEL>
5

>  <REMARK>
 VINA RESULT:     -11.6      0.563      1.262
  Name = 
  1 active torsions:
  status: ('A' for Active; 'I' for Inactive)
    1  A    between atoms: C_1  and  C_2
                            x       y       z     vdW  Elec       q    Type
                         _______ _______ _______ _____ _____    ______ ____

>  <TORSDO>
F 1

$$$$
=
 OpenBabel11052413353D

 28 32  0  0  1  0  0  0  0  0999 V2000
  186.2330  177.8740  145.5240 C   0  0  2  0  0  3  0  0  0  0  0  0
  188.6360  177.2380  140.8720 C   0  0  0  0  0  3  0  0  0  0  0  0
  190.9480  177.2170  146.5560 F   0  0  0  0  0  0  0  0  0  0  0  0
  190.9900  177.3360  141.4710 C   0  0  0  0  0  0  0  0  0  0  0  0
  189.2990  177.3490  143.2290 C   0  0  0  0  0  0  0  0  0  0  0  0
  190.3310  177.2330  139.1430 C   0  0  0  0  0  0  0  0  0  0  0  0
  189.6290  177.3080  141.8610 C   0  0  0  0  0  0  0  0  0  0  0  0
  191.6650  177.4270  143.7930 C   0  0  0  0  0  3  0  0  0  0  0  0
  191.3320  177.2990  140.1160 C   0  0  0  0  0  3  0  0  0  0  0  0
  188.7160  177.6970  146.0210 C   0  0  0  0  0  0  0  0  0  0  0  0
  187.8740  177.2350  143.6960 C   0  0  0  0  0  2  0  0  0  0  0  0
  191.9960  177.3940  142.4380 C   0  0  0  0  0  3  0  0  0  0  0  0
  187.2290  178.0780  147.9600 C   0  0  0  0  0  3  0  0  0  0  0  0
  189.9790  177.4530  145.6320 C   0  0  0  0  0  0  0  0  0  0  0  0
  188.3830  177.6410  147.4590 C   0  0  0  0  0  3  0  0  0  0  0  0
  190.6750  177.1970  137.7980 O   0  0  0  0  0  1  0  0  0  0  0  0
  188.9860  177.2020  139.5210 C   0  0  0  0  0  3  0  0  0  0  0  0
  190.3250  177.4090  144.1950 C   0  0  0  0  0  0  0  0  0  0  0  0
  186.0150  178.9570  146.9720 S   0  0  0  0  0  0  0  0  0  0  0  0
  187.6590  178.0460  144.9810 C   0  0  1  0  0  3  0  0  0  0  0  0
  185.1870  178.1940  144.4960 C   0  0  0  0  0  0  0  0  0  0  0  0
  183.8540  178.4350  144.8640 C   0  0  0  0  0  3  0  0  0  0  0  0
  183.2700  178.7930  142.5390 C   0  0  0  0  0  0  0  0  0  0  0  0
  185.5530  178.2510  143.1470 C   0  0  0  0  0  3  0  0  0  0  0  0
  181.5820  178.9730  144.2660 O   0  0  0  0  0  1  0  0  0  0  0  0
  182.8990  178.7340  143.8890 C   0  0  0  0  0  0  0  0  0  0  0  0
  182.3290  179.0900  141.5630 O   0  0  0  0  0  1  0  0  0  0  0  0
  184.5980  178.5500  142.1720 C   0  0  0  0  0  3  0  0  0  0  0  0
  1 21  1  6  0  0  0
  1 19  1  0  0  0  0
  2  7  1  0  0  0  0
  4  7  2  0  0  0  0
  4 12  1  0  0  0  0
  5 11  1  0  0  0  0
  5 18  2  0  0  0  0
  6 17  1  0  0  0  0
  6  9  2  0  0  0  0
  7  5  1  0  0  0  0
  8 18  1  0  0  0  0
  9  4  1  0  0  0  0
 10 15  1  0  0  0  0
 12  8  2  0  0  0  0
 14 10  2  0  0  0  0
 14  3  1  0  0  0  0
 15 13  2  0  0  0  0
 16  6  1  0  0  0  0
 17  2  2  0  0  0  0
 18 14  1  0  0  0  0
 19 13  1  0  0  0  0
 20 11  1  6  0  0  0
 20  1  1  0  0  0  0
 20 10  1  0  0  0  0
 21 22  1  0  0  0  0
 23 26  1  0  0  0  0
 24 21  2  0  0  0  0
 26 25  1  0  0  0  0
 26 22  2  0  0  0  0
 27 23  1  0  0  0  0
 28 23  2  0  0  0  0
 28 24  1  0  0  0  0
M  END
>  <MODEL>
6

>  <REMARK>
 VINA RESULT:     -11.2      3.082      6.305
  Name = 
  1 active torsions:
  status: ('A' for Active; 'I' for Inactive)
    1  A    between atoms: C_1  and  C_2
                            x       y       z     vdW  Elec       q    Type
                         _______ _______ _______ _____ _____    ______ ____

>  <TORSDO>
F 1

$$$$
=
 OpenBabel11052413353D

 28 32  0  0  1  0  0  0  0  0999 V2000
  189.1100  178.0670  145.8090 C   0  0  2  0  0  3  0  0  0  0  0  0
  185.9030  178.8980  141.7060 C   0  0  0  0  0  3  0  0  0  0  0  0
  184.6420  178.5110  147.6990 F   0  0  0  0  0  0  0  0  0  0  0  0
  183.6950  178.6900  142.7040 C   0  0  0  0  0  0  0  0  0  0  0  0
  185.6730  178.6270  144.1310 C   0  0  0  0  0  0  0  0  0  0  0  0
  183.9250  178.9510  140.3070 C   0  0  0  0  0  0  0  0  0  0  0  0
  185.1030  178.7380  142.8490 C   0  0  0  0  0  0  0  0  0  0  0  0
  183.4480  178.4420  145.0980 C   0  0  0  0  0  3  0  0  0  0  0  0
  183.1160  178.7950  141.4360 C   0  0  0  0  0  3  0  0  0  0  0  0
  186.7520  178.1350  146.7480 C   0  0  0  0  0  0  0  0  0  0  0  0
  187.1560  178.7590  144.3440 C   0  0  0  0  0  2  0  0  0  0  0  0
  182.8790  178.5440  143.8280 C   0  0  0  0  0  3  0  0  0  0  0  0
  188.5690  177.6870  148.3650 C   0  0  0  0  0  3  0  0  0  0  0  0
  185.4350  178.3610  146.6050 C   0  0  0  0  0  0  0  0  0  0  0  0
  187.3350  178.1170  148.1050 C   0  0  0  0  0  3  0  0  0  0  0  0
  183.3470  179.0550  139.0500 O   0  0  0  0  0  1  0  0  0  0  0  0
  185.3160  179.0030  140.4430 C   0  0  0  0  0  3  0  0  0  0  0  0
  184.8370  178.4780  145.2580 C   0  0  0  0  0  0  0  0  0  0  0  0
  189.6050  176.9070  147.1240 S   0  0  0  0  0  0  0  0  0  0  0  0
  187.6130  177.8820  145.5170 C   0  0  1  0  0  3  0  0  0  0  0  0
  189.9610  177.8410  144.5950 C   0  0  0  0  0  0  0  0  0  0  0  0
  189.6620  176.8240  143.6730 C   0  0  0  0  0  3  0  0  0  0  0  0
  191.5800  177.4620  142.3370 C   0  0  0  0  0  0  0  0  0  0  0  0
  191.0740  178.6620  144.3810 C   0  0  0  0  0  3  0  0  0  0  0  0
  190.1600  175.6280  141.6420 O   0  0  0  0  0  1  0  0  0  0  0  0
  190.4680  176.6360  142.5480 C   0  0  0  0  0  0  0  0  0  0  0  0
  192.3870  177.2830  141.2210 O   0  0  0  0  0  1  0  0  0  0  0  0
  191.8810  178.4730  143.2550 C   0  0  0  0  0  3  0  0  0  0  0  0
  1 21  1  6  0  0  0
  1 19  1  0  0  0  0
  2  7  1  0  0  0  0
  4  7  2  0  0  0  0
  4 12  1  0  0  0  0
  5 11  1  0  0  0  0
  5 18  2  0  0  0  0
  6 17  1  0  0  0  0
  6  9  2  0  0  0  0
  7  5  1  0  0  0  0
  8 18  1  0  0  0  0
  9  4  1  0  0  0  0
 10 15  1  0  0  0  0
 12  8  2  0  0  0  0
 14 10  2  0  0  0  0
 14  3  1  0  0  0  0
 15 13  2  0  0  0  0
 16  6  1  0  0  0  0
 17  2  2  0  0  0  0
 18 14  1  0  0  0  0
 19 13  1  0  0  0  0
 20 11  1  6  0  0  0
 20  1  1  0  0  0  0
 20 10  1  0  0  0  0
 22 21  2  0  0  0  0
 23 26  2  0  0  0  0
 23 28  1  0  0  0  0
 24 21  1  0  0  0  0
 25 26  1  0  0  0  0
 26 22  1  0  0  0  0
 27 23  1  0  0  0  0
 28 24  2  0  0  0  0
M  END
>  <MODEL>
7

>  <REMARK>
 VINA RESULT:     -11.1      2.752      5.965
  Name = 
  1 active torsions:
  status: ('A' for Active; 'I' for Inactive)
    1  A    between atoms: C_1  and  C_2
                            x       y       z     vdW  Elec       q    Type
                         _______ _______ _______ _____ _____    ______ ____

>  <TORSDO>
F 1

$$$$
=
 OpenBabel11052413353D

 28 32  0  0  1  0  0  0  0  0999 V2000
  184.9110  178.3030  140.4540 C   0  0  2  0  0  3  0  0  0  0  0  0
  188.2180  177.4210  144.4660 C   0  0  0  0  0  3  0  0  0  0  0  0
  182.2230  178.7290  144.4940 F   0  0  0  0  0  0  0  0  0  0  0  0
  186.8910  178.0590  146.4010 C   0  0  0  0  0  0  0  0  0  0  0  0
  185.8580  178.0230  144.1910 C   0  0  0  0  0  0  0  0  0  0  0  0
  189.2250  177.4700  146.6690 C   0  0  0  0  0  0  0  0  0  0  0  0
  186.9900  177.8330  145.0070 C   0  0  0  0  0  0  0  0  0  0  0  0
  184.5550  178.6380  146.1510 C   0  0  0  0  0  3  0  0  0  0  0  0
  188.0080  177.8780  147.2220 C   0  0  0  0  0  3  0  0  0  0  0  0
  183.5740  178.6840  142.5780 C   0  0  0  0  0  0  0  0  0  0  0  0
  185.8910  177.7130  142.7200 C   0  0  0  0  0  2  0  0  0  0  0  0
  185.6760  178.4580  146.9630 C   0  0  0  0  0  3  0  0  0  0  0  0
  182.3860  179.0720  140.4450 C   0  0  0  0  0  3  0  0  0  0  0  0
  183.4490  178.6280  143.9150 C   0  0  0  0  0  0  0  0  0  0  0  0
  182.3590  178.7900  141.7460 C   0  0  0  0  0  3  0  0  0  0  0  0
  190.3320  177.2910  147.4870 O   0  0  0  0  0  1  0  0  0  0  0  0
  189.3290  177.2420  145.2940 C   0  0  0  0  0  3  0  0  0  0  0  0
  184.6380  178.4280  144.7710 C   0  0  0  0  0  0  0  0  0  0  0  0
  183.8910  179.5370  139.5850 S   0  0  0  0  0  0  0  0  0  0  0  0
  184.9610  178.6570  141.9480 C   0  0  1  0  0  3  0  0  0  0  0  0
  186.2760  178.2530  139.8330 C   0  0  0  0  0  0  0  0  0  0  0  0
  186.4440  177.9950  138.4620 C   0  0  0  0  0  3  0  0  0  0  0  0
  188.8470  178.1740  138.7160 C   0  0  0  0  0  0  0  0  0  0  0  0
  187.4000  178.4670  140.6380 C   0  0  0  0  0  3  0  0  0  0  0  0
  187.8780  177.7030  136.5480 O   0  0  0  0  0  1  0  0  0  0  0  0
  187.7250  177.9570  137.9060 C   0  0  0  0  0  0  0  0  0  0  0  0
  190.1240  178.1390  138.1730 O   0  0  0  0  0  1  0  0  0  0  0  0
  188.6810  178.4280  140.0820 C   0  0  0  0  0  3  0  0  0  0  0  0
  1 21  1  6  0  0  0
  1 20  1  0  0  0  0
  2  7  2  0  0  0  0
  2 17  1  0  0  0  0
  4 12  1  0  0  0  0
  4  9  2  0  0  0  0
  5 18  2  0  0  0  0
  5  7  1  0  0  0  0
  6  9  1  0  0  0  0
  6 16  1  0  0  0  0
  7  4  1  0  0  0  0
  8 12  2  0  0  0  0
 10 14  2  0  0  0  0
 11  5  1  0  0  0  0
 13 15  2  0  0  0  0
 14  3  1  0  0  0  0
 14 18  1  0  0  0  0
 15 10  1  0  0  0  0
 17  6  2  0  0  0  0
 18  8  1  0  0  0  0
 19 13  1  0  0  0  0
 19  1  1  0  0  0  0
 20 10  1  0  0  0  0
 20 11  1  1  0  0  0
 21 24  1  0  0  0  0
 22 21  2  0  0  0  0
 23 28  1  0  0  0  0
 25 26  1  0  0  0  0
 26 22  1  0  0  0  0
 26 23  2  0  0  0  0
 27 23  1  0  0  0  0
 28 24  2  0  0  0  0
M  END
>  <MODEL>
8

>  <REMARK>
 VINA RESULT:     -11.0      1.669      2.647
  Name = 
  1 active torsions:
  status: ('A' for Active; 'I' for Inactive)
    1  A    between atoms: C_1  and  C_2
                            x       y       z     vdW  Elec       q    Type
                         _______ _______ _______ _____ _____    ______ ____

>  <TORSDO>
F 1

$$$$
=
 OpenBabel11052413353D

 28 32  0  0  1  0  0  0  0  0999 V2000
  184.6160  178.2270  143.6700 C   0  0  2  0  0  3  0  0  0  0  0  0
  189.0970  177.3310  141.0380 C   0  0  0  0  0  3  0  0  0  0  0  0
  188.0720  177.7670  147.0720 F   0  0  0  0  0  0  0  0  0  0  0  0
  190.7860  177.5320  142.7760 C   0  0  0  0  0  0  0  0  0  0  0  0
  188.4230  177.6240  143.3760 C   0  0  0  0  0  0  0  0  0  0  0  0
  191.4490  177.2490  140.4640 C   0  0  0  0  0  0  0  0  0  0  0  0
  189.4230  177.4950  142.3930 C   0  0  0  0  0  0  0  0  0  0  0  0
  190.1380  177.8010  145.0920 C   0  0  0  0  0  3  0  0  0  0  0  0
  191.7890  177.4090  141.8110 C   0  0  0  0  0  3  0  0  0  0  0  0
  186.4630  178.1500  145.4100 C   0  0  0  0  0  0  0  0  0  0  0  0
  186.9640  177.5060  143.0300 C   0  0  0  0  0  2  0  0  0  0  0  0
  191.1330  177.6820  144.1200 C   0  0  0  0  0  3  0  0  0  0  0  0
  184.1840  178.6270  146.2430 C   0  0  0  0  0  3  0  0  0  0  0  0
  187.7370  177.9120  145.7620 C   0  0  0  0  0  0  0  0  0  0  0  0
  185.4220  178.1860  146.4570 C   0  0  0  0  0  3  0  0  0  0  0  0
  192.4480  177.1280  139.5080 O   0  0  0  0  0  1  0  0  0  0  0  0
  190.1060  177.2090  140.0790 C   0  0  0  0  0  3  0  0  0  0  0  0
  188.7870  177.7770  144.7300 C   0  0  0  0  0  0  0  0  0  0  0  0
  183.6850  179.4040  144.7030 S   0  0  0  0  0  0  0  0  0  0  0  0
  186.1170  178.3980  143.9470 C   0  0  1  0  0  3  0  0  0  0  0  0
  184.2730  178.4480  142.2260 C   0  0  0  0  0  0  0  0  0  0  0  0
  185.2750  178.6280  141.2580 C   0  0  0  0  0  3  0  0  0  0  0  0
  183.5820  178.8510  139.5380 C   0  0  0  0  0  0  0  0  0  0  0  0
  182.9280  178.4740  141.8410 C   0  0  0  0  0  3  0  0  0  0  0  0
  185.9310  179.0030  138.9700 O   0  0  0  0  0  1  0  0  0  0  0  0
  184.9300  178.8280  139.9190 C   0  0  0  0  0  0  0  0  0  0  0  0
  183.2300  179.0490  138.2100 O   0  0  0  0  0  1  0  0  0  0  0  0
  182.5840  178.6750  140.5020 C   0  0  0  0  0  3  0  0  0  0  0  0
  1 21  1  6  0  0  0
  1 20  1  0  0  0  0
  1 19  1  0  0  0  0
  2  7  1  0  0  0  0
  4 12  1  0  0  0  0
  5 18  2  0  0  0  0
  6  9  2  0  0  0  0
  7  4  2  0  0  0  0
  7  5  1  0  0  0  0
  9  4  1  0  0  0  0
 10 14  2  0  0  0  0
 10 15  1  0  0  0  0
 11  5  1  0  0  0  0
 12  8  2  0  0  0  0
 13 15  2  0  0  0  0
 14  3  1  0  0  0  0
 16  6  1  0  0  0  0
 17  6  1  0  0  0  0
 17  2  2  0  0  0  0
 18  8  1  0  0  0  0
 18 14  1  0  0  0  0
 19 13  1  0  0  0  0
 20 11  1  6  0  0  0
 20 10  1  0  0  0  0
 22 21  2  0  0  0  0
 23 26  2  0  0  0  0
 23 28  1  0  0  0  0
 24 21  1  0  0  0  0
 25 26  1  0  0  0  0
 26 22  1  0  0  0  0
 27 23  1  0  0  0  0
 28 24  2  0  0  0  0
M  END
>  <MODEL>
9

>  <REMARK>
 VINA RESULT:     -11.0      2.556      4.889
  Name = 
  1 active torsions:
  status: ('A' for Active; 'I' for Inactive)
    1  A    between atoms: C_1  and  C_2
                            x       y       z     vdW  Elec       q    Type
                         _______ _______ _______ _____ _____    ______ ____

>  <TORSDO>
F 1

$$$$
