=
 OpenBabel11052413393D

 27 31  0  0  1  0  0  0  0  0999 V2000
  188.4630  177.8980  144.7250 N   0  0  0  0  0  2  0  0  0  0  0  0
  187.6100  177.7920  142.4640 C   0  0  0  0  0  0  0  0  0  0  0  0
  189.6440  176.3310  142.4230 N   0  0  0  0  0  2  0  0  0  0  0  0
  188.2990  178.4330  138.4490 C   0  0  0  0  0  3  0  0  0  0  0  0
  190.1990  177.4170  137.0930 C   0  0  0  0  0  1  0  0  0  0  0  0
  186.7490  178.6230  141.7890 N   0  0  0  0  0  0  0  0  0  0  0  0
  189.7440  177.0520  139.5390 N   0  0  0  0  0  0  0  0  0  0  0  0
  192.0550  175.7180  145.1750 C   0  0  0  0  0  3  0  0  0  0  0  0
  190.8680  176.1590  139.7910 C   0  0  0  0  0  1  0  0  0  0  0  0
  191.5980  176.5680  146.1800 C   0  0  0  0  0  0  0  0  0  0  0  0
  188.8190  177.4840  140.4150 C   0  0  0  0  0  0  0  0  0  0  0  0
  187.3580  177.4490  143.8990 C   0  0  2  0  0  3  0  0  0  0  0  0
  189.4290  177.6230  138.3530 C   0  0  0  0  0  0  0  0  0  0  0  0
  187.9410  178.3190  139.7790 C   0  0  0  0  0  0  0  0  0  0  0  0
  189.7100  177.2100  144.7920 C   0  0  0  0  0  0  0  0  0  0  0  0
  188.7030  177.2070  141.7850 C   0  0  0  0  0  0  0  0  0  0  0  0
  191.3600  175.6310  143.9680 C   0  0  0  0  0  3  0  0  0  0  0  0
  186.8900  178.9080  140.4630 C   0  0  0  0  0  3  0  0  0  0  0  0
  192.2970  176.6710  147.3740 O   0  0  0  0  0  1  0  0  0  0  0  0
  190.4290  177.3050  145.9890 C   0  0  0  0  0  3  0  0  0  0  0  0
  190.1960  176.3780  143.7490 C   0  0  0  0  0  0  0  0  0  0  0  0
  183.6270  178.9110  145.4680 C   0  0  0  0  0  3  0  0  0  0  0  0
  186.0550  177.9730  144.4290 C   0  0  0  0  0  0  0  0  0  0  0  0
  184.9800  178.2530  143.5710 C   0  0  0  0  0  3  0  0  0  0  0  0
  183.7700  178.7220  144.0900 C   0  0  0  0  0  3  0  0  0  0  0  0
  184.6940  178.6280  146.3270 C   0  0  0  0  0  3  0  0  0  0  0  0
  185.9050  178.1590  145.8080 C   0  0  0  0  0  3  0  0  0  0  0  0
  1 15  1  0  0  0  0
  2 12  1  0  0  0  0
  3 21  1  0  0  0  0
  4 14  1  0  0  0  0
  5 13  1  0  0  0  0
  6  2  1  0  0  0  0
  7  9  1  0  0  0  0
  7 11  1  0  0  0  0
  8 10  1  0  0  0  0
 10 19  1  0  0  0  0
 11 16  1  0  0  0  0
 12 23  1  1  0  0  0
 12  1  1  0  0  0  0
 13  4  2  0  0  0  0
 13  7  1  0  0  0  0
 14 11  2  0  0  0  0
 14 18  1  0  0  0  0
 15 20  1  0  0  0  0
 16  3  1  0  0  0  0
 16  2  2  0  0  0  0
 17  8  2  0  0  0  0
 18  6  2  0  0  0  0
 20 10  2  0  0  0  0
 21 17  1  0  0  0  0
 21 15  2  0  0  0  0
 22 26  1  0  0  0  0
 23 27  1  0  0  0  0
 24 25  1  0  0  0  0
 24 23  2  0  0  0  0
 25 22  2  0  0  0  0
 27 26  2  0  0  0  0
M  END
>  <MODEL>
1

>  <REMARK>
 VINA RESULT:     -10.1      0.000      0.000
  Name = 
  1 active torsions:
  status: ('A' for Active; 'I' for Inactive)
    1  A    between atoms: C_9  and  C_15
                            x       y       z     vdW  Elec       q    Type
                         _______ _______ _______ _____ _____    ______ ____

>  <TORSDO>
F 1

$$$$
=
 OpenBabel11052413393D

 27 31  0  0  1  0  0  0  0  0999 V2000
  186.3730  178.5870  144.9680 N   0  0  0  0  0  2  0  0  0  0  0  0
  186.8300  177.9890  142.6700 C   0  0  0  0  0  0  0  0  0  0  0  0
  188.6260  176.8300  143.9750 N   0  0  0  0  0  2  0  0  0  0  0  0
  189.4950  178.0340  139.5240 C   0  0  0  0  0  3  0  0  0  0  0  0
  191.8510  177.0700  139.5670 C   0  0  0  0  0  1  0  0  0  0  0  0
  186.4250  178.5700  141.4930 N   0  0  0  0  0  0  0  0  0  0  0  0
  190.1970  177.0630  141.4600 N   0  0  0  0  0  0  0  0  0  0  0  0
  189.2620  177.0190  147.6250 C   0  0  0  0  0  3  0  0  0  0  0  0
  191.0480  176.3860  142.4290 C   0  0  0  0  0  1  0  0  0  0  0  0
  188.3230  177.9560  148.0530 C   0  0  0  0  0  0  0  0  0  0  0  0
  188.9380  177.5070  141.6330 C   0  0  0  0  0  0  0  0  0  0  0  0
  185.8740  177.8610  143.8160 C   0  0  2  0  0  3  0  0  0  0  0  0
  190.5310  177.3790  140.1870 C   0  0  0  0  0  0  0  0  0  0  0  0
  188.4990  178.0970  140.4790 C   0  0  0  0  0  0  0  0  0  0  0  0
  187.4200  178.0950  145.8010 C   0  0  0  0  0  0  0  0  0  0  0  0
  188.1310  177.4520  142.7790 C   0  0  0  0  0  0  0  0  0  0  0  0
  189.3010  176.6380  146.2840 C   0  0  0  0  0  3  0  0  0  0  0  0
  187.2290  178.6450  140.3940 C   0  0  0  0  0  3  0  0  0  0  0  0
  188.2930  178.3520  149.3820 O   0  0  0  0  0  1  0  0  0  0  0  0
  187.4060  178.4860  147.1450 C   0  0  0  0  0  3  0  0  0  0  0  0
  188.4030  177.1730  145.3530 C   0  0  0  0  0  0  0  0  0  0  0  0
  181.8350  179.0510  142.9340 C   0  0  0  0  0  3  0  0  0  0  0  0
  184.4730  178.2850  143.4890 C   0  0  0  0  0  0  0  0  0  0  0  0
  183.9700  178.1910  142.1820 C   0  0  0  0  0  3  0  0  0  0  0  0
  182.6540  178.5740  141.9060 C   0  0  0  0  0  3  0  0  0  0  0  0
  182.3310  179.1410  144.2380 C   0  0  0  0  0  3  0  0  0  0  0  0
  183.6460  178.7570  144.5140 C   0  0  0  0  0  3  0  0  0  0  0  0
  1 15  1  0  0  0  0
  2 16  1  0  0  0  0
  2 12  1  0  0  0  0
  3 21  1  0  0  0  0
  4 13  2  0  0  0  0
  4 14  1  0  0  0  0
  5 13  1  0  0  0  0
  6  2  2  0  0  0  0
  7 11  1  0  0  0  0
  7  9  1  0  0  0  0
  8 10  1  0  0  0  0
 10 19  1  0  0  0  0
 11 16  2  0  0  0  0
 12 23  1  6  0  0  0
 12  1  1  0  0  0  0
 13  7  1  0  0  0  0
 14 11  1  0  0  0  0
 15 20  1  0  0  0  0
 16  3  1  0  0  0  0
 17  8  2  0  0  0  0
 18 14  2  0  0  0  0
 18  6  1  0  0  0  0
 20 10  2  0  0  0  0
 21 15  2  0  0  0  0
 21 17  1  0  0  0  0
 22 26  1  0  0  0  0
 23 27  1  0  0  0  0
 24 23  2  0  0  0  0
 25 24  1  0  0  0  0
 25 22  2  0  0  0  0
 26 27  2  0  0  0  0
M  END
>  <MODEL>
2

>  <REMARK>
 VINA RESULT:      -9.9      1.743      2.532
  Name = 
  1 active torsions:
  status: ('A' for Active; 'I' for Inactive)
    1  A    between atoms: C_9  and  C_15
                            x       y       z     vdW  Elec       q    Type
                         _______ _______ _______ _____ _____    ______ ____

>  <TORSDO>
F 1

$$$$
=
 OpenBabel11052413393D

 27 31  0  0  1  0  0  0  0  0999 V2000
  187.3120  177.6870  142.6270 N   0  0  0  0  0  2  0  0  0  0  0  0
  188.9990  177.6450  140.8950 C   0  0  0  0  0  0  0  0  0  0  0  0
  187.0100  178.6890  139.7900 N   0  0  0  0  0  2  0  0  0  0  0  0
  190.0970  176.3580  137.1340 C   0  0  0  0  0  3  0  0  0  0  0  0
  188.8200  176.8190  134.9810 C   0  0  0  0  0  1  0  0  0  0  0  0
  190.1500  176.9030  140.7800 N   0  0  0  0  0  0  0  0  0  0  0  0
  188.1860  177.5840  137.2900 N   0  0  0  0  0  0  0  0  0  0  0  0
  183.6280  179.2120  141.2240 C   0  0  0  0  0  3  0  0  0  0  0  0
  186.9640  178.2810  136.9110 C   0  0  0  0  0  1  0  0  0  0  0  0
  183.7270  178.6020  142.4730 C   0  0  0  0  0  0  0  0  0  0  0  0
  188.7120  177.4490  138.5220 C   0  0  0  0  0  0  0  0  0  0  0  0
  188.6000  178.2170  142.2200 C   0  0  2  0  0  3  0  0  0  0  0  0
  189.0230  176.9270  136.4540 C   0  0  0  0  0  0  0  0  0  0  0  0
  189.8630  176.7120  138.4490 C   0  0  0  0  0  0  0  0  0  0  0  0
  186.0780  178.1370  142.0740 C   0  0  0  0  0  0  0  0  0  0  0  0
  188.2230  177.9230  139.7480 C   0  0  0  0  0  0  0  0  0  0  0  0
  184.7430  179.2630  140.3860 C   0  0  0  0  0  3  0  0  0  0  0  0
  190.6000  176.4230  139.5860 C   0  0  0  0  0  3  0  0  0  0  0  0
  182.6160  178.5320  143.3020 O   0  0  0  0  0  1  0  0  0  0  0  0
  184.9470  178.0730  142.8950 C   0  0  0  0  0  3  0  0  0  0  0  0
  185.9710  178.7190  140.7830 C   0  0  0  0  0  0  0  0  0  0  0  0
  191.4790  177.6380  145.3640 C   0  0  0  0  0  3  0  0  0  0  0  0
  189.6210  178.0160  143.3010 C   0  0  0  0  0  0  0  0  0  0  0  0
  190.8210  178.7430  143.3130 C   0  0  0  0  0  3  0  0  0  0  0  0
  191.7480  178.5530  144.3420 C   0  0  0  0  0  3  0  0  0  0  0  0
  190.2820  176.9150  145.3590 C   0  0  0  0  0  3  0  0  0  0  0  0
  189.3550  177.1050  144.3300 C   0  0  0  0  0  3  0  0  0  0  0  0
  2 12  1  0  0  0  0
  3 21  1  0  0  0  0
  4 14  1  0  0  0  0
  5 13  1  0  0  0  0
  6  2  1  0  0  0  0
  7 11  1  0  0  0  0
  8 10  1  0  0  0  0
  9  7  1  0  0  0  0
 10 20  2  0  0  0  0
 10 19  1  0  0  0  0
 11 16  1  0  0  0  0
 12  1  1  0  0  0  0
 12 23  1  1  0  0  0
 13  4  2  0  0  0  0
 13  7  1  0  0  0  0
 14 11  2  0  0  0  0
 14 18  1  0  0  0  0
 15  1  1  0  0  0  0
 15 20  1  0  0  0  0
 16  3  1  0  0  0  0
 16  2  2  0  0  0  0
 17 21  1  0  0  0  0
 17  8  2  0  0  0  0
 18  6  2  0  0  0  0
 21 15  2  0  0  0  0
 23 24  2  0  0  0  0
 23 27  1  0  0  0  0
 24 25  1  0  0  0  0
 25 22  2  0  0  0  0
 26 22  1  0  0  0  0
 27 26  2  0  0  0  0
M  END
>  <MODEL>
3

>  <REMARK>
 VINA RESULT:      -9.5      2.639      5.528
  Name = 
  1 active torsions:
  status: ('A' for Active; 'I' for Inactive)
    1  A    between atoms: C_9  and  C_15
                            x       y       z     vdW  Elec       q    Type
                         _______ _______ _______ _____ _____    ______ ____

>  <TORSDO>
F 1

$$$$
=
 OpenBabel11052413393D

 27 31  0  0  1  0  0  0  0  0999 V2000
  186.0730  177.6480  143.0990 N   0  0  0  0  0  2  0  0  0  0  0  0
  188.3320  177.6060  142.2360 C   0  0  0  0  0  0  0  0  0  0  0  0
  187.0000  178.6960  140.4170 N   0  0  0  0  0  2  0  0  0  0  0  0
  190.9020  176.3580  139.2620 C   0  0  0  0  0  3  0  0  0  0  0  0
  190.6520  176.8700  136.7810 C   0  0  0  0  0  1  0  0  0  0  0  0
  189.4190  176.8490  142.6020 N   0  0  0  0  0  0  0  0  0  0  0  0
  189.1110  177.6100  138.6240 N   0  0  0  0  0  0  0  0  0  0  0  0
  183.3330  179.2490  140.3060 C   0  0  0  0  0  3  0  0  0  0  0  0
  188.1670  178.3310  137.7790 C   0  0  0  0  0  1  0  0  0  0  0  0
  182.8920  178.6190  141.4680 C   0  0  0  0  0  0  0  0  0  0  0  0
  189.0690  177.4500  139.9590 C   0  0  0  0  0  0  0  0  0  0  0  0
  187.4160  178.1640  143.2810 C   0  0  2  0  0  3  0  0  0  0  0  0
  190.2170  176.9530  138.2040 C   0  0  0  0  0  0  0  0  0  0  0  0
  190.1380  176.6970  140.3630 C   0  0  0  0  0  0  0  0  0  0  0  0
  185.1900  178.1250  142.0860 C   0  0  0  0  0  0  0  0  0  0  0  0
  188.1130  177.9130  140.8750 C   0  0  0  0  0  0  0  0  0  0  0  0
  184.6970  179.2950  140.0160 C   0  0  0  0  0  3  0  0  0  0  0  0
  190.3260  176.3790  141.6980 C   0  0  0  0  0  3  0  0  0  0  0  0
  181.5360  178.5540  141.7510 O   0  0  0  0  0  1  0  0  0  0  0  0
  183.8170  178.0660  142.3540 C   0  0  0  0  0  3  0  0  0  0  0  0
  185.6410  178.7270  140.8820 C   0  0  0  0  0  0  0  0  0  0  0  0
  188.7100  177.5320  147.3350 C   0  0  0  0  0  3  0  0  0  0  0  0
  187.8850  177.9320  144.6870 C   0  0  0  0  0  0  0  0  0  0  0  0
  189.2450  178.0130  145.0240 C   0  0  0  0  0  3  0  0  0  0  0  0
  189.6560  177.8120  146.3450 C   0  0  0  0  0  3  0  0  0  0  0  0
  187.3530  177.4550  147.0050 C   0  0  0  0  0  3  0  0  0  0  0  0
  186.9430  177.6560  145.6840 C   0  0  0  0  0  3  0  0  0  0  0  0
  1 12  1  0  0  0  0
  2  6  1  0  0  0  0
  2 12  1  0  0  0  0
  3 16  1  0  0  0  0
  3 21  1  0  0  0  0
  4 14  1  0  0  0  0
  5 13  1  0  0  0  0
  7 11  1  0  0  0  0
  8 10  1  0  0  0  0
  9  7  1  0  0  0  0
 10 19  1  0  0  0  0
 10 20  2  0  0  0  0
 11 14  2  0  0  0  0
 11 16  1  0  0  0  0
 12 23  1  1  0  0  0
 13  7  1  0  0  0  0
 13  4  2  0  0  0  0
 14 18  1  0  0  0  0
 15 20  1  0  0  0  0
 15  1  1  0  0  0  0
 16  2  2  0  0  0  0
 17  8  2  0  0  0  0
 17 21  1  0  0  0  0
 18  6  2  0  0  0  0
 21 15  2  0  0  0  0
 23 24  2  0  0  0  0
 23 27  1  0  0  0  0
 24 25  1  0  0  0  0
 25 22  2  0  0  0  0
 26 22  1  0  0  0  0
 27 26  2  0  0  0  0
M  END
>  <MODEL>
4

>  <REMARK>
 VINA RESULT:      -9.5      2.889      5.317
  Name = 
  1 active torsions:
  status: ('A' for Active; 'I' for Inactive)
    1  A    between atoms: C_9  and  C_15
                            x       y       z     vdW  Elec       q    Type
                         _______ _______ _______ _____ _____    ______ ____

>  <TORSDO>
F 1

$$$$
=
 OpenBabel11052413393D

 27 31  0  0  1  0  0  0  0  0999 V2000
  184.9960  177.9470  142.7610 N   0  0  0  0  0  2  0  0  0  0  0  0
  187.3840  177.9090  142.3800 C   0  0  0  0  0  0  0  0  0  0  0  0
  186.4410  178.8900  140.2780 N   0  0  0  0  0  2  0  0  0  0  0  0
  190.5180  176.5780  140.0540 C   0  0  0  0  0  3  0  0  0  0  0  0
  190.7760  176.9730  137.5530 C   0  0  0  0  0  1  0  0  0  0  0  0
  188.3800  177.1900  142.9950 N   0  0  0  0  0  0  0  0  0  0  0  0
  188.8840  177.7650  139.0050 N   0  0  0  0  0  0  0  0  0  0  0  0
  182.8690  179.3670  139.3960 C   0  0  0  0  0  3  0  0  0  0  0  0
  188.1260  178.4300  137.9530 C   0  0  0  0  0  1  0  0  0  0  0  0
  182.2060  178.7820  140.4730 C   0  0  0  0  0  0  0  0  0  0  0  0
  188.5720  177.6650  140.3100 C   0  0  0  0  0  0  0  0  0  0  0  0
  186.2690  178.4960  143.1880 C   0  0  2  0  0  3  0  0  0  0  0  0
  190.0590  177.1120  138.8520 C   0  0  0  0  0  0  0  0  0  0  0  0
  189.5430  176.9510  140.9590 C   0  0  0  0  0  0  0  0  0  0  0  0
  184.3340  178.3600  141.5680 C   0  0  0  0  0  0  0  0  0  0  0  0
  187.4440  178.1500  140.9890 C   0  0  0  0  0  0  0  0  0  0  0  0
  184.2630  179.4260  139.3880 C   0  0  0  0  0  3  0  0  0  0  0  0
  189.4570  176.6980  142.3180 C   0  0  0  0  0  3  0  0  0  0  0  0
  180.8210  178.7040  140.4760 O   0  0  0  0  0  1  0  0  0  0  0  0
  182.9360  178.2870  141.5530 C   0  0  0  0  0  3  0  0  0  0  0  0
  185.0150  178.9160  140.4530 C   0  0  0  0  0  0  0  0  0  0  0  0
  186.7380  178.0960  147.4460 C   0  0  0  0  0  3  0  0  0  0  0  0
  186.4430  178.3370  144.6700 C   0  0  0  0  0  0  0  0  0  0  0  0
  187.6340  177.8300  145.2120 C   0  0  0  0  0  3  0  0  0  0  0  0
  187.7800  177.7090  146.5970 C   0  0  0  0  0  3  0  0  0  0  0  0
  185.5520  178.6060  146.9100 C   0  0  0  0  0  3  0  0  0  0  0  0
  185.4060  178.7270  145.5250 C   0  0  0  0  0  3  0  0  0  0  0  0
  1 12  1  0  0  0  0
  2  6  1  0  0  0  0
  2 12  1  0  0  0  0
  3 21  1  0  0  0  0
  3 16  1  0  0  0  0
  4 14  1  0  0  0  0
  5 13  1  0  0  0  0
  7 11  1  0  0  0  0
  8 10  1  0  0  0  0
  9  7  1  0  0  0  0
 10 19  1  0  0  0  0
 10 20  2  0  0  0  0
 11 14  2  0  0  0  0
 11 16  1  0  0  0  0
 12 23  1  1  0  0  0
 13  7  1  0  0  0  0
 13  4  2  0  0  0  0
 14 18  1  0  0  0  0
 15  1  1  0  0  0  0
 16  2  2  0  0  0  0
 17  8  2  0  0  0  0
 17 21  1  0  0  0  0
 18  6  2  0  0  0  0
 20 15  1  0  0  0  0
 21 15  2  0  0  0  0
 23 24  2  0  0  0  0
 23 27  1  0  0  0  0
 24 25  1  0  0  0  0
 25 22  2  0  0  0  0
 26 22  1  0  0  0  0
 27 26  2  0  0  0  0
M  END
>  <MODEL>
5

>  <REMARK>
 VINA RESULT:      -9.5      3.166      5.570
  Name = 
  1 active torsions:
  status: ('A' for Active; 'I' for Inactive)
    1  A    between atoms: C_9  and  C_15
                            x       y       z     vdW  Elec       q    Type
                         _______ _______ _______ _____ _____    ______ ____

>  <TORSDO>
F 1

$$$$
=
 OpenBabel11052413393D

 27 31  0  0  1  0  0  0  0  0999 V2000
  188.7310  177.1660  139.8580 N   0  0  0  0  0  2  0  0  0  0  0  0
  188.0340  177.8550  142.0690 C   0  0  0  0  0  0  0  0  0  0  0  0
  190.5340  177.9780  142.1470 N   0  0  0  0  0  2  0  0  0  0  0  0
  188.1910  177.1890  146.1350 C   0  0  0  0  0  3  0  0  0  0  0  0
  190.3130  177.0930  147.5380 C   0  0  0  0  0  1  0  0  0  0  0  0
  186.8470  177.6680  142.7360 N   0  0  0  0  0  0  0  0  0  0  0  0
  190.1740  177.4960  145.0600 N   0  0  0  0  0  0  0  0  0  0  0  0
  192.9390  177.0150  139.4910 C   0  0  0  0  0  3  0  0  0  0  0  0
  191.6070  177.6190  144.8250 C   0  0  0  0  0  1  0  0  0  0  0  0
  192.1100  176.4900  138.5010 C   0  0  0  0  0  0  0  0  0  0  0  0
  189.1780  177.5820  144.1590 C   0  0  0  0  0  0  0  0  0  0  0  0
  188.0340  178.1920  140.6100 C   0  0  2  0  0  3  0  0  0  0  0  0
  189.5780  177.2610  146.2520 C   0  0  0  0  0  0  0  0  0  0  0  0
  187.9760  177.3980  144.7870 C   0  0  0  0  0  0  0  0  0  0  0  0
  190.1520  177.0610  139.8220 C   0  0  0  0  0  0  0  0  0  0  0  0
  189.2560  177.7940  142.7740 C   0  0  0  0  0  0  0  0  0  0  0  0
  192.3810  177.5390  140.6580 C   0  0  0  0  0  3  0  0  0  0  0  0
  186.7860  177.4330  144.0780 C   0  0  0  0  0  3  0  0  0  0  0  0
  192.6610  175.9510  137.3480 O   0  0  0  0  0  1  0  0  0  0  0  0
  190.7250  176.5190  138.6660 C   0  0  0  0  0  3  0  0  0  0  0  0
  190.9940  177.5580  140.8520 C   0  0  0  0  0  0  0  0  0  0  0  0
  184.1380  178.8870  138.9210 C   0  0  0  0  0  3  0  0  0  0  0  0
  186.6660  178.4280  140.0410 C   0  0  0  0  0  0  0  0  0  0  0  0
  185.6460  179.0060  140.8120 C   0  0  0  0  0  3  0  0  0  0  0  0
  184.3850  179.2340  140.2530 C   0  0  0  0  0  3  0  0  0  0  0  0
  185.1530  178.3140  138.1480 C   0  0  0  0  0  3  0  0  0  0  0  0
  186.4140  178.0870  138.7070 C   0  0  0  0  0  3  0  0  0  0  0  0
  1 12  1  0  0  0  0
  2  6  2  0  0  0  0
  2 16  1  0  0  0  0
  3 16  1  0  0  0  0
  4 13  2  0  0  0  0
  6 18  1  0  0  0  0
  7 13  1  0  0  0  0
  8 17  1  0  0  0  0
  9  7  1  0  0  0  0
 10 20  1  0  0  0  0
 10  8  2  0  0  0  0
 11 14  1  0  0  0  0
 11  7  1  0  0  0  0
 12 23  1  6  0  0  0
 12  2  1  0  0  0  0
 13  5  1  0  0  0  0
 14  4  1  0  0  0  0
 15  1  1  0  0  0  0
 15 21  1  0  0  0  0
 16 11  2  0  0  0  0
 17 21  2  0  0  0  0
 18 14  2  0  0  0  0
 19 10  1  0  0  0  0
 20 15  2  0  0  0  0
 21  3  1  0  0  0  0
 22 25  1  0  0  0  0
 23 24  1  0  0  0  0
 25 24  2  0  0  0  0
 26 27  1  0  0  0  0
 26 22  2  0  0  0  0
 27 23  2  0  0  0  0
M  END
>  <MODEL>
6

>  <REMARK>
 VINA RESULT:      -9.2      2.636      5.759
  Name = 
  1 active torsions:
  status: ('A' for Active; 'I' for Inactive)
    1  A    between atoms: C_9  and  C_15
                            x       y       z     vdW  Elec       q    Type
                         _______ _______ _______ _____ _____    ______ ____

>  <TORSDO>
F 1

$$$$
=
 OpenBabel11052413393D

 27 31  0  0  1  0  0  0  0  0999 V2000
  188.2380  178.3760  141.0210 N   0  0  0  0  0  2  0  0  0  0  0  0
  189.3820  177.5280  142.9760 C   0  0  0  0  0  0  0  0  0  0  0  0
  186.9540  177.3660  143.5670 N   0  0  0  0  0  2  0  0  0  0  0  0
  190.0850  177.8780  147.0240 C   0  0  0  0  0  3  0  0  0  0  0  0
  188.3060  177.8370  148.8430 C   0  0  0  0  0  1  0  0  0  0  0  0
  190.6830  177.6800  143.3910 N   0  0  0  0  0  0  0  0  0  0  0  0
  187.9200  177.6280  146.3680 N   0  0  0  0  0  0  0  0  0  0  0  0
  184.0470  178.4970  141.5580 C   0  0  0  0  0  3  0  0  0  0  0  0
  186.4690  177.5040  146.4300 C   0  0  0  0  0  1  0  0  0  0  0  0
  184.6510  179.1080  140.4600 C   0  0  0  0  0  0  0  0  0  0  0  0
  188.7040  177.6240  145.2740 C   0  0  0  0  0  0  0  0  0  0  0  0
  189.0750  177.3050  141.5280 C   0  0  2  0  0  3  0  0  0  0  0  0
  188.7540  177.7790  147.4230 C   0  0  0  0  0  0  0  0  0  0  0  0
  190.0110  177.7760  145.6480 C   0  0  0  0  0  0  0  0  0  0  0  0
  186.8410  178.4630  141.2920 C   0  0  0  0  0  0  0  0  0  0  0  0
  188.3360  177.5190  143.9240 C   0  0  0  0  0  0  0  0  0  0  0  0
  184.8360  177.8930  142.5370 C   0  0  0  0  0  3  0  0  0  0  0  0
  191.0250  177.8110  144.7050 C   0  0  0  0  0  3  0  0  0  0  0  0
  183.8710  179.7260  139.4940 O   0  0  0  0  0  1  0  0  0  0  0  0
  186.0400  179.0860  140.3290 C   0  0  0  0  0  3  0  0  0  0  0  0
  186.2330  177.8780  142.4340 C   0  0  0  0  0  0  0  0  0  0  0  0
  192.5420  176.7520  139.0410 C   0  0  0  0  0  3  0  0  0  0  0  0
  190.2920  177.1320  140.6670 C   0  0  0  0  0  0  0  0  0  0  0  0
  191.5650  177.5030  141.1250 C   0  0  0  0  0  3  0  0  0  0  0  0
  192.6870  177.3150  140.3130 C   0  0  0  0  0  3  0  0  0  0  0  0
  191.2750  176.3760  138.5830 C   0  0  0  0  0  3  0  0  0  0  0  0
  190.1530  176.5650  139.3960 C   0  0  0  0  0  3  0  0  0  0  0  0
  1 15  1  0  0  0  0
  1 12  1  0  0  0  0
  2  6  2  0  0  0  0
  2 16  1  0  0  0  0
  3 16  1  0  0  0  0
  4 13  2  0  0  0  0
  6 18  1  0  0  0  0
  7  9  1  0  0  0  0
  7 13  1  0  0  0  0
  8 17  1  0  0  0  0
 10  8  2  0  0  0  0
 11 14  1  0  0  0  0
 11  7  1  0  0  0  0
 12 23  1  6  0  0  0
 12  2  1  0  0  0  0
 13  5  1  0  0  0  0
 14  4  1  0  0  0  0
 15 21  1  0  0  0  0
 16 11  2  0  0  0  0
 18 14  2  0  0  0  0
 19 10  1  0  0  0  0
 20 10  1  0  0  0  0
 20 15  2  0  0  0  0
 21 17  2  0  0  0  0
 21  3  1  0  0  0  0
 22 25  1  0  0  0  0
 23 24  1  0  0  0  0
 25 24  2  0  0  0  0
 26 22  2  0  0  0  0
 26 27  1  0  0  0  0
 27 23  2  0  0  0  0
M  END
>  <MODEL>
7

>  <REMARK>
 VINA RESULT:      -9.0      2.908      7.479
  Name = 
  1 active torsions:
  status: ('A' for Active; 'I' for Inactive)
    1  A    between atoms: C_9  and  C_15
                            x       y       z     vdW  Elec       q    Type
                         _______ _______ _______ _____ _____    ______ ____

>  <TORSDO>
F 1

$$$$
=
 OpenBabel11052413393D

 27 31  0  0  1  0  0  0  0  0999 V2000
  187.1150  178.5740  140.4730 N   0  0  0  0  0  2  0  0  0  0  0  0
  188.6240  177.7070  142.1530 C   0  0  0  0  0  0  0  0  0  0  0  0
  186.3570  177.5040  143.1980 N   0  0  0  0  0  2  0  0  0  0  0  0
  190.0930  177.9940  145.9950 C   0  0  0  0  0  3  0  0  0  0  0  0
  188.6990  177.9000  148.1230 C   0  0  0  0  0  1  0  0  0  0  0  0
  189.9790  177.8680  142.3120 N   0  0  0  0  0  0  0  0  0  0  0  0
  187.8440  177.7290  145.7650 N   0  0  0  0  0  0  0  0  0  0  0  0
  183.1070  178.6330  141.8110 C   0  0  0  0  0  3  0  0  0  0  0  0
  186.4340  177.5860  146.1040 C   0  0  0  0  0  1  0  0  0  0  0  0
  183.4810  179.2710  140.6300 C   0  0  0  0  0  0  0  0  0  0  0  0
  188.4010  177.7540  144.5410 C   0  0  0  0  0  0  0  0  0  0  0  0
  188.0440  177.5050  140.7870 C   0  0  2  0  0  3  0  0  0  0  0  0
  188.8650  177.8720  146.6420 C   0  0  0  0  0  0  0  0  0  0  0  0
  189.7550  177.9160  144.6580 C   0  0  0  0  0  0  0  0  0  0  0  0
  185.7970  178.6390  141.0110 C   0  0  0  0  0  0  0  0  0  0  0  0
  187.7800  177.6680  143.2850 C   0  0  0  0  0  0  0  0  0  0  0  0
  184.0750  178.0220  142.6080 C   0  0  0  0  0  3  0  0  0  0  0  0
  190.5670  177.9800  143.5370 C   0  0  0  0  0  3  0  0  0  0  0  0
  182.5240  179.8960  139.8440 O   0  0  0  0  0  1  0  0  0  0  0  0
  184.8180  179.2680  140.2320 C   0  0  0  0  0  3  0  0  0  0  0  0
  185.4260  178.0260  142.2370 C   0  0  0  0  0  0  0  0  0  0  0  0
  190.9480  177.0930  137.6390 C   0  0  0  0  0  3  0  0  0  0  0  0
  189.0730  177.3620  139.7050 C   0  0  0  0  0  0  0  0  0  0  0  0
  190.2180  176.5710  139.8880 C   0  0  0  0  0  3  0  0  0  0  0  0
  191.1530  176.4390  138.8580 C   0  0  0  0  0  3  0  0  0  0  0  0
  189.8060  177.8780  137.4510 C   0  0  0  0  0  3  0  0  0  0  0  0
  188.8700  178.0110  138.4810 C   0  0  0  0  0  3  0  0  0  0  0  0
  1 12  1  0  0  0  0
  1 15  1  0  0  0  0
  2  6  2  0  0  0  0
  2 16  1  0  0  0  0
  3 16  1  0  0  0  0
  4 13  2  0  0  0  0
  6 18  1  0  0  0  0
  7  9  1  0  0  0  0
  7 13  1  0  0  0  0
  8 17  1  0  0  0  0
 10  8  2  0  0  0  0
 11 14  1  0  0  0  0
 11  7  1  0  0  0  0
 12 23  1  6  0  0  0
 12  2  1  0  0  0  0
 13  5  1  0  0  0  0
 14  4  1  0  0  0  0
 15 21  1  0  0  0  0
 16 11  2  0  0  0  0
 18 14  2  0  0  0  0
 19 10  1  0  0  0  0
 20 10  1  0  0  0  0
 20 15  2  0  0  0  0
 21 17  2  0  0  0  0
 21  3  1  0  0  0  0
 22 25  1  0  0  0  0
 23 24  1  0  0  0  0
 25 24  2  0  0  0  0
 26 22  2  0  0  0  0
 26 27  1  0  0  0  0
 27 23  2  0  0  0  0
M  END
>  <MODEL>
8

>  <REMARK>
 VINA RESULT:      -8.8      2.921      7.427
  Name = 
  1 active torsions:
  status: ('A' for Active; 'I' for Inactive)
    1  A    between atoms: C_9  and  C_15
                            x       y       z     vdW  Elec       q    Type
                         _______ _______ _______ _____ _____    ______ ____

>  <TORSDO>
F 1

$$$$
=
 OpenBabel11052413393D

 27 31  0  0  1  0  0  0  0  0999 V2000
  185.4390  177.9750  138.2110 N   0  0  0  0  0  2  0  0  0  0  0  0
  185.1370  178.6500  140.5140 C   0  0  0  0  0  0  0  0  0  0  0  0
  187.6210  178.6280  140.2010 N   0  0  0  0  0  2  0  0  0  0  0  0
  185.8840  177.8800  144.4960 C   0  0  0  0  0  3  0  0  0  0  0  0
  188.1880  177.6300  145.5470 C   0  0  0  0  0  1  0  0  0  0  0  0
  184.0590  178.5150  141.3550 N   0  0  0  0  0  0  0  0  0  0  0  0
  187.6900  178.0990  143.1280 N   0  0  0  0  0  0  0  0  0  0  0  0
  189.5220  177.5920  137.1880 C   0  0  0  0  0  3  0  0  0  0  0  0
  189.0740  178.1450  142.6730 C   0  0  0  0  0  1  0  0  0  0  0  0
  188.5200  177.1390  136.3330 C   0  0  0  0  0  0  0  0  0  0  0  0
  186.5740  178.2630  142.3950 C   0  0  0  0  0  0  0  0  0  0  0  0
  184.9310  179.0210  139.0780 C   0  0  2  0  0  3  0  0  0  0  0  0
  187.2740  177.8700  144.3950 C   0  0  0  0  0  0  0  0  0  0  0  0
  185.4750  178.1330  143.2000 C   0  0  0  0  0  0  0  0  0  0  0  0
  186.8290  177.7900  137.9520 C   0  0  0  0  0  0  0  0  0  0  0  0
  186.4480  178.5020  141.0180 C   0  0  0  0  0  0  0  0  0  0  0  0
  189.1860  178.1190  138.4360 C   0  0  0  0  0  3  0  0  0  0  0  0
  184.1940  178.2530  142.6870 C   0  0  0  0  0  3  0  0  0  0  0  0
  188.8520  176.5970  135.1000 O   0  0  0  0  0  1  0  0  0  0  0  0
  187.1820  177.2430  136.7130 C   0  0  0  0  0  3  0  0  0  0  0  0
  187.8490  178.2130  138.8450 C   0  0  0  0  0  0  0  0  0  0  0  0
  180.8530  179.9180  138.0380 C   0  0  0  0  0  3  0  0  0  0  0  0
  183.5070  179.3470  138.7330 C   0  0  0  0  0  0  0  0  0  0  0  0
  183.0120  180.6550  138.8500 C   0  0  0  0  0  3  0  0  0  0  0  0
  181.6870  180.9390  138.5040 C   0  0  0  0  0  3  0  0  0  0  0  0
  181.3450  178.6150  137.9150 C   0  0  0  0  0  3  0  0  0  0  0  0
  182.6690  178.3310  138.2610 C   0  0  0  0  0  3  0  0  0  0  0  0
  1 12  1  0  0  0  0
  2 16  2  0  0  0  0
  2  6  1  0  0  0  0
  3 16  1  0  0  0  0
  6 18  2  0  0  0  0
  7 13  1  0  0  0  0
  8 17  1  0  0  0  0
  9  7  1  0  0  0  0
 10 20  1  0  0  0  0
 10  8  2  0  0  0  0
 11  7  1  0  0  0  0
 11 14  2  0  0  0  0
 12 23  1  1  0  0  0
 12  2  1  0  0  0  0
 13  4  2  0  0  0  0
 13  5  1  0  0  0  0
 14  4  1  0  0  0  0
 15  1  1  0  0  0  0
 15 21  1  0  0  0  0
 16 11  1  0  0  0  0
 17 21  2  0  0  0  0
 18 14  1  0  0  0  0
 19 10  1  0  0  0  0
 20 15  2  0  0  0  0
 21  3  1  0  0  0  0
 22 25  1  0  0  0  0
 23 24  1  0  0  0  0
 25 24  2  0  0  0  0
 26 22  2  0  0  0  0
 26 27  1  0  0  0  0
 27 23  2  0  0  0  0
M  END
>  <MODEL>
9

>  <REMARK>
 VINA RESULT:      -8.8      3.831      6.810
  Name = 
  1 active torsions:
  status: ('A' for Active; 'I' for Inactive)
    1  A    between atoms: C_9  and  C_15
                            x       y       z     vdW  Elec       q    Type
                         _______ _______ _______ _____ _____    ______ ____

>  <TORSDO>
F 1

$$$$
