=
 OpenBabel11052413073D

 31 34  0  0  1  0  0  0  0  0999 V2000
  185.1840  178.3790  145.0820 C   0  0  0  0  0  0  0  0  0  0  0  0
  188.5830  177.6980  143.6430 C   0  0  0  0  0  0  0  0  0  0  0  0
  189.4560  177.3780  144.8250 C   0  0  0  0  0  0  0  0  0  0  0  0
  189.7740  176.6220  147.1220 C   0  0  0  0  0  3  0  0  0  0  0  0
  187.1990  178.0090  143.7570 C   0  0  0  0  0  0  0  0  0  0  0  0
  184.4530  178.6340  143.9220 C   0  0  0  0  0  3  0  0  0  0  0  0
  188.9320  176.9380  146.0530 C   0  0  0  0  0  3  0  0  0  0  0  0
  188.4130  178.0040  141.2020 C   0  0  0  0  0  0  0  0  0  0  0  0
  184.3970  178.4450  146.6440 Cl  0  0  0  0  0  0  0  0  0  0  0  0
  191.4570  177.9070  143.3930 C   0  0  0  0  0  2  0  0  0  0  0  0
  191.1580  176.7350  146.9770 C   0  0  0  0  0  0  0  0  0  0  0  0
  187.0560  178.2780  141.3440 C   0  0  0  0  0  3  0  0  0  0  0  0
  189.1900  177.7180  142.3550 C   0  0  0  0  0  0  0  0  0  0  0  0
  186.5430  178.0720  144.9990 C   0  0  0  0  0  3  0  0  0  0  0  0
  191.9750  176.4340  148.0150 F   0  0  0  0  0  0  0  0  0  0  0  0
  186.4470  178.2880  142.5920 C   0  0  0  0  0  0  0  0  0  0  0  0
  185.0840  178.5890  142.6790 C   0  0  0  0  0  3  0  0  0  0  0  0
  190.6440  177.3420  142.2350 C   0  0  0  0  0  2  0  0  0  0  0  0
  190.8590  177.4590  144.6870 C   0  0  0  0  0  0  0  0  0  0  0  0
  191.7000  177.1520  145.7610 C   0  0  0  0  0  3  0  0  0  0  0  0
  188.9360  178.0330  139.8640 N   0  0  0  0  0  2  0  0  0  0  0  0
  188.6700  177.0770  138.7990 C   0  0  0  0  0  2  0  0  0  0  0  0
  188.9450  178.0100  136.2950 S   0  0  0  0  0  0  0  0  0  0  0  0
  188.0420  177.7730  137.6450 C   0  0  0  0  0  0  0  0  0  0  0  0
  186.8080  178.4760  137.8600 N   0  0  0  0  0  2  0  0  0  0  0  0
  185.0980  177.2600  136.6650 C   0  0  0  0  0  2  0  0  0  0  0  0
  185.4730  177.9650  137.7270 C   0  0  0  0  0  0  0  0  0  0  0  0
  184.5610  178.0220  138.9070 C   0  0  0  0  0  2  0  0  0  0  0  0
  183.6350  179.2260  138.8250 C   0  0  2  0  0  3  0  0  0  0  0  0
  184.3440  180.3940  139.1060 O   0  0  0  0  0  1  0  0  0  0  0  0
  182.5130  179.0660  139.8290 C   0  0  0  0  0  1  0  0  0  0  0  0
  1  9  1  0  0  0  0
  2  5  1  0  0  0  0
  2  3  1  0  0  0  0
  3  7  1  0  0  0  0
  5 14  2  0  0  0  0
  6  1  2  0  0  0  0
  7  4  2  0  0  0  0
  8 12  2  0  0  0  0
  8 13  1  0  0  0  0
 10 19  1  0  0  0  0
 11  4  1  0  0  0  0
 11 15  1  0  0  0  0
 12 16  1  0  0  0  0
 13  2  2  0  0  0  0
 14  1  1  0  0  0  0
 16 17  2  0  0  0  0
 16  5  1  0  0  0  0
 17  6  1  0  0  0  0
 18 13  1  0  0  0  0
 18 10  1  0  0  0  0
 19  3  2  0  0  0  0
 19 20  1  0  0  0  0
 20 11  2  0  0  0  0
 21  8  1  0  0  0  0
 22 21  1  0  0  0  0
 23 24  2  0  0  0  0
 24 25  1  0  0  0  0
 24 22  1  0  0  0  0
 26 27  2  0  0  0  0
 27 25  1  0  0  0  0
 27 28  1  0  0  0  0
 29 28  1  0  0  0  0
 29 30  1  0  0  0  0
 29 31  1  1  0  0  0
M  END
>  <MODEL>
1

>  <REMARK>
 VINA RESULT:      -9.6      0.000      0.000
  Name = 
  7 active torsions:
  status: ('A' for Active; 'I' for Inactive)
    1  A    between atoms: C_1  and  C_24
    2  A    between atoms: N_3  and  C_19
    3  A    between atoms: N_3  and  C_22
    4  A    between atoms: C_9  and  C_22
    5  A    between atoms: C_9  and  N_23
    6  A    between atoms: C_15  and  N_23
    7  A    between atoms: C_19  and  C_24
                            x       y       z     vdW  Elec       q    Type
                         _______ _______ _______ _____ _____    ______ ____

>  <TORSDO>
F 7

$$$$
=
 OpenBabel11052413073D

 31 34  0  0  1  0  0  0  0  0999 V2000
  189.5120  177.4080  147.2960 C   0  0  0  0  0  0  0  0  0  0  0  0
  187.4020  177.7460  144.2110 C   0  0  0  0  0  0  0  0  0  0  0  0
  188.3310  177.4620  143.0620 C   0  0  0  0  0  0  0  0  0  0  0  0
  190.3500  176.4640  142.1260 C   0  0  0  0  0  3  0  0  0  0  0  0
  187.8110  177.7120  145.5730 C   0  0  0  0  0  0  0  0  0  0  0  0
  188.5670  177.6590  148.2900 C   0  0  0  0  0  3  0  0  0  0  0  0
  189.5240  176.7350  143.2200 C   0  0  0  0  0  3  0  0  0  0  0  0
  185.1320  178.3670  144.9480 C   0  0  0  0  0  0  0  0  0  0  0  0
  191.1710  177.0590  147.7330 Cl  0  0  0  0  0  0  0  0  0  0  0  0
  186.7020  178.6430  141.5510 C   0  0  0  0  0  2  0  0  0  0  0  0
  189.9920  176.9120  140.8530 C   0  0  0  0  0  0  0  0  0  0  0  0
  185.5570  178.2980  146.2710 C   0  0  0  0  0  3  0  0  0  0  0  0
  186.0560  178.0970  143.9050 C   0  0  0  0  0  0  0  0  0  0  0  0
  189.1370  177.4370  145.9510 C   0  0  0  0  0  3  0  0  0  0  0  0
  190.7950  176.6540  139.7940 F   0  0  0  0  0  0  0  0  0  0  0  0
  186.8700  177.9820  146.5930 C   0  0  0  0  0  0  0  0  0  0  0  0
  187.2490  177.9470  147.9390 C   0  0  0  0  0  3  0  0  0  0  0  0
  185.6160  178.0860  142.4630 C   0  0  0  0  0  2  0  0  0  0  0  0
  187.9690  177.8820  141.7640 C   0  0  0  0  0  0  0  0  0  0  0  0
  188.8020  177.6180  140.6720 C   0  0  0  0  0  3  0  0  0  0  0  0
  183.7540  178.7140  144.7340 N   0  0  0  0  0  2  0  0  0  0  0  0
  183.2310  179.6780  143.7770 C   0  0  0  0  0  2  0  0  0  0  0  0
  180.7610  178.6380  143.9410 S   0  0  0  0  0  0  0  0  0  0  0  0
  182.0670  179.0940  143.0600 C   0  0  0  0  0  0  0  0  0  0  0  0
  182.2470  178.6660  141.7010 N   0  0  0  0  0  2  0  0  0  0  0  0
  180.4740  179.8880  140.6070 C   0  0  0  0  0  2  0  0  0  0  0  0
  181.5900  179.1710  140.5280 C   0  0  0  0  0  0  0  0  0  0  0  0
  182.3000  179.0930  139.2180 C   0  0  0  0  0  2  0  0  0  0  0  0
  183.8060  179.1780  139.4070 C   0  0  2  0  0  3  0  0  0  0  0  0
  184.2600  180.4520  139.0620 O   0  0  0  0  0  1  0  0  0  0  0  0
  184.4830  178.1500  138.5260 C   0  0  0  0  0  1  0  0  0  0  0  0
  1  9  1  0  0  0  0
  1  6  1  0  0  0  0
  2  5  1  0  0  0  0
  3  7  1  0  0  0  0
  3  2  1  0  0  0  0
  4  7  2  0  0  0  0
  5 14  1  0  0  0  0
  5 16  2  0  0  0  0
  8 12  2  0  0  0  0
 10 19  1  0  0  0  0
 10 18  1  0  0  0  0
 11  4  1  0  0  0  0
 12 16  1  0  0  0  0
 13  2  2  0  0  0  0
 13  8  1  0  0  0  0
 14  1  2  0  0  0  0
 15 11  1  0  0  0  0
 16 17  1  0  0  0  0
 17  6  2  0  0  0  0
 18 13  1  0  0  0  0
 19  3  2  0  0  0  0
 20 11  2  0  0  0  0
 20 19  1  0  0  0  0
 21  8  1  0  0  0  0
 22 21  1  0  0  0  0
 24 22  1  0  0  0  0
 24 23  2  0  0  0  0
 25 24  1  0  0  0  0
 27 26  2  0  0  0  0
 27 25  1  0  0  0  0
 28 29  1  0  0  0  0
 28 27  1  0  0  0  0
 29 31  1  6  0  0  0
 30 29  1  0  0  0  0
M  END
>  <MODEL>
2

>  <REMARK>
 VINA RESULT:      -9.5      3.495      5.414
  Name = 
  7 active torsions:
  status: ('A' for Active; 'I' for Inactive)
    1  A    between atoms: C_1  and  C_24
    2  A    between atoms: N_3  and  C_19
    3  A    between atoms: N_3  and  C_22
    4  A    between atoms: C_9  and  C_22
    5  A    between atoms: C_9  and  N_23
    6  A    between atoms: C_15  and  N_23
    7  A    between atoms: C_19  and  C_24
                            x       y       z     vdW  Elec       q    Type
                         _______ _______ _______ _____ _____    ______ ____

>  <TORSDO>
F 7

$$$$
=
 OpenBabel11052413073D

 31 34  0  0  1  0  0  0  0  0999 V2000
  188.5060  177.2880  147.2220 C   0  0  0  0  0  0  0  0  0  0  0  0
  187.1910  178.0420  143.7890 C   0  0  0  0  0  0  0  0  0  0  0  0
  185.7260  178.3280  143.9790 C   0  0  0  0  0  0  0  0  0  0  0  0
  183.8290  179.0070  145.3520 C   0  0  0  0  0  3  0  0  0  0  0  0
  188.0690  177.7170  144.8600 C   0  0  0  0  0  0  0  0  0  0  0  0
  189.8550  177.0680  146.9450 C   0  0  0  0  0  3  0  0  0  0  0  0
  185.1910  178.7220  145.2170 C   0  0  0  0  0  3  0  0  0  0  0  0
  189.0810  177.8170  142.2210 C   0  0  0  0  0  0  0  0  0  0  0  0
  187.9180  177.1630  148.8660 Cl  0  0  0  0  0  0  0  0  0  0  0  0
  185.3940  177.8620  141.5290 C   0  0  0  0  0  2  0  0  0  0  0  0
  182.9820  178.9090  144.2480 C   0  0  0  0  0  0  0  0  0  0  0  0
  189.9200  177.5290  143.2950 C   0  0  0  0  0  3  0  0  0  0  0  0
  187.7060  178.0700  142.4610 C   0  0  0  0  0  0  0  0  0  0  0  0
  187.6230  177.6070  146.1890 C   0  0  0  0  0  3  0  0  0  0  0  0
  181.6620  179.1800  144.3800 F   0  0  0  0  0  0  0  0  0  0  0  0
  189.4360  177.4730  144.5950 C   0  0  0  0  0  0  0  0  0  0  0  0
  190.3190  177.1590  145.6330 C   0  0  0  0  0  3  0  0  0  0  0  0
  186.7820  178.4600  141.3350 C   0  0  0  0  0  2  0  0  0  0  0  0
  184.8610  178.2610  142.8660 C   0  0  0  0  0  0  0  0  0  0  0  0
  183.4970  178.5370  143.0050 C   0  0  0  0  0  3  0  0  0  0  0  0
  189.6910  177.8380  140.9190 N   0  0  0  0  0  2  0  0  0  0  0  0
  190.4630  176.7740  140.2970 C   0  0  0  0  0  2  0  0  0  0  0  0
  191.8540  176.4190  138.0270 S   0  0  0  0  0  0  0  0  0  0  0  0
  190.5510  177.0080  138.8310 C   0  0  0  0  0  0  0  0  0  0  0  0
  189.6810  177.9870  138.2420 N   0  0  0  0  0  2  0  0  0  0  0  0
  188.7770  177.9240  136.0040 C   0  0  0  0  0  2  0  0  0  0  0  0
  188.6100  177.7630  137.3120 C   0  0  0  0  0  0  0  0  0  0  0  0
  187.3610  177.1090  137.8000 C   0  0  0  0  0  2  0  0  0  0  0  0
  186.1280  177.8540  137.3130 C   0  0  2  0  0  3  0  0  0  0  0  0
  185.9220  178.9940  138.0900 O   0  0  0  0  0  1  0  0  0  0  0  0
  184.9190  176.9490  137.4210 C   0  0  0  0  0  1  0  0  0  0  0  0
  1  9  1  0  0  0  0
  2  3  1  0  0  0  0
  2  5  1  0  0  0  0
  3  7  1  0  0  0  0
  5 14  1  0  0  0  0
  6  1  1  0  0  0  0
  7  4  2  0  0  0  0
  8 13  1  0  0  0  0
  8 12  2  0  0  0  0
 10 19  1  0  0  0  0
 11 15  1  0  0  0  0
 11  4  1  0  0  0  0
 12 16  1  0  0  0  0
 13  2  2  0  0  0  0
 14  1  2  0  0  0  0
 16  5  2  0  0  0  0
 16 17  1  0  0  0  0
 17  6  2  0  0  0  0
 18 10  1  0  0  0  0
 18 13  1  0  0  0  0
 19 20  1  0  0  0  0
 19  3  2  0  0  0  0
 20 11  2  0  0  0  0
 21  8  1  0  0  0  0
 22 21  1  0  0  0  0
 23 24  2  0  0  0  0
 24 22  1  0  0  0  0
 25 24  1  0  0  0  0
 26 27  2  0  0  0  0
 27 28  1  0  0  0  0
 27 25  1  0  0  0  0
 29 31  1  1  0  0  0
 29 28  1  0  0  0  0
 29 30  1  0  0  0  0
M  END
>  <MODEL>
3

>  <REMARK>
 VINA RESULT:      -9.1      2.686      4.799
  Name = 
  7 active torsions:
  status: ('A' for Active; 'I' for Inactive)
    1  A    between atoms: C_1  and  C_24
    2  A    between atoms: N_3  and  C_19
    3  A    between atoms: N_3  and  C_22
    4  A    between atoms: C_9  and  C_22
    5  A    between atoms: C_9  and  N_23
    6  A    between atoms: C_15  and  N_23
    7  A    between atoms: C_19  and  C_24
                            x       y       z     vdW  Elec       q    Type
                         _______ _______ _______ _____ _____    ______ ____

>  <TORSDO>
F 7

$$$$
=
 OpenBabel11052413073D

 31 34  0  0  1  0  0  0  0  0999 V2000
  188.4780  177.3250  146.1740 C   0  0  0  0  0  0  0  0  0  0  0  0
  186.6370  178.2620  143.0410 C   0  0  0  0  0  0  0  0  0  0  0  0
  185.2070  178.4560  143.4650 C   0  0  0  0  0  0  0  0  0  0  0  0
  183.5100  178.9320  145.1500 C   0  0  0  0  0  3  0  0  0  0  0  0
  187.6770  177.9050  143.9430 C   0  0  0  0  0  0  0  0  0  0  0  0
  189.7790  177.1960  145.6870 C   0  0  0  0  0  3  0  0  0  0  0  0
  184.8460  178.7290  144.7960 C   0  0  0  0  0  3  0  0  0  0  0  0
  188.2800  178.2540  141.2020 C   0  0  0  0  0  0  0  0  0  0  0  0
  188.1480  177.0470  147.8700 Cl  0  0  0  0  0  0  0  0  0  0  0  0
  184.5320  178.1570  141.0590 C   0  0  0  0  0  2  0  0  0  0  0  0
  182.5120  178.8720  144.1760 C   0  0  0  0  0  0  0  0  0  0  0  0
  189.2800  177.9310  142.1150 C   0  0  0  0  0  3  0  0  0  0  0  0
  186.9460  178.4160  141.6590 C   0  0  0  0  0  0  0  0  0  0  0  0
  187.4390  177.6730  145.3090 C   0  0  0  0  0  3  0  0  0  0  0  0
  181.2160  179.0630  144.5200 F   0  0  0  0  0  0  0  0  0  0  0  0
  188.9990  177.7530  143.4630 C   0  0  0  0  0  0  0  0  0  0  0  0
  190.0380  177.4090  144.3330 C   0  0  0  0  0  3  0  0  0  0  0  0
  185.8510  178.8400  140.7150 C   0  0  0  0  0  2  0  0  0  0  0  0
  184.1890  178.4280  142.4870 C   0  0  0  0  0  0  0  0  0  0  0  0
  182.8510  178.6220  142.8450 C   0  0  0  0  0  3  0  0  0  0  0  0
  188.6870  178.4030  139.8320 N   0  0  0  0  0  2  0  0  0  0  0  0
  189.8790  177.8510  139.2070 C   0  0  0  0  0  2  0  0  0  0  0  0
  188.0460  176.7110  137.6080 S   0  0  0  0  0  0  0  0  0  0  0  0
  189.5080  176.6900  138.3530 C   0  0  0  0  0  0  0  0  0  0  0  0
  190.2800  175.4850  138.4650 N   0  0  0  0  0  2  0  0  0  0  0  0
  190.5890  173.6800  136.8900 C   0  0  0  0  0  2  0  0  0  0  0  0
  191.0170  174.8160  137.4290 C   0  0  0  0  0  0  0  0  0  0  0  0
  192.1550  175.5320  136.7820 C   0  0  0  0  0  2  0  0  0  0  0  0
  193.2710  175.8010  137.7800 C   0  0  2  0  0  3  0  0  0  0  0  0
  193.9080  177.0040  137.4710 O   0  0  0  0  0  1  0  0  0  0  0  0
  194.2780  174.6720  137.7250 C   0  0  0  0  0  1  0  0  0  0  0  0
  1  9  1  0  0  0  0
  2  3  1  0  0  0  0
  2  5  1  0  0  0  0
  3  7  1  0  0  0  0
  5 14  1  0  0  0  0
  6  1  1  0  0  0  0
  7  4  2  0  0  0  0
  8 13  1  0  0  0  0
  8 12  2  0  0  0  0
 10 19  1  0  0  0  0
 11 15  1  0  0  0  0
 11  4  1  0  0  0  0
 12 16  1  0  0  0  0
 13  2  2  0  0  0  0
 14  1  2  0  0  0  0
 16  5  2  0  0  0  0
 16 17  1  0  0  0  0
 17  6  2  0  0  0  0
 18 10  1  0  0  0  0
 18 13  1  0  0  0  0
 19 20  1  0  0  0  0
 19  3  2  0  0  0  0
 20 11  2  0  0  0  0
 21  8  1  0  0  0  0
 22 21  1  0  0  0  0
 23 24  2  0  0  0  0
 24 25  1  0  0  0  0
 24 22  1  0  0  0  0
 26 27  2  0  0  0  0
 27 25  1  0  0  0  0
 28 27  1  0  0  0  0
 28 29  1  0  0  0  0
 29 31  1  6  0  0  0
 30 29  1  0  0  0  0
M  END
>  <MODEL>
4

>  <REMARK>
 VINA RESULT:      -9.1      3.634      6.244
  Name = 
  7 active torsions:
  status: ('A' for Active; 'I' for Inactive)
    1  A    between atoms: C_1  and  C_24
    2  A    between atoms: N_3  and  C_19
    3  A    between atoms: N_3  and  C_22
    4  A    between atoms: C_9  and  C_22
    5  A    between atoms: C_9  and  N_23
    6  A    between atoms: C_15  and  N_23
    7  A    between atoms: C_19  and  C_24
                            x       y       z     vdW  Elec       q    Type
                         _______ _______ _______ _____ _____    ______ ____

>  <TORSDO>
F 7

$$$$
=
 OpenBabel11052413073D

 31 34  0  0  1  0  0  0  0  0999 V2000
  185.2830  178.3760  145.1830 C   0  0  0  0  0  0  0  0  0  0  0  0
  188.6400  177.5290  143.7340 C   0  0  0  0  0  0  0  0  0  0  0  0
  189.5230  177.2480  144.9190 C   0  0  0  0  0  0  0  0  0  0  0  0
  189.8570  176.6070  147.2470 C   0  0  0  0  0  3  0  0  0  0  0  0
  187.2670  177.8830  143.8510 C   0  0  0  0  0  0  0  0  0  0  0  0
  184.5410  178.5890  144.0220 C   0  0  0  0  0  3  0  0  0  0  0  0
  189.0070  176.8880  146.1750 C   0  0  0  0  0  3  0  0  0  0  0  0
  188.4400  177.7110  141.2830 C   0  0  0  0  0  0  0  0  0  0  0  0
  184.5230  178.5460  146.7510 Cl  0  0  0  0  0  0  0  0  0  0  0  0
  191.5140  177.6470  143.4330 C   0  0  0  0  0  2  0  0  0  0  0  0
  191.2410  176.6750  147.0780 C   0  0  0  0  0  0  0  0  0  0  0  0
  187.0930  178.0280  141.4300 C   0  0  0  0  0  3  0  0  0  0  0  0
  189.2270  177.4640  142.4380 C   0  0  0  0  0  0  0  0  0  0  0  0
  186.6330  178.0290  145.0970 C   0  0  0  0  0  3  0  0  0  0  0  0
  192.0660  176.4080  148.1180 F   0  0  0  0  0  0  0  0  0  0  0  0
  186.5040  178.1200  142.6830 C   0  0  0  0  0  0  0  0  0  0  0  0
  185.1510  178.4620  142.7740 C   0  0  0  0  0  3  0  0  0  0  0  0
  190.6690  177.0440  142.3170 C   0  0  0  0  0  2  0  0  0  0  0  0
  190.9250  177.2840  144.7560 C   0  0  0  0  0  0  0  0  0  0  0  0
  191.7750  177.0120  145.8330 C   0  0  0  0  0  3  0  0  0  0  0  0
  188.9430  177.6540  139.9370 N   0  0  0  0  0  2  0  0  0  0  0  0
  188.6000  178.5420  138.8370 C   0  0  0  0  0  2  0  0  0  0  0  0
  186.1670  178.0340  137.8180 S   0  0  0  0  0  0  0  0  0  0  0  0
  187.7920  177.8050  137.8290 C   0  0  0  0  0  0  0  0  0  0  0  0
  188.4040  176.7070  137.1330 N   0  0  0  0  0  2  0  0  0  0  0  0
  189.3510  177.4080  135.0250 C   0  0  0  0  0  2  0  0  0  0  0  0
  189.4760  176.7620  136.1800 C   0  0  0  0  0  0  0  0  0  0  0  0
  190.8300  176.2900  136.5940 C   0  0  0  0  0  2  0  0  0  0  0  0
  190.7390  174.9900  137.3770 C   0  0  2  0  0  3  0  0  0  0  0  0
  191.0430  175.2190  138.7190 O   0  0  0  0  0  1  0  0  0  0  0  0
  191.7210  173.9890  136.8050 C   0  0  0  0  0  1  0  0  0  0  0  0
  1  9  1  0  0  0  0
  2  5  1  0  0  0  0
  2  3  1  0  0  0  0
  3  7  1  0  0  0  0
  5 14  2  0  0  0  0
  6  1  2  0  0  0  0
  7  4  2  0  0  0  0
  8 12  2  0  0  0  0
  8 13  1  0  0  0  0
 10 19  1  0  0  0  0
 11  4  1  0  0  0  0
 11 15  1  0  0  0  0
 12 16  1  0  0  0  0
 13  2  2  0  0  0  0
 14  1  1  0  0  0  0
 16 17  2  0  0  0  0
 16  5  1  0  0  0  0
 17  6  1  0  0  0  0
 18 13  1  0  0  0  0
 18 10  1  0  0  0  0
 19  3  2  0  0  0  0
 19 20  1  0  0  0  0
 20 11  2  0  0  0  0
 21  8  1  0  0  0  0
 22 21  1  0  0  0  0
 23 24  2  0  0  0  0
 24 22  1  0  0  0  0
 25 24  1  0  0  0  0
 26 27  2  0  0  0  0
 27 28  1  0  0  0  0
 27 25  1  0  0  0  0
 28 29  1  0  0  0  0
 29 31  1  6  0  0  0
 29 30  1  0  0  0  0
M  END
>  <MODEL>
5

>  <REMARK>
 VINA RESULT:      -9.0      2.212      3.454
  Name = 
  7 active torsions:
  status: ('A' for Active; 'I' for Inactive)
    1  A    between atoms: C_1  and  C_24
    2  A    between atoms: N_3  and  C_19
    3  A    between atoms: N_3  and  C_22
    4  A    between atoms: C_9  and  C_22
    5  A    between atoms: C_9  and  N_23
    6  A    between atoms: C_15  and  N_23
    7  A    between atoms: C_19  and  C_24
                            x       y       z     vdW  Elec       q    Type
                         _______ _______ _______ _____ _____    ______ ____

>  <TORSDO>
F 7

$$$$
=
 OpenBabel11052413073D

 31 34  0  0  1  0  0  0  0  0999 V2000
  188.3830  177.3560  146.5510 C   0  0  0  0  0  0  0  0  0  0  0  0
  186.7860  178.2180  143.2660 C   0  0  0  0  0  0  0  0  0  0  0  0
  185.3330  178.4470  143.5800 C   0  0  0  0  0  0  0  0  0  0  0  0
  183.5280  179.0040  145.1230 C   0  0  0  0  0  3  0  0  0  0  0  0
  187.7530  177.8740  144.2510 C   0  0  0  0  0  0  0  0  0  0  0  0
  189.7120  177.1920  146.1620 C   0  0  0  0  0  3  0  0  0  0  0  0
  184.8830  178.7690  144.8720 C   0  0  0  0  0  3  0  0  0  0  0  0
  188.5550  178.1240  141.5510 C   0  0  0  0  0  0  0  0  0  0  0  0
  187.9280  177.1390  148.2270 Cl  0  0  0  0  0  0  0  0  0  0  0  0
  184.8260  178.0790  141.1420 C   0  0  0  0  0  2  0  0  0  0  0  0
  182.6020  178.9270  144.0820 C   0  0  0  0  0  0  0  0  0  0  0  0
  189.4820  177.8160  142.5430 C   0  0  0  0  0  3  0  0  0  0  0  0
  187.1950  178.3210  141.9050 C   0  0  0  0  0  0  0  0  0  0  0  0
  187.4140  177.6920  145.6030 C   0  0  0  0  0  3  0  0  0  0  0  0
  181.2880  179.1490  144.3260 F   0  0  0  0  0  0  0  0  0  0  0  0
  189.1020  177.6870  143.8720 C   0  0  0  0  0  0  0  0  0  0  0  0
  190.0710  177.3560  144.8240 C   0  0  0  0  0  3  0  0  0  0  0  0
  186.1770  178.7310  140.8730 C   0  0  0  0  0  2  0  0  0  0  0  0
  184.3870  178.4020  142.5330 C   0  0  0  0  0  0  0  0  0  0  0  0
  183.0300  178.6280  142.7880 C   0  0  0  0  0  3  0  0  0  0  0  0
  189.0610  178.2220  140.2090 N   0  0  0  0  0  2  0  0  0  0  0  0
  189.2570  177.1320  139.2650 C   0  0  0  0  0  2  0  0  0  0  0  0
  189.0060  178.8610  137.2240 S   0  0  0  0  0  0  0  0  0  0  0  0
  188.5940  177.4610  137.9740 C   0  0  0  0  0  0  0  0  0  0  0  0
  187.4200  176.7220  137.6010 N   0  0  0  0  0  2  0  0  0  0  0  0
  186.2080  174.7910  136.8070 C   0  0  0  0  0  2  0  0  0  0  0  0
  187.3580  175.4360  136.9650 C   0  0  0  0  0  0  0  0  0  0  0  0
  188.5690  174.9250  136.2580 C   0  0  0  0  0  2  0  0  0  0  0  0
  189.0230  173.5970  136.8420 C   0  0  2  0  0  3  0  0  0  0  0  0
  190.1860  173.7780  137.5920 O   0  0  0  0  0  1  0  0  0  0  0  0
  189.2990  172.6210  135.7180 C   0  0  0  0  0  1  0  0  0  0  0  0
  1  9  1  0  0  0  0
  2  3  1  0  0  0  0
  2  5  1  0  0  0  0
  3  7  1  0  0  0  0
  5 14  1  0  0  0  0
  6  1  1  0  0  0  0
  7  4  2  0  0  0  0
  8 13  1  0  0  0  0
  8 12  2  0  0  0  0
 10 19  1  0  0  0  0
 11 15  1  0  0  0  0
 11  4  1  0  0  0  0
 12 16  1  0  0  0  0
 13  2  2  0  0  0  0
 14  1  2  0  0  0  0
 16  5  2  0  0  0  0
 16 17  1  0  0  0  0
 17  6  2  0  0  0  0
 18 10  1  0  0  0  0
 18 13  1  0  0  0  0
 19 20  1  0  0  0  0
 19  3  2  0  0  0  0
 20 11  2  0  0  0  0
 21  8  1  0  0  0  0
 22 21  1  0  0  0  0
 23 24  2  0  0  0  0
 24 22  1  0  0  0  0
 25 24  1  0  0  0  0
 26 27  2  0  0  0  0
 27 25  1  0  0  0  0
 28 29  1  0  0  0  0
 28 27  1  0  0  0  0
 29 31  1  6  0  0  0
 29 30  1  0  0  0  0
M  END
>  <MODEL>
6

>  <REMARK>
 VINA RESULT:      -8.8      3.254      5.525
  Name = 
  7 active torsions:
  status: ('A' for Active; 'I' for Inactive)
    1  A    between atoms: C_1  and  C_24
    2  A    between atoms: N_3  and  C_19
    3  A    between atoms: N_3  and  C_22
    4  A    between atoms: C_9  and  C_22
    5  A    between atoms: C_9  and  N_23
    6  A    between atoms: C_15  and  N_23
    7  A    between atoms: C_19  and  C_24
                            x       y       z     vdW  Elec       q    Type
                         _______ _______ _______ _____ _____    ______ ____

>  <TORSDO>
F 7

$$$$
=
 OpenBabel11052413073D

 31 34  0  0  1  0  0  0  0  0999 V2000
  188.5340  177.7770  140.5990 C   0  0  0  0  0  0  0  0  0  0  0  0
  186.9110  178.2190  143.9540 C   0  0  0  0  0  0  0  0  0  0  0  0
  187.9550  177.8100  144.9570 C   0  0  0  0  0  0  0  0  0  0  0  0
  190.2740  177.4440  145.6170 C   0  0  0  0  0  3  0  0  0  0  0  0
  187.1310  178.2060  142.5480 C   0  0  0  0  0  0  0  0  0  0  0  0
  187.5100  178.2020  139.7530 C   0  0  0  0  0  3  0  0  0  0  0  0
  189.3280  177.8010  144.6530 C   0  0  0  0  0  3  0  0  0  0  0  0
  184.6100  179.0080  143.5490 C   0  0  0  0  0  0  0  0  0  0  0  0
  190.0590  177.2410  139.9270 Cl  0  0  0  0  0  0  0  0  0  0  0  0
  186.1100  177.4960  146.6380 C   0  0  0  0  0  2  0  0  0  0  0  0
  189.8620  177.0950  146.9040 C   0  0  0  0  0  0  0  0  0  0  0  0
  184.8660  179.0110  142.1810 C   0  0  0  0  0  3  0  0  0  0  0  0
  185.6320  178.6040  144.4480 C   0  0  0  0  0  0  0  0  0  0  0  0
  188.3440  177.7780  141.9820 C   0  0  0  0  0  3  0  0  0  0  0  0
  190.7780  176.7420  147.8380 F   0  0  0  0  0  0  0  0  0  0  0  0
  186.0970  178.6170  141.6750 C   0  0  0  0  0  0  0  0  0  0  0  0
  186.2930  178.6190  140.2900 C   0  0  0  0  0  3  0  0  0  0  0  0
  185.4180  178.6600  145.9390 C   0  0  0  0  0  2  0  0  0  0  0  0
  187.5580  177.4830  146.2710 C   0  0  0  0  0  0  0  0  0  0  0  0
  188.5050  177.1160  147.2320 C   0  0  0  0  0  3  0  0  0  0  0  0
  183.2960  179.4260  143.9570 N   0  0  0  0  0  2  0  0  0  0  0  0
  182.1260  178.5810  144.1410 C   0  0  0  0  0  2  0  0  0  0  0  0
  179.5010  179.1060  143.9250 S   0  0  0  0  0  0  0  0  0  0  0  0
  181.0120  179.0720  143.2870 C   0  0  0  0  0  0  0  0  0  0  0  0
  181.2370  179.1930  141.8730 N   0  0  0  0  0  2  0  0  0  0  0  0
  179.9430  177.8680  140.3250 C   0  0  0  0  0  2  0  0  0  0  0  0
  181.1140  178.1690  140.8750 C   0  0  0  0  0  0  0  0  0  0  0  0
  182.3560  177.6010  140.2720 C   0  0  0  0  0  2  0  0  0  0  0  0
  182.5480  178.0980  138.8470 C   0  0  2  0  0  3  0  0  0  0  0  0
  183.5360  177.3470  138.2100 O   0  0  0  0  0  1  0  0  0  0  0  0
  182.9640  179.5530  138.8740 C   0  0  0  0  0  1  0  0  0  0  0  0
  1 14  1  0  0  0  0
  2 13  2  0  0  0  0
  2  3  1  0  0  0  0
  3 19  1  0  0  0  0
  4 11  2  0  0  0  0
  5  2  1  0  0  0  0
  6 17  1  0  0  0  0
  6  1  2  0  0  0  0
  7  3  2  0  0  0  0
  7  4  1  0  0  0  0
  8 21  1  0  0  0  0
  8 13  1  0  0  0  0
  9  1  1  0  0  0  0
 11 20  1  0  0  0  0
 11 15  1  0  0  0  0
 12  8  2  0  0  0  0
 13 18  1  0  0  0  0
 14  5  2  0  0  0  0
 16 12  1  0  0  0  0
 16  5  1  0  0  0  0
 17 16  2  0  0  0  0
 18 10  1  0  0  0  0
 19 10  1  0  0  0  0
 19 20  2  0  0  0  0
 21 22  1  0  0  0  0
 24 23  2  0  0  0  0
 24 22  1  0  0  0  0
 25 24  1  0  0  0  0
 26 27  2  0  0  0  0
 27 25  1  0  0  0  0
 28 27  1  0  0  0  0
 29 31  1  1  0  0  0
 29 28  1  0  0  0  0
 30 29  1  0  0  0  0
M  END
>  <MODEL>
7

>  <REMARK>
 VINA RESULT:      -8.7      3.583      5.147
  Name = 
  7 active torsions:
  status: ('A' for Active; 'I' for Inactive)
    1  A    between atoms: C_1  and  C_24
    2  A    between atoms: N_3  and  C_19
    3  A    between atoms: N_3  and  C_22
    4  A    between atoms: C_9  and  C_22
    5  A    between atoms: C_9  and  N_23
    6  A    between atoms: C_15  and  N_23
    7  A    between atoms: C_19  and  C_24
                            x       y       z     vdW  Elec       q    Type
                         _______ _______ _______ _____ _____    ______ ____

>  <TORSDO>
F 7

$$$$
=
 OpenBabel11052413073D

 31 34  0  0  1  0  0  0  0  0999 V2000
  191.2690  176.5680  144.5170 C   0  0  0  0  0  0  0  0  0  0  0  0
  188.0810  177.9080  143.0590 C   0  0  0  0  0  0  0  0  0  0  0  0
  187.1250  178.0030  144.2170 C   0  0  0  0  0  0  0  0  0  0  0  0
  186.6480  178.1860  146.6020 C   0  0  0  0  0  3  0  0  0  0  0  0
  189.4210  177.4480  143.1890 C   0  0  0  0  0  0  0  0  0  0  0  0
  192.0860  176.5430  143.3860 C   0  0  0  0  0  3  0  0  0  0  0  0
  187.5630  178.0700  145.5510 C   0  0  0  0  0  3  0  0  0  0  0  0
  188.4570  178.2080  140.6410 C   0  0  0  0  0  0  0  0  0  0  0  0
  191.8980  176.0380  146.0620 Cl  0  0  0  0  0  0  0  0  0  0  0  0
  185.2350  178.0420  142.5560 C   0  0  0  0  0  2  0  0  0  0  0  0
  185.2800  178.2450  146.3330 C   0  0  0  0  0  0  0  0  0  0  0  0
  189.7710  177.7790  140.8060 C   0  0  0  0  0  3  0  0  0  0  0  0
  187.5980  178.2690  141.7690 C   0  0  0  0  0  0  0  0  0  0  0  0
  189.9500  177.0140  144.4170 C   0  0  0  0  0  3  0  0  0  0  0  0
  184.3930  178.3520  147.3510 F   0  0  0  0  0  0  0  0  0  0  0  0
  190.2570  177.3990  142.0490 C   0  0  0  0  0  0  0  0  0  0  0  0
  191.5800  176.9570  142.1540 C   0  0  0  0  0  3  0  0  0  0  0  0
  186.1930  178.8000  141.6450 C   0  0  0  0  0  2  0  0  0  0  0  0
  185.7400  178.0930  143.9610 C   0  0  0  0  0  0  0  0  0  0  0  0
  184.8260  178.2000  145.0140 C   0  0  0  0  0  3  0  0  0  0  0  0
  188.0620  178.5650  139.3060 N   0  0  0  0  0  2  0  0  0  0  0  0
  188.9280  178.7090  138.1450 C   0  0  0  0  0  2  0  0  0  0  0  0
  187.3930  176.7030  137.2310 S   0  0  0  0  0  0  0  0  0  0  0  0
  188.8290  177.4940  137.2920 C   0  0  0  0  0  0  0  0  0  0  0  0
  190.0430  176.8920  136.8180 N   0  0  0  0  0  2  0  0  0  0  0  0
  190.6550  174.6140  137.3390 C   0  0  0  0  0  2  0  0  0  0  0  0
  190.8590  175.9190  137.4880 C   0  0  0  0  0  0  0  0  0  0  0  0
  192.1050  176.3750  138.1710 C   0  0  0  0  0  2  0  0  0  0  0  0
  193.3250  175.6480  137.6260 C   0  0  2  0  0  3  0  0  0  0  0  0
  194.3730  175.7190  138.5440 O   0  0  0  0  0  1  0  0  0  0  0  0
  193.7540  176.2910  136.3250 C   0  0  0  0  0  1  0  0  0  0  0  0
  1  9  1  0  0  0  0
  2  5  1  0  0  0  0
  2  3  1  0  0  0  0
  3  7  1  0  0  0  0
  5 14  2  0  0  0  0
  6  1  2  0  0  0  0
  7  4  2  0  0  0  0
  8 12  2  0  0  0  0
  8 13  1  0  0  0  0
 10 19  1  0  0  0  0
 11  4  1  0  0  0  0
 11 15  1  0  0  0  0
 12 16  1  0  0  0  0
 13  2  2  0  0  0  0
 14  1  1  0  0  0  0
 16 17  2  0  0  0  0
 16  5  1  0  0  0  0
 17  6  1  0  0  0  0
 18 13  1  0  0  0  0
 18 10  1  0  0  0  0
 19  3  2  0  0  0  0
 19 20  1  0  0  0  0
 20 11  2  0  0  0  0
 21  8  1  0  0  0  0
 22 21  1  0  0  0  0
 23 24  2  0  0  0  0
 24 22  1  0  0  0  0
 25 24  1  0  0  0  0
 25 27  1  0  0  0  0
 26 27  2  0  0  0  0
 27 28  1  0  0  0  0
 29 31  1  6  0  0  0
 29 28  1  0  0  0  0
 29 30  1  0  0  0  0
M  END
>  <MODEL>
8

>  <REMARK>
 VINA RESULT:      -8.7      3.484      5.818
  Name = 
  7 active torsions:
  status: ('A' for Active; 'I' for Inactive)
    1  A    between atoms: C_1  and  C_24
    2  A    between atoms: N_3  and  C_19
    3  A    between atoms: N_3  and  C_22
    4  A    between atoms: C_9  and  C_22
    5  A    between atoms: C_9  and  N_23
    6  A    between atoms: C_15  and  N_23
    7  A    between atoms: C_19  and  C_24
                            x       y       z     vdW  Elec       q    Type
                         _______ _______ _______ _____ _____    ______ ____

>  <TORSDO>
F 7

$$$$
=
 OpenBabel11052413073D

 31 34  0  0  1  0  0  0  0  0999 V2000
  187.7980  177.8930  146.7280 C   0  0  0  0  0  0  0  0  0  0  0  0
  185.9830  178.2820  143.4660 C   0  0  0  0  0  0  0  0  0  0  0  0
  187.0140  178.0140  142.4050 C   0  0  0  0  0  0  0  0  0  0  0  0
  189.1100  177.0270  141.6440 C   0  0  0  0  0  3  0  0  0  0  0  0
  186.2640  178.2270  144.8600 C   0  0  0  0  0  0  0  0  0  0  0  0
  186.7650  178.1310  147.6340 C   0  0  0  0  0  3  0  0  0  0  0  0
  188.1870  177.2830  142.6610 C   0  0  0  0  0  3  0  0  0  0  0  0
  183.6540  178.8960  143.9990 C   0  0  0  0  0  0  0  0  0  0  0  0
  189.4090  177.5340  147.3110 Cl  0  0  0  0  0  0  0  0  0  0  0  0
  185.5320  179.2210  140.7670 C   0  0  0  0  0  2  0  0  0  0  0  0
  188.8720  177.4950  140.3510 C   0  0  0  0  0  0  0  0  0  0  0  0
  183.9550  178.8060  145.3550 C   0  0  0  0  0  3  0  0  0  0  0  0
  184.6710  178.6400  143.0420 C   0  0  0  0  0  0  0  0  0  0  0  0
  187.5490  177.9430  145.3550 C   0  0  0  0  0  3  0  0  0  0  0  0
  189.7700  177.2520  139.3660 F   0  0  0  0  0  0  0  0  0  0  0  0
  185.2320  178.4820  145.7930 C   0  0  0  0  0  0  0  0  0  0  0  0
  185.4840  178.4260  147.1670 C   0  0  0  0  0  3  0  0  0  0  0  0
  184.3660  178.6520  141.5660 C   0  0  0  0  0  2  0  0  0  0  0  0
  186.7740  178.4540  141.0850 C   0  0  0  0  0  0  0  0  0  0  0  0
  187.7050  178.2060  140.0700 C   0  0  0  0  0  3  0  0  0  0  0  0
  182.3020  179.2490  143.6640 N   0  0  0  0  0  2  0  0  0  0  0  0
  181.1070  178.4470  143.8850 C   0  0  0  0  0  2  0  0  0  0  0  0
  179.4360  180.1530  142.6550 S   0  0  0  0  0  0  0  0  0  0  0  0
  180.1380  178.6750  142.7800 C   0  0  0  0  0  0  0  0  0  0  0  0
  179.6230  177.5340  142.0760 N   0  0  0  0  0  2  0  0  0  0  0  0
  178.9670  176.3920  140.0520 C   0  0  0  0  0  2  0  0  0  0  0  0
  179.8040  177.2030  140.6910 C   0  0  0  0  0  0  0  0  0  0  0  0
  180.8060  177.9690  139.8940 C   0  0  0  0  0  2  0  0  0  0  0  0
  181.6970  177.0340  139.0910 C   0  0  2  0  0  3  0  0  0  0  0  0
  182.4450  176.2310  139.9530 O   0  0  0  0  0  1  0  0  0  0  0  0
  182.6340  177.8510  138.2270 C   0  0  0  0  0  1  0  0  0  0  0  0
  1  9  1  0  0  0  0
  1  6  1  0  0  0  0
  2  5  1  0  0  0  0
  3  7  1  0  0  0  0
  3  2  1  0  0  0  0
  4  7  2  0  0  0  0
  5 14  1  0  0  0  0
  5 16  2  0  0  0  0
  8 12  2  0  0  0  0
 10 19  1  0  0  0  0
 10 18  1  0  0  0  0
 11  4  1  0  0  0  0
 12 16  1  0  0  0  0
 13  2  2  0  0  0  0
 13  8  1  0  0  0  0
 14  1  2  0  0  0  0
 15 11  1  0  0  0  0
 16 17  1  0  0  0  0
 17  6  2  0  0  0  0
 18 13  1  0  0  0  0
 19  3  2  0  0  0  0
 20 11  2  0  0  0  0
 20 19  1  0  0  0  0
 21 22  1  0  0  0  0
 21  8  1  0  0  0  0
 23 24  2  0  0  0  0
 24 22  1  0  0  0  0
 25 24  1  0  0  0  0
 26 27  2  0  0  0  0
 27 25  1  0  0  0  0
 28 27  1  0  0  0  0
 29 31  1  1  0  0  0
 29 28  1  0  0  0  0
 29 30  1  0  0  0  0
M  END
>  <MODEL>
9

>  <REMARK>
 VINA RESULT:      -8.6      3.973      5.980
  Name = 
  7 active torsions:
  status: ('A' for Active; 'I' for Inactive)
    1  A    between atoms: C_1  and  C_24
    2  A    between atoms: N_3  and  C_19
    3  A    between atoms: N_3  and  C_22
    4  A    between atoms: C_9  and  C_22
    5  A    between atoms: C_9  and  N_23
    6  A    between atoms: C_15  and  N_23
    7  A    between atoms: C_19  and  C_24
                            x       y       z     vdW  Elec       q    Type
                         _______ _______ _______ _____ _____    ______ ____

>  <TORSDO>
F 7

$$$$
