=
 OpenBabel11052412563D

 31 36  0  0  1  0  0  0  0  0999 V2000
  190.2430  177.2040  146.7270 C   0  0  0  0  0  0  0  0  0  0  0  0
  188.2110  177.6030  143.5670 N   0  0  0  0  0  0  0  0  0  0  0  0
  186.8790  178.0060  144.0000 C   0  0  0  0  0  0  0  0  0  0  0  0
  185.1320  177.7560  145.8490 C   0  0  0  0  0  3  0  0  0  0  0  0
  189.2970  177.2910  144.4800 C   0  0  0  0  0  0  0  0  0  0  0  0
  191.4580  176.7590  146.2060 C   0  0  0  0  0  3  0  0  0  0  0  0
  186.4180  177.5560  145.1740 C   0  0  0  0  0  3  0  0  0  0  0  0
  189.6730  176.7630  141.6400 C   0  0  1  0  0  3  0  0  0  0  0  0
  190.1020  177.3800  148.0620 F   0  0  0  0  0  0  0  0  0  0  0  0
  186.4340  178.8160  141.7550 C   0  0  0  0  0  3  0  0  0  0  0  0
  184.1450  178.5870  145.5370 C   0  0  0  0  0  3  0  0  0  0  0  0
  190.7310  176.7230  142.5930 O   0  0  0  0  0  0  0  0  0  0  0  0
  188.4890  177.5590  142.1490 C   0  0  0  0  0  0  0  0  0  0  0  0
  189.1760  177.4770  145.8690 C   0  0  0  0  0  3  0  0  0  0  0  0
  184.0700  179.5170  144.4100 C   0  0  0  0  0  3  0  0  0  0  0  0
  190.5370  176.8580  143.9680 C   0  0  0  0  0  0  0  0  0  0  0  0
  191.6050  176.5900  144.8290 C   0  0  0  0  0  3  0  0  0  0  0  0
  187.6350  178.1170  141.2850 C   0  0  0  0  0  3  0  0  0  0  0  0
  186.0470  178.7740  143.0310 C   0  0  0  0  0  0  0  0  0  0  0  0
  184.8660  179.5840  143.3520 C   0  0  0  0  0  3  0  0  0  0  0  0
  190.7440  176.1860  139.5090 N   0  0  0  0  0  2  0  0  0  0  0  0
  189.4250  176.7600  139.2180 C   0  0  1  0  0  3  0  0  0  0  0  0
  190.2170  177.2940  140.3180 C   0  0  1  0  0  3  0  0  0  0  0  0
  189.5270  177.6970  138.0280 C   0  0  0  0  0  2  0  0  0  0  0  0
  187.8600  176.1450  134.7960 C   0  0  2  0  0  3  0  0  0  0  0  0
  186.5290  178.2010  137.6060 C   0  0  0  0  0  1  0  0  0  0  0  0
  187.4000  174.7790  134.6350 N   0  0  0  0  0  1  0  0  0  0  0  0
  189.4710  176.1470  135.6700 S   0  0  0  0  0  0  0  0  0  0  0  0
  187.3840  177.4130  136.6740 C   0  0  0  0  0  0  0  0  0  0  0  0
  188.7600  177.1700  136.9090 N   0  0  0  0  0  0  0  0  0  0  0  0
  186.8990  176.8920  135.6010 N   0  0  0  0  0  0  0  0  0  0  0  0
  1  9  1  0  0  0  0
  2  3  1  0  0  0  0
  2  5  1  0  0  0  0
  3  7  2  0  0  0  0
  5 14  1  0  0  0  0
  6  1  1  0  0  0  0
  7  4  1  0  0  0  0
  8 13  1  1  0  0  0
  8 12  1  0  0  0  0
 10 19  2  0  0  0  0
 11  4  2  0  0  0  0
 12 16  1  0  0  0  0
 13  2  1  0  0  0  0
 14  1  2  0  0  0  0
 15 11  1  0  0  0  0
 16  5  2  0  0  0  0
 16 17  1  0  0  0  0
 17  6  2  0  0  0  0
 18 10  1  0  0  0  0
 18 13  2  0  0  0  0
 19 20  1  0  0  0  0
 19  3  1  0  0  0  0
 20 15  2  0  0  0  0
 22 24  1  6  0  0  0
 22 21  1  0  0  0  0
 22 23  1  0  0  0  0
 23 21  1  6  0  0  0
 23  8  1  0  0  0  0
 25 27  1  1  0  0  0
 25 31  1  0  0  0  0
 25 28  1  0  0  0  0
 28 30  1  0  0  0  0
 29 30  1  0  0  0  0
 29 26  1  0  0  0  0
 30 24  1  0  0  0  0
 31 29  2  0  0  0  0
M  END
>  <MODEL>
1

>  <REMARK>
 VINA RESULT:      -9.9      0.000      0.000
  Name = 
  3 active torsions:
  status: ('A' for Active; 'I' for Inactive)
    1  A    between atoms: C_3  and  C_9
    2  A    between atoms: C_3  and  N_22
    3  A    between atoms: C_15  and  C_23
                            x       y       z     vdW  Elec       q    Type
                         _______ _______ _______ _____ _____    ______ ____

>  <TORSDO>
F 3

$$$$
=
 OpenBabel11052412563D

 31 36  0  0  1  0  0  0  0  0999 V2000
  190.1750  177.8840  140.8040 C   0  0  0  0  0  0  0  0  0  0  0  0
  188.4400  177.4360  144.1300 N   0  0  0  0  0  0  0  0  0  0  0  0
  189.4790  177.0330  145.0690 C   0  0  0  0  0  0  0  0  0  0  0  0
  191.6650  175.7300  145.3140 C   0  0  0  0  0  3  0  0  0  0  0  0
  188.6740  177.6630  142.7140 C   0  0  0  0  0  0  0  0  0  0  0  0
  189.0930  178.1980  139.9810 C   0  0  0  0  0  3  0  0  0  0  0  0
  190.5070  176.3020  144.6190 C   0  0  0  0  0  3  0  0  0  0  0  0
  185.9300  177.6760  143.6900 C   0  0  1  0  0  3  0  0  0  0  0  0
  191.4260  177.8360  140.2900 F   0  0  0  0  0  0  0  0  0  0  0  0
  188.0280  177.6860  146.9020 C   0  0  0  0  0  3  0  0  0  0  0  0
  192.0800  175.9380  146.5570 C   0  0  0  0  0  3  0  0  0  0  0  0
  186.3020  178.1140  142.3860 O   0  0  0  0  0  0  0  0  0  0  0  0
  187.1080  177.6760  144.6400 C   0  0  0  0  0  0  0  0  0  0  0  0
  189.9670  177.6290  142.1610 C   0  0  0  0  0  3  0  0  0  0  0  0
  191.4720  176.7850  147.5820 C   0  0  0  0  0  3  0  0  0  0  0  0
  187.5940  177.9990  141.8740 C   0  0  0  0  0  0  0  0  0  0  0  0
  187.8060  178.2600  140.5170 C   0  0  0  0  0  3  0  0  0  0  0  0
  186.9090  177.7740  145.9590 C   0  0  0  0  0  3  0  0  0  0  0  0
  189.2530  177.3300  146.5120 C   0  0  0  0  0  0  0  0  0  0  0  0
  190.2760  177.3610  147.5630 C   0  0  0  0  0  3  0  0  0  0  0  0
  184.8280  179.8660  143.5730 N   0  0  0  0  0  2  0  0  0  0  0  0
  183.8900  178.8530  143.0710 C   0  0  1  0  0  3  0  0  0  0  0  0
  184.7700  178.5320  144.1880 C   0  0  1  0  0  3  0  0  0  0  0  0
  182.4970  179.1410  143.6010 C   0  0  0  0  0  2  0  0  0  0  0  0
  180.0910  178.0270  140.6680 C   0  0  2  0  0  3  0  0  0  0  0  0
  179.5810  178.5170  144.3280 C   0  0  0  0  0  1  0  0  0  0  0  0
  179.9750  176.6940  140.1070 N   0  0  0  0  0  1  0  0  0  0  0  0
  181.8590  178.4210  140.9480 S   0  0  0  0  0  0  0  0  0  0  0  0
  180.1370  178.4250  142.9490 C   0  0  0  0  0  0  0  0  0  0  0  0
  181.4960  178.6900  142.6460 N   0  0  0  0  0  0  0  0  0  0  0  0
  179.4000  178.0760  141.9520 N   0  0  0  0  0  0  0  0  0  0  0  0
  1 14  1  0  0  0  0
  2 13  1  0  0  0  0
  2  3  1  0  0  0  0
  3 19  1  0  0  0  0
  4 11  2  0  0  0  0
  5  2  1  0  0  0  0
  6 17  1  0  0  0  0
  6  1  2  0  0  0  0
  7  3  2  0  0  0  0
  7  4  1  0  0  0  0
  8 12  1  6  0  0  0
  8 23  1  0  0  0  0
  8 13  1  0  0  0  0
  9  1  1  0  0  0  0
 11 15  1  0  0  0  0
 13 18  2  0  0  0  0
 14  5  2  0  0  0  0
 16 12  1  0  0  0  0
 16  5  1  0  0  0  0
 17 16  2  0  0  0  0
 18 10  1  0  0  0  0
 19 10  2  0  0  0  0
 19 20  1  0  0  0  0
 20 15  2  0  0  0  0
 22 21  1  0  0  0  0
 22 24  1  1  0  0  0
 22 23  1  0  0  0  0
 23 21  1  6  0  0  0
 25 27  1  1  0  0  0
 25 28  1  0  0  0  0
 25 31  1  0  0  0  0
 28 30  1  0  0  0  0
 29 26  1  0  0  0  0
 30 29  1  0  0  0  0
 30 24  1  0  0  0  0
 31 29  2  0  0  0  0
M  END
>  <MODEL>
2

>  <REMARK>
 VINA RESULT:      -9.9      4.006      6.963
  Name = 
  3 active torsions:
  status: ('A' for Active; 'I' for Inactive)
    1  A    between atoms: C_3  and  C_9
    2  A    between atoms: C_3  and  N_22
    3  A    between atoms: C_15  and  C_23
                            x       y       z     vdW  Elec       q    Type
                         _______ _______ _______ _____ _____    ______ ____

>  <TORSDO>
F 3

$$$$
=
 OpenBabel11052412563D

 31 36  0  0  1  0  0  0  0  0999 V2000
  190.8340  177.5460  142.3580 C   0  0  0  0  0  0  0  0  0  0  0  0
  187.3310  178.0120  143.6950 N   0  0  0  0  0  0  0  0  0  0  0  0
  187.4430  177.9160  145.1450 C   0  0  0  0  0  0  0  0  0  0  0  0
  188.7080  176.7890  147.0600 C   0  0  0  0  0  3  0  0  0  0  0  0
  188.4490  177.8360  142.7850 C   0  0  0  0  0  0  0  0  0  0  0  0
  190.6000  177.5880  140.9830 C   0  0  0  0  0  3  0  0  0  0  0  0
  188.3790  177.1130  145.6680 C   0  0  0  0  0  3  0  0  0  0  0  0
  185.7680  178.0570  141.6680 C   0  0  1  0  0  3  0  0  0  0  0  0
  192.0930  177.3850  142.8270 F   0  0  0  0  0  0  0  0  0  0  0  0
  185.2930  179.0250  145.3500 C   0  0  0  0  0  3  0  0  0  0  0  0
  188.2600  177.3500  148.1760 C   0  0  0  0  0  3  0  0  0  0  0  0
  186.9540  178.1180  140.8810 O   0  0  0  0  0  0  0  0  0  0  0  0
  186.0460  178.3540  143.1270 C   0  0  0  0  0  0  0  0  0  0  0  0
  189.7670  177.6790  143.2500 C   0  0  0  0  0  3  0  0  0  0  0  0
  187.2920  178.4370  148.3150 C   0  0  0  0  0  3  0  0  0  0  0  0
  188.2320  177.8950  141.3940 C   0  0  0  0  0  0  0  0  0  0  0  0
  189.3020  177.7670  140.5030 C   0  0  0  0  0  3  0  0  0  0  0  0
  185.0700  178.8160  143.9160 C   0  0  0  0  0  3  0  0  0  0  0  0
  186.4020  178.6030  145.9610 C   0  0  0  0  0  0  0  0  0  0  0  0
  186.5040  178.9540  147.3820 C   0  0  0  0  0  3  0  0  0  0  0  0
  184.6470  178.7870  139.6100 N   0  0  0  0  0  2  0  0  0  0  0  0
  183.6360  178.2020  140.5010 C   0  0  1  0  0  3  0  0  0  0  0  0
  184.7240  178.9900  141.0640 C   0  0  1  0  0  3  0  0  0  0  0  0
  182.3740  179.0450  140.4650 C   0  0  0  0  0  2  0  0  0  0  0  0
  179.2310  176.6920  140.9280 C   0  0  2  0  0  3  0  0  0  0  0  0
  180.8320  179.2550  143.1100 C   0  0  0  0  0  1  0  0  0  0  0  0
  179.2480  175.3000  141.3360 N   0  0  0  0  0  1  0  0  0  0  0  0
  180.5820  176.9930  139.7270 S   0  0  0  0  0  0  0  0  0  0  0  0
  180.4700  178.3270  142.0020 C   0  0  0  0  0  0  0  0  0  0  0  0
  181.2170  178.2290  140.8020 N   0  0  0  0  0  0  0  0  0  0  0  0
  179.4510  177.5440  142.0920 N   0  0  0  0  0  0  0  0  0  0  0  0
  1  9  1  0  0  0  0
  1 14  1  0  0  0  0
  2  3  1  0  0  0  0
  3  7  2  0  0  0  0
  3 19  1  0  0  0  0
  4 11  2  0  0  0  0
  5 14  2  0  0  0  0
  5  2  1  0  0  0  0
  6  1  2  0  0  0  0
  7  4  1  0  0  0  0
  8 12  1  6  0  0  0
  8 13  1  0  0  0  0
 10 19  2  0  0  0  0
 11 15  1  0  0  0  0
 12 16  1  0  0  0  0
 13  2  1  0  0  0  0
 13 18  2  0  0  0  0
 16  5  1  0  0  0  0
 17  6  1  0  0  0  0
 17 16  2  0  0  0  0
 18 10  1  0  0  0  0
 19 20  1  0  0  0  0
 20 15  2  0  0  0  0
 21 22  1  0  0  0  0
 22 24  1  6  0  0  0
 22 23  1  0  0  0  0
 23 21  1  6  0  0  0
 23  8  1  0  0  0  0
 24 30  1  0  0  0  0
 25 27  1  1  0  0  0
 25 31  1  0  0  0  0
 28 30  1  0  0  0  0
 28 25  1  0  0  0  0
 29 31  2  0  0  0  0
 29 26  1  0  0  0  0
 30 29  1  0  0  0  0
M  END
>  <MODEL>
3

>  <REMARK>
 VINA RESULT:      -9.7      4.179      5.982
  Name = 
  3 active torsions:
  status: ('A' for Active; 'I' for Inactive)
    1  A    between atoms: C_3  and  C_9
    2  A    between atoms: C_3  and  N_22
    3  A    between atoms: C_15  and  C_23
                            x       y       z     vdW  Elec       q    Type
                         _______ _______ _______ _____ _____    ______ ____

>  <TORSDO>
F 3

$$$$
=
 OpenBabel11052412563D

 31 36  0  0  1  0  0  0  0  0999 V2000
  190.3150  177.2080  146.7550 C   0  0  0  0  0  0  0  0  0  0  0  0
  188.1560  177.6080  143.6800 N   0  0  0  0  0  0  0  0  0  0  0  0
  186.8450  178.0220  144.1660 C   0  0  0  0  0  0  0  0  0  0  0  0
  185.1750  177.7910  146.0870 C   0  0  0  0  0  3  0  0  0  0  0  0
  189.2770  177.2920  144.5480 C   0  0  0  0  0  0  0  0  0  0  0  0
  191.5040  176.7530  146.1860 C   0  0  0  0  0  3  0  0  0  0  0  0
  186.4310  177.5790  145.3600 C   0  0  0  0  0  3  0  0  0  0  0  0
  189.5300  176.7510  141.6980 C   0  0  1  0  0  3  0  0  0  0  0  0
  190.2300  177.3910  148.0930 F   0  0  0  0  0  0  0  0  0  0  0  0
  186.3120  178.8260  141.9380 C   0  0  0  0  0  3  0  0  0  0  0  0
  184.1820  178.6270  145.8130 C   0  0  0  0  0  3  0  0  0  0  0  0
  190.6270  176.7070  142.6060 O   0  0  0  0  0  0  0  0  0  0  0  0
  188.3740  177.5560  142.2510 C   0  0  0  0  0  0  0  0  0  0  0  0
  189.2140  177.4850  145.9410 C   0  0  0  0  0  3  0  0  0  0  0  0
  184.0650  179.5530  144.6870 C   0  0  0  0  0  3  0  0  0  0  0  0
  190.4910  176.8490  143.9870 C   0  0  0  0  0  0  0  0  0  0  0  0
  191.5930  176.5780  144.8040 C   0  0  0  0  0  3  0  0  0  0  0  0
  187.4880  178.1170  141.4220 C   0  0  0  0  0  3  0  0  0  0  0  0
  185.9790  178.7920  143.2290 C   0  0  0  0  0  0  0  0  0  0  0  0
  184.8180  179.6110  143.5950 C   0  0  0  0  0  3  0  0  0  0  0  0
  191.4730  177.5040  140.4010 N   0  0  0  0  0  2  0  0  0  0  0  0
  190.9310  176.3000  139.7580 C   0  0  1  0  0  3  0  0  0  0  0  0
  190.0230  177.2720  140.3520 C   0  0  1  0  0  3  0  0  0  0  0  0
  190.9380  176.4800  138.2500 C   0  0  0  0  0  2  0  0  0  0  0  0
  193.6070  174.0760  136.5960 C   0  0  2  0  0  3  0  0  0  0  0  0
  189.9070  173.8750  136.9970 C   0  0  0  0  0  1  0  0  0  0  0  0
  194.4490  173.1190  137.2860 N   0  0  0  0  0  1  0  0  0  0  0  0
  193.5410  175.6360  137.5570 S   0  0  0  0  0  0  0  0  0  0  0  0
  191.3390  174.2820  137.0190 C   0  0  0  0  0  0  0  0  0  0  0  0
  191.7930  175.4770  137.6310 N   0  0  0  0  0  0  0  0  0  0  0  0
  192.2520  173.5450  136.4880 N   0  0  0  0  0  0  0  0  0  0  0  0
  1  9  1  0  0  0  0
  2  3  1  0  0  0  0
  2  5  1  0  0  0  0
  3  7  2  0  0  0  0
  5 14  1  0  0  0  0
  6  1  1  0  0  0  0
  7  4  1  0  0  0  0
  8 13  1  1  0  0  0
  8 12  1  0  0  0  0
 10 19  2  0  0  0  0
 11  4  2  0  0  0  0
 12 16  1  0  0  0  0
 13  2  1  0  0  0  0
 14  1  2  0  0  0  0
 15 11  1  0  0  0  0
 16  5  2  0  0  0  0
 16 17  1  0  0  0  0
 17  6  2  0  0  0  0
 18 10  1  0  0  0  0
 18 13  2  0  0  0  0
 19 20  1  0  0  0  0
 19  3  1  0  0  0  0
 20 15  2  0  0  0  0
 22 24  1  6  0  0  0
 22 23  1  0  0  0  0
 22 21  1  0  0  0  0
 23 21  1  1  0  0  0
 23  8  1  0  0  0  0
 25 27  1  1  0  0  0
 25 28  1  0  0  0  0
 26 29  1  0  0  0  0
 28 30  1  0  0  0  0
 29 30  1  0  0  0  0
 30 24  1  0  0  0  0
 31 25  1  0  0  0  0
 31 29  2  0  0  0  0
M  END
>  <MODEL>
4

>  <REMARK>
 VINA RESULT:      -9.4      2.173      2.781
  Name = 
  3 active torsions:
  status: ('A' for Active; 'I' for Inactive)
    1  A    between atoms: C_3  and  C_9
    2  A    between atoms: C_3  and  N_22
    3  A    between atoms: C_15  and  C_23
                            x       y       z     vdW  Elec       q    Type
                         _______ _______ _______ _____ _____    ______ ____

>  <TORSDO>
F 3

$$$$
=
 OpenBabel11052412563D

 31 36  0  0  1  0  0  0  0  0999 V2000
  185.5340  178.2180  146.0440 C   0  0  0  0  0  0  0  0  0  0  0  0
  188.5890  177.5340  143.9280 N   0  0  0  0  0  0  0  0  0  0  0  0
  189.6410  177.1520  144.8620 C   0  0  0  0  0  0  0  0  0  0  0  0
  190.5710  177.5320  147.2130 C   0  0  0  0  0  3  0  0  0  0  0  0
  187.2530  177.9340  144.3360 C   0  0  0  0  0  0  0  0  0  0  0  0
  184.6260  178.6330  145.0700 C   0  0  0  0  0  3  0  0  0  0  0  0
  189.6440  177.6920  146.0870 C   0  0  0  0  0  3  0  0  0  0  0  0
  188.0000  178.2290  141.5360 C   0  0  1  0  0  3  0  0  0  0  0  0
  185.1540  178.1510  147.3410 F   0  0  0  0  0  0  0  0  0  0  0  0
  190.8650  176.1530  143.0180 C   0  0  0  0  0  3  0  0  0  0  0  0
  191.5660  176.6670  147.3590 C   0  0  0  0  0  3  0  0  0  0  0  0
  186.6620  178.3610  142.0110 O   0  0  0  0  0  0  0  0  0  0  0  0
  188.8690  177.4630  142.5110 C   0  0  0  0  0  0  0  0  0  0  0  0
  186.8340  177.8620  145.6770 C   0  0  0  0  0  3  0  0  0  0  0  0
  192.0210  175.6460  146.4150 C   0  0  0  0  0  3  0  0  0  0  0  0
  186.3180  178.3380  143.3620 C   0  0  0  0  0  0  0  0  0  0  0  0
  185.0160  178.6890  143.7320 C   0  0  0  0  0  3  0  0  0  0  0  0
  189.9610  176.8250  142.0790 C   0  0  0  0  0  3  0  0  0  0  0  0
  190.7440  176.2950  144.3390 C   0  0  0  0  0  0  0  0  0  0  0  0
  191.6800  175.5000  145.1410 C   0  0  0  0  0  3  0  0  0  0  0  0
  188.1770  178.6280  139.1200 N   0  0  0  0  0  2  0  0  0  0  0  0
  189.2790  177.7440  139.5210 C   0  0  1  0  0  3  0  0  0  0  0  0
  187.9720  177.5970  140.1480 C   0  0  1  0  0  3  0  0  0  0  0  0
  189.4620  176.6520  138.4830 C   0  0  0  0  0  2  0  0  0  0  0  0
  193.3640  176.6340  137.8440 C   0  0  2  0  0  3  0  0  0  0  0  0
  190.4420  175.6020  135.7710 C   0  0  0  0  0  1  0  0  0  0  0  0
  194.3060  175.6280  138.2940 N   0  0  0  0  0  1  0  0  0  0  0  0
  192.1730  177.0000  139.1880 S   0  0  0  0  0  0  0  0  0  0  0  0
  191.3410  176.0990  136.8500 C   0  0  0  0  0  0  0  0  0  0  0  0
  190.8640  176.5510  138.1050 N   0  0  0  0  0  0  0  0  0  0  0  0
  192.6190  176.1260  136.6950 N   0  0  0  0  0  0  0  0  0  0  0  0
  1  9  1  0  0  0  0
  2  5  1  0  0  0  0
  2  3  1  0  0  0  0
  3  7  2  0  0  0  0
  4 11  2  0  0  0  0
  5 14  2  0  0  0  0
  6  1  2  0  0  0  0
  7  4  1  0  0  0  0
  8 12  1  1  0  0  0
  8 13  1  0  0  0  0
 10 19  2  0  0  0  0
 12 16  1  0  0  0  0
 13  2  1  0  0  0  0
 14  1  1  0  0  0  0
 15 11  1  0  0  0  0
 16 17  2  0  0  0  0
 16  5  1  0  0  0  0
 17  6  1  0  0  0  0
 18 13  2  0  0  0  0
 18 10  1  0  0  0  0
 19  3  1  0  0  0  0
 19 20  1  0  0  0  0
 20 15  2  0  0  0  0
 21 22  1  0  0  0  0
 22 24  1  6  0  0  0
 22 23  1  0  0  0  0
 23 21  1  6  0  0  0
 23  8  1  0  0  0  0
 25 27  1  1  0  0  0
 25 28  1  0  0  0  0
 26 29  1  0  0  0  0
 29 30  1  0  0  0  0
 30 24  1  0  0  0  0
 30 28  1  0  0  0  0
 31 29  2  0  0  0  0
 31 25  1  0  0  0  0
M  END
>  <MODEL>
5

>  <REMARK>
 VINA RESULT:      -9.4      2.265      4.951
  Name = 
  3 active torsions:
  status: ('A' for Active; 'I' for Inactive)
    1  A    between atoms: C_3  and  C_9
    2  A    between atoms: C_3  and  N_22
    3  A    between atoms: C_15  and  C_23
                            x       y       z     vdW  Elec       q    Type
                         _______ _______ _______ _____ _____    ______ ____

>  <TORSDO>
F 3

$$$$
=
 OpenBabel11052412563D

 31 36  0  0  1  0  0  0  0  0999 V2000
  185.1530  178.3600  144.0850 C   0  0  0  0  0  0  0  0  0  0  0  0
  188.3820  177.8260  142.1960 N   0  0  0  0  0  0  0  0  0  0  0  0
  189.3730  177.4590  143.1990 C   0  0  0  0  0  0  0  0  0  0  0  0
  190.1080  177.8210  145.6210 C   0  0  0  0  0  3  0  0  0  0  0  0
  187.0060  178.1710  142.5080 C   0  0  0  0  0  0  0  0  0  0  0  0
  184.3070  178.7650  143.0530 C   0  0  0  0  0  3  0  0  0  0  0  0
  189.2640  177.9730  144.4310 C   0  0  0  0  0  3  0  0  0  0  0  0
  187.9500  178.5510  139.7790 C   0  0  1  0  0  3  0  0  0  0  0  0
  184.6790  178.2530  145.3480 F   0  0  0  0  0  0  0  0  0  0  0  0
  190.7670  176.5420  141.4360 C   0  0  0  0  0  3  0  0  0  0  0  0
  191.1200  176.9860  145.8260 C   0  0  0  0  0  3  0  0  0  0  0  0
  186.5770  178.6280  140.1530 O   0  0  0  0  0  0  0  0  0  0  0  0
  188.7700  177.7950  140.8030 C   0  0  0  0  0  0  0  0  0  0  0  0
  186.4890  178.0560  143.8110 C   0  0  0  0  0  3  0  0  0  0  0  0
  191.6800  176.0020  144.9010 C   0  0  0  0  0  3  0  0  0  0  0  0
  186.1330  178.5640  141.4740 C   0  0  0  0  0  0  0  0  0  0  0  0
  184.7950  178.8620  141.7490 C   0  0  0  0  0  3  0  0  0  0  0  0
  189.9140  177.2030  140.4440 C   0  0  0  0  0  3  0  0  0  0  0  0
  190.5410  176.6520  142.7460 C   0  0  0  0  0  0  0  0  0  0  0  0
  191.4420  175.8720  143.6020 C   0  0  0  0  0  3  0  0  0  0  0  0
  187.4010  178.8340  137.4030 N   0  0  0  0  0  2  0  0  0  0  0  0
  188.8640  178.8130  137.5370 C   0  0  1  0  0  3  0  0  0  0  0  0
  188.0500  177.9480  138.3810 C   0  0  1  0  0  3  0  0  0  0  0  0
  189.4670  177.9900  136.4140 C   0  0  0  0  0  2  0  0  0  0  0  0
  188.8160  174.1740  137.2210 C   0  0  2  0  0  3  0  0  0  0  0  0
  191.7760  176.3970  137.6610 C   0  0  0  0  0  1  0  0  0  0  0  0
  188.8900  173.0700  136.2830 N   0  0  0  0  0  1  0  0  0  0  0  0
  187.9740  175.5950  136.4250 S   0  0  0  0  0  0  0  0  0  0  0  0
  190.4380  175.8220  137.3440 C   0  0  0  0  0  0  0  0  0  0  0  0
  189.3990  176.5730  136.7400 N   0  0  0  0  0  0  0  0  0  0  0  0
  190.1650  174.5890  137.5930 N   0  0  0  0  0  0  0  0  0  0  0  0
  1  9  1  0  0  0  0
  2  5  1  0  0  0  0
  2  3  1  0  0  0  0
  3  7  2  0  0  0  0
  4 11  2  0  0  0  0
  5 14  2  0  0  0  0
  6  1  2  0  0  0  0
  7  4  1  0  0  0  0
  8 12  1  1  0  0  0
  8 13  1  0  0  0  0
 10 19  2  0  0  0  0
 12 16  1  0  0  0  0
 13  2  1  0  0  0  0
 14  1  1  0  0  0  0
 15 11  1  0  0  0  0
 16 17  2  0  0  0  0
 16  5  1  0  0  0  0
 17  6  1  0  0  0  0
 18 13  2  0  0  0  0
 18 10  1  0  0  0  0
 19  3  1  0  0  0  0
 19 20  1  0  0  0  0
 20 15  2  0  0  0  0
 21 22  1  0  0  0  0
 22 24  1  6  0  0  0
 22 23  1  0  0  0  0
 23 21  1  6  0  0  0
 23  8  1  0  0  0  0
 24 30  1  0  0  0  0
 25 27  1  6  0  0  0
 25 31  1  0  0  0  0
 28 30  1  0  0  0  0
 28 25  1  0  0  0  0
 29 31  2  0  0  0  0
 29 26  1  0  0  0  0
 30 29  1  0  0  0  0
M  END
>  <MODEL>
6

>  <REMARK>
 VINA RESULT:      -9.3      2.120      4.721
  Name = 
  3 active torsions:
  status: ('A' for Active; 'I' for Inactive)
    1  A    between atoms: C_3  and  C_9
    2  A    between atoms: C_3  and  N_22
    3  A    between atoms: C_15  and  C_23
                            x       y       z     vdW  Elec       q    Type
                         _______ _______ _______ _____ _____    ______ ____

>  <TORSDO>
F 3

$$$$
=
 OpenBabel11052412563D

 31 36  0  0  1  0  0  0  0  0999 V2000
  183.6200  178.4280  143.2770 C   0  0  0  0  0  0  0  0  0  0  0  0
  187.3720  178.1700  143.6440 N   0  0  0  0  0  0  0  0  0  0  0  0
  187.6210  178.0030  145.0710 C   0  0  0  0  0  0  0  0  0  0  0  0
  186.7970  178.6260  147.4090 C   0  0  0  0  0  3  0  0  0  0  0  0
  186.0510  178.3610  143.0720 C   0  0  0  0  0  0  0  0  0  0  0  0
  183.5030  178.6500  141.9050 C   0  0  0  0  0  3  0  0  0  0  0  0
  186.7880  178.5860  145.9430 C   0  0  0  0  0  3  0  0  0  0  0  0
  188.3740  178.6610  141.3400 C   0  0  1  0  0  3  0  0  0  0  0  0
  182.5110  178.3530  144.0490 F   0  0  0  0  0  0  0  0  0  0  0  0
  189.8310  177.1450  144.5490 C   0  0  0  0  0  3  0  0  0  0  0  0
  187.5520  177.9420  148.2590 C   0  0  0  0  0  3  0  0  0  0  0  0
  187.0360  178.5920  140.8550 O   0  0  0  0  0  0  0  0  0  0  0  0
  188.4950  178.0890  142.7370 C   0  0  0  0  0  0  0  0  0  0  0  0
  184.8840  178.2760  143.8530 C   0  0  0  0  0  3  0  0  0  0  0  0
  188.6040  176.9720  147.9540 C   0  0  0  0  0  3  0  0  0  0  0  0
  185.9140  178.5670  141.6840 C   0  0  0  0  0  0  0  0  0  0  0  0
  184.6480  178.7140  141.1100 C   0  0  0  0  0  3  0  0  0  0  0  0
  189.6700  177.6210  143.1710 C   0  0  0  0  0  3  0  0  0  0  0  0
  188.8830  177.3190  145.4710 C   0  0  0  0  0  0  0  0  0  0  0  0
  189.1690  176.7210  146.7800 C   0  0  0  0  0  3  0  0  0  0  0  0
  188.7620  176.6600  139.9740 N   0  0  0  0  0  2  0  0  0  0  0  0
  188.6020  177.8070  139.0720 C   0  0  1  0  0  3  0  0  0  0  0  0
  189.3000  177.9780  140.3400 C   0  0  1  0  0  3  0  0  0  0  0  0
  189.6210  177.7200  137.9490 C   0  0  0  0  0  2  0  0  0  0  0  0
  189.9340  173.8830  137.0480 C   0  0  2  0  0  3  0  0  0  0  0  0
  192.3350  176.3730  138.4370 C   0  0  0  0  0  1  0  0  0  0  0  0
  190.1730  173.3230  135.7320 N   0  0  0  0  0  1  0  0  0  0  0  0
  188.7210  175.2510  136.9190 S   0  0  0  0  0  0  0  0  0  0  0  0
  191.1410  175.6730  137.8850 C   0  0  0  0  0  0  0  0  0  0  0  0
  189.9080  176.3270  137.6420 N   0  0  0  0  0  0  0  0  0  0  0  0
  191.1800  174.4220  137.5830 N   0  0  0  0  0  0  0  0  0  0  0  0
  1 14  1  0  0  0  0
  1  9  1  0  0  0  0
  2  3  1  0  0  0  0
  3 19  1  0  0  0  0
  3  7  2  0  0  0  0
  4 11  2  0  0  0  0
  5  2  1  0  0  0  0
  5 14  2  0  0  0  0
  6  1  2  0  0  0  0
  7  4  1  0  0  0  0
  8 12  1  6  0  0  0
  8 13  1  0  0  0  0
 10 19  2  0  0  0  0
 12 16  1  0  0  0  0
 13 18  2  0  0  0  0
 13  2  1  0  0  0  0
 15 11  1  0  0  0  0
 16  5  1  0  0  0  0
 17 16  2  0  0  0  0
 17  6  1  0  0  0  0
 18 10  1  0  0  0  0
 19 20  1  0  0  0  0
 20 15  2  0  0  0  0
 22 24  1  6  0  0  0
 22 21  1  0  0  0  0
 22 23  1  0  0  0  0
 23 21  1  1  0  0  0
 23  8  1  0  0  0  0
 25 27  1  6  0  0  0
 25 31  1  0  0  0  0
 28 25  1  0  0  0  0
 28 30  1  0  0  0  0
 29 26  1  0  0  0  0
 30 29  1  0  0  0  0
 30 24  1  0  0  0  0
 31 29  2  0  0  0  0
M  END
>  <MODEL>
7

>  <REMARK>
 VINA RESULT:      -9.3      2.515      4.593
  Name = 
  3 active torsions:
  status: ('A' for Active; 'I' for Inactive)
    1  A    between atoms: C_3  and  C_9
    2  A    between atoms: C_3  and  N_22
    3  A    between atoms: C_15  and  C_23
                            x       y       z     vdW  Elec       q    Type
                         _______ _______ _______ _____ _____    ______ ____

>  <TORSDO>
F 3

$$$$
=
 OpenBabel11052412563D

 31 36  0  0  1  0  0  0  0  0999 V2000
  184.9810  178.4300  146.0740 C   0  0  0  0  0  0  0  0  0  0  0  0
  187.2320  178.0360  143.0650 N   0  0  0  0  0  0  0  0  0  0  0  0
  188.5300  177.6310  143.5910 C   0  0  0  0  0  0  0  0  0  0  0  0
  190.1420  177.8780  145.5610 C   0  0  0  0  0  3  0  0  0  0  0  0
  186.0840  178.3470  143.8990 C   0  0  0  0  0  0  0  0  0  0  0  0
  183.8060  178.8770  145.4680 C   0  0  0  0  0  3  0  0  0  0  0  0
  188.9060  178.0800  144.7960 C   0  0  0  0  0  3  0  0  0  0  0  0
  185.9120  178.8790  141.0410 C   0  0  1  0  0  3  0  0  0  0  0  0
  185.0270  178.2520  147.4150 F   0  0  0  0  0  0  0  0  0  0  0  0
  189.1340  176.8240  141.3830 C   0  0  0  0  0  3  0  0  0  0  0  0
  191.1480  177.0470  145.3180 C   0  0  0  0  0  3  0  0  0  0  0  0
  184.7880  178.9180  141.9160 O   0  0  0  0  0  0  0  0  0  0  0  0
  187.0560  178.0810  141.6310 C   0  0  0  0  0  0  0  0  0  0  0  0
  186.1070  178.1580  145.2930 C   0  0  0  0  0  3  0  0  0  0  0  0
  191.3030  176.1190  144.1990 C   0  0  0  0  0  3  0  0  0  0  0  0
  184.8840  178.7810  143.3010 C   0  0  0  0  0  0  0  0  0  0  0  0
  183.7570  179.0470  144.0840 C   0  0  0  0  0  3  0  0  0  0  0  0
  187.9700  177.5240  140.8300 C   0  0  0  0  0  3  0  0  0  0  0  0
  189.4290  176.8640  142.6830 C   0  0  0  0  0  0  0  0  0  0  0  0
  190.5840  176.0530  143.0860 C   0  0  0  0  0  3  0  0  0  0  0  0
  184.8630  179.4350  138.8920 N   0  0  0  0  0  2  0  0  0  0  0  0
  186.2390  178.9930  138.6300 C   0  0  1  0  0  3  0  0  0  0  0  0
  185.4630  178.3500  139.6820 C   0  0  1  0  0  3  0  0  0  0  0  0
  186.2630  178.0950  137.4070 C   0  0  0  0  0  2  0  0  0  0  0  0
  189.9990  176.9020  136.9060 C   0  0  2  0  0  3  0  0  0  0  0  0
  186.7650  175.0740  137.2060 C   0  0  0  0  0  1  0  0  0  0  0  0
  191.0010  176.7480  137.9430 N   0  0  0  0  0  1  0  0  0  0  0  0
  189.0550  178.4470  137.1940 S   0  0  0  0  0  0  0  0  0  0  0  0
  187.8360  176.1060  137.1270 C   0  0  0  0  0  0  0  0  0  0  0  0
  187.5800  177.4940  137.2540 N   0  0  0  0  0  0  0  0  0  0  0  0
  189.0690  175.7780  136.9550 N   0  0  0  0  0  0  0  0  0  0  0  0
  1  9  1  0  0  0  0
  2  3  1  0  0  0  0
  2  5  1  0  0  0  0
  3  7  2  0  0  0  0
  5 14  1  0  0  0  0
  6  1  1  0  0  0  0
  7  4  1  0  0  0  0
  8 13  1  1  0  0  0
  8 12  1  0  0  0  0
 10 19  2  0  0  0  0
 11  4  2  0  0  0  0
 12 16  1  0  0  0  0
 13  2  1  0  0  0  0
 14  1  2  0  0  0  0
 15 11  1  0  0  0  0
 16  5  2  0  0  0  0
 16 17  1  0  0  0  0
 17  6  2  0  0  0  0
 18 10  1  0  0  0  0
 18 13  2  0  0  0  0
 19 20  1  0  0  0  0
 19  3  1  0  0  0  0
 20 15  2  0  0  0  0
 22 24  1  6  0  0  0
 22 21  1  0  0  0  0
 22 23  1  0  0  0  0
 23 21  1  6  0  0  0
 23  8  1  0  0  0  0
 25 31  1  0  0  0  0
 25 28  1  0  0  0  0
 25 27  1  1  0  0  0
 28 30  1  0  0  0  0
 29 26  1  0  0  0  0
 29 30  1  0  0  0  0
 30 24  1  0  0  0  0
 31 29  2  0  0  0  0
M  END
>  <MODEL>
8

>  <REMARK>
 VINA RESULT:      -9.3      2.088      4.737
  Name = 
  3 active torsions:
  status: ('A' for Active; 'I' for Inactive)
    1  A    between atoms: C_3  and  C_9
    2  A    between atoms: C_3  and  N_22
    3  A    between atoms: C_15  and  C_23
                            x       y       z     vdW  Elec       q    Type
                         _______ _______ _______ _____ _____    ______ ____

>  <TORSDO>
F 3

$$$$
=
 OpenBabel11052412563D

 31 36  0  0  1  0  0  0  0  0999 V2000
  191.1090  177.6440  144.9960 C   0  0  0  0  0  0  0  0  0  0  0  0
  187.9470  177.9570  142.9510 N   0  0  0  0  0  0  0  0  0  0  0  0
  186.8630  178.1010  143.9150 C   0  0  0  0  0  0  0  0  0  0  0  0
  186.0490  177.4220  146.2420 C   0  0  0  0  0  3  0  0  0  0  0  0
  189.3370  177.7550  143.3220 C   0  0  0  0  0  0  0  0  0  0  0  0
  192.0560  177.4460  143.9910 C   0  0  0  0  0  3  0  0  0  0  0  0
  186.9700  177.4890  145.1020 C   0  0  0  0  0  3  0  0  0  0  0  0
  188.5990  177.5250  140.5140 C   0  0  1  0  0  3  0  0  0  0  0  0
  191.4960  177.6870  146.2920 F   0  0  0  0  0  0  0  0  0  0  0  0
  185.4610  179.0050  142.1510 C   0  0  0  0  0  3  0  0  0  0  0  0
  184.9290  178.1020  146.4520 C   0  0  0  0  0  3  0  0  0  0  0  0
  189.9480  177.5820  140.9700 O   0  0  0  0  0  0  0  0  0  0  0  0
  187.6350  178.0730  141.5440 C   0  0  0  0  0  0  0  0  0  0  0  0
  189.7620  177.8070  144.6620 C   0  0  0  0  0  3  0  0  0  0  0  0
  184.2980  179.0940  145.5820 C   0  0  0  0  0  3  0  0  0  0  0  0
  190.3080  177.5730  142.3180 C   0  0  0  0  0  0  0  0  0  0  0  0
  191.6560  177.4160  142.6540 C   0  0  0  0  0  3  0  0  0  0  0  0
  186.4460  178.5520  141.1630 C   0  0  0  0  0  3  0  0  0  0  0  0
  185.6270  178.7980  143.4590 C   0  0  0  0  0  0  0  0  0  0  0  0
  184.5890  179.3760  144.3190 C   0  0  0  0  0  3  0  0  0  0  0  0
  189.3050  177.5380  138.1630 N   0  0  0  0  0  2  0  0  0  0  0  0
  187.8470  177.3700  138.2030 C   0  0  1  0  0  3  0  0  0  0  0  0
  188.5000  178.2420  139.1710 C   0  0  1  0  0  3  0  0  0  0  0  0
  187.2050  178.2190  137.1200 C   0  0  0  0  0  2  0  0  0  0  0  0
  183.4320  177.0670  136.8530 C   0  0  2  0  0  3  0  0  0  0  0  0
  186.3780  176.6680  134.6040 C   0  0  0  0  0  1  0  0  0  0  0  0
  182.3120  177.8790  136.4190 N   0  0  0  0  0  1  0  0  0  0  0  0
  184.5140  178.0570  137.9540 S   0  0  0  0  0  0  0  0  0  0  0  0
  185.4500  177.0100  135.7190 C   0  0  0  0  0  0  0  0  0  0  0  0
  185.8520  177.7530  136.8560 N   0  0  0  0  0  0  0  0  0  0  0  0
  184.2130  176.6530  135.6920 N   0  0  0  0  0  0  0  0  0  0  0  0
  1  9  1  0  0  0  0
  2  5  1  0  0  0  0
  2  3  1  0  0  0  0
  3  7  2  0  0  0  0
  4 11  2  0  0  0  0
  5 14  2  0  0  0  0
  6  1  2  0  0  0  0
  7  4  1  0  0  0  0
  8 12  1  1  0  0  0
  8 13  1  0  0  0  0
 10 19  2  0  0  0  0
 12 16  1  0  0  0  0
 13  2  1  0  0  0  0
 14  1  1  0  0  0  0
 15 11  1  0  0  0  0
 16 17  2  0  0  0  0
 16  5  1  0  0  0  0
 17  6  1  0  0  0  0
 18 13  2  0  0  0  0
 18 10  1  0  0  0  0
 19  3  1  0  0  0  0
 19 20  1  0  0  0  0
 20 15  2  0  0  0  0
 21 22  1  0  0  0  0
 22 24  1  6  0  0  0
 22 23  1  0  0  0  0
 23 21  1  6  0  0  0
 23  8  1  0  0  0  0
 25 27  1  6  0  0  0
 25 28  1  0  0  0  0
 26 29  1  0  0  0  0
 29 30  1  0  0  0  0
 30 24  1  0  0  0  0
 30 28  1  0  0  0  0
 31 29  2  0  0  0  0
 31 25  1  0  0  0  0
M  END
>  <MODEL>
9

>  <REMARK>
 VINA RESULT:      -8.9      1.964      2.509
  Name = 
  3 active torsions:
  status: ('A' for Active; 'I' for Inactive)
    1  A    between atoms: C_3  and  C_9
    2  A    between atoms: C_3  and  N_22
    3  A    between atoms: C_15  and  C_23
                            x       y       z     vdW  Elec       q    Type
                         _______ _______ _______ _____ _____    ______ ____

>  <TORSDO>
F 3

$$$$
