=
 OpenBabel11052417023D

 32 36  0  0  1  0  0  0  0  0999 V2000
  184.0570  178.6190  142.7220 C   0  0  0  0  0  3  0  0  0  0  0  0
  183.9770  178.7610  144.1060 C   0  0  0  0  0  3  0  0  0  0  0  0
  185.2490  178.1970  142.1340 C   0  0  0  0  0  3  0  0  0  0  0  0
  186.3780  177.9160  142.9190 C   0  0  0  0  0  0  0  0  0  0  0  0
  185.0910  178.4860  144.9000 C   0  0  0  0  0  3  0  0  0  0  0  0
  186.3060  178.0690  144.3280 C   0  0  0  0  0  0  0  0  0  0  0  0
  188.4370  177.7260  147.4860 C   0  0  0  0  0  0  0  0  0  0  0  0
  189.6290  177.2870  146.9110 C   0  0  0  0  0  0  0  0  0  0  0  0
  191.0180  176.6790  145.3300 C   0  0  0  0  0  0  0  0  0  0  0  0
  187.4640  177.8170  145.2280 C   0  0  0  0  0  0  0  0  0  0  0  0
  191.6420  176.6040  146.5690 C   0  0  0  0  0  3  0  0  0  0  0  0
  190.7780  176.9820  147.5460 N   0  0  0  0  0  2  0  0  0  0  0  0
  188.6880  177.3610  144.6860 C   0  0  0  0  0  3  0  0  0  0  0  0
  188.2990  177.9160  148.9560 C   0  0  0  0  0  1  0  0  0  0  0  0
  191.5700  176.3760  144.1290 F   0  0  0  0  0  0  0  0  0  0  0  0
  187.3520  177.9850  146.6310 C   0  0  0  0  0  3  0  0  0  0  0  0
  189.7420  177.1130  145.5610 C   0  0  0  0  0  0  0  0  0  0  0  0
  187.5750  177.4320  142.2960 N   0  0  0  0  0  2  0  0  0  0  0  0
  189.7710  177.4880  136.9810 C   0  0  0  0  0  2  0  0  0  0  0  0
  189.9530  177.5580  139.7440 C   0  0  2  0  0  3  0  0  0  0  0  0
  187.8490  178.5630  140.1610 C   0  0  0  0  0  2  0  0  0  0  0  0
  188.5740  178.0890  137.7540 C   0  0  0  0  0  2  0  0  0  0  0  0
  188.4830  178.2620  141.5180 C   0  0  2  0  0  3  0  0  0  0  0  0
  190.3600  176.2050  137.6210 C   0  0  1  0  0  3  0  0  0  0  0  0
  188.5550  177.6330  139.2090 C   0  0  1  0  0  3  0  0  0  0  0  0
  190.6730  176.3620  139.1280 C   0  0  0  0  0  2  0  0  0  0  0  0
  189.7740  177.4850  141.2390 C   0  0  0  0  0  2  0  0  0  0  0  0
  189.4350  175.0140  137.4140 C   0  0  0  0  0  2  0  0  0  0  0  0
  189.1050  174.8480  135.9430 C   0  0  0  0  0  2  0  0  0  0  0  0
  187.6660  174.7360  135.7810 N   0  0  0  0  0  2  0  0  0  0  0  0
  186.0180  173.2180  137.2570 S   0  0  0  0  0  1  0  0  0  0  0  0
  187.0910  174.6770  137.1130 C   0  0  0  0  0  2  0  0  0  0  0  0
  1  2  1  0  0  0  0
  2  5  2  0  0  0  0
  3  1  2  0  0  0  0
  3  4  1  0  0  0  0
  4  6  2  0  0  0  0
  6  5  1  0  0  0  0
  6 10  1  0  0  0  0
  7 14  1  0  0  0  0
  8  7  1  0  0  0  0
  8 12  1  0  0  0  0
  9 17  1  0  0  0  0
  9 11  2  0  0  0  0
 10 16  1  0  0  0  0
 11 12  1  0  0  0  0
 13 10  2  0  0  0  0
 13 17  1  0  0  0  0
 15  9  1  0  0  0  0
 16  7  2  0  0  0  0
 17  8  2  0  0  0  0
 18  4  1  0  0  0  0
 19 24  1  0  0  0  0
 19 22  1  0  0  0  0
 20 26  1  6  0  0  0
 20 27  1  0  0  0  0
 21 23  1  0  0  0  0
 23 18  1  1  0  0  0
 24 28  1  1  0  0  0
 24 26  1  0  0  0  0
 25 22  1  6  0  0  0
 25 20  1  0  0  0  0
 25 21  1  0  0  0  0
 27 23  1  0  0  0  0
 29 28  1  0  0  0  0
 30 29  1  0  0  0  0
 30 32  1  0  0  0  0
 32 31  1  0  0  0  0
M  END
>  <MODEL>
1

>  <REMARK>
 VINA RESULT:      -9.8      0.000      0.000
  Name = 
  7 active torsions:
  status: ('A' for Active; 'I' for Inactive)
    1  A    between atoms: N_3  and  C_14
    2  A    between atoms: N_3  and  C_15
    3  A    between atoms: C_10  and  N_20
    4  A    between atoms: C_10  and  C_24
    5  A    between atoms: C_16  and  C_26
    6  A    between atoms: C_17  and  N_20
    7  A    between atoms: C_19  and  C_24
                            x       y       z     vdW  Elec       q    Type
                         _______ _______ _______ _____ _____    ______ ____

>  <TORSDO>
F 7

$$$$
=
 OpenBabel11052417023D

 32 36  0  0  1  0  0  0  0  0999 V2000
  183.2830  178.9640  144.1180 C   0  0  0  0  0  3  0  0  0  0  0  0
  183.7280  178.7920  145.4270 C   0  0  0  0  0  3  0  0  0  0  0  0
  184.1390  178.6950  143.0510 C   0  0  0  0  0  3  0  0  0  0  0  0
  185.4530  178.2550  143.2760 C   0  0  0  0  0  0  0  0  0  0  0  0
  185.0320  178.3560  145.6680 C   0  0  0  0  0  3  0  0  0  0  0  0
  185.9160  178.0890  144.6080 C   0  0  0  0  0  0  0  0  0  0  0  0
  189.4530  176.6830  144.2380 C   0  0  0  0  0  0  0  0  0  0  0  0
  189.9170  176.8830  145.5390 C   0  0  0  0  0  0  0  0  0  0  0  0
  189.8660  177.5010  147.6400 C   0  0  0  0  0  0  0  0  0  0  0  0
  187.3010  177.6510  144.9320 C   0  0  0  0  0  0  0  0  0  0  0  0
  191.1080  176.9630  147.3290 C   0  0  0  0  0  3  0  0  0  0  0  0
  191.1360  176.5810  146.0270 N   0  0  0  0  0  0  0  0  0  0  0  0
  187.8110  177.8450  146.2360 C   0  0  0  0  0  3  0  0  0  0  0  0
  190.3130  176.0760  143.1850 C   0  0  0  0  0  1  0  0  0  0  0  0
  189.4750  177.9890  148.8430 F   0  0  0  0  0  0  0  0  0  0  0  0
  188.1370  177.0770  143.9420 C   0  0  0  0  0  3  0  0  0  0  0  0
  189.1190  177.4440  146.4960 C   0  0  1  0  0  3  0  0  0  0  0  0
  186.2960  177.9330  142.1630 N   0  0  0  0  0  2  0  0  0  0  0  0
  188.5800  177.9420  136.8840 C   0  0  0  0  0  2  0  0  0  0  0  0
  188.5430  178.5990  139.5750 C   0  0  2  0  0  3  0  0  0  0  0  0
  186.1900  178.6500  139.8420 C   0  0  0  0  0  2  0  0  0  0  0  0
  187.1950  178.0970  137.5560 C   0  0  0  0  0  2  0  0  0  0  0  0
  186.8060  178.9130  141.2150 C   0  0  2  0  0  3  0  0  0  0  0  0
  189.6210  177.1860  137.7470 C   0  0  1  0  0  3  0  0  0  0  0  0
  187.2840  177.9590  139.0720 C   0  0  1  0  0  3  0  0  0  0  0  0
  189.7440  177.7410  139.1860 C   0  0  0  0  0  2  0  0  0  0  0  0
  188.3190  178.7360  141.0600 C   0  0  0  0  0  2  0  0  0  0  0  0
  189.3140  175.6970  137.8000 C   0  0  0  0  0  2  0  0  0  0  0  0
  190.2580  174.9270  136.8970 C   0  0  0  0  0  2  0  0  0  0  0  0
  191.1660  174.1360  137.7100 N   0  0  0  0  0  2  0  0  0  0  0  0
  193.1910  175.8940  137.7990 S   0  0  0  0  0  1  0  0  0  0  0  0
  192.5010  174.3350  137.1740 C   0  0  0  0  0  2  0  0  0  0  0  0
  1  2  1  0  0  0  0
  2  5  2  0  0  0  0
  3  4  1  0  0  0  0
  3  1  2  0  0  0  0
  4  6  2  0  0  0  0
  6 10  1  0  0  0  0
  6  5  1  0  0  0  0
  7  8  1  0  0  0  0
  8 12  2  0  0  0  0
  8 17  1  0  0  0  0
  9 15  1  0  0  0  0
 10 13  2  0  0  0  0
 11  9  2  0  0  0  0
 12 11  1  0  0  0  0
 14  7  1  0  0  0  0
 16  7  2  0  0  0  0
 16 10  1  0  0  0  0
 17 13  1  6  0  0  0
 17  9  1  0  0  0  0
 18  4  1  0  0  0  0
 19 22  1  0  0  0  0
 19 24  1  0  0  0  0
 20 26  1  1  0  0  0
 20 27  1  0  0  0  0
 21 23  1  0  0  0  0
 23 18  1  1  0  0  0
 24 28  1  1  0  0  0
 24 26  1  0  0  0  0
 25 22  1  6  0  0  0
 25 20  1  0  0  0  0
 25 21  1  0  0  0  0
 27 23  1  0  0  0  0
 29 30  1  0  0  0  0
 29 28  1  0  0  0  0
 32 30  1  0  0  0  0
 32 31  1  0  0  0  0
M  END
>  <MODEL>
2

>  <REMARK>
 VINA RESULT:      -9.8      2.133      2.795
  Name = 
  7 active torsions:
  status: ('A' for Active; 'I' for Inactive)
    1  A    between atoms: N_3  and  C_14
    2  A    between atoms: N_3  and  C_15
    3  A    between atoms: C_10  and  N_20
    4  A    between atoms: C_10  and  C_24
    5  A    between atoms: C_16  and  C_26
    6  A    between atoms: C_17  and  N_20
    7  A    between atoms: C_19  and  C_24
                            x       y       z     vdW  Elec       q    Type
                         _______ _______ _______ _____ _____    ______ ____

>  <TORSDO>
F 7

$$$$
=
 OpenBabel11052417023D

 32 36  0  0  1  0  0  0  0  0999 V2000
  184.0360  178.6230  142.7250 C   0  0  0  0  0  3  0  0  0  0  0  0
  183.9580  178.7530  144.1100 C   0  0  0  0  0  3  0  0  0  0  0  0
  185.2280  178.2120  142.1310 C   0  0  0  0  0  3  0  0  0  0  0  0
  186.3610  177.9310  142.9120 C   0  0  0  0  0  0  0  0  0  0  0  0
  185.0750  178.4780  144.9000 C   0  0  0  0  0  3  0  0  0  0  0  0
  186.2910  178.0730  144.3220 C   0  0  0  0  0  0  0  0  0  0  0  0
  188.4330  177.7280  147.4720 C   0  0  0  0  0  0  0  0  0  0  0  0
  189.6230  177.2880  146.8920 C   0  0  0  0  0  0  0  0  0  0  0  0
  191.0060  176.6790  145.3060 C   0  0  0  0  0  0  0  0  0  0  0  0
  187.4520  177.8190  145.2170 C   0  0  0  0  0  0  0  0  0  0  0  0
  191.6340  176.6040  146.5420 C   0  0  0  0  0  3  0  0  0  0  0  0
  190.7740  176.9820  147.5230 N   0  0  0  0  0  2  0  0  0  0  0  0
  188.6740  177.3630  144.6700 C   0  0  0  0  0  3  0  0  0  0  0  0
  188.3010  177.9170  148.9420 C   0  0  0  0  0  1  0  0  0  0  0  0
  191.5530  176.3760  144.1030 F   0  0  0  0  0  0  0  0  0  0  0  0
  187.3450  177.9880  146.6210 C   0  0  0  0  0  3  0  0  0  0  0  0
  189.7310  177.1140  145.5420 C   0  0  0  0  0  0  0  0  0  0  0  0
  187.5590  177.4590  142.2820 N   0  0  0  0  0  2  0  0  0  0  0  0
  189.8200  177.3990  136.9940 C   0  0  0  0  0  2  0  0  0  0  0  0
  189.9640  177.5800  139.7550 C   0  0  2  0  0  3  0  0  0  0  0  0
  187.8180  178.5180  140.1090 C   0  0  0  0  0  2  0  0  0  0  0  0
  188.5910  177.9820  137.7300 C   0  0  0  0  0  2  0  0  0  0  0  0
  188.4450  178.2930  141.4830 C   0  0  2  0  0  3  0  0  0  0  0  0
  190.4490  176.1660  137.6900 C   0  0  1  0  0  3  0  0  0  0  0  0
  188.5710  177.5810  139.2010 C   0  0  1  0  0  3  0  0  0  0  0  0
  190.7370  176.3900  139.1930 C   0  0  0  0  0  2  0  0  0  0  0  0
  189.7680  177.5570  141.2500 C   0  0  0  0  0  2  0  0  0  0  0  0
  189.5740  174.9330  137.5180 C   0  0  0  0  0  2  0  0  0  0  0  0
  190.3570  173.8130  136.8590 C   0  0  0  0  0  2  0  0  0  0  0  0
  191.5720  174.3530  136.2750 N   0  0  0  0  0  2  0  0  0  0  0  0
  193.9160  174.1680  137.5660 S   0  0  0  0  0  1  0  0  0  0  0  0
  192.6320  173.3970  136.5370 C   0  0  0  0  0  2  0  0  0  0  0  0
  1  2  1  0  0  0  0
  2  5  2  0  0  0  0
  3  1  2  0  0  0  0
  3  4  1  0  0  0  0
  4  6  2  0  0  0  0
  6  5  1  0  0  0  0
  6 10  1  0  0  0  0
  7 14  1  0  0  0  0
  8  7  1  0  0  0  0
  8 12  1  0  0  0  0
  9 17  1  0  0  0  0
  9 11  2  0  0  0  0
 10 16  1  0  0  0  0
 11 12  1  0  0  0  0
 13 10  2  0  0  0  0
 13 17  1  0  0  0  0
 15  9  1  0  0  0  0
 16  7  2  0  0  0  0
 17  8  2  0  0  0  0
 18  4  1  0  0  0  0
 19 24  1  0  0  0  0
 19 22  1  0  0  0  0
 20 26  1  6  0  0  0
 20 27  1  0  0  0  0
 21 23  1  0  0  0  0
 23 18  1  1  0  0  0
 24 28  1  1  0  0  0
 24 26  1  0  0  0  0
 25 22  1  6  0  0  0
 25 20  1  0  0  0  0
 25 21  1  0  0  0  0
 27 23  1  0  0  0  0
 29 28  1  0  0  0  0
 30 32  1  0  0  0  0
 30 29  1  0  0  0  0
 32 31  1  0  0  0  0
M  END
>  <MODEL>
3

>  <REMARK>
 VINA RESULT:      -9.8      1.726      1.898
  Name = 
  7 active torsions:
  status: ('A' for Active; 'I' for Inactive)
    1  A    between atoms: N_3  and  C_14
    2  A    between atoms: N_3  and  C_15
    3  A    between atoms: C_10  and  N_20
    4  A    between atoms: C_10  and  C_24
    5  A    between atoms: C_16  and  C_26
    6  A    between atoms: C_17  and  N_20
    7  A    between atoms: C_19  and  C_24
                            x       y       z     vdW  Elec       q    Type
                         _______ _______ _______ _____ _____    ______ ____

>  <TORSDO>
F 7

$$$$
=
 OpenBabel11052417023D

 32 36  0  0  1  0  0  0  0  0999 V2000
  183.5430  178.8790  144.5720 C   0  0  0  0  0  3  0  0  0  0  0  0
  184.1260  178.6640  145.8200 C   0  0  0  0  0  3  0  0  0  0  0  0
  184.2730  178.6290  143.4110 C   0  0  0  0  0  3  0  0  0  0  0  0
  185.5970  178.1660  143.4800 C   0  0  0  0  0  0  0  0  0  0  0  0
  185.4410  178.2050  145.9050 C   0  0  0  0  0  3  0  0  0  0  0  0
  186.1990  177.9560  144.7480 C   0  0  0  0  0  0  0  0  0  0  0  0
  189.6440  176.4930  143.9610 C   0  0  0  0  0  0  0  0  0  0  0  0
  190.2580  176.6730  145.2000 C   0  0  0  0  0  0  0  0  0  0  0  0
  190.4630  177.2740  147.2970 C   0  0  0  0  0  0  0  0  0  0  0  0
  187.6040  177.4920  144.9060 C   0  0  0  0  0  0  0  0  0  0  0  0
  191.6510  176.7180  146.8410 C   0  0  0  0  0  3  0  0  0  0  0  0
  191.5200  176.3460  145.5420 N   0  0  0  0  0  0  0  0  0  0  0  0
  188.2660  177.6660  146.1430 C   0  0  0  0  0  3  0  0  0  0  0  0
  190.3650  175.8810  142.8120 C   0  0  0  0  0  1  0  0  0  0  0  0
  190.2220  177.7570  148.5410 F   0  0  0  0  0  0  0  0  0  0  0  0
  188.3100  176.9120  143.8220 C   0  0  0  0  0  3  0  0  0  0  0  0
  189.5870  177.2400  146.2470 C   0  0  1  0  0  3  0  0  0  0  0  0
  186.3080  177.8650  142.2730 N   0  0  0  0  0  2  0  0  0  0  0  0
  188.6440  177.9970  137.0180 C   0  0  0  0  0  2  0  0  0  0  0  0
  188.5520  178.6370  139.7120 C   0  0  2  0  0  3  0  0  0  0  0  0
  186.1960  178.5900  139.9540 C   0  0  0  0  0  2  0  0  0  0  0  0
  187.2470  178.0920  137.6760 C   0  0  0  0  0  2  0  0  0  0  0  0
  186.7860  178.8710  141.3350 C   0  0  2  0  0  3  0  0  0  0  0  0
  189.7070  177.2800  137.8880 C   0  0  1  0  0  3  0  0  0  0  0  0
  187.3260  177.9490  139.1920 C   0  0  1  0  0  3  0  0  0  0  0  0
  189.7910  177.8320  139.3310 C   0  0  0  0  0  2  0  0  0  0  0  0
  188.3080  178.7570  141.1950 C   0  0  0  0  0  2  0  0  0  0  0  0
  189.4600  175.7790  137.9300 C   0  0  0  0  0  2  0  0  0  0  0  0
  190.7440  175.0220  137.6480 C   0  0  0  0  0  2  0  0  0  0  0  0
  190.4240  173.6690  137.2300 N   0  0  0  0  0  2  0  0  0  0  0  0
  188.7580  172.4530  135.5140 S   0  0  0  0  0  1  0  0  0  0  0  0
  189.0240  173.6620  136.8440 C   0  0  0  0  0  2  0  0  0  0  0  0
  1  2  1  0  0  0  0
  2  5  2  0  0  0  0
  3  4  1  0  0  0  0
  3  1  2  0  0  0  0
  4  6  2  0  0  0  0
  6 10  1  0  0  0  0
  6  5  1  0  0  0  0
  7  8  1  0  0  0  0
  8 12  2  0  0  0  0
  8 17  1  0  0  0  0
  9 15  1  0  0  0  0
 10 13  2  0  0  0  0
 11  9  2  0  0  0  0
 12 11  1  0  0  0  0
 14  7  1  0  0  0  0
 16  7  2  0  0  0  0
 16 10  1  0  0  0  0
 17 13  1  6  0  0  0
 17  9  1  0  0  0  0
 18  4  1  0  0  0  0
 19 22  1  0  0  0  0
 19 24  1  0  0  0  0
 20 26  1  1  0  0  0
 20 27  1  0  0  0  0
 21 23  1  0  0  0  0
 23 18  1  1  0  0  0
 24 28  1  1  0  0  0
 24 26  1  0  0  0  0
 25 22  1  6  0  0  0
 25 20  1  0  0  0  0
 25 21  1  0  0  0  0
 27 23  1  0  0  0  0
 29 28  1  0  0  0  0
 30 29  1  0  0  0  0
 31 32  1  0  0  0  0
 32 30  1  0  0  0  0
M  END
>  <MODEL>
4

>  <REMARK>
 VINA RESULT:      -9.6      1.685      2.376
  Name = 
  7 active torsions:
  status: ('A' for Active; 'I' for Inactive)
    1  A    between atoms: N_3  and  C_14
    2  A    between atoms: N_3  and  C_15
    3  A    between atoms: C_10  and  N_20
    4  A    between atoms: C_10  and  C_24
    5  A    between atoms: C_16  and  C_26
    6  A    between atoms: C_17  and  N_20
    7  A    between atoms: C_19  and  C_24
                            x       y       z     vdW  Elec       q    Type
                         _______ _______ _______ _____ _____    ______ ____

>  <TORSDO>
F 7

$$$$
=
 OpenBabel11052417023D

 32 36  0  0  1  0  0  0  0  0999 V2000
  191.6810  176.3770  144.9220 C   0  0  0  0  0  3  0  0  0  0  0  0
  190.9240  176.7480  146.0320 C   0  0  0  0  0  3  0  0  0  0  0  0
  191.1130  176.4110  143.6490 C   0  0  0  0  0  3  0  0  0  0  0  0
  189.7790  176.8110  143.4680 C   0  0  0  0  0  0  0  0  0  0  0  0
  189.5970  177.1470  145.8680 C   0  0  0  0  0  3  0  0  0  0  0  0
  189.0000  177.1790  144.5960 C   0  0  0  0  0  0  0  0  0  0  0  0
  185.4640  178.2780  145.5550 C   0  0  0  0  0  0  0  0  0  0  0  0
  184.9120  178.4120  144.2810 C   0  0  0  0  0  0  0  0  0  0  0  0
  184.8250  178.3820  142.0920 C   0  0  0  0  0  0  0  0  0  0  0  0
  187.5730  177.5900  144.4920 C   0  0  0  0  0  0  0  0  0  0  0  0
  183.6000  178.7750  142.6150 C   0  0  0  0  0  3  0  0  0  0  0  0
  183.6570  178.7920  143.9710 N   0  0  0  0  0  0  0  0  0  0  0  0
  186.9790  177.7460  143.2180 C   0  0  0  0  0  3  0  0  0  0  0  0
  184.6740  178.5590  146.7850 C   0  0  0  0  0  1  0  0  0  0  0  0
  185.1390  178.2530  140.7800 F   0  0  0  0  0  0  0  0  0  0  0  0
  186.8050  177.8680  145.6500 C   0  0  0  0  0  2  0  0  0  0  0  0
  185.6490  178.1550  143.1600 C   0  0  0  0  0  0  0  0  0  0  0  0
  189.2330  176.8880  142.1450 N   0  0  0  0  0  2  0  0  0  0  0  0
  188.4470  177.5760  136.4890 C   0  0  0  0  0  2  0  0  0  0  0  0
  189.9820  177.0790  138.7400 C   0  0  2  0  0  3  0  0  0  0  0  0
  188.6910  178.3420  140.2730 C   0  0  0  0  0  2  0  0  0  0  0  0
  187.9840  178.2190  137.8170 C   0  0  0  0  0  2  0  0  0  0  0  0
  189.8130  177.6780  141.0680 C   0  0  2  0  0  3  0  0  0  0  0  0
  188.9310  176.1110  136.6300 C   0  0  1  0  0  3  0  0  0  0  0  0
  188.5730  177.5030  139.0270 C   0  0  1  0  0  3  0  0  0  0  0  0
  189.9760  175.9160  137.7530 C   0  0  0  0  0  2  0  0  0  0  0  0
  190.5540  176.7540  140.0970 C   0  0  0  0  0  2  0  0  0  0  0  0
  187.7600  175.1650  136.8540 C   0  0  0  0  0  2  0  0  0  0  0  0
  188.2160  173.7220  136.7510 C   0  0  0  0  0  2  0  0  0  0  0  0
  187.1160  172.8420  137.1070 N   0  0  0  0  0  2  0  0  0  0  0  0
  184.4450  172.6180  137.2190 S   0  0  0  0  0  1  0  0  0  0  0  0
  185.9270  173.6680  137.2150 C   0  0  0  0  0  2  0  0  0  0  0  0
  1  2  1  0  0  0  0
  3  1  2  0  0  0  0
  4  3  1  0  0  0  0
  4  6  2  0  0  0  0
  5  2  2  0  0  0  0
  6  5  1  0  0  0  0
  7 16  1  0  0  0  0
  7 14  1  0  0  0  0
  8  7  2  0  0  0  0
  9 11  1  0  0  0  0
  9 17  2  0  0  0  0
 10  6  1  0  0  0  0
 10 16  1  0  0  0  0
 11 12  2  0  0  0  0
 12  8  1  0  0  0  0
 13 10  2  0  0  0  0
 15  9  1  0  0  0  0
 17 13  1  0  0  0  0
 17  8  1  0  0  0  0
 18  4  1  0  0  0  0
 19 24  1  0  0  0  0
 19 22  1  0  0  0  0
 20 26  1  6  0  0  0
 20 25  1  0  0  0  0
 20 27  1  0  0  0  0
 21 23  1  0  0  0  0
 23 18  1  1  0  0  0
 24 28  1  1  0  0  0
 24 26  1  0  0  0  0
 25 22  1  6  0  0  0
 25 21  1  0  0  0  0
 27 23  1  0  0  0  0
 29 28  1  0  0  0  0
 29 30  1  0  0  0  0
 30 32  1  0  0  0  0
 32 31  1  0  0  0  0
M  END
>  <MODEL>
5

>  <REMARK>
 VINA RESULT:      -9.3      2.058      4.311
  Name = 
  7 active torsions:
  status: ('A' for Active; 'I' for Inactive)
    1  A    between atoms: N_3  and  C_14
    2  A    between atoms: N_3  and  C_15
    3  A    between atoms: C_10  and  N_20
    4  A    between atoms: C_10  and  C_24
    5  A    between atoms: C_16  and  C_26
    6  A    between atoms: C_17  and  N_20
    7  A    between atoms: C_19  and  C_24
                            x       y       z     vdW  Elec       q    Type
                         _______ _______ _______ _____ _____    ______ ____

>  <TORSDO>
F 7

$$$$
=
 OpenBabel11052417023D

 32 36  0  0  1  0  0  0  0  0999 V2000
  185.4620  178.5840  147.0220 C   0  0  0  0  0  3  0  0  0  0  0  0
  186.7890  178.2890  147.3280 C   0  0  0  0  0  3  0  0  0  0  0  0
  185.0140  178.4910  145.7050 C   0  0  0  0  0  3  0  0  0  0  0  0
  185.8870  178.1080  144.6740 C   0  0  0  0  0  0  0  0  0  0  0  0
  187.6690  177.9070  146.3140 C   0  0  0  0  0  3  0  0  0  0  0  0
  187.2420  177.8170  144.9780 C   0  0  0  0  0  0  0  0  0  0  0  0
  190.3640  176.3660  143.3110 C   0  0  0  0  0  0  0  0  0  0  0  0
  190.0680  176.6560  141.9790 C   0  0  0  0  0  0  0  0  0  0  0  0
  188.9280  177.4210  140.2720 C   0  0  0  0  0  0  0  0  0  0  0  0
  188.2360  177.4280  143.9400 C   0  0  0  0  0  0  0  0  0  0  0  0
  190.1130  176.8430  139.8350 C   0  0  0  0  0  3  0  0  0  0  0  0
  190.8170  176.3700  140.8950 N   0  0  0  0  0  0  0  0  0  0  0  0
  187.9690  177.6950  142.5780 C   0  0  0  0  0  3  0  0  0  0  0  0
  191.6190  175.6660  143.7000 C   0  0  0  0  0  1  0  0  0  0  0  0
  187.9750  177.9940  139.4960 F   0  0  0  0  0  0  0  0  0  0  0  0
  189.4330  176.7550  144.2900 C   0  0  0  0  0  2  0  0  0  0  0  0
  188.9120  177.2960  141.6340 C   0  0  0  0  0  0  0  0  0  0  0  0
  185.3900  177.9680  143.3370 N   0  0  0  0  0  2  0  0  0  0  0  0
  182.2040  178.4340  138.5710 C   0  0  0  0  0  2  0  0  0  0  0  0
  184.2970  179.1490  140.2390 C   0  0  2  0  0  3  0  0  0  0  0  0
  183.2730  178.5420  142.2870 C   0  0  0  0  0  2  0  0  0  0  0  0
  182.0050  178.2150  140.0890 C   0  0  0  0  0  2  0  0  0  0  0  0
  184.6880  179.0170  142.6130 C   0  0  2  0  0  3  0  0  0  0  0  0
  183.6090  178.0350  138.0520 C   0  0  1  0  0  3  0  0  0  0  0  0
  183.3370  178.1610  140.8310 C   0  0  1  0  0  3  0  0  0  0  0  0
  184.7640  178.6530  138.8740 C   0  0  0  0  0  2  0  0  0  0  0  0
  185.3870  179.2710  141.2740 C   0  0  0  0  0  2  0  0  0  0  0  0
  183.7680  176.5230  138.0060 C   0  0  0  0  0  2  0  0  0  0  0  0
  184.2600  176.0810  136.6410 C   0  0  0  0  0  2  0  0  0  0  0  0
  185.7050  175.9410  136.6710 N   0  0  0  0  0  2  0  0  0  0  0  0
  187.2990  178.0130  136.0720 S   0  0  0  0  0  1  0  0  0  0  0  0
  186.2270  176.6550  135.5200 C   0  0  0  0  0  2  0  0  0  0  0  0
  1  2  1  0  0  0  0
  3  1  2  0  0  0  0
  4  6  2  0  0  0  0
  4  3  1  0  0  0  0
  5  2  2  0  0  0  0
  6  5  1  0  0  0  0
  7 14  1  0  0  0  0
  7 16  1  0  0  0  0
  8  7  2  0  0  0  0
  9 17  2  0  0  0  0
 10 16  1  0  0  0  0
 10  6  1  0  0  0  0
 11  9  1  0  0  0  0
 11 12  2  0  0  0  0
 12  8  1  0  0  0  0
 13 10  2  0  0  0  0
 15  9  1  0  0  0  0
 17  8  1  0  0  0  0
 17 13  1  0  0  0  0
 18  4  1  0  0  0  0
 19 22  1  0  0  0  0
 20 26  1  6  0  0  0
 20 25  1  0  0  0  0
 20 27  1  0  0  0  0
 21 23  1  0  0  0  0
 23 18  1  6  0  0  0
 24 28  1  1  0  0  0
 24 19  1  0  0  0  0
 24 26  1  0  0  0  0
 25 22  1  6  0  0  0
 25 21  1  0  0  0  0
 27 23  1  0  0  0  0
 29 30  1  0  0  0  0
 29 28  1  0  0  0  0
 32 31  1  0  0  0  0
 32 30  1  0  0  0  0
M  END
>  <MODEL>
6

>  <REMARK>
 VINA RESULT:      -9.3      2.619      4.954
  Name = 
  7 active torsions:
  status: ('A' for Active; 'I' for Inactive)
    1  A    between atoms: N_3  and  C_14
    2  A    between atoms: N_3  and  C_15
    3  A    between atoms: C_10  and  N_20
    4  A    between atoms: C_10  and  C_24
    5  A    between atoms: C_16  and  C_26
    6  A    between atoms: C_17  and  N_20
    7  A    between atoms: C_19  and  C_24
                            x       y       z     vdW  Elec       q    Type
                         _______ _______ _______ _____ _____    ______ ____

>  <TORSDO>
F 7

$$$$
=
 OpenBabel11052417023D

 32 36  0  0  1  0  0  0  0  0999 V2000
  188.7520  177.3750  146.6220 C   0  0  0  0  0  3  0  0  0  0  0  0
  187.5250  177.8720  147.0560 C   0  0  0  0  0  3  0  0  0  0  0  0
  188.9670  177.1410  145.2640 C   0  0  0  0  0  3  0  0  0  0  0  0
  187.9570  177.3950  144.3220 C   0  0  0  0  0  0  0  0  0  0  0  0
  186.5110  178.1290  146.1320 C   0  0  0  0  0  3  0  0  0  0  0  0
  186.7010  177.8910  144.7600 C   0  0  0  0  0  0  0  0  0  0  0  0
  183.1870  178.6280  143.4410 C   0  0  0  0  0  0  0  0  0  0  0  0
  183.4690  178.7230  142.0780 C   0  0  0  0  0  0  0  0  0  0  0  0
  184.6730  178.7110  140.2480 C   0  0  0  0  0  0  0  0  0  0  0  0
  185.5720  178.1620  143.8300 C   0  0  0  0  0  0  0  0  0  0  0  0
  183.3440  178.9760  139.9450 C   0  0  0  0  0  3  0  0  0  0  0  0
  182.6010  178.9820  141.0810 N   0  0  0  0  0  0  0  0  0  0  0  0
  185.8170  178.2750  142.4420 C   0  0  0  0  0  3  0  0  0  0  0  0
  181.8090  178.8160  143.9710 C   0  0  0  0  0  1  0  0  0  0  0  0
  185.7020  178.6290  139.3680 F   0  0  0  0  0  0  0  0  0  0  0  0
  184.2530  178.3500  144.3150 C   0  0  0  0  0  2  0  0  0  0  0  0
  184.7390  178.5520  141.6050 C   0  0  0  0  0  0  0  0  0  0  0  0
  188.2200  177.1980  142.9270 N   0  0  0  0  0  2  0  0  0  0  0  0
  189.8050  177.8970  137.4430 C   0  0  0  0  0  2  0  0  0  0  0  0
  190.2520  177.2090  140.0890 C   0  0  2  0  0  3  0  0  0  0  0  0
  188.6720  178.6840  141.0570 C   0  0  0  0  0  2  0  0  0  0  0  0
  188.9650  178.6290  138.5160 C   0  0  0  0  0  2  0  0  0  0  0  0
  189.2840  177.8680  142.1940 C   0  0  2  0  0  3  0  0  0  0  0  0
  189.9710  176.3770  137.6950 C   0  0  1  0  0  3  0  0  0  0  0  0
  188.9230  177.8510  139.8270 C   0  0  1  0  0  3  0  0  0  0  0  0
  190.4550  176.0430  139.1260 C   0  0  0  0  0  2  0  0  0  0  0  0
  190.1960  176.8230  141.5460 C   0  0  0  0  0  2  0  0  0  0  0  0
  188.6770  175.6290  137.4070 C   0  0  0  0  0  2  0  0  0  0  0  0
  188.2180  175.8910  135.9860 C   0  0  0  0  0  2  0  0  0  0  0  0
  186.7720  175.7740  135.9170 N   0  0  0  0  0  2  0  0  0  0  0  0
  184.4210  176.4120  137.0400 S   0  0  0  0  0  1  0  0  0  0  0  0
  186.2350  176.4040  137.1100 C   0  0  0  0  0  2  0  0  0  0  0  0
  1  2  1  0  0  0  0
  3  1  2  0  0  0  0
  4  6  2  0  0  0  0
  4  3  1  0  0  0  0
  5  2  2  0  0  0  0
  6  5  1  0  0  0  0
  7 14  1  0  0  0  0
  7 16  1  0  0  0  0
  8  7  2  0  0  0  0
  9 17  2  0  0  0  0
 10 16  1  0  0  0  0
 10  6  1  0  0  0  0
 11  9  1  0  0  0  0
 11 12  2  0  0  0  0
 12  8  1  0  0  0  0
 13 10  2  0  0  0  0
 15  9  1  0  0  0  0
 17  8  1  0  0  0  0
 17 13  1  0  0  0  0
 18  4  1  0  0  0  0
 19 24  1  0  0  0  0
 19 22  1  0  0  0  0
 20 26  1  6  0  0  0
 20 27  1  0  0  0  0
 21 23  1  0  0  0  0
 23 18  1  6  0  0  0
 24 28  1  1  0  0  0
 24 26  1  0  0  0  0
 25 22  1  6  0  0  0
 25 20  1  0  0  0  0
 25 21  1  0  0  0  0
 27 23  1  0  0  0  0
 29 28  1  0  0  0  0
 30 29  1  0  0  0  0
 30 32  1  0  0  0  0
 31 32  1  0  0  0  0
M  END
>  <MODEL>
7

>  <REMARK>
 VINA RESULT:      -9.2      2.112      4.807
  Name = 
  7 active torsions:
  status: ('A' for Active; 'I' for Inactive)
    1  A    between atoms: N_3  and  C_14
    2  A    between atoms: N_3  and  C_15
    3  A    between atoms: C_10  and  N_20
    4  A    between atoms: C_10  and  C_24
    5  A    between atoms: C_16  and  C_26
    6  A    between atoms: C_17  and  N_20
    7  A    between atoms: C_19  and  C_24
                            x       y       z     vdW  Elec       q    Type
                         _______ _______ _______ _____ _____    ______ ____

>  <TORSDO>
F 7

$$$$
=
 OpenBabel11052417023D

 32 36  0  0  1  0  0  0  0  0999 V2000
  191.6780  176.2650  144.6750 C   0  0  0  0  0  3  0  0  0  0  0  0
  190.9160  176.7530  145.7350 C   0  0  0  0  0  3  0  0  0  0  0  0
  191.1490  176.2530  143.3850 C   0  0  0  0  0  3  0  0  0  0  0  0
  189.8500  176.7230  143.1370 C   0  0  0  0  0  0  0  0  0  0  0  0
  189.6220  177.2230  145.5040 C   0  0  0  0  0  3  0  0  0  0  0  0
  189.0640  177.2110  144.2140 C   0  0  0  0  0  0  0  0  0  0  0  0
  185.8210  178.4060  142.5760 C   0  0  0  0  0  0  0  0  0  0  0  0
  185.0370  178.5750  143.7180 C   0  0  0  0  0  0  0  0  0  0  0  0
  184.5240  178.5760  145.8480 C   0  0  0  0  0  0  0  0  0  0  0  0
  187.6710  177.7030  144.0380 C   0  0  0  0  0  0  0  0  0  0  0  0
  183.4330  178.9870  145.0930 C   0  0  0  0  0  3  0  0  0  0  0  0
  183.7540  178.9850  143.7740 N   0  0  0  0  0  0  0  0  0  0  0  0
  186.8410  177.8780  145.1690 C   0  0  0  0  0  3  0  0  0  0  0  0
  185.2890  178.6780  141.2130 C   0  0  0  0  0  1  0  0  0  0  0  0
  184.5730  178.4540  147.1970 F   0  0  0  0  0  0  0  0  0  0  0  0
  187.1430  177.9620  142.7480 C   0  0  0  0  0  3  0  0  0  0  0  0
  185.5350  178.3180  144.9630 C   0  0  1  0  0  3  0  0  0  0  0  0
  189.3480  176.7510  141.7940 N   0  0  0  0  0  2  0  0  0  0  0  0
  188.4640  177.5600  136.1690 C   0  0  0  0  0  2  0  0  0  0  0  0
  190.0020  176.8700  138.3670 C   0  0  2  0  0  3  0  0  0  0  0  0
  188.9230  178.2700  139.9440 C   0  0  0  0  0  2  0  0  0  0  0  0
  188.1260  178.2470  137.5130 C   0  0  0  0  0  2  0  0  0  0  0  0
  189.9830  177.4710  140.7000 C   0  0  2  0  0  3  0  0  0  0  0  0
  188.7730  176.0470  136.2910 C   0  0  1  0  0  3  0  0  0  0  0  0
  188.6640  177.4580  138.7010 C   0  0  1  0  0  3  0  0  0  0  0  0
  189.8240  175.7220  137.3780 C   0  0  0  0  0  2  0  0  0  0  0  0
  190.5750  176.4700  139.7040 C   0  0  0  0  0  2  0  0  0  0  0  0
  187.5050  175.2480  136.5520 C   0  0  0  0  0  2  0  0  0  0  0  0
  187.8390  173.7900  136.8030 C   0  0  0  0  0  2  0  0  0  0  0  0
  186.6930  172.9660  136.4590 N   0  0  0  0  0  2  0  0  0  0  0  0
  184.1800  172.2970  137.1220 S   0  0  0  0  0  1  0  0  0  0  0  0
  185.7860  173.0030  137.5930 C   0  0  0  0  0  2  0  0  0  0  0  0
  1  2  1  0  0  0  0
  3  1  2  0  0  0  0
  4  3  1  0  0  0  0
  4  6  2  0  0  0  0
  5  2  2  0  0  0  0
  6  5  1  0  0  0  0
  7 16  2  0  0  0  0
  7  8  1  0  0  0  0
  8 12  2  0  0  0  0
  8 17  1  0  0  0  0
  9 15  1  0  0  0  0
 10  6  1  0  0  0  0
 10 13  2  0  0  0  0
 11  9  2  0  0  0  0
 12 11  1  0  0  0  0
 14  7  1  0  0  0  0
 16 10  1  0  0  0  0
 17 13  1  6  0  0  0
 17  9  1  0  0  0  0
 18  4  1  0  0  0  0
 19 24  1  0  0  0  0
 19 22  1  0  0  0  0
 20 26  1  6  0  0  0
 20 25  1  0  0  0  0
 20 27  1  0  0  0  0
 21 23  1  0  0  0  0
 23 18  1  1  0  0  0
 24 28  1  1  0  0  0
 24 26  1  0  0  0  0
 25 22  1  6  0  0  0
 25 21  1  0  0  0  0
 27 23  1  0  0  0  0
 28 29  1  0  0  0  0
 30 29  1  0  0  0  0
 30 32  1  0  0  0  0
 31 32  1  0  0  0  0
M  END
>  <MODEL>
8

>  <REMARK>
 VINA RESULT:      -9.1      2.200      4.611
  Name = 
  7 active torsions:
  status: ('A' for Active; 'I' for Inactive)
    1  A    between atoms: N_3  and  C_14
    2  A    between atoms: N_3  and  C_15
    3  A    between atoms: C_10  and  N_20
    4  A    between atoms: C_10  and  C_24
    5  A    between atoms: C_16  and  C_26
    6  A    between atoms: C_17  and  N_20
    7  A    between atoms: C_19  and  C_24
                            x       y       z     vdW  Elec       q    Type
                         _______ _______ _______ _____ _____    ______ ____

>  <TORSDO>
F 7

$$$$
=
 OpenBabel11052417023D

 32 36  0  0  1  0  0  0  0  0999 V2000
  188.4550  177.4160  146.4920 C   0  0  0  0  0  3  0  0  0  0  0  0
  187.2170  177.8760  146.9360 C   0  0  0  0  0  3  0  0  0  0  0  0
  188.6810  177.2340  145.1280 C   0  0  0  0  0  3  0  0  0  0  0  0
  187.6720  177.5050  144.1900 C   0  0  0  0  0  0  0  0  0  0  0  0
  186.2040  178.1490  146.0160 C   0  0  0  0  0  3  0  0  0  0  0  0
  186.4050  177.9640  144.6380 C   0  0  0  0  0  0  0  0  0  0  0  0
  184.4120  178.5610  141.4290 C   0  0  0  0  0  0  0  0  0  0  0  0
  183.1410  178.7330  141.9770 C   0  0  0  0  0  0  0  0  0  0  0  0
  181.6000  178.8690  143.5280 C   0  0  0  0  0  0  0  0  0  0  0  0
  185.2770  178.2490  143.7110 C   0  0  0  0  0  0  0  0  0  0  0  0
  181.0340  179.0590  142.2740 C   0  0  0  0  0  3  0  0  0  0  0  0
  181.9920  178.9740  141.3150 N   0  0  0  0  0  0  0  0  0  0  0  0
  183.9710  178.4200  144.2260 C   0  0  0  0  0  3  0  0  0  0  0  0
  184.6480  178.6300  139.9600 C   0  0  0  0  0  1  0  0  0  0  0  0
  180.9490  178.8830  144.7180 F   0  0  0  0  0  0  0  0  0  0  0  0
  185.4790  178.3130  142.3090 C   0  0  0  0  0  2  0  0  0  0  0  0
  182.9370  178.6630  143.3260 C   0  0  0  0  0  0  0  0  0  0  0  0
  187.9450  177.3620  142.7900 N   0  0  0  0  0  2  0  0  0  0  0  0
  189.8010  177.9190  137.3750 C   0  0  0  0  0  2  0  0  0  0  0  0
  190.1480  177.4550  140.0840 C   0  0  2  0  0  3  0  0  0  0  0  0
  188.3390  178.7770  140.8520 C   0  0  0  0  0  2  0  0  0  0  0  0
  188.8080  178.6040  138.3430 C   0  0  0  0  0  2  0  0  0  0  0  0
  188.9670  178.1150  142.0770 C   0  0  2  0  0  3  0  0  0  0  0  0
  190.1320  176.4510  137.7410 C   0  0  1  0  0  3  0  0  0  0  0  0
  188.7720  177.9080  139.7000 C   0  0  1  0  0  3  0  0  0  0  0  0
  190.5560  176.2670  139.2170 C   0  0  0  0  0  2  0  0  0  0  0  0
  190.0410  177.1550  141.5580 C   0  0  0  0  0  2  0  0  0  0  0  0
  188.9610  175.5300  137.4280 C   0  0  0  0  0  2  0  0  0  0  0  0
  188.5670  175.6480  135.9690 C   0  0  0  0  0  2  0  0  0  0  0  0
  187.1360  175.8740  135.8720 N   0  0  0  0  0  2  0  0  0  0  0  0
  184.9320  174.8550  137.0140 S   0  0  0  0  0  1  0  0  0  0  0  0
  186.5740  175.6130  137.1850 C   0  0  0  0  0  2  0  0  0  0  0  0
  1  2  1  0  0  0  0
  3  1  2  0  0  0  0
  4  6  2  0  0  0  0
  4  3  1  0  0  0  0
  5  2  2  0  0  0  0
  6  5  1  0  0  0  0
  7  8  2  0  0  0  0
  7 16  1  0  0  0  0
  8 17  1  0  0  0  0
  9 15  1  0  0  0  0
 10 13  2  0  0  0  0
 10  6  1  0  0  0  0
 11  9  1  0  0  0  0
 12  8  1  0  0  0  0
 12 11  2  0  0  0  0
 14  7  1  0  0  0  0
 16 10  1  0  0  0  0
 17  9  2  0  0  0  0
 17 13  1  0  0  0  0
 18  4  1  0  0  0  0
 19 24  1  0  0  0  0
 19 22  1  0  0  0  0
 20 26  1  6  0  0  0
 20 27  1  0  0  0  0
 21 23  1  0  0  0  0
 23 18  1  6  0  0  0
 24 28  1  1  0  0  0
 24 26  1  0  0  0  0
 25 22  1  6  0  0  0
 25 20  1  0  0  0  0
 25 21  1  0  0  0  0
 27 23  1  0  0  0  0
 29 28  1  0  0  0  0
 30 29  1  0  0  0  0
 30 32  1  0  0  0  0
 31 32  1  0  0  0  0
M  END
>  <MODEL>
9

>  <REMARK>
 VINA RESULT:      -9.0      2.481      5.276
  Name = 
  7 active torsions:
  status: ('A' for Active; 'I' for Inactive)
    1  A    between atoms: N_3  and  C_14
    2  A    between atoms: N_3  and  C_15
    3  A    between atoms: C_10  and  N_20
    4  A    between atoms: C_10  and  C_24
    5  A    between atoms: C_16  and  C_26
    6  A    between atoms: C_17  and  N_20
    7  A    between atoms: C_19  and  C_24
                            x       y       z     vdW  Elec       q    Type
                         _______ _______ _______ _____ _____    ______ ____

>  <TORSDO>
F 7

$$$$
