=
 OpenBabel11052415543D

 34 36  0  0  1  0  0  0  0  0999 V2000
  180.6620  179.6230  139.3300 C   0  0  1  0  0  3  0  0  0  0  0  0
  180.8340  181.0700  136.8490 C   0  0  0  0  0  3  0  0  0  0  0  0
  182.1350  178.0110  138.1470 C   0  0  0  0  0  1  0  0  0  0  0  0
  181.0130  179.7510  136.7760 C   0  0  0  0  0  0  0  0  0  0  0  0
  180.8840  178.8650  138.0050 C   0  0  2  0  0  3  0  0  0  0  0  0
  180.4390  181.7110  138.0640 N   0  0  0  0  0  0  0  0  0  0  0  0
  179.8620  181.6360  140.3400 O   0  0  0  0  0  1  0  0  0  0  0  0
  179.8620  180.9100  139.1450 C   0  0  2  0  0  3  0  0  0  0  0  0
  180.3380  178.4830  134.7540 C   0  0  0  0  0  1  0  0  0  0  0  0
  181.2900  179.2140  135.5130 O   0  0  0  0  0  0  0  0  0  0  0  0
  180.3170  183.1640  138.0630 C   0  0  0  0  0  2  0  0  0  0  0  0
  181.1940  183.7790  136.9760 C   0  0  2  0  0  3  0  0  0  0  0  0
  182.2530  184.4790  137.5610 O   0  0  0  0  0  1  0  0  0  0  0  0
  180.3830  184.7110  136.0810 C   0  0  0  0  0  0  0  0  0  0  0  0
  181.1100  185.0210  134.9460 F   0  0  0  0  0  0  0  0  0  0  0  0
  180.1070  185.8810  136.7660 F   0  0  0  0  0  0  0  0  0  0  0  0
  179.1930  184.1100  135.7130 F   0  0  0  0  0  0  0  0  0  0  0  0
  179.9420  178.7280  140.3340 C   0  0  0  0  0  2  0  0  0  0  0  0
  180.7740  178.5070  141.5500 C   0  0  0  0  0  0  0  0  0  0  0  0
  180.2760  177.9040  142.5370 O   0  0  0  0  0  0  0  0  0  0  0  0
  182.1270  178.9820  141.5740 N   0  0  0  0  0  2  0  0  0  0  0  0
  183.5920  179.0310  145.0020 C   0  0  0  0  0  3  0  0  0  0  0  0
  184.3670  178.3170  142.4060 C   0  0  0  0  0  3  0  0  0  0  0  0
  187.0690  177.8910  145.6020 C   0  0  0  0  0  0  0  0  0  0  0  0
  185.7770  178.3890  145.8320 C   0  0  0  0  0  3  0  0  0  0  0  0
  184.8770  178.5330  144.7730 C   0  0  0  0  0  0  0  0  0  0  0  0
  186.5520  177.6770  143.2330 C   0  0  0  0  0  3  0  0  0  0  0  0
  185.2670  178.1730  143.4640 C   0  0  0  0  0  0  0  0  0  0  0  0
  187.4480  177.5370  144.2970 C   0  0  0  0  0  3  0  0  0  0  0  0
  183.0750  178.8160  142.6360 C   0  0  0  0  0  0  0  0  0  0  0  0
  182.6970  179.1700  143.9370 C   0  0  0  0  0  3  0  0  0  0  0  0
  187.9940  177.7410  146.6860 N   0  0  0  0  0  0  0  0  0  0  0  0
  189.3140  177.4440  146.4360 O   0  0  0  0  0  0  0  0  0  0  0  0
  187.6140  177.8770  147.8680 O   0  0  0  0  0  0  0  0  0  0  0  0
  1 18  1  1  0  0  0
  2  6  1  0  0  0  0
  4  2  2  0  0  0  0
  4  5  1  0  0  0  0
  5  3  1  1  0  0  0
  5  1  1  0  0  0  0
  6  8  1  0  0  0  0
  8  1  1  0  0  0  0
  8  7  1  1  0  0  0
  9 10  1  0  0  0  0
 10  4  1  0  0  0  0
 11  6  1  0  0  0  0
 12 13  1  1  0  0  0
 12 11  1  0  0  0  0
 14 16  1  0  0  0  0
 14 12  1  0  0  0  0
 15 14  1  0  0  0  0
 17 14  1  0  0  0  0
 18 19  1  0  0  0  0
 19 21  1  0  0  0  0
 19 20  2  0  0  0  0
 21 30  1  0  0  0  0
 23 30  2  0  0  0  0
 23 28  1  0  0  0  0
 24 25  1  0  0  0  0
 24 32  1  0  0  0  0
 26 22  1  0  0  0  0
 26 25  2  0  0  0  0
 27 28  2  0  0  0  0
 27 29  1  0  0  0  0
 28 26  1  0  0  0  0
 29 24  2  0  0  0  0
 30 31  1  0  0  0  0
 31 22  2  0  0  0  0
 32 34  2  0  0  0  0
 33 32  2  0  0  0  0
M  END
>  <MODEL>
1

>  <REMARK>
 VINA RESULT:      -8.2      0.000      0.000
  Name = 
  8 active torsions:
  status: ('A' for Active; 'I' for Inactive)
    1  A    between atoms: C_1  and  C_9
    2  A    between atoms: C_2  and  C_23
    3  A    between atoms: C_2  and  N_32
    4  A    between atoms: C_3  and  C_23
    5  A    between atoms: C_7  and  N_11
    6  A    between atoms: C_8  and  C_9
    7  A    between atoms: N_18  and  C_30
    8  A    between atoms: C_19  and  O_22
                            x       y       z     vdW  Elec       q    Type
                         _______ _______ _______ _____ _____    ______ ____

>  <TORSDO>
F 8

$$$$
=
 OpenBabel11052415543D

 34 36  0  0  1  0  0  0  0  0999 V2000
  183.5100  177.3000  138.7650 C   0  0  1  0  0  3  0  0  0  0  0  0
  182.9940  175.2560  136.8070 C   0  0  0  0  0  3  0  0  0  0  0  0
  181.4510  176.3920  139.8180 C   0  0  0  0  0  1  0  0  0  0  0  0
  181.9360  175.7080  137.4800 C   0  0  0  0  0  0  0  0  0  0  0  0
  182.0650  176.8320  138.4970 C   0  0  2  0  0  3  0  0  0  0  0  0
  184.2870  175.8510  136.9460 N   0  0  0  0  0  0  0  0  0  0  0  0
  185.7310  177.4440  137.8930 O   0  0  0  0  0  1  0  0  0  0  0  0
  184.4030  177.1870  137.5330 C   0  0  2  0  0  3  0  0  0  0  0  0
  180.4500  173.7320  137.2890 C   0  0  0  0  0  1  0  0  0  0  0  0
  180.6970  175.1270  137.1860 O   0  0  0  0  0  0  0  0  0  0  0  0
  185.3960  175.2580  136.2090 C   0  0  0  0  0  2  0  0  0  0  0  0
  186.3410  174.5210  137.1540 C   0  0  2  0  0  3  0  0  0  0  0  0
  187.6570  174.6530  136.7060 O   0  0  0  0  0  1  0  0  0  0  0  0
  185.9690  173.0450  137.2570 C   0  0  0  0  0  0  0  0  0  0  0  0
  185.0440  172.8640  138.2690 F   0  0  0  0  0  0  0  0  0  0  0  0
  187.1010  172.3060  137.5510 F   0  0  0  0  0  0  0  0  0  0  0  0
  185.4350  172.5980  136.0620 F   0  0  0  0  0  0  0  0  0  0  0  0
  183.5120  178.7460  139.2520 C   0  0  0  0  0  2  0  0  0  0  0  0
  184.3470  178.9000  140.4760 C   0  0  0  0  0  0  0  0  0  0  0  0
  185.2900  179.7340  140.4790 O   0  0  0  0  0  0  0  0  0  0  0  0
  184.0590  178.0990  141.6300 N   0  0  0  0  0  2  0  0  0  0  0  0
  184.6820  178.8120  145.2360 C   0  0  0  0  0  3  0  0  0  0  0  0
  186.0210  177.6360  143.0750 C   0  0  0  0  0  3  0  0  0  0  0  0
  187.8860  177.8570  146.8390 C   0  0  0  0  0  0  0  0  0  0  0  0
  186.5920  178.3710  146.6620 C   0  0  0  0  0  3  0  0  0  0  0  0
  185.9700  178.3000  145.4130 C   0  0  0  0  0  0  0  0  0  0  0  0
  187.9320  177.1950  144.4980 C   0  0  0  0  0  3  0  0  0  0  0  0
  186.6440  177.7060  144.3230 C   0  0  0  0  0  0  0  0  0  0  0  0
  188.5490  177.2700  145.7500 C   0  0  0  0  0  3  0  0  0  0  0  0
  184.7270  178.1490  142.8970 C   0  0  0  0  0  0  0  0  0  0  0  0
  184.0660  178.7360  143.9840 C   0  0  0  0  0  3  0  0  0  0  0  0
  188.5270  177.9280  148.1190 N   0  0  0  0  0  0  0  0  0  0  0  0
  187.7760  177.9730  149.2710 O   0  0  0  0  0  0  0  0  0  0  0  0
  189.7730  177.9510  148.2040 O   0  0  0  0  0  0  0  0  0  0  0  0
  1 18  1  6  0  0  0
  2  6  1  0  0  0  0
  2  4  2  0  0  0  0
  4  5  1  0  0  0  0
  5  1  1  0  0  0  0
  5  3  1  1  0  0  0
  6  8  1  0  0  0  0
  8  7  1  1  0  0  0
  8  1  1  0  0  0  0
 10  9  1  0  0  0  0
 10  4  1  0  0  0  0
 11  6  1  0  0  0  0
 11 12  1  0  0  0  0
 12 13  1  6  0  0  0
 12 14  1  0  0  0  0
 14 16  1  0  0  0  0
 14 15  1  0  0  0  0
 17 14  1  0  0  0  0
 18 19  1  0  0  0  0
 19 20  2  0  0  0  0
 19 21  1  0  0  0  0
 21 30  1  0  0  0  0
 22 26  1  0  0  0  0
 23 28  1  0  0  0  0
 24 32  1  0  0  0  0
 25 24  1  0  0  0  0
 26 25  2  0  0  0  0
 27 29  1  0  0  0  0
 28 27  2  0  0  0  0
 28 26  1  0  0  0  0
 29 24  2  0  0  0  0
 30 23  2  0  0  0  0
 30 31  1  0  0  0  0
 31 22  2  0  0  0  0
 32 34  2  0  0  0  0
 32 33  2  0  0  0  0
M  END
>  <MODEL>
2

>  <REMARK>
 VINA RESULT:      -8.2      5.275      6.560
  Name = 
  8 active torsions:
  status: ('A' for Active; 'I' for Inactive)
    1  A    between atoms: C_1  and  C_9
    2  A    between atoms: C_2  and  C_23
    3  A    between atoms: C_2  and  N_32
    4  A    between atoms: C_3  and  C_23
    5  A    between atoms: C_7  and  N_11
    6  A    between atoms: C_8  and  C_9
    7  A    between atoms: N_18  and  C_30
    8  A    between atoms: C_19  and  O_22
                            x       y       z     vdW  Elec       q    Type
                         _______ _______ _______ _____ _____    ______ ____

>  <TORSDO>
F 8

$$$$
=
 OpenBabel11052415543D

 34 36  0  0  1  0  0  0  0  0999 V2000
  184.2220  177.6550  138.5990 C   0  0  1  0  0  3  0  0  0  0  0  0
  184.2460  176.0740  136.1950 C   0  0  0  0  0  3  0  0  0  0  0  0
  182.6420  175.9050  139.3790 C   0  0  0  0  0  1  0  0  0  0  0  0
  183.1500  175.9850  136.9490 C   0  0  0  0  0  0  0  0  0  0  0  0
  182.9860  176.8170  138.2110 C   0  0  2  0  0  3  0  0  0  0  0  0
  185.2880  177.0090  136.4880 N   0  0  0  0  0  0  0  0  0  0  0  0
  186.2130  178.7160  137.8100 O   0  0  0  0  0  1  0  0  0  0  0  0
  185.0140  178.1320  137.3850 C   0  0  2  0  0  3  0  0  0  0  0  0
  181.2890  175.4100  135.4130 C   0  0  0  0  0  1  0  0  0  0  0  0
  182.1430  175.1170  136.5100 O   0  0  0  0  0  0  0  0  0  0  0  0
  186.4720  177.0000  135.6380 C   0  0  0  0  0  2  0  0  0  0  0  0
  187.5360  176.0630  136.2010 C   0  0  2  0  0  3  0  0  0  0  0  0
  187.1050  175.5330  137.4200 O   0  0  0  0  0  1  0  0  0  0  0  0
  188.8630  176.7920  136.3880 C   0  0  0  0  0  0  0  0  0  0  0  0
  188.7360  178.1090  135.9850 F   0  0  0  0  0  0  0  0  0  0  0  0
  189.8350  176.1820  135.6160 F   0  0  0  0  0  0  0  0  0  0  0  0
  189.2510  176.7540  137.7160 F   0  0  0  0  0  0  0  0  0  0  0  0
  183.7990  178.8660  139.4270 C   0  0  0  0  0  2  0  0  0  0  0  0
  184.5980  178.9670  140.6790 C   0  0  0  0  0  0  0  0  0  0  0  0
  185.6180  179.7050  140.7020 O   0  0  0  0  0  0  0  0  0  0  0  0
  184.1900  178.2260  141.8370 N   0  0  0  0  0  2  0  0  0  0  0  0
  184.6600  178.7930  145.4920 C   0  0  0  0  0  3  0  0  0  0  0  0
  186.1170  177.7700  143.3290 C   0  0  0  0  0  3  0  0  0  0  0  0
  187.8420  177.8840  147.1640 C   0  0  0  0  0  0  0  0  0  0  0  0
  186.5360  178.3570  146.9640 C   0  0  0  0  0  3  0  0  0  0  0  0
  185.9600  178.3220  145.6920 C   0  0  0  0  0  0  0  0  0  0  0  0
  187.9940  177.3350  144.7990 C   0  0  0  0  0  3  0  0  0  0  0  0
  186.6940  177.8050  144.6010 C   0  0  0  0  0  0  0  0  0  0  0  0
  188.5640  177.3740  146.0740 C   0  0  0  0  0  3  0  0  0  0  0  0
  184.8110  178.2420  143.1290 C   0  0  0  0  0  0  0  0  0  0  0  0
  184.0910  178.7530  144.2160 C   0  0  0  0  0  3  0  0  0  0  0  0
  188.4350  177.9190  148.4690 N   0  0  0  0  0  0  0  0  0  0  0  0
  189.7890  178.1230  148.6110 O   0  0  0  0  0  0  0  0  0  0  0  0
  187.7330  177.7640  149.4900 O   0  0  0  0  0  0  0  0  0  0  0  0
  1 18  1  6  0  0  0
  2  6  1  0  0  0  0
  2  4  2  0  0  0  0
  4  5  1  0  0  0  0
  5  1  1  0  0  0  0
  5  3  1  1  0  0  0
  6  8  1  0  0  0  0
  8  7  1  1  0  0  0
  8  1  1  0  0  0  0
  9 10  1  0  0  0  0
 10  4  1  0  0  0  0
 11 12  1  0  0  0  0
 11  6  1  0  0  0  0
 12 14  1  0  0  0  0
 12 13  1  1  0  0  0
 14 17  1  0  0  0  0
 15 14  1  0  0  0  0
 16 14  1  0  0  0  0
 18 19  1  0  0  0  0
 19 20  2  0  0  0  0
 19 21  1  0  0  0  0
 21 30  1  0  0  0  0
 22 26  1  0  0  0  0
 23 28  1  0  0  0  0
 24 32  1  0  0  0  0
 25 24  1  0  0  0  0
 26 25  2  0  0  0  0
 27 29  1  0  0  0  0
 28 27  2  0  0  0  0
 28 26  1  0  0  0  0
 29 24  2  0  0  0  0
 30 23  2  0  0  0  0
 30 31  1  0  0  0  0
 31 22  2  0  0  0  0
 32 33  2  0  0  0  0
 32 34  2  0  0  0  0
M  END
>  <MODEL>
3

>  <REMARK>
 VINA RESULT:      -8.0      4.893      6.059
  Name = 
  8 active torsions:
  status: ('A' for Active; 'I' for Inactive)
    1  A    between atoms: C_1  and  C_9
    2  A    between atoms: C_2  and  C_23
    3  A    between atoms: C_2  and  N_32
    4  A    between atoms: C_3  and  C_23
    5  A    between atoms: C_7  and  N_11
    6  A    between atoms: C_8  and  C_9
    7  A    between atoms: N_18  and  C_30
    8  A    between atoms: C_19  and  O_22
                            x       y       z     vdW  Elec       q    Type
                         _______ _______ _______ _____ _____    ______ ____

>  <TORSDO>
F 8

$$$$
=
 OpenBabel11052415543D

 34 36  0  0  1  0  0  0  0  0999 V2000
  188.3720  176.7210  136.6180 C   0  0  1  0  0  3  0  0  0  0  0  0
  185.7520  175.6620  137.1580 C   0  0  0  0  0  3  0  0  0  0  0  0
  188.6740  174.5590  135.4320 C   0  0  0  0  0  1  0  0  0  0  0  0
  186.7170  174.7670  136.9460 C   0  0  0  0  0  0  0  0  0  0  0  0
  188.1570  175.1960  136.7130 C   0  0  2  0  0  3  0  0  0  0  0  0
  186.0290  177.0620  137.2530 N   0  0  0  0  0  0  0  0  0  0  0  0
  187.5230  178.8740  137.2160 O   0  0  0  0  0  1  0  0  0  0  0  0
  187.4010  177.5080  137.4940 C   0  0  2  0  0  3  0  0  0  0  0  0
  185.2410  172.9310  137.7220 C   0  0  0  0  0  1  0  0  0  0  0  0
  186.3530  173.4160  136.9830 O   0  0  0  0  0  0  0  0  0  0  0  0
  184.9030  177.9710  137.4340 C   0  0  0  0  0  2  0  0  0  0  0  0
  184.2100  177.7140  138.7690 C   0  0  2  0  0  3  0  0  0  0  0  0
  182.8380  177.5440  138.5670 O   0  0  0  0  0  1  0  0  0  0  0  0
  184.4570  178.8630  139.7420 C   0  0  0  0  0  0  0  0  0  0  0  0
  184.1790  180.0690  139.1250 F   0  0  0  0  0  0  0  0  0  0  0  0
  185.7840  178.8580  140.1320 F   0  0  0  0  0  0  0  0  0  0  0  0
  183.6560  178.7260  140.8620 F   0  0  0  0  0  0  0  0  0  0  0  0
  189.8020  177.0770  137.0130 C   0  0  0  0  0  2  0  0  0  0  0  0
  190.0650  176.7430  138.4400 C   0  0  0  0  0  0  0  0  0  0  0  0
  190.4770  175.5910  138.7400 O   0  0  0  0  0  0  0  0  0  0  0  0
  189.8490  177.7410  139.4480 N   0  0  0  0  0  2  0  0  0  0  0  0
  191.6930  177.2850  142.6560 C   0  0  0  0  0  3  0  0  0  0  0  0
  189.0520  177.6440  141.7940 C   0  0  0  0  0  3  0  0  0  0  0  0
  189.8900  177.2210  145.8950 C   0  0  0  0  0  0  0  0  0  0  0  0
  190.9320  177.1840  144.9540 C   0  0  0  0  0  3  0  0  0  0  0  0
  190.6570  177.3230  143.5920 C   0  0  0  0  0  0  0  0  0  0  0  0
  188.2880  177.5420  144.0910 C   0  0  0  0  0  3  0  0  0  0  0  0
  189.3260  177.5040  143.1570 C   0  0  0  0  0  0  0  0  0  0  0  0
  188.5700  177.4010  145.4530 C   0  0  0  0  0  3  0  0  0  0  0  0
  190.0930  177.6070  140.8540 C   0  0  0  0  0  0  0  0  0  0  0  0
  191.4100  177.4270  141.2940 C   0  0  0  0  0  3  0  0  0  0  0  0
  190.1690  177.0790  147.2940 N   0  0  0  0  0  0  0  0  0  0  0  0
  191.3440  176.4990  147.7120 O   0  0  0  0  0  0  0  0  0  0  0  0
  189.3490  177.4780  148.1470 O   0  0  0  0  0  0  0  0  0  0  0  0
  1  5  1  0  0  0  0
  1 18  1  1  0  0  0
  1  8  1  0  0  0  0
  2  6  1  0  0  0  0
  4 10  1  0  0  0  0
  4  2  2  0  0  0  0
  5  3  1  6  0  0  0
  5  4  1  0  0  0  0
  6 11  1  0  0  0  0
  6  8  1  0  0  0  0
  8  7  1  6  0  0  0
 10  9  1  0  0  0  0
 11 12  1  0  0  0  0
 12 13  1  6  0  0  0
 12 14  1  0  0  0  0
 14 16  1  0  0  0  0
 14 17  1  0  0  0  0
 15 14  1  0  0  0  0
 18 19  1  0  0  0  0
 19 20  2  0  0  0  0
 19 21  1  0  0  0  0
 21 30  1  0  0  0  0
 22 26  1  0  0  0  0
 23 28  1  0  0  0  0
 24 32  1  0  0  0  0
 25 24  2  0  0  0  0
 26 25  1  0  0  0  0
 27 29  2  0  0  0  0
 28 26  2  0  0  0  0
 28 27  1  0  0  0  0
 29 24  1  0  0  0  0
 30 31  1  0  0  0  0
 30 23  2  0  0  0  0
 31 22  2  0  0  0  0
 32 33  2  0  0  0  0
 32 34  2  0  0  0  0
M  END
>  <MODEL>
4

>  <REMARK>
 VINA RESULT:      -7.9      5.396      7.320
  Name = 
  8 active torsions:
  status: ('A' for Active; 'I' for Inactive)
    1  A    between atoms: C_1  and  C_9
    2  A    between atoms: C_2  and  C_23
    3  A    between atoms: C_2  and  N_32
    4  A    between atoms: C_3  and  C_23
    5  A    between atoms: C_7  and  N_11
    6  A    between atoms: C_8  and  C_9
    7  A    between atoms: N_18  and  C_30
    8  A    between atoms: C_19  and  O_22
                            x       y       z     vdW  Elec       q    Type
                         _______ _______ _______ _____ _____    ______ ____

>  <TORSDO>
F 8

$$$$
=
 OpenBabel11052415543D

 34 36  0  0  1  0  0  0  0  0999 V2000
  191.3950  175.6770  137.4870 C   0  0  1  0  0  3  0  0  0  0  0  0
  193.0410  173.6480  136.2810 C   0  0  0  0  0  3  0  0  0  0  0  0
  189.6090  173.9730  137.2080 C   0  0  0  0  0  1  0  0  0  0  0  0
  191.7410  173.6040  135.9870 C   0  0  0  0  0  0  0  0  0  0  0  0
  190.7760  174.6570  136.5100 C   0  0  2  0  0  3  0  0  0  0  0  0
  193.6080  174.7220  137.0350 N   0  0  0  0  0  0  0  0  0  0  0  0
  193.4070  176.7490  138.2060 O   0  0  0  0  0  1  0  0  0  0  0  0
  192.8600  175.9730  137.1780 C   0  0  2  0  0  3  0  0  0  0  0  0
  192.0090  171.3390  135.0140 C   0  0  0  0  0  1  0  0  0  0  0  0
  191.3110  172.5680  135.1510 O   0  0  0  0  0  0  0  0  0  0  0  0
  195.0300  174.6590  137.3520 C   0  0  0  0  0  2  0  0  0  0  0  0
  195.3360  173.4460  138.2240 C   0  0  2  0  0  3  0  0  0  0  0  0
  195.8120  173.8640  139.4690 O   0  0  0  0  0  1  0  0  0  0  0  0
  196.3590  172.5340  137.5530 C   0  0  0  0  0  0  0  0  0  0  0  0
  196.1580  172.5320  136.1840 F   0  0  0  0  0  0  0  0  0  0  0  0
  196.2060  171.2440  138.0270 F   0  0  0  0  0  0  0  0  0  0  0  0
  197.6440  172.9680  137.8260 F   0  0  0  0  0  0  0  0  0  0  0  0
  190.6050  176.9820  137.4570 C   0  0  0  0  0  2  0  0  0  0  0  0
  190.2080  177.4020  138.8300 C   0  0  0  0  0  0  0  0  0  0  0  0
  189.5570  178.4690  138.9840 O   0  0  0  0  0  0  0  0  0  0  0  0
  190.5710  176.5840  139.9500 N   0  0  0  0  0  2  0  0  0  0  0  0
  190.9860  177.2290  143.5980 C   0  0  0  0  0  3  0  0  0  0  0  0
  188.9030  176.8370  141.7660 C   0  0  0  0  0  3  0  0  0  0  0  0
  188.0380  177.5020  145.8290 C   0  0  0  0  0  0  0  0  0  0  0  0
  189.3690  177.4760  145.3860 C   0  0  0  0  0  3  0  0  0  0  0  0
  189.6610  177.2550  144.0380 C   0  0  0  0  0  0  0  0  0  0  0  0
  187.2850  177.0820  143.5530 C   0  0  0  0  0  3  0  0  0  0  0  0
  188.6100  177.0580  143.1150 C   0  0  0  0  0  0  0  0  0  0  0  0
  187.0010  177.3030  144.9040 C   0  0  0  0  0  3  0  0  0  0  0  0
  190.2340  176.8120  141.3240 C   0  0  0  0  0  0  0  0  0  0  0  0
  191.2690  177.0090  142.2470 C   0  0  0  0  0  3  0  0  0  0  0  0
  187.7350  177.7290  147.2120 N   0  0  0  0  0  0  0  0  0  0  0  0
  186.7560  178.6260  147.5700 O   0  0  0  0  0  0  0  0  0  0  0  0
  188.3570  177.1170  148.1060 O   0  0  0  0  0  0  0  0  0  0  0  0
  1 18  1  6  0  0  0
  2  6  1  0  0  0  0
  4  2  2  0  0  0  0
  4  5  1  0  0  0  0
  5  3  1  1  0  0  0
  5  1  1  0  0  0  0
  6  8  1  0  0  0  0
  6 11  1  0  0  0  0
  8  1  1  0  0  0  0
  8  7  1  1  0  0  0
  9 10  1  0  0  0  0
 10  4  1  0  0  0  0
 11 12  1  0  0  0  0
 12 13  1  1  0  0  0
 14 17  1  0  0  0  0
 14 16  1  0  0  0  0
 14 12  1  0  0  0  0
 15 14  1  0  0  0  0
 18 19  1  0  0  0  0
 19 20  2  0  0  0  0
 19 21  1  0  0  0  0
 21 30  1  0  0  0  0
 22 26  1  0  0  0  0
 23 28  1  0  0  0  0
 24 32  1  0  0  0  0
 25 24  1  0  0  0  0
 26 25  2  0  0  0  0
 27 29  1  0  0  0  0
 28 27  2  0  0  0  0
 28 26  1  0  0  0  0
 29 24  2  0  0  0  0
 30 23  2  0  0  0  0
 30 31  1  0  0  0  0
 31 22  2  0  0  0  0
 32 33  2  0  0  0  0
 32 34  2  0  0  0  0
M  END
>  <MODEL>
5

>  <REMARK>
 VINA RESULT:      -7.9      9.376     12.086
  Name = 
  8 active torsions:
  status: ('A' for Active; 'I' for Inactive)
    1  A    between atoms: C_1  and  C_9
    2  A    between atoms: C_2  and  C_23
    3  A    between atoms: C_2  and  N_32
    4  A    between atoms: C_3  and  C_23
    5  A    between atoms: C_7  and  N_11
    6  A    between atoms: C_8  and  C_9
    7  A    between atoms: N_18  and  C_30
    8  A    between atoms: C_19  and  O_22
                            x       y       z     vdW  Elec       q    Type
                         _______ _______ _______ _____ _____    ______ ____

>  <TORSDO>
F 8

$$$$
=
 OpenBabel11052415543D

 34 36  0  0  1  0  0  0  0  0999 V2000
  184.1600  178.1050  139.9470 C   0  0  1  0  0  3  0  0  0  0  0  0
  184.0870  177.1390  137.2380 C   0  0  0  0  0  3  0  0  0  0  0  0
  181.9130  177.0530  140.0670 C   0  0  0  0  0  1  0  0  0  0  0  0
  182.9060  177.3710  137.8130 C   0  0  0  0  0  0  0  0  0  0  0  0
  182.8100  177.9420  139.2190 C   0  0  2  0  0  3  0  0  0  0  0  0
  185.3180  177.4850  137.8760 N   0  0  0  0  0  0  0  0  0  0  0  0
  186.5210  178.3750  139.6870 O   0  0  0  0  0  1  0  0  0  0  0  0
  185.3070  178.4300  138.9940 C   0  0  2  0  0  3  0  0  0  0  0  0
  180.9060  178.1100  136.5470 C   0  0  0  0  0  1  0  0  0  0  0  0
  181.7620  177.0970  137.0550 O   0  0  0  0  0  0  0  0  0  0  0  0
  186.5610  177.1470  137.1930 C   0  0  0  0  0  2  0  0  0  0  0  0
  187.1780  178.3850  136.5500 C   0  0  2  0  0  3  0  0  0  0  0  0
  186.9750  178.3530  135.1680 O   0  0  0  0  0  1  0  0  0  0  0  0
  188.6700  178.4750  136.8570 C   0  0  0  0  0  0  0  0  0  0  0  0
  189.4020  178.1630  135.7260 F   0  0  0  0  0  0  0  0  0  0  0  0
  188.9880  177.5720  137.8560 F   0  0  0  0  0  0  0  0  0  0  0  0
  188.9990  179.7510  137.2790 F   0  0  0  0  0  0  0  0  0  0  0  0
  184.0610  179.2030  141.0020 C   0  0  0  0  0  2  0  0  0  0  0  0
  185.1990  179.1320  141.9600 C   0  0  0  0  0  0  0  0  0  0  0  0
  185.9870  180.1110  142.0550 O   0  0  0  0  0  0  0  0  0  0  0  0
  185.3750  177.9550  142.7590 N   0  0  0  0  0  2  0  0  0  0  0  0
  186.9800  177.6640  146.1120 C   0  0  0  0  0  3  0  0  0  0  0  0
  187.7050  177.4150  143.4170 C   0  0  0  0  0  3  0  0  0  0  0  0
  190.5760  176.8190  146.4330 C   0  0  0  0  0  0  0  0  0  0  0  0
  189.2530  177.1420  146.7730 C   0  0  0  0  0  3  0  0  0  0  0  0
  188.2970  177.3420  145.7740 C   0  0  0  0  0  0  0  0  0  0  0  0
  189.9770  176.8950  144.0760 C   0  0  0  0  0  3  0  0  0  0  0  0
  188.6620  177.2160  144.4150 C   0  0  0  0  0  0  0  0  0  0  0  0
  190.9290  176.6980  145.0810 C   0  0  0  0  0  3  0  0  0  0  0  0
  186.3820  177.7380  143.7570 C   0  0  0  0  0  0  0  0  0  0  0  0
  186.0290  177.8610  145.1060 C   0  0  0  0  0  3  0  0  0  0  0  0
  191.5590  176.6130  147.4560 N   0  0  0  0  0  0  0  0  0  0  0  0
  192.2210  175.4110  147.5510 O   0  0  0  0  0  0  0  0  0  0  0  0
  191.8250  177.5200  148.2720 O   0  0  0  0  0  0  0  0  0  0  0  0
  1 18  1  1  0  0  0
  2  4  2  0  0  0  0
  2  6  1  0  0  0  0
  4  5  1  0  0  0  0
  5  1  1  0  0  0  0
  5  3  1  1  0  0  0
  6  8  1  0  0  0  0
  8  7  1  1  0  0  0
  8  1  1  0  0  0  0
  9 10  1  0  0  0  0
 10  4  1  0  0  0  0
 11  6  1  0  0  0  0
 12 13  1  6  0  0  0
 12 14  1  0  0  0  0
 12 11  1  0  0  0  0
 14 17  1  0  0  0  0
 14 16  1  0  0  0  0
 15 14  1  0  0  0  0
 18 19  1  0  0  0  0
 19 20  2  0  0  0  0
 19 21  1  0  0  0  0
 21 30  1  0  0  0  0
 23 30  2  0  0  0  0
 23 28  1  0  0  0  0
 24 25  1  0  0  0  0
 24 32  1  0  0  0  0
 26 22  1  0  0  0  0
 26 25  2  0  0  0  0
 27 28  2  0  0  0  0
 27 29  1  0  0  0  0
 28 26  1  0  0  0  0
 29 24  2  0  0  0  0
 30 31  1  0  0  0  0
 31 22  2  0  0  0  0
 32 33  2  0  0  0  0
 32 34  2  0  0  0  0
M  END
>  <MODEL>
6

>  <REMARK>
 VINA RESULT:      -7.8      4.675      5.882
  Name = 
  8 active torsions:
  status: ('A' for Active; 'I' for Inactive)
    1  A    between atoms: C_1  and  C_9
    2  A    between atoms: C_2  and  C_23
    3  A    between atoms: C_2  and  N_32
    4  A    between atoms: C_3  and  C_23
    5  A    between atoms: C_7  and  N_11
    6  A    between atoms: C_8  and  C_9
    7  A    between atoms: N_18  and  C_30
    8  A    between atoms: C_19  and  O_22
                            x       y       z     vdW  Elec       q    Type
                         _______ _______ _______ _____ _____    ______ ____

>  <TORSDO>
F 8

$$$$
=
 OpenBabel11052415543D

 34 36  0  0  1  0  0  0  0  0999 V2000
  186.6090  177.7650  137.1520 C   0  0  1  0  0  3  0  0  0  0  0  0
  184.4280  175.8980  137.3370 C   0  0  0  0  0  3  0  0  0  0  0  0
  187.3940  176.2130  135.3780 C   0  0  0  0  0  1  0  0  0  0  0  0
  185.5810  175.4130  136.8750 C   0  0  0  0  0  0  0  0  0  0  0  0
  186.8260  176.2820  136.7880 C   0  0  2  0  0  3  0  0  0  0  0  0
  184.3190  177.2290  137.8460 N   0  0  0  0  0  0  0  0  0  0  0  0
  185.2550  179.3220  138.3580 O   0  0  0  0  0  1  0  0  0  0  0  0
  185.5330  177.9580  138.2170 C   0  0  2  0  0  3  0  0  0  0  0  0
  186.3490  173.0790  137.2070 C   0  0  0  0  0  1  0  0  0  0  0  0
  185.6030  174.0640  136.5050 O   0  0  0  0  0  0  0  0  0  0  0  0
  183.0060  177.6900  138.2830 C   0  0  0  0  0  2  0  0  0  0  0  0
  182.6390  177.0760  139.6310 C   0  0  2  0  0  3  0  0  0  0  0  0
  181.3510  176.5390  139.5730 O   0  0  0  0  0  1  0  0  0  0  0  0
  182.7220  178.1150  140.7450 C   0  0  0  0  0  0  0  0  0  0  0  0
  182.8580  179.3790  140.1980 F   0  0  0  0  0  0  0  0  0  0  0  0
  183.8250  177.8520  141.5370 F   0  0  0  0  0  0  0  0  0  0  0  0
  181.5830  178.0750  141.5280 F   0  0  0  0  0  0  0  0  0  0  0  0
  187.9140  178.3840  137.6420 C   0  0  0  0  0  2  0  0  0  0  0  0
  188.2990  177.8410  138.9750 C   0  0  0  0  0  0  0  0  0  0  0  0
  188.9540  176.7670  139.0390 O   0  0  0  0  0  0  0  0  0  0  0  0
  187.9210  178.5530  140.1610 N   0  0  0  0  0  2  0  0  0  0  0  0
  187.4750  177.5250  143.7170 C   0  0  0  0  0  3  0  0  0  0  0  0
  189.5690  178.1880  141.9780 C   0  0  0  0  0  3  0  0  0  0  0  0
  190.3950  177.1530  145.9710 C   0  0  0  0  0  0  0  0  0  0  0  0
  189.0710  177.1670  145.5050 C   0  0  0  0  0  3  0  0  0  0  0  0
  188.7930  177.5110  144.1800 C   0  0  0  0  0  0  0  0  0  0  0  0
  191.1660  177.8320  143.7650 C   0  0  0  0  0  3  0  0  0  0  0  0
  189.8480  177.8440  143.3030 C   0  0  0  0  0  0  0  0  0  0  0  0
  191.4370  177.4880  145.0920 C   0  0  0  0  0  3  0  0  0  0  0  0
  188.2450  178.2010  141.5120 C   0  0  0  0  0  0  0  0  0  0  0  0
  187.2050  177.8690  142.3890 C   0  0  0  0  0  3  0  0  0  0  0  0
  190.6840  176.8010  147.3300 N   0  0  0  0  0  0  0  0  0  0  0  0
  190.1120  177.5020  148.3660 O   0  0  0  0  0  0  0  0  0  0  0  0
  191.4580  175.8560  147.5890 O   0  0  0  0  0  0  0  0  0  0  0  0
  1 18  1  1  0  0  0
  1  8  1  0  0  0  0
  2  6  1  0  0  0  0
  4  2  2  0  0  0  0
  5  3  1  6  0  0  0
  5  4  1  0  0  0  0
  5  1  1  0  0  0  0
  6  8  1  0  0  0  0
  6 11  1  0  0  0  0
  8  7  1  6  0  0  0
 10  4  1  0  0  0  0
 10  9  1  0  0  0  0
 11 12  1  0  0  0  0
 12 13  1  6  0  0  0
 12 14  1  0  0  0  0
 14 17  1  0  0  0  0
 14 16  1  0  0  0  0
 15 14  1  0  0  0  0
 18 19  1  0  0  0  0
 19 20  2  0  0  0  0
 19 21  1  0  0  0  0
 21 30  1  0  0  0  0
 22 26  1  0  0  0  0
 23 28  1  0  0  0  0
 24 32  1  0  0  0  0
 25 24  1  0  0  0  0
 26 25  2  0  0  0  0
 27 29  1  0  0  0  0
 28 27  2  0  0  0  0
 28 26  1  0  0  0  0
 29 24  2  0  0  0  0
 30 23  2  0  0  0  0
 30 31  1  0  0  0  0
 31 22  2  0  0  0  0
 32 34  2  0  0  0  0
 32 33  2  0  0  0  0
M  END
>  <MODEL>
7

>  <REMARK>
 VINA RESULT:      -7.7      4.698      6.411
  Name = 
  8 active torsions:
  status: ('A' for Active; 'I' for Inactive)
    1  A    between atoms: C_1  and  C_9
    2  A    between atoms: C_2  and  C_23
    3  A    between atoms: C_2  and  N_32
    4  A    between atoms: C_3  and  C_23
    5  A    between atoms: C_7  and  N_11
    6  A    between atoms: C_8  and  C_9
    7  A    between atoms: N_18  and  C_30
    8  A    between atoms: C_19  and  O_22
                            x       y       z     vdW  Elec       q    Type
                         _______ _______ _______ _____ _____    ______ ____

>  <TORSDO>
F 8

$$$$
=
 OpenBabel11052415543D

 34 36  0  0  1  0  0  0  0  0999 V2000
  189.9990  176.3020  137.7910 C   0  0  1  0  0  3  0  0  0  0  0  0
  188.0220  175.9730  135.7270 C   0  0  0  0  0  3  0  0  0  0  0  0
  188.8480  178.4780  138.1310 C   0  0  0  0  0  1  0  0  0  0  0  0
  188.3370  177.2280  136.0460 C   0  0  0  0  0  0  0  0  0  0  0  0
  189.4120  177.5370  137.0760 C   0  0  2  0  0  3  0  0  0  0  0  0
  188.7270  174.8560  136.2740 N   0  0  0  0  0  0  0  0  0  0  0  0
  190.3950  173.9490  137.6580 O   0  0  0  0  0  1  0  0  0  0  0  0
  190.0350  175.0660  136.8960 C   0  0  2  0  0  3  0  0  0  0  0  0
  186.3420  178.0990  134.8570 C   0  0  0  0  0  1  0  0  0  0  0  0
  187.6590  178.2480  135.3680 O   0  0  0  0  0  0  0  0  0  0  0  0
  188.2790  173.5170  135.9070 C   0  0  0  0  0  2  0  0  0  0  0  0
  187.0720  173.1020  136.7430 C   0  0  2  0  0  3  0  0  0  0  0  0
  187.4820  172.2740  137.7900 O   0  0  0  0  0  1  0  0  0  0  0  0
  186.0340  172.3850  135.8850 C   0  0  0  0  0  0  0  0  0  0  0  0
  185.0080  171.9160  136.6840 F   0  0  0  0  0  0  0  0  0  0  0  0
  186.6280  171.3110  135.2470 F   0  0  0  0  0  0  0  0  0  0  0  0
  185.5160  173.2460  134.9340 F   0  0  0  0  0  0  0  0  0  0  0  0
  191.4110  176.6020  138.2860 C   0  0  0  0  0  2  0  0  0  0  0  0
  191.4110  176.9490  139.7340 C   0  0  0  0  0  0  0  0  0  0  0  0
  192.2510  177.7800  140.1700 O   0  0  0  0  0  0  0  0  0  0  0  0
  190.4520  176.3350  140.6060 N   0  0  0  0  0  2  0  0  0  0  0  0
  191.2850  176.7720  144.2130 C   0  0  0  0  0  3  0  0  0  0  0  0
  189.0250  176.8700  142.5620 C   0  0  0  0  0  3  0  0  0  0  0  0
  188.6480  177.5750  146.6920 C   0  0  0  0  0  0  0  0  0  0  0  0
  189.9060  177.2910  146.1360 C   0  0  0  0  0  3  0  0  0  0  0  0
  190.0340  177.0560  144.7660 C   0  0  0  0  0  0  0  0  0  0  0  0
  187.6430  177.3880  144.4840 C   0  0  0  0  0  3  0  0  0  0  0  0
  188.8950  177.1050  143.9330 C   0  0  0  0  0  0  0  0  0  0  0  0
  187.5210  177.6210  145.8570 C   0  0  0  0  0  3  0  0  0  0  0  0
  190.2820  176.5860  142.0060 C   0  0  0  0  0  0  0  0  0  0  0  0
  191.4060  176.5390  142.8400 C   0  0  0  0  0  3  0  0  0  0  0  0
  188.5130  177.8170  148.0980 N   0  0  0  0  0  0  0  0  0  0  0  0
  187.5430  177.1650  148.8250 O   0  0  0  0  0  0  0  0  0  0  0  0
  189.2700  178.6230  148.6790 O   0  0  0  0  0  0  0  0  0  0  0  0
  1 18  1  6  0  0  0
  2  4  2  0  0  0  0
  2  6  1  0  0  0  0
  4  5  1  0  0  0  0
  5  1  1  0  0  0  0
  5  3  1  1  0  0  0
  6  8  1  0  0  0  0
  8  7  1  1  0  0  0
  8  1  1  0  0  0  0
  9 10  1  0  0  0  0
 10  4  1  0  0  0  0
 11  6  1  0  0  0  0
 11 12  1  0  0  0  0
 12 13  1  1  0  0  0
 14 15  1  0  0  0  0
 14 12  1  0  0  0  0
 16 14  1  0  0  0  0
 17 14  1  0  0  0  0
 18 19  1  0  0  0  0
 19 20  2  0  0  0  0
 19 21  1  0  0  0  0
 21 30  1  0  0  0  0
 22 26  1  0  0  0  0
 23 28  1  0  0  0  0
 24 32  1  0  0  0  0
 25 24  1  0  0  0  0
 26 25  2  0  0  0  0
 27 29  1  0  0  0  0
 28 27  2  0  0  0  0
 28 26  1  0  0  0  0
 29 24  2  0  0  0  0
 30 23  2  0  0  0  0
 30 31  1  0  0  0  0
 31 22  2  0  0  0  0
 32 34  2  0  0  0  0
 32 33  2  0  0  0  0
M  END
>  <MODEL>
8

>  <REMARK>
 VINA RESULT:      -7.6      7.238      9.321
  Name = 
  8 active torsions:
  status: ('A' for Active; 'I' for Inactive)
    1  A    between atoms: C_1  and  C_9
    2  A    between atoms: C_2  and  C_23
    3  A    between atoms: C_2  and  N_32
    4  A    between atoms: C_3  and  C_23
    5  A    between atoms: C_7  and  N_11
    6  A    between atoms: C_8  and  C_9
    7  A    between atoms: N_18  and  C_30
    8  A    between atoms: C_19  and  O_22
                            x       y       z     vdW  Elec       q    Type
                         _______ _______ _______ _____ _____    ______ ____

>  <TORSDO>
F 8

$$$$
=
 OpenBabel11052415543D

 34 36  0  0  1  0  0  0  0  0999 V2000
  187.1620  178.0590  145.0260 C   0  0  1  0  0  3  0  0  0  0  0  0
  189.9610  177.4060  145.1430 C   0  0  0  0  0  3  0  0  0  0  0  0
  187.4620  178.4720  147.4580 C   0  0  0  0  0  1  0  0  0  0  0  0
  189.2720  177.2510  146.2740 C   0  0  0  0  0  0  0  0  0  0  0  0
  187.7730  177.5010  146.3280 C   0  0  2  0  0  3  0  0  0  0  0  0
  189.3200  177.7400  143.9090 N   0  0  0  0  0  0  0  0  0  0  0  0
  187.3980  178.2390  142.6550 O   0  0  0  0  0  1  0  0  0  0  0  0
  187.8750  177.5520  143.7760 C   0  0  2  0  0  3  0  0  0  0  0  0
  191.3320  176.3770  147.3430 C   0  0  0  0  0  1  0  0  0  0  0  0
  189.9820  176.8150  147.3990 O   0  0  0  0  0  0  0  0  0  0  0  0
  190.1610  177.9400  142.7350 C   0  0  0  0  0  2  0  0  0  0  0  0
  189.9840  176.7960  141.7410 C   0  0  2  0  0  3  0  0  0  0  0  0
  190.5530  175.6290  142.2560 O   0  0  0  0  0  1  0  0  0  0  0  0
  190.6160  177.1370  140.3960 C   0  0  0  0  0  0  0  0  0  0  0  0
  190.6840  176.0030  139.6080 F   0  0  0  0  0  0  0  0  0  0  0  0
  191.8980  177.6150  140.5990 F   0  0  0  0  0  0  0  0  0  0  0  0
  189.8700  178.1030  139.7440 F   0  0  0  0  0  0  0  0  0  0  0  0
  185.6820  177.6930  144.9400 C   0  0  0  0  0  2  0  0  0  0  0  0
  184.9850  178.5100  143.9080 C   0  0  0  0  0  0  0  0  0  0  0  0
  184.8760  179.7540  144.0760 O   0  0  0  0  0  0  0  0  0  0  0  0
  184.4550  177.8670  142.7410 N   0  0  0  0  0  2  0  0  0  0  0  0
  183.9800  179.5680  139.4580 C   0  0  0  0  0  3  0  0  0  0  0  0
  182.4120  178.7030  141.6120 C   0  0  0  0  0  3  0  0  0  0  0  0
  180.6050  180.5940  138.3170 C   0  0  0  0  0  0  0  0  0  0  0  0
  181.9940  180.3940  138.3410 C   0  0  0  0  0  3  0  0  0  0  0  0
  182.5980  179.7670  139.4330 C   0  0  0  0  0  0  0  0  0  0  0  0
  180.4260  179.5290  140.4980 C   0  0  0  0  0  3  0  0  0  0  0  0
  181.8070  179.3300  140.5190 C   0  0  0  0  0  0  0  0  0  0  0  0
  179.8280  180.1580  139.4010 C   0  0  0  0  0  3  0  0  0  0  0  0
  183.8010  178.5020  141.6350 C   0  0  0  0  0  0  0  0  0  0  0  0
  184.5760  178.9380  140.5540 C   0  0  0  0  0  3  0  0  0  0  0  0
  179.9830  181.2370  137.1970 N   0  0  0  0  0  0  0  0  0  0  0  0
  180.2610  182.5530  136.9090 O   0  0  0  0  0  0  0  0  0  0  0  0
  179.1810  180.6120  136.4720 O   0  0  0  0  0  0  0  0  0  0  0  0
  1 18  1  6  0  0  0
  1  5  1  0  0  0  0
  2  4  2  0  0  0  0
  4  5  1  0  0  0  0
  4 10  1  0  0  0  0
  5  3  1  1  0  0  0
  6  2  1  0  0  0  0
  8  7  1  6  0  0  0
  8  6  1  0  0  0  0
  8  1  1  0  0  0  0
  9 10  1  0  0  0  0
 11  6  1  0  0  0  0
 12 13  1  1  0  0  0
 12 11  1  0  0  0  0
 14 16  1  0  0  0  0
 14 12  1  0  0  0  0
 15 14  1  0  0  0  0
 17 14  1  0  0  0  0
 19 20  2  0  0  0  0
 19 18  1  0  0  0  0
 21 19  1  0  0  0  0
 22 31  1  0  0  0  0
 23 30  1  0  0  0  0
 24 25  2  0  0  0  0
 24 29  1  0  0  0  0
 25 26  1  0  0  0  0
 26 22  2  0  0  0  0
 26 28  1  0  0  0  0
 27 28  1  0  0  0  0
 28 23  2  0  0  0  0
 29 27  2  0  0  0  0
 30 21  1  0  0  0  0
 31 30  2  0  0  0  0
 32 24  1  0  0  0  0
 33 32  2  0  0  0  0
 34 32  2  0  0  0  0
M  END
>  <MODEL>
9

>  <REMARK>
 VINA RESULT:      -7.4      4.748     10.552
  Name = 
  8 active torsions:
  status: ('A' for Active; 'I' for Inactive)
    1  A    between atoms: C_1  and  C_9
    2  A    between atoms: C_2  and  C_23
    3  A    between atoms: C_2  and  N_32
    4  A    between atoms: C_3  and  C_23
    5  A    between atoms: C_7  and  N_11
    6  A    between atoms: C_8  and  C_9
    7  A    between atoms: N_18  and  C_30
    8  A    between atoms: C_19  and  O_22
                            x       y       z     vdW  Elec       q    Type
                         _______ _______ _______ _____ _____    ______ ____

>  <TORSDO>
F 8

$$$$
