=
 OpenBabel11052417043D

 32 37  0  0  0  0  0  0  0  0999 V2000
  181.8770  178.6380  142.2640 C   0  0  0  0  0  0  0  0  0  0  0  0
  186.8710  178.3400  143.1410 C   0  0  0  0  0  0  0  0  0  0  0  0
  187.2340  178.4820  138.4830 C   0  0  0  0  0  1  0  0  0  0  0  0
  189.3440  177.2980  139.3730 N   0  0  0  0  0  0  0  0  0  0  0  0
  188.2480  177.7270  145.0910 C   0  0  0  0  0  0  0  0  0  0  0  0
  189.4580  177.2090  145.5840 C   0  0  0  0  0  0  0  0  0  0  0  0
  184.4540  178.7130  143.3700 C   0  0  0  0  0  0  0  0  0  0  0  0
  185.3320  178.4040  141.1510 C   0  0  0  0  0  2  0  0  0  0  0  0
  191.8910  176.1800  146.5330 C   0  0  0  0  0  3  0  0  0  0  0  0
  182.9920  178.4660  141.4380 C   0  0  0  0  0  3  0  0  0  0  0  0
  188.0490  177.8770  139.5720 C   0  0  0  0  0  0  0  0  0  0  0  0
  186.7320  178.6370  141.6470 C   0  0  0  0  0  0  0  0  0  0  0  0
  187.7660  177.9080  140.8660 C   0  0  0  0  0  0  0  0  0  0  0  0
  189.0920  177.3810  142.8290 C   0  0  0  0  0  0  0  0  0  0  0  0
  190.9040  176.5850  147.4360 C   0  0  0  0  0  3  0  0  0  0  0  0
  182.0490  178.8770  143.6310 C   0  0  0  0  0  3  0  0  0  0  0  0
  184.2830  178.5210  141.9740 C   0  0  0  0  0  0  0  0  0  0  0  0
  189.6930  177.0970  146.9640 C   0  0  0  0  0  3  0  0  0  0  0  0
  183.3320  178.9050  144.1830 C   0  0  0  0  0  3  0  0  0  0  0  0
  189.8660  177.0150  140.5020 N   0  0  0  0  0  0  0  0  0  0  0  0
  188.9320  177.3930  141.5040 C   0  0  0  0  0  0  0  0  0  0  0  0
  190.2470  176.8910  143.3480 N   0  0  0  0  0  2  0  0  0  0  0  0
  185.6610  178.6250  143.9450 C   0  0  0  0  0  3  0  0  0  0  0  0
  187.3700  178.1040  145.9160 O   0  0  0  0  0  0  0  0  0  0  0  0
  191.6680  176.2860  145.1580 C   0  0  0  0  0  3  0  0  0  0  0  0
  188.0380  177.8420  143.6850 C   0  0  0  0  0  0  0  0  0  0  0  0
  190.4580  176.7980  144.6810 C   0  0  0  0  0  0  0  0  0  0  0  0
  180.5100  178.6160  141.6780 C   0  0  0  0  0  2  0  0  0  0  0  0
  179.8800  180.8260  140.6470 C   0  0  0  0  0  0  0  0  0  0  0  0
  180.4460  179.5200  140.5420 N   0  0  0  0  0  2  0  0  0  0  0  0
  179.8420  181.6710  139.5040 N   0  0  0  0  0  1  0  0  0  0  0  0
  179.4150  181.2370  141.7420 O   0  0  0  0  0  0  0  0  0  0  0  0
  1 16  1  0  0  0  0
  2 26  1  0  0  0  0
  2 23  2  0  0  0  0
  3 11  1  0  0  0  0
  4 11  2  0  0  0  0
  4 20  1  0  0  0  0
  5  6  1  0  0  0  0
  5 24  2  0  0  0  0
  6 18  1  0  0  0  0
  7 23  1  0  0  0  0
  7 19  1  0  0  0  0
  8 12  1  0  0  0  0
  8 17  1  0  0  0  0
  9 15  1  0  0  0  0
 10 17  1  0  0  0  0
 10  1  2  0  0  0  0
 11 13  1  0  0  0  0
 12  2  1  0  0  0  0
 13 21  1  0  0  0  0
 13 12  2  0  0  0  0
 14 22  1  0  0  0  0
 14 26  2  0  0  0  0
 16 19  2  0  0  0  0
 17  7  2  0  0  0  0
 18 15  2  0  0  0  0
 20 21  2  0  0  0  0
 21 14  1  0  0  0  0
 22 27  1  0  0  0  0
 25  9  2  0  0  0  0
 26  5  1  0  0  0  0
 27 25  1  0  0  0  0
 27  6  2  0  0  0  0
 28  1  1  0  0  0  0
 29 32  2  0  0  0  0
 30 29  1  0  0  0  0
 30 28  1  0  0  0  0
 31 29  1  0  0  0  0
M  END
>  <MODEL>
1

>  <REMARK>
 VINA RESULT:     -11.5      0.000      0.000
  Name = 
  2 active torsions:
  status: ('A' for Active; 'I' for Inactive)
    1  A    between atoms: C_2  and  C_24
    2  A    between atoms: N_10  and  C_24
                            x       y       z     vdW  Elec       q    Type
                         _______ _______ _______ _____ _____    ______ ____

>  <TORSDO>
F 2

$$$$
=
 OpenBabel11052417043D

 32 37  0  0  0  0  0  0  0  0999 V2000
  181.6070  178.6770  142.2610 C   0  0  0  0  0  0  0  0  0  0  0  0
  186.6140  178.4400  143.0830 C   0  0  0  0  0  0  0  0  0  0  0  0
  186.9230  178.5910  138.4210 C   0  0  0  0  0  1  0  0  0  0  0  0
  189.0570  177.4330  139.2860 N   0  0  0  0  0  0  0  0  0  0  0  0
  188.0190  177.8420  145.0170 C   0  0  0  0  0  0  0  0  0  0  0  0
  189.2410  177.3380  145.4950 C   0  0  0  0  0  0  0  0  0  0  0  0
  184.1950  178.7830  143.3390 C   0  0  0  0  0  0  0  0  0  0  0  0
  185.0510  178.4870  141.1100 C   0  0  0  0  0  2  0  0  0  0  0  0
  191.6980  176.3380  146.4160 C   0  0  0  0  0  3  0  0  0  0  0  0
  182.7150  178.5190  141.4230 C   0  0  0  0  0  3  0  0  0  0  0  0
  187.7570  177.9950  139.5000 C   0  0  0  0  0  0  0  0  0  0  0  0
  186.4540  178.7370  141.5910 C   0  0  0  0  0  0  0  0  0  0  0  0
  187.4890  178.0220  140.7980 C   0  0  0  0  0  0  0  0  0  0  0  0
  188.8430  177.5090  142.7440 C   0  0  0  0  0  0  0  0  0  0  0  0
  190.7160  176.7300  147.3300 C   0  0  0  0  0  3  0  0  0  0  0  0
  181.7910  178.9170  143.6260 C   0  0  0  0  0  3  0  0  0  0  0  0
  184.0100  178.5900  141.9450 C   0  0  0  0  0  0  0  0  0  0  0  0
  189.4930  177.2280  146.8730 C   0  0  0  0  0  3  0  0  0  0  0  0
  183.0800  178.9600  144.1650 C   0  0  0  0  0  3  0  0  0  0  0  0
  189.5950  177.1550  140.4080 N   0  0  0  0  0  0  0  0  0  0  0  0
  188.6670  177.5210  141.4210 C   0  0  0  0  0  0  0  0  0  0  0  0
  190.0100  177.0320  143.2500 N   0  0  0  0  0  2  0  0  0  0  0  0
  185.4090  178.7090  143.9010 C   0  0  0  0  0  3  0  0  0  0  0  0
  187.1460  178.2070  145.8520 O   0  0  0  0  0  0  0  0  0  0  0  0
  191.4580  176.4430  145.0440 C   0  0  0  0  0  3  0  0  0  0  0  0
  187.7920  177.9560  143.6130 C   0  0  0  0  0  0  0  0  0  0  0  0
  190.2360  176.9410  144.5810 C   0  0  0  0  0  0  0  0  0  0  0  0
  180.2330  178.6380  141.6910 C   0  0  0  0  0  2  0  0  0  0  0  0
  179.5210  176.3670  140.8670 C   0  0  0  0  0  0  0  0  0  0  0  0
  179.6450  177.3280  141.9150 N   0  0  0  0  0  2  0  0  0  0  0  0
  178.9360  175.0990  141.1390 N   0  0  0  0  0  1  0  0  0  0  0  0
  179.9250  176.6300  139.7040 O   0  0  0  0  0  0  0  0  0  0  0  0
  1 16  1  0  0  0  0
  2 26  1  0  0  0  0
  2 23  2  0  0  0  0
  3 11  1  0  0  0  0
  4 11  2  0  0  0  0
  4 20  1  0  0  0  0
  5  6  1  0  0  0  0
  5 24  2  0  0  0  0
  6 18  1  0  0  0  0
  7 23  1  0  0  0  0
  7 19  1  0  0  0  0
  8 12  1  0  0  0  0
  8 17  1  0  0  0  0
  9 15  1  0  0  0  0
 10 17  1  0  0  0  0
 10  1  2  0  0  0  0
 11 13  1  0  0  0  0
 12  2  1  0  0  0  0
 13 21  1  0  0  0  0
 13 12  2  0  0  0  0
 14 22  1  0  0  0  0
 14 26  2  0  0  0  0
 16 19  2  0  0  0  0
 17  7  2  0  0  0  0
 18 15  2  0  0  0  0
 20 21  2  0  0  0  0
 21 14  1  0  0  0  0
 22 27  1  0  0  0  0
 25  9  2  0  0  0  0
 26  5  1  0  0  0  0
 27 25  1  0  0  0  0
 27  6  2  0  0  0  0
 28 30  1  0  0  0  0
 28  1  1  0  0  0  0
 29 31  1  0  0  0  0
 29 30  1  0  0  0  0
 32 29  2  0  0  0  0
M  END
>  <MODEL>
2

>  <REMARK>
 VINA RESULT:     -11.4      1.436      1.785
  Name = 
  2 active torsions:
  status: ('A' for Active; 'I' for Inactive)
    1  A    between atoms: C_2  and  C_24
    2  A    between atoms: N_10  and  C_24
                            x       y       z     vdW  Elec       q    Type
                         _______ _______ _______ _____ _____    ______ ____

>  <TORSDO>
F 2

$$$$
=
 OpenBabel11052417043D

 32 37  0  0  0  0  0  0  0  0999 V2000
  191.3910  176.5240  138.1820 C   0  0  0  0  0  0  0  0  0  0  0  0
  188.0900  178.2080  141.6550 C   0  0  0  0  0  0  0  0  0  0  0  0
  191.5360  177.3330  144.6890 C   0  0  0  0  0  1  0  0  0  0  0  0
  189.3200  177.2130  146.0020 N   0  0  0  0  0  0  0  0  0  0  0  0
  185.6580  178.6070  141.6750 C   0  0  0  0  0  0  0  0  0  0  0  0
  184.4650  178.6790  142.4140 C   0  0  0  0  0  0  0  0  0  0  0  0
  189.2780  177.7590  139.5520 C   0  0  0  0  0  0  0  0  0  0  0  0
  190.4150  177.2470  141.6100 C   0  0  0  0  0  3  0  0  0  0  0  0
  182.1030  178.8260  143.9250 C   0  0  0  0  0  3  0  0  0  0  0  0
  191.3960  176.5570  139.5800 C   0  0  0  0  0  3  0  0  0  0  0  0
  190.0490  177.3330  144.7750 C   0  0  0  0  0  0  0  0  0  0  0  0
  189.4240  178.0660  142.3890 C   0  0  0  0  0  0  0  0  0  0  0  0
  189.2120  177.5770  143.7770 C   0  0  0  0  0  0  0  0  0  0  0  0
  186.8300  178.0390  143.7370 C   0  0  0  0  0  0  0  0  0  0  0  0
  182.0680  179.0680  142.5490 C   0  0  0  0  0  3  0  0  0  0  0  0
  190.3520  177.1330  137.4710 C   0  0  0  0  0  3  0  0  0  0  0  0
  190.3580  177.1870  140.2740 C   0  0  0  0  0  0  0  0  0  0  0  0
  183.2430  178.9950  141.7960 C   0  0  0  0  0  3  0  0  0  0  0  0
  189.2950  177.7400  138.1540 C   0  0  0  0  0  3  0  0  0  0  0  0
  188.0800  177.4120  145.7850 N   0  0  0  0  0  2  0  0  0  0  0  0
  187.9320  177.6720  144.3960 C   0  0  0  0  0  0  0  0  0  0  0  0
  185.6550  178.1230  144.4140 N   0  0  0  0  0  2  0  0  0  0  0  0
  188.1950  178.2400  140.1780 C   0  0  0  0  0  3  0  0  0  0  0  0
  185.6170  178.8420  140.4350 O   0  0  0  0  0  0  0  0  0  0  0  0
  183.3120  178.5110  144.5500 C   0  0  0  0  0  3  0  0  0  0  0  0
  186.8880  178.2960  142.3270 C   0  0  0  0  0  0  0  0  0  0  0  0
  184.4900  178.4370  143.8010 C   0  0  0  0  0  0  0  0  0  0  0  0
  192.5180  175.8850  137.4510 C   0  0  0  0  0  2  0  0  0  0  0  0
  194.5790  174.7950  138.4040 C   0  0  0  0  0  0  0  0  0  0  0  0
  193.7210  175.9260  138.2680 N   0  0  0  0  0  2  0  0  0  0  0  0
  195.7430  174.8890  139.2170 N   0  0  0  0  0  1  0  0  0  0  0  0
  194.3170  173.7150  137.8130 O   0  0  0  0  0  0  0  0  0  0  0  0
  1 10  1  0  0  0  0
  2 26  1  0  0  0  0
  2 12  1  0  0  0  0
  3 11  1  0  0  0  0
  5 26  1  0  0  0  0
  5  6  1  0  0  0  0
  6 27  1  0  0  0  0
  7 23  1  0  0  0  0
  7 17  1  0  0  0  0
  8 12  2  0  0  0  0
  9 25  1  0  0  0  0
 10 17  2  0  0  0  0
 11  4  2  0  0  0  0
 12 13  1  0  0  0  0
 13 21  2  0  0  0  0
 13 11  1  0  0  0  0
 14 21  1  0  0  0  0
 14 22  1  0  0  0  0
 15  9  2  0  0  0  0
 16 19  1  0  0  0  0
 16  1  2  0  0  0  0
 17  8  1  0  0  0  0
 18  6  2  0  0  0  0
 18 15  1  0  0  0  0
 19  7  2  0  0  0  0
 20  4  1  0  0  0  0
 21 20  1  0  0  0  0
 23  2  2  0  0  0  0
 24  5  2  0  0  0  0
 26 14  2  0  0  0  0
 27 22  1  0  0  0  0
 27 25  2  0  0  0  0
 28  1  1  0  0  0  0
 28 30  1  0  0  0  0
 29 31  1  0  0  0  0
 30 29  1  0  0  0  0
 32 29  2  0  0  0  0
M  END
>  <MODEL>
3

>  <REMARK>
 VINA RESULT:     -10.9      3.549      8.731
  Name = 
  2 active torsions:
  status: ('A' for Active; 'I' for Inactive)
    1  A    between atoms: C_2  and  C_24
    2  A    between atoms: N_10  and  C_24
                            x       y       z     vdW  Elec       q    Type
                         _______ _______ _______ _____ _____    ______ ____

>  <TORSDO>
F 2

$$$$
=
 OpenBabel11052417043D

 32 37  0  0  1  0  0  0  0  0999 V2000
  189.1250  177.6600  146.9530 C   0  0  0  0  0  0  0  0  0  0  0  0
  186.4510  177.7740  142.6360 C   0  0  0  0  0  0  0  0  0  0  0  0
  190.6110  177.2050  140.5810 C   0  0  0  0  0  1  0  0  0  0  0  0
  189.0670  178.3510  138.8640 N   0  0  0  0  0  0  0  0  0  0  0  0
  184.1680  178.4830  142.0370 C   0  0  0  0  0  0  0  0  0  0  0  0
  183.2890  178.9790  141.0590 C   0  0  0  0  0  0  0  0  0  0  0  0
  187.1270  177.5490  144.9870 C   0  0  0  0  0  0  0  0  0  0  0  0
  188.8670  177.6160  143.3250 C   0  0  0  0  0  3  0  0  0  0  0  0
  181.5580  179.9600  139.0780 C   0  0  0  0  0  3  0  0  0  0  0  0
  189.4790  177.7010  145.6000 C   0  0  0  0  0  3  0  0  0  0  0  0
  189.3350  177.8600  140.1830 C   0  0  0  0  0  0  0  0  0  0  0  0
  187.8660  177.3550  142.2330 C   0  0  2  0  0  3  0  0  0  0  0  0
  188.2430  177.9580  140.9280 C   0  0  0  0  0  0  0  0  0  0  0  0
  185.9630  178.5850  140.3870 C   0  0  0  0  0  0  0  0  0  0  0  0
  181.0710  179.6870  140.3590 C   0  0  0  0  0  3  0  0  0  0  0  0
  187.7820  177.5330  147.3210 C   0  0  0  0  0  3  0  0  0  0  0  0
  188.4940  177.6260  144.6110 C   0  0  0  0  0  0  0  0  0  0  0  0
  181.9320  179.1990  141.3460 C   0  0  0  0  0  3  0  0  0  0  0  0
  186.7860  177.4870  146.3420 C   0  0  0  0  0  3  0  0  0  0  0  0
  187.8450  178.7050  138.7780 N   0  0  0  0  0  0  0  0  0  0  0  0
  187.2470  178.4650  140.0450 C   0  0  0  0  0  0  0  0  0  0  0  0
  185.0780  179.0580  139.4720 N   0  0  0  0  0  2  0  0  0  0  0  0
  186.1460  177.6240  144.0770 C   0  0  0  0  0  3  0  0  0  0  0  0
  183.7130  178.2270  143.1860 O   0  0  0  0  0  0  0  0  0  0  0  0
  182.9070  179.7450  138.7820 C   0  0  0  0  0  3  0  0  0  0  0  0
  185.5400  178.2570  141.7180 C   0  0  0  0  0  0  0  0  0  0  0  0
  183.7720  179.2560  139.7660 C   0  0  0  0  0  0  0  0  0  0  0  0
  190.1830  177.7020  147.9980 C   0  0  0  0  0  2  0  0  0  0  0  0
  192.4430  176.6650  148.3940 C   0  0  0  0  0  0  0  0  0  0  0  0
  191.1810  176.6800  147.7300 N   0  0  0  0  0  2  0  0  0  0  0  0
  193.3850  175.6420  148.0940 N   0  0  0  0  0  1  0  0  0  0  0  0
  192.7320  177.5480  149.2440 O   0  0  0  0  0  0  0  0  0  0  0  0
  1 16  1  0  0  0  0
  1 28  1  0  0  0  0
  2 23  1  0  0  0  0
  4 11  1  0  0  0  0
  5 24  2  0  0  0  0
  6 18  1  0  0  0  0
  6  5  1  0  0  0  0
  7 19  1  0  0  0  0
  8 17  2  0  0  0  0
  9 15  1  0  0  0  0
 10  1  2  0  0  0  0
 11  3  1  0  0  0  0
 11 13  2  0  0  0  0
 12  2  1  0  0  0  0
 12  8  1  1  0  0  0
 13 12  1  0  0  0  0
 14 26  1  0  0  0  0
 15 18  2  0  0  0  0
 17  7  1  0  0  0  0
 17 10  1  0  0  0  0
 19 16  2  0  0  0  0
 20  4  2  0  0  0  0
 20 21  1  0  0  0  0
 21 14  2  0  0  0  0
 21 13  1  0  0  0  0
 22 27  1  0  0  0  0
 22 14  1  0  0  0  0
 23  7  2  0  0  0  0
 25  9  2  0  0  0  0
 25 27  1  0  0  0  0
 26  5  1  0  0  0  0
 26  2  2  0  0  0  0
 27  6  2  0  0  0  0
 29 32  2  0  0  0  0
 30 28  1  0  0  0  0
 30 29  1  0  0  0  0
 31 29  1  0  0  0  0
M  END
>  <MODEL>
4

>  <REMARK>
 VINA RESULT:     -10.5      2.458      8.294
  Name = 
  2 active torsions:
  status: ('A' for Active; 'I' for Inactive)
    1  A    between atoms: C_2  and  C_24
    2  A    between atoms: N_10  and  C_24
                            x       y       z     vdW  Elec       q    Type
                         _______ _______ _______ _____ _____    ______ ____

>  <TORSDO>
F 2

$$$$
=
 OpenBabel11052417043D

 32 37  0  0  0  0  0  0  0  0999 V2000
  182.2580  178.4340  141.0100 C   0  0  0  0  0  0  0  0  0  0  0  0
  187.0780  178.3160  142.6080 C   0  0  0  0  0  0  0  0  0  0  0  0
  188.1110  178.4420  138.0510 C   0  0  0  0  0  1  0  0  0  0  0  0
  190.1080  177.3380  139.2510 N   0  0  0  0  0  0  0  0  0  0  0  0
  188.1760  177.7640  144.7440 C   0  0  0  0  0  0  0  0  0  0  0  0
  189.3180  177.2920  145.4130 C   0  0  0  0  0  0  0  0  0  0  0  0
  184.6420  178.6060  142.4790 C   0  0  0  0  0  0  0  0  0  0  0  0
  185.8440  178.3140  140.4150 C   0  0  0  0  0  2  0  0  0  0  0  0
  191.6210  176.3540  146.7180 C   0  0  0  0  0  3  0  0  0  0  0  0
  183.4870  178.2950  140.3570 C   0  0  0  0  0  3  0  0  0  0  0  0
  188.7780  177.8720  139.2530 C   0  0  0  0  0  0  0  0  0  0  0  0
  187.1480  178.5990  141.1060 C   0  0  0  0  0  0  0  0  0  0  0  0
  188.3090  177.9020  140.4920 C   0  0  0  0  0  0  0  0  0  0  0  0
  189.3530  177.4340  142.6320 C   0  0  0  0  0  0  0  0  0  0  0  0
  190.5000  176.7300  147.4630 C   0  0  0  0  0  3  0  0  0  0  0  0
  182.2210  178.6870  142.3850 C   0  0  0  0  0  3  0  0  0  0  0  0
  184.6830  178.3990  141.0750 C   0  0  0  0  0  0  0  0  0  0  0  0
  189.3530  177.1970  146.8140 C   0  0  0  0  0  3  0  0  0  0  0  0
  183.4080  178.7640  143.1180 C   0  0  0  0  0  3  0  0  0  0  0  0
  190.4680  177.0800  140.4470 N   0  0  0  0  0  0  0  0  0  0  0  0
  189.3860  177.4320  141.2980 C   0  0  0  0  0  0  0  0  0  0  0  0
  190.4350  176.9870  143.3190 N   0  0  0  0  0  2  0  0  0  0  0  0
  185.7550  178.5640  143.2240 C   0  0  0  0  0  3  0  0  0  0  0  0
  187.1750  178.1150  145.4280 O   0  0  0  0  0  0  0  0  0  0  0  0
  191.5970  176.4440  145.3240 C   0  0  0  0  0  3  0  0  0  0  0  0
  188.1690  177.8630  143.3210 C   0  0  0  0  0  0  0  0  0  0  0  0
  190.4520  176.9110  144.6700 C   0  0  0  0  0  0  0  0  0  0  0  0
  180.9920  178.3600  140.2330 C   0  0  0  0  0  2  0  0  0  0  0  0
  180.8910  176.1530  139.0220 C   0  0  0  0  0  0  0  0  0  0  0  0
  181.1920  177.5480  139.0430 N   0  0  0  0  0  2  0  0  0  0  0  0
  181.1060  175.4050  137.8320 N   0  0  0  0  0  1  0  0  0  0  0  0
  180.4370  175.5790  140.0460 O   0  0  0  0  0  0  0  0  0  0  0  0
  1 16  1  0  0  0  0
  2 23  2  0  0  0  0
  2 26  1  0  0  0  0
  3 11  1  0  0  0  0
  4 11  2  0  0  0  0
  4 20  1  0  0  0  0
  5  6  1  0  0  0  0
  5 24  2  0  0  0  0
  6 18  1  0  0  0  0
  7 19  1  0  0  0  0
  7 23  1  0  0  0  0
  8 17  1  0  0  0  0
  8 12  1  0  0  0  0
  9 15  1  0  0  0  0
 10  1  2  0  0  0  0
 10 17  1  0  0  0  0
 11 13  1  0  0  0  0
 12  2  1  0  0  0  0
 13 12  2  0  0  0  0
 13 21  1  0  0  0  0
 14 22  1  0  0  0  0
 14 26  2  0  0  0  0
 16 19  2  0  0  0  0
 17  7  2  0  0  0  0
 18 15  2  0  0  0  0
 20 21  2  0  0  0  0
 21 14  1  0  0  0  0
 22 27  1  0  0  0  0
 25  9  2  0  0  0  0
 26  5  1  0  0  0  0
 27 25  1  0  0  0  0
 27  6  2  0  0  0  0
 28  1  1  0  0  0  0
 29 30  1  0  0  0  0
 29 32  2  0  0  0  0
 30 28  1  0  0  0  0
 31 29  1  0  0  0  0
M  END
>  <MODEL>
5

>  <REMARK>
 VINA RESULT:     -10.4      1.714      2.005
  Name = 
  2 active torsions:
  status: ('A' for Active; 'I' for Inactive)
    1  A    between atoms: C_2  and  C_24
    2  A    between atoms: N_10  and  C_24
                            x       y       z     vdW  Elec       q    Type
                         _______ _______ _______ _____ _____    ______ ____

>  <TORSDO>
F 2

$$$$
=
 OpenBabel11052417043D

 32 37  0  0  0  0  0  0  0  0999 V2000
  182.5150  178.4590  140.3640 C   0  0  0  0  0  0  0  0  0  0  0  0
  187.1650  178.3460  142.4040 C   0  0  0  0  0  0  0  0  0  0  0  0
  188.6180  178.5720  137.9680 C   0  0  0  0  0  1  0  0  0  0  0  0
  190.5040  177.4600  139.3280 N   0  0  0  0  0  0  0  0  0  0  0  0
  188.0630  177.7600  144.6230 C   0  0  0  0  0  0  0  0  0  0  0  0
  189.1420  177.2820  145.3870 C   0  0  0  0  0  0  0  0  0  0  0  0
  184.7490  178.6200  142.0530 C   0  0  0  0  0  0  0  0  0  0  0  0
  186.1410  178.3790  140.1050 C   0  0  0  0  0  2  0  0  0  0  0  0
  191.3210  176.3370  146.8830 C   0  0  0  0  0  3  0  0  0  0  0  0
  183.8000  178.3430  139.8270 C   0  0  0  0  0  3  0  0  0  0  0  0
  189.1760  177.9830  139.2160 C   0  0  0  0  0  0  0  0  0  0  0  0
  187.3720  178.6600  140.9220 C   0  0  0  0  0  0  0  0  0  0  0  0
  188.5920  177.9840  140.4060 C   0  0  0  0  0  0  0  0  0  0  0  0
  189.4350  177.4810  142.6250 C   0  0  0  0  0  0  0  0  0  0  0  0
  190.1320  176.6890  147.5270 C   0  0  0  0  0  3  0  0  0  0  0  0
  182.3460  178.6840  141.7340 C   0  0  0  0  0  3  0  0  0  0  0  0
  184.9230  178.4420  140.6550 C   0  0  0  0  0  0  0  0  0  0  0  0
  189.0460  177.1600  146.7830 C   0  0  0  0  0  3  0  0  0  0  0  0
  183.4590  178.7550  142.5760 C   0  0  0  0  0  3  0  0  0  0  0  0
  190.7540  177.1810  140.5470 N   0  0  0  0  0  0  0  0  0  0  0  0
  189.5940  177.5070  141.3000 C   0  0  0  0  0  0  0  0  0  0  0  0
  190.4530  177.0290  143.4020 N   0  0  0  0  0  2  0  0  0  0  0  0
  185.7870  178.5710  142.8980 C   0  0  0  0  0  3  0  0  0  0  0  0
  186.9990  178.0890  145.2170 O   0  0  0  0  0  0  0  0  0  0  0  0
  191.4270  176.4550  145.4950 C   0  0  0  0  0  3  0  0  0  0  0  0
  188.1880  177.8870  143.2080 C   0  0  0  0  0  0  0  0  0  0  0  0
  190.3440  176.9250  144.7470 C   0  0  0  0  0  0  0  0  0  0  0  0
  181.3280  178.3910  139.4700 C   0  0  0  0  0  2  0  0  0  0  0  0
  180.7540  180.8140  139.0920 C   0  0  0  0  0  0  0  0  0  0  0  0
  180.4780  179.5500  139.6910 N   0  0  0  0  0  2  0  0  0  0  0  0
  179.8910  181.9160  139.3420 N   0  0  0  0  0  1  0  0  0  0  0  0
  181.7560  180.9650  138.3430 O   0  0  0  0  0  0  0  0  0  0  0  0
  1 16  1  0  0  0  0
  2 23  2  0  0  0  0
  2 26  1  0  0  0  0
  3 11  1  0  0  0  0
  4 20  1  0  0  0  0
  5 24  2  0  0  0  0
  5  6  1  0  0  0  0
  6 18  1  0  0  0  0
  7 19  1  0  0  0  0
  7 23  1  0  0  0  0
  8 17  1  0  0  0  0
  8 12  1  0  0  0  0
  9 15  1  0  0  0  0
 10  1  2  0  0  0  0
 10 17  1  0  0  0  0
 11  4  2  0  0  0  0
 11 13  1  0  0  0  0
 12  2  1  0  0  0  0
 13 12  2  0  0  0  0
 13 21  1  0  0  0  0
 14 26  2  0  0  0  0
 14 22  1  0  0  0  0
 16 19  2  0  0  0  0
 17  7  2  0  0  0  0
 18 15  2  0  0  0  0
 20 21  2  0  0  0  0
 21 14  1  0  0  0  0
 22 27  1  0  0  0  0
 25  9  2  0  0  0  0
 26  5  1  0  0  0  0
 27  6  2  0  0  0  0
 27 25  1  0  0  0  0
 28 30  1  0  0  0  0
 28  1  1  0  0  0  0
 29 31  1  0  0  0  0
 29 30  1  0  0  0  0
 32 29  2  0  0  0  0
M  END
>  <MODEL>
6

>  <REMARK>
 VINA RESULT:     -10.4      1.228      1.361
  Name = 
  2 active torsions:
  status: ('A' for Active; 'I' for Inactive)
    1  A    between atoms: C_2  and  C_24
    2  A    between atoms: N_10  and  C_24
                            x       y       z     vdW  Elec       q    Type
                         _______ _______ _______ _____ _____    ______ ____

>  <TORSDO>
F 2

$$$$
=
 OpenBabel11052417043D

 32 37  0  0  0  0  0  0  0  0999 V2000
  191.2160  176.5100  138.4960 C   0  0  0  0  0  0  0  0  0  0  0  0
  187.7950  178.2480  141.8230 C   0  0  0  0  0  0  0  0  0  0  0  0
  191.1710  177.5290  144.9740 C   0  0  0  0  0  1  0  0  0  0  0  0
  188.9240  177.4140  146.2310 N   0  0  0  0  0  0  0  0  0  0  0  0
  185.3570  178.6060  141.7650 C   0  0  0  0  0  0  0  0  0  0  0  0
  184.1440  178.6810  142.4710 C   0  0  0  0  0  0  0  0  0  0  0  0
  189.0460  177.7520  139.7680 C   0  0  0  0  0  0  0  0  0  0  0  0
  190.1360  177.3250  141.8710 C   0  0  0  0  0  3  0  0  0  0  0  0
  181.7400  178.8370  143.9130 C   0  0  0  0  0  3  0  0  0  0  0  0
  191.1820  176.5870  139.8910 C   0  0  0  0  0  3  0  0  0  0  0  0
  189.6840  177.5080  145.0200 C   0  0  0  0  0  0  0  0  0  0  0  0
  189.1100  178.1520  142.5970 C   0  0  0  0  0  0  0  0  0  0  0  0
  188.8690  177.7050  143.9940 C   0  0  0  0  0  0  0  0  0  0  0  0
  186.4820  178.1250  143.8760 C   0  0  0  0  0  0  0  0  0  0  0  0
  181.7380  179.0330  142.5290 C   0  0  0  0  0  3  0  0  0  0  0  0
  190.1870  177.0770  137.7380 C   0  0  0  0  0  3  0  0  0  0  0  0
  190.1150  177.2210  140.5370 C   0  0  0  0  0  0  0  0  0  0  0  0
  182.9340  178.9560  141.8110 C   0  0  0  0  0  3  0  0  0  0  0  0
  189.1010  177.6880  138.3720 C   0  0  0  0  0  3  0  0  0  0  0  0
  187.6860  177.5850  145.9750 N   0  0  0  0  0  2  0  0  0  0  0  0
  187.5720  177.7980  144.5750 C   0  0  0  0  0  0  0  0  0  0  0  0
  185.2890  178.2110  144.5180 N   0  0  0  0  0  2  0  0  0  0  0  0
  187.9390  178.2340  140.3500 C   0  0  0  0  0  3  0  0  0  0  0  0
  185.3460  178.8000  140.5180 O   0  0  0  0  0  0  0  0  0  0  0  0
  182.9360  178.5620  144.5800 C   0  0  0  0  0  3  0  0  0  0  0  0
  186.5740  178.3370  142.4600 C   0  0  0  0  0  0  0  0  0  0  0  0
  184.1360  178.4840  143.8650 C   0  0  0  0  0  0  0  0  0  0  0  0
  192.3720  175.8670  137.8160 C   0  0  0  0  0  2  0  0  0  0  0  0
  191.8190  174.1530  136.0560 C   0  0  0  0  0  0  0  0  0  0  0  0
  192.0200  174.5130  137.4210 N   0  0  0  0  0  2  0  0  0  0  0  0
  191.4740  172.8130  135.7240 N   0  0  0  0  0  1  0  0  0  0  0  0
  191.9420  175.0090  135.1410 O   0  0  0  0  0  0  0  0  0  0  0  0
  1 10  1  0  0  0  0
  2 26  1  0  0  0  0
  2 12  1  0  0  0  0
  3 11  1  0  0  0  0
  5 26  1  0  0  0  0
  5  6  1  0  0  0  0
  6 27  1  0  0  0  0
  7 23  1  0  0  0  0
  7 17  1  0  0  0  0
  8 12  2  0  0  0  0
  9 25  1  0  0  0  0
 10 17  2  0  0  0  0
 11  4  2  0  0  0  0
 12 13  1  0  0  0  0
 13 21  2  0  0  0  0
 13 11  1  0  0  0  0
 14 22  1  0  0  0  0
 14 21  1  0  0  0  0
 15  9  2  0  0  0  0
 16 19  1  0  0  0  0
 16  1  2  0  0  0  0
 17  8  1  0  0  0  0
 18  6  2  0  0  0  0
 18 15  1  0  0  0  0
 19  7  2  0  0  0  0
 20  4  1  0  0  0  0
 21 20  1  0  0  0  0
 23  2  2  0  0  0  0
 24  5  2  0  0  0  0
 26 14  2  0  0  0  0
 27 22  1  0  0  0  0
 27 25  2  0  0  0  0
 28  1  1  0  0  0  0
 29 30  1  0  0  0  0
 30 28  1  0  0  0  0
 31 29  1  0  0  0  0
 32 29  2  0  0  0  0
M  END
>  <MODEL>
7

>  <REMARK>
 VINA RESULT:     -10.3      3.543      8.378
  Name = 
  2 active torsions:
  status: ('A' for Active; 'I' for Inactive)
    1  A    between atoms: C_2  and  C_24
    2  A    between atoms: N_10  and  C_24
                            x       y       z     vdW  Elec       q    Type
                         _______ _______ _______ _____ _____    ______ ____

>  <TORSDO>
F 2

$$$$
=
 OpenBabel11052417043D

 32 37  0  0  0  0  0  0  0  0999 V2000
  182.2760  178.1750  139.2160 C   0  0  0  0  0  0  0  0  0  0  0  0
  186.4670  178.3730  142.0780 C   0  0  0  0  0  0  0  0  0  0  0  0
  188.7100  178.4590  137.9790 C   0  0  0  0  0  1  0  0  0  0  0  0
  190.3500  177.5000  139.7210 N   0  0  0  0  0  0  0  0  0  0  0  0
  186.9580  177.9310  144.4530 C   0  0  0  0  0  0  0  0  0  0  0  0
  187.8930  177.5400  145.4270 C   0  0  0  0  0  0  0  0  0  0  0  0
  184.1500  178.5170  141.2750 C   0  0  0  0  0  0  0  0  0  0  0  0
  185.8880  178.2510  139.6320 C   0  0  0  0  0  2  0  0  0  0  0  0
  189.7900  176.7670  147.3470 C   0  0  0  0  0  3  0  0  0  0  0  0
  183.6420  178.0950  138.9310 C   0  0  0  0  0  3  0  0  0  0  0  0
  189.0470  177.9560  139.3390 C   0  0  0  0  0  0  0  0  0  0  0  0
  186.9340  178.6260  140.6450 C   0  0  0  0  0  0  0  0  0  0  0  0
  188.2530  177.9840  140.3990 C   0  0  0  0  0  0  0  0  0  0  0  0
  188.6870  177.6250  142.7590 C   0  0  0  0  0  0  0  0  0  0  0  0
  188.4890  177.0930  147.7410 C   0  0  0  0  0  3  0  0  0  0  0  0
  181.8470  178.4560  140.5170 C   0  0  0  0  0  3  0  0  0  0  0  0
  184.5870  178.2830  139.9450 C   0  0  0  0  0  0  0  0  0  0  0  0
  187.5450  177.4780  146.7860 C   0  0  0  0  0  3  0  0  0  0  0  0
  182.7810  178.6170  141.5450 C   0  0  0  0  0  3  0  0  0  0  0  0
  190.3790  177.2890  140.9780 N   0  0  0  0  0  0  0  0  0  0  0  0
  189.0880  177.5960  141.4860 C   0  0  0  0  0  0  0  0  0  0  0  0
  189.5590  177.2560  143.7330 N   0  0  0  0  0  2  0  0  0  0  0  0
  185.0140  178.5560  142.2980 C   0  0  0  0  0  3  0  0  0  0  0  0
  185.7910  178.2380  144.8230 O   0  0  0  0  0  0  0  0  0  0  0  0
  190.1470  176.8250  145.9980 C   0  0  0  0  0  3  0  0  0  0  0  0
  187.3400  177.9990  143.0800 C   0  0  0  0  0  0  0  0  0  0  0  0
  189.2060  177.2100  145.0380 C   0  0  0  0  0  0  0  0  0  0  0  0
  181.2790  178.0110  138.1240 C   0  0  0  0  0  2  0  0  0  0  0  0
  180.4310  175.6400  138.0770 C   0  0  0  0  0  0  0  0  0  0  0  0
  180.3050  176.9980  138.4950 N   0  0  0  0  0  2  0  0  0  0  0  0
  179.4490  174.6880  138.4670 N   0  0  0  0  0  1  0  0  0  0  0  0
  181.4030  175.2760  137.3650 O   0  0  0  0  0  0  0  0  0  0  0  0
  1 16  1  0  0  0  0
  2 23  2  0  0  0  0
  2 26  1  0  0  0  0
  3 11  1  0  0  0  0
  4 20  1  0  0  0  0
  5 24  2  0  0  0  0
  5  6  1  0  0  0  0
  6 18  1  0  0  0  0
  7 19  1  0  0  0  0
  7 23  1  0  0  0  0
  8 17  1  0  0  0  0
  8 12  1  0  0  0  0
  9 15  1  0  0  0  0
 10  1  2  0  0  0  0
 10 17  1  0  0  0  0
 11  4  2  0  0  0  0
 11 13  1  0  0  0  0
 12  2  1  0  0  0  0
 13 12  2  0  0  0  0
 13 21  1  0  0  0  0
 14 26  2  0  0  0  0
 14 22  1  0  0  0  0
 16 19  2  0  0  0  0
 17  7  2  0  0  0  0
 18 15  2  0  0  0  0
 20 21  2  0  0  0  0
 21 14  1  0  0  0  0
 22 27  1  0  0  0  0
 25  9  2  0  0  0  0
 26  5  1  0  0  0  0
 27  6  2  0  0  0  0
 27 25  1  0  0  0  0
 28 30  1  0  0  0  0
 28  1  1  0  0  0  0
 29 31  1  0  0  0  0
 29 30  1  0  0  0  0
 32 29  2  0  0  0  0
M  END
>  <MODEL>
8

>  <REMARK>
 VINA RESULT:      -9.8      2.337      2.822
  Name = 
  2 active torsions:
  status: ('A' for Active; 'I' for Inactive)
    1  A    between atoms: C_2  and  C_24
    2  A    between atoms: N_10  and  C_24
                            x       y       z     vdW  Elec       q    Type
                         _______ _______ _______ _____ _____    ______ ____

>  <TORSDO>
F 2

$$$$
=
 OpenBabel11052417043D

 32 37  0  0  1  0  0  0  0  0999 V2000
  188.5000  177.5630  145.1650 C   0  0  0  0  0  0  0  0  0  0  0  0
  189.6770  177.7080  140.2270 C   0  0  0  0  0  0  0  0  0  0  0  0
  185.2130  178.9750  139.6680 C   0  0  0  0  0  1  0  0  0  0  0  0
  185.9780  177.8960  137.4560 N   0  0  0  0  0  0  0  0  0  0  0  0
  191.5430  176.8390  138.8700 C   0  0  0  0  0  0  0  0  0  0  0  0
  192.0000  176.3790  137.6230 C   0  0  0  0  0  0  0  0  0  0  0  0
  189.7940  177.7060  142.6800 C   0  0  0  0  0  0  0  0  0  0  0  0
  187.6380  178.0360  141.6640 C   0  0  0  0  0  3  0  0  0  0  0  0
  192.8830  175.4760  135.1160 C   0  0  0  0  0  3  0  0  0  0  0  0
  187.7470  177.7310  143.9990 C   0  0  0  0  0  3  0  0  0  0  0  0
  186.1990  178.2420  138.8280 C   0  0  0  0  0  0  0  0  0  0  0  0
  188.2820  178.3240  140.3360 C   0  0  2  0  0  3  0  0  0  0  0  0
  187.4410  177.9350  139.1730 C   0  0  0  0  0  0  0  0  0  0  0  0
  189.3330  177.1400  137.8790 C   0  0  0  0  0  0  0  0  0  0  0  0
  193.7730  175.5300  136.1910 C   0  0  0  0  0  3  0  0  0  0  0  0
  189.8950  177.4970  145.0940 C   0  0  0  0  0  3  0  0  0  0  0  0
  188.3810  177.8240  142.7570 C   0  0  0  0  0  0  0  0  0  0  0  0
  193.3340  175.9800  137.4400 C   0  0  0  0  0  3  0  0  0  0  0  0
  190.5390  177.5600  143.8550 C   0  0  0  0  0  3  0  0  0  0  0  0
  187.0520  177.4260  136.9530 N   0  0  0  0  0  0  0  0  0  0  0  0
  188.0370  177.4390  137.9780 C   0  0  0  0  0  0  0  0  0  0  0  0
  189.8190  176.6930  136.6920 N   0  0  0  0  0  2  0  0  0  0  0  0
  190.4280  177.6420  141.5020 C   0  0  0  0  0  3  0  0  0  0  0  0
  192.3600  176.8980  139.8310 O   0  0  0  0  0  0  0  0  0  0  0  0
  191.5530  175.8700  135.2870 C   0  0  0  0  0  3  0  0  0  0  0  0
  190.1860  177.2500  139.0280 C   0  0  0  0  0  0  0  0  0  0  0  0
  191.1100  176.3200  136.5340 C   0  0  0  0  0  0  0  0  0  0  0  0
  187.8190  177.5030  146.4870 C   0  0  0  0  0  2  0  0  0  0  0  0
  185.5870  178.6390  146.7580 C   0  0  0  0  0  0  0  0  0  0  0  0
  186.3780  177.5430  146.3000 N   0  0  0  0  0  2  0  0  0  0  0  0
  184.1800  178.6270  146.5510 N   0  0  0  0  0  1  0  0  0  0  0  0
  186.1230  179.6160  147.3450 O   0  0  0  0  0  0  0  0  0  0  0  0
  1 28  1  0  0  0  0
  2 12  1  0  0  0  0
  2 23  1  0  0  0  0
  4 11  1  0  0  0  0
  5 26  1  0  0  0  0
  5 24  2  0  0  0  0
  6  5  1  0  0  0  0
  7 17  1  0  0  0  0
  7 19  1  0  0  0  0
  8 17  2  0  0  0  0
  9 25  2  0  0  0  0
  9 15  1  0  0  0  0
 10  1  2  0  0  0  0
 11 13  2  0  0  0  0
 11  3  1  0  0  0  0
 12  8  1  1  0  0  0
 13 12  1  0  0  0  0
 14 21  2  0  0  0  0
 14 26  1  0  0  0  0
 15 18  2  0  0  0  0
 16  1  1  0  0  0  0
 17 10  1  0  0  0  0
 18  6  1  0  0  0  0
 19 16  2  0  0  0  0
 20  4  2  0  0  0  0
 20 21  1  0  0  0  0
 21 13  1  0  0  0  0
 22 14  1  0  0  0  0
 23  7  2  0  0  0  0
 25 27  1  0  0  0  0
 26  2  2  0  0  0  0
 27 22  1  0  0  0  0
 27  6  2  0  0  0  0
 29 32  2  0  0  0  0
 30 28  1  0  0  0  0
 30 29  1  0  0  0  0
 31 29  1  0  0  0  0
M  END
>  <MODEL>
9

>  <REMARK>
 VINA RESULT:      -9.8      3.707      7.000
  Name = 
  2 active torsions:
  status: ('A' for Active; 'I' for Inactive)
    1  A    between atoms: C_2  and  C_24
    2  A    between atoms: N_10  and  C_24
                            x       y       z     vdW  Elec       q    Type
                         _______ _______ _______ _____ _____    ______ ____

>  <TORSDO>
F 2

$$$$
