=
 OpenBabel11052413313D

 28 31  0  0  1  0  0  0  0  0999 V2000
  190.2760  176.3520  144.7110 C   0  0  0  0  0  0  0  0  0  0  0  0
  185.6900  177.9670  142.7990 C   0  0  0  0  0  3  0  0  0  0  0  0
  187.9400  178.2310  148.4850 O   0  0  0  0  0  0  0  0  0  0  0  0
  184.4530  178.6140  144.7880 C   0  0  0  0  0  0  0  0  0  0  0  0
  186.9160  178.0200  145.0030 C   0  0  2  0  0  3  0  0  0  0  0  0
  183.3600  178.5950  142.6240 C   0  0  0  0  0  0  0  0  0  0  0  0
  185.6500  178.1520  144.1900 C   0  0  0  0  0  0  0  0  0  0  0  0
  185.7010  179.0080  146.9410 C   0  0  0  0  0  2  0  0  0  0  0  0
  183.3130  178.8110  144.0020 C   0  0  0  0  0  3  0  0  0  0  0  0
  189.1380  177.3040  146.6500 C   0  0  0  0  0  0  0  0  0  0  0  0
  187.7980  176.8570  144.5500 C   0  0  0  0  0  2  0  0  0  0  0  0
  184.3410  178.8210  146.2750 C   0  0  0  0  0  2  0  0  0  0  0  0
  191.4920  176.7300  146.7760 C   0  0  0  0  0  3  0  0  0  0  0  0
  187.9180  177.8550  147.2810 C   0  0  0  0  0  0  0  0  0  0  0  0
  190.3380  177.2420  147.3710 C   0  0  0  0  0  3  0  0  0  0  0  0
  182.1970  178.8020  141.8300 N   0  0  0  0  0  1  0  0  0  0  0  0
  184.5490  178.1790  142.0200 C   0  0  0  0  0  3  0  0  0  0  0  0
  186.6290  177.8800  146.5040 C   0  0  2  0  0  3  0  0  0  0  0  0
  191.4600  176.2830  145.4560 C   0  0  0  0  0  3  0  0  0  0  0  0
  189.1020  176.8550  145.3090 C   0  0  0  0  0  0  0  0  0  0  0  0
  190.2850  175.8500  143.3290 C   0  0  0  0  0  0  0  0  0  0  0  0
  189.9320  176.6810  142.2130 N   0  0  0  0  0  2  0  0  0  0  0  0
  190.6200  174.6550  143.1180 O   0  0  0  0  0  0  0  0  0  0  0  0
  190.6400  178.9770  142.7760 C   0  0  0  0  0  1  0  0  0  0  0  0
  189.5210  178.0840  142.2610 C   0  0  1  0  0  3  0  0  0  0  0  0
  188.9400  178.5420  140.9570 C   0  0  0  0  0  0  0  0  0  0  0  0
  189.5210  178.1220  139.7670 O   0  0  0  0  0  0  0  0  0  0  0  0
  187.9410  179.3090  140.9230 O   0  0  0  0  0  1  0  0  0  0  0  0
  1 20  2  0  0  0  0
  1 19  1  0  0  0  0
  2  7  1  0  0  0  0
  4 12  1  0  0  0  0
  5 11  1  6  0  0  0
  5 18  1  0  0  0  0
  6  9  2  0  0  0  0
  7  4  2  0  0  0  0
  7  5  1  0  0  0  0
  9  4  1  0  0  0  0
 10 14  1  0  0  0  0
 10 15  2  0  0  0  0
 11 20  1  0  0  0  0
 12  8  1  0  0  0  0
 13 15  1  0  0  0  0
 14  3  2  0  0  0  0
 16  6  1  0  0  0  0
 17  6  1  0  0  0  0
 17  2  2  0  0  0  0
 18  8  1  1  0  0  0
 18 14  1  0  0  0  0
 19 13  2  0  0  0  0
 20 10  1  0  0  0  0
 21  1  1  0  0  0  0
 22 25  1  0  0  0  0
 22 21  1  0  0  0  0
 23 21  2  0  0  0  0
 25 24  1  6  0  0  0
 26 25  1  0  0  0  0
 27 26  2  0  0  0  0
 28 26  1  0  0  0  0
M  END
>  <MODEL>
1

>  <REMARK>
 VINA RESULT:     -10.4      0.000      0.000
  Name = 
  3 active torsions:
  status: ('A' for Active; 'I' for Inactive)
    1  A    between atoms: C_1  and  C_2
    2  A    between atoms: N_3  and  CA_11
    3  A    between atoms: C_6  and  CA_11
                            x       y       z     vdW  Elec       q    Type
                         _______ _______ _______ _____ _____    ______ ____

>  <TORSDO>
F 3

$$$$
=
 OpenBabel11052413313D

 28 31  0  0  1  0  0  0  0  0999 V2000
  183.5700  178.7280  141.7810 C   0  0  0  0  0  0  0  0  0  0  0  0
  188.3980  176.9120  142.6150 C   0  0  0  0  0  3  0  0  0  0  0  0
  184.1020  178.7460  146.5710 O   0  0  0  0  0  0  0  0  0  0  0  0
  188.7100  177.2350  145.0030 C   0  0  0  0  0  0  0  0  0  0  0  0
  186.4110  177.6360  143.9920 C   0  0  2  0  0  3  0  0  0  0  0  0
  190.5560  176.4850  143.6210 C   0  0  0  0  0  0  0  0  0  0  0  0
  187.8800  177.3050  143.8590 C   0  0  0  0  0  0  0  0  0  0  0  0
  186.6960  177.6260  146.4670 C   0  0  0  0  0  2  0  0  0  0  0  0
  190.0460  176.8460  144.8700 C   0  0  0  0  0  3  0  0  0  0  0  0
  183.7870  178.7430  144.2120 C   0  0  0  0  0  0  0  0  0  0  0  0
  185.8680  178.4320  142.8060 C   0  0  0  0  0  2  0  0  0  0  0  0
  188.2190  177.6540  146.3630 C   0  0  0  0  0  2  0  0  0  0  0  0
  181.6210  179.1000  143.1770 C   0  0  0  0  0  3  0  0  0  0  0  0
  184.6200  178.6080  145.4290 C   0  0  0  0  0  0  0  0  0  0  0  0
  182.4100  178.9790  144.3220 C   0  0  0  0  0  3  0  0  0  0  0  0
  191.9150  176.0850  143.4960 N   0  0  0  0  0  1  0  0  0  0  0  0
  189.7310  176.5120  142.4950 C   0  0  0  0  0  3  0  0  0  0  0  0
  186.1030  178.3920  145.2910 C   0  0  2  0  0  3  0  0  0  0  0  0
  182.1990  178.9800  141.9140 C   0  0  0  0  0  3  0  0  0  0  0  0
  184.3770  178.6170  142.9320 C   0  0  0  0  0  0  0  0  0  0  0  0
  184.1380  178.6290  140.4270 C   0  0  0  0  0  0  0  0  0  0  0  0
  183.5910  177.7500  139.4330 N   0  0  0  0  0  2  0  0  0  0  0  0
  185.1320  179.3430  140.1320 O   0  0  0  0  0  0  0  0  0  0  0  0
  181.1320  177.5770  139.3470 C   0  0  0  0  0  1  0  0  0  0  0  0
  182.4480  176.8530  139.5900 C   0  0  1  0  0  3  0  0  0  0  0  0
  182.6030  175.6010  138.7790 C   0  0  0  0  0  0  0  0  0  0  0  0
  181.4890  174.8140  138.5220 O   0  0  0  0  0  1  0  0  0  0  0  0
  183.7280  175.2470  138.3360 O   0  0  0  0  0  0  0  0  0  0  0  0
  1 19  2  0  0  0  0
  1 20  1  0  0  0  0
  2  7  1  0  0  0  0
  4 12  1  0  0  0  0
  5 11  1  6  0  0  0
  5 18  1  0  0  0  0
  6  9  2  0  0  0  0
  7  5  1  0  0  0  0
  7  4  2  0  0  0  0
  9  4  1  0  0  0  0
 10 15  1  0  0  0  0
 10 14  1  0  0  0  0
 11 20  1  0  0  0  0
 12  8  1  0  0  0  0
 13 15  2  0  0  0  0
 14  3  2  0  0  0  0
 16  6  1  0  0  0  0
 17  2  2  0  0  0  0
 17  6  1  0  0  0  0
 18 14  1  0  0  0  0
 18  8  1  1  0  0  0
 19 13  1  0  0  0  0
 20 10  2  0  0  0  0
 21  1  1  0  0  0  0
 22 25  1  0  0  0  0
 22 21  1  0  0  0  0
 23 21  2  0  0  0  0
 25 24  1  6  0  0  0
 26 25  1  0  0  0  0
 27 26  1  0  0  0  0
 28 26  2  0  0  0  0
M  END
>  <MODEL>
2

>  <REMARK>
 VINA RESULT:     -10.2      2.812      6.718
  Name = 
  3 active torsions:
  status: ('A' for Active; 'I' for Inactive)
    1  A    between atoms: C_1  and  C_2
    2  A    between atoms: N_3  and  CA_11
    3  A    between atoms: C_6  and  CA_11
                            x       y       z     vdW  Elec       q    Type
                         _______ _______ _______ _____ _____    ______ ____

>  <TORSDO>
F 3

$$$$
=
 OpenBabel11052413313D

 28 31  0  0  1  0  0  0  0  0999 V2000
  186.8960  178.3960  140.7440 C   0  0  0  0  0  0  0  0  0  0  0  0
  190.0520  176.9510  144.6500 C   0  0  0  0  0  3  0  0  0  0  0  0
  184.1590  178.6090  144.7070 O   0  0  0  0  0  0  0  0  0  0  0  0
  188.7130  177.3740  146.6340 C   0  0  0  0  0  0  0  0  0  0  0  0
  187.6270  177.5790  144.3430 C   0  0  2  0  0  3  0  0  0  0  0  0
  191.0350  176.7100  146.8470 C   0  0  0  0  0  0  0  0  0  0  0  0
  188.8330  177.3480  145.2240 C   0  0  0  0  0  0  0  0  0  0  0  0
  186.2210  177.6700  146.3990 C   0  0  0  0  0  2  0  0  0  0  0  0
  189.8210  177.0750  147.4320 C   0  0  0  0  0  3  0  0  0  0  0  0
  185.4670  178.5060  142.7200 C   0  0  0  0  0  0  0  0  0  0  0  0
  187.9690  178.2960  143.0380 C   0  0  0  0  0  2  0  0  0  0  0  0
  187.4380  177.8020  147.3110 C   0  0  0  0  0  2  0  0  0  0  0  0
  184.4980  178.6760  140.5020 C   0  0  0  0  0  3  0  0  0  0  0  0
  185.3030  178.4700  144.1910 C   0  0  0  0  0  0  0  0  0  0  0  0
  184.3480  178.6480  141.8890 C   0  0  0  0  0  3  0  0  0  0  0  0
  192.1560  176.4020  147.6670 N   0  0  0  0  0  1  0  0  0  0  0  0
  191.1500  176.6430  145.4570 C   0  0  0  0  0  3  0  0  0  0  0  0
  186.5200  178.3530  145.0700 C   0  0  2  0  0  3  0  0  0  0  0  0
  185.7660  178.5560  139.9340 C   0  0  0  0  0  3  0  0  0  0  0  0
  186.7540  178.3800  142.1480 C   0  0  0  0  0  0  0  0  0  0  0  0
  188.2140  178.2930  140.1000 C   0  0  0  0  0  0  0  0  0  0  0  0
  188.3610  177.9600  138.7120 N   0  0  0  0  0  2  0  0  0  0  0  0
  189.2460  178.5100  140.7890 O   0  0  0  0  0  0  0  0  0  0  0  0
  187.3200  178.6360  136.5800 C   0  0  0  0  0  1  0  0  0  0  0  0
  187.2880  177.6770  137.7610 C   0  0  1  0  0  3  0  0  0  0  0  0
  187.2610  176.2320  137.3600 C   0  0  0  0  0  0  0  0  0  0  0  0
  186.0500  175.6380  137.0320 O   0  0  0  0  0  0  0  0  0  0  0  0
  188.3180  175.5460  137.3260 O   0  0  0  0  0  1  0  0  0  0  0  0
  1 20  1  0  0  0  0
  2  7  2  0  0  0  0
  2 17  1  0  0  0  0
  4 12  1  0  0  0  0
  4  9  2  0  0  0  0
  5 11  1  6  0  0  0
  5 18  1  0  0  0  0
  5  7  1  0  0  0  0
  6  9  1  0  0  0  0
  6 16  1  0  0  0  0
  7  4  1  0  0  0  0
  8 12  1  0  0  0  0
 10 14  1  0  0  0  0
 13 15  2  0  0  0  0
 14  3  2  0  0  0  0
 14 18  1  0  0  0  0
 15 10  1  0  0  0  0
 17  6  2  0  0  0  0
 18  8  1  1  0  0  0
 19 13  1  0  0  0  0
 19  1  2  0  0  0  0
 20 10  2  0  0  0  0
 20 11  1  0  0  0  0
 21  1  1  0  0  0  0
 21 23  2  0  0  0  0
 22 21  1  0  0  0  0
 25 24  1  6  0  0  0
 25 22  1  0  0  0  0
 26 25  1  0  0  0  0
 27 26  2  0  0  0  0
 28 26  1  0  0  0  0
M  END
>  <MODEL>
3

>  <REMARK>
 VINA RESULT:      -9.2      2.673      5.903
  Name = 
  3 active torsions:
  status: ('A' for Active; 'I' for Inactive)
    1  A    between atoms: C_1  and  C_2
    2  A    between atoms: N_3  and  CA_11
    3  A    between atoms: C_6  and  CA_11
                            x       y       z     vdW  Elec       q    Type
                         _______ _______ _______ _____ _____    ______ ____

>  <TORSDO>
F 3

$$$$
=
 OpenBabel11052413313D

 28 31  0  0  1  0  0  0  0  0999 V2000
  190.1600  177.6850  139.9670 C   0  0  0  0  0  0  0  0  0  0  0  0
  185.4130  178.8530  141.8140 C   0  0  0  0  0  3  0  0  0  0  0  0
  190.4280  176.8710  144.7110 O   0  0  0  0  0  0  0  0  0  0  0  0
  185.5250  178.1340  144.1330 C   0  0  0  0  0  0  0  0  0  0  0  0
  187.6490  178.1290  142.7340 C   0  0  2  0  0  3  0  0  0  0  0  0
  183.4250  178.8980  143.1910 C   0  0  0  0  0  0  0  0  0  0  0  0
  186.1580  178.3260  142.8810 C   0  0  0  0  0  0  0  0  0  0  0  0
  187.7760  177.7270  145.1890 C   0  0  0  0  0  2  0  0  0  0  0  0
  184.1590  178.4020  144.2700 C   0  0  0  0  0  3  0  0  0  0  0  0
  190.3480  177.2720  142.3660 C   0  0  0  0  0  0  0  0  0  0  0  0
  188.0460  177.5850  141.3620 C   0  0  0  0  0  2  0  0  0  0  0  0
  186.2630  177.5610  145.3120 C   0  0  0  0  0  2  0  0  0  0  0  0
  192.3350  177.3000  140.9720 C   0  0  0  0  0  3  0  0  0  0  0  0
  189.7210  177.1320  143.6990 C   0  0  0  0  0  0  0  0  0  0  0  0
  191.7390  177.1620  142.2260 C   0  0  0  0  0  3  0  0  0  0  0  0
  182.0380  179.1740  143.3410 N   0  0  0  0  0  1  0  0  0  0  0  0
  184.0520  179.1300  141.9650 C   0  0  0  0  0  3  0  0  0  0  0  0
  188.2230  177.2160  143.8250 C   0  0  2  0  0  3  0  0  0  0  0  0
  191.5490  177.5550  139.8480 C   0  0  0  0  0  3  0  0  0  0  0  0
  189.5480  177.5340  141.2290 C   0  0  0  0  0  0  0  0  0  0  0  0
  189.3700  177.9340  138.7510 C   0  0  0  0  0  0  0  0  0  0  0  0
  189.1280  176.9100  137.7760 N   0  0  0  0  0  2  0  0  0  0  0  0
  188.8880  179.0820  138.5650 O   0  0  0  0  0  0  0  0  0  0  0  0
  188.6200  174.5780  137.1520 C   0  0  0  0  0  1  0  0  0  0  0  0
  189.6030  175.5280  137.8210 C   0  0  1  0  0  3  0  0  0  0  0  0
  191.0060  175.4010  137.3060 C   0  0  0  0  0  0  0  0  0  0  0  0
  191.8580  174.4630  137.8740 O   0  0  0  0  0  1  0  0  0  0  0  0
  191.4270  176.1370  136.3740 O   0  0  0  0  0  0  0  0  0  0  0  0
  1 20  1  0  0  0  0
  2 17  2  0  0  0  0
  2  7  1  0  0  0  0
  4  9  1  0  0  0  0
  4 12  1  0  0  0  0
  5 11  1  6  0  0  0
  5  7  1  0  0  0  0
  5 18  1  0  0  0  0
  6 16  1  0  0  0  0
  6  9  2  0  0  0  0
  7  4  2  0  0  0  0
  8 12  1  0  0  0  0
 10 14  1  0  0  0  0
 13 15  2  0  0  0  0
 14 18  1  0  0  0  0
 14  3  2  0  0  0  0
 15 10  1  0  0  0  0
 17  6  1  0  0  0  0
 18  8  1  1  0  0  0
 19  1  2  0  0  0  0
 19 13  1  0  0  0  0
 20 11  1  0  0  0  0
 20 10  2  0  0  0  0
 21  1  1  0  0  0  0
 22 25  1  0  0  0  0
 22 21  1  0  0  0  0
 23 21  2  0  0  0  0
 25 24  1  6  0  0  0
 26 25  1  0  0  0  0
 26 27  1  0  0  0  0
 28 26  2  0  0  0  0
M  END
>  <MODEL>
4

>  <REMARK>
 VINA RESULT:      -9.2      2.668      4.280
  Name = 
  3 active torsions:
  status: ('A' for Active; 'I' for Inactive)
    1  A    between atoms: C_1  and  C_2
    2  A    between atoms: N_3  and  CA_11
    3  A    between atoms: C_6  and  CA_11
                            x       y       z     vdW  Elec       q    Type
                         _______ _______ _______ _____ _____    ______ ____

>  <TORSDO>
F 3

$$$$
=
 OpenBabel11052413313D

 28 31  0  0  1  0  0  0  0  0999 V2000
  187.0340  178.3480  138.9590 C   0  0  0  0  0  0  0  0  0  0  0  0
  189.9870  177.1680  143.1050 C   0  0  0  0  0  3  0  0  0  0  0  0
  184.0170  178.4600  142.7160 O   0  0  0  0  0  0  0  0  0  0  0  0
  188.4880  177.5410  144.9810 C   0  0  0  0  0  0  0  0  0  0  0  0
  187.5570  177.6390  142.6170 C   0  0  2  0  0  3  0  0  0  0  0  0
  190.8260  177.0260  145.3690 C   0  0  0  0  0  0  0  0  0  0  0  0
  188.7100  177.4990  143.5840 C   0  0  0  0  0  0  0  0  0  0  0  0
  186.0070  177.6800  144.5670 C   0  0  0  0  0  2  0  0  0  0  0  0
  189.5540  177.3250  145.8610 C   0  0  0  0  0  3  0  0  0  0  0  0
  185.4650  178.4040  140.8280 C   0  0  0  0  0  0  0  0  0  0  0  0
  187.9470  178.3540  141.3230 C   0  0  0  0  0  2  0  0  0  0  0  0
  187.1460  177.9020  145.5580 C   0  0  0  0  0  2  0  0  0  0  0  0
  184.6470  178.4760  138.5440 C   0  0  0  0  0  3  0  0  0  0  0  0
  185.2000  178.3830  142.2840 C   0  0  0  0  0  0  0  0  0  0  0  0
  184.4010  178.4620  139.9180 C   0  0  0  0  0  3  0  0  0  0  0  0
  191.9030  176.8020  146.2710 N   0  0  0  0  0  1  0  0  0  0  0  0
  191.0420  176.9410  143.9920 C   0  0  0  0  0  3  0  0  0  0  0  0
  186.3570  178.3570  143.2470 C   0  0  2  0  0  3  0  0  0  0  0  0
  185.9570  178.4240  138.0680 C   0  0  0  0  0  3  0  0  0  0  0  0
  186.7950  178.3480  140.3490 C   0  0  0  0  0  0  0  0  0  0  0  0
  188.3990  178.3150  138.4100 C   0  0  0  0  0  0  0  0  0  0  0  0
  188.9190  177.1650  137.7270 N   0  0  0  0  0  2  0  0  0  0  0  0
  189.1300  179.3320  138.5390 O   0  0  0  0  0  0  0  0  0  0  0  0
  187.3430  175.9810  136.2440 C   0  0  0  0  0  1  0  0  0  0  0  0
  188.2230  175.9030  137.4820 C   0  0  1  0  0  3  0  0  0  0  0  0
  189.1650  174.7360  137.4760 C   0  0  0  0  0  0  0  0  0  0  0  0
  188.7400  173.5200  136.9580 O   0  0  0  0  0  0  0  0  0  0  0  0
  190.3320  174.8380  137.9420 O   0  0  0  0  0  1  0  0  0  0  0  0
  1 20  1  0  0  0  0
  2  7  2  0  0  0  0
  2 17  1  0  0  0  0
  4 12  1  0  0  0  0
  4  9  2  0  0  0  0
  5 11  1  6  0  0  0
  5 18  1  0  0  0  0
  5  7  1  0  0  0  0
  6  9  1  0  0  0  0
  6 16  1  0  0  0  0
  7  4  1  0  0  0  0
  8 12  1  0  0  0  0
 10 14  1  0  0  0  0
 13 15  2  0  0  0  0
 14  3  2  0  0  0  0
 14 18  1  0  0  0  0
 15 10  1  0  0  0  0
 17  6  2  0  0  0  0
 18  8  1  1  0  0  0
 19 13  1  0  0  0  0
 19  1  2  0  0  0  0
 20 10  2  0  0  0  0
 20 11  1  0  0  0  0
 21 23  2  0  0  0  0
 21  1  1  0  0  0  0
 22 21  1  0  0  0  0
 25 24  1  6  0  0  0
 25 22  1  0  0  0  0
 26 25  1  0  0  0  0
 26 28  1  0  0  0  0
 27 26  2  0  0  0  0
M  END
>  <MODEL>
5

>  <REMARK>
 VINA RESULT:      -9.1      3.030      6.440
  Name = 
  3 active torsions:
  status: ('A' for Active; 'I' for Inactive)
    1  A    between atoms: C_1  and  C_2
    2  A    between atoms: N_3  and  CA_11
    3  A    between atoms: C_6  and  CA_11
                            x       y       z     vdW  Elec       q    Type
                         _______ _______ _______ _____ _____    ______ ____

>  <TORSDO>
F 3

$$$$
=
 OpenBabel11052413313D

 28 31  0  0  1  0  0  0  0  0999 V2000
  189.1830  177.4380  138.6510 C   0  0  0  0  0  0  0  0  0  0  0  0
  185.8570  178.6460  142.4950 C   0  0  0  0  0  3  0  0  0  0  0  0
  191.6220  176.6000  142.7230 O   0  0  0  0  0  0  0  0  0  0  0  0
  187.0280  177.9150  144.4950 C   0  0  0  0  0  0  0  0  0  0  0  0
  188.2560  177.8950  142.2680 C   0  0  2  0  0  3  0  0  0  0  0  0
  184.7400  178.7050  144.6400 C   0  0  0  0  0  0  0  0  0  0  0  0
  187.0070  178.1060  143.0930 C   0  0  0  0  0  0  0  0  0  0  0  0
  189.5070  177.4800  144.3820 C   0  0  0  0  0  2  0  0  0  0  0  0
  185.8870  178.1970  145.2530 C   0  0  0  0  0  3  0  0  0  0  0  0
  190.4630  177.0110  140.6850 C   0  0  0  0  0  0  0  0  0  0  0  0
  187.9620  177.3530  140.8690 C   0  0  0  0  0  2  0  0  0  0  0  0
  188.2250  177.3290  145.1950 C   0  0  0  0  0  2  0  0  0  0  0  0
  191.5710  177.0260  138.5260 C   0  0  0  0  0  3  0  0  0  0  0  0
  190.5270  176.8720  142.1580 C   0  0  0  0  0  0  0  0  0  0  0  0
  191.6270  176.8880  139.9140 C   0  0  0  0  0  3  0  0  0  0  0  0
  183.5850  178.9950  145.4190 N   0  0  0  0  0  1  0  0  0  0  0  0
  184.7260  178.9360  143.2630 C   0  0  0  0  0  3  0  0  0  0  0  0
  189.2610  176.9710  142.9670 C   0  0  2  0  0  3  0  0  0  0  0  0
  190.3550  177.2940  137.8990 C   0  0  0  0  0  3  0  0  0  0  0  0
  189.2280  177.2870  140.0520 C   0  0  0  0  0  0  0  0  0  0  0  0
  187.9210  177.7000  137.9420 C   0  0  0  0  0  0  0  0  0  0  0  0
  187.2040  176.6660  137.2530 N   0  0  0  0  0  2  0  0  0  0  0  0
  187.4540  178.8690  137.9470 O   0  0  0  0  0  0  0  0  0  0  0  0
  186.3800  174.3400  137.2550 C   0  0  0  0  0  1  0  0  0  0  0  0
  187.5870  175.2600  137.1400 C   0  0  1  0  0  3  0  0  0  0  0  0
  188.4230  175.0040  135.9210 C   0  0  0  0  0  0  0  0  0  0  0  0
  189.6490  174.3660  136.0570 O   0  0  0  0  0  1  0  0  0  0  0  0
  188.0360  175.3670  134.7780 O   0  0  0  0  0  0  0  0  0  0  0  0
  1 20  1  0  0  0  0
  2  7  2  0  0  0  0
  2 17  1  0  0  0  0
  4 12  1  0  0  0  0
  4  9  2  0  0  0  0
  5 11  1  6  0  0  0
  5 18  1  0  0  0  0
  5  7  1  0  0  0  0
  6  9  1  0  0  0  0
  6 16  1  0  0  0  0
  7  4  1  0  0  0  0
  8 12  1  0  0  0  0
 10 14  1  0  0  0  0
 13 15  2  0  0  0  0
 14  3  2  0  0  0  0
 14 18  1  0  0  0  0
 15 10  1  0  0  0  0
 17  6  2  0  0  0  0
 18  8  1  1  0  0  0
 19 13  1  0  0  0  0
 19  1  2  0  0  0  0
 20 10  2  0  0  0  0
 20 11  1  0  0  0  0
 21 23  2  0  0  0  0
 21  1  1  0  0  0  0
 22 21  1  0  0  0  0
 25 22  1  0  0  0  0
 25 24  1  6  0  0  0
 26 27  1  0  0  0  0
 26 25  1  0  0  0  0
 28 26  2  0  0  0  0
M  END
>  <MODEL>
6

>  <REMARK>
 VINA RESULT:      -9.0      3.305      5.517
  Name = 
  3 active torsions:
  status: ('A' for Active; 'I' for Inactive)
    1  A    between atoms: C_1  and  C_2
    2  A    between atoms: N_3  and  CA_11
    3  A    between atoms: C_6  and  CA_11
                            x       y       z     vdW  Elec       q    Type
                         _______ _______ _______ _____ _____    ______ ____

>  <TORSDO>
F 3

$$$$
=
 OpenBabel11052413313D

 28 31  0  0  1  0  0  0  0  0999 V2000
  185.9440  178.4420  139.6090 C   0  0  0  0  0  0  0  0  0  0  0  0
  188.3920  177.2960  144.0810 C   0  0  0  0  0  3  0  0  0  0  0  0
  182.6510  179.1560  143.0560 O   0  0  0  0  0  0  0  0  0  0  0  0
  186.7900  177.9670  145.7810 C   0  0  0  0  0  0  0  0  0  0  0  0
  186.0770  177.9740  143.3400 C   0  0  2  0  0  3  0  0  0  0  0  0
  189.0160  177.2480  146.4170 C   0  0  0  0  0  0  0  0  0  0  0  0
  187.1220  177.7920  144.4160 C   0  0  0  0  0  0  0  0  0  0  0  0
  184.3820  178.3250  145.1320 C   0  0  0  0  0  2  0  0  0  0  0  0
  187.7480  177.7130  146.7680 C   0  0  0  0  0  3  0  0  0  0  0  0
  184.2390  178.8050  141.3180 C   0  0  0  0  0  0  0  0  0  0  0  0
  186.6500  178.5400  142.0410 C   0  0  0  0  0  2  0  0  0  0  0  0
  185.4510  178.5070  146.2060 C   0  0  0  0  0  2  0  0  0  0  0  0
  183.6280  178.7800  138.9690 C   0  0  0  0  0  3  0  0  0  0  0  0
  183.8510  178.9250  142.7410 C   0  0  0  0  0  0  0  0  0  0  0  0
  183.2670  178.9000  140.3120 C   0  0  0  0  0  3  0  0  0  0  0  0
  189.9830  176.9860  147.4280 N   0  0  0  0  0  1  0  0  0  0  0  0
  189.3370  177.0330  145.0750 C   0  0  0  0  0  3  0  0  0  0  0  0
  184.9130  178.8570  143.8060 C   0  0  2  0  0  3  0  0  0  0  0  0
  184.9600  178.5570  138.6200 C   0  0  0  0  0  3  0  0  0  0  0  0
  185.5900  178.5750  140.9680 C   0  0  0  0  0  0  0  0  0  0  0  0
  187.3380  178.2270  139.1920 C   0  0  0  0  0  0  0  0  0  0  0  0
  187.6820  177.3720  138.0920 N   0  0  0  0  0  2  0  0  0  0  0  0
  188.2570  178.8190  139.8170 O   0  0  0  0  0  0  0  0  0  0  0  0
  186.5950  177.2440  135.8810 C   0  0  0  0  0  1  0  0  0  0  0  0
  186.7590  176.6090  137.2540 C   0  0  1  0  0  3  0  0  0  0  0  0
  187.1210  175.1540  137.2030 C   0  0  0  0  0  0  0  0  0  0  0  0
  188.4460  174.7880  137.0100 O   0  0  0  0  0  0  0  0  0  0  0  0
  186.2410  174.2600  137.3220 O   0  0  0  0  0  1  0  0  0  0  0  0
  1 20  1  0  0  0  0
  2  7  2  0  0  0  0
  2 17  1  0  0  0  0
  4 12  1  0  0  0  0
  4  9  2  0  0  0  0
  5 11  1  6  0  0  0
  5 18  1  0  0  0  0
  5  7  1  0  0  0  0
  6  9  1  0  0  0  0
  6 16  1  0  0  0  0
  7  4  1  0  0  0  0
  8 12  1  0  0  0  0
 10 14  1  0  0  0  0
 13 15  2  0  0  0  0
 14  3  2  0  0  0  0
 14 18  1  0  0  0  0
 15 10  1  0  0  0  0
 17  6  2  0  0  0  0
 18  8  1  1  0  0  0
 19 13  1  0  0  0  0
 19  1  2  0  0  0  0
 20 10  2  0  0  0  0
 20 11  1  0  0  0  0
 21  1  1  0  0  0  0
 21 23  2  0  0  0  0
 22 21  1  0  0  0  0
 25 24  1  6  0  0  0
 25 22  1  0  0  0  0
 26 25  1  0  0  0  0
 26 28  1  0  0  0  0
 27 26  2  0  0  0  0
M  END
>  <MODEL>
7

>  <REMARK>
 VINA RESULT:      -8.9      3.111      6.251
  Name = 
  3 active torsions:
  status: ('A' for Active; 'I' for Inactive)
    1  A    between atoms: C_1  and  C_2
    2  A    between atoms: N_3  and  CA_11
    3  A    between atoms: C_6  and  CA_11
                            x       y       z     vdW  Elec       q    Type
                         _______ _______ _______ _____ _____    ______ ____

>  <TORSDO>
F 3

$$$$
=
 OpenBabel11052413313D

 28 31  0  0  1  0  0  0  0  0999 V2000
  188.6830  176.7530  144.4820 C   0  0  0  0  0  0  0  0  0  0  0  0
  184.7570  177.9270  141.2410 C   0  0  0  0  0  3  0  0  0  0  0  0
  185.3640  178.8780  147.2580 O   0  0  0  0  0  0  0  0  0  0  0  0
  183.0100  178.7060  142.7410 C   0  0  0  0  0  0  0  0  0  0  0  0
  185.3340  178.2650  143.6750 C   0  0  2  0  0  3  0  0  0  0  0  0
  182.5490  178.4120  140.3790 C   0  0  0  0  0  0  0  0  0  0  0  0
  184.3340  178.2490  142.5410 C   0  0  0  0  0  0  0  0  0  0  0  0
  183.6150  179.3780  145.0930 C   0  0  0  0  0  2  0  0  0  0  0  0
  182.1230  178.7630  141.6610 C   0  0  0  0  0  3  0  0  0  0  0  0
  187.0390  177.8350  145.9260 C   0  0  0  0  0  0  0  0  0  0  0  0
  186.3320  177.1090  143.6060 C   0  0  0  0  0  2  0  0  0  0  0  0
  182.4920  179.0540  144.1110 C   0  0  0  0  0  2  0  0  0  0  0  0
  189.2820  177.3990  146.7430 C   0  0  0  0  0  3  0  0  0  0  0  0
  185.6800  178.3820  146.1410 C   0  0  0  0  0  0  0  0  0  0  0  0
  187.9980  177.9080  146.9450 C   0  0  0  0  0  3  0  0  0  0  0  0
  181.6420  178.4780  139.2840 N   0  0  0  0  0  1  0  0  0  0  0  0
  183.8670  178.0000  140.1670 C   0  0  0  0  0  3  0  0  0  0  0  0
  184.6510  178.2620  145.0480 C   0  0  2  0  0  3  0  0  0  0  0  0
  189.6200  176.8210  145.5200 C   0  0  0  0  0  3  0  0  0  0  0  0
  187.3790  177.2520  144.6830 C   0  0  0  0  0  0  0  0  0  0  0  0
  189.0800  176.1160  143.2170 C   0  0  0  0  0  0  0  0  0  0  0  0
  189.7240  176.8480  142.1640 N   0  0  0  0  0  2  0  0  0  0  0  0
  188.8530  174.8880  143.0580 O   0  0  0  0  0  0  0  0  0  0  0  0
  188.8250  179.1450  142.2150 C   0  0  0  0  0  1  0  0  0  0  0  0
  190.0680  178.2680  142.1680 C   0  0  1  0  0  3  0  0  0  0  0  0
  191.0750  178.5980  143.2290 C   0  0  0  0  0  0  0  0  0  0  0  0
  190.9290  179.7640  143.9680 O   0  0  0  0  0  1  0  0  0  0  0  0
  192.0560  177.8390  143.4540 O   0  0  0  0  0  0  0  0  0  0  0  0
  1 20  2  0  0  0  0
  1 19  1  0  0  0  0
  2  7  1  0  0  0  0
  4 12  1  0  0  0  0
  5 11  1  1  0  0  0
  5 18  1  0  0  0  0
  6  9  2  0  0  0  0
  7  4  2  0  0  0  0
  7  5  1  0  0  0  0
  9  4  1  0  0  0  0
 10 14  1  0  0  0  0
 10 15  2  0  0  0  0
 11 20  1  0  0  0  0
 12  8  1  0  0  0  0
 13 15  1  0  0  0  0
 14  3  2  0  0  0  0
 16  6  1  0  0  0  0
 17  6  1  0  0  0  0
 17  2  2  0  0  0  0
 18  8  1  6  0  0  0
 18 14  1  0  0  0  0
 19 13  2  0  0  0  0
 20 10  1  0  0  0  0
 21  1  1  0  0  0  0
 22 25  1  0  0  0  0
 22 21  1  0  0  0  0
 23 21  2  0  0  0  0
 25 24  1  1  0  0  0
 25 26  1  0  0  0  0
 26 28  2  0  0  0  0
 26 27  1  0  0  0  0
M  END
>  <MODEL>
8

>  <REMARK>
 VINA RESULT:      -8.7      1.703      2.502
  Name = 
  3 active torsions:
  status: ('A' for Active; 'I' for Inactive)
    1  A    between atoms: C_1  and  C_2
    2  A    between atoms: N_3  and  CA_11
    3  A    between atoms: C_6  and  CA_11
                            x       y       z     vdW  Elec       q    Type
                         _______ _______ _______ _____ _____    ______ ____

>  <TORSDO>
F 3

$$$$
=
 OpenBabel11052413313D

 28 31  0  0  1  0  0  0  0  0999 V2000
  183.8800  178.8230  142.2160 C   0  0  0  0  0  0  0  0  0  0  0  0
  188.7980  177.5880  140.9550 C   0  0  0  0  0  3  0  0  0  0  0  0
  186.1070  178.0990  146.4290 O   0  0  0  0  0  0  0  0  0  0  0  0
  189.9300  177.5400  143.1050 C   0  0  0  0  0  0  0  0  0  0  0  0
  187.3990  177.7800  143.0460 C   0  0  2  0  0  3  0  0  0  0  0  0
  191.1980  177.3030  141.0520 C   0  0  0  0  0  0  0  0  0  0  0  0
  188.7390  177.6870  142.3540 C   0  0  0  0  0  0  0  0  0  0  0  0
  188.5600  177.3880  145.2150 C   0  0  0  0  0  2  0  0  0  0  0  0
  191.1520  177.3700  142.4460 C   0  0  0  0  0  3  0  0  0  0  0  0
  184.9610  178.4540  144.3730 C   0  0  0  0  0  0  0  0  0  0  0  0
  186.4090  178.6830  142.3100 C   0  0  0  0  0  2  0  0  0  0  0  0
  189.9360  177.6480  144.6060 C   0  0  0  0  0  2  0  0  0  0  0  0
  182.5480  178.6740  144.2380 C   0  0  0  0  0  3  0  0  0  0  0  0
  186.1850  178.2320  145.1760 C   0  0  0  0  0  0  0  0  0  0  0  0
  183.7040  178.4720  144.9930 C   0  0  0  0  0  3  0  0  0  0  0  0
  192.4450  177.1250  140.3900 N   0  0  0  0  0  1  0  0  0  0  0  0
  190.0220  177.4060  140.3060 C   0  0  0  0  0  3  0  0  0  0  0  0
  187.5290  178.2520  144.4990 C   0  0  2  0  0  3  0  0  0  0  0  0
  182.6370  178.8540  142.8580 C   0  0  0  0  0  3  0  0  0  0  0  0
  185.0550  178.6320  142.9730 C   0  0  0  0  0  0  0  0  0  0  0  0
  183.9260  179.0370  140.7610 C   0  0  0  0  0  0  0  0  0  0  0  0
  182.9550  178.4620  139.8750 N   0  0  0  0  0  2  0  0  0  0  0  0
  184.8430  179.7540  140.2810 O   0  0  0  0  0  0  0  0  0  0  0  0
  180.5200  178.3900  140.2680 C   0  0  0  0  0  1  0  0  0  0  0  0
  181.8260  177.6100  140.2460 C   0  0  1  0  0  3  0  0  0  0  0  0
  181.7670  176.3650  139.4120 C   0  0  0  0  0  0  0  0  0  0  0  0
  180.6780  176.1550  138.5770 O   0  0  0  0  0  0  0  0  0  0  0  0
  182.6830  175.5010  139.4650 O   0  0  0  0  0  1  0  0  0  0  0  0
  1 19  2  0  0  0  0
  1 20  1  0  0  0  0
  2  7  1  0  0  0  0
  4 12  1  0  0  0  0
  5 11  1  6  0  0  0
  5 18  1  0  0  0  0
  6  9  2  0  0  0  0
  7  5  1  0  0  0  0
  7  4  2  0  0  0  0
  9  4  1  0  0  0  0
 10 15  1  0  0  0  0
 10 14  1  0  0  0  0
 11 20  1  0  0  0  0
 12  8  1  0  0  0  0
 13 15  2  0  0  0  0
 14  3  2  0  0  0  0
 16  6  1  0  0  0  0
 17  2  2  0  0  0  0
 17  6  1  0  0  0  0
 18 14  1  0  0  0  0
 18  8  1  1  0  0  0
 19 13  1  0  0  0  0
 20 10  2  0  0  0  0
 21  1  1  0  0  0  0
 22 25  1  0  0  0  0
 22 21  1  0  0  0  0
 23 21  2  0  0  0  0
 25 24  1  6  0  0  0
 26 28  1  0  0  0  0
 26 25  1  0  0  0  0
 27 26  2  0  0  0  0
M  END
>  <MODEL>
9

>  <REMARK>
 VINA RESULT:      -8.7      2.759      6.800
  Name = 
  3 active torsions:
  status: ('A' for Active; 'I' for Inactive)
    1  A    between atoms: C_1  and  C_2
    2  A    between atoms: N_3  and  CA_11
    3  A    between atoms: C_6  and  CA_11
                            x       y       z     vdW  Elec       q    Type
                         _______ _______ _______ _____ _____    ______ ____

>  <TORSDO>
F 3

$$$$
