=
 OpenBabel11052413003D

 31 35  0  0  1  0  0  0  0  0999 V2000
  185.8210  178.7120  139.6280 C   0  0  0  0  0  0  0  0  0  0  0  0
  189.2580  177.6030  139.6930 C   0  0  0  0  0  0  0  0  0  0  0  0
  189.5630  177.3370  138.2310 C   0  0  0  0  0  0  0  0  0  0  0  0
  188.8620  175.8430  136.3830 C   0  0  0  0  0  3  0  0  0  0  0  0
  188.0590  178.0720  140.1170 C   0  0  0  0  0  0  0  0  0  0  0  0
  185.6000  179.0110  140.9700 C   0  0  0  0  0  3  0  0  0  0  0  0
  188.5410  176.4890  137.5110 C   0  0  0  0  0  3  0  0  0  0  0  0
  190.1070  177.8400  142.0410 N   0  0  0  0  0  0  0  0  0  0  0  0
  184.9000  178.8640  138.7850 O   0  0  0  0  0  0  0  0  0  0  0  0
  191.8750  176.7600  138.9490 C   0  0  0  0  0  3  0  0  0  0  0  0
  190.5350  175.2920  134.5940 N   0  0  0  0  0  1  0  0  0  0  0  0
  188.7950  178.2830  142.4040 C   0  0  0  0  0  3  0  0  0  0  0  0
  190.3700  177.5060  140.6700 C   0  0  0  0  0  0  0  0  0  0  0  0
  187.0370  178.2540  139.2340 N   0  0  0  0  0  2  0  0  0  0  0  0
  190.2530  175.8450  135.8730 C   0  0  0  0  0  0  0  0  0  0  0  0
  187.8310  178.3960  141.4830 C   0  0  0  0  0  0  0  0  0  0  0  0
  186.6070  178.8480  141.8650 N   0  0  0  0  0  0  0  0  0  0  0  0
  191.5620  177.1410  140.2950 N   0  0  0  0  0  0  0  0  0  0  0  0
  190.9580  176.8050  137.9830 C   0  0  0  0  0  0  0  0  0  0  0  0
  191.2600  176.2590  136.6520 C   0  0  0  0  0  2  0  0  0  0  0  0
  191.1180  177.6830  143.0790 C   0  0  0  0  0  2  0  0  0  0  0  0
  191.6590  175.4110  143.9000 C   0  0  0  0  0  1  0  0  0  0  0  0
  190.7130  176.5850  144.0500 C   0  0  1  0  0  3  0  0  0  0  0  0
  190.7650  177.0890  145.4160 N   0  0  0  0  0  2  0  0  0  0  0  0
  187.2280  177.8910  146.3490 C   0  0  0  0  0  0  0  0  0  0  0  0
  188.5880  177.8160  148.3500 C   0  0  0  0  0  3  0  0  0  0  0  0
  185.9100  178.0940  145.6950 C   0  0  0  0  0  1  0  0  0  0  0  0
  188.3520  177.5860  145.5750 C   0  0  0  0  0  3  0  0  0  0  0  0
  189.7120  177.5110  147.5760 C   0  0  0  0  0  3  0  0  0  0  0  0
  189.5990  177.3930  146.1870 C   0  0  0  0  0  0  0  0  0  0  0  0
  187.3460  178.0050  147.7370 C   0  0  0  0  0  3  0  0  0  0  0  0
  1  6  1  0  0  0  0
  2  5  2  0  0  0  0
  2 13  1  0  0  0  0
  3  2  1  0  0  0  0
  4  7  1  0  0  0  0
  5 16  1  0  0  0  0
  6 17  2  0  0  0  0
  7  3  2  0  0  0  0
  8 12  1  0  0  0  0
  8 21  1  0  0  0  0
  9  1  2  0  0  0  0
 10 18  1  0  0  0  0
 11 15  1  0  0  0  0
 13  8  1  0  0  0  0
 14  1  1  0  0  0  0
 14  5  1  0  0  0  0
 15  4  2  0  0  0  0
 15 20  1  0  0  0  0
 16 17  1  0  0  0  0
 16 12  2  0  0  0  0
 18 13  2  0  0  0  0
 19  3  1  0  0  0  0
 19 10  2  0  0  0  0
 20 19  1  0  0  0  0
 21 23  1  0  0  0  0
 23 22  1  1  0  0  0
 23 24  1  0  0  0  0
 24 30  1  0  0  0  0
 25 31  1  0  0  0  0
 27 25  1  0  0  0  0
 28 30  1  0  0  0  0
 28 25  2  0  0  0  0
 29 26  1  0  0  0  0
 30 29  2  0  0  0  0
 31 26  2  0  0  0  0
M  END
>  <MODEL>
1

>  <REMARK>
 VINA RESULT:      -9.8      0.000      0.000
  Name = 
  4 active torsions:
  status: ('A' for Active; 'I' for Inactive)
    1  A    between atoms: N_3  and  C_9
    2  A    between atoms: N_3  and  C_22
    3  A    between atoms: C_9  and  C_23
    4  A    between atoms: N_15  and  C_23
                            x       y       z     vdW  Elec       q    Type
                         _______ _______ _______ _____ _____    ______ ____

>  <TORSDO>
F 4

$$$$
=
 OpenBabel11052413003D

 31 35  0  0  1  0  0  0  0  0999 V2000
  187.4710  178.2670  136.6930 C   0  0  0  0  0  0  0  0  0  0  0  0
  186.5310  178.3590  140.1790 C   0  0  0  0  0  0  0  0  0  0  0  0
  185.0160  178.3020  140.1290 C   0  0  2  0  0  3  0  0  0  0  0  0
  183.0880  179.6340  139.3250 C   0  0  0  0  0  3  0  0  0  0  0  0
  187.3020  178.3160  139.0640 C   0  0  0  0  0  0  0  0  0  0  0  0
  188.8610  178.2500  136.7800 C   0  0  0  0  0  3  0  0  0  0  0  0
  184.3720  179.2840  139.1790 C   0  0  0  0  0  3  0  0  0  0  0  0
  188.6260  178.2520  141.5530 N   0  0  0  0  0  0  0  0  0  0  0  0
  186.9070  178.2540  135.5680 O   0  0  0  0  0  0  0  0  0  0  0  0
  185.0610  178.3060  142.6180 C   0  0  0  0  0  3  0  0  0  0  0  0
  180.8970  179.4120  140.5310 N   0  0  0  0  0  1  0  0  0  0  0  0
  189.3580  178.2570  140.3220 C   0  0  0  0  0  3  0  0  0  0  0  0
  187.1930  178.2860  141.5040 C   0  0  0  0  0  0  0  0  0  0  0  0
  186.7280  178.2980  137.8280 N   0  0  0  0  0  2  0  0  0  0  0  0
  182.2970  179.1630  140.4850 C   0  0  0  0  0  0  0  0  0  0  0  0
  188.7210  178.2810  139.1460 C   0  0  0  0  0  0  0  0  0  0  0  0
  189.4530  178.2570  138.0010 N   0  0  0  0  0  0  0  0  0  0  0  0
  186.4930  178.2380  142.6020 N   0  0  0  0  0  0  0  0  0  0  0  0
  184.3560  178.3760  141.4900 C   0  0  0  0  0  0  0  0  0  0  0  0
  182.9050  178.6050  141.5390 C   0  0  0  0  0  3  0  0  0  0  0  0
  189.3560  178.2740  142.8150 C   0  0  0  0  0  2  0  0  0  0  0  0
  190.0350  175.8940  142.7460 C   0  0  0  0  0  1  0  0  0  0  0  0
  189.2400  176.9290  143.5150 C   0  0  1  0  0  3  0  0  0  0  0  0
  189.7520  177.0340  144.8750 N   0  0  0  0  0  2  0  0  0  0  0  0
  186.8210  178.1130  146.9410 C   0  0  0  0  0  0  0  0  0  0  0  0
  188.7730  177.9190  148.3600 C   0  0  0  0  0  3  0  0  0  0  0  0
  185.3790  178.4250  146.7730 C   0  0  0  0  0  1  0  0  0  0  0  0
  187.5850  177.7230  145.8370 C   0  0  0  0  0  3  0  0  0  0  0  0
  189.5380  177.5280  147.2550 C   0  0  0  0  0  3  0  0  0  0  0  0
  188.9480  177.4270  145.9910 C   0  0  0  0  0  0  0  0  0  0  0  0
  187.4150  178.2100  148.2030 C   0  0  0  0  0  3  0  0  0  0  0  0
  1  6  1  0  0  0  0
  1 14  1  0  0  0  0
  2 13  1  0  0  0  0
  3  7  1  6  0  0  0
  3  2  1  0  0  0  0
  3 19  1  0  0  0  0
  4 15  1  0  0  0  0
  5 16  1  0  0  0  0
  5  2  2  0  0  0  0
  6 17  2  0  0  0  0
  7  4  2  0  0  0  0
  8 21  1  0  0  0  0
  9  1  2  0  0  0  0
 12  8  1  0  0  0  0
 13  8  1  0  0  0  0
 13 18  2  0  0  0  0
 14  5  1  0  0  0  0
 15 11  1  0  0  0  0
 15 20  2  0  0  0  0
 16 12  2  0  0  0  0
 17 16  1  0  0  0  0
 18 10  1  0  0  0  0
 19 20  1  0  0  0  0
 19 10  2  0  0  0  0
 21 23  1  0  0  0  0
 23 22  1  6  0  0  0
 23 24  1  0  0  0  0
 24 30  1  0  0  0  0
 25 31  1  0  0  0  0
 27 25  1  0  0  0  0
 28 30  1  0  0  0  0
 28 25  2  0  0  0  0
 29 26  1  0  0  0  0
 30 29  2  0  0  0  0
 31 26  2  0  0  0  0
M  END
>  <MODEL>
2

>  <REMARK>
 VINA RESULT:      -9.4      2.001      4.863
  Name = 
  4 active torsions:
  status: ('A' for Active; 'I' for Inactive)
    1  A    between atoms: N_3  and  C_9
    2  A    between atoms: N_3  and  C_22
    3  A    between atoms: C_9  and  C_23
    4  A    between atoms: N_15  and  C_23
                            x       y       z     vdW  Elec       q    Type
                         _______ _______ _______ _____ _____    ______ ____

>  <TORSDO>
F 4

$$$$
=
 OpenBabel11052413003D

 31 35  0  0  1  0  0  0  0  0999 V2000
  185.4050  178.2720  144.1440 C   0  0  0  0  0  0  0  0  0  0  0  0
  188.7400  177.4790  143.0080 C   0  0  0  0  0  0  0  0  0  0  0  0
  189.4060  176.9250  144.2540 C   0  0  2  0  0  3  0  0  0  0  0  0
  190.0890  177.6430  146.5240 C   0  0  0  0  0  3  0  0  0  0  0  0
  187.4450  177.8790  142.9870 C   0  0  0  0  0  0  0  0  0  0  0  0
  184.8060  178.7100  142.9650 C   0  0  0  0  0  3  0  0  0  0  0  0
  189.2460  177.7740  145.4930 C   0  0  0  0  0  3  0  0  0  0  0  0
  188.8310  177.8620  140.5320 N   0  0  0  0  0  0  0  0  0  0  0  0
  184.7490  178.2530  145.2180 O   0  0  0  0  0  0  0  0  0  0  0  0
  191.4260  176.5420  142.8500 C   0  0  0  0  0  3  0  0  0  0  0  0
  192.0550  176.5070  147.5950 N   0  0  0  0  0  1  0  0  0  0  0  0
  187.4740  178.3120  140.6150 C   0  0  0  0  0  3  0  0  0  0  0  0
  189.4870  177.4200  141.7280 C   0  0  0  0  0  0  0  0  0  0  0  0
  186.7000  177.8680  144.1280 N   0  0  0  0  0  2  0  0  0  0  0  0
  191.2700  176.7530  146.4360 C   0  0  0  0  0  0  0  0  0  0  0  0
  186.8220  178.3100  141.7840 C   0  0  0  0  0  0  0  0  0  0  0  0
  185.5260  178.7180  141.8140 N   0  0  0  0  0  0  0  0  0  0  0  0
  190.7060  176.9630  141.6840 N   0  0  0  0  0  0  0  0  0  0  0  0
  190.8600  176.5520  144.0560 C   0  0  0  0  0  0  0  0  0  0  0  0
  191.6670  176.2700  145.2520 C   0  0  0  0  0  3  0  0  0  0  0  0
  189.5230  177.9240  139.2500 C   0  0  0  0  0  2  0  0  0  0  0  0
  189.0560  179.2600  137.2200 C   0  0  0  0  0  1  0  0  0  0  0  0
  188.5310  178.1630  138.1240 C   0  0  1  0  0  3  0  0  0  0  0  0
  188.3470  176.9380  137.3570 N   0  0  0  0  0  2  0  0  0  0  0  0
  185.8110  174.1920  137.1210 C   0  0  0  0  0  0  0  0  0  0  0  0
  184.6790  176.3320  137.1150 C   0  0  0  0  0  3  0  0  0  0  0  0
  185.7590  172.7090  137.0710 C   0  0  0  0  0  1  0  0  0  0  0  0
  187.0440  174.8460  137.2190 C   0  0  0  0  0  3  0  0  0  0  0  0
  185.9110  176.9850  137.2130 C   0  0  0  0  0  3  0  0  0  0  0  0
  187.0980  176.2470  137.2660 C   0  0  0  0  0  0  0  0  0  0  0  0
  184.6290  174.9360  137.0700 C   0  0  0  0  0  3  0  0  0  0  0  0
  1  9  2  0  0  0  0
  2  3  1  0  0  0  0
  3  7  1  1  0  0  0
  5  2  2  0  0  0  0
  5 14  1  0  0  0  0
  6  1  1  0  0  0  0
  7  4  2  0  0  0  0
  8 12  1  0  0  0  0
  8 13  1  0  0  0  0
 10 19  2  0  0  0  0
 12 16  2  0  0  0  0
 13  2  1  0  0  0  0
 14  1  1  0  0  0  0
 15  4  1  0  0  0  0
 15 11  1  0  0  0  0
 16 17  1  0  0  0  0
 16  5  1  0  0  0  0
 17  6  2  0  0  0  0
 18 13  2  0  0  0  0
 18 10  1  0  0  0  0
 19  3  1  0  0  0  0
 19 20  1  0  0  0  0
 20 15  2  0  0  0  0
 21  8  1  0  0  0  0
 23 22  1  6  0  0  0
 23 21  1  0  0  0  0
 24 23  1  0  0  0  0
 25 28  1  0  0  0  0
 26 29  2  0  0  0  0
 27 25  1  0  0  0  0
 28 30  2  0  0  0  0
 29 30  1  0  0  0  0
 30 24  1  0  0  0  0
 31 26  1  0  0  0  0
 31 25  2  0  0  0  0
M  END
>  <MODEL>
3

>  <REMARK>
 VINA RESULT:      -9.3      2.394      7.434
  Name = 
  4 active torsions:
  status: ('A' for Active; 'I' for Inactive)
    1  A    between atoms: N_3  and  C_9
    2  A    between atoms: N_3  and  C_22
    3  A    between atoms: C_9  and  C_23
    4  A    between atoms: N_15  and  C_23
                            x       y       z     vdW  Elec       q    Type
                         _______ _______ _______ _____ _____    ______ ____

>  <TORSDO>
F 4

$$$$
=
 OpenBabel11052413003D

 31 35  0  0  1  0  0  0  0  0999 V2000
  182.9820  178.6560  143.0130 C   0  0  0  0  0  0  0  0  0  0  0  0
  186.5380  178.0790  143.2770 C   0  0  0  0  0  0  0  0  0  0  0  0
  186.7150  177.6790  144.7300 C   0  0  2  0  0  3  0  0  0  0  0  0
  186.4550  178.6210  147.0070 C   0  0  0  0  0  3  0  0  0  0  0  0
  185.3260  178.3600  142.7380 C   0  0  0  0  0  0  0  0  0  0  0  0
  182.8480  178.9510  141.6580 C   0  0  0  0  0  3  0  0  0  0  0  0
  186.0550  178.6000  145.7290 C   0  0  0  0  0  3  0  0  0  0  0  0
  187.5320  178.2840  140.9840 N   0  0  0  0  0  0  0  0  0  0  0  0
  181.9730  178.6590  143.7650 O   0  0  0  0  0  0  0  0  0  0  0  0
  189.1320  177.3730  144.2180 C   0  0  0  0  0  3  0  0  0  0  0  0
  187.9320  177.7450  148.8380 N   0  0  0  0  0  1  0  0  0  0  0  0
  186.2210  178.6170  140.5140 C   0  0  0  0  0  3  0  0  0  0  0  0
  187.7130  177.9910  142.3770 C   0  0  0  0  0  0  0  0  0  0  0  0
  184.2080  178.3680  143.5180 N   0  0  0  0  0  2  0  0  0  0  0  0
  187.6280  177.8340  147.4510 C   0  0  0  0  0  0  0  0  0  0  0  0
  185.1790  178.6440  141.3530 C   0  0  0  0  0  0  0  0  0  0  0  0
  183.9460  178.9370  140.8610 N   0  0  0  0  0  0  0  0  0  0  0  0
  188.8820  177.6410  142.8330 N   0  0  0  0  0  0  0  0  0  0  0  0
  188.1540  177.4220  145.1230 C   0  0  0  0  0  0  0  0  0  0  0  0
  188.4660  177.3020  146.5540 C   0  0  0  0  0  3  0  0  0  0  0  0
  188.6510  178.3110  140.0500 C   0  0  0  0  0  2  0  0  0  0  0  0
  189.0560  179.0060  137.7100 C   0  0  0  0  0  1  0  0  0  0  0  0
  188.1480  178.2040  138.6190 C   0  0  1  0  0  3  0  0  0  0  0  0
  188.1380  176.8080  138.2010 N   0  0  0  0  0  2  0  0  0  0  0  0
  185.0410  176.3930  136.1370 C   0  0  0  0  0  0  0  0  0  0  0  0
  186.4660  174.4580  135.8430 C   0  0  0  0  0  3  0  0  0  0  0  0
  183.7860  177.1250  135.8310 C   0  0  0  0  0  1  0  0  0  0  0  0
  185.9800  176.9500  137.0110 C   0  0  0  0  0  3  0  0  0  0  0  0
  187.4050  175.0150  136.7170 C   0  0  0  0  0  3  0  0  0  0  0  0
  187.1670  176.2630  137.3030 C   0  0  0  0  0  0  0  0  0  0  0  0
  185.2850  175.1470  135.5520 C   0  0  0  0  0  3  0  0  0  0  0  0
  1 14  1  0  0  0  0
  1  9  2  0  0  0  0
  2  3  1  0  0  0  0
  3 19  1  0  0  0  0
  3  7  1  1  0  0  0
  4 15  1  0  0  0  0
  5  2  2  0  0  0  0
  5 14  1  0  0  0  0
  6  1  1  0  0  0  0
  7  4  2  0  0  0  0
  8 13  1  0  0  0  0
 10 19  2  0  0  0  0
 12  8  1  0  0  0  0
 12 16  2  0  0  0  0
 13 18  2  0  0  0  0
 13  2  1  0  0  0  0
 15 11  1  0  0  0  0
 16  5  1  0  0  0  0
 17 16  1  0  0  0  0
 17  6  2  0  0  0  0
 18 10  1  0  0  0  0
 19 20  1  0  0  0  0
 20 15  2  0  0  0  0
 21  8  1  0  0  0  0
 23 22  1  6  0  0  0
 23 21  1  0  0  0  0
 24 23  1  0  0  0  0
 25 28  1  0  0  0  0
 26 29  2  0  0  0  0
 27 25  1  0  0  0  0
 28 30  2  0  0  0  0
 29 30  1  0  0  0  0
 30 24  1  0  0  0  0
 31 26  1  0  0  0  0
 31 25  2  0  0  0  0
M  END
>  <MODEL>
4

>  <REMARK>
 VINA RESULT:      -9.2      2.486      8.054
  Name = 
  4 active torsions:
  status: ('A' for Active; 'I' for Inactive)
    1  A    between atoms: N_3  and  C_9
    2  A    between atoms: N_3  and  C_22
    3  A    between atoms: C_9  and  C_23
    4  A    between atoms: N_15  and  C_23
                            x       y       z     vdW  Elec       q    Type
                         _______ _______ _______ _____ _____    ______ ____

>  <TORSDO>
F 4

$$$$
=
 OpenBabel11052413003D

 31 35  0  0  1  0  0  0  0  0999 V2000
  186.8670  177.8560  136.9040 C   0  0  0  0  0  0  0  0  0  0  0  0
  189.9440  177.2810  138.7070 C   0  0  0  0  0  0  0  0  0  0  0  0
  190.9240  176.9140  137.6080 C   0  0  0  0  0  0  0  0  0  0  0  0
  191.3050  175.1490  135.9120 C   0  0  0  0  0  3  0  0  0  0  0  0
  188.6530  177.6090  138.4560 C   0  0  0  0  0  0  0  0  0  0  0  0
  186.0150  178.2570  137.9300 C   0  0  0  0  0  3  0  0  0  0  0  0
  190.4380  175.8530  136.6490 C   0  0  0  0  0  3  0  0  0  0  0  0
  189.5610  177.8830  141.1110 N   0  0  0  0  0  0  0  0  0  0  0  0
  186.4440  177.7820  135.7210 O   0  0  0  0  0  0  0  0  0  0  0  0
  192.6620  176.7630  139.3840 C   0  0  0  0  0  3  0  0  0  0  0  0
  193.6640  174.6700  135.1970 N   0  0  0  0  0  1  0  0  0  0  0  0
  188.2020  178.1620  140.7590 C   0  0  0  0  0  3  0  0  0  0  0  0
  190.4660  177.4520  140.0840 C   0  0  0  0  0  0  0  0  0  0  0  0
  188.1580  177.5450  137.1880 N   0  0  0  0  0  2  0  0  0  0  0  0
  192.7670  175.3040  136.1000 C   0  0  0  0  0  0  0  0  0  0  0  0
  187.7810  178.0350  139.4950 C   0  0  0  0  0  0  0  0  0  0  0  0
  186.4890  178.3380  139.1980 N   0  0  0  0  0  0  0  0  0  0  0  0
  191.7200  177.2310  140.3580 N   0  0  0  0  0  0  0  0  0  0  0  0
  192.3090  176.5710  138.1130 C   0  0  0  0  0  0  0  0  0  0  0  0
  193.2480  175.9410  137.1740 C   0  0  0  0  0  2  0  0  0  0  0  0
  189.9710  177.9860  142.5060 C   0  0  0  0  0  2  0  0  0  0  0  0
  190.0720  175.6180  143.2210 C   0  0  0  0  0  1  0  0  0  0  0  0
  189.2900  176.9110  143.3380 C   0  0  1  0  0  3  0  0  0  0  0  0
  189.2300  177.3270  144.7330 N   0  0  0  0  0  2  0  0  0  0  0  0
  185.6780  178.3610  145.3160 C   0  0  0  0  0  0  0  0  0  0  0  0
  186.8400  178.2530  147.4370 C   0  0  0  0  0  3  0  0  0  0  0  0
  184.4410  178.6270  144.5380 C   0  0  0  0  0  1  0  0  0  0  0  0
  186.8480  177.9710  144.6560 C   0  0  0  0  0  3  0  0  0  0  0  0
  188.0100  177.8630  146.7770 C   0  0  0  0  0  3  0  0  0  0  0  0
  188.0190  177.7190  145.3850 C   0  0  0  0  0  0  0  0  0  0  0  0
  185.6750  178.5020  146.7060 C   0  0  0  0  0  3  0  0  0  0  0  0
  1 14  1  0  0  0  0
  1  6  1  0  0  0  0
  2 13  1  0  0  0  0
  3 19  1  0  0  0  0
  3  2  1  0  0  0  0
  4 15  2  0  0  0  0
  4  7  1  0  0  0  0
  5  2  2  0  0  0  0
  5 16  1  0  0  0  0
  6 17  2  0  0  0  0
  7  3  2  0  0  0  0
  8 21  1  0  0  0  0
  9  1  2  0  0  0  0
 10 18  1  0  0  0  0
 11 15  1  0  0  0  0
 12  8  1  0  0  0  0
 13 18  2  0  0  0  0
 13  8  1  0  0  0  0
 14  5  1  0  0  0  0
 15 20  1  0  0  0  0
 16 12  2  0  0  0  0
 17 16  1  0  0  0  0
 19 10  2  0  0  0  0
 20 19  1  0  0  0  0
 21 23  1  0  0  0  0
 23 22  1  1  0  0  0
 23 24  1  0  0  0  0
 24 30  1  0  0  0  0
 25 31  1  0  0  0  0
 27 25  1  0  0  0  0
 28 25  2  0  0  0  0
 28 30  1  0  0  0  0
 29 26  1  0  0  0  0
 30 29  2  0  0  0  0
 31 26  2  0  0  0  0
M  END
>  <MODEL>
5

>  <REMARK>
 VINA RESULT:      -9.1      1.565      2.073
  Name = 
  4 active torsions:
  status: ('A' for Active; 'I' for Inactive)
    1  A    between atoms: N_3  and  C_9
    2  A    between atoms: N_3  and  C_22
    3  A    between atoms: C_9  and  C_23
    4  A    between atoms: N_15  and  C_23
                            x       y       z     vdW  Elec       q    Type
                         _______ _______ _______ _____ _____    ______ ____

>  <TORSDO>
F 4

$$$$
=
 OpenBabel11052413003D

 31 35  0  0  1  0  0  0  0  0999 V2000
  182.4740  178.7130  144.0200 C   0  0  0  0  0  0  0  0  0  0  0  0
  184.4580  178.5090  141.0090 C   0  0  0  0  0  0  0  0  0  0  0  0
  183.4150  178.5130  139.9080 C   0  0  0  0  0  0  0  0  0  0  0  0
  181.5430  177.1320  139.0560 C   0  0  0  0  0  3  0  0  0  0  0  0
  184.1360  178.6040  142.3230 C   0  0  0  0  0  0  0  0  0  0  0  0
  183.4620  178.7780  145.0000 C   0  0  0  0  0  3  0  0  0  0  0  0
  182.2840  177.5300  140.0980 C   0  0  0  0  0  3  0  0  0  0  0  0
  186.8750  178.6590  141.6590 N   0  0  0  0  0  0  0  0  0  0  0  0
  181.2580  178.7310  144.3440 O   0  0  0  0  0  0  0  0  0  0  0  0
  185.3060  178.4540  138.2900 C   0  0  0  0  0  3  0  0  0  0  0  0
  180.9890  177.2480  136.6100 N   0  0  0  0  0  1  0  0  0  0  0  0
  186.4410  178.7070  143.0220 C   0  0  0  0  0  3  0  0  0  0  0  0
  185.8880  178.5750  140.6210 C   0  0  0  0  0  0  0  0  0  0  0  0
  182.8310  178.6300  142.7130 N   0  0  0  0  0  2  0  0  0  0  0  0
  181.8820  177.5480  137.6760 C   0  0  0  0  0  0  0  0  0  0  0  0
  185.1390  178.6870  143.3270 C   0  0  0  0  0  0  0  0  0  0  0  0
  184.7680  178.7640  144.6330 N   0  0  0  0  0  0  0  0  0  0  0  0
  186.2440  178.5730  139.3680 N   0  0  0  0  0  0  0  0  0  0  0  0
  183.9950  178.3850  138.5150 C   0  0  0  0  0  0  0  0  0  0  0  0
  183.0700  178.1030  137.4080 C   0  0  0  0  0  2  0  0  0  0  0  0
  188.3040  178.6340  141.3670 C   0  0  0  0  0  2  0  0  0  0  0  0
  189.9020  176.7450  141.3970 C   0  0  0  0  0  1  0  0  0  0  0  0
  189.0070  177.6180  142.2520 C   0  0  1  0  0  3  0  0  0  0  0  0
  189.8050  178.3050  143.2590 N   0  0  0  0  0  2  0  0  0  0  0  0
  189.3260  177.3500  146.8490 C   0  0  0  0  0  0  0  0  0  0  0  0
  191.5340  176.6690  146.1250 C   0  0  0  0  0  3  0  0  0  0  0  0
  188.2910  177.4410  147.9090 C   0  0  0  0  0  1  0  0  0  0  0  0
  189.0670  177.8630  145.5740 C   0  0  0  0  0  3  0  0  0  0  0  0
  191.2750  177.1820  144.8500 C   0  0  0  0  0  3  0  0  0  0  0  0
  190.0420  177.7800  144.5680 C   0  0  0  0  0  0  0  0  0  0  0  0
  190.5590  176.7520  147.1240 C   0  0  0  0  0  3  0  0  0  0  0  0
  1  9  2  0  0  0  0
  1  6  1  0  0  0  0
  2  5  2  0  0  0  0
  3  7  2  0  0  0  0
  3  2  1  0  0  0  0
  4  7  1  0  0  0  0
  5 14  1  0  0  0  0
  5 16  1  0  0  0  0
  8 12  1  0  0  0  0
 10 19  2  0  0  0  0
 10 18  1  0  0  0  0
 11 15  1  0  0  0  0
 12 16  2  0  0  0  0
 13  2  1  0  0  0  0
 13  8  1  0  0  0  0
 14  1  1  0  0  0  0
 15  4  2  0  0  0  0
 16 17  1  0  0  0  0
 17  6  2  0  0  0  0
 18 13  2  0  0  0  0
 19  3  1  0  0  0  0
 20 15  1  0  0  0  0
 20 19  1  0  0  0  0
 21  8  1  0  0  0  0
 21 23  1  0  0  0  0
 23 22  1  6  0  0  0
 23 24  1  0  0  0  0
 24 30  1  0  0  0  0
 25 31  1  0  0  0  0
 25 27  1  0  0  0  0
 26 31  2  0  0  0  0
 28 25  2  0  0  0  0
 29 26  1  0  0  0  0
 30 29  2  0  0  0  0
 30 28  1  0  0  0  0
M  END
>  <MODEL>
6

>  <REMARK>
 VINA RESULT:      -9.1      2.998      5.244
  Name = 
  4 active torsions:
  status: ('A' for Active; 'I' for Inactive)
    1  A    between atoms: N_3  and  C_9
    2  A    between atoms: N_3  and  C_22
    3  A    between atoms: C_9  and  C_23
    4  A    between atoms: N_15  and  C_23
                            x       y       z     vdW  Elec       q    Type
                         _______ _______ _______ _____ _____    ______ ____

>  <TORSDO>
F 4

$$$$
=
 OpenBabel11052413003D

 31 35  0  0  1  0  0  0  0  0999 V2000
  187.1320  178.4780  139.0020 C   0  0  0  0  0  0  0  0  0  0  0  0
  184.3270  178.7190  141.2640 C   0  0  0  0  0  0  0  0  0  0  0  0
  183.1390  178.8440  140.3290 C   0  0  0  0  0  0  0  0  0  0  0  0
  182.2110  180.3900  138.6290 C   0  0  0  0  0  3  0  0  0  0  0  0
  185.5980  178.5720  140.8170 C   0  0  0  0  0  0  0  0  0  0  0  0
  188.1900  178.2950  139.8900 C   0  0  0  0  0  3  0  0  0  0  0  0
  183.2880  179.8870  139.2460 C   0  0  0  0  0  3  0  0  0  0  0  0
  185.1770  178.3750  143.5980 N   0  0  0  0  0  0  0  0  0  0  0  0
  187.3450  178.5220  137.7630 O   0  0  0  0  0  0  0  0  0  0  0  0
  181.7020  178.8690  142.3610 C   0  0  0  0  0  3  0  0  0  0  0  0
  179.7230  180.4460  138.2980 N   0  0  0  0  0  1  0  0  0  0  0  0
  186.4910  178.2790  143.0370 C   0  0  0  0  0  3  0  0  0  0  0  0
  184.0630  178.5810  142.7170 C   0  0  0  0  0  0  0  0  0  0  0  0
  185.8690  178.6100  139.4820 N   0  0  0  0  0  2  0  0  0  0  0  0
  180.8430  180.0300  139.0690 C   0  0  0  0  0  0  0  0  0  0  0  0
  186.6800  178.3680  141.7160 C   0  0  0  0  0  0  0  0  0  0  0  0
  187.9410  178.2430  141.2220 N   0  0  0  0  0  0  0  0  0  0  0  0
  182.8490  178.6290  143.1860 N   0  0  0  0  0  0  0  0  0  0  0  0
  181.8140  179.0110  141.0410 C   0  0  0  0  0  0  0  0  0  0  0  0
  180.6480  179.4140  140.2410 C   0  0  0  0  0  2  0  0  0  0  0  0
  185.0150  178.3220  145.0460 C   0  0  0  0  0  2  0  0  0  0  0  0
  186.0560  179.3750  147.0290 C   0  0  0  0  0  1  0  0  0  0  0  0
  186.3330  178.6340  145.7370 C   0  0  1  0  0  3  0  0  0  0  0  0
  187.0490  177.3970  146.0210 N   0  0  0  0  0  2  0  0  0  0  0  0
  190.6690  177.5700  145.0770 C   0  0  0  0  0  0  0  0  0  0  0  0
  190.4690  176.7430  147.3440 C   0  0  0  0  0  3  0  0  0  0  0  0
  191.5120  177.9540  143.9170 C   0  0  0  0  0  1  0  0  0  0  0  0
  189.2770  177.6710  144.9930 C   0  0  0  0  0  3  0  0  0  0  0  0
  189.0770  176.8450  147.2600 C   0  0  0  0  0  3  0  0  0  0  0  0
  188.4750  177.3100  146.0860 C   0  0  0  0  0  0  0  0  0  0  0  0
  191.2650  177.1060  146.2530 C   0  0  0  0  0  3  0  0  0  0  0  0
  1 14  1  0  0  0  0
  1  6  1  0  0  0  0
  2 13  1  0  0  0  0
  3 19  1  0  0  0  0
  3  2  1  0  0  0  0
  4 15  2  0  0  0  0
  4  7  1  0  0  0  0
  5  2  2  0  0  0  0
  5 16  1  0  0  0  0
  6 17  2  0  0  0  0
  7  3  2  0  0  0  0
  8 21  1  0  0  0  0
  9  1  2  0  0  0  0
 10 18  1  0  0  0  0
 11 15  1  0  0  0  0
 12  8  1  0  0  0  0
 13 18  2  0  0  0  0
 13  8  1  0  0  0  0
 14  5  1  0  0  0  0
 15 20  1  0  0  0  0
 16 12  2  0  0  0  0
 17 16  1  0  0  0  0
 19 10  2  0  0  0  0
 20 19  1  0  0  0  0
 21 23  1  0  0  0  0
 23 24  1  0  0  0  0
 23 22  1  1  0  0  0
 24 30  1  0  0  0  0
 25 31  1  0  0  0  0
 27 25  1  0  0  0  0
 28 25  2  0  0  0  0
 28 30  1  0  0  0  0
 29 26  1  0  0  0  0
 30 29  2  0  0  0  0
 31 26  2  0  0  0  0
M  END
>  <MODEL>
7

>  <REMARK>
 VINA RESULT:      -9.1      2.845      6.282
  Name = 
  4 active torsions:
  status: ('A' for Active; 'I' for Inactive)
    1  A    between atoms: N_3  and  C_9
    2  A    between atoms: N_3  and  C_22
    3  A    between atoms: C_9  and  C_23
    4  A    between atoms: N_15  and  C_23
                            x       y       z     vdW  Elec       q    Type
                         _______ _______ _______ _____ _____    ______ ____

>  <TORSDO>
F 4

$$$$
=
 OpenBabel11052413003D

 31 35  0  0  1  0  0  0  0  0999 V2000
  185.0520  178.3560  144.6930 C   0  0  0  0  0  0  0  0  0  0  0  0
  188.2350  177.6790  143.1280 C   0  0  0  0  0  0  0  0  0  0  0  0
  189.0420  177.0450  144.2460 C   0  0  2  0  0  3  0  0  0  0  0  0
  189.9810  177.6080  146.4680 C   0  0  0  0  0  3  0  0  0  0  0  0
  186.9460  178.0660  143.2840 C   0  0  0  0  0  0  0  0  0  0  0  0
  184.3200  178.8690  143.6240 C   0  0  0  0  0  3  0  0  0  0  0  0
  189.0240  177.8030  145.5530 C   0  0  0  0  0  3  0  0  0  0  0  0
  188.0390  178.2360  140.6910 N   0  0  0  0  0  0  0  0  0  0  0  0
  184.5240  178.2540  145.8310 O   0  0  0  0  0  0  0  0  0  0  0  0
  190.8860  176.7830  142.5960 C   0  0  0  0  0  3  0  0  0  0  0  0
  192.0590  176.4190  147.2230 N   0  0  0  0  0  1  0  0  0  0  0  0
  186.7000  178.6650  140.9620 C   0  0  0  0  0  3  0  0  0  0  0  0
  188.8300  177.7170  141.7690 C   0  0  0  0  0  0  0  0  0  0  0  0
  186.3380  177.9670  144.5000 N   0  0  0  0  0  2  0  0  0  0  0  0
  191.1450  176.7380  146.1810 C   0  0  0  0  0  0  0  0  0  0  0  0
  186.1870  178.5740  142.1940 C   0  0  0  0  0  0  0  0  0  0  0  0
  184.9020  178.9660  142.4020 N   0  0  0  0  0  0  0  0  0  0  0  0
  190.0360  177.2770  141.5530 N   0  0  0  0  0  0  0  0  0  0  0  0
  190.4640  176.7020  143.8570 C   0  0  0  0  0  0  0  0  0  0  0  0
  191.4030  176.3440  144.9290 C   0  0  0  0  0  3  0  0  0  0  0  0
  188.5790  178.3950  139.3460 C   0  0  0  0  0  2  0  0  0  0  0  0
  186.6330  177.8790  137.9060 C   0  0  0  0  0  1  0  0  0  0  0  0
  187.9680  177.3670  138.4070 C   0  0  1  0  0  3  0  0  0  0  0  0
  188.8620  177.1340  137.2790 N   0  0  0  0  0  2  0  0  0  0  0  0
  192.1460  175.3610  137.5870 C   0  0  0  0  0  0  0  0  0  0  0  0
  190.4550  173.7940  136.8480 C   0  0  0  0  0  3  0  0  0  0  0  0
  193.5530  175.6550  137.9620 C   0  0  0  0  0  1  0  0  0  0  0  0
  191.1880  176.3790  137.6180 C   0  0  0  0  0  3  0  0  0  0  0  0
  189.4970  174.8120  136.8790 C   0  0  0  0  0  3  0  0  0  0  0  0
  189.8580  176.1080  137.2640 C   0  0  0  0  0  0  0  0  0  0  0  0
  191.7790  174.0690  137.2030 C   0  0  0  0  0  3  0  0  0  0  0  0
  1  9  2  0  0  0  0
  2  5  2  0  0  0  0
  2  3  1  0  0  0  0
  3  7  1  1  0  0  0
  5 14  1  0  0  0  0
  6  1  1  0  0  0  0
  7  4  2  0  0  0  0
  8 12  1  0  0  0  0
  8 13  1  0  0  0  0
 10 19  2  0  0  0  0
 12 16  2  0  0  0  0
 13  2  1  0  0  0  0
 14  1  1  0  0  0  0
 15  4  1  0  0  0  0
 15 11  1  0  0  0  0
 16 17  1  0  0  0  0
 16  5  1  0  0  0  0
 17  6  2  0  0  0  0
 18 13  2  0  0  0  0
 18 10  1  0  0  0  0
 19  3  1  0  0  0  0
 19 20  1  0  0  0  0
 20 15  2  0  0  0  0
 21  8  1  0  0  0  0
 23 22  1  6  0  0  0
 23 21  1  0  0  0  0
 24 23  1  0  0  0  0
 25 28  1  0  0  0  0
 25 27  1  0  0  0  0
 26 29  2  0  0  0  0
 26 31  1  0  0  0  0
 29 30  1  0  0  0  0
 30 24  1  0  0  0  0
 30 28  2  0  0  0  0
 31 25  2  0  0  0  0
M  END
>  <MODEL>
8

>  <REMARK>
 VINA RESULT:      -9.1      2.087      7.547
  Name = 
  4 active torsions:
  status: ('A' for Active; 'I' for Inactive)
    1  A    between atoms: N_3  and  C_9
    2  A    between atoms: N_3  and  C_22
    3  A    between atoms: C_9  and  C_23
    4  A    between atoms: N_15  and  C_23
                            x       y       z     vdW  Elec       q    Type
                         _______ _______ _______ _____ _____    ______ ____

>  <TORSDO>
F 4

$$$$
=
 OpenBabel11052413003D

 31 35  0  0  1  0  0  0  0  0999 V2000
  187.7660  178.3780  140.4740 C   0  0  0  0  0  0  0  0  0  0  0  0
  185.4470  178.5820  143.2350 C   0  0  0  0  0  0  0  0  0  0  0  0
  186.3560  178.5860  144.4490 C   0  0  2  0  0  3  0  0  0  0  0  0
  187.9850  177.1240  145.6110 C   0  0  0  0  0  3  0  0  0  0  0  0
  185.9210  178.5450  141.9650 C   0  0  0  0  0  0  0  0  0  0  0  0
  186.9050  178.4480  139.3810 C   0  0  0  0  0  3  0  0  0  0  0  0
  187.4050  177.4990  144.4640 C   0  0  0  0  0  3  0  0  0  0  0  0
  183.1420  178.8830  142.2940 N   0  0  0  0  0  0  0  0  0  0  0  0
  189.0070  178.2680  140.2960 O   0  0  0  0  0  0  0  0  0  0  0  0
  184.2980  178.8150  145.8310 C   0  0  0  0  0  3  0  0  0  0  0  0
  188.2690  177.3880  148.0910 N   0  0  0  0  0  1  0  0  0  0  0  0
  183.7290  178.7860  140.9920 C   0  0  0  0  0  3  0  0  0  0  0  0
  183.9950  178.7990  143.4450 C   0  0  0  0  0  0  0  0  0  0  0  0
  187.2590  178.4300  141.7320 N   0  0  0  0  0  2  0  0  0  0  0  0
  187.5330  177.6760  146.9090 C   0  0  0  0  0  0  0  0  0  0  0  0
  185.0500  178.6320  140.8460 C   0  0  0  0  0  0  0  0  0  0  0  0
  185.5700  178.5730  139.5910 N   0  0  0  0  0  0  0  0  0  0  0  0
  183.5020  178.9270  144.6440 N   0  0  0  0  0  0  0  0  0  0  0  0
  185.6140  178.6180  145.7690 C   0  0  0  0  0  0  0  0  0  0  0  0
  186.3790  178.3480  146.9950 C   0  0  0  0  0  3  0  0  0  0  0  0
  181.6940  179.0020  142.4150 C   0  0  0  0  0  2  0  0  0  0  0  0
  180.0600  177.4870  141.3380 C   0  0  0  0  0  1  0  0  0  0  0  0
  181.0220  178.6330  141.1020 C   0  0  1  0  0  3  0  0  0  0  0  0
  180.2990  179.7840  140.5760 N   0  0  0  0  0  2  0  0  0  0  0  0
  180.6150  182.1220  137.6670 C   0  0  0  0  0  0  0  0  0  0  0  0
  180.8300  179.8400  136.8880 C   0  0  0  0  0  3  0  0  0  0  0  0
  180.5870  183.5800  137.3870 C   0  0  0  0  0  1  0  0  0  0  0  0
  180.4490  181.6590  138.9760 C   0  0  0  0  0  3  0  0  0  0  0  0
  180.6640  179.3760  138.1980 C   0  0  0  0  0  3  0  0  0  0  0  0
  180.4750  180.2820  139.2470 C   0  0  0  0  0  0  0  0  0  0  0  0
  180.8060  181.2120  136.6240 C   0  0  0  0  0  3  0  0  0  0  0  0
  1 14  1  0  0  0  0
  2 13  1  0  0  0  0
  2  3  1  0  0  0  0
  3  7  1  1  0  0  0
  3 19  1  0  0  0  0
  4 15  1  0  0  0  0
  5  2  2  0  0  0  0
  6 17  2  0  0  0  0
  6  1  1  0  0  0  0
  7  4  2  0  0  0  0
  8 21  1  0  0  0  0
  8 13  1  0  0  0  0
  9  1  2  0  0  0  0
 12  8  1  0  0  0  0
 13 18  2  0  0  0  0
 14  5  1  0  0  0  0
 15 20  2  0  0  0  0
 15 11  1  0  0  0  0
 16 12  2  0  0  0  0
 16  5  1  0  0  0  0
 17 16  1  0  0  0  0
 18 10  1  0  0  0  0
 19 10  2  0  0  0  0
 19 20  1  0  0  0  0
 23 22  1  1  0  0  0
 23 21  1  0  0  0  0
 24 23  1  0  0  0  0
 25 28  1  0  0  0  0
 26 29  2  0  0  0  0
 27 25  1  0  0  0  0
 28 30  2  0  0  0  0
 29 30  1  0  0  0  0
 30 24  1  0  0  0  0
 31 26  1  0  0  0  0
 31 25  2  0  0  0  0
M  END
>  <MODEL>
9

>  <REMARK>
 VINA RESULT:      -9.0      3.937      9.343
  Name = 
  4 active torsions:
  status: ('A' for Active; 'I' for Inactive)
    1  A    between atoms: N_3  and  C_9
    2  A    between atoms: N_3  and  C_22
    3  A    between atoms: C_9  and  C_23
    4  A    between atoms: N_15  and  C_23
                            x       y       z     vdW  Elec       q    Type
                         _______ _______ _______ _____ _____    ______ ____

>  <TORSDO>
F 4

$$$$
