=
 OpenBabel11052413113D

 31 35  0  0  0  0  0  0  0  0999 V2000
  187.4640  177.7840  144.5430 C   0  0  0  0  0  0  0  0  0  0  0  0
  187.8520  177.8460  145.9070 C   0  0  0  0  0  0  0  0  0  0  0  0
  189.5310  177.6160  147.6570 C   0  0  0  0  0  0  0  0  0  0  0  0
  189.1680  177.5590  146.3100 C   0  0  0  0  0  3  0  0  0  0  0  0
  185.5810  178.4480  146.5390 C   0  0  0  0  0  3  0  0  0  0  0  0
  190.8050  177.3410  148.0270 F   0  0  0  0  0  0  0  0  0  0  0  0
  186.1130  178.0760  144.1960 C   0  0  0  0  0  0  0  0  0  0  0  0
  188.5830  177.9580  148.6230 C   0  0  0  0  0  3  0  0  0  0  0  0
  185.1970  178.3930  145.2030 C   0  0  0  0  0  3  0  0  0  0  0  0
  186.8990  178.1830  146.8980 C   0  0  0  0  0  0  0  0  0  0  0  0
  187.2690  178.2390  148.2440 C   0  0  0  0  0  3  0  0  0  0  0  0
  188.4420  177.3530  143.5210 C   0  0  0  0  0  0  0  0  0  0  0  0
  189.4520  177.5170  141.3060 C   0  0  0  0  0  0  0  0  0  0  0  0
  190.2090  175.6890  142.8180 C   0  0  0  0  0  2  0  0  0  0  0  0
  188.4410  177.9030  142.3040 C   0  0  0  0  0  3  0  0  0  0  0  0
  189.4350  176.3750  143.8530 N   0  0  0  0  0  2  0  0  0  0  0  0
  190.3080  176.5160  141.5650 C   0  0  0  0  0  3  0  0  0  0  0  0
  189.5100  178.2340  140.1060 O   0  0  0  0  0  0  0  0  0  0  0  0
  188.4780  178.1910  139.1270 C   0  0  0  0  0  1  0  0  0  0  0  0
  185.5720  178.1030  142.8200 C   0  0  0  0  0  3  0  0  0  0  0  0
  184.9990  179.1560  142.2450 C   0  0  0  0  0  3  0  0  0  0  0  0
  181.0160  178.1740  138.8780 C   0  0  0  0  0  0  0  0  0  0  0  0
  182.0820  178.3090  141.0810 C   0  0  0  0  0  3  0  0  0  0  0  0
  184.4740  179.3310  138.7310 O   0  0  0  0  0  0  0  0  0  0  0  0
  185.2260  179.4750  139.7910 N   0  0  0  0  0  0  0  0  0  0  0  0
  179.8200  177.8590  138.0540 C   0  0  0  0  0  1  0  0  0  0  0  0
  184.4850  179.1250  140.8690 C   0  0  0  0  0  0  0  0  0  0  0  0
  180.9610  178.0170  140.2810 C   0  0  0  0  0  3  0  0  0  0  0  0
  183.2850  178.9050  139.0730 C   0  0  0  0  0  0  0  0  0  0  0  0
  183.2300  178.7540  140.4290 C   0  0  0  0  0  0  0  0  0  0  0  0
  182.1950  178.6250  138.2530 C   0  0  0  0  0  3  0  0  0  0  0  0
  1  2  1  0  0  0  0
  2  4  2  0  0  0  0
  2 10  1  0  0  0  0
  3  6  1  0  0  0  0
  3  8  2  0  0  0  0
  4  3  1  0  0  0  0
  5 10  1  0  0  0  0
  7  1  2  0  0  0  0
  7  9  1  0  0  0  0
  9  5  2  0  0  0  0
 10 11  2  0  0  0  0
 11  8  1  0  0  0  0
 12 16  1  0  0  0  0
 12  1  1  0  0  0  0
 13 17  2  0  0  0  0
 13 15  1  0  0  0  0
 14 16  1  0  0  0  0
 15 12  2  0  0  0  0
 17 14  1  0  0  0  0
 18 13  1  0  0  0  0
 19 18  1  0  0  0  0
 20  7  1  0  0  0  0
 21 20  2  0  0  0  0
 22 28  1  0  0  0  0
 24 29  1  0  0  0  0
 24 25  1  0  0  0  0
 25 27  2  0  0  0  0
 26 22  1  0  0  0  0
 27 21  1  0  0  0  0
 28 23  2  0  0  0  0
 29 30  2  0  0  0  0
 30 27  1  0  0  0  0
 30 23  1  0  0  0  0
 31 22  2  0  0  0  0
 31 29  1  0  0  0  0
M  END
>  <MODEL>
1

>  <REMARK>
 VINA RESULT:     -11.0      0.000      0.000
  Name = 
  4 active torsions:
  status: ('A' for Active; 'I' for Inactive)
    1  A    between atoms: O_2  and  C_13
    2  A    between atoms: C_4  and  C_12
    3  A    between atoms: C_9  and  C_23
    4  A    between atoms: C_15  and  C_21
                            x       y       z     vdW  Elec       q    Type
                         _______ _______ _______ _____ _____    ______ ____

>  <TORSDO>
F 4

$$$$
=
 OpenBabel11052413113D

 31 35  0  0  0  0  0  0  0  0999 V2000
  187.7200  177.6280  144.0650 C   0  0  0  0  0  0  0  0  0  0  0  0
  187.0810  177.9760  145.2840 C   0  0  0  0  0  0  0  0  0  0  0  0
  187.0640  178.1190  147.7160 C   0  0  0  0  0  0  0  0  0  0  0  0
  187.7110  177.7790  146.5250 C   0  0  0  0  0  3  0  0  0  0  0  0
  185.1070  178.6960  144.0580 C   0  0  0  0  0  3  0  0  0  0  0  0
  187.6880  177.9270  148.9030 F   0  0  0  0  0  0  0  0  0  0  0  0
  187.0280  177.8410  142.8380 C   0  0  0  0  0  0  0  0  0  0  0  0
  185.7760  178.6560  147.6830 C   0  0  0  0  0  3  0  0  0  0  0  0
  185.7320  178.3620  142.8600 C   0  0  0  0  0  3  0  0  0  0  0  0
  185.7720  178.5130  145.2660 C   0  0  0  0  0  0  0  0  0  0  0  0
  185.1300  178.8500  146.4610 C   0  0  0  0  0  3  0  0  0  0  0  0
  189.0550  176.9920  144.0930 C   0  0  0  0  0  0  0  0  0  0  0  0
  191.2450  176.6290  145.1080 C   0  0  0  0  0  0  0  0  0  0  0  0
  190.7710  175.5670  142.9060 C   0  0  0  0  0  2  0  0  0  0  0  0
  189.9380  177.3050  145.0450 C   0  0  0  0  0  3  0  0  0  0  0  0
  189.3880  175.9920  143.1220 N   0  0  0  0  0  2  0  0  0  0  0  0
  191.6130  175.7810  144.1340 C   0  0  0  0  0  3  0  0  0  0  0  0
  192.0670  176.8730  146.2130 O   0  0  0  0  0  0  0  0  0  0  0  0
  192.0680  176.0520  147.3750 C   0  0  0  0  0  1  0  0  0  0  0  0
  187.5790  177.5780  141.4900 C   0  0  0  0  0  3  0  0  0  0  0  0
  187.9130  178.5130  140.6050 C   0  0  0  0  0  3  0  0  0  0  0  0
  191.8520  176.5250  137.6560 C   0  0  0  0  0  0  0  0  0  0  0  0
  190.7380  177.1450  139.7500 C   0  0  0  0  0  3  0  0  0  0  0  0
  188.5720  178.0400  137.1420 O   0  0  0  0  0  0  0  0  0  0  0  0
  187.8080  178.4440  138.1240 N   0  0  0  0  0  0  0  0  0  0  0  0
  193.0280  175.9420  136.9580 C   0  0  0  0  0  1  0  0  0  0  0  0
  188.4630  178.1900  139.2820 C   0  0  0  0  0  0  0  0  0  0  0  0
  191.8400  176.5970  139.0680 C   0  0  0  0  0  3  0  0  0  0  0  0
  189.6860  177.5380  137.6110 C   0  0  0  0  0  0  0  0  0  0  0  0
  189.6760  177.6060  138.9750 C   0  0  0  0  0  0  0  0  0  0  0  0
  190.7600  177.0020  136.9060 C   0  0  0  0  0  3  0  0  0  0  0  0
  1 12  1  0  0  0  0
  1  2  1  0  0  0  0
  2  4  1  0  0  0  0
  3  6  1  0  0  0  0
  4  3  2  0  0  0  0
  5 10  1  0  0  0  0
  7  9  1  0  0  0  0
  7  1  2  0  0  0  0
  8  3  1  0  0  0  0
  9  5  2  0  0  0  0
 10  2  2  0  0  0  0
 10 11  1  0  0  0  0
 11  8  2  0  0  0  0
 12 15  2  0  0  0  0
 13 18  1  0  0  0  0
 14 16  1  0  0  0  0
 14 17  1  0  0  0  0
 15 13  1  0  0  0  0
 16 12  1  0  0  0  0
 17 13  2  0  0  0  0
 18 19  1  0  0  0  0
 20  7  1  0  0  0  0
 21 20  2  0  0  0  0
 22 28  1  0  0  0  0
 24 29  1  0  0  0  0
 24 25  1  0  0  0  0
 25 27  2  0  0  0  0
 26 22  1  0  0  0  0
 27 21  1  0  0  0  0
 28 23  2  0  0  0  0
 29 30  2  0  0  0  0
 30 27  1  0  0  0  0
 30 23  1  0  0  0  0
 31 29  1  0  0  0  0
 31 22  2  0  0  0  0
M  END
>  <MODEL>
2

>  <REMARK>
 VINA RESULT:     -10.8      3.073      5.578
  Name = 
  4 active torsions:
  status: ('A' for Active; 'I' for Inactive)
    1  A    between atoms: O_2  and  C_13
    2  A    between atoms: C_4  and  C_12
    3  A    between atoms: C_9  and  C_23
    4  A    between atoms: C_15  and  C_21
                            x       y       z     vdW  Elec       q    Type
                         _______ _______ _______ _____ _____    ______ ____

>  <TORSDO>
F 4

$$$$
=
 OpenBabel11052413113D

 31 35  0  0  0  0  0  0  0  0999 V2000
  188.4860  177.6450  143.7180 C   0  0  0  0  0  0  0  0  0  0  0  0
  189.0230  177.3750  145.0040 C   0  0  0  0  0  0  0  0  0  0  0  0
  190.8920  176.7900  146.4530 C   0  0  0  0  0  0  0  0  0  0  0  0
  190.3810  177.0610  145.1810 C   0  0  0  0  0  3  0  0  0  0  0  0
  186.8240  177.6790  146.0000 C   0  0  0  0  0  3  0  0  0  0  0  0
  192.2050  176.4940  146.6060 F   0  0  0  0  0  0  0  0  0  0  0  0
  187.0980  177.9470  143.5990 C   0  0  0  0  0  0  0  0  0  0  0  0
  190.0500  176.8250  147.5660 C   0  0  0  0  0  3  0  0  0  0  0  0
  186.2940  177.9490  144.7420 C   0  0  0  0  0  3  0  0  0  0  0  0
  188.1790  177.3980  146.1400 C   0  0  0  0  0  0  0  0  0  0  0  0
  188.6960  177.1260  147.4100 C   0  0  0  0  0  3  0  0  0  0  0  0
  189.3530  177.5390  142.5240 C   0  0  0  0  0  0  0  0  0  0  0  0
  189.6980  177.1070  140.1480 C   0  0  0  0  0  0  0  0  0  0  0  0
  191.6950  177.5270  141.5760 C   0  0  0  0  0  2  0  0  0  0  0  0
  188.8480  177.1540  141.3500 C   0  0  0  0  0  3  0  0  0  0  0  0
  190.7350  177.9050  142.6140 N   0  0  0  0  0  2  0  0  0  0  0  0
  191.0180  177.3280  140.2460 C   0  0  0  0  0  3  0  0  0  0  0  0
  189.0900  176.8530  138.9130 O   0  0  0  0  0  0  0  0  0  0  0  0
  188.6030  177.8850  138.0630 C   0  0  0  0  0  1  0  0  0  0  0  0
  186.4060  178.2980  142.3400 C   0  0  0  0  0  3  0  0  0  0  0  0
  185.1330  178.6730  142.2470 C   0  0  0  0  0  3  0  0  0  0  0  0
  180.7890  178.8720  139.2050 C   0  0  0  0  0  0  0  0  0  0  0  0
  182.0510  178.3830  141.2490 C   0  0  0  0  0  3  0  0  0  0  0  0
  184.3270  179.7290  138.9470 O   0  0  0  0  0  0  0  0  0  0  0  0
  185.1800  179.5500  139.9230 N   0  0  0  0  0  0  0  0  0  0  0  0
  179.4980  178.8670  138.4680 C   0  0  0  0  0  1  0  0  0  0  0  0
  184.5010  179.0160  140.9660 C   0  0  0  0  0  0  0  0  0  0  0  0
  180.8390  178.3880  140.5320 C   0  0  0  0  0  3  0  0  0  0  0  0
  183.1320  179.3380  139.3120 C   0  0  0  0  0  0  0  0  0  0  0  0
  183.1800  178.8710  140.5940 C   0  0  0  0  0  0  0  0  0  0  0  0
  181.9510  179.3570  138.5750 C   0  0  0  0  0  3  0  0  0  0  0  0
  1  2  1  0  0  0  0
  2  4  2  0  0  0  0
  2 10  1  0  0  0  0
  3  6  1  0  0  0  0
  3  8  2  0  0  0  0
  4  3  1  0  0  0  0
  5 10  1  0  0  0  0
  7  1  2  0  0  0  0
  7  9  1  0  0  0  0
  9  5  2  0  0  0  0
 10 11  2  0  0  0  0
 11  8  1  0  0  0  0
 12 16  1  0  0  0  0
 12  1  1  0  0  0  0
 13 17  2  0  0  0  0
 13 15  1  0  0  0  0
 14 16  1  0  0  0  0
 15 12  2  0  0  0  0
 17 14  1  0  0  0  0
 18 13  1  0  0  0  0
 19 18  1  0  0  0  0
 20  7  1  0  0  0  0
 21 20  2  0  0  0  0
 22 28  1  0  0  0  0
 24 29  1  0  0  0  0
 24 25  1  0  0  0  0
 25 27  2  0  0  0  0
 26 22  1  0  0  0  0
 27 21  1  0  0  0  0
 28 23  2  0  0  0  0
 29 30  2  0  0  0  0
 30 27  1  0  0  0  0
 30 23  1  0  0  0  0
 31 22  2  0  0  0  0
 31 29  1  0  0  0  0
M  END
>  <MODEL>
3

>  <REMARK>
 VINA RESULT:     -10.6      1.178      1.422
  Name = 
  4 active torsions:
  status: ('A' for Active; 'I' for Inactive)
    1  A    between atoms: O_2  and  C_13
    2  A    between atoms: C_4  and  C_12
    3  A    between atoms: C_9  and  C_23
    4  A    between atoms: C_15  and  C_21
                            x       y       z     vdW  Elec       q    Type
                         _______ _______ _______ _____ _____    ______ ____

>  <TORSDO>
F 4

$$$$
=
 OpenBabel11052413113D

 31 35  0  0  0  0  0  0  0  0999 V2000
  189.0120  177.4720  144.2580 C   0  0  0  0  0  0  0  0  0  0  0  0
  188.6530  177.6240  145.6230 C   0  0  0  0  0  0  0  0  0  0  0  0
  187.0490  178.2510  147.3470 C   0  0  0  0  0  0  0  0  0  0  0  0
  187.3840  178.0980  145.9990 C   0  0  0  0  0  3  0  0  0  0  0  0
  190.8630  176.8700  146.3030 C   0  0  0  0  0  3  0  0  0  0  0  0
  185.8200  178.7040  147.6920 F   0  0  0  0  0  0  0  0  0  0  0  0
  190.3170  176.9970  143.9370 C   0  0  0  0  0  0  0  0  0  0  0  0
  187.9800  177.9350  148.3390 C   0  0  0  0  0  3  0  0  0  0  0  0
  191.2190  176.7140  144.9660 C   0  0  0  0  0  3  0  0  0  0  0  0
  189.5890  177.3170  146.6380 C   0  0  0  0  0  0  0  0  0  0  0  0
  189.2480  177.4710  147.9850 C   0  0  0  0  0  3  0  0  0  0  0  0
  188.0600  177.8720  143.2000 C   0  0  0  0  0  0  0  0  0  0  0  0
  185.7950  178.1110  142.3230 C   0  0  0  0  0  0  0  0  0  0  0  0
  187.7080  178.6720  140.8290 C   0  0  0  0  0  2  0  0  0  0  0  0
  186.7490  177.6590  143.3490 C   0  0  0  0  0  3  0  0  0  0  0  0
  188.5380  178.5420  142.0270 N   0  0  0  0  0  2  0  0  0  0  0  0
  186.2420  178.6280  141.1670 C   0  0  0  0  0  3  0  0  0  0  0  0
  184.4270  178.0110  142.5970 O   0  0  0  0  0  0  0  0  0  0  0  0
  183.8150  178.6290  143.7230 C   0  0  0  0  0  1  0  0  0  0  0  0
  190.8190  176.7390  142.5700 C   0  0  0  0  0  3  0  0  0  0  0  0
  191.6910  177.5030  141.9190 C   0  0  0  0  0  3  0  0  0  0  0  0
  190.5890  176.2040  136.8930 C   0  0  0  0  0  0  0  0  0  0  0  0
  190.0410  176.7550  139.2180 C   0  0  0  0  0  3  0  0  0  0  0  0
  193.5350  176.8560  138.9470 O   0  0  0  0  0  0  0  0  0  0  0  0
  193.4680  177.1680  140.2160 N   0  0  0  0  0  0  0  0  0  0  0  0
  190.1370  175.8410  135.5250 C   0  0  0  0  0  1  0  0  0  0  0  0
  192.1590  177.1920  140.5620 C   0  0  0  0  0  0  0  0  0  0  0  0
  189.6350  176.4110  137.9140 C   0  0  0  0  0  3  0  0  0  0  0  0
  192.3330  176.6780  138.4600 C   0  0  0  0  0  0  0  0  0  0  0  0
  191.4100  176.8790  139.4460 C   0  0  0  0  0  0  0  0  0  0  0  0
  191.9660  176.3370  137.1610 C   0  0  0  0  0  3  0  0  0  0  0  0
  1  2  1  0  0  0  0
  2  4  2  0  0  0  0
  2 10  1  0  0  0  0
  3  6  1  0  0  0  0
  3  8  2  0  0  0  0
  4  3  1  0  0  0  0
  5 10  1  0  0  0  0
  7  1  2  0  0  0  0
  7  9  1  0  0  0  0
  9  5  2  0  0  0  0
 10 11  2  0  0  0  0
 11  8  1  0  0  0  0
 12 15  2  0  0  0  0
 12  1  1  0  0  0  0
 13 18  1  0  0  0  0
 13 15  1  0  0  0  0
 14 17  1  0  0  0  0
 14 16  1  0  0  0  0
 16 12  1  0  0  0  0
 17 13  2  0  0  0  0
 18 19  1  0  0  0  0
 20  7  1  0  0  0  0
 21 20  2  0  0  0  0
 22 31  2  0  0  0  0
 22 28  1  0  0  0  0
 23 30  1  0  0  0  0
 24 25  1  0  0  0  0
 25 27  2  0  0  0  0
 26 22  1  0  0  0  0
 27 21  1  0  0  0  0
 28 23  2  0  0  0  0
 29 24  1  0  0  0  0
 29 30  2  0  0  0  0
 30 27  1  0  0  0  0
 31 29  1  0  0  0  0
M  END
>  <MODEL>
4

>  <REMARK>
 VINA RESULT:     -10.5      2.989      6.264
  Name = 
  4 active torsions:
  status: ('A' for Active; 'I' for Inactive)
    1  A    between atoms: O_2  and  C_13
    2  A    between atoms: C_4  and  C_12
    3  A    between atoms: C_9  and  C_23
    4  A    between atoms: C_15  and  C_21
                            x       y       z     vdW  Elec       q    Type
                         _______ _______ _______ _____ _____    ______ ____

>  <TORSDO>
F 4

$$$$
=
 OpenBabel11052413113D

 31 35  0  0  0  0  0  0  0  0999 V2000
  187.3060  177.8750  144.5230 C   0  0  0  0  0  0  0  0  0  0  0  0
  187.6730  177.9280  145.8930 C   0  0  0  0  0  0  0  0  0  0  0  0
  189.3230  177.6750  147.6680 C   0  0  0  0  0  0  0  0  0  0  0  0
  188.9800  177.6260  146.3150 C   0  0  0  0  0  3  0  0  0  0  0  0
  185.3990  178.5480  146.4920 C   0  0  0  0  0  3  0  0  0  0  0  0
  190.5880  177.3860  148.0560 F   0  0  0  0  0  0  0  0  0  0  0  0
  185.9630  178.1820  144.1560 C   0  0  0  0  0  0  0  0  0  0  0  0
  188.3630  178.0210  148.6210 C   0  0  0  0  0  3  0  0  0  0  0  0
  185.0350  178.5030  145.1500 C   0  0  0  0  0  3  0  0  0  0  0  0
  186.7080  178.2690  146.8700 C   0  0  0  0  0  0  0  0  0  0  0  0
  187.0570  178.3160  148.2230 C   0  0  0  0  0  3  0  0  0  0  0  0
  188.2960  177.4390  143.5140 C   0  0  0  0  0  0  0  0  0  0  0  0
  190.1640  176.0420  142.7980 C   0  0  0  0  0  0  0  0  0  0  0  0
  189.3560  177.8210  141.2530 C   0  0  0  0  0  2  0  0  0  0  0  0
  189.2160  176.5200  143.8190 C   0  0  0  0  0  3  0  0  0  0  0  0
  188.2370  177.9670  142.1840 N   0  0  0  0  0  2  0  0  0  0  0  0
  190.1970  176.6170  141.5850 C   0  0  0  0  0  3  0  0  0  0  0  0
  191.0000  174.9660  143.1180 O   0  0  0  0  0  0  0  0  0  0  0  0
  191.9360  175.0050  144.1890 C   0  0  0  0  0  1  0  0  0  0  0  0
  185.4440  178.2200  142.7720 C   0  0  0  0  0  3  0  0  0  0  0  0
  184.5200  179.0650  142.3250 C   0  0  0  0  0  3  0  0  0  0  0  0
  180.6270  178.1850  138.8270 C   0  0  0  0  0  0  0  0  0  0  0  0
  181.6280  178.2750  141.0630 C   0  0  0  0  0  3  0  0  0  0  0  0
  184.1040  179.2940  138.8010 O   0  0  0  0  0  0  0  0  0  0  0  0
  184.8250  179.4140  139.8850 N   0  0  0  0  0  0  0  0  0  0  0  0
  179.4520  177.8980  137.9630 C   0  0  0  0  0  1  0  0  0  0  0  0
  184.0470  179.0590  140.9350 C   0  0  0  0  0  0  0  0  0  0  0  0
  180.5270  178.0100  140.2260 C   0  0  0  0  0  3  0  0  0  0  0  0
  182.8990  178.8810  139.1010 C   0  0  0  0  0  0  0  0  0  0  0  0
  182.8010  178.7120  140.4520 C   0  0  0  0  0  0  0  0  0  0  0  0
  181.8300  178.6280  138.2450 C   0  0  0  0  0  3  0  0  0  0  0  0
  1  2  1  0  0  0  0
  2  4  2  0  0  0  0
  2 10  1  0  0  0  0
  3  6  1  0  0  0  0
  3  8  2  0  0  0  0
  4  3  1  0  0  0  0
  5 10  1  0  0  0  0
  7  1  2  0  0  0  0
  7  9  1  0  0  0  0
  9  5  2  0  0  0  0
 10 11  2  0  0  0  0
 11  8  1  0  0  0  0
 12 15  2  0  0  0  0
 12  1  1  0  0  0  0
 13 18  1  0  0  0  0
 13 15  1  0  0  0  0
 14 17  1  0  0  0  0
 14 16  1  0  0  0  0
 16 12  1  0  0  0  0
 17 13  2  0  0  0  0
 18 19  1  0  0  0  0
 20  7  1  0  0  0  0
 21 20  2  0  0  0  0
 22 28  1  0  0  0  0
 24 29  1  0  0  0  0
 24 25  1  0  0  0  0
 25 27  2  0  0  0  0
 26 22  1  0  0  0  0
 27 21  1  0  0  0  0
 28 23  2  0  0  0  0
 29 30  2  0  0  0  0
 30 27  1  0  0  0  0
 30 23  1  0  0  0  0
 31 22  2  0  0  0  0
 31 29  1  0  0  0  0
M  END
>  <MODEL>
5

>  <REMARK>
 VINA RESULT:     -10.4      1.116      1.763
  Name = 
  4 active torsions:
  status: ('A' for Active; 'I' for Inactive)
    1  A    between atoms: O_2  and  C_13
    2  A    between atoms: C_4  and  C_12
    3  A    between atoms: C_9  and  C_23
    4  A    between atoms: C_15  and  C_21
                            x       y       z     vdW  Elec       q    Type
                         _______ _______ _______ _____ _____    ______ ____

>  <TORSDO>
F 4

$$$$
=
 OpenBabel11052413113D

 31 35  0  0  0  0  0  0  0  0999 V2000
  188.8950  177.3360  143.7550 C   0  0  0  0  0  0  0  0  0  0  0  0
  189.0390  177.3920  145.1660 C   0  0  0  0  0  0  0  0  0  0  0  0
  188.1650  177.9200  147.3770 C   0  0  0  0  0  0  0  0  0  0  0  0
  188.0040  177.8640  145.9910 C   0  0  0  0  0  3  0  0  0  0  0  0
  191.3090  176.5370  144.9800 C   0  0  0  0  0  3  0  0  0  0  0  0
  187.1550  178.3730  148.1580 F   0  0  0  0  0  0  0  0  0  0  0  0
  189.9830  176.8580  142.9680 C   0  0  0  0  0  0  0  0  0  0  0  0
  189.3660  177.5080  147.9590 C   0  0  0  0  0  3  0  0  0  0  0  0
  191.1710  176.4760  143.5960 C   0  0  0  0  0  3  0  0  0  0  0  0
  190.2540  176.9850  145.7680 C   0  0  0  0  0  0  0  0  0  0  0  0
  190.4090  177.0440  147.1550 C   0  0  0  0  0  3  0  0  0  0  0  0
  187.6550  177.8380  143.1240 C   0  0  0  0  0  0  0  0  0  0  0  0
  185.2470  178.2350  143.1300 C   0  0  0  0  0  0  0  0  0  0  0  0
  186.5300  178.7780  141.0650 C   0  0  0  0  0  2  0  0  0  0  0  0
  186.4740  177.6830  143.7290 C   0  0  0  0  0  3  0  0  0  0  0  0
  187.7240  178.5430  141.8780 N   0  0  0  0  0  2  0  0  0  0  0  0
  185.2830  178.7880  141.9070 C   0  0  0  0  0  3  0  0  0  0  0  0
  184.0640  178.1890  143.8760 O   0  0  0  0  0  0  0  0  0  0  0  0
  183.8470  178.9850  145.0340 C   0  0  0  0  0  1  0  0  0  0  0  0
  189.9670  176.6940  141.4980 C   0  0  0  0  0  3  0  0  0  0  0  0
  190.8730  177.1930  140.6640 C   0  0  0  0  0  3  0  0  0  0  0  0
  188.2530  177.7700  136.0850 C   0  0  0  0  0  0  0  0  0  0  0  0
  188.5800  178.0010  138.5030 C   0  0  0  0  0  3  0  0  0  0  0  0
  191.4140  176.3640  137.2470 O   0  0  0  0  0  0  0  0  0  0  0  0
  191.7870  176.3810  138.5010 N   0  0  0  0  0  0  0  0  0  0  0  0
  187.4110  177.9970  134.8810 C   0  0  0  0  0  1  0  0  0  0  0  0
  190.8080  176.9920  139.2100 C   0  0  0  0  0  0  0  0  0  0  0  0
  187.7990  178.2060  137.3500 C   0  0  0  0  0  3  0  0  0  0  0  0
  190.2430  176.9340  137.1140 C   0  0  0  0  0  0  0  0  0  0  0  0
  189.8040  177.3560  138.3370 C   0  0  0  0  0  0  0  0  0  0  0  0
  189.4960  177.1210  135.9550 C   0  0  0  0  0  3  0  0  0  0  0  0
  1  2  1  0  0  0  0
  2 10  2  0  0  0  0
  2  4  1  0  0  0  0
  3  8  1  0  0  0  0
  3  6  1  0  0  0  0
  4  3  2  0  0  0  0
  5 10  1  0  0  0  0
  7  9  1  0  0  0  0
  7  1  2  0  0  0  0
  9  5  2  0  0  0  0
 10 11  1  0  0  0  0
 11  8  2  0  0  0  0
 12 15  2  0  0  0  0
 12  1  1  0  0  0  0
 13 15  1  0  0  0  0
 13 18  1  0  0  0  0
 14 16  1  0  0  0  0
 14 17  1  0  0  0  0
 16 12  1  0  0  0  0
 17 13  2  0  0  0  0
 18 19  1  0  0  0  0
 20  7  1  0  0  0  0
 21 20  2  0  0  0  0
 22 28  1  0  0  0  0
 24 25  1  0  0  0  0
 25 27  2  0  0  0  0
 26 22  1  0  0  0  0
 27 21  1  0  0  0  0
 28 23  2  0  0  0  0
 29 24  1  0  0  0  0
 29 30  2  0  0  0  0
 30 23  1  0  0  0  0
 30 27  1  0  0  0  0
 31 22  2  0  0  0  0
 31 29  1  0  0  0  0
M  END
>  <MODEL>
6

>  <REMARK>
 VINA RESULT:     -10.4      2.849      5.596
  Name = 
  4 active torsions:
  status: ('A' for Active; 'I' for Inactive)
    1  A    between atoms: O_2  and  C_13
    2  A    between atoms: C_4  and  C_12
    3  A    between atoms: C_9  and  C_23
    4  A    between atoms: C_15  and  C_21
                            x       y       z     vdW  Elec       q    Type
                         _______ _______ _______ _____ _____    ______ ____

>  <TORSDO>
F 4

$$$$
=
 OpenBabel11052413113D

 31 35  0  0  0  0  0  0  0  0999 V2000
  186.8120  178.1590  144.7830 C   0  0  0  0  0  0  0  0  0  0  0  0
  187.5950  177.9670  145.9510 C   0  0  0  0  0  0  0  0  0  0  0  0
  189.7080  177.4210  147.0330 C   0  0  0  0  0  0  0  0  0  0  0  0
  188.9530  177.6140  145.8740 C   0  0  0  0  0  3  0  0  0  0  0  0
  185.6550  178.4330  147.3430 C   0  0  0  0  0  3  0  0  0  0  0  0
  191.0170  177.0850  146.9410 F   0  0  0  0  0  0  0  0  0  0  0  0
  185.4370  178.5060  144.9230 C   0  0  0  0  0  0  0  0  0  0  0  0
  189.1140  177.5730  148.2880 C   0  0  0  0  0  3  0  0  0  0  0  0
  184.8840  178.6280  146.2010 C   0  0  0  0  0  3  0  0  0  0  0  0
  187.0040  178.1100  147.2290 C   0  0  0  0  0  0  0  0  0  0  0  0
  187.7640  177.9160  148.3850 C   0  0  0  0  0  3  0  0  0  0  0  0
  187.4120  177.9290  143.4510 C   0  0  0  0  0  0  0  0  0  0  0  0
  189.0870  176.9170  141.9920 C   0  0  0  0  0  0  0  0  0  0  0  0
  187.4690  178.5270  140.9970 C   0  0  0  0  0  2  0  0  0  0  0  0
  188.5220  177.1960  143.3240 C   0  0  0  0  0  3  0  0  0  0  0  0
  186.7710  178.4490  142.2800 N   0  0  0  0  0  2  0  0  0  0  0  0
  188.5650  177.5010  140.9020 C   0  0  0  0  0  3  0  0  0  0  0  0
  190.1530  176.0160  141.8980 O   0  0  0  0  0  0  0  0  0  0  0  0
  190.9410  175.6270  143.0180 C   0  0  0  0  0  1  0  0  0  0  0  0
  184.5090  178.7870  143.8060 C   0  0  0  0  0  3  0  0  0  0  0  0
  183.1830  178.7040  143.8740 C   0  0  0  0  0  3  0  0  0  0  0  0
  182.1320  178.2570  138.6920 C   0  0  0  0  0  0  0  0  0  0  0  0
  183.4300  177.8810  140.7370 C   0  0  0  0  0  3  0  0  0  0  0  0
  180.6470  179.8110  141.6410 O   0  0  0  0  0  0  0  0  0  0  0  0
  181.1760  179.7340  142.8340 N   0  0  0  0  0  0  0  0  0  0  0  0
  181.9640  178.0530  137.2290 C   0  0  0  0  0  1  0  0  0  0  0  0
  182.3110  179.0020  142.7310 C   0  0  0  0  0  0  0  0  0  0  0  0
  183.2500  177.7000  139.3520 C   0  0  0  0  0  3  0  0  0  0  0  0
  181.3850  179.1650  140.7740 C   0  0  0  0  0  0  0  0  0  0  0  0
  182.4650  178.6260  141.4120 C   0  0  0  0  0  0  0  0  0  0  0  0
  181.1770  179.0050  139.4070 C   0  0  0  0  0  3  0  0  0  0  0  0
  1  7  2  0  0  0  0
  1  2  1  0  0  0  0
  2 10  1  0  0  0  0
  3  8  2  0  0  0  0
  4  2  2  0  0  0  0
  4  3  1  0  0  0  0
  6  3  1  0  0  0  0
  7  9  1  0  0  0  0
  8 11  1  0  0  0  0
  9  5  2  0  0  0  0
 10  5  1  0  0  0  0
 10 11  2  0  0  0  0
 12  1  1  0  0  0  0
 13 15  1  0  0  0  0
 14 16  1  0  0  0  0
 15 12  2  0  0  0  0
 16 12  1  0  0  0  0
 17 14  1  0  0  0  0
 17 13  2  0  0  0  0
 18 13  1  0  0  0  0
 18 19  1  0  0  0  0
 20 21  2  0  0  0  0
 20  7  1  0  0  0  0
 22 28  2  0  0  0  0
 22 31  1  0  0  0  0
 23 30  2  0  0  0  0
 24 25  1  0  0  0  0
 26 22  1  0  0  0  0
 27 25  2  0  0  0  0
 27 21  1  0  0  0  0
 28 23  1  0  0  0  0
 29 30  1  0  0  0  0
 29 24  1  0  0  0  0
 30 27  1  0  0  0  0
 31 29  2  0  0  0  0
M  END
>  <MODEL>
7

>  <REMARK>
 VINA RESULT:     -10.3      1.777      2.381
  Name = 
  4 active torsions:
  status: ('A' for Active; 'I' for Inactive)
    1  A    between atoms: O_2  and  C_13
    2  A    between atoms: C_4  and  C_12
    3  A    between atoms: C_9  and  C_23
    4  A    between atoms: C_15  and  C_21
                            x       y       z     vdW  Elec       q    Type
                         _______ _______ _______ _____ _____    ______ ____

>  <TORSDO>
F 4

$$$$
=
 OpenBabel11052413113D

 31 35  0  0  0  0  0  0  0  0999 V2000
  186.8620  178.0950  144.6050 C   0  0  0  0  0  0  0  0  0  0  0  0
  187.6290  177.9540  145.7910 C   0  0  0  0  0  0  0  0  0  0  0  0
  189.7370  177.5020  146.9250 C   0  0  0  0  0  0  0  0  0  0  0  0
  188.9990  177.6450  145.7480 C   0  0  0  0  0  3  0  0  0  0  0  0
  185.6480  178.3850  147.1360 C   0  0  0  0  0  3  0  0  0  0  0  0
  191.0580  177.2090  146.8650 F   0  0  0  0  0  0  0  0  0  0  0  0
  185.4740  178.3990  144.7110 C   0  0  0  0  0  0  0  0  0  0  0  0
  189.1140  177.6620  148.1640 C   0  0  0  0  0  3  0  0  0  0  0  0
  184.8930  178.5290  145.9750 C   0  0  0  0  0  3  0  0  0  0  0  0
  187.0080  178.1050  147.0540 C   0  0  0  0  0  0  0  0  0  0  0  0
  187.7520  177.9610  148.2290 C   0  0  0  0  0  3  0  0  0  0  0  0
  187.4960  177.8560  143.2900 C   0  0  0  0  0  0  0  0  0  0  0  0
  187.5620  178.0810  140.8610 C   0  0  0  0  0  0  0  0  0  0  0  0
  189.3050  176.6880  141.9670 C   0  0  0  0  0  2  0  0  0  0  0  0
  186.9030  178.2650  142.1650 C   0  0  0  0  0  3  0  0  0  0  0  0
  188.7830  177.2280  143.2220 N   0  0  0  0  0  2  0  0  0  0  0  0
  188.7070  177.3860  140.7750 C   0  0  0  0  0  3  0  0  0  0  0  0
  186.9780  178.6680  139.7330 O   0  0  0  0  0  0  0  0  0  0  0  0
  187.0940  178.1190  138.4250 C   0  0  0  0  0  1  0  0  0  0  0  0
  184.5590  178.6250  143.5710 C   0  0  0  0  0  3  0  0  0  0  0  0
  183.2370  178.7330  143.6620 C   0  0  0  0  0  3  0  0  0  0  0  0
  182.3370  178.1310  138.4660 C   0  0  0  0  0  0  0  0  0  0  0  0
  183.6020  177.8620  140.5490 C   0  0  0  0  0  3  0  0  0  0  0  0
  180.7040  179.6660  141.3470 O   0  0  0  0  0  0  0  0  0  0  0  0
  181.2070  179.6390  142.5530 N   0  0  0  0  0  0  0  0  0  0  0  0
  182.2150  177.8900  137.0050 C   0  0  0  0  0  1  0  0  0  0  0  0
  182.3800  178.9640  142.4920 C   0  0  0  0  0  0  0  0  0  0  0  0
  183.4650  177.6440  139.1650 C   0  0  0  0  0  3  0  0  0  0  0  0
  181.4940  179.0410  140.5110 C   0  0  0  0  0  0  0  0  0  0  0  0
  182.5850  178.5700  141.1850 C   0  0  0  0  0  0  0  0  0  0  0  0
  181.3290  178.8440  139.1430 C   0  0  0  0  0  3  0  0  0  0  0  0
  1  7  2  0  0  0  0
  1  2  1  0  0  0  0
  2 10  1  0  0  0  0
  3  8  2  0  0  0  0
  4  2  2  0  0  0  0
  4  3  1  0  0  0  0
  6  3  1  0  0  0  0
  7  9  1  0  0  0  0
  8 11  1  0  0  0  0
  9  5  2  0  0  0  0
 10  5  1  0  0  0  0
 10 11  2  0  0  0  0
 12  1  1  0  0  0  0
 13 15  1  0  0  0  0
 14 16  1  0  0  0  0
 15 12  2  0  0  0  0
 16 12  1  0  0  0  0
 17 13  2  0  0  0  0
 17 14  1  0  0  0  0
 18 13  1  0  0  0  0
 19 18  1  0  0  0  0
 20 21  2  0  0  0  0
 20  7  1  0  0  0  0
 22 31  2  0  0  0  0
 22 28  1  0  0  0  0
 23 30  1  0  0  0  0
 24 25  1  0  0  0  0
 26 22  1  0  0  0  0
 27 25  2  0  0  0  0
 27 21  1  0  0  0  0
 28 23  2  0  0  0  0
 29 30  2  0  0  0  0
 29 24  1  0  0  0  0
 30 27  1  0  0  0  0
 31 29  1  0  0  0  0
M  END
>  <MODEL>
8

>  <REMARK>
 VINA RESULT:     -10.2      1.665      1.943
  Name = 
  4 active torsions:
  status: ('A' for Active; 'I' for Inactive)
    1  A    between atoms: O_2  and  C_13
    2  A    between atoms: C_4  and  C_12
    3  A    between atoms: C_9  and  C_23
    4  A    between atoms: C_15  and  C_21
                            x       y       z     vdW  Elec       q    Type
                         _______ _______ _______ _____ _____    ______ ____

>  <TORSDO>
F 4

$$$$
=
 OpenBabel11052413113D

 31 35  0  0  0  0  0  0  0  0999 V2000
  188.2340  177.5460  143.6520 C   0  0  0  0  0  0  0  0  0  0  0  0
  188.5280  177.5060  145.0400 C   0  0  0  0  0  0  0  0  0  0  0  0
  187.8720  177.8110  147.3660 C   0  0  0  0  0  0  0  0  0  0  0  0
  187.5640  177.8480  146.0040 C   0  0  0  0  0  3  0  0  0  0  0  0
  190.8090  176.8160  144.5500 C   0  0  0  0  0  3  0  0  0  0  0  0
  186.9300  178.1390  148.2830 F   0  0  0  0  0  0  0  0  0  0  0  0
  189.2550  177.1980  142.7200 C   0  0  0  0  0  0  0  0  0  0  0  0
  189.1510  177.4360  147.7840 C   0  0  0  0  0  3  0  0  0  0  0  0
  190.5240  176.8490  143.1880 C   0  0  0  0  0  3  0  0  0  0  0  0
  189.8220  177.1360  145.4770 C   0  0  0  0  0  0  0  0  0  0  0  0
  190.1240  177.1010  146.8410 C   0  0  0  0  0  3  0  0  0  0  0  0
  186.9060  178.0110  143.1970 C   0  0  0  0  0  0  0  0  0  0  0  0
  185.4300  178.9940  141.5200 C   0  0  0  0  0  0  0  0  0  0  0  0
  184.4970  178.5040  143.7770 C   0  0  0  0  0  2  0  0  0  0  0  0
  186.7610  178.5850  141.9990 C   0  0  0  0  0  3  0  0  0  0  0  0
  185.7550  177.7980  144.0220 N   0  0  0  0  0  2  0  0  0  0  0  0
  184.3650  178.9120  142.3340 C   0  0  0  0  0  3  0  0  0  0  0  0
  185.3060  179.4410  140.2000 O   0  0  0  0  0  0  0  0  0  0  0  0
  184.0850  179.3780  139.4720 C   0  0  0  0  0  1  0  0  0  0  0  0
  189.0870  177.1430  141.2510 C   0  0  0  0  0  3  0  0  0  0  0  0
  189.6730  177.9630  140.3840 C   0  0  0  0  0  3  0  0  0  0  0  0
  190.6820  175.4740  135.8070 C   0  0  0  0  0  0  0  0  0  0  0  0
  190.8650  175.8440  138.2240 C   0  0  0  0  0  3  0  0  0  0  0  0
  188.7370  178.3330  136.9730 O   0  0  0  0  0  0  0  0  0  0  0  0
  188.6930  178.7060  138.2260 N   0  0  0  0  0  0  0  0  0  0  0  0
  191.0520  174.6840  134.6040 C   0  0  0  0  0  1  0  0  0  0  0  0
  189.4740  177.8550  138.9330 C   0  0  0  0  0  0  0  0  0  0  0  0
  191.2010  175.1100  137.0700 C   0  0  0  0  0  3  0  0  0  0  0  0
  189.5070  177.2830  136.8390 C   0  0  0  0  0  0  0  0  0  0  0  0
  190.0080  176.9300  138.0590 C   0  0  0  0  0  0  0  0  0  0  0  0
  189.8190  176.5790  135.6790 C   0  0  0  0  0  3  0  0  0  0  0  0
  1  2  1  0  0  0  0
  2 10  2  0  0  0  0
  2  4  1  0  0  0  0
  3  8  1  0  0  0  0
  3  6  1  0  0  0  0
  4  3  2  0  0  0  0
  5 10  1  0  0  0  0
  7  9  1  0  0  0  0
  7  1  2  0  0  0  0
  9  5  2  0  0  0  0
 10 11  1  0  0  0  0
 11  8  2  0  0  0  0
 12  1  1  0  0  0  0
 12 16  1  0  0  0  0
 13 15  1  0  0  0  0
 13 17  2  0  0  0  0
 14 16  1  0  0  0  0
 15 12  2  0  0  0  0
 17 14  1  0  0  0  0
 18 13  1  0  0  0  0
 19 18  1  0  0  0  0
 20  7  1  0  0  0  0
 21 20  2  0  0  0  0
 22 28  1  0  0  0  0
 24 25  1  0  0  0  0
 25 27  2  0  0  0  0
 26 22  1  0  0  0  0
 27 21  1  0  0  0  0
 28 23  2  0  0  0  0
 29 24  1  0  0  0  0
 29 30  2  0  0  0  0
 30 23  1  0  0  0  0
 30 27  1  0  0  0  0
 31 22  2  0  0  0  0
 31 29  1  0  0  0  0
M  END
>  <MODEL>
9

>  <REMARK>
 VINA RESULT:     -10.0      2.590      5.811
  Name = 
  4 active torsions:
  status: ('A' for Active; 'I' for Inactive)
    1  A    between atoms: O_2  and  C_13
    2  A    between atoms: C_4  and  C_12
    3  A    between atoms: C_9  and  C_23
    4  A    between atoms: C_15  and  C_21
                            x       y       z     vdW  Elec       q    Type
                         _______ _______ _______ _____ _____    ______ ____

>  <TORSDO>
F 4

$$$$
