=
 OpenBabel11052417013D

 32 36  0  0  1  0  0  0  0  0999 V2000
  186.7270  178.6700  138.1870 O   0  0  0  0  0  0  0  0  0  0  0  0
  184.4920  178.8290  139.1210 C   0  0  0  0  0  0  0  0  0  0  0  0
  183.0810  178.5460  138.7630 C   0  0  1  0  0  3  0  0  0  0  0  0
  181.6680  178.5910  136.9090 C   0  0  2  0  0  3  0  0  0  0  0  0
  187.6050  177.5890  138.3670 C   0  0  1  0  0  3  0  0  0  0  0  0
  187.4940  176.6020  137.1770 C   0  0  2  0  0  3  0  0  0  0  0  0
  185.0280  177.0330  137.4710 C   0  0  2  0  0  3  0  0  0  0  0  0
  181.1170  179.4860  137.8610 O   0  0  0  0  0  0  0  0  0  0  0  0
  182.0980  179.6800  138.8680 C   0  0  0  0  0  2  0  0  0  0  0  0
  186.1220  176.6660  136.4660 C   0  0  1  0  0  3  0  0  0  0  0  0
  183.7330  177.1890  136.8680 O   0  0  0  0  0  0  0  0  0  0  0  0
  184.8130  179.6180  140.0500 O   0  0  0  0  0  0  0  0  0  0  0  0
  180.8840  177.2860  136.9290 C   0  0  0  0  0  1  0  0  0  0  0  0
  185.4770  178.1530  138.3340 N   0  0  0  0  0  0  0  0  0  0  0  0
  183.1160  178.3920  137.2850 C   0  0  2  0  0  3  0  0  0  0  0  0
  188.7250  174.5840  136.4330 S   0  0  0  0  0  1  0  0  0  0  0  0
  187.7240  175.3010  137.6320 O   0  0  0  0  0  0  0  0  0  0  0  0
  187.5500  177.7100  134.7030 C   0  0  0  0  0  1  0  0  0  0  0  0
  186.1670  177.6710  135.3220 C   0  0  0  0  0  2  0  0  0  0  0  0
  189.0270  178.1130  138.5070 C   0  0  0  0  0  2  0  0  0  0  0  0
  190.8610  177.5660  139.9180 O   0  0  0  0  0  0  0  0  0  0  0  0
  189.6140  177.7290  139.8220 C   0  0  0  0  0  0  0  0  0  0  0  0
  188.7840  177.5660  140.9300 O   0  0  0  0  0  0  0  0  0  0  0  0
  189.2580  177.7520  142.2550 C   0  0  0  0  0  2  0  0  0  0  0  0
  188.5540  177.0360  144.5350 C   0  0  1  0  0  3  0  0  0  0  0  0
  187.4030  176.7580  143.5910 C   0  0  2  0  0  3  0  0  0  0  0  0
  188.8320  176.5770  143.1170 C   0  0  1  0  0  3  0  0  0  0  0  0
  187.3160  177.9100  144.5730 C   0  0  1  0  0  3  0  0  0  0  0  0
  186.4500  177.5100  145.7500 C   0  0  0  0  0  2  0  0  0  0  0  0
  185.4970  178.6060  146.0740 C   0  0  0  0  0  0  0  0  0  0  0  0
  185.7050  179.3520  147.0660 O   0  0  0  0  0  1  0  0  0  0  0  0
  184.3540  178.7830  145.3030 O   0  0  0  0  0  0  0  0  0  0  0  0
  1 14  1  0  0  0  0
  1  5  1  0  0  0  0
  2 12  2  0  0  0  0
  3  9  1  6  0  0  0
  3  2  1  0  0  0  0
  4 13  1  1  0  0  0
  4 15  1  0  0  0  0
  4  8  1  0  0  0  0
  5 20  1  6  0  0  0
  6 17  1  1  0  0  0
  6  5  1  0  0  0  0
  7 11  1  6  0  0  0
  7 14  1  0  0  0  0
  8  9  1  0  0  0  0
 10 19  1  6  0  0  0
 10  6  1  0  0  0  0
 10  7  1  0  0  0  0
 14  2  1  0  0  0  0
 15 11  1  1  0  0  0
 15  3  1  0  0  0  0
 16 17  1  0  0  0  0
 18 19  1  0  0  0  0
 20 22  1  0  0  0  0
 22 21  2  0  0  0  0
 22 23  1  0  0  0  0
 23 24  1  0  0  0  0
 24 27  1  0  0  0  0
 25 28  1  0  0  0  0
 26 25  1  0  0  0  0
 26 28  1  0  0  0  0
 27 26  1  0  0  0  0
 27 25  1  0  0  0  0
 28 29  1  0  0  0  0
 29 30  1  0  0  0  0
 30 31  1  0  0  0  0
 32 30  2  0  0  0  0
M  END
>  <MODEL>
1

>  <REMARK>
 VINA RESULT:      -7.1      0.000      0.000
  Name = 
  9 active torsions:
  status: ('A' for Active; 'I' for Inactive)
    1  A    between atoms: C_1  and  C_10
    2  A    between atoms: C_8  and  C_23
    3  A    between atoms: C_8  and  O_28
    4  A    between atoms: C_9  and  C_14
    5  A    between atoms: C_9  and  C_21
    6  A    between atoms: C_10  and  C_24
    7  A    between atoms: O_13  and  C_15
    8  A    between atoms: C_21  and  O_28
    9  A    between atoms: C_25  and  C_26
                            x       y       z     vdW  Elec       q    Type
                         _______ _______ _______ _____ _____    ______ ____

>  <TORSDO>
F 9

$$$$
=
 OpenBabel11052417013D

 32 36  0  0  1  0  0  0  0  0999 V2000
  189.1410  178.4930  141.8350 O   0  0  0  0  0  0  0  0  0  0  0  0
  187.7140  178.0880  139.9130 C   0  0  0  0  0  0  0  0  0  0  0  0
  187.7860  177.5760  138.5230 C   0  0  1  0  0  3  0  0  0  0  0  0
  189.2400  177.5650  136.7000 C   0  0  2  0  0  3  0  0  0  0  0  0
  189.3450  177.5950  142.8950 C   0  0  1  0  0  3  0  0  0  0  0  0
  190.6270  176.7580  142.6500 C   0  0  2  0  0  3  0  0  0  0  0  0
  189.7170  176.6500  140.3010 C   0  0  2  0  0  3  0  0  0  0  0  0
  188.0530  178.2080  136.2690 O   0  0  0  0  0  0  0  0  0  0  0  0
  187.2750  178.4700  137.4270 C   0  0  0  0  0  2  0  0  0  0  0  0
  190.9900  176.6330  141.1520 C   0  0  1  0  0  3  0  0  0  0  0  0
  189.9780  176.6170  138.8890 O   0  0  0  0  0  0  0  0  0  0  0  0
  186.7630  178.8060  140.3250 O   0  0  0  0  0  0  0  0  0  0  0  0
  189.2620  176.1370  136.1720 C   0  0  0  0  0  1  0  0  0  0  0  0
  188.8040  177.7230  140.7640 N   0  0  0  0  0  0  0  0  0  0  0  0
  189.2380  177.6130  138.2090 C   0  0  2  0  0  3  0  0  0  0  0  0
  191.8420  175.2410  144.1880 S   0  0  0  0  0  1  0  0  0  0  0  0
  190.4590  175.4840  143.1970 O   0  0  0  0  0  0  0  0  0  0  0  0
  193.1460  177.2020  140.0250 C   0  0  0  0  0  1  0  0  0  0  0  0
  191.9310  177.7600  140.7410 C   0  0  0  0  0  2  0  0  0  0  0  0
  189.4450  178.3700  144.2000 C   0  0  0  0  0  2  0  0  0  0  0  0
  189.0790  176.7550  145.9070 O   0  0  0  0  0  0  0  0  0  0  0  0
  188.6170  177.7370  145.2660 C   0  0  0  0  0  0  0  0  0  0  0  0
  187.3490  178.2430  145.5490 O   0  0  0  0  0  0  0  0  0  0  0  0
  186.1990  177.8310  144.8240 C   0  0  0  0  0  2  0  0  0  0  0  0
  184.9070  179.3630  143.3450 C   0  0  1  0  0  3  0  0  0  0  0  0
  183.9110  178.5150  144.1080 C   0  0  2  0  0  3  0  0  0  0  0  0
  185.1930  178.9670  144.7800 C   0  0  1  0  0  3  0  0  0  0  0  0
  184.1530  178.2570  142.6340 C   0  0  1  0  0  3  0  0  0  0  0  0
  183.0220  178.8570  141.8210 C   0  0  0  0  0  2  0  0  0  0  0  0
  183.1840  178.4980  140.3860 C   0  0  0  0  0  0  0  0  0  0  0  0
  183.2630  177.2900  140.0430 O   0  0  0  0  0  1  0  0  0  0  0  0
  183.2860  179.4980  139.4270 O   0  0  0  0  0  0  0  0  0  0  0  0
  1  5  1  0  0  0  0
  2 12  2  0  0  0  0
  2 14  1  0  0  0  0
  3  9  1  6  0  0  0
  3  2  1  0  0  0  0
  4 13  1  1  0  0  0
  4 15  1  0  0  0  0
  5 20  1  1  0  0  0
  6  5  1  0  0  0  0
  6 17  1  6  0  0  0
  7 11  1  6  0  0  0
  7 14  1  0  0  0  0
  7 10  1  0  0  0  0
  8  4  1  0  0  0  0
  8  9  1  0  0  0  0
 10 19  1  6  0  0  0
 10  6  1  0  0  0  0
 14  1  1  0  0  0  0
 15  3  1  0  0  0  0
 15 11  1  1  0  0  0
 17 16  1  0  0  0  0
 18 19  1  0  0  0  0
 20 22  1  0  0  0  0
 22 23  1  0  0  0  0
 22 21  2  0  0  0  0
 24 23  1  0  0  0  0
 25 26  1  0  0  0  0
 25 27  1  0  0  0  0
 26 27  1  0  0  0  0
 27 24  1  0  0  0  0
 28 25  1  0  0  0  0
 28 26  1  0  0  0  0
 29 28  1  0  0  0  0
 30 29  1  0  0  0  0
 31 30  1  0  0  0  0
 32 30  2  0  0  0  0
M  END
>  <MODEL>
2

>  <REMARK>
 VINA RESULT:      -7.1      2.730      5.911
  Name = 
  9 active torsions:
  status: ('A' for Active; 'I' for Inactive)
    1  A    between atoms: C_1  and  C_10
    2  A    between atoms: C_8  and  C_23
    3  A    between atoms: C_8  and  O_28
    4  A    between atoms: C_9  and  C_14
    5  A    between atoms: C_9  and  C_21
    6  A    between atoms: C_10  and  C_24
    7  A    between atoms: O_13  and  C_15
    8  A    between atoms: C_21  and  O_28
    9  A    between atoms: C_25  and  C_26
                            x       y       z     vdW  Elec       q    Type
                         _______ _______ _______ _____ _____    ______ ____

>  <TORSDO>
F 9

$$$$
=
 OpenBabel11052417013D

 32 36  0  0  1  0  0  0  0  0999 V2000
  188.5490  178.5300  139.9310 O   0  0  0  0  0  0  0  0  0  0  0  0
  188.6040  177.3780  137.7950 C   0  0  0  0  0  0  0  0  0  0  0  0
  189.4480  176.4300  137.0290 C   0  0  1  0  0  3  0  0  0  0  0  0
  191.6970  175.9150  136.6930 C   0  0  2  0  0  3  0  0  0  0  0  0
  187.8930  178.0680  141.0840 C   0  0  1  0  0  3  0  0  0  0  0  0
  188.8860  177.3060  141.9980 C   0  0  2  0  0  3  0  0  0  0  0  0
  189.6510  176.3280  139.8030 C   0  0  2  0  0  3  0  0  0  0  0  0
  191.1700  176.2730  135.4280 O   0  0  0  0  0  0  0  0  0  0  0  0
  189.8930  176.8510  135.6550 C   0  0  0  0  0  2  0  0  0  0  0  0
  190.0830  176.7070  141.2230 C   0  0  1  0  0  3  0  0  0  0  0  0
  190.7310  175.8360  138.9940 O   0  0  0  0  0  0  0  0  0  0  0  0
  187.7380  178.1130  137.2470 O   0  0  0  0  0  0  0  0  0  0  0  0
  191.8140  174.3990  136.7820 C   0  0  0  0  0  1  0  0  0  0  0  0
  188.8390  177.4160  139.2050 N   0  0  0  0  0  0  0  0  0  0  0  0
  190.7570  176.4760  137.7320 C   0  0  2  0  0  3  0  0  0  0  0  0
  188.4770  176.5980  144.3370 S   0  0  0  0  0  1  0  0  0  0  0  0
  188.2080  176.2850  142.6690 O   0  0  0  0  0  0  0  0  0  0  0  0
  191.7260  177.9930  142.5960 C   0  0  0  0  0  1  0  0  0  0  0  0
  191.2400  177.6980  141.1900 C   0  0  0  0  0  2  0  0  0  0  0  0
  187.2750  179.2480  141.8190 C   0  0  0  0  0  2  0  0  0  0  0  0
  185.3570  179.3140  140.4140 O   0  0  0  0  0  0  0  0  0  0  0  0
  185.8030  179.3100  141.5940 C   0  0  0  0  0  0  0  0  0  0  0  0
  184.9370  179.3530  142.6860 O   0  0  0  0  0  0  0  0  0  0  0  0
  184.9650  178.3610  143.7020 C   0  0  0  0  0  2  0  0  0  0  0  0
  184.9530  178.1300  146.1820 C   0  0  1  0  0  3  0  0  0  0  0  0
  185.6420  179.4360  145.8460 C   0  0  2  0  0  3  0  0  0  0  0  0
  184.4730  178.9600  145.0080 C   0  0  1  0  0  3  0  0  0  0  0  0
  186.4560  178.2540  146.3340 C   0  0  1  0  0  3  0  0  0  0  0  0
  186.8030  178.4440  147.7980 C   0  0  0  0  0  2  0  0  0  0  0  0
  188.1200  177.8170  148.0920 C   0  0  0  0  0  0  0  0  0  0  0  0
  188.2620  176.5700  147.9940 O   0  0  0  0  0  0  0  0  0  0  0  0
  189.1850  178.6040  148.5130 O   0  0  0  0  0  1  0  0  0  0  0  0
  1  5  1  0  0  0  0
  2 14  1  0  0  0  0
  3  9  1  6  0  0  0
  3 15  1  0  0  0  0
  3  2  1  0  0  0  0
  4 13  1  6  0  0  0
  4 15  1  0  0  0  0
  5 20  1  1  0  0  0
  5  6  1  0  0  0  0
  6 17  1  6  0  0  0
  7 11  1  6  0  0  0
  7 10  1  0  0  0  0
  8  9  1  0  0  0  0
  8  4  1  0  0  0  0
 10 19  1  6  0  0  0
 10  6  1  0  0  0  0
 12  2  2  0  0  0  0
 14  7  1  0  0  0  0
 14  1  1  0  0  0  0
 15 11  1  1  0  0  0
 17 16  1  0  0  0  0
 19 18  1  0  0  0  0
 21 22  2  0  0  0  0
 22 20  1  0  0  0  0
 22 23  1  0  0  0  0
 23 24  1  0  0  0  0
 24 27  1  0  0  0  0
 25 28  1  0  0  0  0
 26 25  1  0  0  0  0
 26 28  1  0  0  0  0
 27 26  1  0  0  0  0
 27 25  1  0  0  0  0
 28 29  1  0  0  0  0
 29 30  1  0  0  0  0
 30 32  1  0  0  0  0
 31 30  2  0  0  0  0
M  END
>  <MODEL>
3

>  <REMARK>
 VINA RESULT:      -7.0      3.482      6.198
  Name = 
  9 active torsions:
  status: ('A' for Active; 'I' for Inactive)
    1  A    between atoms: C_1  and  C_10
    2  A    between atoms: C_8  and  C_23
    3  A    between atoms: C_8  and  O_28
    4  A    between atoms: C_9  and  C_14
    5  A    between atoms: C_9  and  C_21
    6  A    between atoms: C_10  and  C_24
    7  A    between atoms: O_13  and  C_15
    8  A    between atoms: C_21  and  O_28
    9  A    between atoms: C_25  and  C_26
                            x       y       z     vdW  Elec       q    Type
                         _______ _______ _______ _____ _____    ______ ____

>  <TORSDO>
F 9

$$$$
=
 OpenBabel11052417013D

 32 36  0  0  1  0  0  0  0  0999 V2000
  185.3870  177.9750  140.8800 O   0  0  0  0  0  0  0  0  0  0  0  0
  187.6910  178.4020  140.2490 C   0  0  0  0  0  0  0  0  0  0  0  0
  188.5900  178.3090  139.0730 C   0  0  1  0  0  3  0  0  0  0  0  0
  188.9510  176.9620  137.2050 C   0  0  2  0  0  3  0  0  0  0  0  0
  184.3530  178.9260  140.8640 C   0  0  1  0  0  3  0  0  0  0  0  0
  183.5620  178.8390  139.5340 C   0  0  2  0  0  3  0  0  0  0  0  0
  185.8740  178.6220  138.5510 C   0  0  2  0  0  3  0  0  0  0  0  0
  190.1460  176.9290  137.9650 O   0  0  0  0  0  0  0  0  0  0  0  0
  189.8550  177.5090  139.2270 C   0  0  0  0  0  2  0  0  0  0  0  0
  184.3990  178.2540  138.3710 C   0  0  1  0  0  3  0  0  0  0  0  0
  186.7280  178.0470  137.5490 O   0  0  0  0  0  0  0  0  0  0  0  0
  188.1230  178.4670  141.4320 O   0  0  0  0  0  0  0  0  0  0  0  0
  189.1300  177.9010  136.0200 C   0  0  0  0  0  1  0  0  0  0  0  0
  186.2910  178.4040  139.9580 N   0  0  0  0  0  0  0  0  0  0  0  0
  187.8550  177.4210  138.1350 C   0  0  2  0  0  3  0  0  0  0  0  0
  181.4320  179.8990  138.8420 S   0  0  0  0  0  1  0  0  0  0  0  0
  183.1040  180.1110  139.1840 O   0  0  0  0  0  0  0  0  0  0  0  0
  182.8310  176.3480  138.7590 C   0  0  0  0  0  1  0  0  0  0  0  0
  184.2230  176.7420  138.3020 C   0  0  0  0  0  2  0  0  0  0  0  0
  183.4370  178.6940  142.0560 C   0  0  0  0  0  2  0  0  0  0  0  0
  183.9230  180.0280  143.9640 O   0  0  0  0  0  0  0  0  0  0  0  0
  184.1480  178.9560  143.3400 C   0  0  0  0  0  0  0  0  0  0  0  0
  185.0430  178.0110  143.8400 O   0  0  0  0  0  0  0  0  0  0  0  0
  186.2830  178.3890  144.4210 C   0  0  0  0  0  2  0  0  0  0  0  0
  188.2460  176.8650  144.5960 C   0  0  1  0  0  3  0  0  0  0  0  0
  188.1320  177.6180  145.9050 C   0  0  2  0  0  3  0  0  0  0  0  0
  186.8800  177.2030  145.1590 C   0  0  1  0  0  3  0  0  0  0  0  0
  189.2380  177.9630  144.9260 C   0  0  1  0  0  3  0  0  0  0  0  0
  190.5410  177.3450  145.3920 C   0  0  0  0  0  2  0  0  0  0  0  0
  191.3910  177.0100  144.2180 C   0  0  0  0  0  0  0  0  0  0  0  0
  191.7460  177.9130  143.4170 O   0  0  0  0  0  0  0  0  0  0  0  0
  191.7630  175.6920  143.9830 O   0  0  0  0  0  1  0  0  0  0  0  0
  2 12  2  0  0  0  0
  3  9  1  1  0  0  0
  3  2  1  0  0  0  0
  4 13  1  6  0  0  0
  4  8  1  0  0  0  0
  4 15  1  0  0  0  0
  5  1  1  0  0  0  0
  5 20  1  1  0  0  0
  6 17  1  6  0  0  0
  6  5  1  0  0  0  0
  7 11  1  6  0  0  0
  7 14  1  0  0  0  0
  8  9  1  0  0  0  0
 10 19  1  1  0  0  0
 10  7  1  0  0  0  0
 10  6  1  0  0  0  0
 14  2  1  0  0  0  0
 14  1  1  0  0  0  0
 15 11  1  6  0  0  0
 15  3  1  0  0  0  0
 16 17  1  0  0  0  0
 19 18  1  0  0  0  0
 20 22  1  0  0  0  0
 22 23  1  0  0  0  0
 22 21  2  0  0  0  0
 23 24  1  0  0  0  0
 24 27  1  0  0  0  0
 25 28  1  0  0  0  0
 25 27  1  0  0  0  0
 25 26  1  0  0  0  0
 27 26  1  0  0  0  0
 28 29  1  0  0  0  0
 28 26  1  0  0  0  0
 30 29  1  0  0  0  0
 31 30  2  0  0  0  0
 32 30  1  0  0  0  0
M  END
>  <MODEL>
4

>  <REMARK>
 VINA RESULT:      -7.0      2.557      5.639
  Name = 
  9 active torsions:
  status: ('A' for Active; 'I' for Inactive)
    1  A    between atoms: C_1  and  C_10
    2  A    between atoms: C_8  and  C_23
    3  A    between atoms: C_8  and  O_28
    4  A    between atoms: C_9  and  C_14
    5  A    between atoms: C_9  and  C_21
    6  A    between atoms: C_10  and  C_24
    7  A    between atoms: O_13  and  C_15
    8  A    between atoms: C_21  and  O_28
    9  A    between atoms: C_25  and  C_26
                            x       y       z     vdW  Elec       q    Type
                         _______ _______ _______ _____ _____    ______ ____

>  <TORSDO>
F 9

$$$$
=
 OpenBabel11052417013D

 32 36  0  0  1  0  0  0  0  0999 V2000
  183.2360  178.0880  141.9040 O   0  0  0  0  0  0  0  0  0  0  0  0
  184.3500  178.6180  139.8130 C   0  0  0  0  0  0  0  0  0  0  0  0
  184.1130  178.5790  138.3500 C   0  0  1  0  0  3  0  0  0  0  0  0
  183.0240  177.2750  136.7530 C   0  0  2  0  0  3  0  0  0  0  0  0
  182.5000  178.9960  142.6820 C   0  0  1  0  0  3  0  0  0  0  0  0
  180.9910  178.8960  142.3410 C   0  0  2  0  0  3  0  0  0  0  0  0
  181.8650  178.7880  139.9780 C   0  0  2  0  0  3  0  0  0  0  0  0
  184.3970  177.2800  136.4050 O   0  0  0  0  0  0  0  0  0  0  0  0
  185.1060  177.8290  137.5050 C   0  0  0  0  0  2  0  0  0  0  0  0
  180.7290  178.3630  140.9120 C   0  0  1  0  0  3  0  0  0  0  0  0
  181.7310  178.2630  138.6480 O   0  0  0  0  0  0  0  0  0  0  0  0
  185.5060  178.6830  140.3130 O   0  0  0  0  0  0  0  0  0  0  0  0
  182.2680  178.2380  135.8480 C   0  0  0  0  0  1  0  0  0  0  0  0
  183.1780  178.5670  140.6310 N   0  0  0  0  0  0  0  0  0  0  0  0
  182.9410  177.6760  138.2060 C   0  0  2  0  0  3  0  0  0  0  0  0
  178.9570  179.8640  143.3730 S   0  0  0  0  0  1  0  0  0  0  0  0
  180.3990  180.1530  142.4850 O   0  0  0  0  0  0  0  0  0  0  0  0
  179.2790  176.4290  140.2830 C   0  0  0  0  0  1  0  0  0  0  0  0
  180.5840  176.8460  140.9330 C   0  0  0  0  0  2  0  0  0  0  0  0
  182.7420  178.7090  144.1560 C   0  0  0  0  0  2  0  0  0  0  0  0
  184.6510  180.0950  143.8500 O   0  0  0  0  0  0  0  0  0  0  0  0
  184.0250  179.3140  144.6170 C   0  0  0  0  0  0  0  0  0  0  0  0
  184.5100  179.0210  145.8910 O   0  0  0  0  0  0  0  0  0  0  0  0
  185.9020  178.9760  146.1700 C   0  0  0  0  0  2  0  0  0  0  0  0
  187.4940  177.3270  145.1950 C   0  0  1  0  0  3  0  0  0  0  0  0
  187.8030  177.4450  146.6730 C   0  0  2  0  0  3  0  0  0  0  0  0
  186.3690  177.5310  146.1900 C   0  0  1  0  0  3  0  0  0  0  0  0
  188.7400  178.0590  145.6510 C   0  0  1  0  0  3  0  0  0  0  0  0
  189.9490  177.1640  145.4660 C   0  0  0  0  0  2  0  0  0  0  0  0
  190.7090  177.5810  144.2570 C   0  0  0  0  0  0  0  0  0  0  0  0
  191.6870  176.8960  143.8580 O   0  0  0  0  0  1  0  0  0  0  0  0
  190.3640  178.7480  143.5880 O   0  0  0  0  0  0  0  0  0  0  0  0
  1  5  1  0  0  0  0
  2 12  2  0  0  0  0
  2 14  1  0  0  0  0
  3  9  1  6  0  0  0
  3  2  1  0  0  0  0
  4 13  1  6  0  0  0
  4 15  1  0  0  0  0
  5 20  1  1  0  0  0
  6 17  1  6  0  0  0
  6  5  1  0  0  0  0
  7 11  1  6  0  0  0
  7 14  1  0  0  0  0
  7 10  1  0  0  0  0
  8  4  1  0  0  0  0
  8  9  1  0  0  0  0
 10 19  1  1  0  0  0
 10  6  1  0  0  0  0
 14  1  1  0  0  0  0
 15  3  1  0  0  0  0
 15 11  1  6  0  0  0
 17 16  1  0  0  0  0
 18 19  1  0  0  0  0
 20 22  1  0  0  0  0
 21 22  2  0  0  0  0
 22 23  1  0  0  0  0
 23 24  1  0  0  0  0
 24 27  1  0  0  0  0
 25 28  1  0  0  0  0
 25 27  1  0  0  0  0
 25 26  1  0  0  0  0
 27 26  1  0  0  0  0
 28 26  1  0  0  0  0
 29 28  1  0  0  0  0
 30 29  1  0  0  0  0
 31 30  1  0  0  0  0
 32 30  2  0  0  0  0
M  END
>  <MODEL>
5

>  <REMARK>
 VINA RESULT:      -6.9      3.322      5.987
  Name = 
  9 active torsions:
  status: ('A' for Active; 'I' for Inactive)
    1  A    between atoms: C_1  and  C_10
    2  A    between atoms: C_8  and  C_23
    3  A    between atoms: C_8  and  O_28
    4  A    between atoms: C_9  and  C_14
    5  A    between atoms: C_9  and  C_21
    6  A    between atoms: C_10  and  C_24
    7  A    between atoms: O_13  and  C_15
    8  A    between atoms: C_21  and  O_28
    9  A    between atoms: C_25  and  C_26
                            x       y       z     vdW  Elec       q    Type
                         _______ _______ _______ _____ _____    ______ ____

>  <TORSDO>
F 9

$$$$
=
 OpenBabel11052417013D

 32 36  0  0  1  0  0  0  0  0999 V2000
  184.2370  177.8570  141.0800 O   0  0  0  0  0  0  0  0  0  0  0  0
  186.5840  178.4720  141.1760 C   0  0  0  0  0  0  0  0  0  0  0  0
  187.7580  178.6410  140.2870 C   0  0  1  0  0  3  0  0  0  0  0  0
  188.6950  177.7010  138.3700 C   0  0  2  0  0  3  0  0  0  0  0  0
  183.1680  178.7600  140.9620 C   0  0  1  0  0  3  0  0  0  0  0  0
  182.7540  178.9110  139.4760 C   0  0  2  0  0  3  0  0  0  0  0  0
  185.2500  178.9650  139.1250 C   0  0  2  0  0  3  0  0  0  0  0  0
  189.6540  177.5560  139.4030 O   0  0  0  0  0  0  0  0  0  0  0  0
  189.0020  177.8660  140.6250 C   0  0  0  0  0  2  0  0  0  0  0  0
  183.9050  178.5940  138.4930 C   0  0  1  0  0  3  0  0  0  0  0  0
  186.3760  178.6260  138.3000 O   0  0  0  0  0  0  0  0  0  0  0  0
  186.6920  178.3160  142.4230 O   0  0  0  0  0  0  0  0  0  0  0  0
  189.0930  178.8610  137.4670 C   0  0  0  0  0  1  0  0  0  0  0  0
  185.3100  178.4880  140.5270 N   0  0  0  0  0  0  0  0  0  0  0  0
  187.3630  177.9330  139.0420 C   0  0  2  0  0  3  0  0  0  0  0  0
  180.8750  180.0250  138.3070 S   0  0  0  0  0  1  0  0  0  0  0  0
  182.2970  180.2120  139.2540 O   0  0  0  0  0  0  0  0  0  0  0  0
  183.6610  176.9690  136.6130 C   0  0  0  0  0  1  0  0  0  0  0  0
  183.8780  177.1210  138.1060 C   0  0  0  0  0  2  0  0  0  0  0  0
  181.9990  178.2690  141.8030 C   0  0  0  0  0  2  0  0  0  0  0  0
  180.7900  179.2730  143.5880 O   0  0  0  0  0  0  0  0  0  0  0  0
  181.9200  179.0070  143.0960 C   0  0  0  0  0  0  0  0  0  0  0  0
  183.0910  179.3840  143.7510 O   0  0  0  0  0  0  0  0  0  0  0  0
  183.8850  178.4470  144.4640 C   0  0  0  0  0  2  0  0  0  0  0  0
  185.0510  178.0100  146.6220 C   0  0  1  0  0  3  0  0  0  0  0  0
  185.7100  179.2120  145.9800 C   0  0  2  0  0  3  0  0  0  0  0  0
  184.2160  179.0030  145.8380 C   0  0  1  0  0  3  0  0  0  0  0  0
  186.4290  177.8770  146.0050 C   0  0  1  0  0  3  0  0  0  0  0  0
  187.4760  177.8840  147.1000 C   0  0  0  0  0  2  0  0  0  0  0  0
  188.7960  177.4810  146.5420 C   0  0  0  0  0  0  0  0  0  0  0  0
  189.1250  177.8390  145.3810 O   0  0  0  0  0  0  0  0  0  0  0  0
  189.6500  176.6780  147.2870 O   0  0  0  0  0  1  0  0  0  0  0  0
  2 12  2  0  0  0  0
  3  9  1  1  0  0  0
  3  2  1  0  0  0  0
  4 13  1  6  0  0  0
  4 15  1  0  0  0  0
  4  8  1  0  0  0  0
  5  1  1  0  0  0  0
  5 20  1  1  0  0  0
  6 17  1  1  0  0  0
  6  5  1  0  0  0  0
  7 11  1  6  0  0  0
  7 14  1  0  0  0  0
  8  9  1  0  0  0  0
 10 19  1  1  0  0  0
 10  7  1  0  0  0  0
 10  6  1  0  0  0  0
 14  1  1  0  0  0  0
 14  2  1  0  0  0  0
 15 11  1  6  0  0  0
 15  3  1  0  0  0  0
 16 17  1  0  0  0  0
 18 19  1  0  0  0  0
 20 22  1  0  0  0  0
 22 21  2  0  0  0  0
 22 23  1  0  0  0  0
 23 24  1  0  0  0  0
 24 27  1  0  0  0  0
 26 28  1  0  0  0  0
 26 25  1  0  0  0  0
 27 26  1  0  0  0  0
 27 25  1  0  0  0  0
 28 25  1  0  0  0  0
 28 29  1  0  0  0  0
 30 29  1  0  0  0  0
 30 32  1  0  0  0  0
 31 30  2  0  0  0  0
M  END
>  <MODEL>
6

>  <REMARK>
 VINA RESULT:      -6.9      2.794      5.813
  Name = 
  9 active torsions:
  status: ('A' for Active; 'I' for Inactive)
    1  A    between atoms: C_1  and  C_10
    2  A    between atoms: C_8  and  C_23
    3  A    between atoms: C_8  and  O_28
    4  A    between atoms: C_9  and  C_14
    5  A    between atoms: C_9  and  C_21
    6  A    between atoms: C_10  and  C_24
    7  A    between atoms: O_13  and  C_15
    8  A    between atoms: C_21  and  O_28
    9  A    between atoms: C_25  and  C_26
                            x       y       z     vdW  Elec       q    Type
                         _______ _______ _______ _____ _____    ______ ____

>  <TORSDO>
F 9

$$$$
=
 OpenBabel11052417013D

 32 36  0  0  1  0  0  0  0  0999 V2000
  184.1170  177.8860  141.2130 O   0  0  0  0  0  0  0  0  0  0  0  0
  185.6180  178.3940  139.3750 C   0  0  0  0  0  0  0  0  0  0  0  0
  185.7290  178.2150  137.9070 C   0  0  1  0  0  3  0  0  0  0  0  0
  185.1840  176.6650  136.2530 C   0  0  2  0  0  3  0  0  0  0  0  0
  183.1270  178.7480  141.7130 C   0  0  1  0  0  3  0  0  0  0  0  0
  181.7570  178.4290  141.0620 C   0  0  2  0  0  3  0  0  0  0  0  0
  183.1580  178.2570  138.9720 C   0  0  2  0  0  3  0  0  0  0  0  0
  186.5920  176.8200  136.2150 O   0  0  0  0  0  0  0  0  0  0  0  0
  186.9650  177.5370  137.3820 C   0  0  0  0  0  2  0  0  0  0  0  0
  181.8900  177.7610  139.6730 C   0  0  1  0  0  3  0  0  0  0  0  0
  183.3920  177.6200  137.7060 O   0  0  0  0  0  0  0  0  0  0  0  0
  186.6140  178.6440  140.1060 O   0  0  0  0  0  0  0  0  0  0  0  0
  184.5580  177.4530  135.1090 C   0  0  0  0  0  1  0  0  0  0  0  0
  184.3020  178.2560  139.9160 N   0  0  0  0  0  0  0  0  0  0  0  0
  184.7270  177.1610  137.6030 C   0  0  2  0  0  3  0  0  0  0  0  0
  179.5640  179.3060  141.8110 S   0  0  0  0  0  1  0  0  0  0  0  0
  181.0170  179.6080  140.9430 O   0  0  0  0  0  0  0  0  0  0  0  0
  180.4960  175.7030  139.9160 C   0  0  0  0  0  1  0  0  0  0  0  0
  181.9090  176.2440  139.8170 C   0  0  0  0  0  2  0  0  0  0  0  0
  183.0540  178.6070  143.2260 C   0  0  0  0  0  2  0  0  0  0  0  0
  185.0980  179.8220  143.1740 O   0  0  0  0  0  0  0  0  0  0  0  0
  184.2370  179.2330  143.8820 C   0  0  0  0  0  0  0  0  0  0  0  0
  184.3730  179.1710  145.2690 O   0  0  0  0  0  0  0  0  0  0  0  0
  185.6450  179.0750  145.8920 C   0  0  0  0  0  2  0  0  0  0  0  0
  187.3520  177.3930  145.2080 C   0  0  1  0  0  3  0  0  0  0  0  0
  187.3740  177.4810  146.7200 C   0  0  2  0  0  3  0  0  0  0  0  0
  186.0620  177.6160  145.9730 C   0  0  1  0  0  3  0  0  0  0  0  0
  188.5060  178.0820  145.9090 C   0  0  1  0  0  3  0  0  0  0  0  0
  189.7040  177.1540  145.9420 C   0  0  0  0  0  2  0  0  0  0  0  0
  190.6620  177.5240  144.8650 C   0  0  0  0  0  0  0  0  0  0  0  0
  190.5430  178.6250  144.2660 O   0  0  0  0  0  0  0  0  0  0  0  0
  191.6650  176.6380  144.4920 O   0  0  0  0  0  1  0  0  0  0  0  0
  1  5  1  0  0  0  0
  2 14  1  0  0  0  0
  2 12  2  0  0  0  0
  3  9  1  1  0  0  0
  3  2  1  0  0  0  0
  4 13  1  6  0  0  0
  4 15  1  0  0  0  0
  5 20  1  1  0  0  0
  6 17  1  6  0  0  0
  6  5  1  0  0  0  0
  7 11  1  6  0  0  0
  7 10  1  0  0  0  0
  7 14  1  0  0  0  0
  8  4  1  0  0  0  0
  8  9  1  0  0  0  0
 10 19  1  1  0  0  0
 10  6  1  0  0  0  0
 14  1  1  0  0  0  0
 15 11  1  6  0  0  0
 15  3  1  0  0  0  0
 17 16  1  0  0  0  0
 19 18  1  0  0  0  0
 20 22  1  0  0  0  0
 21 22  2  0  0  0  0
 22 23  1  0  0  0  0
 23 24  1  0  0  0  0
 24 27  1  0  0  0  0
 25 28  1  0  0  0  0
 25 27  1  0  0  0  0
 25 26  1  0  0  0  0
 27 26  1  0  0  0  0
 28 29  1  0  0  0  0
 28 26  1  0  0  0  0
 30 29  1  0  0  0  0
 31 30  2  0  0  0  0
 32 30  1  0  0  0  0
M  END
>  <MODEL>
7

>  <REMARK>
 VINA RESULT:      -6.8      3.000      5.537
  Name = 
  9 active torsions:
  status: ('A' for Active; 'I' for Inactive)
    1  A    between atoms: C_1  and  C_10
    2  A    between atoms: C_8  and  C_23
    3  A    between atoms: C_8  and  O_28
    4  A    between atoms: C_9  and  C_14
    5  A    between atoms: C_9  and  C_21
    6  A    between atoms: C_10  and  C_24
    7  A    between atoms: O_13  and  C_15
    8  A    between atoms: C_21  and  O_28
    9  A    between atoms: C_25  and  C_26
                            x       y       z     vdW  Elec       q    Type
                         _______ _______ _______ _____ _____    ______ ____

>  <TORSDO>
F 9

$$$$
=
 OpenBabel11052417013D

 32 36  0  0  1  0  0  0  0  0999 V2000
  185.8700  179.0110  139.7900 O   0  0  0  0  0  0  0  0  0  0  0  0
  185.5880  178.3250  142.1010 C   0  0  0  0  0  0  0  0  0  0  0  0
  184.5420  178.2400  143.1490 C   0  0  1  0  0  3  0  0  0  0  0  0
  182.6530  179.3950  143.8820 C   0  0  2  0  0  3  0  0  0  0  0  0
  185.7780  178.1610  138.6760 C   0  0  1  0  0  3  0  0  0  0  0  0
  184.3490  178.2130  138.0760 C   0  0  2  0  0  3  0  0  0  0  0  0
  183.6780  178.1370  140.5050 C   0  0  2  0  0  3  0  0  0  0  0  0
  183.5650  179.3780  144.9660 O   0  0  0  0  0  0  0  0  0  0  0  0
  184.8120  178.9310  144.4570 C   0  0  0  0  0  2  0  0  0  0  0  0
  183.2750  178.6240  139.1100 C   0  0  1  0  0  3  0  0  0  0  0  0
  182.7650  178.5490  141.5350 O   0  0  0  0  0  0  0  0  0  0  0  0
  186.8200  178.3170  142.3680 O   0  0  0  0  0  0  0  0  0  0  0  0
  181.5700  178.3510  144.1150 C   0  0  0  0  0  1  0  0  0  0  0  0
  185.1100  178.4280  140.7570 N   0  0  0  0  0  0  0  0  0  0  0  0
  183.4550  179.1140  142.6340 C   0  0  2  0  0  3  0  0  0  0  0  0
  182.5560  177.2170  136.6860 S   0  0  0  0  0  1  0  0  0  0  0  0
  184.0270  176.9650  137.5390 O   0  0  0  0  0  0  0  0  0  0  0  0
  181.6640  180.4850  138.6850 C   0  0  0  0  0  1  0  0  0  0  0  0
  183.0800  180.1350  139.0990 C   0  0  0  0  0  2  0  0  0  0  0  0
  186.8150  178.5710  137.6420 C   0  0  0  0  0  2  0  0  0  0  0  0
  188.0830  176.5860  137.3080 O   0  0  0  0  0  0  0  0  0  0  0  0
  188.0570  177.7570  137.7750 C   0  0  0  0  0  0  0  0  0  0  0  0
  189.1780  178.3010  138.4020 O   0  0  0  0  0  0  0  0  0  0  0  0
  189.3770  178.1930  139.8040 C   0  0  0  0  0  2  0  0  0  0  0  0
  191.3010  177.5040  141.2280 C   0  0  1  0  0  3  0  0  0  0  0  0
  190.1720  176.5260  141.4780 C   0  0  2  0  0  3  0  0  0  0  0  0
  190.3870  177.0950  140.0900 C   0  0  1  0  0  3  0  0  0  0  0  0
  190.5290  177.5580  142.5310 C   0  0  1  0  0  3  0  0  0  0  0  0
  191.3430  176.9030  143.6290 C   0  0  0  0  0  2  0  0  0  0  0  0
  191.0010  177.5100  144.9440 C   0  0  0  0  0  0  0  0  0  0  0  0
  190.1280  178.4140  145.0140 O   0  0  0  0  0  0  0  0  0  0  0  0
  191.6720  177.1060  146.0910 O   0  0  0  0  0  1  0  0  0  0  0  0
  1 14  1  0  0  0  0
  2 12  2  0  0  0  0
  2  3  1  0  0  0  0
  3  9  1  1  0  0  0
  4 13  1  1  0  0  0
  4  8  1  0  0  0  0
  5 20  1  6  0  0  0
  5  1  1  0  0  0  0
  6 17  1  1  0  0  0
  6  5  1  0  0  0  0
  6 10  1  0  0  0  0
  7 14  1  0  0  0  0
  7 11  1  1  0  0  0
  9  8  1  0  0  0  0
 10 19  1  1  0  0  0
 10  7  1  0  0  0  0
 14  2  1  0  0  0  0
 15 11  1  6  0  0  0
 15  3  1  0  0  0  0
 15  4  1  0  0  0  0
 16 17  1  0  0  0  0
 18 19  1  0  0  0  0
 20 22  1  0  0  0  0
 21 22  2  0  0  0  0
 22 23  1  0  0  0  0
 23 24  1  0  0  0  0
 24 27  1  0  0  0  0
 25 26  1  0  0  0  0
 25 28  1  0  0  0  0
 26 28  1  0  0  0  0
 27 25  1  0  0  0  0
 27 26  1  0  0  0  0
 28 29  1  0  0  0  0
 29 30  1  0  0  0  0
 30 31  2  0  0  0  0
 30 32  1  0  0  0  0
M  END
>  <MODEL>
8

>  <REMARK>
 VINA RESULT:      -6.7      2.699      4.825
  Name = 
  9 active torsions:
  status: ('A' for Active; 'I' for Inactive)
    1  A    between atoms: C_1  and  C_10
    2  A    between atoms: C_8  and  C_23
    3  A    between atoms: C_8  and  O_28
    4  A    between atoms: C_9  and  C_14
    5  A    between atoms: C_9  and  C_21
    6  A    between atoms: C_10  and  C_24
    7  A    between atoms: O_13  and  C_15
    8  A    between atoms: C_21  and  O_28
    9  A    between atoms: C_25  and  C_26
                            x       y       z     vdW  Elec       q    Type
                         _______ _______ _______ _____ _____    ______ ____

>  <TORSDO>
F 9

$$$$
=
 OpenBabel11052417013D

 32 36  0  0  1  0  0  0  0  0999 V2000
  188.6140  176.7460  142.1560 O   0  0  0  0  0  0  0  0  0  0  0  0
  187.5300  177.9290  143.9770 C   0  0  0  0  0  0  0  0  0  0  0  0
  187.6930  178.1930  145.4270 C   0  0  1  0  0  3  0  0  0  0  0  0
  188.4550  177.1320  147.3580 C   0  0  2  0  0  3  0  0  0  0  0  0
  189.5380  177.3100  141.2610 C   0  0  1  0  0  3  0  0  0  0  0  0
  190.9860  177.0370  141.7400 C   0  0  2  0  0  3  0  0  0  0  0  0
  190.0080  177.6330  143.9860 C   0  0  2  0  0  3  0  0  0  0  0  0
  187.0920  177.4510  147.5810 O   0  0  0  0  0  0  0  0  0  0  0  0
  186.5440  177.8400  146.3310 C   0  0  0  0  0  2  0  0  0  0  0  0
  191.0850  176.8150  143.2680 C   0  0  1  0  0  3  0  0  0  0  0  0
  189.9860  177.4180  145.4060 O   0  0  0  0  0  0  0  0  0  0  0  0
  186.4280  178.0710  143.3800 O   0  0  0  0  0  0  0  0  0  0  0  0
  189.3360  178.1370  148.0870 C   0  0  0  0  0  1  0  0  0  0  0  0
  188.7060  177.4910  143.2910 N   0  0  0  0  0  0  0  0  0  0  0  0
  188.6710  177.1630  145.8650 C   0  0  2  0  0  3  0  0  0  0  0  0
  192.8170  177.4820  140.1300 S   0  0  0  0  0  1  0  0  0  0  0  0
  191.8050  178.1070  141.3710 O   0  0  0  0  0  0  0  0  0  0  0  0
  192.0760  174.8860  144.5070 C   0  0  0  0  0  1  0  0  0  0  0  0
  190.9490  175.3340  143.5960 C   0  0  0  0  0  2  0  0  0  0  0  0
  189.3090  176.7330  139.8720 C   0  0  0  0  0  2  0  0  0  0  0  0
  189.0310  179.0080  139.2380 O   0  0  0  0  0  0  0  0  0  0  0  0
  189.1710  177.8150  138.8560 C   0  0  0  0  0  0  0  0  0  0  0  0
  189.2100  177.4990  137.4980 O   0  0  0  0  0  0  0  0  0  0  0  0
  188.3780  176.4940  136.9390 C   0  0  0  0  0  2  0  0  0  0  0  0
  185.9310  176.8930  136.6940 C   0  0  1  0  0  3  0  0  0  0  0  0
  186.6000  178.2400  136.8680 C   0  0  2  0  0  3  0  0  0  0  0  0
  187.2990  177.1430  136.0900 C   0  0  1  0  0  3  0  0  0  0  0  0
  185.7870  177.6460  138.0010 C   0  0  1  0  0  3  0  0  0  0  0  0
  184.4260  178.3120  138.0540 C   0  0  0  0  0  2  0  0  0  0  0  0
  184.3460  179.2070  139.2400 C   0  0  0  0  0  0  0  0  0  0  0  0
  184.1790  180.4450  139.0860 O   0  0  0  0  0  0  0  0  0  0  0  0
  184.4950  178.6820  140.5180 O   0  0  0  0  0  1  0  0  0  0  0  0
  1 14  1  0  0  0  0
  2  3  1  0  0  0  0
  3 15  1  0  0  0  0
  3  9  1  1  0  0  0
  4  8  1  0  0  0  0
  4 13  1  1  0  0  0
  5 20  1  6  0  0  0
  5  6  1  0  0  0  0
  5  1  1  0  0  0  0
  6 17  1  1  0  0  0
  6 10  1  0  0  0  0
  7 11  1  1  0  0  0
  9  8  1  0  0  0  0
 10 19  1  6  0  0  0
 10  7  1  0  0  0  0
 12  2  2  0  0  0  0
 14  2  1  0  0  0  0
 14  7  1  0  0  0  0
 15 11  1  1  0  0  0
 15  4  1  0  0  0  0
 16 17  1  0  0  0  0
 19 18  1  0  0  0  0
 22 21  2  0  0  0  0
 22 20  1  0  0  0  0
 23 22  1  0  0  0  0
 24 23  1  0  0  0  0
 25 26  1  0  0  0  0
 25 28  1  0  0  0  0
 26 28  1  0  0  0  0
 27 25  1  0  0  0  0
 27 26  1  0  0  0  0
 27 24  1  0  0  0  0
 28 29  1  0  0  0  0
 29 30  1  0  0  0  0
 30 32  1  0  0  0  0
 31 30  2  0  0  0  0
M  END
>  <MODEL>
9

>  <REMARK>
 VINA RESULT:      -6.7      2.496      7.730
  Name = 
  9 active torsions:
  status: ('A' for Active; 'I' for Inactive)
    1  A    between atoms: C_1  and  C_10
    2  A    between atoms: C_8  and  C_23
    3  A    between atoms: C_8  and  O_28
    4  A    between atoms: C_9  and  C_14
    5  A    between atoms: C_9  and  C_21
    6  A    between atoms: C_10  and  C_24
    7  A    between atoms: O_13  and  C_15
    8  A    between atoms: C_21  and  O_28
    9  A    between atoms: C_25  and  C_26
                            x       y       z     vdW  Elec       q    Type
                         _______ _______ _______ _____ _____    ______ ____

>  <TORSDO>
F 9

$$$$
