=
 OpenBabel11052414033D

 34 38  0  0  1  0  0  0  0  0999 V2000
  181.9590  174.1870  137.5950 C   0  0  0  0  0  0  0  0  0  0  0  0
  183.9490  175.2180  136.4010 C   0  0  0  0  0  0  0  0  0  0  0  0
  180.8540  182.1570  138.3580 S   0  0  0  0  0  1  0  0  0  0  0  0
  182.9790  176.3300  138.3490 C   0  0  0  0  0  0  0  0  0  0  0  0
  184.1010  178.3820  140.5430 C   0  0  0  0  0  2  0  0  0  0  0  0
  179.5110  175.2210  137.2580 Cl  0  0  0  0  0  0  0  0  0  0  0  0
  179.5050  179.6810  140.0010 C   0  0  0  0  0  0  0  0  0  0  0  0
  179.6090  180.4830  141.1430 C   0  0  0  0  0  3  0  0  0  0  0  0
  184.0200  174.1260  135.3880 C   0  0  0  0  0  1  0  0  0  0  0  0
  184.8080  177.3080  137.1490 N   0  0  0  0  0  0  0  0  0  0  0  0
  179.3540  181.0620  136.5510 F   0  0  0  0  0  0  0  0  0  0  0  0
  181.1130  178.1200  140.9430 C   0  0  0  0  0  0  0  0  0  0  0  0
  182.3830  179.8120  137.4960 O   0  0  0  0  0  0  0  0  0  0  0  0
  180.0110  180.6720  137.7050 C   0  0  2  0  0  0  0  0  0  0  0  0
  182.9910  175.2450  137.4370 C   0  0  0  0  0  0  0  0  0  0  0  0
  180.4340  180.0830  142.2030 C   0  0  0  0  0  3  0  0  0  0  0  0
  182.6940  179.5240  138.8310 C   0  0  0  0  0  2  0  0  0  0  0  0
  183.9390  178.6550  139.0270 C   0  0  1  0  0  0  0  0  0  0  0  0
  182.0980  173.0460  137.0790 O   0  0  0  0  0  0  0  0  0  0  0  0
  181.9980  176.3140  139.4690 C   0  0  0  0  0  0  0  0  0  0  0  0
  180.1990  178.4800  139.9500 C   0  0  0  0  0  3  0  0  0  0  0  0
  180.7090  174.4930  138.3560 C   0  0  2  0  0  3  0  0  0  0  0  0
  184.8490  176.2680  136.2840 C   0  0  0  0  0  3  0  0  0  0  0  0
  183.4070  177.2910  141.1290 O   0  0  0  0  0  0  0  0  0  0  0  0
  181.2180  178.9260  142.0860 C   0  0  0  0  0  3  0  0  0  0  0  0
  182.1640  177.2000  140.5810 N   0  0  0  0  0  0  0  0  0  0  0  0
  185.0350  179.4350  138.6510 O   0  0  0  0  0  1  0  0  0  0  0  0
  178.9310  180.2100  138.7190 C   0  0  0  0  0  2  0  0  0  0  0  0
  183.9160  177.3870  138.1760 C   0  0  0  0  0  0  0  0  0  0  0  0
  180.9840  175.4380  139.4850 C   0  0  0  0  0  3  0  0  0  0  0  0
  181.0110  179.5110  137.3780 C   0  0  1  0  0  3  0  0  0  0  0  0
  180.7030  178.7120  136.1100 C   0  0  0  0  0  2  0  0  0  0  0  0
  181.9300  178.5270  135.2280 C   0  0  0  0  0  2  0  0  0  0  0  0
  181.8800  177.2860  134.5940 O   0  0  0  0  0  1  0  0  0  0  0  0
  1 22  1  0  0  0  0
  2 15  1  0  0  0  0
  4 20  1  0  0  0  0
  5 24  1  0  0  0  0
  7  8  1  0  0  0  0
  8 16  2  0  0  0  0
  9  2  1  0  0  0  0
 10 29  2  0  0  0  0
 12 25  2  0  0  0  0
 13 17  1  0  0  0  0
 14 11  1  6  0  0  0
 14  3  1  0  0  0  0
 14 28  1  0  0  0  0
 15  1  1  0  0  0  0
 15  4  2  0  0  0  0
 17 18  1  0  0  0  0
 18 27  1  6  0  0  0
 18  5  1  0  0  0  0
 19  1  2  0  0  0  0
 20 30  2  0  0  0  0
 20 26  1  0  0  0  0
 21  7  2  0  0  0  0
 21 12  1  0  0  0  0
 22  6  1  6  0  0  0
 22 30  1  0  0  0  0
 23  2  2  0  0  0  0
 23 10  1  0  0  0  0
 25 16  1  0  0  0  0
 26 12  1  0  0  0  0
 26 24  1  0  0  0  0
 28  7  1  0  0  0  0
 29  4  1  0  0  0  0
 29 18  1  0  0  0  0
 31 32  1  6  0  0  0
 31 13  1  0  0  0  0
 31 14  1  0  0  0  0
 33 32  1  0  0  0  0
 34 33  1  0  0  0  0
M  END
>  <MODEL>
1

>  <REMARK>
 VINA RESULT:      -4.7      0.000      0.000
  Name = 
  2 active torsions:
  status: ('A' for Active; 'I' for Inactive)
    1  A    between atoms: C_20  and  C_22
    2  A    between atoms: C_20  and  C_34
                            x       y       z     vdW  Elec       q    Type
                         _______ _______ _______ _____ _____    ______ ____

>  <TORSDO>
F 2

$$$$
=
 OpenBabel11052414033D

 34 38  0  0  1  0  0  0  0  0999 V2000
  180.3120  179.0630  142.7040 C   0  0  0  0  0  0  0  0  0  0  0  0
  182.7930  178.7530  143.1430 C   0  0  0  0  0  0  0  0  0  0  0  0
  183.2060  176.0020  135.8060 S   0  0  0  0  0  1  0  0  0  0  0  0
  182.0090  179.3310  140.9020 C   0  0  0  0  0  0  0  0  0  0  0  0
  183.3350  180.7940  138.3750 C   0  0  0  0  0  2  0  0  0  0  0  0
  178.9310  177.1620  141.4180 Cl  0  0  0  0  0  0  0  0  0  0  0  0
  180.3920  177.5440  136.4040 C   0  0  0  0  0  0  0  0  0  0  0  0
  180.5570  178.1650  135.1610 C   0  0  0  0  0  3  0  0  0  0  0  0
  182.5900  178.4310  144.5840 C   0  0  0  0  0  1  0  0  0  0  0  0
  184.3350  178.9550  141.3400 N   0  0  0  0  0  0  0  0  0  0  0  0
  181.9430  174.2750  137.2670 F   0  0  0  0  0  0  0  0  0  0  0  0
  180.6510  179.6890  137.5180 C   0  0  0  0  0  0  0  0  0  0  0  0
  183.5180  177.0220  138.5340 O   0  0  0  0  0  0  0  0  0  0  0  0
  181.9560  175.6480  137.0910 C   0  0  2  0  0  0  0  0  0  0  0  0
  181.7320  179.0540  142.2640 C   0  0  0  0  0  0  0  0  0  0  0  0
  180.7280  179.5550  135.0940 C   0  0  0  0  0  3  0  0  0  0  0  0
  183.2480  178.3200  138.0800 C   0  0  0  0  0  2  0  0  0  0  0  0
  183.7700  179.4380  138.9850 C   0  0  1  0  0  0  0  0  0  0  0  0
  179.9970  179.1780  143.9180 O   0  0  0  0  0  0  0  0  0  0  0  0
  180.8830  179.7020  140.0020 C   0  0  0  0  0  0  0  0  0  0  0  0
  180.3690  178.3220  137.5540 C   0  0  0  0  0  3  0  0  0  0  0  0
  179.2300  178.8970  141.6860 C   0  0  2  0  0  3  0  0  0  0  0  0
  184.0900  178.7120  142.6490 C   0  0  0  0  0  3  0  0  0  0  0  0
  182.0530  181.3160  138.6900 O   0  0  0  0  0  0  0  0  0  0  0  0
  180.8180  180.3100  136.2720 C   0  0  0  0  0  3  0  0  0  0  0  0
  181.1480  180.2990  138.7280 N   0  0  0  0  0  0  0  0  0  0  0  0
  185.1650  179.4020  138.9020 O   0  0  0  0  0  1  0  0  0  0  0  0
  180.5540  176.0600  136.5690 C   0  0  0  0  0  2  0  0  0  0  0  0
  183.3550  179.2620  140.4450 C   0  0  0  0  0  0  0  0  0  0  0  0
  179.6090  179.5400  140.3870 C   0  0  0  0  0  3  0  0  0  0  0  0
  182.2800  176.3530  138.4530 C   0  0  1  0  0  3  0  0  0  0  0  0
  181.9860  175.5300  139.7090 C   0  0  0  0  0  2  0  0  0  0  0  0
  180.4940  175.3760  139.9650 C   0  0  0  0  0  2  0  0  0  0  0  0
  180.0950  174.0660  139.7000 O   0  0  0  0  0  1  0  0  0  0  0  0
  1 19  2  0  0  0  0
  2  9  1  0  0  0  0
  4 15  1  0  0  0  0
  5 24  1  0  0  0  0
  5 18  1  0  0  0  0
  7 28  1  0  0  0  0
  7 21  1  0  0  0  0
  8  7  2  0  0  0  0
 10 23  2  0  0  0  0
 12 21  2  0  0  0  0
 12 26  1  0  0  0  0
 14  3  1  6  0  0  0
 14 11  1  0  0  0  0
 14 31  1  0  0  0  0
 15  1  1  0  0  0  0
 15  2  2  0  0  0  0
 16  8  1  0  0  0  0
 16 25  2  0  0  0  0
 17 13  1  0  0  0  0
 17 18  1  0  0  0  0
 18 27  1  6  0  0  0
 18 29  1  0  0  0  0
 20 30  2  0  0  0  0
 20  4  1  0  0  0  0
 22  6  1  6  0  0  0
 22  1  1  0  0  0  0
 23  2  1  0  0  0  0
 24 26  1  0  0  0  0
 25 12  1  0  0  0  0
 26 20  1  0  0  0  0
 28 14  1  0  0  0  0
 29  4  2  0  0  0  0
 29 10  1  0  0  0  0
 30 22  1  0  0  0  0
 31 13  1  0  0  0  0
 31 32  1  1  0  0  0
 32 33  1  0  0  0  0
 34 33  1  0  0  0  0
M  END
>  <MODEL>
2

>  <REMARK>
 VINA RESULT:      -4.1      2.695      5.486
  Name = 
  2 active torsions:
  status: ('A' for Active; 'I' for Inactive)
    1  A    between atoms: C_20  and  C_22
    2  A    between atoms: C_20  and  C_34
                            x       y       z     vdW  Elec       q    Type
                         _______ _______ _______ _____ _____    ______ ____

>  <TORSDO>
F 2

$$$$
=
 OpenBabel11052414033D

 34 38  0  0  1  0  0  0  0  0999 V2000
  185.9890  175.8010  136.5310 C   0  0  0  0  0  0  0  0  0  0  0  0
  184.9200  173.6240  137.2810 C   0  0  0  0  0  0  0  0  0  0  0  0
  179.0560  178.0610  140.0170 S   0  0  0  0  0  1  0  0  0  0  0  0
  183.5190  175.4900  136.5590 C   0  0  0  0  0  0  0  0  0  0  0  0
  180.5620  175.7280  135.3400 C   0  0  0  0  0  2  0  0  0  0  0  0
  185.9560  177.9370  138.1480 Cl  0  0  0  0  0  0  0  0  0  0  0  0
  181.0290  179.7040  138.0020 C   0  0  0  0  0  0  0  0  0  0  0  0
  179.8700  180.2220  137.4120 C   0  0  0  0  0  3  0  0  0  0  0  0
  186.2310  172.9750  137.5710 C   0  0  0  0  0  1  0  0  0  0  0  0
  182.5470  173.4460  137.3460 N   0  0  0  0  0  0  0  0  0  0  0  0
  181.1450  178.4460  141.5000 F   0  0  0  0  0  0  0  0  0  0  0  0
  181.5570  178.5220  135.9440 C   0  0  0  0  0  0  0  0  0  0  0  0
  180.9650  176.0440  139.0850 O   0  0  0  0  0  0  0  0  0  0  0  0
  180.8580  178.3380  140.1500 C   0  0  2  0  0  0  0  0  0  0  0  0
  184.8050  174.9410  136.7900 C   0  0  0  0  0  0  0  0  0  0  0  0
  179.5750  179.9220  136.0750 C   0  0  0  0  0  3  0  0  0  0  0  0
  180.6260  176.3360  137.7570 C   0  0  0  0  0  2  0  0  0  0  0  0
  180.9350  175.2210  136.7560 C   0  0  1  0  0  0  0  0  0  0  0  0
  187.1390  175.3110  136.3700 O   0  0  0  0  0  0  0  0  0  0  0  0
  183.4170  176.8620  135.9880 C   0  0  0  0  0  0  0  0  0  0  0  0
  181.8890  178.9250  137.2390 C   0  0  0  0  0  3  0  0  0  0  0  0
  185.8210  177.2860  136.4960 C   0  0  2  0  0  3  0  0  0  0  0  0
  183.7680  172.8980  137.5500 C   0  0  0  0  0  3  0  0  0  0  0  0
  181.5140  176.4790  134.6000 O   0  0  0  0  0  0  0  0  0  0  0  0
  180.3940  179.0390  135.3550 C   0  0  0  0  0  3  0  0  0  0  0  0
  182.1770  177.3200  135.4400 N   0  0  0  0  0  0  0  0  0  0  0  0
  180.0560  174.1730  137.0400 O   0  0  0  0  0  1  0  0  0  0  0  0
  181.2170  179.6970  139.4920 C   0  0  0  0  0  2  0  0  0  0  0  0
  182.3700  174.7080  136.8640 C   0  0  0  0  0  0  0  0  0  0  0  0
  184.4890  177.6630  135.9220 C   0  0  0  0  0  3  0  0  0  0  0  0
  181.6920  177.1680  139.5230 C   0  0  1  0  0  3  0  0  0  0  0  0
  182.9570  176.7760  140.2880 C   0  0  0  0  0  2  0  0  0  0  0  0
  183.8050  177.9820  140.6660 C   0  0  0  0  0  2  0  0  0  0  0  0
  184.2080  177.8860  141.9980 O   0  0  0  0  0  1  0  0  0  0  0  0
  1 15  1  0  0  0  0
  2 23  1  0  0  0  0
  2  9  1  0  0  0  0
  4 15  1  0  0  0  0
  4 29  2  0  0  0  0
  5 18  1  0  0  0  0
  7 28  1  0  0  0  0
  8  7  1  0  0  0  0
 10 23  2  0  0  0  0
 12 21  1  0  0  0  0
 13 31  1  0  0  0  0
 14  3  1  6  0  0  0
 14 11  1  0  0  0  0
 15  2  2  0  0  0  0
 16  8  2  0  0  0  0
 17 13  1  0  0  0  0
 18 29  1  0  0  0  0
 18 27  1  1  0  0  0
 18 17  1  0  0  0  0
 19  1  2  0  0  0  0
 20  4  1  0  0  0  0
 21  7  2  0  0  0  0
 22  1  1  0  0  0  0
 22  6  1  1  0  0  0
 24  5  1  0  0  0  0
 24 26  1  0  0  0  0
 25 12  2  0  0  0  0
 25 16  1  0  0  0  0
 26 12  1  0  0  0  0
 26 20  1  0  0  0  0
 28 14  1  0  0  0  0
 29 10  1  0  0  0  0
 30 20  2  0  0  0  0
 30 22  1  0  0  0  0
 31 14  1  0  0  0  0
 31 32  1  1  0  0  0
 32 33  1  0  0  0  0
 33 34  1  0  0  0  0
M  END
>  <MODEL>
3

>  <REMARK>
 VINA RESULT:      -3.8      2.668      4.951
  Name = 
  2 active torsions:
  status: ('A' for Active; 'I' for Inactive)
    1  A    between atoms: C_20  and  C_22
    2  A    between atoms: C_20  and  C_34
                            x       y       z     vdW  Elec       q    Type
                         _______ _______ _______ _____ _____    ______ ____

>  <TORSDO>
F 2

$$$$
=
 OpenBabel11052414033D

 34 38  0  0  1  0  0  0  0  0999 V2000
  180.0700  179.2060  140.6490 C   0  0  0  0  0  0  0  0  0  0  0  0
  179.7840  180.7290  138.6380 C   0  0  0  0  0  0  0  0  0  0  0  0
  184.5940  175.7960  134.8840 S   0  0  0  0  0  1  0  0  0  0  0  0
  180.0910  178.3260  138.3200 C   0  0  0  0  0  0  0  0  0  0  0  0
  179.2920  176.2540  136.0060 C   0  0  0  0  0  2  0  0  0  0  0  0
  182.4920  178.2410  141.2650 Cl  0  0  0  0  0  0  0  0  0  0  0  0
  183.4630  174.5500  137.6810 C   0  0  0  0  0  0  0  0  0  0  0  0
  183.2480  173.3610  136.9750 C   0  0  0  0  0  3  0  0  0  0  0  0
  179.6640  181.9580  139.4730 C   0  0  0  0  0  1  0  0  0  0  0  0
  179.8940  179.8070  136.4470 N   0  0  0  0  0  0  0  0  0  0  0  0
  185.9650  177.1030  136.6520 F   0  0  0  0  0  0  0  0  0  0  0  0
  181.0660  174.8100  137.9880 C   0  0  0  0  0  0  0  0  0  0  0  0
  182.7260  177.8280  135.8660 O   0  0  0  0  0  0  0  0  0  0  0  0
  184.7380  176.4660  136.5790 C   0  0  2  0  0  0  0  0  0  0  0  0
  179.9680  179.4420  139.1850 C   0  0  0  0  0  0  0  0  0  0  0  0
  181.9440  172.8750  136.8100 C   0  0  0  0  0  3  0  0  0  0  0  0
  181.7070  176.8670  135.9160 C   0  0  0  0  0  2  0  0  0  0  0  0
  180.2870  177.4350  135.8800 C   0  0  1  0  0  0  0  0  0  0  0  0
  179.6350  180.0410  141.4850 O   0  0  0  0  0  0  0  0  0  0  0  0
  180.2280  176.9680  138.9160 C   0  0  0  0  0  0  0  0  0  0  0  0
  182.3790  175.2150  138.2370 C   0  0  0  0  0  3  0  0  0  0  0  0
  180.7380  177.9630  141.1440 C   0  0  2  0  0  3  0  0  0  0  0  0
  179.7490  180.8790  137.2590 C   0  0  0  0  0  3  0  0  0  0  0  0
  178.9320  175.7870  137.2970 O   0  0  0  0  0  0  0  0  0  0  0  0
  180.8510  173.6200  137.2780 C   0  0  0  0  0  3  0  0  0  0  0  0
  180.0270  175.8050  138.1060 N   0  0  0  0  0  0  0  0  0  0  0  0
  180.1010  177.9680  134.6010 O   0  0  0  0  0  1  0  0  0  0  0  0
  184.7660  175.2920  137.5930 C   0  0  0  0  0  2  0  0  0  0  0  0
  180.0630  178.5380  136.9130 C   0  0  0  0  0  0  0  0  0  0  0  0
  180.4810  176.8110  140.2230 C   0  0  0  0  0  3  0  0  0  0  0  0
  183.5940  177.4810  136.9210 C   0  0  1  0  0  3  0  0  0  0  0  0
  184.0160  178.6990  137.7450 C   0  0  0  0  0  2  0  0  0  0  0  0
  184.9190  178.3250  138.9120 C   0  0  0  0  0  2  0  0  0  0  0  0
  185.1610  179.4440  139.7080 O   0  0  0  0  0  1  0  0  0  0  0  0
  1 22  1  0  0  0  0
  1 19  2  0  0  0  0
  2 15  1  0  0  0  0
  2  9  1  0  0  0  0
  4 20  1  0  0  0  0
  4 15  2  0  0  0  0
  5 24  1  0  0  0  0
  7 21  1  0  0  0  0
  8  7  2  0  0  0  0
 10 29  2  0  0  0  0
 10 23  1  0  0  0  0
 12 26  1  0  0  0  0
 12 21  2  0  0  0  0
 13 17  1  0  0  0  0
 13 31  1  0  0  0  0
 14  3  1  6  0  0  0
 14 11  1  0  0  0  0
 14 31  1  0  0  0  0
 14 28  1  0  0  0  0
 15  1  1  0  0  0  0
 16  8  1  0  0  0  0
 16 25  2  0  0  0  0
 18 27  1  6  0  0  0
 18 17  1  0  0  0  0
 18  5  1  0  0  0  0
 18 29  1  0  0  0  0
 20 30  2  0  0  0  0
 22  6  1  6  0  0  0
 23  2  2  0  0  0  0
 24 26  1  0  0  0  0
 25 12  1  0  0  0  0
 26 20  1  0  0  0  0
 28  7  1  0  0  0  0
 29  4  1  0  0  0  0
 30 22  1  0  0  0  0
 31 32  1  6  0  0  0
 32 33  1  0  0  0  0
 33 34  1  0  0  0  0
M  END
>  <MODEL>
4

>  <REMARK>
 VINA RESULT:      -3.6      2.943      6.105
  Name = 
  2 active torsions:
  status: ('A' for Active; 'I' for Inactive)
    1  A    between atoms: C_20  and  C_22
    2  A    between atoms: C_20  and  C_34
                            x       y       z     vdW  Elec       q    Type
                         _______ _______ _______ _____ _____    ______ ____

>  <TORSDO>
F 2

$$$$
=
 OpenBabel11052414033D

 34 38  0  0  1  0  0  0  0  0999 V2000
  184.5380  178.7390  141.3230 C   0  0  0  0  0  0  0  0  0  0  0  0
  182.3330  178.9180  142.5670 C   0  0  0  0  0  0  0  0  0  0  0  0
  178.9310  178.6090  135.5030 S   0  0  0  0  0  1  0  0  0  0  0  0
  182.4700  177.6210  140.5000 C   0  0  0  0  0  0  0  0  0  0  0  0
  180.7990  175.1710  139.2800 C   0  0  0  0  0  2  0  0  0  0  0  0
  184.9290  180.1470  139.0770 Cl  0  0  0  0  0  0  0  0  0  0  0  0
  182.0730  177.7290  135.4150 C   0  0  0  0  0  0  0  0  0  0  0  0
  181.6730  176.6680  134.5950 C   0  0  0  0  0  3  0  0  0  0  0  0
  182.9040  179.7840  143.6370 C   0  0  0  0  0  1  0  0  0  0  0  0
  180.3910  177.8780  141.6630 N   0  0  0  0  0  0  0  0  0  0  0  0
  180.1380  180.8890  135.7410 F   0  0  0  0  0  0  0  0  0  0  0  0
  182.7130  176.1550  137.1520 C   0  0  0  0  0  0  0  0  0  0  0  0
  179.7690  178.6760  138.3090 O   0  0  0  0  0  0  0  0  0  0  0  0
  180.4020  179.5600  136.0230 C   0  0  2  0  0  0  0  0  0  0  0  0
  183.0950  178.4240  141.4870 C   0  0  0  0  0  0  0  0  0  0  0  0
  181.8320  175.3480  135.0370 C   0  0  0  0  0  3  0  0  0  0  0  0
  180.1850  177.3410  138.2170 C   0  0  0  0  0  2  0  0  0  0  0  0
  180.2680  176.6010  139.5540 C   0  0  1  0  0  0  0  0  0  0  0  0
  185.2440  179.1300  142.2890 O   0  0  0  0  0  0  0  0  0  0  0  0
  183.3030  177.0620  139.4000 C   0  0  0  0  0  0  0  0  0  0  0  0
  182.6520  177.4550  136.6460 C   0  0  0  0  0  3  0  0  0  0  0  0
  185.1610  178.6230  139.9680 C   0  0  2  0  0  3  0  0  0  0  0  0
  180.9770  178.6260  142.6280 C   0  0  0  0  0  3  0  0  0  0  0  0
  182.2010  174.9520  139.2200 O   0  0  0  0  0  0  0  0  0  0  0  0
  182.3110  175.0920  136.3310 C   0  0  0  0  0  3  0  0  0  0  0  0
  182.7950  176.0000  138.5850 N   0  0  0  0  0  0  0  0  0  0  0  0
  178.9570  176.4500  140.0100 O   0  0  0  0  0  1  0  0  0  0  0  0
  181.6180  179.1370  135.1560 C   0  0  0  0  0  2  0  0  0  0  0  0
  181.0750  177.3630  140.6040 C   0  0  0  0  0  0  0  0  0  0  0  0
  184.5530  177.4970  139.1910 C   0  0  0  0  0  3  0  0  0  0  0  0
  180.7130  179.3950  137.5500 C   0  0  1  0  0  3  0  0  0  0  0  0
  181.1860  180.6610  138.2680 C   0  0  0  0  0  2  0  0  0  0  0  0
  180.4380  180.9030  139.5710 C   0  0  0  0  0  2  0  0  0  0  0  0
  179.5570  181.9750  139.4250 O   0  0  0  0  0  1  0  0  0  0  0  0
  1 15  1  0  0  0  0
  1 19  2  0  0  0  0
  2 23  1  0  0  0  0
  2  9  1  0  0  0  0
  4 29  2  0  0  0  0
  4 15  1  0  0  0  0
  5 18  1  0  0  0  0
  7 21  1  0  0  0  0
  8 16  1  0  0  0  0
  8  7  2  0  0  0  0
 10 23  2  0  0  0  0
 11 14  1  0  0  0  0
 12 26  1  0  0  0  0
 14  3  1  6  0  0  0
 14 31  1  0  0  0  0
 15  2  2  0  0  0  0
 16 25  2  0  0  0  0
 17 13  1  0  0  0  0
 17 18  1  0  0  0  0
 18 27  1  1  0  0  0
 18 29  1  0  0  0  0
 20  4  1  0  0  0  0
 21 12  2  0  0  0  0
 22  6  1  6  0  0  0
 22  1  1  0  0  0  0
 24  5  1  0  0  0  0
 25 12  1  0  0  0  0
 26 24  1  0  0  0  0
 26 20  1  0  0  0  0
 28  7  1  0  0  0  0
 28 14  1  0  0  0  0
 29 10  1  0  0  0  0
 30 20  2  0  0  0  0
 30 22  1  0  0  0  0
 31 32  1  1  0  0  0
 31 13  1  0  0  0  0
 32 33  1  0  0  0  0
 34 33  1  0  0  0  0
M  END
>  <MODEL>
5

>  <REMARK>
 VINA RESULT:      -3.5      2.451      5.567
  Name = 
  2 active torsions:
  status: ('A' for Active; 'I' for Inactive)
    1  A    between atoms: C_20  and  C_22
    2  A    between atoms: C_20  and  C_34
                            x       y       z     vdW  Elec       q    Type
                         _______ _______ _______ _____ _____    ______ ____

>  <TORSDO>
F 2

$$$$
=
 OpenBabel11052414033D

 34 38  0  0  1  0  0  0  0  0999 V2000
  179.8310  181.1150  139.5720 C   0  0  0  0  0  0  0  0  0  0  0  0
  180.1640  180.1310  141.8890 C   0  0  0  0  0  0  0  0  0  0  0  0
  183.2700  173.9250  138.2290 S   0  0  0  0  0  1  0  0  0  0  0  0
  181.7650  179.6410  140.1090 C   0  0  0  0  0  0  0  0  0  0  0  0
  184.8580  178.7960  140.0520 C   0  0  0  0  0  2  0  0  0  0  0  0
  178.9310  179.5700  137.5780 Cl  0  0  0  0  0  0  0  0  0  0  0  0
  182.9750  176.5140  136.2640 C   0  0  0  0  0  0  0  0  0  0  0  0
  184.2660  176.2220  135.8120 C   0  0  0  0  0  3  0  0  0  0  0  0
  178.9310  180.7680  142.4350 C   0  0  0  0  0  1  0  0  0  0  0  0
  182.0020  178.6720  142.2880 N   0  0  0  0  0  0  0  0  0  0  0  0
  180.7210  173.9660  137.7680 F   0  0  0  0  0  0  0  0  0  0  0  0
  183.7760  178.5940  137.2320 C   0  0  0  0  0  0  0  0  0  0  0  0
  182.2690  176.0440  139.9860 O   0  0  0  0  0  0  0  0  0  0  0  0
  181.7670  174.8720  137.7990 C   0  0  2  0  0  0  0  0  0  0  0  0
  180.5900  180.2970  140.5540 C   0  0  0  0  0  0  0  0  0  0  0  0
  185.3060  177.1350  136.0350 C   0  0  0  0  0  3  0  0  0  0  0  0
  183.3530  176.8550  139.6260 C   0  0  0  0  0  2  0  0  0  0  0  0
  183.6870  177.9620  140.6290 C   0  0  1  0  0  0  0  0  0  0  0  0
  179.0040  181.9910  139.9400 O   0  0  0  0  0  0  0  0  0  0  0  0
  182.2300  179.8720  138.7140 C   0  0  0  0  0  0  0  0  0  0  0  0
  182.7350  177.7240  136.9000 C   0  0  0  0  0  3  0  0  0  0  0  0
  180.0260  180.8690  138.1110 C   0  0  2  0  0  3  0  0  0  0  0  0
  180.8950  179.3100  142.7360 C   0  0  0  0  0  3  0  0  0  0  0  0
  184.5740  179.8670  139.1630 O   0  0  0  0  0  0  0  0  0  0  0  0
  185.0710  178.3000  136.7810 C   0  0  0  0  0  3  0  0  0  0  0  0
  183.5600  179.5050  138.3300 N   0  0  0  0  0  0  0  0  0  0  0  0
  184.1840  177.3300  141.7720 O   0  0  0  0  0  1  0  0  0  0  0  0
  181.9190  175.4510  136.3670 C   0  0  0  0  0  2  0  0  0  0  0  0
  182.4700  178.8000  141.0150 C   0  0  0  0  0  0  0  0  0  0  0  0
  181.4410  180.4770  137.8150 C   0  0  0  0  0  3  0  0  0  0  0  0
  181.4560  176.0050  138.8360 C   0  0  1  0  0  3  0  0  0  0  0  0
  179.9760  176.2080  139.1680 C   0  0  0  0  0  2  0  0  0  0  0  0
  179.6390  175.7920  140.5930 C   0  0  0  0  0  2  0  0  0  0  0  0
  178.9320  176.8090  141.2340 O   0  0  0  0  0  1  0  0  0  0  0  0
  1 19  2  0  0  0  0
  1 15  1  0  0  0  0
  2  9  1  0  0  0  0
  2 23  1  0  0  0  0
  4 15  1  0  0  0  0
  4 29  2  0  0  0  0
  5 18  1  0  0  0  0
  7 28  1  0  0  0  0
  7 21  1  0  0  0  0
  8 16  1  0  0  0  0
  8  7  2  0  0  0  0
 10 23  2  0  0  0  0
 12 26  1  0  0  0  0
 14 11  1  6  0  0  0
 14  3  1  0  0  0  0
 14 31  1  0  0  0  0
 15  2  2  0  0  0  0
 16 25  2  0  0  0  0
 17 13  1  0  0  0  0
 17 18  1  0  0  0  0
 18 29  1  0  0  0  0
 18 27  1  1  0  0  0
 20  4  1  0  0  0  0
 21 12  2  0  0  0  0
 22  6  1  1  0  0  0
 22  1  1  0  0  0  0
 24  5  1  0  0  0  0
 25 12  1  0  0  0  0
 26 20  1  0  0  0  0
 26 24  1  0  0  0  0
 28 14  1  0  0  0  0
 29 10  1  0  0  0  0
 30 22  1  0  0  0  0
 30 20  2  0  0  0  0
 31 32  1  1  0  0  0
 31 13  1  0  0  0  0
 32 33  1  0  0  0  0
 33 34  1  0  0  0  0
M  END
>  <MODEL>
6

>  <REMARK>
 VINA RESULT:      -3.4      2.763      6.111
  Name = 
  2 active torsions:
  status: ('A' for Active; 'I' for Inactive)
    1  A    between atoms: C_20  and  C_22
    2  A    between atoms: C_20  and  C_34
                            x       y       z     vdW  Elec       q    Type
                         _______ _______ _______ _____ _____    ______ ____

>  <TORSDO>
F 2

$$$$
=
 OpenBabel11052414033D

 34 38  0  0  1  0  0  0  0  0999 V2000
  186.9950  176.5240  135.7450 C   0  0  0  0  0  0  0  0  0  0  0  0
  186.6760  174.3640  137.0400 C   0  0  0  0  0  0  0  0  0  0  0  0
  180.3440  177.7900  140.1600 S   0  0  0  0  0  1  0  0  0  0  0  0
  184.7320  175.6620  136.3270 C   0  0  0  0  0  0  0  0  0  0  0  0
  181.6660  174.9470  135.7160 C   0  0  0  0  0  2  0  0  0  0  0  0
  186.6460  178.8830  136.9660 Cl  0  0  0  0  0  0  0  0  0  0  0  0
  181.4670  179.3880  137.5460 C   0  0  0  0  0  0  0  0  0  0  0  0
  180.1340  179.4880  137.1300 C   0  0  0  0  0  3  0  0  0  0  0  0
  188.1410  174.1130  137.1570 C   0  0  0  0  0  1  0  0  0  0  0  0
  184.4770  173.6590  137.6170 N   0  0  0  0  0  0  0  0  0  0  0  0
  182.4600  178.9490  141.1030 F   0  0  0  0  0  0  0  0  0  0  0  0
  181.9610  177.9580  135.6430 C   0  0  0  0  0  0  0  0  0  0  0  0
  182.5510  176.1220  139.1980 O   0  0  0  0  0  0  0  0  0  0  0  0
  182.0050  178.4990  139.8760 C   0  0  2  0  0  0  0  0  0  0  0  0
  186.1380  175.4870  136.3770 C   0  0  0  0  0  0  0  0  0  0  0  0
  179.7240  178.8550  135.9470 C   0  0  0  0  0  3  0  0  0  0  0  0
  181.9430  176.0440  137.9380 C   0  0  0  0  0  2  0  0  0  0  0  0
  182.3780  174.8470  137.0890 C   0  0  1  0  0  0  0  0  0  0  0  0
  188.1930  176.2920  135.4330 O   0  0  0  0  0  0  0  0  0  0  0  0
  184.1800  176.8220  135.5740 C   0  0  0  0  0  0  0  0  0  0  0  0
  182.3730  178.6890  136.7600 C   0  0  0  0  0  3  0  0  0  0  0  0
  186.4320  177.8880  135.5040 C   0  0  2  0  0  3  0  0  0  0  0  0
  185.8160  173.4630  137.6530 C   0  0  0  0  0  3  0  0  0  0  0  0
  182.2550  175.7260  134.6860 O   0  0  0  0  0  0  0  0  0  0  0  0
  180.6260  178.0570  135.2280 C   0  0  0  0  0  3  0  0  0  0  0  0
  182.7920  176.8550  135.2240 N   0  0  0  0  0  0  0  0  0  0  0  0
  181.8660  173.7070  137.7120 O   0  0  0  0  0  1  0  0  0  0  0  0
  181.8810  179.7350  138.9470 C   0  0  0  0  0  2  0  0  0  0  0  0
  183.8960  174.7150  136.9830 C   0  0  0  0  0  0  0  0  0  0  0  0
  184.9760  177.8180  135.1620 C   0  0  0  0  0  3  0  0  0  0  0  0
  183.0110  177.4500  139.2900 C   0  0  1  0  0  3  0  0  0  0  0  0
  184.4390  177.5310  139.8340 C   0  0  0  0  0  2  0  0  0  0  0  0
  185.1200  178.8460  139.4840 C   0  0  0  0  0  2  0  0  0  0  0  0
  185.6780  179.4160  140.6280 O   0  0  0  0  0  1  0  0  0  0  0  0
  1 15  1  0  0  0  0
  2  9  1  0  0  0  0
  2 23  1  0  0  0  0
  4 15  1  0  0  0  0
  4 29  2  0  0  0  0
  5 18  1  0  0  0  0
  7 28  1  0  0  0  0
  8  7  1  0  0  0  0
 10 23  2  0  0  0  0
 12 21  1  0  0  0  0
 13 31  1  0  0  0  0
 14  3  1  1  0  0  0
 14 11  1  0  0  0  0
 15  2  2  0  0  0  0
 16  8  2  0  0  0  0
 17 13  1  0  0  0  0
 18 27  1  1  0  0  0
 18 17  1  0  0  0  0
 19  1  2  0  0  0  0
 20  4  1  0  0  0  0
 21  7  2  0  0  0  0
 22  1  1  0  0  0  0
 22  6  1  1  0  0  0
 24 26  1  0  0  0  0
 24  5  1  0  0  0  0
 25 12  2  0  0  0  0
 25 16  1  0  0  0  0
 26 20  1  0  0  0  0
 26 12  1  0  0  0  0
 28 14  1  0  0  0  0
 29 18  1  0  0  0  0
 29 10  1  0  0  0  0
 30 22  1  0  0  0  0
 30 20  2  0  0  0  0
 31 32  1  1  0  0  0
 31 14  1  0  0  0  0
 33 32  1  0  0  0  0
 33 34  1  0  0  0  0
M  END
>  <MODEL>
7

>  <REMARK>
 VINA RESULT:      -3.1      2.757      5.194
  Name = 
  2 active torsions:
  status: ('A' for Active; 'I' for Inactive)
    1  A    between atoms: C_20  and  C_22
    2  A    between atoms: C_20  and  C_34
                            x       y       z     vdW  Elec       q    Type
                         _______ _______ _______ _____ _____    ______ ____

>  <TORSDO>
F 2

$$$$
=
 OpenBabel11052414033D

 34 38  0  0  1  0  0  0  0  0999 V2000
  179.9890  180.4130  137.0290 C   0  0  0  0  0  0  0  0  0  0  0  0
  181.2670  178.5200  135.9190 C   0  0  0  0  0  0  0  0  0  0  0  0
  184.7520  177.5020  142.8750 S   0  0  0  0  0  1  0  0  0  0  0  0
  180.6720  178.3730  138.2840 C   0  0  0  0  0  0  0  0  0  0  0  0
  180.2060  175.9460  140.3280 C   0  0  0  0  0  2  0  0  0  0  0  0
  181.2610  182.1090  138.6660 Cl  0  0  0  0  0  0  0  0  0  0  0  0
  182.1080  179.4060  143.0700 C   0  0  0  0  0  0  0  0  0  0  0  0
  181.7610  178.6760  144.2120 C   0  0  0  0  0  3  0  0  0  0  0  0
  181.3060  179.2040  134.5940 C   0  0  0  0  0  1  0  0  0  0  0  0
  181.9430  176.6440  137.2190 N   0  0  0  0  0  0  0  0  0  0  0  0
  185.6040  179.7190  141.8400 F   0  0  0  0  0  0  0  0  0  0  0  0
  180.1620  178.5270  141.9090 C   0  0  0  0  0  0  0  0  0  0  0  0
  183.6560  177.4810  140.1580 O   0  0  0  0  0  0  0  0  0  0  0  0
  184.3950  179.0630  141.9920 C   0  0  2  0  0  0  0  0  0  0  0  0
  180.6480  179.0800  137.0560 C   0  0  0  0  0  0  0  0  0  0  0  0
  180.5920  177.9020  144.2170 C   0  0  0  0  0  3  0  0  0  0  0  0
  182.4270  177.0300  140.6580 C   0  0  0  0  0  2  0  0  0  0  0  0
  181.5390  176.3200  139.6330 C   0  0  1  0  0  0  0  0  0  0  0  0
  179.6150  180.9430  135.9500 O   0  0  0  0  0  0  0  0  0  0  0  0
  179.9650  178.9530  139.4590 C   0  0  0  0  0  0  0  0  0  0  0  0
  181.2680  179.3780  141.9650 C   0  0  0  0  0  3  0  0  0  0  0  0
  179.7980  181.1590  138.3100 C   0  0  2  0  0  3  0  0  0  0  0  0
  181.9090  177.2950  136.0320 C   0  0  0  0  0  3  0  0  0  0  0  0
  179.1580  176.9040  140.3780 O   0  0  0  0  0  0  0  0  0  0  0  0
  179.8160  177.7940  143.0530 C   0  0  0  0  0  3  0  0  0  0  0  0
  179.6860  178.1380  140.6030 N   0  0  0  0  0  0  0  0  0  0  0  0
  182.1710  175.1130  139.3240 O   0  0  0  0  0  1  0  0  0  0  0  0
  183.4910  179.9580  142.8810 C   0  0  0  0  0  2  0  0  0  0  0  0
  181.3550  177.1270  138.3490 C   0  0  0  0  0  0  0  0  0  0  0  0
  179.5280  180.2200  139.4450 C   0  0  0  0  0  3  0  0  0  0  0  0
  183.7440  178.8210  140.5870 C   0  0  1  0  0  3  0  0  0  0  0  0
  184.2160  179.7540  139.4710 C   0  0  0  0  0  2  0  0  0  0  0  0
  184.8020  178.9950  138.2890 C   0  0  0  0  0  2  0  0  0  0  0  0
  186.1240  178.6400  138.5560 O   0  0  0  0  0  1  0  0  0  0  0  0
  1 15  1  0  0  0  0
  1 22  1  0  0  0  0
  2 23  2  0  0  0  0
  2 15  1  0  0  0  0
  4 29  1  0  0  0  0
  4 20  1  0  0  0  0
  5 24  1  0  0  0  0
  7  8  1  0  0  0  0
  8 16  2  0  0  0  0
  9  2  1  0  0  0  0
 10 29  2  0  0  0  0
 12 21  1  0  0  0  0
 12 25  2  0  0  0  0
 13 31  1  0  0  0  0
 13 17  1  0  0  0  0
 14 11  1  6  0  0  0
 14  3  1  0  0  0  0
 14 28  1  0  0  0  0
 15  4  2  0  0  0  0
 18 27  1  6  0  0  0
 18  5  1  0  0  0  0
 18 17  1  0  0  0  0
 19  1  2  0  0  0  0
 20 26  1  0  0  0  0
 21  7  2  0  0  0  0
 22  6  1  1  0  0  0
 22 30  1  0  0  0  0
 23 10  1  0  0  0  0
 24 26  1  0  0  0  0
 25 16  1  0  0  0  0
 26 12  1  0  0  0  0
 28  7  1  0  0  0  0
 29 18  1  0  0  0  0
 30 20  2  0  0  0  0
 31 32  1  6  0  0  0
 31 14  1  0  0  0  0
 33 34  1  0  0  0  0
 33 32  1  0  0  0  0
M  END
>  <MODEL>
8

>  <REMARK>
 VINA RESULT:      -2.7      3.050      4.907
  Name = 
  2 active torsions:
  status: ('A' for Active; 'I' for Inactive)
    1  A    between atoms: C_20  and  C_22
    2  A    between atoms: C_20  and  C_34
                            x       y       z     vdW  Elec       q    Type
                         _______ _______ _______ _____ _____    ______ ____

>  <TORSDO>
F 2

$$$$
=
 OpenBabel11052414033D

 34 38  0  0  1  0  0  0  0  0999 V2000
  181.6920  175.8200  136.6790 C   0  0  0  0  0  0  0  0  0  0  0  0
  180.3630  177.7930  135.7920 C   0  0  0  0  0  0  0  0  0  0  0  0
  180.4780  180.5040  143.1540 S   0  0  0  0  0  1  0  0  0  0  0  0
  181.9490  178.1100  137.6230 C   0  0  0  0  0  0  0  0  0  0  0  0
  183.6280  180.6120  138.7220 C   0  0  0  0  0  2  0  0  0  0  0  0
  181.0230  174.6980  139.0180 Cl  0  0  0  0  0  0  0  0  0  0  0  0
  182.6150  178.0830  142.6820 C   0  0  0  0  0  0  0  0  0  0  0  0
  183.5340  178.8570  143.3980 C   0  0  0  0  0  3  0  0  0  0  0  0
  179.6440  176.9680  134.7790 C   0  0  0  0  0  1  0  0  0  0  0  0
  180.6200  179.9300  136.8080 N   0  0  0  0  0  0  0  0  0  0  0  0
  178.9310  178.4280  143.0610 F   0  0  0  0  0  0  0  0  0  0  0  0
  183.9640  178.3250  140.6750 C   0  0  0  0  0  0  0  0  0  0  0  0
  180.2630  179.9100  140.2930 O   0  0  0  0  0  0  0  0  0  0  0  0
  180.1690  178.8010  142.5670 C   0  0  2  0  0  0  0  0  0  0  0  0
  181.3240  177.2610  136.6770 C   0  0  0  0  0  0  0  0  0  0  0  0
  184.6900  179.3320  142.7630 C   0  0  0  0  0  3  0  0  0  0  0  0
  181.6390  180.1270  140.1450 C   0  0  0  0  0  2  0  0  0  0  0  0
  182.0850  180.4690  138.7210 C   0  0  1  0  0  0  0  0  0  0  0  0
  181.4700  175.0790  135.6850 O   0  0  0  0  0  0  0  0  0  0  0  0
  183.0010  177.5430  138.5110 C   0  0  0  0  0  0  0  0  0  0  0  0
  182.8790  177.7680  141.3560 C   0  0  0  0  0  3  0  0  0  0  0  0
  182.3080  175.2260  137.9050 C   0  0  2  0  0  3  0  0  0  0  0  0
  180.0320  179.1380  135.8820 C   0  0  0  0  0  3  0  0  0  0  0  0
  184.4320  179.4530  138.5550 O   0  0  0  0  0  0  0  0  0  0  0  0
  184.8840  179.1020  141.3930 C   0  0  0  0  0  3  0  0  0  0  0  0
  183.8740  178.4150  139.2370 N   0  0  0  0  0  0  0  0  0  0  0  0
  181.5750  181.7380  138.4360 O   0  0  0  0  0  1  0  0  0  0  0  0
  181.2220  177.8460  143.1900 C   0  0  0  0  0  2  0  0  0  0  0  0
  181.5630  179.4780  137.6820 C   0  0  0  0  0  0  0  0  0  0  0  0
  183.1880  176.2190  138.6000 C   0  0  0  0  0  3  0  0  0  0  0  0
  180.1680  178.6970  141.0030 C   0  0  1  0  0  3  0  0  0  0  0  0
  179.1180  177.7590  140.4050 C   0  0  0  0  0  2  0  0  0  0  0  0
  179.5440  176.2990  140.4630 C   0  0  0  0  0  2  0  0  0  0  0  0
  178.9310  175.6640  141.5420 O   0  0  0  0  0  1  0  0  0  0  0  0
  1 22  1  0  0  0  0
  2 23  2  0  0  0  0
  2 15  1  0  0  0  0
  4 29  1  0  0  0  0
  4 20  1  0  0  0  0
  7 28  1  0  0  0  0
  7  8  1  0  0  0  0
  9  2  1  0  0  0  0
 10 29  2  0  0  0  0
 12 21  1  0  0  0  0
 12 25  2  0  0  0  0
 13 31  1  0  0  0  0
 14 11  1  1  0  0  0
 14  3  1  0  0  0  0
 14 28  1  0  0  0  0
 15  1  1  0  0  0  0
 15  4  2  0  0  0  0
 16  8  2  0  0  0  0
 17 13  1  0  0  0  0
 18 27  1  6  0  0  0
 18  5  1  0  0  0  0
 18 17  1  0  0  0  0
 19  1  2  0  0  0  0
 20 30  2  0  0  0  0
 20 26  1  0  0  0  0
 21  7  2  0  0  0  0
 22 30  1  0  0  0  0
 22  6  1  1  0  0  0
 23 10  1  0  0  0  0
 24  5  1  0  0  0  0
 24 26  1  0  0  0  0
 25 16  1  0  0  0  0
 26 12  1  0  0  0  0
 29 18  1  0  0  0  0
 31 32  1  6  0  0  0
 31 14  1  0  0  0  0
 32 33  1  0  0  0  0
 33 34  1  0  0  0  0
M  END
>  <MODEL>
9

>  <REMARK>
 VINA RESULT:      -2.4      2.511      4.138
  Name = 
  2 active torsions:
  status: ('A' for Active; 'I' for Inactive)
    1  A    between atoms: C_20  and  C_22
    2  A    between atoms: C_20  and  C_34
                            x       y       z     vdW  Elec       q    Type
                         _______ _______ _______ _____ _____    ______ ____

>  <TORSDO>
F 2

$$$$
