=
 OpenBabel11052412513D

 25 27  0  0  0  0  0  0  0  0999 V2000
  190.9290  176.4660  145.4190 N   0  0  0  0  0  0  0  0  0  0  0  0
  189.7110  176.9640  145.6690 C   0  0  0  0  0  0  0  0  0  0  0  0
  191.5580  176.4970  146.6230 C   0  0  0  0  0  3  0  0  0  0  0  0
  190.7760  177.0160  147.6110 N   0  0  0  0  0  0  0  0  0  0  0  0
  188.4350  177.7980  147.5140 C   0  0  0  0  0  0  0  0  0  0  0  0
  188.3110  178.1630  148.9510 C   0  0  0  0  0  1  0  0  0  0  0  0
  188.6590  177.0580  144.8160 N   0  0  0  0  0  0  0  0  0  0  0  0
  191.4560  175.9140  144.2010 C   0  0  0  0  0  0  0  0  0  0  0  0
  192.2580  174.9430  144.2670 O   0  0  0  0  0  0  0  0  0  0  0  0
  187.3400  177.9290  146.6420 C   0  0  0  0  0  3  0  0  0  0  0  0
  187.4730  177.5550  145.2840 C   0  0  0  0  0  0  0  0  0  0  0  0
  189.6200  177.2980  146.9800 C   0  0  0  0  0  0  0  0  0  0  0  0
  191.1060  176.4700  142.8780 C   0  0  0  0  0  0  0  0  0  0  0  0
  190.4600  177.4510  140.3670 N   0  0  0  0  0  0  0  0  0  0  0  0
  189.8840  176.1400  142.2780 C   0  0  0  0  0  3  0  0  0  0  0  0
  189.5740  176.6480  141.0150 C   0  0  0  0  0  3  0  0  0  0  0  0
  191.6580  177.7770  140.9190 C   0  0  0  0  0  3  0  0  0  0  0  0
  192.0040  177.2880  142.1810 C   0  0  0  0  0  3  0  0  0  0  0  0
  186.3060  177.6650  144.3680 C   0  0  0  0  0  2  0  0  0  0  0  0
  185.3510  178.7320  144.8740 C   0  0  0  0  0  2  0  0  0  0  0  0
  184.4110  179.1260  143.7890 C   0  0  0  0  0  0  0  0  0  0  0  0
  183.3230  179.6870  144.0860 O   0  0  0  0  0  0  0  0  0  0  0  0
  184.7340  178.8400  142.3860 C   0  0  0  0  0  0  0  0  0  0  0  0
  184.2480  177.7240  141.7890 F   0  0  0  0  0  0  0  0  0  0  0  0
  185.4640  179.6270  141.7290 O   0  0  0  0  0  0  0  0  0  0  0  0
  1  2  1  0  0  0  0
  1  3  1  0  0  0  0
  2 12  1  0  0  0  0
  3  4  2  0  0  0  0
  5  6  1  0  0  0  0
  7 11  1  0  0  0  0
  7  2  2  0  0  0  0
  8  9  2  0  0  0  0
  8  1  1  0  0  0  0
 10  5  1  0  0  0  0
 11 10  2  0  0  0  0
 12  5  2  0  0  0  0
 12  4  1  0  0  0  0
 13  8  1  0  0  0  0
 14 17  2  0  0  0  0
 14 16  1  0  0  0  0
 15 13  1  0  0  0  0
 16 15  2  0  0  0  0
 17 18  1  0  0  0  0
 18 13  2  0  0  0  0
 19 20  1  0  0  0  0
 19 11  1  0  0  0  0
 21 22  2  0  0  0  0
 21 20  1  0  0  0  0
 23 21  1  0  0  0  0
 24 23  1  0  0  0  0
 25 23  2  0  0  0  0
M  END
>  <MODEL>
1

>  <REMARK>
 VINA RESULT:      -8.8      0.000      0.000
  Name = 
  5 active torsions:
  status: ('A' for Active; 'I' for Inactive)
    1  A    between atoms: C_2  and  C_21
    2  A    between atoms: C_5  and  C_18
    3  A    between atoms: C_6  and  C_15
    4  A    between atoms: C_6  and  C_23
    5  A    between atoms: C_15  and  C_21
                            x       y       z     vdW  Elec       q    Type
                         _______ _______ _______ _____ _____    ______ ____

>  <TORSDO>
F 5

$$$$
=
 OpenBabel11052412513D

 25 27  0  0  0  0  0  0  0  0999 V2000
  186.3970  178.5620  141.8910 N   0  0  0  0  0  0  0  0  0  0  0  0
  185.7970  178.5600  143.0890 C   0  0  0  0  0  0  0  0  0  0  0  0
  185.3750  178.6880  141.0050 C   0  0  0  0  0  3  0  0  0  0  0  0
  184.1560  178.7430  141.6130 N   0  0  0  0  0  0  0  0  0  0  0  0
  183.5980  178.7290  144.0180 C   0  0  0  0  0  0  0  0  0  0  0  0
  182.1240  178.8500  143.8580 C   0  0  0  0  0  1  0  0  0  0  0  0
  186.3830  178.5530  144.3140 N   0  0  0  0  0  0  0  0  0  0  0  0
  187.7980  178.5490  141.5740 C   0  0  0  0  0  0  0  0  0  0  0  0
  188.2040  179.2000  140.5730 O   0  0  0  0  0  0  0  0  0  0  0  0
  184.1820  178.6970  145.2970 C   0  0  0  0  0  3  0  0  0  0  0  0
  185.5880  178.6040  145.4260 C   0  0  0  0  0  0  0  0  0  0  0  0
  184.4550  178.6630  142.9230 C   0  0  0  0  0  0  0  0  0  0  0  0
  188.7700  177.7710  142.3680 C   0  0  0  0  0  0  0  0  0  0  0  0
  190.6440  176.3280  143.8130 N   0  0  0  0  0  0  0  0  0  0  0  0
  189.7740  178.4300  143.0890 C   0  0  0  0  0  3  0  0  0  0  0  0
  190.7060  177.6860  143.8160 C   0  0  0  0  0  3  0  0  0  0  0  0
  189.6900  175.6620  143.1110 C   0  0  0  0  0  3  0  0  0  0  0  0
  188.7400  176.3710  142.3730 C   0  0  0  0  0  3  0  0  0  0  0  0
  186.2080  178.5990  146.7780 C   0  0  0  0  0  2  0  0  0  0  0  0
  187.3060  177.5530  146.8400 C   0  0  0  0  0  2  0  0  0  0  0  0
  188.1860  177.8100  148.0140 C   0  0  0  0  0  0  0  0  0  0  0  0
  187.6870  178.2800  149.0710 O   0  0  0  0  0  0  0  0  0  0  0  0
  189.6270  177.5440  147.9330 C   0  0  0  0  0  0  0  0  0  0  0  0
  190.4940  178.2450  148.7060 F   0  0  0  0  0  0  0  0  0  0  0  0
  190.0680  176.6650  147.1480 O   0  0  0  0  0  0  0  0  0  0  0  0
  1  2  1  0  0  0  0
  2  7  1  0  0  0  0
  3  4  2  0  0  0  0
  3  1  1  0  0  0  0
  4 12  1  0  0  0  0
  5 10  2  0  0  0  0
  6  5  1  0  0  0  0
  7 11  2  0  0  0  0
  8  1  1  0  0  0  0
  8 13  1  0  0  0  0
  9  8  2  0  0  0  0
 10 11  1  0  0  0  0
 11 19  1  0  0  0  0
 12  2  2  0  0  0  0
 12  5  1  0  0  0  0
 13 18  2  0  0  0  0
 13 15  1  0  0  0  0
 14 16  1  0  0  0  0
 15 16  2  0  0  0  0
 17 14  2  0  0  0  0
 18 17  1  0  0  0  0
 19 20  1  0  0  0  0
 20 21  1  0  0  0  0
 21 22  2  0  0  0  0
 23 21  1  0  0  0  0
 23 24  1  0  0  0  0
 25 23  2  0  0  0  0
M  END
>  <MODEL>
2

>  <REMARK>
 VINA RESULT:      -8.4      3.193      5.746
  Name = 
  5 active torsions:
  status: ('A' for Active; 'I' for Inactive)
    1  A    between atoms: C_2  and  C_21
    2  A    between atoms: C_5  and  C_18
    3  A    between atoms: C_6  and  C_15
    4  A    between atoms: C_6  and  C_23
    5  A    between atoms: C_15  and  C_21
                            x       y       z     vdW  Elec       q    Type
                         _______ _______ _______ _____ _____    ______ ____

>  <TORSDO>
F 5

$$$$
=
 OpenBabel11052412513D

 25 27  0  0  0  0  0  0  0  0999 V2000
  187.3640  178.0260  146.6490 N   0  0  0  0  0  0  0  0  0  0  0  0
  188.3520  177.8010  145.7720 C   0  0  0  0  0  0  0  0  0  0  0  0
  187.8450  177.5450  147.8260 C   0  0  0  0  0  3  0  0  0  0  0  0
  189.0920  177.0100  147.7050 N   0  0  0  0  0  0  0  0  0  0  0  0
  190.5610  176.8830  145.7230 C   0  0  0  0  0  0  0  0  0  0  0  0
  191.7090  176.2170  146.3970 C   0  0  0  0  0  1  0  0  0  0  0  0
  188.4130  178.1840  144.4710 N   0  0  0  0  0  0  0  0  0  0  0  0
  186.1160  178.7120  146.4600 C   0  0  0  0  0  0  0  0  0  0  0  0
  185.6500  179.4060  147.4040 O   0  0  0  0  0  0  0  0  0  0  0  0
  190.6370  177.2470  144.3670 C   0  0  0  0  0  3  0  0  0  0  0  0
  189.5420  177.8990  143.7520 C   0  0  0  0  0  0  0  0  0  0  0  0
  189.3850  177.1880  146.4020 C   0  0  0  0  0  0  0  0  0  0  0  0
  185.3500  178.6040  145.2020 C   0  0  0  0  0  0  0  0  0  0  0  0
  183.8740  178.3480  142.8690 N   0  0  0  0  0  0  0  0  0  0  0  0
  184.0190  179.0360  145.1520 C   0  0  0  0  0  3  0  0  0  0  0  0
  183.2930  178.9040  143.9660 C   0  0  0  0  0  3  0  0  0  0  0  0
  185.1600  177.9080  142.8930 C   0  0  0  0  0  3  0  0  0  0  0  0
  185.9180  178.0230  144.0610 C   0  0  0  0  0  3  0  0  0  0  0  0
  189.6320  178.3100  142.3260 C   0  0  0  0  0  2  0  0  0  0  0  0
  188.7100  177.4510  141.4800 C   0  0  0  0  0  2  0  0  0  0  0  0
  188.2950  178.2000  140.2610 C   0  0  0  0  0  0  0  0  0  0  0  0
  187.1150  178.6300  140.1710 O   0  0  0  0  0  0  0  0  0  0  0  0
  189.2440  178.4110  139.1620 C   0  0  0  0  0  0  0  0  0  0  0  0
  190.4020  177.7060  139.1150 F   0  0  0  0  0  0  0  0  0  0  0  0
  188.9910  179.2470  138.2550 O   0  0  0  0  0  0  0  0  0  0  0  0
  1  3  1  0  0  0  0
  2 12  1  0  0  0  0
  2  1  1  0  0  0  0
  4  3  2  0  0  0  0
  5  6  1  0  0  0  0
  5 12  2  0  0  0  0
  7  2  2  0  0  0  0
  8  1  1  0  0  0  0
  8  9  2  0  0  0  0
 10  5  1  0  0  0  0
 11 10  2  0  0  0  0
 11  7  1  0  0  0  0
 12  4  1  0  0  0  0
 13  8  1  0  0  0  0
 14 17  2  0  0  0  0
 14 16  1  0  0  0  0
 15 13  1  0  0  0  0
 16 15  2  0  0  0  0
 17 18  1  0  0  0  0
 18 13  2  0  0  0  0
 19 11  1  0  0  0  0
 20 19  1  0  0  0  0
 21 20  1  0  0  0  0
 22 21  2  0  0  0  0
 23 21  1  0  0  0  0
 24 23  1  0  0  0  0
 25 23  2  0  0  0  0
M  END
>  <MODEL>
3

>  <REMARK>
 VINA RESULT:      -8.4      2.777      5.268
  Name = 
  5 active torsions:
  status: ('A' for Active; 'I' for Inactive)
    1  A    between atoms: C_2  and  C_21
    2  A    between atoms: C_5  and  C_18
    3  A    between atoms: C_6  and  C_15
    4  A    between atoms: C_6  and  C_23
    5  A    between atoms: C_15  and  C_21
                            x       y       z     vdW  Elec       q    Type
                         _______ _______ _______ _____ _____    ______ ____

>  <TORSDO>
F 5

$$$$
=
 OpenBabel11052412513D

 25 27  0  0  0  0  0  0  0  0999 V2000
  187.5350  177.8330  146.8490 N   0  0  0  0  0  0  0  0  0  0  0  0
  188.7160  177.7060  146.2300 C   0  0  0  0  0  0  0  0  0  0  0  0
  187.7230  177.2390  148.0560 C   0  0  0  0  0  3  0  0  0  0  0  0
  188.9790  176.7280  148.2010 N   0  0  0  0  0  0  0  0  0  0  0  0
  190.8970  176.8140  146.6480 C   0  0  0  0  0  0  0  0  0  0  0  0
  191.8630  176.0930  147.5210 C   0  0  0  0  0  1  0  0  0  0  0  0
  189.0860  178.2190  145.0290 N   0  0  0  0  0  0  0  0  0  0  0  0
  186.3510  178.5250  146.4200 C   0  0  0  0  0  0  0  0  0  0  0  0
  185.6430  179.1160  147.2800 O   0  0  0  0  0  0  0  0  0  0  0  0
  191.2950  177.3140  145.3950 C   0  0  0  0  0  3  0  0  0  0  0  0
  190.3670  178.0170  144.5910 C   0  0  0  0  0  0  0  0  0  0  0  0
  189.5790  177.0400  147.0370 C   0  0  0  0  0  0  0  0  0  0  0  0
  185.9260  178.5390  145.0060 C   0  0  0  0  0  0  0  0  0  0  0  0
  185.0700  178.5280  142.3690 N   0  0  0  0  0  0  0  0  0  0  0  0
  184.8350  179.3240  144.6080 C   0  0  0  0  0  3  0  0  0  0  0  0
  184.4220  179.3090  143.2740 C   0  0  0  0  0  3  0  0  0  0  0  0
  186.1210  177.7460  142.7290 C   0  0  0  0  0  3  0  0  0  0  0  0
  186.5640  177.7340  144.0540 C   0  0  0  0  0  3  0  0  0  0  0  0
  190.7950  178.5710  143.2790 C   0  0  0  0  0  2  0  0  0  0  0  0
  191.5830  177.5270  142.5090 C   0  0  0  0  0  2  0  0  0  0  0  0
  190.6500  176.6340  141.7670 C   0  0  0  0  0  0  0  0  0  0  0  0
  190.1600  175.6300  142.3490 O   0  0  0  0  0  0  0  0  0  0  0  0
  190.3260  176.9040  140.3610 C   0  0  0  0  0  0  0  0  0  0  0  0
  189.7020  178.0570  140.0150 F   0  0  0  0  0  0  0  0  0  0  0  0
  190.6230  176.0680  139.4680 O   0  0  0  0  0  0  0  0  0  0  0  0
  1  3  1  0  0  0  0
  2  1  1  0  0  0  0
  2 12  1  0  0  0  0
  3  4  2  0  0  0  0
  5 12  2  0  0  0  0
  5  6  1  0  0  0  0
  7  2  2  0  0  0  0
  8  1  1  0  0  0  0
  8  9  2  0  0  0  0
 10  5  1  0  0  0  0
 11  7  1  0  0  0  0
 11 10  2  0  0  0  0
 12  4  1  0  0  0  0
 13  8  1  0  0  0  0
 14 17  2  0  0  0  0
 14 16  1  0  0  0  0
 15 13  1  0  0  0  0
 16 15  2  0  0  0  0
 17 18  1  0  0  0  0
 18 13  2  0  0  0  0
 19 11  1  0  0  0  0
 20 19  1  0  0  0  0
 21 22  2  0  0  0  0
 21 20  1  0  0  0  0
 23 21  1  0  0  0  0
 24 23  1  0  0  0  0
 25 23  2  0  0  0  0
M  END
>  <MODEL>
4

>  <REMARK>
 VINA RESULT:      -8.3      2.416      5.360
  Name = 
  5 active torsions:
  status: ('A' for Active; 'I' for Inactive)
    1  A    between atoms: C_2  and  C_21
    2  A    between atoms: C_5  and  C_18
    3  A    between atoms: C_6  and  C_15
    4  A    between atoms: C_6  and  C_23
    5  A    between atoms: C_15  and  C_21
                            x       y       z     vdW  Elec       q    Type
                         _______ _______ _______ _____ _____    ______ ____

>  <TORSDO>
F 5

$$$$
=
 OpenBabel11052412513D

 25 27  0  0  0  0  0  0  0  0999 V2000
  186.1740  178.4310  142.4780 N   0  0  0  0  0  0  0  0  0  0  0  0
  187.3840  177.9490  142.1640 C   0  0  0  0  0  0  0  0  0  0  0  0
  185.7600  179.0610  141.3470 C   0  0  0  0  0  3  0  0  0  0  0  0
  186.6830  179.0030  140.3460 N   0  0  0  0  0  0  0  0  0  0  0  0
  188.8810  177.8780  140.2990 C   0  0  0  0  0  0  0  0  0  0  0  0
  189.2350  178.2400  138.9000 C   0  0  0  0  0  1  0  0  0  0  0  0
  188.1850  177.1550  142.9200 N   0  0  0  0  0  0  0  0  0  0  0  0
  185.4060  178.2540  143.6790 C   0  0  0  0  0  0  0  0  0  0  0  0
  184.1510  178.1560  143.5940 O   0  0  0  0  0  0  0  0  0  0  0  0
  189.7390  177.0760  141.0730 C   0  0  0  0  0  3  0  0  0  0  0  0
  189.3730  176.7250  142.3940 C   0  0  0  0  0  0  0  0  0  0  0  0
  187.6920  178.2960  140.8900 C   0  0  0  0  0  0  0  0  0  0  0  0
  186.0420  178.2130  145.0120 C   0  0  0  0  0  0  0  0  0  0  0  0
  187.2000  178.0770  147.5270 N   0  0  0  0  0  0  0  0  0  0  0  0
  187.0140  177.2450  145.2960 C   0  0  0  0  0  3  0  0  0  0  0  0
  187.5900  177.1960  146.5670 C   0  0  0  0  0  3  0  0  0  0  0  0
  186.2490  179.0170  147.2830 C   0  0  0  0  0  3  0  0  0  0  0  0
  185.6500  179.0980  146.0240 C   0  0  0  0  0  3  0  0  0  0  0  0
  190.2660  175.8530  143.2020 C   0  0  0  0  0  2  0  0  0  0  0  0
  191.4630  176.6480  143.6890 C   0  0  0  0  0  2  0  0  0  0  0  0
  191.2070  177.1580  145.0650 C   0  0  0  0  0  0  0  0  0  0  0  0
  190.6010  178.2520  145.2170 O   0  0  0  0  0  0  0  0  0  0  0  0
  191.6800  176.4080  146.2340 C   0  0  0  0  0  0  0  0  0  0  0  0
  192.3060  175.2160  146.0720 F   0  0  0  0  0  0  0  0  0  0  0  0
  191.5090  176.8650  147.3950 O   0  0  0  0  0  0  0  0  0  0  0  0
  1  8  1  0  0  0  0
  2  1  1  0  0  0  0
  2  7  1  0  0  0  0
  3  1  1  0  0  0  0
  4 12  1  0  0  0  0
  4  3  2  0  0  0  0
  5 12  1  0  0  0  0
  5 10  2  0  0  0  0
  6  5  1  0  0  0  0
  8 13  1  0  0  0  0
  9  8  2  0  0  0  0
 10 11  1  0  0  0  0
 11  7  2  0  0  0  0
 11 19  1  0  0  0  0
 12  2  2  0  0  0  0
 13 15  2  0  0  0  0
 13 18  1  0  0  0  0
 15 16  1  0  0  0  0
 16 14  2  0  0  0  0
 17 14  1  0  0  0  0
 18 17  2  0  0  0  0
 19 20  1  0  0  0  0
 20 21  1  0  0  0  0
 21 22  2  0  0  0  0
 21 23  1  0  0  0  0
 23 25  2  0  0  0  0
 24 23  1  0  0  0  0
M  END
>  <MODEL>
5

>  <REMARK>
 VINA RESULT:      -8.3      2.850      7.069
  Name = 
  5 active torsions:
  status: ('A' for Active; 'I' for Inactive)
    1  A    between atoms: C_2  and  C_21
    2  A    between atoms: C_5  and  C_18
    3  A    between atoms: C_6  and  C_15
    4  A    between atoms: C_6  and  C_23
    5  A    between atoms: C_15  and  C_21
                            x       y       z     vdW  Elec       q    Type
                         _______ _______ _______ _____ _____    ______ ____

>  <TORSDO>
F 5

$$$$
=
 OpenBabel11052412513D

 25 27  0  0  0  0  0  0  0  0999 V2000
  187.6350  177.7690  145.9330 N   0  0  0  0  0  0  0  0  0  0  0  0
  186.9050  178.0810  144.8550 C   0  0  0  0  0  0  0  0  0  0  0  0
  186.8110  178.0250  146.9820 C   0  0  0  0  0  3  0  0  0  0  0  0
  185.5970  178.5050  146.5910 N   0  0  0  0  0  0  0  0  0  0  0  0
  184.7130  178.8750  144.3150 C   0  0  0  0  0  0  0  0  0  0  0  0
  183.3660  179.3600  144.7250 C   0  0  0  0  0  1  0  0  0  0  0  0
  187.2350  177.9130  143.5480 N   0  0  0  0  0  0  0  0  0  0  0  0
  188.9480  177.1910  146.0080 C   0  0  0  0  0  0  0  0  0  0  0  0
  189.2070  176.3780  146.9370 O   0  0  0  0  0  0  0  0  0  0  0  0
  185.0430  178.7350  142.9550 C   0  0  0  0  0  3  0  0  0  0  0  0
  186.3210  178.2520  142.5880 C   0  0  0  0  0  0  0  0  0  0  0  0
  185.6860  178.5270  145.2480 C   0  0  0  0  0  0  0  0  0  0  0  0
  190.0120  177.5450  145.0460 C   0  0  0  0  0  0  0  0  0  0  0  0
  191.9600  178.2390  143.2000 N   0  0  0  0  0  0  0  0  0  0  0  0
  190.4120  178.8790  144.9030 C   0  0  0  0  0  3  0  0  0  0  0  0
  191.3990  179.2090  143.9710 C   0  0  0  0  0  3  0  0  0  0  0  0
  191.5810  176.9380  143.3090 C   0  0  0  0  0  3  0  0  0  0  0  0
  190.5970  176.5700  144.2290 C   0  0  0  0  0  3  0  0  0  0  0  0
  186.6600  178.0740  141.1510 C   0  0  0  0  0  2  0  0  0  0  0  0
  188.1530  178.2500  140.9460 C   0  0  0  0  0  2  0  0  0  0  0  0
  188.4690  178.2540  139.4910 C   0  0  0  0  0  0  0  0  0  0  0  0
  187.5890  178.6200  138.6670 O   0  0  0  0  0  0  0  0  0  0  0  0
  189.7840  177.8090  139.0160 C   0  0  0  0  0  0  0  0  0  0  0  0
  190.8030  177.6350  139.8940 F   0  0  0  0  0  0  0  0  0  0  0  0
  189.9760  177.5860  137.7920 O   0  0  0  0  0  0  0  0  0  0  0  0
  1  8  1  0  0  0  0
  1  3  1  0  0  0  0
  2 12  1  0  0  0  0
  2  1  1  0  0  0  0
  4  3  2  0  0  0  0
  5  6  1  0  0  0  0
  5 12  2  0  0  0  0
  7  2  2  0  0  0  0
  8  9  2  0  0  0  0
 10  5  1  0  0  0  0
 11 10  2  0  0  0  0
 11  7  1  0  0  0  0
 12  4  1  0  0  0  0
 13  8  1  0  0  0  0
 14 17  2  0  0  0  0
 14 16  1  0  0  0  0
 15 13  1  0  0  0  0
 16 15  2  0  0  0  0
 17 18  1  0  0  0  0
 18 13  2  0  0  0  0
 19 11  1  0  0  0  0
 20 19  1  0  0  0  0
 21 20  1  0  0  0  0
 22 21  2  0  0  0  0
 23 21  1  0  0  0  0
 23 24  1  0  0  0  0
 25 23  2  0  0  0  0
M  END
>  <MODEL>
6

>  <REMARK>
 VINA RESULT:      -8.2      2.856      4.634
  Name = 
  5 active torsions:
  status: ('A' for Active; 'I' for Inactive)
    1  A    between atoms: C_2  and  C_21
    2  A    between atoms: C_5  and  C_18
    3  A    between atoms: C_6  and  C_15
    4  A    between atoms: C_6  and  C_23
    5  A    between atoms: C_15  and  C_21
                            x       y       z     vdW  Elec       q    Type
                         _______ _______ _______ _____ _____    ______ ____

>  <TORSDO>
F 5

$$$$
=
 OpenBabel11052412513D

 25 27  0  0  0  0  0  0  0  0999 V2000
  188.0530  178.1390  140.4880 N   0  0  0  0  0  0  0  0  0  0  0  0
  188.3920  177.6120  141.6730 C   0  0  0  0  0  0  0  0  0  0  0  0
  186.8240  178.6780  140.7010 C   0  0  0  0  0  3  0  0  0  0  0  0
  186.3790  178.4860  141.9750 N   0  0  0  0  0  0  0  0  0  0  0  0
  187.5070  177.4020  143.8860 C   0  0  0  0  0  0  0  0  0  0  0  0
  186.4210  177.6220  144.8800 C   0  0  0  0  0  1  0  0  0  0  0  0
  189.5720  177.0370  142.0210 N   0  0  0  0  0  0  0  0  0  0  0  0
  188.8230  178.2330  139.2790 C   0  0  0  0  0  0  0  0  0  0  0  0
  188.6940  179.2550  138.5500 O   0  0  0  0  0  0  0  0  0  0  0  0
  188.7110  176.7810  144.2630 C   0  0  0  0  0  3  0  0  0  0  0  0
  189.7390  176.6020  143.3070 C   0  0  0  0  0  0  0  0  0  0  0  0
  187.3880  177.8140  142.5620 C   0  0  0  0  0  0  0  0  0  0  0  0
  189.7360  177.1550  138.8500 C   0  0  0  0  0  0  0  0  0  0  0  0
  191.4800  175.1750  138.0000 N   0  0  0  0  0  0  0  0  0  0  0  0
  191.0980  177.2200  139.1710 C   0  0  0  0  0  3  0  0  0  0  0  0
  191.9600  176.2110  138.7390 C   0  0  0  0  0  3  0  0  0  0  0  0
  190.1660  175.0930  137.6620 C   0  0  0  0  0  3  0  0  0  0  0  0
  189.2730  176.0830  138.0770 C   0  0  0  0  0  3  0  0  0  0  0  0
  191.0240  175.9710  143.7120 C   0  0  0  0  0  2  0  0  0  0  0  0
  191.7150  176.8300  144.7550 C   0  0  0  0  0  2  0  0  0  0  0  0
  191.8240  176.0820  146.0380 C   0  0  0  0  0  0  0  0  0  0  0  0
  192.4160  174.9700  146.0580 O   0  0  0  0  0  0  0  0  0  0  0  0
  191.2220  176.6190  147.2640 C   0  0  0  0  0  0  0  0  0  0  0  0
  189.8800  176.5580  147.4480 F   0  0  0  0  0  0  0  0  0  0  0  0
  191.9460  177.1400  148.1520 O   0  0  0  0  0  0  0  0  0  0  0  0
  1  3  1  0  0  0  0
  1  2  1  0  0  0  0
  2  7  2  0  0  0  0
  2 12  1  0  0  0  0
  3  4  2  0  0  0  0
  4 12  1  0  0  0  0
  5 10  1  0  0  0  0
  5  6  1  0  0  0  0
  7 11  1  0  0  0  0
  8  1  1  0  0  0  0
  9  8  2  0  0  0  0
 11 19  1  0  0  0  0
 11 10  2  0  0  0  0
 12  5  2  0  0  0  0
 13 15  1  0  0  0  0
 13  8  1  0  0  0  0
 14 16  1  0  0  0  0
 16 15  2  0  0  0  0
 17 14  2  0  0  0  0
 17 18  1  0  0  0  0
 18 13  2  0  0  0  0
 19 20  1  0  0  0  0
 20 21  1  0  0  0  0
 21 22  2  0  0  0  0
 21 23  1  0  0  0  0
 23 24  1  0  0  0  0
 23 25  2  0  0  0  0
M  END
>  <MODEL>
7

>  <REMARK>
 VINA RESULT:      -8.2      3.310      6.096
  Name = 
  5 active torsions:
  status: ('A' for Active; 'I' for Inactive)
    1  A    between atoms: C_2  and  C_21
    2  A    between atoms: C_5  and  C_18
    3  A    between atoms: C_6  and  C_15
    4  A    between atoms: C_6  and  C_23
    5  A    between atoms: C_15  and  C_21
                            x       y       z     vdW  Elec       q    Type
                         _______ _______ _______ _____ _____    ______ ____

>  <TORSDO>
F 5

$$$$
=
 OpenBabel11052412513D

 25 27  0  0  0  0  0  0  0  0999 V2000
  182.7390  178.7220  142.2060 N   0  0  0  0  0  0  0  0  0  0  0  0
  183.9520  178.5010  142.7300 C   0  0  0  0  0  0  0  0  0  0  0  0
  181.9560  179.0020  143.2800 C   0  0  0  0  0  3  0  0  0  0  0  0
  182.6390  178.9430  144.4580 N   0  0  0  0  0  0  0  0  0  0  0  0
  185.0330  178.4920  144.8650 C   0  0  0  0  0  0  0  0  0  0  0  0
  184.9900  178.6340  146.3460 C   0  0  0  0  0  1  0  0  0  0  0  0
  185.1160  178.2750  142.0680 N   0  0  0  0  0  0  0  0  0  0  0  0
  182.3370  178.7720  140.8270 C   0  0  0  0  0  0  0  0  0  0  0  0
  181.4460  179.5940  140.4790 O   0  0  0  0  0  0  0  0  0  0  0  0
  186.2460  178.2310  144.2020 C   0  0  0  0  0  3  0  0  0  0  0  0
  186.2670  178.1210  142.7920 C   0  0  0  0  0  0  0  0  0  0  0  0
  183.8920  178.6270  144.0780 C   0  0  0  0  0  0  0  0  0  0  0  0
  182.9150  177.8660  139.8140 C   0  0  0  0  0  0  0  0  0  0  0  0
  183.9640  176.2000  137.8620 N   0  0  0  0  0  0  0  0  0  0  0  0
  183.8440  178.3550  138.8850 C   0  0  0  0  0  3  0  0  0  0  0  0
  184.3650  177.4980  137.9130 C   0  0  0  0  0  3  0  0  0  0  0  0
  183.0540  175.7030  138.7410 C   0  0  0  0  0  3  0  0  0  0  0  0
  182.5100  176.5280  139.7280 C   0  0  0  0  0  3  0  0  0  0  0  0
  187.5540  177.8750  142.0890 C   0  0  0  0  0  2  0  0  0  0  0  0
  188.3740  176.8520  142.8540 C   0  0  0  0  0  2  0  0  0  0  0  0
  189.7630  177.3560  143.0450 C   0  0  0  0  0  0  0  0  0  0  0  0
  190.6730  176.9740  142.2610 O   0  0  0  0  0  0  0  0  0  0  0  0
  190.0760  178.2660  144.1520 C   0  0  0  0  0  0  0  0  0  0  0  0
  189.5480  178.0500  145.3830 F   0  0  0  0  0  0  0  0  0  0  0  0
  190.8360  179.2520  143.9690 O   0  0  0  0  0  0  0  0  0  0  0  0
  1  2  1  0  0  0  0
  1  3  1  0  0  0  0
  2 12  1  0  0  0  0
  3  4  2  0  0  0  0
  5  6  1  0  0  0  0
  7  2  2  0  0  0  0
  7 11  1  0  0  0  0
  8  1  1  0  0  0  0
  9  8  2  0  0  0  0
 10  5  1  0  0  0  0
 11 10  2  0  0  0  0
 12  4  1  0  0  0  0
 12  5  2  0  0  0  0
 13  8  1  0  0  0  0
 14 16  2  0  0  0  0
 14 17  1  0  0  0  0
 15 13  2  0  0  0  0
 16 15  1  0  0  0  0
 17 18  2  0  0  0  0
 18 13  1  0  0  0  0
 19 11  1  0  0  0  0
 19 20  1  0  0  0  0
 20 21  1  0  0  0  0
 21 23  1  0  0  0  0
 22 21  2  0  0  0  0
 23 24  1  0  0  0  0
 25 23  2  0  0  0  0
M  END
>  <MODEL>
8

>  <REMARK>
 VINA RESULT:      -7.6      3.858      7.253
  Name = 
  5 active torsions:
  status: ('A' for Active; 'I' for Inactive)
    1  A    between atoms: C_2  and  C_21
    2  A    between atoms: C_5  and  C_18
    3  A    between atoms: C_6  and  C_15
    4  A    between atoms: C_6  and  C_23
    5  A    between atoms: C_15  and  C_21
                            x       y       z     vdW  Elec       q    Type
                         _______ _______ _______ _____ _____    ______ ____

>  <TORSDO>
F 5

$$$$
=
 OpenBabel11052412513D

 25 27  0  0  0  0  0  0  0  0999 V2000
  189.9230  176.8750  144.5170 N   0  0  0  0  0  0  0  0  0  0  0  0
  188.8190  177.2680  145.1670 C   0  0  0  0  0  0  0  0  0  0  0  0
  190.8680  176.7850  145.4880 C   0  0  0  0  0  3  0  0  0  0  0  0
  190.3930  177.1270  146.7190 N   0  0  0  0  0  0  0  0  0  0  0  0
  188.1100  177.7840  147.3930 C   0  0  0  0  0  0  0  0  0  0  0  0
  188.3960  177.9530  148.8440 C   0  0  0  0  0  1  0  0  0  0  0  0
  187.5650  177.4130  144.6650 N   0  0  0  0  0  0  0  0  0  0  0  0
  190.0880  176.5160  143.1360 C   0  0  0  0  0  0  0  0  0  0  0  0
  190.8920  175.5910  142.8370 O   0  0  0  0  0  0  0  0  0  0  0  0
  186.8090  177.9660  146.8910 C   0  0  0  0  0  3  0  0  0  0  0  0
  186.5540  177.7780  145.5120 C   0  0  0  0  0  0  0  0  0  0  0  0
  189.1010  177.4240  146.4840 C   0  0  0  0  0  0  0  0  0  0  0  0
  189.3660  177.2190  142.0560 C   0  0  0  0  0  0  0  0  0  0  0  0
  188.0710  178.5700  140.0110 N   0  0  0  0  0  0  0  0  0  0  0  0
  189.6210  176.8970  140.7160 C   0  0  0  0  0  3  0  0  0  0  0  0
  188.9550  177.5850  139.7000 C   0  0  0  0  0  3  0  0  0  0  0  0
  187.8140  178.9130  141.3010 C   0  0  0  0  0  3  0  0  0  0  0  0
  188.4610  178.2470  142.3450 C   0  0  0  0  0  3  0  0  0  0  0  0
  185.1730  177.9410  144.9860 C   0  0  0  0  0  2  0  0  0  0  0  0
  185.1170  179.1260  144.0400 C   0  0  0  0  0  2  0  0  0  0  0  0
  184.0520  178.9120  143.0210 C   0  0  0  0  0  0  0  0  0  0  0  0
  184.3750  178.7000  141.8220 O   0  0  0  0  0  0  0  0  0  0  0  0
  182.6360  178.9750  143.4030 C   0  0  0  0  0  0  0  0  0  0  0  0
  182.2840  179.0020  144.7120 F   0  0  0  0  0  0  0  0  0  0  0  0
  181.7400  179.0030  142.5200 O   0  0  0  0  0  0  0  0  0  0  0  0
  1  2  1  0  0  0  0
  1  3  1  0  0  0  0
  2 12  1  0  0  0  0
  3  4  2  0  0  0  0
  5  6  1  0  0  0  0
  7  2  2  0  0  0  0
  7 11  1  0  0  0  0
  8  1  1  0  0  0  0
  9  8  2  0  0  0  0
 10  5  1  0  0  0  0
 11 10  2  0  0  0  0
 12  4  1  0  0  0  0
 12  5  2  0  0  0  0
 13 18  1  0  0  0  0
 13  8  1  0  0  0  0
 14 17  1  0  0  0  0
 15 13  2  0  0  0  0
 16 14  2  0  0  0  0
 16 15  1  0  0  0  0
 17 18  2  0  0  0  0
 19 11  1  0  0  0  0
 20 19  1  0  0  0  0
 21 23  1  0  0  0  0
 21 20  1  0  0  0  0
 22 21  2  0  0  0  0
 23 24  1  0  0  0  0
 25 23  2  0  0  0  0
M  END
>  <MODEL>
9

>  <REMARK>
 VINA RESULT:      -7.6      1.628      2.089
  Name = 
  5 active torsions:
  status: ('A' for Active; 'I' for Inactive)
    1  A    between atoms: C_2  and  C_21
    2  A    between atoms: C_5  and  C_18
    3  A    between atoms: C_6  and  C_15
    4  A    between atoms: C_6  and  C_23
    5  A    between atoms: C_15  and  C_21
                            x       y       z     vdW  Elec       q    Type
                         _______ _______ _______ _____ _____    ______ ____

>  <TORSDO>
F 5

$$$$
