=
 OpenBabel11052416513D

 32 37  0  0  1  0  0  0  0  0999 V2000
  187.5770  177.6260  143.0930 C   0  0  1  0  0  3  0  0  0  0  0  0
  187.9290  177.2110  145.5740 C   0  0  2  0  0  3  0  0  0  0  0  0
  189.3440  177.7730  145.4640 C   0  0  1  0  0  3  0  0  0  0  0  0
  188.3030  177.4000  148.1730 C   0  0  1  0  0  3  0  0  0  0  0  0
  186.6860  178.1960  141.9670 C   0  0  0  0  0  2  0  0  0  0  0  0
  185.6010  179.1690  142.4350 C   0  0  2  0  0  3  0  0  0  0  0  0
  185.7190  177.2810  144.6020 O   0  0  0  0  0  0  0  0  0  0  0  0
  189.8090  177.5160  147.8680 C   0  0  0  0  0  2  0  0  0  0  0  0
  190.2050  177.0570  146.4760 C   0  0  0  0  0  2  0  0  0  0  0  0
  184.5460  178.4530  143.0190 O   0  0  0  0  0  0  0  0  0  0  0  0
  184.8540  178.3600  144.3830 C   0  0  0  0  0  2  0  0  0  0  0  0
  186.9450  178.6880  147.4240 C   0  0  0  0  0  2  0  0  0  0  0  0
  189.0120  178.1760  143.0040 C   0  0  1  0  0  3  0  0  0  0  0  0
  189.9010  177.5250  144.0690 C   0  0  0  0  0  2  0  0  0  0  0  0
  187.8320  178.6800  148.5160 O   0  0  0  0  0  0  0  0  0  0  0  0
  187.0060  177.8280  144.5130 C   0  0  2  0  0  3  0  0  0  0  0  0
  187.3330  177.2940  146.9990 C   0  0  1  0  0  3  0  0  0  0  0  0
  190.5880  176.4530  139.2930 C   0  0  0  0  0  2  0  0  0  0  0  0
  189.6140  178.0100  141.5970 C   0  0  1  0  0  3  0  0  0  0  0  0
  191.9680  178.0820  142.4820 C   0  0  0  0  0  1  0  0  0  0  0  0
  191.5530  177.1950  140.2170 C   0  0  0  0  0  2  0  0  0  0  0  0
  190.9810  177.3060  141.6280 C   0  0  2  0  0  3  0  0  0  0  0  0
  188.6440  177.2870  140.6510 C   0  0  0  0  0  2  0  0  0  0  0  0
  189.2250  177.1440  139.2420 C   0  0  1  0  0  3  0  0  0  0  0  0
  189.3190  178.4900  138.5250 C   0  0  0  0  0  2  0  0  0  0  0  0
  188.9940  178.3570  137.0440 C   0  0  0  0  0  2  0  0  0  0  0  0
  187.5480  178.7310  136.7810 C   0  0  1  0  0  3  0  0  0  0  0  0
  187.0700  178.0490  135.5590 C   0  0  0  0  0  2  0  0  0  0  0  0
  186.7600  177.5650  136.8410 O   0  0  0  0  0  0  0  0  0  0  0  0
  185.1190  179.8870  141.3410 O   0  0  0  0  0  0  0  0  0  0  0  0
  185.1790  178.9920  140.2720 C   0  0  0  0  0  2  0  0  0  0  0  0
  184.8010  179.6450  139.0980 O   0  0  0  0  0  1  0  0  0  0  0  0
  1  5  1  6  0  0  0
  1 16  1  0  0  0  0
  2 17  1  0  0  0  0
  3  2  1  0  0  0  0
  3  9  1  0  0  0  0
  4 15  1  0  0  0  0
  5  6  1  0  0  0  0
  6 10  1  0  0  0  0
  8  4  1  0  0  0  0
  9  8  1  0  0  0  0
 10 11  1  0  0  0  0
 11  7  1  0  0  0  0
 12 15  1  0  0  0  0
 13  1  1  0  0  0  0
 13 14  1  0  0  0  0
 14  3  1  0  0  0  0
 16  7  1  0  0  0  0
 16  2  1  0  0  0  0
 17 12  1  0  0  0  0
 17  4  1  0  0  0  0
 18 21  1  0  0  0  0
 19 22  1  0  0  0  0
 19 13  1  0  0  0  0
 21 22  1  0  0  0  0
 22 20  1  0  0  0  0
 23 19  1  0  0  0  0
 24 18  1  0  0  0  0
 24 23  1  0  0  0  0
 25 24  1  0  0  0  0
 26 25  1  0  0  0  0
 27 29  1  0  0  0  0
 27 26  1  0  0  0  0
 28 27  1  0  0  0  0
 28 29  1  0  0  0  0
 30  6  1  0  0  0  0
 31 30  1  0  0  0  0
 32 31  1  0  0  0  0
M  END
>  <MODEL>
1

>  <REMARK>
 VINA RESULT:      -8.9      0.000      0.000
  Name = 
  6 active torsions:
  status: ('A' for Active; 'I' for Inactive)
    1  A    between atoms: C_1  and  C_10
    2  A    between atoms: C_4  and  O_13
    3  A    between atoms: C_8  and  C_28
    4  A    between atoms: C_10  and  C_19
    5  A    between atoms: O_13  and  C_15
    6  A    between atoms: C_19  and  C_24
                            x       y       z     vdW  Elec       q    Type
                         _______ _______ _______ _____ _____    ______ ____

>  <TORSDO>
F 6

$$$$
=
 OpenBabel11052416513D

 32 37  0  0  1  0  0  0  0  0999 V2000
  188.4590  178.1050  143.3930 C   0  0  1  0  0  3  0  0  0  0  0  0
  190.2390  177.5640  145.1220 C   0  0  2  0  0  3  0  0  0  0  0  0
  189.1950  176.8360  145.9640 C   0  0  1  0  0  3  0  0  0  0  0  0
  191.9900  176.4200  146.7210 C   0  0  1  0  0  3  0  0  0  0  0  0
  188.0280  178.1290  141.9090 C   0  0  0  0  0  2  0  0  0  0  0  0
  188.8790  177.2610  140.9790 C   0  0  2  0  0  3  0  0  0  0  0  0
  190.8180  178.2260  142.8730 O   0  0  0  0  0  0  0  0  0  0  0  0
  190.8180  176.1540  147.6850 C   0  0  0  0  0  2  0  0  0  0  0  0
  189.5800  176.9910  147.4150 C   0  0  0  0  0  2  0  0  0  0  0  0
  190.0990  177.9030  140.7200 O   0  0  0  0  0  0  0  0  0  0  0  0
  190.9840  177.4600  141.7120 C   0  0  0  0  0  2  0  0  0  0  0  0
  192.0100  175.7340  144.8260 C   0  0  0  0  0  2  0  0  0  0  0  0
  187.4210  177.3780  144.2660 C   0  0  1  0  0  3  0  0  0  0  0  0
  187.8200  177.4500  145.7440 C   0  0  0  0  0  2  0  0  0  0  0  0
  192.3170  175.2060  146.0930 O   0  0  0  0  0  0  0  0  0  0  0  0
  189.8710  177.5260  143.6320 C   0  0  2  0  0  3  0  0  0  0  0  0
  191.6900  177.0960  145.3850 C   0  0  1  0  0  3  0  0  0  0  0  0
  183.9510  180.0290  143.8720 C   0  0  0  0  0  2  0  0  0  0  0  0
  185.9940  177.9130  144.0460 C   0  0  1  0  0  3  0  0  0  0  0  0
  185.3880  177.5920  146.4660 C   0  0  0  0  0  1  0  0  0  0  0  0
  183.9950  179.0600  145.0530 C   0  0  0  0  0  2  0  0  0  0  0  0
  185.4200  178.5750  145.3090 C   0  0  2  0  0  3  0  0  0  0  0  0
  185.9320  178.8700  142.8450 C   0  0  0  0  0  2  0  0  0  0  0  0
  184.5110  179.3850  142.6030 C   0  0  1  0  0  3  0  0  0  0  0  0
  183.5840  178.2820  142.0940 C   0  0  0  0  0  2  0  0  0  0  0  0
  183.1520  178.5350  140.6570 C   0  0  0  0  0  2  0  0  0  0  0  0
  184.3620  178.6740  139.7530 C   0  0  1  0  0  3  0  0  0  0  0  0
  183.9230  178.8740  138.3560 C   0  0  0  0  0  2  0  0  0  0  0  0
  184.3410  179.9490  139.1580 O   0  0  0  0  0  0  0  0  0  0  0  0
  188.1980  177.0650  139.7780 O   0  0  0  0  0  0  0  0  0  0  0  0
  188.6210  178.1080  138.9540 C   0  0  0  0  0  2  0  0  0  0  0  0
  187.5400  178.5750  138.2050 O   0  0  0  0  0  1  0  0  0  0  0  0
  1  5  1  6  0  0  0
  1 16  1  0  0  0  0
  1 13  1  0  0  0  0
  2 17  1  0  0  0  0
  2  3  1  0  0  0  0
  3  9  1  0  0  0  0
  4  8  1  0  0  0  0
  6  5  1  0  0  0  0
  7 16  1  0  0  0  0
  9  8  1  0  0  0  0
 10  6  1  0  0  0  0
 10 11  1  0  0  0  0
 11  7  1  0  0  0  0
 12 17  1  0  0  0  0
 12 15  1  0  0  0  0
 13 14  1  0  0  0  0
 14  3  1  0  0  0  0
 15  4  1  0  0  0  0
 16  2  1  0  0  0  0
 17  4  1  0  0  0  0
 18 21  1  0  0  0  0
 19 13  1  0  0  0  0
 19 22  1  0  0  0  0
 21 22  1  0  0  0  0
 22 20  1  0  0  0  0
 23 19  1  0  0  0  0
 24 23  1  0  0  0  0
 24 18  1  0  0  0  0
 25 24  1  0  0  0  0
 26 25  1  0  0  0  0
 27 26  1  0  0  0  0
 28 29  1  0  0  0  0
 28 27  1  0  0  0  0
 29 27  1  0  0  0  0
 30  6  1  0  0  0  0
 31 30  1  0  0  0  0
 32 31  1  0  0  0  0
M  END
>  <MODEL>
2

>  <REMARK>
 VINA RESULT:      -8.8      2.254      5.035
  Name = 
  6 active torsions:
  status: ('A' for Active; 'I' for Inactive)
    1  A    between atoms: C_1  and  C_10
    2  A    between atoms: C_4  and  O_13
    3  A    between atoms: C_8  and  C_28
    4  A    between atoms: C_10  and  C_19
    5  A    between atoms: O_13  and  C_15
    6  A    between atoms: C_19  and  C_24
                            x       y       z     vdW  Elec       q    Type
                         _______ _______ _______ _____ _____    ______ ____

>  <TORSDO>
F 6

$$$$
=
 OpenBabel11052416513D

 32 37  0  0  1  0  0  0  0  0999 V2000
  184.6680  179.0290  140.4790 C   0  0  1  0  0  3  0  0  0  0  0  0
  185.1600  179.1280  142.9680 C   0  0  2  0  0  3  0  0  0  0  0  0
  183.8310  178.4330  143.2540 C   0  0  1  0  0  3  0  0  0  0  0  0
  185.7080  178.6130  145.4910 C   0  0  1  0  0  3  0  0  0  0  0  0
  185.1560  178.6860  139.0530 C   0  0  0  0  0  2  0  0  0  0  0  0
  186.3940  177.7890  138.9950 C   0  0  2  0  0  3  0  0  0  0  0  0
  186.9040  179.4030  141.3220 O   0  0  0  0  0  0  0  0  0  0  0  0
  184.1990  178.3710  145.6880 C   0  0  0  0  0  2  0  0  0  0  0  0
  183.3230  178.9360  144.5840 C   0  0  0  0  0  2  0  0  0  0  0  0
  187.5380  178.5450  139.2920 O   0  0  0  0  0  0  0  0  0  0  0  0
  187.7090  178.4520  140.6800 C   0  0  0  0  0  2  0  0  0  0  0  0
  186.8070  177.5690  144.1640 C   0  0  0  0  0  2  0  0  0  0  0  0
  183.3280  178.3420  140.7930 C   0  0  1  0  0  3  0  0  0  0  0  0
  182.8160  178.7720  142.1720 C   0  0  0  0  0  2  0  0  0  0  0  0
  186.3480  177.3610  145.4760 O   0  0  0  0  0  0  0  0  0  0  0  0
  185.7030  178.7340  141.5870 C   0  0  2  0  0  3  0  0  0  0  0  0
  186.2110  178.9510  144.0900 C   0  0  1  0  0  3  0  0  0  0  0  0
  179.5270  178.6960  138.6360 C   0  0  0  0  0  2  0  0  0  0  0  0
  182.2710  178.5970  139.7010 C   0  0  1  0  0  3  0  0  0  0  0  0
  182.4860  176.2580  138.8020 C   0  0  0  0  0  1  0  0  0  0  0  0
  180.5100  177.6090  138.2030 C   0  0  0  0  0  2  0  0  0  0  0  0
  181.5200  177.3150  139.3080 C   0  0  2  0  0  3  0  0  0  0  0  0
  181.2910  179.7050  140.1150 C   0  0  0  0  0  2  0  0  0  0  0  0
  180.2550  179.9830  139.0220 C   0  0  1  0  0  3  0  0  0  0  0  0
  180.8830  180.6470  137.7980 C   0  0  0  0  0  2  0  0  0  0  0  0
  181.4450  182.0210  138.1340 C   0  0  0  0  0  2  0  0  0  0  0  0
  180.5530  183.1120  137.5730 C   0  0  1  0  0  3  0  0  0  0  0  0
  181.3710  184.2890  137.2090 C   0  0  0  0  0  2  0  0  0  0  0  0
  180.9320  183.3690  136.2420 O   0  0  0  0  0  0  0  0  0  0  0  0
  186.5180  177.2520  137.7140 O   0  0  0  0  0  0  0  0  0  0  0  0
  186.9430  178.3180  136.9200 C   0  0  0  0  0  2  0  0  0  0  0  0
  186.7840  177.9850  135.5740 O   0  0  0  0  0  1  0  0  0  0  0  0
  1  5  1  6  0  0  0
  1 13  1  0  0  0  0
  1 16  1  0  0  0  0
  2  3  1  0  0  0  0
  2 17  1  0  0  0  0
  3  9  1  0  0  0  0
  4  8  1  0  0  0  0
  6  5  1  0  0  0  0
  6 10  1  0  0  0  0
  7 16  1  0  0  0  0
  9  8  1  0  0  0  0
 10 11  1  0  0  0  0
 11  7  1  0  0  0  0
 12 15  1  0  0  0  0
 13 14  1  0  0  0  0
 14  3  1  0  0  0  0
 15  4  1  0  0  0  0
 16  2  1  0  0  0  0
 17 12  1  0  0  0  0
 17  4  1  0  0  0  0
 18 24  1  0  0  0  0
 19 23  1  0  0  0  0
 19 13  1  0  0  0  0
 20 22  1  0  0  0  0
 21 18  1  0  0  0  0
 21 22  1  0  0  0  0
 22 19  1  0  0  0  0
 24 23  1  0  0  0  0
 25 26  1  0  0  0  0
 25 24  1  0  0  0  0
 27 26  1  0  0  0  0
 28 27  1  0  0  0  0
 29 28  1  0  0  0  0
 29 27  1  0  0  0  0
 30  6  1  0  0  0  0
 31 30  1  0  0  0  0
 32 31  1  0  0  0  0
M  END
>  <MODEL>
3

>  <REMARK>
 VINA RESULT:      -8.7      3.477      6.808
  Name = 
  6 active torsions:
  status: ('A' for Active; 'I' for Inactive)
    1  A    between atoms: C_1  and  C_10
    2  A    between atoms: C_4  and  O_13
    3  A    between atoms: C_8  and  C_28
    4  A    between atoms: C_10  and  C_19
    5  A    between atoms: O_13  and  C_15
    6  A    between atoms: C_19  and  C_24
                            x       y       z     vdW  Elec       q    Type
                         _______ _______ _______ _____ _____    ______ ____

>  <TORSDO>
F 6

$$$$
=
 OpenBabel11052416513D

 32 37  0  0  1  0  0  0  0  0999 V2000
  188.4420  178.1150  142.2710 C   0  0  1  0  0  3  0  0  0  0  0  0
  189.2820  178.0530  139.8750 C   0  0  2  0  0  3  0  0  0  0  0  0
  190.0790  176.7890  140.1920 C   0  0  1  0  0  3  0  0  0  0  0  0
  189.8040  177.4740  137.3610 C   0  0  1  0  0  3  0  0  0  0  0  0
  187.2510  178.2550  143.2460 C   0  0  0  0  0  2  0  0  0  0  0  0
  185.8740  178.0500  142.6120 C   0  0  2  0  0  3  0  0  0  0  0  0
  187.3420  179.3450  140.5030 O   0  0  0  0  0  0  0  0  0  0  0  0
  190.9080  176.5380  137.8870 C   0  0  0  0  0  2  0  0  0  0  0  0
  191.3160  176.7950  139.3270 C   0  0  0  0  0  2  0  0  0  0  0  0
  185.5160  179.1930  141.8820 O   0  0  0  0  0  0  0  0  0  0  0  0
  185.9910  178.9820  140.5800 C   0  0  0  0  0  2  0  0  0  0  0  0
  187.8690  177.2680  137.8850 C   0  0  0  0  0  2  0  0  0  0  0  0
  189.2650  176.8500  142.5700 C   0  0  1  0  0  3  0  0  0  0  0  0
  190.4930  176.7820  141.6560 C   0  0  0  0  0  2  0  0  0  0  0  0
  188.7260  176.6760  136.9400 O   0  0  0  0  0  0  0  0  0  0  0  0
  188.0460  178.1660  140.7800 C   0  0  2  0  0  3  0  0  0  0  0  0
  188.9360  178.2130  138.3760 C   0  0  1  0  0  3  0  0  0  0  0  0
  191.2450  177.4840  146.4300 C   0  0  0  0  0  2  0  0  0  0  0  0
  189.6660  176.7510  144.0540 C   0  0  1  0  0  3  0  0  0  0  0  0
  191.3060  174.9000  143.5930 C   0  0  0  0  0  1  0  0  0  0  0  0
  191.4540  176.1490  145.7170 C   0  0  0  0  0  2  0  0  0  0  0  0
  191.1130  176.2630  144.2330 C   0  0  2  0  0  3  0  0  0  0  0  0
  189.4380  178.0800  144.7880 C   0  0  0  0  0  2  0  0  0  0  0  0
  189.8080  177.9810  146.2700 C   0  0  1  0  0  3  0  0  0  0  0  0
  188.8320  177.0960  147.0430 C   0  0  0  0  0  2  0  0  0  0  0  0
  187.6640  177.9010  147.5920 C   0  0  0  0  0  2  0  0  0  0  0  0
  186.4980  177.8770  146.6220 C   0  0  1  0  0  3  0  0  0  0  0  0
  185.2860  178.4070  147.2820 C   0  0  0  0  0  2  0  0  0  0  0  0
  186.0560  179.1960  146.4110 O   0  0  0  0  0  0  0  0  0  0  0  0
  184.9300  177.8310  143.6150 O   0  0  0  0  0  0  0  0  0  0  0  0
  184.0830  178.9370  143.5560 C   0  0  0  0  0  2  0  0  0  0  0  0
  183.0960  178.8190  144.5350 O   0  0  0  0  0  1  0  0  0  0  0  0
  1 13  1  0  0  0  0
  1  5  1  1  0  0  0
  2  3  1  0  0  0  0
  2 16  1  0  0  0  0
  3 14  1  0  0  0  0
  4  8  1  0  0  0  0
  4 17  1  0  0  0  0
  6  5  1  0  0  0  0
  6 30  1  0  0  0  0
  7 11  1  0  0  0  0
  7 16  1  0  0  0  0
  8  9  1  0  0  0  0
  9  3  1  0  0  0  0
 10  6  1  0  0  0  0
 11 10  1  0  0  0  0
 12 17  1  0  0  0  0
 13 19  1  0  0  0  0
 14 13  1  0  0  0  0
 15  4  1  0  0  0  0
 15 12  1  0  0  0  0
 16  1  1  0  0  0  0
 17  2  1  0  0  0  0
 19 22  1  0  0  0  0
 19 23  1  0  0  0  0
 20 22  1  0  0  0  0
 21 18  1  0  0  0  0
 22 21  1  0  0  0  0
 23 24  1  0  0  0  0
 24 18  1  0  0  0  0
 24 25  1  0  0  0  0
 25 26  1  0  0  0  0
 27 28  1  0  0  0  0
 27 26  1  0  0  0  0
 29 27  1  0  0  0  0
 29 28  1  0  0  0  0
 31 30  1  0  0  0  0
 31 32  1  0  0  0  0
M  END
>  <MODEL>
4

>  <REMARK>
 VINA RESULT:      -8.4      1.454      6.792
  Name = 
  6 active torsions:
  status: ('A' for Active; 'I' for Inactive)
    1  A    between atoms: C_1  and  C_10
    2  A    between atoms: C_4  and  O_13
    3  A    between atoms: C_8  and  C_28
    4  A    between atoms: C_10  and  C_19
    5  A    between atoms: O_13  and  C_15
    6  A    between atoms: C_19  and  C_24
                            x       y       z     vdW  Elec       q    Type
                         _______ _______ _______ _____ _____    ______ ____

>  <TORSDO>
F 6

$$$$
=
 OpenBabel11052416513D

 32 37  0  0  1  0  0  0  0  0999 V2000
  185.3740  178.0360  142.5270 C   0  0  1  0  0  3  0  0  0  0  0  0
  182.8470  178.2090  142.3430 C   0  0  2  0  0  3  0  0  0  0  0  0
  182.8100  178.9970  143.6500 C   0  0  1  0  0  3  0  0  0  0  0  0
  180.3490  178.9930  142.0680 C   0  0  1  0  0  3  0  0  0  0  0  0
  186.7560  178.1830  141.8520 C   0  0  0  0  0  2  0  0  0  0  0  0
  186.7580  179.0040  140.5610 C   0  0  2  0  0  3  0  0  0  0  0  0
  184.2200  177.6550  140.4360 O   0  0  0  0  0  0  0  0  0  0  0  0
  180.3720  179.3300  143.5710 C   0  0  0  0  0  2  0  0  0  0  0  0
  181.5070  178.6810  144.3430 C   0  0  0  0  0  2  0  0  0  0  0  0
  186.2370  178.2340  139.5110 O   0  0  0  0  0  0  0  0  0  0  0  0
  184.8570  178.4820  139.5020 C   0  0  0  0  0  2  0  0  0  0  0  0
  181.6360  179.8160  140.7540 C   0  0  0  0  0  2  0  0  0  0  0  0
  185.3100  178.8200  143.8490 C   0  0  1  0  0  3  0  0  0  0  0  0
  183.9670  178.5820  144.5480 C   0  0  0  0  0  2  0  0  0  0  0  0
  180.4230  180.2010  141.3530 O   0  0  0  0  0  0  0  0  0  0  0  0
  184.1840  178.4090  141.6160 C   0  0  2  0  0  3  0  0  0  0  0  0
  181.6290  178.4660  141.4250 C   0  0  1  0  0  3  0  0  0  0  0  0
  188.0390  176.7530  146.5890 C   0  0  0  0  0  2  0  0  0  0  0  0
  186.4900  178.4890  144.7820 C   0  0  1  0  0  3  0  0  0  0  0  0
  185.3070  179.4420  146.7870 C   0  0  0  0  0  1  0  0  0  0  0  0
  187.2390  177.9420  147.1190 C   0  0  0  0  0  2  0  0  0  0  0  0
  186.0350  178.2320  146.2270 C   0  0  2  0  0  3  0  0  0  0  0  0
  187.3170  177.3100  144.2470 C   0  0  0  0  0  2  0  0  0  0  0  0
  188.5080  176.9940  145.1540 C   0  0  1  0  0  3  0  0  0  0  0  0
  189.5710  178.0910  145.1020 C   0  0  0  0  0  2  0  0  0  0  0  0
  190.8070  177.6340  144.3400 C   0  0  0  0  0  2  0  0  0  0  0  0
  190.6290  177.8630  142.8510 C   0  0  1  0  0  3  0  0  0  0  0  0
  191.7100  177.1810  142.1080 C   0  0  0  0  0  2  0  0  0  0  0  0
  190.4270  176.6200  142.2220 O   0  0  0  0  0  0  0  0  0  0  0  0
  188.0650  179.3780  140.2520 O   0  0  0  0  0  0  0  0  0  0  0  0
  188.6330  178.2450  139.6690 C   0  0  0  0  0  2  0  0  0  0  0  0
  189.4290  178.6270  138.5890 O   0  0  0  0  0  1  0  0  0  0  0  0
  1  5  1  6  0  0  0
  1 13  1  0  0  0  0
  2  3  1  0  0  0  0
  3  9  1  0  0  0  0
  3 14  1  0  0  0  0
  4  8  1  0  0  0  0
  6  5  1  0  0  0  0
  7 16  1  0  0  0  0
  8  9  1  0  0  0  0
 10  6  1  0  0  0  0
 11 10  1  0  0  0  0
 11  7  1  0  0  0  0
 12 15  1  0  0  0  0
 12 17  1  0  0  0  0
 13 14  1  0  0  0  0
 13 19  1  0  0  0  0
 15  4  1  0  0  0  0
 16  2  1  0  0  0  0
 16  1  1  0  0  0  0
 17  4  1  0  0  0  0
 17  2  1  0  0  0  0
 18 21  1  0  0  0  0
 19 22  1  0  0  0  0
 22 20  1  0  0  0  0
 22 21  1  0  0  0  0
 23 19  1  0  0  0  0
 23 24  1  0  0  0  0
 24 18  1  0  0  0  0
 25 24  1  0  0  0  0
 26 25  1  0  0  0  0
 27 26  1  0  0  0  0
 28 29  1  0  0  0  0
 28 27  1  0  0  0  0
 29 27  1  0  0  0  0
 30  6  1  0  0  0  0
 31 30  1  0  0  0  0
 32 31  1  0  0  0  0
M  END
>  <MODEL>
5

>  <REMARK>
 VINA RESULT:      -7.8      2.542      6.557
  Name = 
  6 active torsions:
  status: ('A' for Active; 'I' for Inactive)
    1  A    between atoms: C_1  and  C_10
    2  A    between atoms: C_4  and  O_13
    3  A    between atoms: C_8  and  C_28
    4  A    between atoms: C_10  and  C_19
    5  A    between atoms: O_13  and  C_15
    6  A    between atoms: C_19  and  C_24
                            x       y       z     vdW  Elec       q    Type
                         _______ _______ _______ _____ _____    ______ ____

>  <TORSDO>
F 6

$$$$
=
 OpenBabel11052416513D

 32 37  0  0  1  0  0  0  0  0999 V2000
  187.4830  178.4440  141.3160 C   0  0  1  0  0  3  0  0  0  0  0  0
  187.2820  178.2660  138.7900 C   0  0  2  0  0  3  0  0  0  0  0  0
  188.3080  177.1340  138.7930 C   0  0  1  0  0  3  0  0  0  0  0  0
  186.8190  177.5300  136.3050 C   0  0  1  0  0  3  0  0  0  0  0  0
  186.7800  178.5330  142.6890 C   0  0  0  0  0  2  0  0  0  0  0  0
  185.3080  178.1180  142.6870 C   0  0  2  0  0  3  0  0  0  0  0  0
  185.6010  179.3800  140.1180 O   0  0  0  0  0  0  0  0  0  0  0  0
  188.1610  176.7760  136.3610 C   0  0  0  0  0  2  0  0  0  0  0  0
  189.0760  177.2040  137.4950 C   0  0  0  0  0  2  0  0  0  0  0  0
  184.5300  179.1440  142.1310 O   0  0  0  0  0  0  0  0  0  0  0  0
  184.4630  178.8730  140.7580 C   0  0  0  0  0  2  0  0  0  0  0  0
  185.3110  177.1530  137.5880 C   0  0  0  0  0  2  0  0  0  0  0  0
  188.5240  177.3120  141.2910 C   0  0  1  0  0  3  0  0  0  0  0  0
  189.2750  177.3040  139.9560 C   0  0  0  0  0  2  0  0  0  0  0  0
  185.7860  176.5810  136.3940 O   0  0  0  0  0  0  0  0  0  0  0  0
  186.5150  178.3180  140.1190 C   0  0  2  0  0  3  0  0  0  0  0  0
  186.3410  178.2520  137.5630 C   0  0  1  0  0  3  0  0  0  0  0  0
  191.2250  178.7990  144.4080 C   0  0  0  0  0  2  0  0  0  0  0  0
  189.5010  177.3910  142.4800 C   0  0  1  0  0  3  0  0  0  0  0  0
  191.5030  177.0760  140.9900 C   0  0  0  0  0  1  0  0  0  0  0  0
  191.8170  177.9710  143.2680 C   0  0  0  0  0  2  0  0  0  0  0  0
  190.8750  177.9420  142.0680 C   0  0  2  0  0  3  0  0  0  0  0  0
  188.9080  178.2010  143.6420 C   0  0  0  0  0  2  0  0  0  0  0  0
  189.8610  178.2600  144.8380 C   0  0  1  0  0  3  0  0  0  0  0  0
  190.0000  176.9020  145.5240 C   0  0  0  0  0  2  0  0  0  0  0  0
  189.9080  177.0290  147.0380 C   0  0  0  0  0  2  0  0  0  0  0  0
  188.7460  177.9240  147.4270 C   0  0  1  0  0  3  0  0  0  0  0  0
  187.9330  177.2630  148.4700 C   0  0  0  0  0  2  0  0  0  0  0  0
  188.8690  178.2610  148.7880 O   0  0  0  0  0  0  0  0  0  0  0  0
  184.8910  177.8820  143.9970 O   0  0  0  0  0  0  0  0  0  0  0  0
  184.1080  178.9890  144.3270 C   0  0  0  0  0  2  0  0  0  0  0  0
  183.8900  179.0080  145.7050 O   0  0  0  0  0  1  0  0  0  0  0  0
  1  5  1  1  0  0  0
  2  3  1  0  0  0  0
  2 16  1  0  0  0  0
  3 14  1  0  0  0  0
  4  8  1  0  0  0  0
  4 15  1  0  0  0  0
  4 17  1  0  0  0  0
  6  5  1  0  0  0  0
  6 30  1  0  0  0  0
  7 16  1  0  0  0  0
  7 11  1  0  0  0  0
  8  9  1  0  0  0  0
  9  3  1  0  0  0  0
 10  6  1  0  0  0  0
 11 10  1  0  0  0  0
 13  1  1  0  0  0  0
 13 19  1  0  0  0  0
 14 13  1  0  0  0  0
 15 12  1  0  0  0  0
 16  1  1  0  0  0  0
 17 12  1  0  0  0  0
 17  2  1  0  0  0  0
 18 24  1  0  0  0  0
 19 23  1  0  0  0  0
 20 22  1  0  0  0  0
 21 18  1  0  0  0  0
 22 19  1  0  0  0  0
 22 21  1  0  0  0  0
 23 24  1  0  0  0  0
 24 25  1  0  0  0  0
 25 26  1  0  0  0  0
 26 27  1  0  0  0  0
 27 28  1  0  0  0  0
 27 29  1  0  0  0  0
 28 29  1  0  0  0  0
 30 31  1  0  0  0  0
 31 32  1  0  0  0  0
M  END
>  <MODEL>
6

>  <REMARK>
 VINA RESULT:      -7.7      1.315      7.154
  Name = 
  6 active torsions:
  status: ('A' for Active; 'I' for Inactive)
    1  A    between atoms: C_1  and  C_10
    2  A    between atoms: C_4  and  O_13
    3  A    between atoms: C_8  and  C_28
    4  A    between atoms: C_10  and  C_19
    5  A    between atoms: O_13  and  C_15
    6  A    between atoms: C_19  and  C_24
                            x       y       z     vdW  Elec       q    Type
                         _______ _______ _______ _____ _____    ______ ____

>  <TORSDO>
F 6

$$$$
=
 OpenBabel11052416513D

 32 37  0  0  1  0  0  0  0  0999 V2000
  186.4490  177.7670  142.5680 C   0  0  1  0  0  3  0  0  0  0  0  0
  188.7430  176.9990  143.3410 C   0  0  2  0  0  3  0  0  0  0  0  0
  189.3850  177.7780  142.1950 C   0  0  1  0  0  3  0  0  0  0  0  0
  191.1960  176.8050  144.2770 C   0  0  1  0  0  3  0  0  0  0  0  0
  185.0750  178.3770  142.9260 C   0  0  0  0  0  2  0  0  0  0  0  0
  185.0180  179.0820  144.2830 C   0  0  2  0  0  3  0  0  0  0  0  0
  186.8190  176.8970  144.7950 O   0  0  0  0  0  0  0  0  0  0  0  0
  191.6810  177.1960  142.8680 C   0  0  0  0  0  2  0  0  0  0  0  0
  190.6350  177.0410  141.7780 C   0  0  0  0  0  2  0  0  0  0  0  0
  184.9540  178.1280  145.3080 O   0  0  0  0  0  0  0  0  0  0  0  0
  186.2820  177.8560  145.6640 C   0  0  0  0  0  2  0  0  0  0  0  0
  189.9730  177.9800  145.3650 C   0  0  0  0  0  2  0  0  0  0  0  0
  187.1180  178.5330  141.4130 C   0  0  1  0  0  3  0  0  0  0  0  0
  188.4320  177.8550  141.0110 C   0  0  0  0  0  2  0  0  0  0  0  0
  191.3550  177.9230  145.1140 O   0  0  0  0  0  0  0  0  0  0  0  0
  187.4140  177.6400  143.7670 C   0  0  2  0  0  3  0  0  0  0  0  0
  189.6930  176.7530  144.5370 C   0  0  1  0  0  3  0  0  0  0  0  0
  184.3600  177.7200  138.1030 C   0  0  0  0  0  2  0  0  0  0  0  0
  186.1810  178.6980  140.2020 C   0  0  1  0  0  3  0  0  0  0  0  0
  188.0870  178.5080  138.5710 C   0  0  0  0  0  1  0  0  0  0  0  0
  185.7730  178.1990  137.7710 C   0  0  0  0  0  2  0  0  0  0  0  0
  186.7150  177.9800  138.9520 C   0  0  2  0  0  3  0  0  0  0  0  0
  184.7510  178.2430  140.5300 C   0  0  0  0  0  2  0  0  0  0  0  0
  183.8080  178.4300  139.3390 C   0  0  1  0  0  3  0  0  0  0  0  0
  183.5420  179.9070  139.0500 C   0  0  0  0  0  2  0  0  0  0  0  0
  182.0770  180.1560  138.7250 C   0  0  0  0  0  2  0  0  0  0  0  0
  181.8550  181.6080  138.3470 C   0  0  1  0  0  3  0  0  0  0  0  0
  180.8100  181.7000  137.3050 C   0  0  0  0  0  2  0  0  0  0  0  0
  180.5280  181.9610  138.6560 O   0  0  0  0  0  0  0  0  0  0  0  0
  183.8840  179.8930  144.3360 O   0  0  0  0  0  0  0  0  0  0  0  0
  182.8100  179.0030  144.3540 C   0  0  0  0  0  2  0  0  0  0  0  0
  181.8650  179.3980  143.4070 O   0  0  0  0  0  1  0  0  0  0  0  0
  1  5  1  1  0  0  0
  1 16  1  0  0  0  0
  2 16  1  0  0  0  0
  2 17  1  0  0  0  0
  3  2  1  0  0  0  0
  4 17  1  0  0  0  0
  4 15  1  0  0  0  0
  5  6  1  0  0  0  0
  6 30  1  0  0  0  0
  6 10  1  0  0  0  0
  7 11  1  0  0  0  0
  8  4  1  0  0  0  0
  9  3  1  0  0  0  0
  9  8  1  0  0  0  0
 10 11  1  0  0  0  0
 13  1  1  0  0  0  0
 14 13  1  0  0  0  0
 14  3  1  0  0  0  0
 15 12  1  0  0  0  0
 16  7  1  0  0  0  0
 17 12  1  0  0  0  0
 18 24  1  0  0  0  0
 19 23  1  0  0  0  0
 19 13  1  0  0  0  0
 20 22  1  0  0  0  0
 21 18  1  0  0  0  0
 21 22  1  0  0  0  0
 22 19  1  0  0  0  0
 24 23  1  0  0  0  0
 25 24  1  0  0  0  0
 26 25  1  0  0  0  0
 27 29  1  0  0  0  0
 27 26  1  0  0  0  0
 28 27  1  0  0  0  0
 28 29  1  0  0  0  0
 30 31  1  0  0  0  0
 32 31  1  0  0  0  0
M  END
>  <MODEL>
7

>  <REMARK>
 VINA RESULT:      -7.5      2.413      4.642
  Name = 
  6 active torsions:
  status: ('A' for Active; 'I' for Inactive)
    1  A    between atoms: C_1  and  C_10
    2  A    between atoms: C_4  and  O_13
    3  A    between atoms: C_8  and  C_28
    4  A    between atoms: C_10  and  C_19
    5  A    between atoms: O_13  and  C_15
    6  A    between atoms: C_19  and  C_24
                            x       y       z     vdW  Elec       q    Type
                         _______ _______ _______ _____ _____    ______ ____

>  <TORSDO>
F 6

$$$$
=
 OpenBabel11052416513D

 32 37  0  0  1  0  0  0  0  0999 V2000
  188.7250  177.0150  143.0050 C   0  0  1  0  0  3  0  0  0  0  0  0
  189.4460  176.5980  140.6060 C   0  0  2  0  0  3  0  0  0  0  0  0
  188.6520  177.8230  140.1590 C   0  0  1  0  0  3  0  0  0  0  0  0
  190.5090  176.6940  138.2000 C   0  0  1  0  0  3  0  0  0  0  0  0
  189.1180  177.1460  144.4940 C   0  0  0  0  0  2  0  0  0  0  0  0
  190.6120  177.3570  144.7490 C   0  0  2  0  0  3  0  0  0  0  0  0
  190.6140  175.6020  142.4700 O   0  0  0  0  0  0  0  0  0  0  0  0
  189.3340  177.6080  137.8030 C   0  0  0  0  0  2  0  0  0  0  0  0
  188.1540  177.5650  138.7580 C   0  0  0  0  0  2  0  0  0  0  0  0
  191.2940  176.1420  144.5920 O   0  0  0  0  0  0  0  0  0  0  0  0
  191.6750  176.0880  143.2440 C   0  0  0  0  0  2  0  0  0  0  0  0
  191.7780  177.1520  139.6970 C   0  0  0  0  0  2  0  0  0  0  0  0
  187.9220  178.2370  142.5290 C   0  0  1  0  0  3  0  0  0  0  0  0
  187.4610  178.0430  141.0800 C   0  0  0  0  0  2  0  0  0  0  0  0
  191.6530  177.4990  138.3390 O   0  0  0  0  0  0  0  0  0  0  0  0
  189.9170  176.7460  142.0600 C   0  0  2  0  0  3  0  0  0  0  0  0
  190.5970  176.2160  139.6470 C   0  0  1  0  0  3  0  0  0  0  0  0
  184.1510  177.9700  144.7500 C   0  0  0  0  0  2  0  0  0  0  0  0
  186.7320  178.5520  143.4560 C   0  0  1  0  0  3  0  0  0  0  0  0
  185.4910  179.7530  141.6270 C   0  0  0  0  0  1  0  0  0  0  0  0
  184.2660  179.0100  143.6360 C   0  0  0  0  0  2  0  0  0  0  0  0
  185.4080  178.6650  142.6840 C   0  0  2  0  0  3  0  0  0  0  0  0
  186.6200  177.5270  144.5940 C   0  0  0  0  0  2  0  0  0  0  0  0
  185.4570  177.8490  145.5360 C   0  0  1  0  0  3  0  0  0  0  0  0
  185.7220  179.1100  146.3570 C   0  0  0  0  0  2  0  0  0  0  0  0
  186.3250  178.7750  147.7140 C   0  0  0  0  0  2  0  0  0  0  0  0
  187.7850  178.3930  147.5670 C   0  0  1  0  0  3  0  0  0  0  0  0
  188.3000  177.8820  148.8560 C   0  0  0  0  0  2  0  0  0  0  0  0
  187.9210  177.0140  147.8180 O   0  0  0  0  0  0  0  0  0  0  0  0
  190.7980  177.8240  146.0500 O   0  0  0  0  0  0  0  0  0  0  0  0
  191.2160  176.7070  146.7740 C   0  0  0  0  0  2  0  0  0  0  0  0
  191.7700  177.1200  147.9860 O   0  0  0  0  0  1  0  0  0  0  0  0
  1  5  1  1  0  0  0
  2 16  1  0  0  0  0
  3  2  1  0  0  0  0
  3 14  1  0  0  0  0
  4 15  1  0  0  0  0
  4 17  1  0  0  0  0
  5  6  1  0  0  0  0
  6 30  1  0  0  0  0
  7 11  1  0  0  0  0
  8  4  1  0  0  0  0
  8  9  1  0  0  0  0
  9  3  1  0  0  0  0
 10  6  1  0  0  0  0
 11 10  1  0  0  0  0
 13  1  1  0  0  0  0
 13 19  1  0  0  0  0
 14 13  1  0  0  0  0
 15 12  1  0  0  0  0
 16  7  1  0  0  0  0
 16  1  1  0  0  0  0
 17 12  1  0  0  0  0
 17  2  1  0  0  0  0
 18 24  1  0  0  0  0
 19 23  1  0  0  0  0
 20 22  1  0  0  0  0
 21 18  1  0  0  0  0
 22 19  1  0  0  0  0
 22 21  1  0  0  0  0
 23 24  1  0  0  0  0
 24 25  1  0  0  0  0
 25 26  1  0  0  0  0
 27 26  1  0  0  0  0
 27 29  1  0  0  0  0
 27 28  1  0  0  0  0
 29 28  1  0  0  0  0
 30 31  1  0  0  0  0
 31 32  1  0  0  0  0
M  END
>  <MODEL>
8

>  <REMARK>
 VINA RESULT:      -7.4      2.694      7.930
  Name = 
  6 active torsions:
  status: ('A' for Active; 'I' for Inactive)
    1  A    between atoms: C_1  and  C_10
    2  A    between atoms: C_4  and  O_13
    3  A    between atoms: C_8  and  C_28
    4  A    between atoms: C_10  and  C_19
    5  A    between atoms: O_13  and  C_15
    6  A    between atoms: C_19  and  C_24
                            x       y       z     vdW  Elec       q    Type
                         _______ _______ _______ _____ _____    ______ ____

>  <TORSDO>
F 6

$$$$
=
 OpenBabel11052416513D

 32 37  0  0  1  0  0  0  0  0999 V2000
  189.0980  177.0560  140.7200 C   0  0  1  0  0  3  0  0  0  0  0  0
  188.3190  176.8570  138.3110 C   0  0  2  0  0  3  0  0  0  0  0  0
  187.2400  177.9030  138.5780 C   0  0  1  0  0  3  0  0  0  0  0  0
  187.7290  177.2320  135.7730 C   0  0  1  0  0  3  0  0  0  0  0  0
  190.2680  177.2270  141.7150 C   0  0  0  0  0  2  0  0  0  0  0  0
  191.5710  177.7360  141.0960 C   0  0  2  0  0  3  0  0  0  0  0  0
  190.4960  176.0770  139.0050 O   0  0  0  0  0  0  0  0  0  0  0  0
  186.4240  177.8930  136.2550 C   0  0  0  0  0  2  0  0  0  0  0  0
  186.0570  177.5830  137.6950 C   0  0  0  0  0  2  0  0  0  0  0  0
  192.2040  176.6920  140.4060 O   0  0  0  0  0  0  0  0  0  0  0  0
  191.7200  176.7520  139.0920 C   0  0  0  0  0  2  0  0  0  0  0  0
  189.5490  177.9030  136.3190 C   0  0  0  0  0  2  0  0  0  0  0  0
  187.9940  178.0980  140.9680 C   0  0  1  0  0  3  0  0  0  0  0  0
  186.8040  177.8500  140.0350 C   0  0  0  0  0  2  0  0  0  0  0  0
  188.5970  178.2510  135.3440 O   0  0  0  0  0  0  0  0  0  0  0  0
  189.5270  177.0620  139.2360 C   0  0  2  0  0  3  0  0  0  0  0  0
  188.7250  176.7460  136.8220 C   0  0  1  0  0  3  0  0  0  0  0  0
  186.1030  177.1340  144.8050 C   0  0  0  0  0  2  0  0  0  0  0  0
  187.5490  178.1370  142.4420 C   0  0  1  0  0  3  0  0  0  0  0  0
  185.5750  179.6040  141.9160 C   0  0  0  0  0  1  0  0  0  0  0  0
  185.6400  178.3860  144.0610 C   0  0  0  0  0  2  0  0  0  0  0  0
  186.0290  178.3200  142.5860 C   0  0  2  0  0  3  0  0  0  0  0  0
  188.0290  176.8940  143.2080 C   0  0  0  0  0  2  0  0  0  0  0  0
  187.6140  176.9390  144.6810 C   0  0  1  0  0  3  0  0  0  0  0  0
  188.3710  178.0190  145.4530 C   0  0  0  0  0  2  0  0  0  0  0  0
  189.4260  177.4140  146.3670 C   0  0  0  0  0  2  0  0  0  0  0  0
  188.8350  177.1030  147.7290 C   0  0  1  0  0  3  0  0  0  0  0  0
  189.0370  178.2520  148.6370 C   0  0  0  0  0  2  0  0  0  0  0  0
  187.8060  178.0250  147.9990 O   0  0  0  0  0  0  0  0  0  0  0  0
  192.4140  178.1980  142.1060 O   0  0  0  0  0  0  0  0  0  0  0  0
  191.6720  178.0640  143.2800 C   0  0  0  0  0  2  0  0  0  0  0  0
  191.6770  179.2760  143.9720 O   0  0  0  0  0  1  0  0  0  0  0  0
  1 13  1  0  0  0  0
  1  5  1  1  0  0  0
  2  3  1  0  0  0  0
  2 16  1  0  0  0  0
  3 14  1  0  0  0  0
  4  8  1  0  0  0  0
  4 17  1  0  0  0  0
  6  5  1  0  0  0  0
  6 30  1  0  0  0  0
  7 11  1  0  0  0  0
  7 16  1  0  0  0  0
  8  9  1  0  0  0  0
  9  3  1  0  0  0  0
 10  6  1  0  0  0  0
 11 10  1  0  0  0  0
 12 17  1  0  0  0  0
 13 19  1  0  0  0  0
 14 13  1  0  0  0  0
 15  4  1  0  0  0  0
 15 12  1  0  0  0  0
 16  1  1  0  0  0  0
 17  2  1  0  0  0  0
 19 22  1  0  0  0  0
 19 23  1  0  0  0  0
 20 22  1  0  0  0  0
 21 18  1  0  0  0  0
 22 21  1  0  0  0  0
 23 24  1  0  0  0  0
 24 18  1  0  0  0  0
 24 25  1  0  0  0  0
 25 26  1  0  0  0  0
 26 27  1  0  0  0  0
 27 29  1  0  0  0  0
 27 28  1  0  0  0  0
 29 28  1  0  0  0  0
 30 31  1  0  0  0  0
 31 32  1  0  0  0  0
M  END
>  <MODEL>
9

>  <REMARK>
 VINA RESULT:      -7.3      2.454      8.289
  Name = 
  6 active torsions:
  status: ('A' for Active; 'I' for Inactive)
    1  A    between atoms: C_1  and  C_10
    2  A    between atoms: C_4  and  O_13
    3  A    between atoms: C_8  and  C_28
    4  A    between atoms: C_10  and  C_19
    5  A    between atoms: O_13  and  C_15
    6  A    between atoms: C_19  and  C_24
                            x       y       z     vdW  Elec       q    Type
                         _______ _______ _______ _____ _____    ______ ____

>  <TORSDO>
F 6

$$$$
