=
 OpenBabel11052415513D

 34 37  0  0  1  0  0  0  0  0999 V2000
  183.8650  177.8470  138.5230 N   0  0  0  0  0  0  0  0  0  0  0  0
  186.6680  176.5290  136.3310 C   0  0  0  0  0  3  0  0  0  0  0  0
  184.5470  175.4860  136.8140 C   0  0  0  0  0  2  0  0  0  0  0  0
  181.9350  176.3490  139.2010 C   0  0  0  0  0  3  0  0  0  0  0  0
  181.5860  175.0920  138.8350 N   0  0  0  0  0  2  0  0  0  0  0  0
  183.3930  175.5610  137.7600 C   0  0  0  0  0  0  0  0  0  0  0  0
  183.0880  176.6490  138.5110 C   0  0  0  0  0  0  0  0  0  0  0  0
  182.4640  174.6140  137.9580 N   0  0  0  0  0  0  0  0  0  0  0  0
  185.4860  176.6670  136.9510 C   0  0  0  0  0  0  0  0  0  0  0  0
  185.7480  178.9430  137.6950 O   0  0  0  0  0  0  0  0  0  0  0  0
  185.0670  177.8830  137.7290 C   0  0  0  0  0  0  0  0  0  0  0  0
  187.8080  177.5000  136.2780 C   0  0  2  0  0  3  0  0  0  0  0  0
  188.3950  177.5220  135.0240 F   0  0  0  0  0  0  0  0  0  0  0  0
  188.8250  177.2340  137.3780 C   0  0  0  0  0  2  0  0  0  0  0  0
  189.0380  178.4590  138.1990 C   0  0  0  0  0  0  0  0  0  0  0  0
  189.2390  178.3520  139.5690 O   0  0  0  0  0  1  0  0  0  0  0  0
  189.0050  179.5940  137.6550 O   0  0  0  0  0  0  0  0  0  0  0  0
  183.4910  178.9680  139.3790 C   0  0  0  0  0  2  0  0  0  0  0  0
  184.3720  179.0140  140.5790 C   0  0  0  0  0  0  0  0  0  0  0  0
  185.4160  179.7180  140.5530 O   0  0  0  0  0  0  0  0  0  0  0  0
  183.9920  178.2890  141.7550 N   0  0  0  0  0  2  0  0  0  0  0  0
  184.6610  178.7520  145.3940 C   0  0  0  0  0  3  0  0  0  0  0  0
  185.9950  177.7820  143.1290 C   0  0  0  0  0  3  0  0  0  0  0  0
  187.9270  177.7720  146.8340 C   0  0  0  0  0  0  0  0  0  0  0  0
  186.6190  178.2610  146.7400 C   0  0  0  0  0  3  0  0  0  0  0  0
  185.9650  178.2680  145.5070 C   0  0  0  0  0  0  0  0  0  0  0  0
  187.9090  177.3100  144.4800 N   0  0  0  0  0  0  0  0  0  0  0  0
  186.6380  177.7790  144.3690 C   0  0  0  0  0  0  0  0  0  0  0  0
  188.5590  177.2960  145.6760 C   0  0  0  0  0  3  0  0  0  0  0  0
  184.6820  178.2680  143.0110 C   0  0  0  0  0  0  0  0  0  0  0  0
  184.0240  178.7510  144.1490 C   0  0  0  0  0  3  0  0  0  0  0  0
  188.6330  177.7570  148.1250 C   0  0  0  0  0  0  0  0  0  0  0  0
  190.0160  177.6130  148.1650 O   0  0  0  0  0  0  0  0  0  0  0  0
  187.9930  177.8730  149.2040 O   0  0  0  0  0  1  0  0  0  0  0  0
  1 18  1  0  0  0  0
  2  9  2  0  0  0  0
  3  9  1  0  0  0  0
  3  6  1  0  0  0  0
  5  4  1  0  0  0  0
  6  8  2  0  0  0  0
  6  7  1  0  0  0  0
  7  1  1  0  0  0  0
  7  4  2  0  0  0  0
  8  5  1  0  0  0  0
  9 11  1  0  0  0  0
 10 11  2  0  0  0  0
 11  1  1  0  0  0  0
 12 13  1  6  0  0  0
 12  2  1  0  0  0  0
 12 14  1  0  0  0  0
 14 15  1  0  0  0  0
 15 16  1  0  0  0  0
 17 15  2  0  0  0  0
 18 19  1  0  0  0  0
 19 21  1  0  0  0  0
 20 19  2  0  0  0  0
 21 30  1  0  0  0  0
 22 26  1  0  0  0  0
 23 28  1  0  0  0  0
 24 32  1  0  0  0  0
 25 24  1  0  0  0  0
 26 25  2  0  0  0  0
 27 29  1  0  0  0  0
 28 27  2  0  0  0  0
 28 26  1  0  0  0  0
 29 24  2  0  0  0  0
 30 23  2  0  0  0  0
 30 31  1  0  0  0  0
 31 22  2  0  0  0  0
 32 33  2  0  0  0  0
 32 34  1  0  0  0  0
M  END
>  <MODEL>
1

>  <REMARK>
 VINA RESULT:      -8.9      0.000      0.000
  Name = 
  7 active torsions:
  status: ('A' for Active; 'I' for Inactive)
    1  A    between atoms: N_1  and  C_9
    2  A    between atoms: C_2  and  C_23
    3  A    between atoms: C_3  and  C_27
    4  A    between atoms: C_7  and  C_11
    5  A    between atoms: C_8  and  C_9
    6  A    between atoms: N_18  and  C_30
    7  A    between atoms: C_23  and  C_27
                            x       y       z     vdW  Elec       q    Type
                         _______ _______ _______ _____ _____    ______ ____

>  <TORSDO>
F 7

$$$$
=
 OpenBabel11052415513D

 34 37  0  0  1  0  0  0  0  0999 V2000
  182.0820  177.9490  139.5970 N   0  0  0  0  0  0  0  0  0  0  0  0
  182.5990  174.5700  137.9490 C   0  0  0  0  0  3  0  0  0  0  0  0
  180.7040  175.3160  139.2420 C   0  0  0  0  0  2  0  0  0  0  0  0
  180.1980  178.3090  141.2550 C   0  0  0  0  0  3  0  0  0  0  0  0
  179.1660  177.5230  141.6450 N   0  0  0  0  0  2  0  0  0  0  0  0
  180.2850  176.3870  140.1960 C   0  0  0  0  0  0  0  0  0  0  0  0
  180.9110  177.5840  140.3270 C   0  0  0  0  0  0  0  0  0  0  0  0
  179.2130  176.3610  141.0020 N   0  0  0  0  0  0  0  0  0  0  0  0
  182.0450  175.6050  138.6000 C   0  0  0  0  0  0  0  0  0  0  0  0
  183.6700  177.2870  138.0240 O   0  0  0  0  0  0  0  0  0  0  0  0
  182.6580  176.9730  138.7070 C   0  0  0  0  0  0  0  0  0  0  0  0
  183.9060  174.5250  137.2180 C   0  0  2  0  0  3  0  0  0  0  0  0
  183.7290  174.6920  135.8550 F   0  0  0  0  0  0  0  0  0  0  0  0
  184.6860  173.2590  137.5390 C   0  0  0  0  0  2  0  0  0  0  0  0
  186.1500  173.4990  137.4030 C   0  0  0  0  0  0  0  0  0  0  0  0
  186.6300  174.7930  137.2430 O   0  0  0  0  0  0  0  0  0  0  0  0
  186.9500  172.5270  137.4000 O   0  0  0  0  0  1  0  0  0  0  0  0
  182.7180  179.2450  139.8100 C   0  0  0  0  0  2  0  0  0  0  0  0
  183.8110  179.1210  140.8140 C   0  0  0  0  0  0  0  0  0  0  0  0
  184.9670  179.5300  140.5250 O   0  0  0  0  0  0  0  0  0  0  0  0
  183.5160  178.5760  142.1070 N   0  0  0  0  0  2  0  0  0  0  0  0
  184.8550  178.7300  145.5840 C   0  0  0  0  0  3  0  0  0  0  0  0
  185.7170  177.9180  143.0440 C   0  0  0  0  0  3  0  0  0  0  0  0
  188.2930  177.5690  146.3160 C   0  0  0  0  0  0  0  0  0  0  0  0
  187.0070  178.0910  146.5020 C   0  0  0  0  0  3  0  0  0  0  0  0
  186.1400  178.2110  145.4170 C   0  0  0  0  0  0  0  0  0  0  0  0
  187.8280  177.2990  143.9780 N   0  0  0  0  0  0  0  0  0  0  0  0
  186.5750  177.8020  144.1400 C   0  0  0  0  0  0  0  0  0  0  0  0
  188.6850  177.1750  145.0290 C   0  0  0  0  0  3  0  0  0  0  0  0
  184.4230  178.4390  143.2080 C   0  0  0  0  0  0  0  0  0  0  0  0
  184.0020  178.8430  144.4810 C   0  0  0  0  0  3  0  0  0  0  0  0
  189.2220  177.4350  147.4490 C   0  0  0  0  0  0  0  0  0  0  0  0
  190.2980  176.5570  147.3720 O   0  0  0  0  0  0  0  0  0  0  0  0
  189.0520  178.1120  148.4970 O   0  0  0  0  0  1  0  0  0  0  0  0
  1 18  1  0  0  0  0
  1  7  1  0  0  0  0
  2  9  2  0  0  0  0
  3  6  1  0  0  0  0
  4  5  1  0  0  0  0
  6  7  1  0  0  0  0
  6  8  2  0  0  0  0
  7  4  2  0  0  0  0
  8  5  1  0  0  0  0
  9 11  1  0  0  0  0
  9  3  1  0  0  0  0
 10 11  2  0  0  0  0
 11  1  1  0  0  0  0
 12 13  1  6  0  0  0
 12 14  1  0  0  0  0
 12  2  1  0  0  0  0
 15 14  1  0  0  0  0
 16 15  2  0  0  0  0
 17 15  1  0  0  0  0
 18 19  1  0  0  0  0
 19 21  1  0  0  0  0
 20 19  2  0  0  0  0
 21 30  1  0  0  0  0
 23 30  2  0  0  0  0
 23 28  1  0  0  0  0
 24 25  1  0  0  0  0
 24 32  1  0  0  0  0
 26 22  1  0  0  0  0
 26 25  2  0  0  0  0
 27 28  2  0  0  0  0
 27 29  1  0  0  0  0
 28 26  1  0  0  0  0
 29 24  2  0  0  0  0
 30 31  1  0  0  0  0
 31 22  2  0  0  0  0
 32 34  1  0  0  0  0
 33 32  2  0  0  0  0
M  END
>  <MODEL>
2

>  <REMARK>
 VINA RESULT:      -8.6      2.556      3.284
  Name = 
  7 active torsions:
  status: ('A' for Active; 'I' for Inactive)
    1  A    between atoms: N_1  and  C_9
    2  A    between atoms: C_2  and  C_23
    3  A    between atoms: C_3  and  C_27
    4  A    between atoms: C_7  and  C_11
    5  A    between atoms: C_8  and  C_9
    6  A    between atoms: N_18  and  C_30
    7  A    between atoms: C_23  and  C_27
                            x       y       z     vdW  Elec       q    Type
                         _______ _______ _______ _____ _____    ______ ____

>  <TORSDO>
F 7

$$$$
=
 OpenBabel11052415513D

 34 37  0  0  1  0  0  0  0  0999 V2000
  181.4200  177.8240  139.6800 N   0  0  0  0  0  0  0  0  0  0  0  0
  183.7040  176.2770  137.0750 C   0  0  0  0  0  3  0  0  0  0  0  0
  181.7450  175.3060  138.0950 C   0  0  0  0  0  2  0  0  0  0  0  0
  179.6940  176.4170  140.8930 C   0  0  0  0  0  3  0  0  0  0  0  0
  179.2880  175.1350  140.7300 N   0  0  0  0  0  2  0  0  0  0  0  0
  180.8200  175.4820  139.2540 C   0  0  0  0  0  0  0  0  0  0  0  0
  180.6710  176.6390  139.9480 C   0  0  0  0  0  0  0  0  0  0  0  0
  179.9630  174.5680  139.7350 N   0  0  0  0  0  0  0  0  0  0  0  0
  182.6790  176.4850  137.9170 C   0  0  0  0  0  0  0  0  0  0  0  0
  183.0710  178.8180  138.3690 O   0  0  0  0  0  0  0  0  0  0  0  0
  182.4250  177.7730  138.6480 C   0  0  0  0  0  0  0  0  0  0  0  0
  184.7960  177.2270  136.6880 C   0  0  2  0  0  3  0  0  0  0  0  0
  184.9960  177.2350  135.3170 F   0  0  0  0  0  0  0  0  0  0  0  0
  186.0820  176.9440  137.4490 C   0  0  0  0  0  2  0  0  0  0  0  0
  186.6560  178.2080  137.9900 C   0  0  0  0  0  0  0  0  0  0  0  0
  187.2910  179.1040  137.1390 O   0  0  0  0  0  0  0  0  0  0  0  0
  186.5930  178.4510  139.2240 O   0  0  0  0  0  1  0  0  0  0  0  0
  181.2260  179.0250  140.4870 C   0  0  0  0  0  2  0  0  0  0  0  0
  181.9120  178.8780  141.8010 C   0  0  0  0  0  0  0  0  0  0  0  0
  181.2220  178.7450  142.8470 O   0  0  0  0  0  0  0  0  0  0  0  0
  183.3440  178.8490  141.8450 N   0  0  0  0  0  2  0  0  0  0  0  0
  184.4150  178.8310  145.4160 C   0  0  0  0  0  3  0  0  0  0  0  0
  185.4650  178.1330  142.9130 C   0  0  0  0  0  3  0  0  0  0  0  0
  187.7830  177.6130  146.3510 C   0  0  0  0  0  0  0  0  0  0  0  0
  186.4890  178.1350  146.4640 C   0  0  0  0  0  3  0  0  0  0  0  0
  185.7070  178.3120  145.3230 C   0  0  0  0  0  0  0  0  0  0  0  0
  187.4970  177.4560  143.9740 N   0  0  0  0  0  0  0  0  0  0  0  0
  186.2370  177.9600  144.0650 C   0  0  0  0  0  0  0  0  0  0  0  0
  188.2710  177.2770  145.0800 C   0  0  0  0  0  3  0  0  0  0  0  0
  184.1640  178.6550  143.0040 C   0  0  0  0  0  0  0  0  0  0  0  0
  183.6480  179.0010  144.2590 C   0  0  0  0  0  3  0  0  0  0  0  0
  188.6230  177.4200  147.5440 C   0  0  0  0  0  0  0  0  0  0  0  0
  189.9850  177.1730  147.4080 O   0  0  0  0  0  0  0  0  0  0  0  0
  188.1180  177.4770  148.6960 O   0  0  0  0  0  1  0  0  0  0  0  0
  1  7  1  0  0  0  0
  1 18  1  0  0  0  0
  2  9  2  0  0  0  0
  3  6  1  0  0  0  0
  5  4  1  0  0  0  0
  6  8  2  0  0  0  0
  6  7  1  0  0  0  0
  7  4  2  0  0  0  0
  8  5  1  0  0  0  0
  9  3  1  0  0  0  0
  9 11  1  0  0  0  0
 10 11  2  0  0  0  0
 11  1  1  0  0  0  0
 12 13  1  6  0  0  0
 12  2  1  0  0  0  0
 12 14  1  0  0  0  0
 14 15  1  0  0  0  0
 15 17  1  0  0  0  0
 16 15  2  0  0  0  0
 18 19  1  0  0  0  0
 19 21  1  0  0  0  0
 19 20  2  0  0  0  0
 21 30  1  0  0  0  0
 23 30  2  0  0  0  0
 23 28  1  0  0  0  0
 24 25  1  0  0  0  0
 24 32  1  0  0  0  0
 26 22  1  0  0  0  0
 26 25  2  0  0  0  0
 27 28  2  0  0  0  0
 27 29  1  0  0  0  0
 28 26  1  0  0  0  0
 29 24  2  0  0  0  0
 30 31  1  0  0  0  0
 31 22  2  0  0  0  0
 32 34  1  0  0  0  0
 33 32  2  0  0  0  0
M  END
>  <MODEL>
3

>  <REMARK>
 VINA RESULT:      -8.4      1.801      2.368
  Name = 
  7 active torsions:
  status: ('A' for Active; 'I' for Inactive)
    1  A    between atoms: N_1  and  C_9
    2  A    between atoms: C_2  and  C_23
    3  A    between atoms: C_3  and  C_27
    4  A    between atoms: C_7  and  C_11
    5  A    between atoms: C_8  and  C_9
    6  A    between atoms: N_18  and  C_30
    7  A    between atoms: C_23  and  C_27
                            x       y       z     vdW  Elec       q    Type
                         _______ _______ _______ _____ _____    ______ ____

>  <TORSDO>
F 7

$$$$
=
 OpenBabel11052415513D

 34 37  0  0  1  0  0  0  0  0999 V2000
  190.1370  176.2880  137.1710 N   0  0  0  0  0  0  0  0  0  0  0  0
  193.0850  173.9070  137.3630 C   0  0  0  0  0  3  0  0  0  0  0  0
  190.7870  173.3840  136.8500 C   0  0  0  0  0  2  0  0  0  0  0  0
  187.7630  175.4060  137.0420 C   0  0  0  0  0  3  0  0  0  0  0  0
  187.2640  174.1550  136.9030 N   0  0  0  0  0  0  0  0  0  0  0  0
  189.4090  173.9550  136.9330 C   0  0  0  0  0  0  0  0  0  0  0  0
  189.1340  175.2780  137.0570 C   0  0  1  0  0  3  0  0  0  0  0  0
  188.2570  173.2750  136.8320 N   0  0  0  0  0  0  0  0  0  0  0  0
  191.8580  174.4100  137.1560 C   0  0  0  0  0  0  0  0  0  0  0  0
  192.4200  176.7490  137.2650 O   0  0  0  0  0  0  0  0  0  0  0  0
  191.5170  175.8730  137.2040 C   0  0  0  0  0  0  0  0  0  0  0  0
  194.3490  174.6440  137.6880 C   0  0  2  0  0  3  0  0  0  0  0  0
  195.0080  175.0490  136.5390 F   0  0  0  0  0  0  0  0  0  0  0  0
  195.2520  173.8340  138.6060 C   0  0  0  0  0  2  0  0  0  0  0  0
  196.3120  174.7000  139.1920 C   0  0  0  0  0  0  0  0  0  0  0  0
  197.5100  174.8870  138.5150 O   0  0  0  0  0  0  0  0  0  0  0  0
  196.1350  175.2390  140.3160 O   0  0  0  0  0  1  0  0  0  0  0  0
  189.7660  177.6910  137.3290 C   0  0  0  0  0  2  0  0  0  0  0  0
  189.5940  178.0160  138.7720 C   0  0  0  0  0  0  0  0  0  0  0  0
  188.8670  178.9900  139.1050 O   0  0  0  0  0  0  0  0  0  0  0  0
  190.2260  177.1890  139.7570 N   0  0  0  0  0  2  0  0  0  0  0  0
  191.2370  177.5880  143.3240 C   0  0  0  0  0  3  0  0  0  0  0  0
  188.8800  177.2910  141.8390 C   0  0  0  0  0  3  0  0  0  0  0  0
  188.6760  177.6570  145.9960 C   0  0  0  0  0  0  0  0  0  0  0  0
  189.9240  177.6850  145.3620 C   0  0  0  0  0  3  0  0  0  0  0  0
  190.0020  177.5640  143.9740 C   0  0  0  0  0  0  0  0  0  0  0  0
  187.6130  177.3890  143.8630 N   0  0  0  0  0  0  0  0  0  0  0  0
  188.8150  177.4140  143.2280 C   0  0  0  0  0  0  0  0  0  0  0  0
  187.5210  177.5070  145.2160 C   0  0  0  0  0  3  0  0  0  0  0  0
  190.1210  177.3160  141.1820 C   0  0  0  0  0  0  0  0  0  0  0  0
  191.2930  177.4650  141.9330 C   0  0  0  0  0  3  0  0  0  0  0  0
  188.5730  177.7840  147.4590 C   0  0  0  0  0  0  0  0  0  0  0  0
  187.3280  177.9190  148.0640 O   0  0  0  0  0  0  0  0  0  0  0  0
  189.6090  177.7700  148.1750 O   0  0  0  0  0  1  0  0  0  0  0  0
  1 11  1  0  0  0  0
  1 18  1  0  0  0  0
  2 12  1  0  0  0  0
  3  6  1  0  0  0  0
  3  9  1  0  0  0  0
  5  4  2  0  0  0  0
  6  7  1  0  0  0  0
  7  4  1  6  0  0  0
  7  1  1  0  0  0  0
  8  5  1  0  0  0  0
  8  6  2  0  0  0  0
  9 11  1  0  0  0  0
  9  2  2  0  0  0  0
 11 10  2  0  0  0  0
 12 13  1  6  0  0  0
 12 14  1  0  0  0  0
 14 15  1  0  0  0  0
 15 17  1  0  0  0  0
 16 15  2  0  0  0  0
 18 19  1  0  0  0  0
 19 20  2  0  0  0  0
 19 21  1  0  0  0  0
 21 30  1  0  0  0  0
 22 26  1  0  0  0  0
 23 28  1  0  0  0  0
 24 32  1  0  0  0  0
 25 24  1  0  0  0  0
 26 25  2  0  0  0  0
 27 29  1  0  0  0  0
 28 27  2  0  0  0  0
 28 26  1  0  0  0  0
 29 24  2  0  0  0  0
 30 23  2  0  0  0  0
 30 31  1  0  0  0  0
 31 22  2  0  0  0  0
 32 33  2  0  0  0  0
 32 34  1  0  0  0  0
M  END
>  <MODEL>
4

>  <REMARK>
 VINA RESULT:      -8.3      4.428      5.933
  Name = 
  7 active torsions:
  status: ('A' for Active; 'I' for Inactive)
    1  A    between atoms: N_1  and  C_9
    2  A    between atoms: C_2  and  C_23
    3  A    between atoms: C_3  and  C_27
    4  A    between atoms: C_7  and  C_11
    5  A    between atoms: C_8  and  C_9
    6  A    between atoms: N_18  and  C_30
    7  A    between atoms: C_23  and  C_27
                            x       y       z     vdW  Elec       q    Type
                         _______ _______ _______ _____ _____    ______ ____

>  <TORSDO>
F 7

$$$$
=
 OpenBabel11052415513D

 34 37  0  0  1  0  0  0  0  0999 V2000
  182.5100  178.8220  139.0890 N   0  0  0  0  0  0  0  0  0  0  0  0
  179.8080  181.4500  138.6510 C   0  0  0  0  0  3  0  0  0  0  0  0
  179.5580  179.1820  139.4330 C   0  0  0  0  0  2  0  0  0  0  0  0
  181.9040  176.3960  139.5110 C   0  0  0  0  0  3  0  0  0  0  0  0
  180.7190  175.7810  139.7460 N   0  0  0  0  0  2  0  0  0  0  0  0
  180.2790  177.8740  139.4850 C   0  0  0  0  0  0  0  0  0  0  0  0
  181.6220  177.7340  139.3480 C   0  0  0  0  0  0  0  0  0  0  0  0
  179.7350  176.6740  139.7360 N   0  0  0  0  0  0  0  0  0  0  0  0
  180.4500  180.3170  138.9760 C   0  0  0  0  0  0  0  0  0  0  0  0
  182.7090  181.1150  138.7270 O   0  0  0  0  0  0  0  0  0  0  0  0
  181.9410  180.1340  138.9170 C   0  0  0  0  0  0  0  0  0  0  0  0
  180.3910  182.7410  138.1630 C   0  0  2  0  0  3  0  0  0  0  0  0
  179.6260  183.8240  138.5630 F   0  0  0  0  0  0  0  0  0  0  0  0
  180.6120  182.7250  136.6580 C   0  0  0  0  0  2  0  0  0  0  0  0
  181.0590  184.0630  136.1820 C   0  0  0  0  0  0  0  0  0  0  0  0
  180.6410  184.5370  134.9450 O   0  0  0  0  0  0  0  0  0  0  0  0
  181.8410  184.7530  136.8870 O   0  0  0  0  0  1  0  0  0  0  0  0
  183.9410  178.5910  138.9260 C   0  0  0  0  0  2  0  0  0  0  0  0
  184.6470  178.8070  140.2200 C   0  0  0  0  0  0  0  0  0  0  0  0
  185.4550  179.7660  140.3320 O   0  0  0  0  0  0  0  0  0  0  0  0
  184.3610  177.9410  141.3260 N   0  0  0  0  0  2  0  0  0  0  0  0
  184.5730  178.6830  144.9740 C   0  0  0  0  0  3  0  0  0  0  0  0
  186.2020  177.6190  142.9580 C   0  0  0  0  0  3  0  0  0  0  0  0
  187.6770  177.9510  146.8530 C   0  0  0  0  0  0  0  0  0  0  0  0
  186.3720  178.3730  146.5710 C   0  0  0  0  0  3  0  0  0  0  0  0
  185.8710  178.2670  145.2740 C   0  0  0  0  0  0  0  0  0  0  0  0
  187.9570  177.3270  144.5540 N   0  0  0  0  0  0  0  0  0  0  0  0
  186.6920  177.7310  144.2610 C   0  0  0  0  0  0  0  0  0  0  0  0
  188.4590  177.4250  145.8160 C   0  0  0  0  0  3  0  0  0  0  0  0
  184.8970  178.0380  142.6530 C   0  0  0  0  0  0  0  0  0  0  0  0
  184.0900  178.5680  143.6670 C   0  0  0  0  0  3  0  0  0  0  0  0
  188.2230  178.0560  148.2160 C   0  0  0  0  0  0  0  0  0  0  0  0
  189.5260  178.5000  148.4150 O   0  0  0  0  0  0  0  0  0  0  0  0
  187.5180  177.7460  149.2120 O   0  0  0  0  0  1  0  0  0  0  0  0
  1  7  1  0  0  0  0
  2  9  2  0  0  0  0
  3  6  1  0  0  0  0
  4  5  1  0  0  0  0
  6  8  2  0  0  0  0
  7  6  1  0  0  0  0
  7  4  2  0  0  0  0
  8  5  1  0  0  0  0
  9  3  1  0  0  0  0
 10 11  2  0  0  0  0
 11  9  1  0  0  0  0
 11  1  1  0  0  0  0
 12 13  1  6  0  0  0
 12  2  1  0  0  0  0
 14 12  1  0  0  0  0
 15 14  1  0  0  0  0
 15 17  1  0  0  0  0
 16 15  2  0  0  0  0
 18  1  1  0  0  0  0
 18 19  1  0  0  0  0
 19 20  2  0  0  0  0
 19 21  1  0  0  0  0
 21 30  1  0  0  0  0
 22 26  1  0  0  0  0
 23 28  1  0  0  0  0
 24 32  1  0  0  0  0
 25 24  1  0  0  0  0
 26 25  2  0  0  0  0
 27 29  1  0  0  0  0
 28 27  2  0  0  0  0
 28 26  1  0  0  0  0
 29 24  2  0  0  0  0
 30 23  2  0  0  0  0
 30 31  1  0  0  0  0
 31 22  2  0  0  0  0
 32 33  2  0  0  0  0
 32 34  1  0  0  0  0
M  END
>  <MODEL>
5

>  <REMARK>
 VINA RESULT:      -8.2      3.540      5.049
  Name = 
  7 active torsions:
  status: ('A' for Active; 'I' for Inactive)
    1  A    between atoms: N_1  and  C_9
    2  A    between atoms: C_2  and  C_23
    3  A    between atoms: C_3  and  C_27
    4  A    between atoms: C_7  and  C_11
    5  A    between atoms: C_8  and  C_9
    6  A    between atoms: N_18  and  C_30
    7  A    between atoms: C_23  and  C_27
                            x       y       z     vdW  Elec       q    Type
                         _______ _______ _______ _____ _____    ______ ____

>  <TORSDO>
F 7

$$$$
=
 OpenBabel11052415513D

 34 37  0  0  1  0  0  0  0  0999 V2000
  190.7950  177.2820  144.9850 N   0  0  0  0  0  0  0  0  0  0  0  0
  187.3340  177.9520  146.3880 C   0  0  0  0  0  3  0  0  0  0  0  0
  189.2170  176.9420  147.5050 C   0  0  0  0  0  2  0  0  0  0  0  0
  192.4410  175.8160  146.2380 C   0  0  0  0  0  3  0  0  0  0  0  0
  192.4020  175.2490  147.4680 N   0  0  0  0  0  2  0  0  0  0  0  0
  190.5470  176.3180  147.2300 C   0  0  0  0  0  0  0  0  0  0  0  0
  191.2570  176.5020  146.0880 C   0  0  0  0  0  0  0  0  0  0  0  0
  191.2590  175.5550  148.0730 N   0  0  0  0  0  0  0  0  0  0  0  0
  188.6280  177.6130  146.2830 C   0  0  0  0  0  0  0  0  0  0  0  0
  189.0680  178.5900  144.1260 O   0  0  0  0  0  0  0  0  0  0  0  0
  189.4810  177.8660  145.0710 C   0  0  0  0  0  0  0  0  0  0  0  0
  186.4620  178.6200  145.3680 C   0  0  2  0  0  3  0  0  0  0  0  0
  185.5240  179.4440  145.9660 F   0  0  0  0  0  0  0  0  0  0  0  0
  185.8180  177.6090  144.4310 C   0  0  0  0  0  2  0  0  0  0  0  0
  185.1780  178.3010  143.2780 C   0  0  0  0  0  0  0  0  0  0  0  0
  185.9280  178.6120  142.1510 O   0  0  0  0  0  0  0  0  0  0  0  0
  183.9650  178.6320  143.3360 O   0  0  0  0  0  1  0  0  0  0  0  0
  191.6020  177.4130  143.7760 C   0  0  0  0  0  2  0  0  0  0  0  0
  190.8550  176.8850  142.6010 C   0  0  0  0  0  0  0  0  0  0  0  0
  190.3120  175.7500  142.6720 O   0  0  0  0  0  0  0  0  0  0  0  0
  190.7360  177.6950  141.4250 N   0  0  0  0  0  2  0  0  0  0  0  0
  189.8670  176.0880  138.1740 C   0  0  0  0  0  3  0  0  0  0  0  0
  188.7820  177.9890  139.9240 C   0  0  0  0  0  3  0  0  0  0  0  0
  186.7400  176.9990  136.4150 C   0  0  0  0  0  0  0  0  0  0  0  0
  187.9600  176.3750  136.7020 C   0  0  0  0  0  3  0  0  0  0  0  0
  188.6490  176.6990  137.8710 C   0  0  0  0  0  0  0  0  0  0  0  0
  186.9160  178.2510  138.4530 N   0  0  0  0  0  0  0  0  0  0  0  0
  188.1020  177.6550  138.7500 C   0  0  0  0  0  0  0  0  0  0  0  0
  186.2330  177.9450  137.3170 C   0  0  0  0  0  3  0  0  0  0  0  0
  190.0080  177.3750  140.2320 C   0  0  0  0  0  0  0  0  0  0  0  0
  190.5420  176.4270  139.3510 C   0  0  0  0  0  3  0  0  0  0  0  0
  185.9990  176.6710  135.1870 C   0  0  0  0  0  0  0  0  0  0  0  0
  186.1450  175.4210  134.5940 O   0  0  0  0  0  0  0  0  0  0  0  0
  185.2270  177.5160  134.6620 O   0  0  0  0  0  1  0  0  0  0  0  0
  1 11  1  0  0  0  0
  1  7  1  0  0  0  0
  4  5  1  0  0  0  0
  5  8  1  0  0  0  0
  6  3  1  0  0  0  0
  6  8  2  0  0  0  0
  7  4  2  0  0  0  0
  7  6  1  0  0  0  0
  9  2  2  0  0  0  0
  9  3  1  0  0  0  0
 10 11  2  0  0  0  0
 11  9  1  0  0  0  0
 12 13  1  1  0  0  0
 12  2  1  0  0  0  0
 14 12  1  0  0  0  0
 15 17  1  0  0  0  0
 15 14  1  0  0  0  0
 16 15  2  0  0  0  0
 18  1  1  0  0  0  0
 19 20  2  0  0  0  0
 19 18  1  0  0  0  0
 21 19  1  0  0  0  0
 22 31  1  0  0  0  0
 23 30  1  0  0  0  0
 24 25  2  0  0  0  0
 24 29  1  0  0  0  0
 25 26  1  0  0  0  0
 26 22  2  0  0  0  0
 26 28  1  0  0  0  0
 27 28  1  0  0  0  0
 28 23  2  0  0  0  0
 29 27  2  0  0  0  0
 30 21  1  0  0  0  0
 31 30  2  0  0  0  0
 32 24  1  0  0  0  0
 33 32  2  0  0  0  0
 34 32  1  0  0  0  0
M  END
>  <MODEL>
6

>  <REMARK>
 VINA RESULT:      -7.9      3.617      9.729
  Name = 
  7 active torsions:
  status: ('A' for Active; 'I' for Inactive)
    1  A    between atoms: N_1  and  C_9
    2  A    between atoms: C_2  and  C_23
    3  A    between atoms: C_3  and  C_27
    4  A    between atoms: C_7  and  C_11
    5  A    between atoms: C_8  and  C_9
    6  A    between atoms: N_18  and  C_30
    7  A    between atoms: C_23  and  C_27
                            x       y       z     vdW  Elec       q    Type
                         _______ _______ _______ _____ _____    ______ ____

>  <TORSDO>
F 7

$$$$
=
 OpenBabel11052415513D

 34 37  0  0  1  0  0  0  0  0999 V2000
  183.9640  178.0150  139.5630 N   0  0  0  0  0  0  0  0  0  0  0  0
  181.3730  175.2680  139.1890 C   0  0  0  0  0  3  0  0  0  0  0  0
  183.4530  175.5190  137.9930 C   0  0  0  0  0  2  0  0  0  0  0  0
  185.8400  178.2680  137.8770 C   0  0  0  0  0  3  0  0  0  0  0  0
  186.2310  177.5040  136.8290 N   0  0  0  0  0  0  0  0  0  0  0  0
  184.5200  176.5220  137.6950 C   0  0  0  0  0  0  0  0  0  0  0  0
  184.7490  177.6380  138.4330 C   0  0  1  0  0  3  0  0  0  0  0  0
  185.4370  176.4440  136.7190 N   0  0  0  0  0  0  0  0  0  0  0  0
  182.4960  175.9930  139.0660 C   0  0  0  0  0  0  0  0  0  0  0  0
  182.1510  177.4820  140.9280 O   0  0  0  0  0  0  0  0  0  0  0  0
  182.8350  177.1900  139.9110 C   0  0  0  0  0  0  0  0  0  0  0  0
  180.2340  175.4720  140.1410 C   0  0  2  0  0  3  0  0  0  0  0  0
  179.9560  174.3170  140.8520 F   0  0  0  0  0  0  0  0  0  0  0  0
  179.0020  176.0150  139.4330 C   0  0  0  0  0  2  0  0  0  0  0  0
  179.0120  177.5050  139.4390 C   0  0  0  0  0  0  0  0  0  0  0  0
  179.1410  178.2040  138.2460 O   0  0  0  0  0  0  0  0  0  0  0  0
  178.9330  178.1310  140.5280 O   0  0  0  0  0  1  0  0  0  0  0  0
  184.2530  179.2460  140.2930 C   0  0  0  0  0  2  0  0  0  0  0  0
  185.4180  179.0440  141.1990 C   0  0  0  0  0  0  0  0  0  0  0  0
  186.4830  179.6830  140.9890 O   0  0  0  0  0  0  0  0  0  0  0  0
  185.2910  178.1550  142.3160 N   0  0  0  0  0  2  0  0  0  0  0  0
  186.8470  177.7190  145.6760 C   0  0  0  0  0  3  0  0  0  0  0  0
  187.6040  177.5540  142.9830 C   0  0  0  0  0  3  0  0  0  0  0  0
  190.4210  176.8040  145.9760 C   0  0  0  0  0  0  0  0  0  0  0  0
  189.1080  177.1350  146.3320 C   0  0  0  0  0  3  0  0  0  0  0  0
  188.1610  177.3870  145.3400 C   0  0  0  0  0  0  0  0  0  0  0  0
  189.8230  176.9820  143.6600 N   0  0  0  0  0  0  0  0  0  0  0  0
  188.5430  177.3040  143.9860 C   0  0  0  0  0  0  0  0  0  0  0  0
  190.7580  176.7330  144.6170 C   0  0  0  0  0  3  0  0  0  0  0  0
  186.2810  177.8880  143.3180 C   0  0  0  0  0  0  0  0  0  0  0  0
  185.9120  177.9680  144.6660 C   0  0  0  0  0  3  0  0  0  0  0  0
  191.4350  176.5350  147.0090 C   0  0  0  0  0  0  0  0  0  0  0  0
  191.6600  177.4570  148.0250 O   0  0  0  0  0  1  0  0  0  0  0  0
  192.1070  175.4700  146.9810 O   0  0  0  0  0  0  0  0  0  0  0  0
  1 11  1  0  0  0  0
  1 18  1  0  0  0  0
  2 12  1  0  0  0  0
  3  9  1  0  0  0  0
  5  4  2  0  0  0  0
  6  3  1  0  0  0  0
  6  7  1  0  0  0  0
  7  4  1  1  0  0  0
  7  1  1  0  0  0  0
  8  5  1  0  0  0  0
  8  6  2  0  0  0  0
  9  2  2  0  0  0  0
  9 11  1  0  0  0  0
 11 10  2  0  0  0  0
 12 13  1  6  0  0  0
 14 15  1  0  0  0  0
 14 12  1  0  0  0  0
 15 17  1  0  0  0  0
 16 15  2  0  0  0  0
 18 19  1  0  0  0  0
 19 21  1  0  0  0  0
 20 19  2  0  0  0  0
 21 30  1  0  0  0  0
 23 30  2  0  0  0  0
 23 28  1  0  0  0  0
 24 25  1  0  0  0  0
 24 32  1  0  0  0  0
 26 22  1  0  0  0  0
 26 25  2  0  0  0  0
 27 28  2  0  0  0  0
 27 29  1  0  0  0  0
 28 26  1  0  0  0  0
 29 24  2  0  0  0  0
 30 31  1  0  0  0  0
 31 22  2  0  0  0  0
 32 33  1  0  0  0  0
 34 32  2  0  0  0  0
M  END
>  <MODEL>
7

>  <REMARK>
 VINA RESULT:      -7.8      3.066      5.071
  Name = 
  7 active torsions:
  status: ('A' for Active; 'I' for Inactive)
    1  A    between atoms: N_1  and  C_9
    2  A    between atoms: C_2  and  C_23
    3  A    between atoms: C_3  and  C_27
    4  A    between atoms: C_7  and  C_11
    5  A    between atoms: C_8  and  C_9
    6  A    between atoms: N_18  and  C_30
    7  A    between atoms: C_23  and  C_27
                            x       y       z     vdW  Elec       q    Type
                         _______ _______ _______ _____ _____    ______ ____

>  <TORSDO>
F 7

$$$$
=
 OpenBabel11052415513D

 34 37  0  0  1  0  0  0  0  0999 V2000
  183.3090  178.2150  139.9510 N   0  0  0  0  0  0  0  0  0  0  0  0
  185.4640  177.1910  137.0010 C   0  0  0  0  0  3  0  0  0  0  0  0
  183.2860  176.3530  137.6090 C   0  0  0  0  0  2  0  0  0  0  0  0
  181.2620  176.8640  140.5940 C   0  0  0  0  0  3  0  0  0  0  0  0
  180.6390  175.8180  140.0000 N   0  0  0  0  0  2  0  0  0  0  0  0
  182.3200  176.3170  138.7480 C   0  0  0  0  0  0  0  0  0  0  0  0
  182.3340  177.1850  139.7910 C   0  0  0  0  0  0  0  0  0  0  0  0
  181.2740  175.4880  138.8800 N   0  0  0  0  0  0  0  0  0  0  0  0
  184.4330  177.3100  137.8520 C   0  0  0  0  0  0  0  0  0  0  0  0
  185.2140  179.2320  139.0750 O   0  0  0  0  0  0  0  0  0  0  0  0
  184.3650  178.3070  138.9750 C   0  0  0  0  0  0  0  0  0  0  0  0
  186.7410  177.9750  136.9720 C   0  0  2  0  0  3  0  0  0  0  0  0
  187.0330  178.4190  135.6940 F   0  0  0  0  0  0  0  0  0  0  0  0
  187.8950  177.1920  137.5800 C   0  0  0  0  0  2  0  0  0  0  0  0
  189.1080  178.0490  137.6870 C   0  0  0  0  0  0  0  0  0  0  0  0
  190.3690  177.4980  137.4990 O   0  0  0  0  0  0  0  0  0  0  0  0
  188.9940  179.2690  137.9780 O   0  0  0  0  0  1  0  0  0  0  0  0
  183.2780  179.0950  141.1160 C   0  0  0  0  0  2  0  0  0  0  0  0
  184.5630  179.0020  141.8630 C   0  0  0  0  0  0  0  0  0  0  0  0
  185.5300  179.7360  141.5260 O   0  0  0  0  0  0  0  0  0  0  0  0
  184.6620  178.1070  142.9790 N   0  0  0  0  0  2  0  0  0  0  0  0
  186.7670  178.2000  146.0550 C   0  0  0  0  0  3  0  0  0  0  0  0
  186.9930  177.3660  143.3890 C   0  0  0  0  0  3  0  0  0  0  0  0
  190.2360  176.9120  145.9840 C   0  0  0  0  0  0  0  0  0  0  0  0
  189.0480  177.4800  146.4590 C   0  0  0  0  0  3  0  0  0  0  0  0
  187.9600  177.6350  145.6000 C   0  0  0  0  0  0  0  0  0  0  0  0
  189.2380  176.6680  143.8170 N   0  0  0  0  0  0  0  0  0  0  0  0
  188.0750  177.2160  144.2600 C   0  0  0  0  0  0  0  0  0  0  0  0
  190.3080  176.5090  144.6440 C   0  0  0  0  0  3  0  0  0  0  0  0
  185.7920  177.9340  143.8440 C   0  0  0  0  0  0  0  0  0  0  0  0
  185.6880  178.3470  145.1770 C   0  0  0  0  0  3  0  0  0  0  0  0
  191.3950  176.7400  146.8750 C   0  0  0  0  0  0  0  0  0  0  0  0
  191.3680  177.2550  148.1670 O   0  0  0  0  0  1  0  0  0  0  0  0
  192.4200  176.1250  146.4780 O   0  0  0  0  0  0  0  0  0  0  0  0
  1 18  1  0  0  0  0
  2  9  2  0  0  0  0
  3  9  1  0  0  0  0
  3  6  1  0  0  0  0
  5  4  1  0  0  0  0
  6  8  2  0  0  0  0
  6  7  1  0  0  0  0
  7  1  1  0  0  0  0
  7  4  2  0  0  0  0
  8  5  1  0  0  0  0
  9 11  1  0  0  0  0
 11 10  2  0  0  0  0
 11  1  1  0  0  0  0
 12 13  1  6  0  0  0
 12  2  1  0  0  0  0
 12 14  1  0  0  0  0
 14 15  1  0  0  0  0
 15 17  1  0  0  0  0
 16 15  2  0  0  0  0
 18 19  1  0  0  0  0
 19 21  1  0  0  0  0
 20 19  2  0  0  0  0
 21 30  1  0  0  0  0
 23 30  2  0  0  0  0
 23 28  1  0  0  0  0
 24 25  1  0  0  0  0
 24 32  1  0  0  0  0
 26 22  1  0  0  0  0
 26 25  2  0  0  0  0
 27 28  2  0  0  0  0
 27 29  1  0  0  0  0
 28 26  1  0  0  0  0
 29 24  2  0  0  0  0
 30 31  1  0  0  0  0
 31 22  2  0  0  0  0
 32 33  1  0  0  0  0
 34 32  2  0  0  0  0
M  END
>  <MODEL>
8

>  <REMARK>
 VINA RESULT:      -7.8      1.466      1.963
  Name = 
  7 active torsions:
  status: ('A' for Active; 'I' for Inactive)
    1  A    between atoms: N_1  and  C_9
    2  A    between atoms: C_2  and  C_23
    3  A    between atoms: C_3  and  C_27
    4  A    between atoms: C_7  and  C_11
    5  A    between atoms: C_8  and  C_9
    6  A    between atoms: N_18  and  C_30
    7  A    between atoms: C_23  and  C_27
                            x       y       z     vdW  Elec       q    Type
                         _______ _______ _______ _____ _____    ______ ____

>  <TORSDO>
F 7

$$$$
=
 OpenBabel11052415513D

 34 37  0  0  1  0  0  0  0  0999 V2000
  183.9140  178.0150  139.4590 N   0  0  0  0  0  0  0  0  0  0  0  0
  180.5010  177.2190  140.9140 C   0  0  0  0  0  3  0  0  0  0  0  0
  181.8040  175.8940  139.3760 C   0  0  0  0  0  2  0  0  0  0  0  0
  184.8530  176.6560  137.5350 C   0  0  0  0  0  3  0  0  0  0  0  0
  184.4190  175.5310  136.9180 N   0  0  0  0  0  0  0  0  0  0  0  0
  182.9710  175.9860  138.4480 C   0  0  0  0  0  0  0  0  0  0  0  0
  183.9300  176.9440  138.5150 C   0  0  1  0  0  3  0  0  0  0  0  0
  183.2820  175.1200  137.4710 N   0  0  0  0  0  0  0  0  0  0  0  0
  181.6670  177.1180  140.2570 C   0  0  0  0  0  0  0  0  0  0  0  0
  182.7760  179.0240  141.2250 O   0  0  0  0  0  0  0  0  0  0  0  0
  182.7920  178.1100  140.3580 C   0  0  0  0  0  0  0  0  0  0  0  0
  180.0530  178.2990  141.8510 C   0  0  2  0  0  3  0  0  0  0  0  0
  179.5050  177.7690  143.0080 F   0  0  0  0  0  0  0  0  0  0  0  0
  179.1080  179.2770  141.1700 C   0  0  0  0  0  2  0  0  0  0  0  0
  179.3620  180.6650  141.6470 C   0  0  0  0  0  0  0  0  0  0  0  0
  180.0450  180.8770  142.8380 O   0  0  0  0  0  1  0  0  0  0  0  0
  178.9310  181.6470  140.9870 O   0  0  0  0  0  0  0  0  0  0  0  0
  184.9660  179.0270  139.4540 C   0  0  0  0  0  2  0  0  0  0  0  0
  186.0600  178.6330  140.3840 C   0  0  0  0  0  0  0  0  0  0  0  0
  187.2500  178.6220  139.9710 O   0  0  0  0  0  0  0  0  0  0  0  0
  185.7420  178.3130  141.7450 N   0  0  0  0  0  2  0  0  0  0  0  0
  187.0700  177.5920  145.1540 C   0  0  0  0  0  3  0  0  0  0  0  0
  188.0200  177.7100  142.5200 C   0  0  0  0  0  3  0  0  0  0  0  0
  190.6420  176.7440  145.6270 C   0  0  0  0  0  0  0  0  0  0  0  0
  189.2970  177.0050  145.9150 C   0  0  0  0  0  3  0  0  0  0  0  0
  188.4140  177.3280  144.8850 C   0  0  0  0  0  0  0  0  0  0  0  0
  190.2040  177.1310  143.3010 N   0  0  0  0  0  0  0  0  0  0  0  0
  188.8940  177.3870  143.5610 C   0  0  0  0  0  0  0  0  0  0  0  0
  191.0760  176.8140  144.2960 C   0  0  0  0  0  3  0  0  0  0  0  0
  186.6670  177.9750  142.7870 C   0  0  0  0  0  0  0  0  0  0  0  0
  186.2010  177.9140  144.1060 C   0  0  0  0  0  3  0  0  0  0  0  0
  191.5880  176.4010  146.7010 C   0  0  0  0  0  0  0  0  0  0  0  0
  192.3940  175.2730  146.5900 O   0  0  0  0  0  0  0  0  0  0  0  0
  191.6780  177.1260  147.7270 O   0  0  0  0  0  1  0  0  0  0  0  0
  1 11  1  0  0  0  0
  2 12  1  0  0  0  0
  3  9  1  0  0  0  0
  5  8  1  0  0  0  0
  5  4  2  0  0  0  0
  6  7  1  0  0  0  0
  6  3  1  0  0  0  0
  7  4  1  1  0  0  0
  7  1  1  0  0  0  0
  8  6  2  0  0  0  0
  9 11  1  0  0  0  0
  9  2  2  0  0  0  0
 11 10  2  0  0  0  0
 12 13  1  1  0  0  0
 14 15  1  0  0  0  0
 14 12  1  0  0  0  0
 15 16  1  0  0  0  0
 17 15  2  0  0  0  0
 18  1  1  0  0  0  0
 18 19  1  0  0  0  0
 19 21  1  0  0  0  0
 20 19  2  0  0  0  0
 21 30  1  0  0  0  0
 23 30  2  0  0  0  0
 23 28  1  0  0  0  0
 24 25  1  0  0  0  0
 24 32  1  0  0  0  0
 26 22  1  0  0  0  0
 26 25  2  0  0  0  0
 27 28  2  0  0  0  0
 27 29  1  0  0  0  0
 28 26  1  0  0  0  0
 29 24  2  0  0  0  0
 30 31  1  0  0  0  0
 31 22  2  0  0  0  0
 32 34  1  0  0  0  0
 33 32  2  0  0  0  0
M  END
>  <MODEL>
9

>  <REMARK>
 VINA RESULT:      -7.7      3.358      5.316
  Name = 
  7 active torsions:
  status: ('A' for Active; 'I' for Inactive)
    1  A    between atoms: N_1  and  C_9
    2  A    between atoms: C_2  and  C_23
    3  A    between atoms: C_3  and  C_27
    4  A    between atoms: C_7  and  C_11
    5  A    between atoms: C_8  and  C_9
    6  A    between atoms: N_18  and  C_30
    7  A    between atoms: C_23  and  C_27
                            x       y       z     vdW  Elec       q    Type
                         _______ _______ _______ _____ _____    ______ ____

>  <TORSDO>
F 7

$$$$
