=
 OpenBabel11052416043D

 34 38  0  0  1  0  0  0  0  0999 V2000
  183.9280  176.4650  136.8580 C   0  0  2  0  0  0  0  0  0  0  0  0
  180.7610  179.5780  137.7920 O   0  0  0  0  0  0  0  0  0  0  0  0
  182.0530  177.8060  136.0940 O   0  0  0  0  0  0  0  0  0  0  0  0
  182.8790  174.6520  138.2980 C   0  0  0  0  0  2  0  0  0  0  0  0
  182.0150  174.3750  137.2390 O   0  0  0  0  0  0  0  0  0  0  0  0
  182.5470  176.4800  136.1570 C   0  0  2  0  0  3  0  0  0  0  0  0
  184.1730  175.2200  137.7360 C   0  0  0  0  0  2  0  0  0  0  0  0
  181.4890  175.6130  136.8620 C   0  0  0  0  0  2  0  0  0  0  0  0
  181.8790  179.1840  138.0880 C   0  0  0  0  0  0  0  0  0  0  0  0
  182.3950  179.3830  139.5000 C   0  0  2  0  0  3  0  0  0  0  0  0
  183.9200  179.1840  139.5940 C   0  0  0  0  0  2  0  0  0  0  0  0
  182.7720  178.5800  137.0310 C   0  0  1  0  0  3  0  0  0  0  0  0
  184.3440  177.9490  138.8440 C   0  0  0  0  0  3  0  0  0  0  0  0
  183.8060  177.7070  137.6400 C   0  0  0  0  0  0  0  0  0  0  0  0
  186.1930  177.5790  136.2390 C   0  0  1  0  0  3  0  0  0  0  0  0
  187.1090  174.5140  137.6140 O   0  0  0  0  0  1  0  0  0  0  0  0
  190.5360  176.0020  138.6050 C   0  0  0  0  0  1  0  0  0  0  0  0
  185.5930  175.3430  135.2120 C   0  0  0  0  0  0  0  0  0  0  0  0
  185.0560  176.6350  135.8080 C   0  0  1  0  0  3  0  0  0  0  0  0
  189.9340  176.4020  137.2710 C   0  0  1  0  0  0  0  0  0  0  0  0
  188.7820  177.7570  137.5250 S   0  0  2  0  0  0  0  0  0  0  0  0
  190.9430  176.7760  136.3970 F   0  0  0  0  0  0  0  0  0  0  0  0
  187.2810  176.8340  137.0770 C   0  0  2  0  0  3  0  0  0  0  0  0
  184.8480  174.5980  134.5940 O   0  0  0  0  0  0  0  0  0  0  0  0
  187.3100  173.7100  134.9650 F   0  0  0  0  0  0  0  0  0  0  0  0
  189.0880  178.6890  136.3560 O   0  0  0  0  0  0  0  0  0  0  0  0
  189.1400  175.2660  136.6970 C   0  0  0  0  0  0  0  0  0  0  0  0
  187.6390  175.3920  136.6620 C   0  0  1  0  0  0  0  0  0  0  0  0
  189.6980  174.2440  136.3140 O   0  0  0  0  0  0  0  0  0  0  0  0
  187.0700  175.0430  135.2780 C   0  0  2  0  0  3  0  0  0  0  0  0
  186.7410  178.2460  134.9820 C   0  0  0  0  0  1  0  0  0  0  0  0
  181.6810  178.5070  140.4870 C   0  0  0  0  0  0  0  0  0  0  0  0
  181.2220  177.2560  140.0880 O   0  0  0  0  0  0  0  0  0  0  0  0
  181.4620  178.9080  141.6620 O   0  0  0  0  0  1  0  0  0  0  0  0
  1 14  1  0  0  0  0
  1  7  1  1  0  0  0
  2  9  2  0  0  0  0
  3  6  1  0  0  0  0
  5  4  1  0  0  0  0
  6  1  1  0  0  0  0
  6  8  1  1  0  0  0
  7  4  1  0  0  0  0
  8  5  1  0  0  0  0
  9 10  1  0  0  0  0
 10 11  1  0  0  0  0
 10 32  1  1  0  0  0
 12  3  1  6  0  0  0
 12 14  1  0  0  0  0
 12  9  1  0  0  0  0
 13 11  1  0  0  0  0
 14 13  2  0  0  0  0
 15 31  1  6  0  0  0
 15 23  1  0  0  0  0
 18 30  1  0  0  0  0
 19 18  1  1  0  0  0
 19 15  1  0  0  0  0
 19  1  1  0  0  0  0
 20 21  1  0  0  0  0
 20 17  1  1  0  0  0
 21 26  2  6  0  0  0
 22 20  1  0  0  0  0
 23 21  1  0  0  0  0
 24 18  2  0  0  0  0
 25 30  1  0  0  0  0
 27 20  1  0  0  0  0
 28 27  1  0  0  0  0
 28 23  1  0  0  0  0
 28 16  1  0  0  0  0
 29 27  2  0  0  0  0
 30 28  1  0  0  0  0
 32 34  1  0  0  0  0
 33 32  2  0  0  0  0
M  END
>  <MODEL>
1

>  <REMARK>
 VINA RESULT:      -4.9      0.000      0.000
  Name = 
  2 active torsions:
  status: ('A' for Active; 'I' for Inactive)
    1  A    between atoms: C_1  and  C_9
    2  A    between atoms: C_3  and  C_25
                            x       y       z     vdW  Elec       q    Type
                         _______ _______ _______ _____ _____    ______ ____

>  <TORSDO>
F 2

$$$$
=
 OpenBabel11052416043D

 34 38  0  0  1  0  0  0  0  0999 V2000
  183.0910  177.2160  137.4610 C   0  0  2  0  0  0  0  0  0  0  0  0
  179.7260  175.2810  135.1100 O   0  0  0  0  0  0  0  0  0  0  0  0
  181.6100  177.2720  135.5370 O   0  0  0  0  0  0  0  0  0  0  0  0
  184.8020  175.4200  136.9060 C   0  0  0  0  0  2  0  0  0  0  0  0
  185.0170  176.0670  135.6880 O   0  0  0  0  0  0  0  0  0  0  0  0
  182.9710  177.3480  135.9220 C   0  0  2  0  0  3  0  0  0  0  0  0
  184.3450  176.4470  137.9290 C   0  0  0  0  0  2  0  0  0  0  0  0
  183.7440  176.2660  135.1490 C   0  0  0  0  0  2  0  0  0  0  0  0
  180.2060  175.4110  136.2250 C   0  0  0  0  0  0  0  0  0  0  0  0
  180.0380  174.3040  137.2490 C   0  0  2  0  0  3  0  0  0  0  0  0
  180.3580  174.7820  138.6780 C   0  0  0  0  0  2  0  0  0  0  0  0
  180.8890  176.7030  136.6100 C   0  0  1  0  0  3  0  0  0  0  0  0
  181.6290  175.5880  138.7000 C   0  0  0  0  0  3  0  0  0  0  0  0
  181.8370  176.4930  137.7310 C   0  0  0  0  0  0  0  0  0  0  0  0
  181.6560  178.9640  138.7420 C   0  0  1  0  0  3  0  0  0  0  0  0
  183.2810  177.1950  141.2630 O   0  0  0  0  0  1  0  0  0  0  0  0
  180.4300  178.0980  143.7130 C   0  0  0  0  0  1  0  0  0  0  0  0
  184.1690  178.9570  139.0570 C   0  0  0  0  0  0  0  0  0  0  0  0
  183.0200  178.6180  138.1200 C   0  0  1  0  0  3  0  0  0  0  0  0
  180.8900  179.1500  142.7200 C   0  0  1  0  0  0  0  0  0  0  0  0
  180.0510  178.8920  141.1530 S   0  0  2  0  0  0  0  0  0  0  0  0
  180.6150  180.4140  143.2190 F   0  0  0  0  0  0  0  0  0  0  0  0
  181.5320  178.4270  140.2050 C   0  0  2  0  0  3  0  0  0  0  0  0
  185.3160  178.9850  138.6360 O   0  0  0  0  0  0  0  0  0  0  0  0
  185.0410  179.3420  141.2410 F   0  0  0  0  0  0  0  0  0  0  0  0
  179.6850  180.3100  140.7250 O   0  0  0  0  0  0  0  0  0  0  0  0
  182.3590  179.0030  142.4510 C   0  0  0  0  0  0  0  0  0  0  0  0
  182.7880  178.4940  141.0990 C   0  0  1  0  0  0  0  0  0  0  0  0
  183.1830  179.2450  143.3260 O   0  0  0  0  0  0  0  0  0  0  0  0
  183.8800  179.3780  140.4770 C   0  0  2  0  0  3  0  0  0  0  0  0
  181.4640  180.4720  138.6270 C   0  0  0  0  0  1  0  0  0  0  0  0
  180.8460  173.0890  136.8980 C   0  0  0  0  0  0  0  0  0  0  0  0
  182.0140  173.2320  136.1570 O   0  0  0  0  0  0  0  0  0  0  0  0
  180.4570  171.9390  137.2370 O   0  0  0  0  0  1  0  0  0  0  0  0
  1 14  1  0  0  0  0
  1  7  1  1  0  0  0
  1 19  1  0  0  0  0
  2  9  2  0  0  0  0
  3  6  1  0  0  0  0
  4  7  1  0  0  0  0
  5  4  1  0  0  0  0
  6  8  1  6  0  0  0
  6  1  1  0  0  0  0
  8  5  1  0  0  0  0
  9 12  1  0  0  0  0
  9 10  1  0  0  0  0
 10 32  1  6  0  0  0
 10 11  1  0  0  0  0
 11 13  1  0  0  0  0
 12  3  1  6  0  0  0
 12 14  1  0  0  0  0
 14 13  2  0  0  0  0
 15 31  1  1  0  0  0
 15 23  1  0  0  0  0
 18 30  1  0  0  0  0
 19 15  1  0  0  0  0
 19 18  1  1  0  0  0
 20 22  1  0  0  0  0
 20 17  1  1  0  0  0
 21 26  2  6  0  0  0
 21 20  1  0  0  0  0
 23 28  1  0  0  0  0
 23 21  1  0  0  0  0
 24 18  2  0  0  0  0
 27 20  1  0  0  0  0
 27 29  2  0  0  0  0
 28 16  1  0  0  0  0
 28 27  1  0  0  0  0
 30 28  1  0  0  0  0
 30 25  1  0  0  0  0
 32 34  1  0  0  0  0
 33 32  2  0  0  0  0
M  END
>  <MODEL>
2

>  <REMARK>
 VINA RESULT:      -4.9      3.684      6.792
  Name = 
  2 active torsions:
  status: ('A' for Active; 'I' for Inactive)
    1  A    between atoms: C_1  and  C_9
    2  A    between atoms: C_3  and  C_25
                            x       y       z     vdW  Elec       q    Type
                         _______ _______ _______ _____ _____    ______ ____

>  <TORSDO>
F 2

$$$$
=
 OpenBabel11052416043D

 34 38  0  0  1  0  0  0  0  0999 V2000
  184.2780  174.3730  136.1040 C   0  0  2  0  0  0  0  0  0  0  0  0
  179.8940  175.5450  136.0690 O   0  0  0  0  0  0  0  0  0  0  0  0
  182.2550  174.7890  134.8260 O   0  0  0  0  0  0  0  0  0  0  0  0
  183.8890  172.1180  137.2110 C   0  0  0  0  0  2  0  0  0  0  0  0
  183.5610  171.6090  135.9530 O   0  0  0  0  0  0  0  0  0  0  0  0
  183.2850  173.8400  135.0420 C   0  0  2  0  0  3  0  0  0  0  0  0
  184.8520  173.2800  137.0310 C   0  0  0  0  0  2  0  0  0  0  0  0
  182.6250  172.5050  135.4290 C   0  0  0  0  0  2  0  0  0  0  0  0
  180.9480  175.6740  136.6730 C   0  0  0  0  0  0  0  0  0  0  0  0
  180.9300  175.9100  138.1710 C   0  0  2  0  0  3  0  0  0  0  0  0
  182.2850  176.4220  138.6940 C   0  0  0  0  0  2  0  0  0  0  0  0
  182.2560  175.6830  135.9190 C   0  0  1  0  0  3  0  0  0  0  0  0
  183.4200  175.6230  138.1100 C   0  0  0  0  0  3  0  0  0  0  0  0
  183.3870  175.3130  136.8050 C   0  0  0  0  0  0  0  0  0  0  0  0
  185.6280  176.5890  135.9700 C   0  0  1  0  0  3  0  0  0  0  0  0
  187.5110  174.5820  138.1040 O   0  0  0  0  0  1  0  0  0  0  0  0
  188.9960  177.7500  139.7470 C   0  0  0  0  0  1  0  0  0  0  0  0
  186.7300  174.4240  135.2540 C   0  0  0  0  0  0  0  0  0  0  0  0
  185.4150  175.1700  135.4150 C   0  0  1  0  0  3  0  0  0  0  0  0
  188.7780  177.7500  138.2450 C   0  0  1  0  0  0  0  0  0  0  0  0
  187.0750  178.2000  137.8940 S   0  0  2  0  0  0  0  0  0  0  0  0
  189.6530  178.6440  137.6460 F   0  0  0  0  0  0  0  0  0  0  0  0
  186.5760  176.5890  137.2130 C   0  0  2  0  0  3  0  0  0  0  0  0
  186.7740  173.3940  134.5980 O   0  0  0  0  0  0  0  0  0  0  0  0
  189.0150  174.0690  135.8280 F   0  0  0  0  0  0  0  0  0  0  0  0
  187.2110  179.1530  136.7110 O   0  0  0  0  0  0  0  0  0  0  0  0
  188.9810  176.3710  137.6910 C   0  0  0  0  0  0  0  0  0  0  0  0
  187.7730  175.6160  137.1980 C   0  0  1  0  0  0  0  0  0  0  0  0
  190.0940  175.8560  137.6850 O   0  0  0  0  0  0  0  0  0  0  0  0
  188.0030  175.0220  135.8000 C   0  0  2  0  0  3  0  0  0  0  0  0
  186.1230  177.4650  134.8240 C   0  0  0  0  0  1  0  0  0  0  0  0
  180.4930  174.6890  138.9260 C   0  0  0  0  0  0  0  0  0  0  0  0
  180.0190  174.8190  140.2270 O   0  0  0  0  0  1  0  0  0  0  0  0
  180.5850  173.5440  138.4050 O   0  0  0  0  0  0  0  0  0  0  0  0
  1 14  1  0  0  0  0
  1  7  1  1  0  0  0
  2  9  2  0  0  0  0
  3  6  1  0  0  0  0
  5  4  1  0  0  0  0
  6  8  1  1  0  0  0
  6  1  1  0  0  0  0
  7  4  1  0  0  0  0
  8  5  1  0  0  0  0
  9 10  1  0  0  0  0
 10 11  1  0  0  0  0
 10 32  1  1  0  0  0
 12  3  1  6  0  0  0
 12  9  1  0  0  0  0
 12 14  1  0  0  0  0
 13 11  1  0  0  0  0
 14 13  2  0  0  0  0
 15 31  1  6  0  0  0
 15 23  1  0  0  0  0
 18 30  1  0  0  0  0
 19 18  1  1  0  0  0
 19 15  1  0  0  0  0
 19  1  1  0  0  0  0
 20 17  1  1  0  0  0
 21 26  2  6  0  0  0
 21 20  1  0  0  0  0
 22 20  1  0  0  0  0
 23 21  1  0  0  0  0
 24 18  2  0  0  0  0
 27 20  1  0  0  0  0
 28 23  1  0  0  0  0
 28 27  1  0  0  0  0
 28 16  1  0  0  0  0
 29 27  2  0  0  0  0
 30 25  1  0  0  0  0
 30 28  1  0  0  0  0
 32 33  1  0  0  0  0
 34 32  2  0  0  0  0
M  END
>  <MODEL>
3

>  <REMARK>
 VINA RESULT:      -4.7      2.178      2.787
  Name = 
  2 active torsions:
  status: ('A' for Active; 'I' for Inactive)
    1  A    between atoms: C_1  and  C_9
    2  A    between atoms: C_3  and  C_25
                            x       y       z     vdW  Elec       q    Type
                         _______ _______ _______ _____ _____    ______ ____

>  <TORSDO>
F 2

$$$$
=
 OpenBabel11052416043D

 34 38  0  0  1  0  0  0  0  0999 V2000
  185.0700  175.8920  136.3130 C   0  0  2  0  0  0  0  0  0  0  0  0
  181.0030  177.8040  135.6860 O   0  0  0  0  0  0  0  0  0  0  0  0
  183.3900  176.7280  134.7720 O   0  0  0  0  0  0  0  0  0  0  0  0
  184.1410  173.6750  137.1390 C   0  0  0  0  0  2  0  0  0  0  0  0
  183.9560  173.3080  135.8050 O   0  0  0  0  0  0  0  0  0  0  0  0
  184.2020  175.6040  135.0630 C   0  0  2  0  0  3  0  0  0  0  0  0
  185.2940  174.6620  137.2180 C   0  0  0  0  0  2  0  0  0  0  0  0
  183.2810  174.3820  135.2200 C   0  0  0  0  0  2  0  0  0  0  0  0
  181.9440  177.7120  136.4590 C   0  0  0  0  0  0  0  0  0  0  0  0
  181.7070  177.8550  137.9510 C   0  0  2  0  0  3  0  0  0  0  0  0
  183.0170  178.0930  138.7260 C   0  0  0  0  0  2  0  0  0  0  0  0
  183.3470  177.5400  135.9260 C   0  0  1  0  0  3  0  0  0  0  0  0
  184.0920  177.1470  138.2600 C   0  0  0  0  0  3  0  0  0  0  0  0
  184.2340  176.9270  136.9440 C   0  0  0  0  0  0  0  0  0  0  0  0
  186.9410  177.6210  136.8300 C   0  0  1  0  0  3  0  0  0  0  0  0
  188.0860  174.6770  138.2950 O   0  0  0  0  0  1  0  0  0  0  0  0
  190.1860  176.7540  140.7890 C   0  0  0  0  0  1  0  0  0  0  0  0
  187.5160  175.5320  135.5190 C   0  0  0  0  0  0  0  0  0  0  0  0
  186.4210  176.5220  135.8870 C   0  0  1  0  0  3  0  0  0  0  0  0
  190.0930  177.2300  139.3500 C   0  0  1  0  0  0  0  0  0  0  0  0
  188.5900  178.1920  139.1410 S   0  0  2  0  0  0  0  0  0  0  0  0
  191.2080  177.9930  139.0390 F   0  0  0  0  0  0  0  0  0  0  0  0
  187.7580  177.0260  138.0210 C   0  0  2  0  0  3  0  0  0  0  0  0
  187.3510  174.7510  134.5940 O   0  0  0  0  0  0  0  0  0  0  0  0
  189.5860  174.4420  135.9710 F   0  0  0  0  0  0  0  0  0  0  0  0
  189.0530  179.3660  138.2850 O   0  0  0  0  0  0  0  0  0  0  0  0
  189.9860  176.0570  138.4210 C   0  0  0  0  0  0  0  0  0  0  0  0
  188.6690  175.8150  137.7280 C   0  0  1  0  0  0  0  0  0  0  0  0
  190.9300  175.2910  138.2690 O   0  0  0  0  0  0  0  0  0  0  0  0
  188.8510  175.5960  136.2190 C   0  0  2  0  0  3  0  0  0  0  0  0
  187.7270  178.6190  135.9880 C   0  0  0  0  0  1  0  0  0  0  0  0
  180.9570  176.6840  138.5150 C   0  0  0  0  0  0  0  0  0  0  0  0
  181.0490  175.4450  137.8900 O   0  0  0  0  0  0  0  0  0  0  0  0
  180.2180  176.8220  139.5270 O   0  0  0  0  0  1  0  0  0  0  0  0
  1 14  1  0  0  0  0
  1  7  1  1  0  0  0
  2  9  2  0  0  0  0
  3  6  1  0  0  0  0
  4  7  1  0  0  0  0
  5  4  1  0  0  0  0
  6  8  1  1  0  0  0
  6  1  1  0  0  0  0
  8  5  1  0  0  0  0
  9 10  1  0  0  0  0
 10 32  1  1  0  0  0
 10 11  1  0  0  0  0
 12  3  1  6  0  0  0
 12  9  1  0  0  0  0
 12 14  1  0  0  0  0
 13 11  1  0  0  0  0
 14 13  2  0  0  0  0
 15 31  1  6  0  0  0
 15 23  1  0  0  0  0
 18 30  1  0  0  0  0
 19 18  1  1  0  0  0
 19  1  1  0  0  0  0
 19 15  1  0  0  0  0
 20 17  1  1  0  0  0
 21 26  2  6  0  0  0
 21 20  1  0  0  0  0
 22 20  1  0  0  0  0
 23 21  1  0  0  0  0
 24 18  2  0  0  0  0
 25 30  1  0  0  0  0
 27 20  1  0  0  0  0
 28 23  1  0  0  0  0
 28 16  1  0  0  0  0
 28 27  1  0  0  0  0
 29 27  2  0  0  0  0
 30 28  1  0  0  0  0
 32 34  1  0  0  0  0
 33 32  2  0  0  0  0
M  END
>  <MODEL>
4

>  <REMARK>
 VINA RESULT:      -4.7      1.670      2.108
  Name = 
  2 active torsions:
  status: ('A' for Active; 'I' for Inactive)
    1  A    between atoms: C_1  and  C_9
    2  A    between atoms: C_3  and  C_25
                            x       y       z     vdW  Elec       q    Type
                         _______ _______ _______ _____ _____    ______ ____

>  <TORSDO>
F 2

$$$$
=
 OpenBabel11052416043D

 34 38  0  0  1  0  0  0  0  0999 V2000
  186.0280  177.7760  137.6850 C   0  0  2  0  0  0  0  0  0  0  0  0
  188.8340  175.9970  134.5940 O   0  0  0  0  0  0  0  0  0  0  0  0
  187.3120  178.0640  135.6440 O   0  0  0  0  0  0  0  0  0  0  0  0
  187.7590  177.8190  139.5470 C   0  0  0  0  0  2  0  0  0  0  0  0
  188.2400  179.0140  139.0090 O   0  0  0  0  0  0  0  0  0  0  0  0
  187.0690  178.6300  136.9200 C   0  0  2  0  0  3  0  0  0  0  0  0
  186.2830  177.6900  139.2050 C   0  0  0  0  0  2  0  0  0  0  0  0
  188.4180  178.7570  137.6470 C   0  0  0  0  0  2  0  0  0  0  0  0
  187.9560  175.7340  135.4000 C   0  0  0  0  0  0  0  0  0  0  0  0
  187.9310  174.3700  136.0640 C   0  0  2  0  0  3  0  0  0  0  0  0
  186.5760  174.0770  136.7370 C   0  0  0  0  0  2  0  0  0  0  0  0
  186.8520  176.7300  135.6690 C   0  0  1  0  0  3  0  0  0  0  0  0
  186.1050  175.2670  137.5300 C   0  0  0  0  0  3  0  0  0  0  0  0
  186.2290  176.4910  136.9940 C   0  0  0  0  0  0  0  0  0  0  0  0
  183.6070  177.2080  136.9320 C   0  0  1  0  0  3  0  0  0  0  0  0
  183.4740  177.0230  140.4060 O   0  0  0  0  0  1  0  0  0  0  0  0
  180.4920  174.5780  140.1470 C   0  0  0  0  0  1  0  0  0  0  0  0
  183.9940  179.1900  138.4600 C   0  0  0  0  0  0  0  0  0  0  0  0
  184.5970  178.2930  137.3900 C   0  0  1  0  0  3  0  0  0  0  0  0
  180.5610  175.7380  139.1700 C   0  0  1  0  0  0  0  0  0  0  0  0
  181.6160  175.2860  137.7880 S   0  0  2  0  0  0  0  0  0  0  0  0
  179.2860  176.0540  138.7280 F   0  0  0  0  0  0  0  0  0  0  0  0
  182.9400  176.4810  138.1440 C   0  0  2  0  0  3  0  0  0  0  0  0
  184.5380  180.2450  138.7530 O   0  0  0  0  0  0  0  0  0  0  0  0
  182.4360  179.5900  140.2170 F   0  0  0  0  0  0  0  0  0  0  0  0
  180.8510  175.8260  136.5840 O   0  0  0  0  0  0  0  0  0  0  0  0
  181.1980  176.9290  139.8250 C   0  0  0  0  0  0  0  0  0  0  0  0
  182.5790  177.3340  139.3780 C   0  0  1  0  0  0  0  0  0  0  0  0
  180.6260  177.5240  140.7310 O   0  0  0  0  0  0  0  0  0  0  0  0
  182.6600  178.8380  139.0700 C   0  0  2  0  0  3  0  0  0  0  0  0
  182.6060  177.8640  135.9870 C   0  0  0  0  0  1  0  0  0  0  0  0
  189.0590  174.2000  137.0380 C   0  0  0  0  0  0  0  0  0  0  0  0
  189.5520  175.3080  137.7180 O   0  0  0  0  0  1  0  0  0  0  0  0
  189.5870  173.0690  137.2190 O   0  0  0  0  0  0  0  0  0  0  0  0
  1  7  1  1  0  0  0
  2  9  2  0  0  0  0
  3 12  1  0  0  0  0
  3  6  1  0  0  0  0
  5  4  1  0  0  0  0
  6  8  1  1  0  0  0
  6  1  1  0  0  0  0
  7  4  1  0  0  0  0
  8  5  1  0  0  0  0
  9 10  1  0  0  0  0
 10 11  1  0  0  0  0
 10 32  1  1  0  0  0
 11 13  1  0  0  0  0
 12  9  1  1  0  0  0
 12 14  1  0  0  0  0
 14 13  2  0  0  0  0
 14  1  1  0  0  0  0
 15 31  1  6  0  0  0
 15 19  1  0  0  0  0
 15 23  1  0  0  0  0
 18 24  2  0  0  0  0
 18 30  1  0  0  0  0
 19  1  1  0  0  0  0
 19 18  1  1  0  0  0
 20 27  1  0  0  0  0
 20 17  1  1  0  0  0
 21 26  2  6  0  0  0
 21 23  1  0  0  0  0
 21 20  1  0  0  0  0
 22 20  1  0  0  0  0
 23 28  1  0  0  0  0
 27 29  2  0  0  0  0
 28 27  1  0  0  0  0
 28 16  1  0  0  0  0
 30 28  1  0  0  0  0
 30 25  1  0  0  0  0
 32 34  2  0  0  0  0
 32 33  1  0  0  0  0
M  END
>  <MODEL>
5

>  <REMARK>
 VINA RESULT:      -4.6      3.200      7.268
  Name = 
  2 active torsions:
  status: ('A' for Active; 'I' for Inactive)
    1  A    between atoms: C_1  and  C_9
    2  A    between atoms: C_3  and  C_25
                            x       y       z     vdW  Elec       q    Type
                         _______ _______ _______ _____ _____    ______ ____

>  <TORSDO>
F 2

$$$$
=
 OpenBabel11052416043D

 34 38  0  0  1  0  0  0  0  0999 V2000
  193.0020  175.2770  137.1690 C   0  0  2  0  0  0  0  0  0  0  0  0
  195.8140  171.8300  136.2670 O   0  0  0  0  0  0  0  0  0  0  0  0
  193.3650  173.1220  136.1080 O   0  0  0  0  0  0  0  0  0  0  0  0
  194.2170  176.9410  135.6800 C   0  0  0  0  0  2  0  0  0  0  0  0
  193.5250  176.4030  134.5940 O   0  0  0  0  0  0  0  0  0  0  0  0
  192.8980  174.4390  135.8700 C   0  0  2  0  0  3  0  0  0  0  0  0
  193.3770  176.7560  136.9330 C   0  0  0  0  0  2  0  0  0  0  0  0
  193.7020  175.0210  134.6950 C   0  0  0  0  0  2  0  0  0  0  0  0
  195.5590  172.7160  137.0690 C   0  0  0  0  0  0  0  0  0  0  0  0
  196.6760  173.3220  137.8980 C   0  0  2  0  0  3  0  0  0  0  0  0
  196.1380  174.1250  139.0980 C   0  0  0  0  0  2  0  0  0  0  0  0
  194.1280  173.1430  137.2960 C   0  0  1  0  0  3  0  0  0  0  0  0
  194.9960  175.0120  138.6780 C   0  0  0  0  0  3  0  0  0  0  0  0
  194.0620  174.5160  137.8530 C   0  0  0  0  0  0  0  0  0  0  0  0
  191.0870  176.5050  138.4250 C   0  0  1  0  0  3  0  0  0  0  0  0
  189.8410  176.0740  135.2030 O   0  0  0  0  0  1  0  0  0  0  0  0
  187.5330  179.1340  135.7030 C   0  0  0  0  0  1  0  0  0  0  0  0
  190.6320  174.2400  137.3870 C   0  0  0  0  0  0  0  0  0  0  0  0
  191.6880  175.1590  137.9820 C   0  0  1  0  0  3  0  0  0  0  0  0
  187.7400  178.1870  136.8720 C   0  0  1  0  0  0  0  0  0  0  0  0
  189.2510  178.6360  137.7350 S   0  0  2  0  0  0  0  0  0  0  0  0
  186.6510  178.2550  137.7260 F   0  0  0  0  0  0  0  0  0  0  0  0
  190.1780  177.1280  137.3170 C   0  0  2  0  0  3  0  0  0  0  0  0
  190.8770  173.0550  137.2190 O   0  0  0  0  0  0  0  0  0  0  0  0
  188.5370  173.8860  136.3090 F   0  0  0  0  0  0  0  0  0  0  0  0
  188.8540  178.5130  139.2030 O   0  0  0  0  0  0  0  0  0  0  0  0
  187.9300  176.7840  136.3750 C   0  0  0  0  0  0  0  0  0  0  0  0
  189.3000  176.1670  136.4900 C   0  0  1  0  0  0  0  0  0  0  0  0
  187.0050  176.1770  135.8480 O   0  0  0  0  0  0  0  0  0  0  0  0
  189.2440  174.7670  137.1210 C   0  0  2  0  0  3  0  0  0  0  0  0
  190.3680  176.2770  139.7490 C   0  0  0  0  0  1  0  0  0  0  0  0
  197.6000  174.1610  137.0640 C   0  0  0  0  0  0  0  0  0  0  0  0
  198.9020  174.3860  137.4980 O   0  0  0  0  0  1  0  0  0  0  0  0
  197.1960  174.6930  135.9950 O   0  0  0  0  0  0  0  0  0  0  0  0
  1  7  1  6  0  0  0
  1 14  1  0  0  0  0
  1 19  1  0  0  0  0
  2  9  2  0  0  0  0
  4  7  1  0  0  0  0
  5  8  1  0  0  0  0
  5  4  1  0  0  0  0
  6  8  1  6  0  0  0
  6  3  1  0  0  0  0
  6  1  1  0  0  0  0
  9 12  1  0  0  0  0
  9 10  1  0  0  0  0
 10 32  1  6  0  0  0
 10 11  1  0  0  0  0
 12  3  1  6  0  0  0
 12 14  1  0  0  0  0
 13 11  1  0  0  0  0
 14 13  2  0  0  0  0
 15 31  1  1  0  0  0
 16 28  1  0  0  0  0
 19 18  1  6  0  0  0
 19 15  1  0  0  0  0
 20 17  1  6  0  0  0
 20 22  1  0  0  0  0
 20 21  1  0  0  0  0
 21 26  2  1  0  0  0
 23 21  1  0  0  0  0
 23 15  1  0  0  0  0
 24 18  2  0  0  0  0
 25 30  1  0  0  0  0
 27 28  1  0  0  0  0
 27 20  1  0  0  0  0
 28 30  1  0  0  0  0
 28 23  1  0  0  0  0
 29 27  2  0  0  0  0
 30 18  1  0  0  0  0
 32 33  1  0  0  0  0
 34 32  2  0  0  0  0
M  END
>  <MODEL>
6

>  <REMARK>
 VINA RESULT:      -4.5      4.359     10.048
  Name = 
  2 active torsions:
  status: ('A' for Active; 'I' for Inactive)
    1  A    between atoms: C_1  and  C_9
    2  A    between atoms: C_3  and  C_25
                            x       y       z     vdW  Elec       q    Type
                         _______ _______ _______ _____ _____    ______ ____

>  <TORSDO>
F 2

$$$$
=
 OpenBabel11052416043D

 34 38  0  0  1  0  0  0  0  0999 V2000
  188.0120  176.3080  136.4380 C   0  0  2  0  0  0  0  0  0  0  0  0
  192.2470  176.3990  134.8090 O   0  0  0  0  0  0  0  0  0  0  0  0
  189.6210  177.2880  134.9050 O   0  0  0  0  0  0  0  0  0  0  0  0
  188.6370  177.2470  138.7160 C   0  0  0  0  0  2  0  0  0  0  0  0
  188.6010  178.5210  138.1490 O   0  0  0  0  0  0  0  0  0  0  0  0
  188.6680  177.6060  135.9040 C   0  0  2  0  0  3  0  0  0  0  0  0
  187.6870  176.3440  137.9470 C   0  0  0  0  0  2  0  0  0  0  0  0
  189.3780  178.4300  136.9920 C   0  0  0  0  0  2  0  0  0  0  0  0
  191.3990  175.6850  135.3230 C   0  0  0  0  0  0  0  0  0  0  0  0
  191.8280  174.5130  136.1850 C   0  0  2  0  0  3  0  0  0  0  0  0
  190.6760  173.5180  136.4260 C   0  0  0  0  0  2  0  0  0  0  0  0
  189.9360  175.9170  135.0300 C   0  0  1  0  0  3  0  0  0  0  0  0
  189.4080  174.2470  136.7880 C   0  0  0  0  0  3  0  0  0  0  0  0
  189.0800  175.3510  136.1010 C   0  0  0  0  0  0  0  0  0  0  0  0
  185.9290  174.7830  136.1380 C   0  0  1  0  0  3  0  0  0  0  0  0
  184.7340  177.4890  137.9740 O   0  0  0  0  0  1  0  0  0  0  0  0
  181.9360  175.2510  139.4240 C   0  0  0  0  0  1  0  0  0  0  0  0
  185.8610  177.1560  135.2580 C   0  0  0  0  0  0  0  0  0  0  0  0
  186.7480  175.9710  135.6050 C   0  0  1  0  0  3  0  0  0  0  0  0
  182.3210  175.0730  137.9660 C   0  0  1  0  0  0  0  0  0  0  0  0
  183.7410  173.9790  137.8570 S   0  0  2  0  0  0  0  0  0  0  0  0
  181.2470  174.5520  137.2600 F   0  0  0  0  0  0  0  0  0  0  0  0
  184.9110  175.2260  137.2380 C   0  0  2  0  0  3  0  0  0  0  0  0
  186.3050  178.0810  134.5940 O   0  0  0  0  0  0  0  0  0  0  0  0
  183.8450  178.4030  135.5080 F   0  0  0  0  0  0  0  0  0  0  0  0
  183.3910  173.0810  136.6750 O   0  0  0  0  0  0  0  0  0  0  0  0
  182.7450  176.3870  137.3770 C   0  0  0  0  0  0  0  0  0  0  0  0
  184.2030  176.5830  137.0500 C   0  0  1  0  0  0  0  0  0  0  0  0
  181.9330  177.2900  137.2140 O   0  0  0  0  0  0  0  0  0  0  0  0
  184.3990  177.1330  135.6290 C   0  0  2  0  0  3  0  0  0  0  0  0
  185.2770  174.0980  134.9420 C   0  0  0  0  0  1  0  0  0  0  0  0
  192.4260  174.9630  137.4860 C   0  0  0  0  0  0  0  0  0  0  0  0
  193.5310  174.2950  138.0010 O   0  0  0  0  0  0  0  0  0  0  0  0
  191.9140  175.9170  138.1320 O   0  0  0  0  0  1  0  0  0  0  0  0
  1  7  1  1  0  0  0
  2  9  2  0  0  0  0
  3  6  1  0  0  0  0
  5  4  1  0  0  0  0
  6  1  1  0  0  0  0
  6  8  1  1  0  0  0
  7  4  1  0  0  0  0
  8  5  1  0  0  0  0
  9 10  1  0  0  0  0
 10 11  1  0  0  0  0
 10 32  1  1  0  0  0
 11 13  1  0  0  0  0
 12  3  1  1  0  0  0
 12  9  1  0  0  0  0
 12 14  1  0  0  0  0
 14  1  1  0  0  0  0
 14 13  2  0  0  0  0
 15 31  1  6  0  0  0
 15 23  1  0  0  0  0
 18 30  1  0  0  0  0
 19 18  1  1  0  0  0
 19 15  1  0  0  0  0
 19  1  1  0  0  0  0
 20 17  1  1  0  0  0
 21 26  2  6  0  0  0
 21 20  1  0  0  0  0
 22 20  1  0  0  0  0
 23 21  1  0  0  0  0
 24 18  2  0  0  0  0
 25 30  1  0  0  0  0
 27 20  1  0  0  0  0
 28 23  1  0  0  0  0
 28 27  1  0  0  0  0
 28 16  1  0  0  0  0
 29 27  2  0  0  0  0
 30 28  1  0  0  0  0
 32 33  2  0  0  0  0
 32 34  1  0  0  0  0
M  END
>  <MODEL>
7

>  <REMARK>
 VINA RESULT:      -4.0      2.929      7.533
  Name = 
  2 active torsions:
  status: ('A' for Active; 'I' for Inactive)
    1  A    between atoms: C_1  and  C_9
    2  A    between atoms: C_3  and  C_25
                            x       y       z     vdW  Elec       q    Type
                         _______ _______ _______ _____ _____    ______ ____

>  <TORSDO>
F 2

$$$$
=
 OpenBabel11052416043D

 34 38  0  0  1  0  0  0  0  0999 V2000
  184.5140  176.3300  136.6820 C   0  0  2  0  0  0  0  0  0  0  0  0
  180.2060  175.4920  135.5230 O   0  0  0  0  0  0  0  0  0  0  0  0
  182.6990  176.6310  135.0960 O   0  0  0  0  0  0  0  0  0  0  0  0
  185.3050  173.9430  136.3110 C   0  0  0  0  0  2  0  0  0  0  0  0
  185.4070  174.2380  134.9510 O   0  0  0  0  0  0  0  0  0  0  0  0
  184.0550  176.2350  135.2060 C   0  0  2  0  0  3  0  0  0  0  0  0
  185.5040  175.2240  137.1040 C   0  0  0  0  0  2  0  0  0  0  0  0
  184.1850  174.8230  134.6100 C   0  0  0  0  0  2  0  0  0  0  0  0
  180.9710  175.6120  136.4680 C   0  0  0  0  0  0  0  0  0  0  0  0
  180.7040  174.8490  137.7520 C   0  0  2  0  0  3  0  0  0  0  0  0
  181.5230  175.4000  138.9350 C   0  0  0  0  0  2  0  0  0  0  0  0
  182.1290  176.5800  136.3870 C   0  0  1  0  0  3  0  0  0  0  0  0
  182.9540  175.6370  138.5290 C   0  0  0  0  0  3  0  0  0  0  0  0
  183.2020  176.2110  137.3420 C   0  0  0  0  0  0  0  0  0  0  0  0
  184.9970  178.1880  138.4340 C   0  0  1  0  0  3  0  0  0  0  0  0
  187.9370  176.3240  138.3470 O   0  0  0  0  0  1  0  0  0  0  0  0
  188.7400  177.4510  141.9560 C   0  0  0  0  0  1  0  0  0  0  0  0
  186.4810  177.9990  136.3900 C   0  0  0  0  0  0  0  0  0  0  0  0
  185.0970  177.7380  136.9660 C   0  0  1  0  0  3  0  0  0  0  0  0
  188.1220  178.4600  141.0050 C   0  0  1  0  0  0  0  0  0  0  0  0
  186.3370  178.2520  141.0020 S   0  0  2  0  0  0  0  0  0  0  0  0
  188.4630  179.7440  141.4000 F   0  0  0  0  0  0  0  0  0  0  0  0
  186.2040  177.6730  139.2830 C   0  0  2  0  0  3  0  0  0  0  0  0
  186.6630  177.9400  135.1830 O   0  0  0  0  0  0  0  0  0  0  0  0
  188.8250  178.3360  136.6530 F   0  0  0  0  0  0  0  0  0  0  0  0
  185.8270  179.6900  141.0190 O   0  0  0  0  0  0  0  0  0  0  0  0
  188.5870  178.2040  139.6020 C   0  0  0  0  0  0  0  0  0  0  0  0
  187.5930  177.6540  138.6110 C   0  0  1  0  0  0  0  0  0  0  0  0
  189.7560  178.3910  139.2870 O   0  0  0  0  0  0  0  0  0  0  0  0
  187.5980  178.4510  137.2980 C   0  0  2  0  0  3  0  0  0  0  0  0
  184.8470  179.7050  138.4440 C   0  0  0  0  0  1  0  0  0  0  0  0
  180.9300  173.3750  137.5850 C   0  0  0  0  0  0  0  0  0  0  0  0
  181.9300  172.9260  136.7300 O   0  0  0  0  0  0  0  0  0  0  0  0
  180.1980  172.5410  138.1850 O   0  0  0  0  0  1  0  0  0  0  0  0
  1 19  1  0  0  0  0
  1  7  1  1  0  0  0
  1 14  1  0  0  0  0
  2  9  2  0  0  0  0
  3  6  1  0  0  0  0
  4  7  1  0  0  0  0
  5  4  1  0  0  0  0
  6  8  1  1  0  0  0
  6  1  1  0  0  0  0
  8  5  1  0  0  0  0
  9 10  1  0  0  0  0
 10 32  1  6  0  0  0
 10 11  1  0  0  0  0
 12  3  1  6  0  0  0
 12  9  1  0  0  0  0
 12 14  1  0  0  0  0
 13 11  1  0  0  0  0
 14 13  2  0  0  0  0
 15 31  1  6  0  0  0
 15 23  1  0  0  0  0
 16 28  1  0  0  0  0
 18 30  1  0  0  0  0
 19 18  1  1  0  0  0
 19 15  1  0  0  0  0
 20 22  1  0  0  0  0
 20 17  1  1  0  0  0
 21 20  1  0  0  0  0
 21 26  2  6  0  0  0
 23 21  1  0  0  0  0
 24 18  2  0  0  0  0
 25 30  1  0  0  0  0
 27 20  1  0  0  0  0
 28 23  1  0  0  0  0
 28 27  1  0  0  0  0
 29 27  2  0  0  0  0
 30 28  1  0  0  0  0
 32 34  1  0  0  0  0
 33 32  2  0  0  0  0
M  END
>  <MODEL>
8

>  <REMARK>
 VINA RESULT:      -4.0      2.646      4.043
  Name = 
  2 active torsions:
  status: ('A' for Active; 'I' for Inactive)
    1  A    between atoms: C_1  and  C_9
    2  A    between atoms: C_3  and  C_25
                            x       y       z     vdW  Elec       q    Type
                         _______ _______ _______ _____ _____    ______ ____

>  <TORSDO>
F 2

$$$$
=
 OpenBabel11052416043D

 34 38  0  0  1  0  0  0  0  0999 V2000
  193.2400  174.6070  136.9460 C   0  0  2  0  0  0  0  0  0  0  0  0
  190.0530  177.4590  138.4660 O   0  0  0  0  0  0  0  0  0  0  0  0
  192.6490  176.4850  138.3680 O   0  0  0  0  0  0  0  0  0  0  0  0
  193.2860  175.5700  134.5940 C   0  0  0  0  0  2  0  0  0  0  0  0
  194.1320  176.5720  135.0700 O   0  0  0  0  0  0  0  0  0  0  0  0
  193.5620  176.0610  137.3720 C   0  0  2  0  0  3  0  0  0  0  0  0
  193.4750  174.3260  135.4460 C   0  0  0  0  0  2  0  0  0  0  0  0
  193.5010  177.0710  136.2130 C   0  0  0  0  0  2  0  0  0  0  0  0
  190.2480  176.3370  138.0240 C   0  0  0  0  0  0  0  0  0  0  0  0
  189.1540  175.6410  137.2360 C   0  0  2  0  0  3  0  0  0  0  0  0
  189.4150  174.1300  137.0920 C   0  0  0  0  0  2  0  0  0  0  0  0
  191.5380  175.6150  138.3330 C   0  0  1  0  0  3  0  0  0  0  0  0
  190.8480  173.8690  136.7100 C   0  0  0  0  0  3  0  0  0  0  0  0
  191.8170  174.5640  137.3240 C   0  0  0  0  0  0  0  0  0  0  0  0
  194.3730  172.2770  137.1390 C   0  0  1  0  0  3  0  0  0  0  0  0
  196.9600  174.3950  136.1650 O   0  0  0  0  0  1  0  0  0  0  0  0
  198.8110  171.3870  134.5940 C   0  0  0  0  0  1  0  0  0  0  0  0
  195.2310  174.1910  138.5580 C   0  0  0  0  0  0  0  0  0  0  0  0
  194.0300  173.6090  137.8290 C   0  0  1  0  0  3  0  0  0  0  0  0
  198.0780  171.1780  135.9080 C   0  0  1  0  0  0  0  0  0  0  0  0
  196.3450  170.8460  135.5710 S   0  0  2  0  0  0  0  0  0  0  0  0
  198.6520  170.1240  136.6000 F   0  0  0  0  0  0  0  0  0  0  0  0
  195.6980  172.3750  136.3140 C   0  0  2  0  0  3  0  0  0  0  0  0
  195.0790  175.1000  139.3600 O   0  0  0  0  0  0  0  0  0  0  0  0
  197.5840  174.4080  138.8700 F   0  0  0  0  0  0  0  0  0  0  0  0
  196.0190  169.7160  136.5420 O   0  0  0  0  0  0  0  0  0  0  0  0
  198.1230  172.4310  136.7320 C   0  0  0  0  0  0  0  0  0  0  0  0
  196.8480  173.2150  136.9080 C   0  0  1  0  0  0  0  0  0  0  0  0
  199.1800  172.8300  137.2070 O   0  0  0  0  0  0  0  0  0  0  0  0
  196.5920  173.5640  138.3820 C   0  0  2  0  0  3  0  0  0  0  0  0
  194.4000  171.1930  138.2110 C   0  0  0  0  0  1  0  0  0  0  0  0
  188.9390  176.2770  135.8940 C   0  0  0  0  0  0  0  0  0  0  0  0
  190.0170  176.8410  135.2210 O   0  0  0  0  0  0  0  0  0  0  0  0
  187.7850  176.3350  135.3880 O   0  0  0  0  0  1  0  0  0  0  0  0
  1  7  1  6  0  0  0
  1 14  1  0  0  0  0
  1  6  1  0  0  0  0
  1 19  1  0  0  0  0
  4  5  1  0  0  0  0
  4  7  1  0  0  0  0
  5  8  1  0  0  0  0
  6  8  1  6  0  0  0
  6  3  1  0  0  0  0
  9 12  1  0  0  0  0
  9  2  2  0  0  0  0
 10 32  1  6  0  0  0
 10  9  1  0  0  0  0
 11 10  1  0  0  0  0
 12 14  1  6  0  0  0
 12  3  1  0  0  0  0
 13 11  1  0  0  0  0
 13 14  2  0  0  0  0
 15 19  1  0  0  0  0
 15 31  1  1  0  0  0
 16 28  1  0  0  0  0
 18 24  2  0  0  0  0
 19 18  1  6  0  0  0
 20 17  1  6  0  0  0
 20 22  1  0  0  0  0
 20 27  1  0  0  0  0
 21 20  1  0  0  0  0
 21 23  1  0  0  0  0
 21 26  2  1  0  0  0
 23 28  1  0  0  0  0
 23 15  1  0  0  0  0
 27 28  1  0  0  0  0
 27 29  2  0  0  0  0
 28 30  1  0  0  0  0
 30 18  1  0  0  0  0
 30 25  1  0  0  0  0
 33 32  2  0  0  0  0
 34 32  1  0  0  0  0
M  END
>  <MODEL>
9

>  <REMARK>
 VINA RESULT:      -3.7      5.992     10.011
  Name = 
  2 active torsions:
  status: ('A' for Active; 'I' for Inactive)
    1  A    between atoms: C_1  and  C_9
    2  A    between atoms: C_3  and  C_25
                            x       y       z     vdW  Elec       q    Type
                         _______ _______ _______ _____ _____    ______ ____

>  <TORSDO>
F 2

$$$$
