=
 OpenBabel11052415233D

 37 42  0  0  1  0  0  0  0  0999 V2000
  184.3290  175.7120  136.5550 C   0  0  2  0  0  3  0  0  0  0  0  0
  182.9130  177.7880  137.7750 C   0  0  0  0  0  2  0  0  0  0  0  0
  186.5300  176.7290  137.5530 C   0  0  1  0  0  3  0  0  0  0  0  0
  185.6420  177.9520  137.9580 C   0  0  1  0  0  3  0  0  0  0  0  0
  184.2810  177.3620  138.2380 C   0  0  2  0  0  3  0  0  0  0  0  0
  185.8800  175.7730  136.5050 C   0  0  0  0  0  2  0  0  0  0  0  0
  183.8480  177.1510  136.7780 C   0  0  1  0  0  3  0  0  0  0  0  0
  191.7990  176.2640  138.5840 O   0  0  0  0  0  0  0  0  0  0  0  0
  187.9280  177.0460  137.1780 N   0  0  1  0  0  0  0  0  0  0  0  0
  190.2090  175.9070  136.8360 C   0  0  1  0  0  3  0  0  0  0  0  0
  188.8430  175.9330  137.5560 C   0  0  1  0  0  3  0  0  0  0  0  0
  190.0130  176.2310  135.3670 C   0  0  0  0  0  2  0  0  0  0  0  0
  188.9290  175.6980  138.9520 O   0  0  0  0  0  0  0  0  0  0  0  0
  190.4140  176.8470  140.4500 C   0  0  0  0  0  2  0  0  0  0  0  0
  187.1500  178.5530  135.3870 C   0  0  0  0  0  1  0  0  0  0  0  0
  189.3130  177.4990  135.2430 N   0  0  0  0  0  2  0  0  0  0  0  0
  189.1390  176.9140  139.6270 C   0  0  0  0  0  2  0  0  0  0  0  0
  187.9500  177.3030  135.7230 C   0  0  1  0  0  3  0  0  0  0  0  0
  191.2500  176.8430  137.4370 C   0  0  0  0  0  2  0  0  0  0  0  0
  191.6140  177.2160  139.5890 C   0  0  0  0  0  2  0  0  0  0  0  0
  183.7650  174.6480  137.5200 C   0  0  2  0  0  3  0  0  0  0  0  0
  184.7030  173.4520  137.6350 C   0  0  0  0  0  2  0  0  0  0  0  0
  184.9590  171.6340  135.9780 C   0  0  0  0  0  1  0  0  0  0  0  0
  184.0520  172.2200  137.0380 C   0  0  0  0  0  2  0  0  0  0  0  0
  182.4140  174.1630  137.0180 C   0  0  0  0  0  2  0  0  0  0  0  0
  180.2110  174.9470  137.1570 C   0  0  0  0  0  2  0  0  0  0  0  0
  181.3720  174.5340  137.9590 N   0  0  0  0  0  0  0  0  0  0  0  0
  180.2540  173.6080  137.7270 C   0  0  0  0  0  2  0  0  0  0  0  0
  186.1740  178.6120  139.2190 C   0  0  0  0  0  2  0  0  0  0  0  0
  185.0240  179.0790  140.0930 C   0  0  0  0  0  2  0  0  0  0  0  0
  186.5540  178.2180  141.8760 C   0  0  0  0  0  3  0  0  0  0  0  0
  185.3170  178.7680  141.5190 C   0  0  0  0  0  0  0  0  0  0  0  0
  184.3420  178.9910  142.4990 C   0  0  0  0  0  3  0  0  0  0  0  0
  183.5740  178.9130  144.8740 C   0  0  0  0  0  1  0  0  0  0  0  0
  185.8450  178.1270  144.1910 C   0  0  0  0  0  3  0  0  0  0  0  0
  184.6080  178.6740  143.8350 C   0  0  0  0  0  0  0  0  0  0  0  0
  186.8170  177.9000  143.2120 C   0  0  0  0  0  3  0  0  0  0  0  0
  1  7  1  0  0  0  0
  1 21  1  1  0  0  0
  3  6  1  6  0  0  0
  3  4  1  0  0  0  0
  4  5  1  0  0  0  0
  4 29  1  1  0  0  0
  5  2  1  6  0  0  0
  6  1  1  0  0  0  0
  7  2  1  1  0  0  0
  7  5  1  0  0  0  0
  8 20  1  0  0  0  0
  9  3  1  6  0  0  0
  9 11  1  0  0  0  0
 10 12  1  6  0  0  0
 10 19  1  0  0  0  0
 10 11  1  0  0  0  0
 11 13  1  1  0  0  0
 13 17  1  0  0  0  0
 16 12  1  0  0  0  0
 16 18  1  0  0  0  0
 17 14  1  0  0  0  0
 18 15  1  1  0  0  0
 18  9  1  0  0  0  0
 19  8  1  0  0  0  0
 20 14  1  0  0  0  0
 21 25  1  6  0  0  0
 21 22  1  0  0  0  0
 23 24  1  0  0  0  0
 24 22  1  0  0  0  0
 25 27  1  0  0  0  0
 26 28  1  0  0  0  0
 26 27  1  0  0  0  0
 28 27  1  0  0  0  0
 29 30  1  0  0  0  0
 30 32  1  0  0  0  0
 31 37  1  0  0  0  0
 32 31  2  0  0  0  0
 32 33  1  0  0  0  0
 33 36  2  0  0  0  0
 36 35  1  0  0  0  0
 36 34  1  0  0  0  0
 37 35  2  0  0  0  0
M  END
>  <MODEL>
1

>  <REMARK>
 VINA RESULT:      -6.2      0.000      0.000
  Name = 
  9 active torsions:
  status: ('A' for Active; 'I' for Inactive)
    1  A    between atoms: C_1  and  C_33
    2  A    between atoms: N_4  and  C_10
    3  A    between atoms: C_5  and  C_23
    4  A    between atoms: C_5  and  C_33
    5  A    between atoms: C_6  and  C_31
    6  A    between atoms: C_14  and  C_37
    7  A    between atoms: C_17  and  N_26
    8  A    between atoms: C_17  and  C_33
    9  A    between atoms: C_31  and  C_37
                            x       y       z     vdW  Elec       q    Type
                         _______ _______ _______ _____ _____    ______ ____

>  <TORSDO>
F 9

$$$$
=
 OpenBabel11052415233D

 37 42  0  0  1  0  0  0  0  0999 V2000
  188.9200  178.2210  139.6170 C   0  0  2  0  0  3  0  0  0  0  0  0
  191.4790  177.1010  139.6450 C   0  0  0  0  0  2  0  0  0  0  0  0
  188.2240  176.3970  137.8660 C   0  0  1  0  0  3  0  0  0  0  0  0
  189.7470  176.0450  137.8030 C   0  0  1  0  0  3  0  0  0  0  0  0
  190.2660  176.3330  139.1910 C   0  0  2  0  0  3  0  0  0  0  0  0
  187.9030  177.7700  138.5330 C   0  0  0  0  0  2  0  0  0  0  0  0
  190.3100  177.8650  139.0760 C   0  0  1  0  0  3  0  0  0  0  0  0
  184.2200  174.0440  135.1330 O   0  0  0  0  0  0  0  0  0  0  0  0
  187.4760  176.2420  136.5970 N   0  0  1  0  0  0  0  0  0  0  0  0
  185.0670  176.2080  135.6930 C   0  0  1  0  0  3  0  0  0  0  0  0
  186.0400  175.9410  136.8620 C   0  0  1  0  0  3  0  0  0  0  0  0
  185.4330  177.5170  135.0180 C   0  0  0  0  0  2  0  0  0  0  0  0
  185.8160  174.7060  137.5210 O   0  0  0  0  0  0  0  0  0  0  0  0
  185.6090  172.5800  136.4230 C   0  0  0  0  0  2  0  0  0  0  0  0
  189.0930  177.6840  135.4190 C   0  0  0  0  0  1  0  0  0  0  0  0
  186.8290  177.4780  134.6170 N   0  0  0  0  0  2  0  0  0  0  0  0
  186.5440  173.6860  136.8810 C   0  0  0  0  0  2  0  0  0  0  0  0
  187.6400  177.4940  135.8280 C   0  0  1  0  0  3  0  0  0  0  0  0
  185.0150  175.0910  134.6570 C   0  0  0  0  0  2  0  0  0  0  0  0
  185.0350  172.9120  135.0540 C   0  0  0  0  0  2  0  0  0  0  0  0
  188.5950  177.7240  141.0410 C   0  0  2  0  0  3  0  0  0  0  0  0
  187.1620  178.0650  141.4330 C   0  0  0  0  0  2  0  0  0  0  0  0
  185.6750  178.3360  143.3900 C   0  0  0  0  0  1  0  0  0  0  0  0
  186.8870  177.6060  142.8510 C   0  0  0  0  0  2  0  0  0  0  0  0
  189.5430  178.3710  142.0390 C   0  0  0  0  0  2  0  0  0  0  0  0
  191.4710  177.9460  143.2990 C   0  0  0  0  0  2  0  0  0  0  0  0
  190.2170  177.3470  142.8190 N   0  0  0  0  0  0  0  0  0  0  0  0
  190.3210  177.8700  144.1890 C   0  0  0  0  0  2  0  0  0  0  0  0
  189.9480  174.5720  137.4860 C   0  0  0  0  0  2  0  0  0  0  0  0
  190.6970  174.4150  136.1750 C   0  0  0  0  0  2  0  0  0  0  0  0
  192.7250  175.7640  135.6040 C   0  0  0  0  0  3  0  0  0  0  0  0
  192.1330  174.7530  136.3710 C   0  0  0  0  0  0  0  0  0  0  0  0
  192.9030  174.0370  137.2940 C   0  0  0  0  0  3  0  0  0  0  0  0
  195.0730  173.5780  138.4420 C   0  0  0  0  0  1  0  0  0  0  0  0
  194.8480  175.3500  136.6950 C   0  0  0  0  0  3  0  0  0  0  0  0
  194.2580  174.3370  137.4590 C   0  0  0  0  0  0  0  0  0  0  0  0
  194.0810  176.0630  135.7690 C   0  0  0  0  0  3  0  0  0  0  0  0
  1 21  1  1  0  0  0
  3  6  1  6  0  0  0
  4 29  1  1  0  0  0
  4  3  1  0  0  0  0
  4  5  1  0  0  0  0
  5  2  1  6  0  0  0
  6  1  1  0  0  0  0
  7  5  1  0  0  0  0
  7  1  1  0  0  0  0
  7  2  1  1  0  0  0
  9 11  1  0  0  0  0
  9  3  1  1  0  0  0
 10 19  1  6  0  0  0
 10 11  1  0  0  0  0
 11 13  1  6  0  0  0
 12 10  1  0  0  0  0
 14 17  1  0  0  0  0
 16 12  1  0  0  0  0
 16 18  1  0  0  0  0
 17 13  1  0  0  0  0
 18 15  1  6  0  0  0
 18  9  1  0  0  0  0
 19  8  1  0  0  0  0
 20  8  1  0  0  0  0
 20 14  1  0  0  0  0
 21 22  1  1  0  0  0
 21 25  1  0  0  0  0
 22 24  1  0  0  0  0
 24 23  1  0  0  0  0
 25 27  1  0  0  0  0
 26 28  1  0  0  0  0
 27 26  1  0  0  0  0
 27 28  1  0  0  0  0
 30 32  1  0  0  0  0
 30 29  1  0  0  0  0
 31 37  2  0  0  0  0
 31 32  1  0  0  0  0
 32 33  2  0  0  0  0
 33 36  1  0  0  0  0
 35 36  2  0  0  0  0
 36 34  1  0  0  0  0
 37 35  1  0  0  0  0
M  END
>  <MODEL>
2

>  <REMARK>
 VINA RESULT:      -5.9      2.644      8.080
  Name = 
  9 active torsions:
  status: ('A' for Active; 'I' for Inactive)
    1  A    between atoms: C_1  and  C_33
    2  A    between atoms: N_4  and  C_10
    3  A    between atoms: C_5  and  C_23
    4  A    between atoms: C_5  and  C_33
    5  A    between atoms: C_6  and  C_31
    6  A    between atoms: C_14  and  C_37
    7  A    between atoms: C_17  and  N_26
    8  A    between atoms: C_17  and  C_33
    9  A    between atoms: C_31  and  C_37
                            x       y       z     vdW  Elec       q    Type
                         _______ _______ _______ _____ _____    ______ ____

>  <TORSDO>
F 9

$$$$
=
 OpenBabel11052415233D

 37 42  0  0  1  0  0  0  0  0999 V2000
  185.0580  177.8330  137.6540 C   0  0  2  0  0  3  0  0  0  0  0  0
  183.5890  179.4000  139.4400 C   0  0  0  0  0  2  0  0  0  0  0  0
  187.0160  177.8160  139.3990 C   0  0  1  0  0  3  0  0  0  0  0  0
  186.1790  178.8890  140.1720 C   0  0  1  0  0  3  0  0  0  0  0  0
  184.7400  178.5370  139.8820 C   0  0  2  0  0  3  0  0  0  0  0  0
  186.5670  177.5840  137.9230 C   0  0  0  0  0  2  0  0  0  0  0  0
  184.6810  179.0900  138.4490 C   0  0  1  0  0  3  0  0  0  0  0  0
  191.5760  177.0490  142.1640 O   0  0  0  0  0  0  0  0  0  0  0  0
  188.4870  177.9650  139.4830 N   0  0  1  0  0  0  0  0  0  0  0  0
  190.6020  176.6060  140.0270 C   0  0  1  0  0  3  0  0  0  0  0  0
  189.0910  176.8370  140.2460 C   0  0  1  0  0  3  0  0  0  0  0  0
  190.9290  176.7560  138.5530 C   0  0  0  0  0  2  0  0  0  0  0  0
  188.6950  176.7750  141.6060 O   0  0  0  0  0  0  0  0  0  0  0  0
  189.7460  177.9780  143.4000 C   0  0  0  0  0  2  0  0  0  0  0  0
  188.5130  179.2920  137.4040 C   0  0  0  0  0  1  0  0  0  0  0  0
  190.4650  178.0520  138.0870 N   0  0  0  0  0  2  0  0  0  0  0  0
  188.8210  178.0450  142.1970 C   0  0  0  0  0  2  0  0  0  0  0  0
  189.0070  178.0330  138.1010 C   0  0  1  0  0  3  0  0  0  0  0  0
  191.4990  177.5210  140.8510 C   0  0  0  0  0  2  0  0  0  0  0  0
  191.1940  178.1330  142.9580 C   0  0  0  0  0  2  0  0  0  0  0  0
  184.1600  176.5960  137.8700 C   0  0  2  0  0  3  0  0  0  0  0  0
  184.8190  175.3330  137.3280 C   0  0  0  0  0  2  0  0  0  0  0  0
  186.0180  174.7400  135.2480 C   0  0  0  0  0  1  0  0  0  0  0  0
  184.7350  175.3100  135.8150 C   0  0  0  0  0  2  0  0  0  0  0  0
  182.8300  176.7970  137.1600 C   0  0  0  0  0  2  0  0  0  0  0  0
  180.7640  175.8940  137.7920 C   0  0  0  0  0  2  0  0  0  0  0  0
  181.7600  176.9180  138.1350 N   0  0  0  0  0  0  0  0  0  0  0  0
  181.7160  175.6430  138.8650 C   0  0  0  0  0  2  0  0  0  0  0  0
  186.4290  178.7940  141.6680 C   0  0  0  0  0  2  0  0  0  0  0  0
  185.3720  177.9240  142.3230 C   0  0  0  0  0  2  0  0  0  0  0  0
  184.2880  178.7710  144.4130 C   0  0  0  0  0  3  0  0  0  0  0  0
  185.3780  178.1460  143.7950 C   0  0  0  0  0  0  0  0  0  0  0  0
  186.4880  177.7640  144.5570 C   0  0  0  0  0  3  0  0  0  0  0  0
  187.6820  177.5890  146.7440 C   0  0  0  0  0  1  0  0  0  0  0  0
  185.4130  178.6190  146.5520 C   0  0  0  0  0  3  0  0  0  0  0  0
  186.5040  177.9970  145.9350 C   0  0  0  0  0  0  0  0  0  0  0  0
  184.3060  179.0050  145.7910 C   0  0  0  0  0  3  0  0  0  0  0  0
  1 21  1  1  0  0  0
  1  6  1  0  0  0  0
  1  7  1  0  0  0  0
  3  6  1  6  0  0  0
  3  4  1  0  0  0  0
  4 29  1  1  0  0  0
  5  2  1  1  0  0  0
  5  4  1  0  0  0  0
  7  2  1  6  0  0  0
  7  5  1  0  0  0  0
  8 20  1  0  0  0  0
  9  3  1  6  0  0  0
  9 11  1  0  0  0  0
 10 12  1  6  0  0  0
 10 11  1  0  0  0  0
 10 19  1  0  0  0  0
 11 13  1  1  0  0  0
 13 17  1  0  0  0  0
 16 18  1  0  0  0  0
 16 12  1  0  0  0  0
 17 14  1  0  0  0  0
 18 15  1  1  0  0  0
 18  9  1  0  0  0  0
 19  8  1  0  0  0  0
 20 14  1  0  0  0  0
 21 25  1  6  0  0  0
 22 21  1  0  0  0  0
 23 24  1  0  0  0  0
 24 22  1  0  0  0  0
 25 27  1  0  0  0  0
 26 27  1  0  0  0  0
 26 28  1  0  0  0  0
 27 28  1  0  0  0  0
 29 30  1  0  0  0  0
 30 32  1  0  0  0  0
 31 37  1  0  0  0  0
 32 31  2  0  0  0  0
 32 33  1  0  0  0  0
 33 36  2  0  0  0  0
 36 35  1  0  0  0  0
 36 34  1  0  0  0  0
 37 35  2  0  0  0  0
M  END
>  <MODEL>
3

>  <REMARK>
 VINA RESULT:      -5.6      1.927      2.890
  Name = 
  9 active torsions:
  status: ('A' for Active; 'I' for Inactive)
    1  A    between atoms: C_1  and  C_33
    2  A    between atoms: N_4  and  C_10
    3  A    between atoms: C_5  and  C_23
    4  A    between atoms: C_5  and  C_33
    5  A    between atoms: C_6  and  C_31
    6  A    between atoms: C_14  and  C_37
    7  A    between atoms: C_17  and  N_26
    8  A    between atoms: C_17  and  C_33
    9  A    between atoms: C_31  and  C_37
                            x       y       z     vdW  Elec       q    Type
                         _______ _______ _______ _____ _____    ______ ____

>  <TORSDO>
F 9

$$$$
=
 OpenBabel11052415233D

 37 42  0  0  1  0  0  0  0  0999 V2000
  182.6860  177.7590  141.1400 C   0  0  2  0  0  3  0  0  0  0  0  0
  180.7880  179.7910  140.8710 C   0  0  0  0  0  2  0  0  0  0  0  0
  182.7440  177.5710  138.5250 C   0  0  1  0  0  3  0  0  0  0  0  0
  181.5090  178.5330  138.5470 C   0  0  1  0  0  3  0  0  0  0  0  0
  181.7250  179.4090  139.7570 C   0  0  2  0  0  3  0  0  0  0  0  0
  183.0750  176.9110  139.8990 C   0  0  0  0  0  2  0  0  0  0  0  0
  181.3200  178.3810  140.8250 C   0  0  1  0  0  3  0  0  0  0  0  0
  180.1850  173.6590  135.8460 O   0  0  0  0  0  0  0  0  0  0  0  0
  182.7540  176.5620  137.4410 N   0  0  1  0  0  0  0  0  0  0  0  0
  181.3160  175.7310  135.4760 C   0  0  1  0  0  3  0  0  0  0  0  0
  181.3870  176.3780  136.8770 C   0  0  1  0  0  3  0  0  0  0  0  0
  182.4050  176.3140  134.5940 C   0  0  0  0  0  2  0  0  0  0  0  0
  180.4430  175.8540  137.7960 O   0  0  0  0  0  0  0  0  0  0  0  0
  180.1030  173.5180  138.2360 C   0  0  0  0  0  2  0  0  0  0  0  0
  185.1290  177.0300  136.9710 C   0  0  0  0  0  1  0  0  0  0  0  0
  183.6930  176.1490  135.2460 N   0  0  0  0  0  2  0  0  0  0  0  0
  180.9860  174.7340  138.4510 C   0  0  0  0  0  2  0  0  0  0  0  0
  183.7130  177.0220  136.4150 C   0  0  1  0  0  3  0  0  0  0  0  0
  181.4170  174.2110  135.4840 C   0  0  0  0  0  2  0  0  0  0  0  0
  180.4710  172.8270  136.9310 C   0  0  0  0  0  2  0  0  0  0  0  0
  183.7850  178.7340  141.6140 C   0  0  2  0  0  3  0  0  0  0  0  0
  184.9700  178.7400  140.6570 C   0  0  0  0  0  2  0  0  0  0  0  0
  187.4150  178.3710  140.7210 C   0  0  0  0  0  1  0  0  0  0  0  0
  186.2490  179.0450  141.4120 C   0  0  0  0  0  2  0  0  0  0  0  0
  184.2740  178.3230  142.9950 C   0  0  0  0  0  2  0  0  0  0  0  0
  183.5020  178.9970  145.1020 C   0  0  0  0  0  2  0  0  0  0  0  0
  184.2150  179.4580  143.9010 N   0  0  0  0  0  0  0  0  0  0  0  0
  184.9570  179.0650  145.1070 C   0  0  0  0  0  2  0  0  0  0  0  0
  181.4770  179.3980  137.2980 C   0  0  0  0  0  2  0  0  0  0  0  0
  180.1290  180.0850  137.1690 C   0  0  0  0  0  2  0  0  0  0  0  0
  179.9730  181.6440  135.2190 C   0  0  0  0  0  3  0  0  0  0  0  0
  180.3050  181.4320  136.5620 C   0  0  0  0  0  0  0  0  0  0  0  0
  180.8400  182.4780  137.3230 C   0  0  0  0  0  3  0  0  0  0  0  0
  181.5950  184.8480  137.5550 C   0  0  0  0  0  1  0  0  0  0  0  0
  180.6950  183.9490  135.4040 C   0  0  0  0  0  3  0  0  0  0  0  0
  181.0310  183.7370  136.7450 C   0  0  0  0  0  0  0  0  0  0  0  0
  180.1660  182.9030  134.6420 C   0  0  0  0  0  3  0  0  0  0  0  0
  1 21  1  6  0  0  0
  3  4  1  0  0  0  0
  3  6  1  1  0  0  0
  4 29  1  6  0  0  0
  4  5  1  0  0  0  0
  5  7  1  0  0  0  0
  5  2  1  6  0  0  0
  6  1  1  0  0  0  0
  7  2  1  1  0  0  0
  7  1  1  0  0  0  0
  8 20  1  0  0  0  0
  9  3  1  1  0  0  0
 10 12  1  6  0  0  0
 10 19  1  0  0  0  0
 10 11  1  0  0  0  0
 11  9  1  0  0  0  0
 11 13  1  1  0  0  0
 12 16  1  0  0  0  0
 13 17  1  0  0  0  0
 14 17  1  0  0  0  0
 16 18  1  0  0  0  0
 18 15  1  1  0  0  0
 18  9  1  0  0  0  0
 19  8  1  0  0  0  0
 20 14  1  0  0  0  0
 21 22  1  6  0  0  0
 21 25  1  0  0  0  0
 22 24  1  0  0  0  0
 23 24  1  0  0  0  0
 25 27  1  0  0  0  0
 26 28  1  0  0  0  0
 27 26  1  0  0  0  0
 27 28  1  0  0  0  0
 30 29  1  0  0  0  0
 31 32  1  0  0  0  0
 32 30  1  0  0  0  0
 32 33  2  0  0  0  0
 35 36  2  0  0  0  0
 36 33  1  0  0  0  0
 36 34  1  0  0  0  0
 37 31  2  0  0  0  0
 37 35  1  0  0  0  0
M  END
>  <MODEL>
4

>  <REMARK>
 VINA RESULT:      -5.5      4.069      7.989
  Name = 
  9 active torsions:
  status: ('A' for Active; 'I' for Inactive)
    1  A    between atoms: C_1  and  C_33
    2  A    between atoms: N_4  and  C_10
    3  A    between atoms: C_5  and  C_23
    4  A    between atoms: C_5  and  C_33
    5  A    between atoms: C_6  and  C_31
    6  A    between atoms: C_14  and  C_37
    7  A    between atoms: C_17  and  N_26
    8  A    between atoms: C_17  and  C_33
    9  A    between atoms: C_31  and  C_37
                            x       y       z     vdW  Elec       q    Type
                         _______ _______ _______ _____ _____    ______ ____

>  <TORSDO>
F 9

$$$$
=
 OpenBabel11052415233D

 37 42  0  0  1  0  0  0  0  0999 V2000
  189.7580  176.6210  138.0820 C   0  0  2  0  0  3  0  0  0  0  0  0
  187.9280  178.6160  137.3940 C   0  0  0  0  0  2  0  0  0  0  0  0
  189.1830  177.0710  140.6020 C   0  0  1  0  0  3  0  0  0  0  0  0
  188.3920  178.3150  140.0770 C   0  0  1  0  0  3  0  0  0  0  0  0
  187.8830  177.9010  138.7170 C   0  0  2  0  0  3  0  0  0  0  0  0
  190.1740  176.4490  139.5690 C   0  0  0  0  0  2  0  0  0  0  0  0
  189.2080  178.0470  137.9520 C   0  0  1  0  0  3  0  0  0  0  0  0
  188.8770  176.7080  145.9690 O   0  0  0  0  0  0  0  0  0  0  0  0
  189.8350  177.2330  141.9220 N   0  0  1  0  0  0  0  0  0  0  0  0
  190.2120  175.9680  144.1300 C   0  0  1  0  0  3  0  0  0  0  0  0
  189.3240  176.2240  142.8920 C   0  0  1  0  0  3  0  0  0  0  0  0
  191.6670  175.9110  143.7060 C   0  0  0  0  0  2  0  0  0  0  0  0
  187.9450  176.3530  143.1950 O   0  0  0  0  0  0  0  0  0  0  0  0
  187.0380  177.7970  144.8870 C   0  0  0  0  0  2  0  0  0  0  0  0
  191.8150  178.2550  140.8650 C   0  0  0  0  0  1  0  0  0  0  0  0
  192.0080  177.1280  142.9880 N   0  0  0  0  0  2  0  0  0  0  0  0
  187.6470  177.6940  143.4990 C   0  0  0  0  0  2  0  0  0  0  0  0
  191.2930  177.1070  141.7170 C   0  0  1  0  0  3  0  0  0  0  0  0
  190.0380  176.9910  145.2450 C   0  0  0  0  0  2  0  0  0  0  0  0
  188.1370  177.8910  145.9360 C   0  0  0  0  0  2  0  0  0  0  0  0
  188.8580  175.4910  137.5390 C   0  0  2  0  0  3  0  0  0  0  0  0
  189.6460  174.2020  137.3410 C   0  0  0  0  0  2  0  0  0  0  0  0
  191.9340  174.0150  136.4200 C   0  0  0  0  0  1  0  0  0  0  0  0
  190.4850  174.2930  136.0810 C   0  0  0  0  0  2  0  0  0  0  0  0
  188.2590  175.9080  136.2050 C   0  0  0  0  0  2  0  0  0  0  0  0
  186.2750  176.0940  134.9740 C   0  0  0  0  0  2  0  0  0  0  0  0
  186.9240  175.3520  136.0640 N   0  0  0  0  0  0  0  0  0  0  0  0
  186.8520  174.7830  134.7100 C   0  0  0  0  0  2  0  0  0  0  0  0
  187.2140  178.6270  140.9830 C   0  0  0  0  0  2  0  0  0  0  0  0
  185.9240  178.6420  140.1820 C   0  0  0  0  0  2  0  0  0  0  0  0
  183.4620  178.5330  140.6110 C   0  0  0  0  0  3  0  0  0  0  0  0
  184.7590  178.7170  141.1050 C   0  0  0  0  0  0  0  0  0  0  0  0
  184.9550  179.0100  142.4590 C   0  0  0  0  0  3  0  0  0  0  0  0
  184.0670  179.4160  144.7590 C   0  0  0  0  0  1  0  0  0  0  0  0
  182.5620  178.9200  142.8270 C   0  0  0  0  0  3  0  0  0  0  0  0
  183.8570  179.1080  143.3200 C   0  0  0  0  0  0  0  0  0  0  0  0
  182.3650  178.6320  141.4730 C   0  0  0  0  0  3  0  0  0  0  0  0
  1 21  1  1  0  0  0
  1  6  1  0  0  0  0
  3  6  1  6  0  0  0
  4  3  1  0  0  0  0
  4 29  1  1  0  0  0
  5  2  1  6  0  0  0
  5  4  1  0  0  0  0
  7  2  1  6  0  0  0
  7  1  1  0  0  0  0
  7  5  1  0  0  0  0
  9  3  1  6  0  0  0
  9 11  1  0  0  0  0
 10 12  1  6  0  0  0
 10 19  1  0  0  0  0
 11 13  1  1  0  0  0
 11 10  1  0  0  0  0
 13 17  1  0  0  0  0
 14 20  1  0  0  0  0
 16 12  1  0  0  0  0
 17 14  1  0  0  0  0
 18 15  1  6  0  0  0
 18  9  1  0  0  0  0
 18 16  1  0  0  0  0
 19  8  1  0  0  0  0
 20  8  1  0  0  0  0
 21 25  1  6  0  0  0
 22 21  1  0  0  0  0
 24 23  1  0  0  0  0
 24 22  1  0  0  0  0
 26 27  1  0  0  0  0
 27 25  1  0  0  0  0
 28 26  1  0  0  0  0
 28 27  1  0  0  0  0
 30 29  1  0  0  0  0
 30 32  1  0  0  0  0
 31 32  2  0  0  0  0
 31 37  1  0  0  0  0
 32 33  1  0  0  0  0
 33 36  2  0  0  0  0
 35 36  1  0  0  0  0
 36 34  1  0  0  0  0
 37 35  2  0  0  0  0
M  END
>  <MODEL>
5

>  <REMARK>
 VINA RESULT:      -5.4      3.065      5.533
  Name = 
  9 active torsions:
  status: ('A' for Active; 'I' for Inactive)
    1  A    between atoms: C_1  and  C_33
    2  A    between atoms: N_4  and  C_10
    3  A    between atoms: C_5  and  C_23
    4  A    between atoms: C_5  and  C_33
    5  A    between atoms: C_6  and  C_31
    6  A    between atoms: C_14  and  C_37
    7  A    between atoms: C_17  and  N_26
    8  A    between atoms: C_17  and  C_33
    9  A    between atoms: C_31  and  C_37
                            x       y       z     vdW  Elec       q    Type
                         _______ _______ _______ _____ _____    ______ ____

>  <TORSDO>
F 9

$$$$
=
 OpenBabel11052415233D

 37 42  0  0  1  0  0  0  0  0999 V2000
  180.7660  177.5240  140.9980 C   0  0  2  0  0  3  0  0  0  0  0  0
  178.9320  179.2130  139.7380 C   0  0  0  0  0  2  0  0  0  0  0  0
  182.3770  177.8770  138.9590 C   0  0  1  0  0  3  0  0  0  0  0  0
  181.1630  178.5900  138.2750 C   0  0  1  0  0  3  0  0  0  0  0  0
  180.4020  179.2290  139.4110 C   0  0  2  0  0  3  0  0  0  0  0  0
  182.0050  177.0210  140.2090 C   0  0  0  0  0  2  0  0  0  0  0  0
  179.7330  177.9530  139.9490 C   0  0  1  0  0  3  0  0  0  0  0  0
  182.9970  174.0250  135.2430 O   0  0  0  0  0  0  0  0  0  0  0  0
  183.2730  177.1230  138.0530 N   0  0  1  0  0  0  0  0  0  0  0  0
  183.4420  176.3440  135.6070 C   0  0  1  0  0  3  0  0  0  0  0  0
  182.5530  176.7150  136.8140 C   0  0  1  0  0  3  0  0  0  0  0  0
  184.5880  177.3330  135.5000 C   0  0  0  0  0  2  0  0  0  0  0  0
  181.4830  175.8110  137.0340 O   0  0  0  0  0  0  0  0  0  0  0  0
  181.7050  173.4240  137.1690 C   0  0  0  0  0  2  0  0  0  0  0  0
  185.2510  178.2440  139.0090 C   0  0  0  0  0  1  0  0  0  0  0  0
  185.3080  177.3740  136.7620 N   0  0  0  0  0  2  0  0  0  0  0  0
  181.9100  174.7590  137.8630 C   0  0  0  0  0  2  0  0  0  0  0  0
  184.4330  177.9890  137.7520 C   0  0  1  0  0  3  0  0  0  0  0  0
  183.9880  174.9230  135.6470 C   0  0  0  0  0  2  0  0  0  0  0  0
  182.9030  173.1020  136.2870 C   0  0  0  0  0  2  0  0  0  0  0  0
  181.0890  178.5570  142.0990 C   0  0  2  0  0  3  0  0  0  0  0  0
  182.5870  178.6330  142.3640 C   0  0  0  0  0  2  0  0  0  0  0  0
  184.0650  178.5230  144.3450 C   0  0  0  0  0  1  0  0  0  0  0  0
  182.8430  179.1910  143.7500 C   0  0  0  0  0  2  0  0  0  0  0  0
  180.3820  178.1690  143.3890 C   0  0  0  0  0  2  0  0  0  0  0  0
  178.9310  179.5450  144.6080 C   0  0  0  0  0  2  0  0  0  0  0  0
  179.0350  178.7130  143.4000 N   0  0  0  0  0  0  0  0  0  0  0  0
  179.1760  180.1740  143.3180 C   0  0  0  0  0  2  0  0  0  0  0  0
  181.6400  179.6690  137.3180 C   0  0  0  0  0  2  0  0  0  0  0  0
  181.5020  181.0380  137.9590 C   0  0  0  0  0  2  0  0  0  0  0  0
  180.3090  181.4850  135.8060 C   0  0  0  0  0  3  0  0  0  0  0  0
  180.7730  181.9550  137.0400 C   0  0  0  0  0  0  0  0  0  0  0  0
  180.5850  183.2960  137.3920 C   0  0  0  0  0  3  0  0  0  0  0  0
  179.7220  185.5860  136.8920 C   0  0  0  0  0  1  0  0  0  0  0  0
  179.4580  183.6920  135.2850 C   0  0  0  0  0  3  0  0  0  0  0  0
  179.9240  184.1630  136.5160 C   0  0  0  0  0  0  0  0  0  0  0  0
  179.6500  182.3530  134.9300 C   0  0  0  0  0  3  0  0  0  0  0  0
  1 21  1  1  0  0  0
  3  6  1  1  0  0  0
  4 29  1  6  0  0  0
  4  3  1  0  0  0  0
  4  5  1  0  0  0  0
  5  2  1  6  0  0  0
  5  7  1  0  0  0  0
  6  1  1  0  0  0  0
  7  2  1  1  0  0  0
  7  1  1  0  0  0  0
  8 19  1  0  0  0  0
  8 20  1  0  0  0  0
  9  3  1  1  0  0  0
 10 12  1  1  0  0  0
 10 19  1  0  0  0  0
 10 11  1  0  0  0  0
 11 13  1  1  0  0  0
 11  9  1  0  0  0  0
 12 16  1  0  0  0  0
 13 17  1  0  0  0  0
 14 17  1  0  0  0  0
 16 18  1  0  0  0  0
 18  9  1  0  0  0  0
 18 15  1  1  0  0  0
 20 14  1  0  0  0  0
 21 22  1  1  0  0  0
 21 25  1  0  0  0  0
 22 24  1  0  0  0  0
 24 23  1  0  0  0  0
 25 27  1  0  0  0  0
 27 26  1  0  0  0  0
 28 27  1  0  0  0  0
 28 26  1  0  0  0  0
 29 30  1  0  0  0  0
 31 32  1  0  0  0  0
 32 33  2  0  0  0  0
 32 30  1  0  0  0  0
 35 36  2  0  0  0  0
 36 34  1  0  0  0  0
 36 33  1  0  0  0  0
 37 35  1  0  0  0  0
 37 31  2  0  0  0  0
M  END
>  <MODEL>
6

>  <REMARK>
 VINA RESULT:      -5.2      4.228      7.682
  Name = 
  9 active torsions:
  status: ('A' for Active; 'I' for Inactive)
    1  A    between atoms: C_1  and  C_33
    2  A    between atoms: N_4  and  C_10
    3  A    between atoms: C_5  and  C_23
    4  A    between atoms: C_5  and  C_33
    5  A    between atoms: C_6  and  C_31
    6  A    between atoms: C_14  and  C_37
    7  A    between atoms: C_17  and  N_26
    8  A    between atoms: C_17  and  C_33
    9  A    between atoms: C_31  and  C_37
                            x       y       z     vdW  Elec       q    Type
                         _______ _______ _______ _____ _____    ______ ____

>  <TORSDO>
F 9

$$$$
=
 OpenBabel11052415233D

 37 42  0  0  1  0  0  0  0  0999 V2000
  184.9060  179.2260  140.2210 C   0  0  2  0  0  3  0  0  0  0  0  0
  186.2310  177.8980  138.1510 C   0  0  0  0  0  2  0  0  0  0  0  0
  182.6450  178.3100  139.2580 C   0  0  1  0  0  3  0  0  0  0  0  0
  183.4950  177.8390  138.0320 C   0  0  1  0  0  3  0  0  0  0  0  0
  184.8510  177.5080  138.6070 C   0  0  2  0  0  3  0  0  0  0  0  0
  183.3580  179.3460  140.1820 C   0  0  0  0  0  2  0  0  0  0  0  0
  185.3530  178.9500  138.7810 C   0  0  1  0  0  3  0  0  0  0  0  0
  179.3320  181.6640  136.6500 O   0  0  0  0  0  0  0  0  0  0  0  0
  181.2620  178.7420  138.9540 N   0  0  1  0  0  0  0  0  0  0  0  0
  179.7490  179.3320  136.9580 C   0  0  1  0  0  3  0  0  0  0  0  0
  181.1680  179.2790  137.5670 C   0  0  1  0  0  3  0  0  0  0  0  0
  179.0010  178.0590  137.3070 C   0  0  0  0  0  2  0  0  0  0  0  0
  181.9290  180.4540  137.3440 O   0  0  0  0  0  0  0  0  0  0  0  0
  181.1710  182.6890  137.7940 C   0  0  0  0  0  2  0  0  0  0  0  0
  180.3570  177.1580  140.6140 C   0  0  0  0  0  1  0  0  0  0  0  0
  179.0080  177.8760  138.7490 N   0  0  0  0  0  2  0  0  0  0  0  0
  181.6850  181.3820  138.3730 C   0  0  0  0  0  2  0  0  0  0  0  0
  180.3770  177.5740  139.1500 C   0  0  1  0  0  3  0  0  0  0  0  0
  178.9320  180.5450  137.3830 C   0  0  0  0  0  2  0  0  0  0  0  0
  179.6620  182.6230  137.6100 C   0  0  0  0  0  2  0  0  0  0  0  0
  185.4410  178.2580  141.2980 C   0  0  2  0  0  3  0  0  0  0  0  0
  184.5430  178.2480  142.5290 C   0  0  0  0  0  2  0  0  0  0  0  0
  184.8550  178.8820  144.8990 C   0  0  0  0  0  1  0  0  0  0  0  0
  184.9350  179.3710  143.4690 C   0  0  0  0  0  2  0  0  0  0  0  0
  186.8410  178.6790  141.7170 C   0  0  0  0  0  2  0  0  0  0  0  0
  189.0430  177.9670  142.0770 C   0  0  0  0  0  2  0  0  0  0  0  0
  187.6500  177.5050  141.9970 N   0  0  0  0  0  0  0  0  0  0  0  0
  188.2870  177.7420  143.3010 C   0  0  0  0  0  2  0  0  0  0  0  0
  182.8940  176.5900  137.4070 C   0  0  0  0  0  2  0  0  0  0  0  0
  183.0410  175.4090  138.3500 C   0  0  0  0  0  2  0  0  0  0  0  0
  182.6930  173.3610  136.9560 C   0  0  0  0  0  3  0  0  0  0  0  0
  183.5730  174.2340  137.6070 C   0  0  0  0  0  0  0  0  0  0  0  0
  184.9490  173.9790  137.5900 C   0  0  0  0  0  3  0  0  0  0  0  0
  186.9060  172.5930  136.8940 C   0  0  0  0  0  1  0  0  0  0  0  0
  184.5660  171.9900  136.2610 C   0  0  0  0  0  3  0  0  0  0  0  0
  185.4450  172.8600  136.9140 C   0  0  0  0  0  0  0  0  0  0  0  0
  183.1900  172.2420  136.2820 C   0  0  0  0  0  3  0  0  0  0  0  0
  1 21  1  1  0  0  0
  3  6  1  6  0  0  0
  4 29  1  1  0  0  0
  4  5  1  0  0  0  0
  4  3  1  0  0  0  0
  5  2  1  6  0  0  0
  5  7  1  0  0  0  0
  6  1  1  0  0  0  0
  7  2  1  1  0  0  0
  7  1  1  0  0  0  0
  8 19  1  0  0  0  0
  8 20  1  0  0  0  0
  9 18  1  0  0  0  0
  9  3  1  6  0  0  0
 10 12  1  1  0  0  0
 10 19  1  0  0  0  0
 10 11  1  0  0  0  0
 11 13  1  1  0  0  0
 11  9  1  0  0  0  0
 12 16  1  0  0  0  0
 13 17  1  0  0  0  0
 14 17  1  0  0  0  0
 16 18  1  0  0  0  0
 18 15  1  1  0  0  0
 20 14  1  0  0  0  0
 21 25  1  1  0  0  0
 21 22  1  0  0  0  0
 22 24  1  0  0  0  0
 24 23  1  0  0  0  0
 25 27  1  0  0  0  0
 26 28  1  0  0  0  0
 27 26  1  0  0  0  0
 27 28  1  0  0  0  0
 29 30  1  0  0  0  0
 31 32  1  0  0  0  0
 32 30  1  0  0  0  0
 33 32  2  0  0  0  0
 34 36  1  0  0  0  0
 35 37  1  0  0  0  0
 35 36  2  0  0  0  0
 36 33  1  0  0  0  0
 37 31  2  0  0  0  0
M  END
>  <MODEL>
7

>  <REMARK>
 VINA RESULT:      -5.1      3.493      8.670
  Name = 
  9 active torsions:
  status: ('A' for Active; 'I' for Inactive)
    1  A    between atoms: C_1  and  C_33
    2  A    between atoms: N_4  and  C_10
    3  A    between atoms: C_5  and  C_23
    4  A    between atoms: C_5  and  C_33
    5  A    between atoms: C_6  and  C_31
    6  A    between atoms: C_14  and  C_37
    7  A    between atoms: C_17  and  N_26
    8  A    between atoms: C_17  and  C_33
    9  A    between atoms: C_31  and  C_37
                            x       y       z     vdW  Elec       q    Type
                         _______ _______ _______ _____ _____    ______ ____

>  <TORSDO>
F 9

$$$$
=
 OpenBabel11052415233D

 37 42  0  0  1  0  0  0  0  0999 V2000
  180.7610  177.3930  140.5780 C   0  0  2  0  0  3  0  0  0  0  0  0
  179.0430  179.2290  139.3600 C   0  0  0  0  0  2  0  0  0  0  0  0
  182.0210  177.1700  138.2880 C   0  0  1  0  0  3  0  0  0  0  0  0
  180.8420  178.0090  137.6930 C   0  0  1  0  0  3  0  0  0  0  0  0
  180.4130  178.9210  138.8160 C   0  0  2  0  0  3  0  0  0  0  0  0
  181.7390  176.5660  139.6990 C   0  0  0  0  0  2  0  0  0  0  0  0
  179.6460  177.8760  139.6430 C   0  0  1  0  0  3  0  0  0  0  0  0
  186.3680  175.0820  135.8860 O   0  0  0  0  0  0  0  0  0  0  0  0
  182.6030  176.1490  137.3870 N   0  0  1  0  0  0  0  0  0  0  0  0
  184.5320  174.4500  137.2790 C   0  0  1  0  0  3  0  0  0  0  0  0
  183.9850  175.7920  137.8140 C   0  0  1  0  0  3  0  0  0  0  0  0
  183.4440  173.3950  137.3510 C   0  0  0  0  0  2  0  0  0  0  0  0
  184.9140  176.8600  137.7330 O   0  0  0  0  0  0  0  0  0  0  0  0
  186.1460  177.4640  135.7610 C   0  0  0  0  0  2  0  0  0  0  0  0
  180.3540  175.3260  136.7980 C   0  0  0  0  0  1  0  0  0  0  0  0
  182.2670  173.8680  136.6410 N   0  0  0  0  0  2  0  0  0  0  0  0
  184.8080  177.4890  136.4790 C   0  0  0  0  0  2  0  0  0  0  0  0
  181.7040  174.9760  137.4050 C   0  0  1  0  0  3  0  0  0  0  0  0
  185.0880  174.5230  135.8620 C   0  0  0  0  0  2  0  0  0  0  0  0
  186.3060  176.1570  134.9970 C   0  0  0  0  0  2  0  0  0  0  0  0
  181.4430  178.4760  141.4410 C   0  0  2  0  0  3  0  0  0  0  0  0
  182.9600  178.3300  141.4160 C   0  0  0  0  0  2  0  0  0  0  0  0
  184.9520  178.2580  142.8790 C   0  0  0  0  0  1  0  0  0  0  0  0
  183.5510  178.8090  142.7280 C   0  0  0  0  0  2  0  0  0  0  0  0
  180.9640  178.3610  142.8800 C   0  0  0  0  0  2  0  0  0  0  0  0
  179.3170  179.2300  144.3020 C   0  0  0  0  0  2  0  0  0  0  0  0
  179.5480  178.6770  142.9590 N   0  0  0  0  0  0  0  0  0  0  0  0
  179.4570  180.1300  143.1650 C   0  0  0  0  0  2  0  0  0  0  0  0
  181.3160  178.8460  136.5170 C   0  0  0  0  0  2  0  0  0  0  0  0
  180.1270  179.4300  135.7740 C   0  0  0  0  0  2  0  0  0  0  0  0
  180.8110  181.5420  134.6200 C   0  0  0  0  0  3  0  0  0  0  0  0
  180.2370  180.9130  135.7320 C   0  0  0  0  0  0  0  0  0  0  0  0
  179.8030  181.6790  136.8200 C   0  0  0  0  0  3  0  0  0  0  0  0
  179.4670  183.8830  137.9460 C   0  0  0  0  0  1  0  0  0  0  0  0
  180.5010  183.6980  135.6790 C   0  0  0  0  0  3  0  0  0  0  0  0
  179.9310  183.0710  136.7910 C   0  0  0  0  0  0  0  0  0  0  0  0
  180.9400  182.9340  134.5940 C   0  0  0  0  0  3  0  0  0  0  0  0
  1 21  1  6  0  0  0
  3  6  1  1  0  0  0
  4 29  1  6  0  0  0
  4  3  1  0  0  0  0
  4  5  1  0  0  0  0
  5  2  1  6  0  0  0
  5  7  1  0  0  0  0
  6  1  1  0  0  0  0
  7  2  1  1  0  0  0
  7  1  1  0  0  0  0
  9 18  1  0  0  0  0
  9 11  1  0  0  0  0
  9  3  1  1  0  0  0
 10 19  1  6  0  0  0
 10 12  1  0  0  0  0
 10 11  1  0  0  0  0
 11 13  1  6  0  0  0
 14 17  1  0  0  0  0
 16 12  1  0  0  0  0
 16 18  1  0  0  0  0
 17 13  1  0  0  0  0
 18 15  1  6  0  0  0
 19  8  1  0  0  0  0
 20 14  1  0  0  0  0
 20  8  1  0  0  0  0
 21 22  1  1  0  0  0
 21 25  1  0  0  0  0
 22 24  1  0  0  0  0
 24 23  1  0  0  0  0
 25 27  1  0  0  0  0
 27 28  1  0  0  0  0
 27 26  1  0  0  0  0
 28 26  1  0  0  0  0
 30 29  1  0  0  0  0
 31 32  1  0  0  0  0
 32 30  1  0  0  0  0
 32 33  2  0  0  0  0
 35 36  2  0  0  0  0
 36 33  1  0  0  0  0
 36 34  1  0  0  0  0
 37 31  2  0  0  0  0
 37 35  1  0  0  0  0
M  END
>  <MODEL>
8

>  <REMARK>
 VINA RESULT:      -4.9      3.687      7.225
  Name = 
  9 active torsions:
  status: ('A' for Active; 'I' for Inactive)
    1  A    between atoms: C_1  and  C_33
    2  A    between atoms: N_4  and  C_10
    3  A    between atoms: C_5  and  C_23
    4  A    between atoms: C_5  and  C_33
    5  A    between atoms: C_6  and  C_31
    6  A    between atoms: C_14  and  C_37
    7  A    between atoms: C_17  and  N_26
    8  A    between atoms: C_17  and  C_33
    9  A    between atoms: C_31  and  C_37
                            x       y       z     vdW  Elec       q    Type
                         _______ _______ _______ _____ _____    ______ ____

>  <TORSDO>
F 9

$$$$
=
 OpenBabel11052415233D

 37 42  0  0  1  0  0  0  0  0999 V2000
  187.1820  176.8310  136.7220 C   0  0  2  0  0  3  0  0  0  0  0  0
  187.7540  174.1110  136.4450 C   0  0  0  0  0  2  0  0  0  0  0  0
  184.6980  176.1760  137.2510 C   0  0  1  0  0  3  0  0  0  0  0  0
  185.1120  174.7290  136.8210 C   0  0  1  0  0  3  0  0  0  0  0  0
  186.5640  174.6110  137.2180 C   0  0  2  0  0  3  0  0  0  0  0  0
  185.7020  177.2910  136.8250 C   0  0  0  0  0  2  0  0  0  0  0  0
  187.1560  175.4430  136.0700 C   0  0  1  0  0  3  0  0  0  0  0  0
  179.9040  177.9710  138.9340 O   0  0  0  0  0  0  0  0  0  0  0  0
  183.3070  176.5690  136.9280 N   0  0  1  0  0  0  0  0  0  0  0  0
  181.6220  178.4670  137.3480 C   0  0  1  0  0  3  0  0  0  0  0  0
  182.8370  177.6500  137.8400 C   0  0  1  0  0  3  0  0  0  0  0  0
  181.7790  178.7680  135.8700 C   0  0  0  0  0  2  0  0  0  0  0  0
  182.7540  177.2670  139.2030 O   0  0  0  0  0  0  0  0  0  0  0  0
  180.8630  176.1870  140.2150 C   0  0  0  0  0  2  0  0  0  0  0  0
  183.5960  175.8270  134.5940 C   0  0  0  0  0  1  0  0  0  0  0  0
  181.9760  177.5250  135.1430 N   0  0  0  0  0  2  0  0  0  0  0  0
  182.0750  176.0400  139.3120 C   0  0  0  0  0  2  0  0  0  0  0  0
  183.2850  176.9980  135.5130 C   0  0  1  0  0  3  0  0  0  0  0  0
  180.2770  177.7970  137.5990 C   0  0  0  0  0  2  0  0  0  0  0  0
  179.6680  176.6790  139.4110 C   0  0  0  0  0  2  0  0  0  0  0  0
  187.9780  176.9500  138.0390 C   0  0  2  0  0  3  0  0  0  0  0  0
  187.5270  178.1580  138.8520 C   0  0  0  0  0  2  0  0  0  0  0  0
  187.2140  178.6180  141.2610 C   0  0  0  0  0  1  0  0  0  0  0  0
  188.1990  178.1530  140.2110 C   0  0  0  0  0  2  0  0  0  0  0  0
  189.4610  177.0940  137.7310 C   0  0  0  0  0  2  0  0  0  0  0  0
  191.0370  175.4050  137.3420 C   0  0  0  0  0  2  0  0  0  0  0  0
  190.2080  176.0320  138.3820 N   0  0  0  0  0  0  0  0  0  0  0  0
  191.6300  176.3810  138.2460 C   0  0  0  0  0  2  0  0  0  0  0  0
  184.2970  173.6890  137.5710 C   0  0  0  0  0  2  0  0  0  0  0  0
  184.7880  172.2930  137.2330 C   0  0  0  0  0  2  0  0  0  0  0  0
  183.9960  170.4580  135.7270 C   0  0  0  0  0  3  0  0  0  0  0  0
  183.6920  171.5140  136.5950 C   0  0  0  0  0  0  0  0  0  0  0  0
  182.3570  171.8590  136.8330 C   0  0  0  0  0  3  0  0  0  0  0  0
  179.9110  171.5100  136.4680 C   0  0  0  0  0  1  0  0  0  0  0  0
  181.6330  170.0880  135.3480 C   0  0  0  0  0  3  0  0  0  0  0  0
  181.3280  171.1440  136.2120 C   0  0  0  0  0  0  0  0  0  0  0  0
  182.9670  169.7450  135.1060 C   0  0  0  0  0  3  0  0  0  0  0  0
  1  6  1  0  0  0  0
  1 21  1  1  0  0  0
  3  6  1  6  0  0  0
  4  5  1  0  0  0  0
  4  3  1  0  0  0  0
  4 29  1  1  0  0  0
  5  2  1  6  0  0  0
  7  2  1  1  0  0  0
  7  1  1  0  0  0  0
  7  5  1  0  0  0  0
  8 20  1  0  0  0  0
  9  3  1  1  0  0  0
  9 11  1  0  0  0  0
 10 12  1  6  0  0  0
 10 19  1  0  0  0  0
 10 11  1  0  0  0  0
 11 13  1  1  0  0  0
 13 17  1  0  0  0  0
 16 18  1  0  0  0  0
 16 12  1  0  0  0  0
 17 14  1  0  0  0  0
 18 15  1  6  0  0  0
 18  9  1  0  0  0  0
 19  8  1  0  0  0  0
 20 14  1  0  0  0  0
 21 25  1  6  0  0  0
 21 22  1  0  0  0  0
 22 24  1  0  0  0  0
 24 23  1  0  0  0  0
 25 27  1  0  0  0  0
 26 28  1  0  0  0  0
 26 27  1  0  0  0  0
 28 27  1  0  0  0  0
 30 29  1  0  0  0  0
 31 32  1  0  0  0  0
 32 33  2  0  0  0  0
 32 30  1  0  0  0  0
 35 36  2  0  0  0  0
 36 34  1  0  0  0  0
 36 33  1  0  0  0  0
 37 35  1  0  0  0  0
 37 31  2  0  0  0  0
M  END
>  <MODEL>
9

>  <REMARK>
 VINA RESULT:      -4.9      2.807      8.252
  Name = 
  9 active torsions:
  status: ('A' for Active; 'I' for Inactive)
    1  A    between atoms: C_1  and  C_33
    2  A    between atoms: N_4  and  C_10
    3  A    between atoms: C_5  and  C_23
    4  A    between atoms: C_5  and  C_33
    5  A    between atoms: C_6  and  C_31
    6  A    between atoms: C_14  and  C_37
    7  A    between atoms: C_17  and  N_26
    8  A    between atoms: C_17  and  C_33
    9  A    between atoms: C_31  and  C_37
                            x       y       z     vdW  Elec       q    Type
                         _______ _______ _______ _____ _____    ______ ____

>  <TORSDO>
F 9

$$$$
