=
 OpenBabel11052412513D

 25 28  0  0  1  0  0  0  0  0999 V2000
  187.2180  177.8540  145.7600 C   0  0  0  0  0  0  0  0  0  0  0  0
  188.5040  177.3500  145.5400 C   0  0  0  0  0  0  0  0  0  0  0  0
  187.5880  178.0810  148.0860 N   0  0  0  0  0  0  0  0  0  0  0  0
  186.1500  178.1110  144.9280 C   0  0  0  0  0  0  0  0  0  0  0  0
  189.9950  176.4810  143.6470 C   0  0  0  0  0  0  0  0  0  0  0  0
  183.7130  178.8270  143.8260 C   0  0  0  0  0  3  0  0  0  0  0  0
  188.8280  177.6090  147.9230 N   0  0  0  0  0  0  0  0  0  0  0  0
  185.1450  178.6050  145.7370 C   0  0  0  0  0  0  0  0  0  0  0  0
  183.9090  178.9730  145.2110 C   0  0  0  0  0  3  0  0  0  0  0  0
  190.7380  176.6700  146.6700 C   0  0  2  0  0  3  0  0  0  0  0  0
  191.5650  177.0850  147.8780 C   0  0  0  0  0  1  0  0  0  0  0  0
  188.8720  177.0120  144.1400 C   0  0  0  0  0  3  0  0  0  0  0  0
  184.7420  178.3220  143.0040 C   0  0  0  0  0  3  0  0  0  0  0  0
  186.7840  178.2090  147.0120 C   0  0  0  0  0  0  0  0  0  0  0  0
  185.5150  178.6740  147.0350 N   0  0  0  0  0  2  0  0  0  0  0  0
  191.4530  177.0420  145.4670 N   0  0  0  0  0  2  0  0  0  0  0  0
  185.9830  177.9570  143.5530 C   0  0  0  0  0  3  0  0  0  0  0  0
  191.1210  176.0180  144.5000 C   0  0  0  0  0  2  0  0  0  0  0  0
  189.3420  177.2540  146.6990 C   0  0  0  0  0  0  0  0  0  0  0  0
  190.1150  176.2600  142.1620 C   0  0  0  0  0  2  0  0  0  0  0  0
  191.6060  177.5210  140.8160 C   0  0  0  0  0  1  0  0  0  0  0  0
  190.2530  177.4970  141.3680 N   0  0  0  0  0  0  0  0  0  0  0  0
  189.3050  177.5190  140.3130 N   0  0  0  0  0  0  0  0  0  0  0  0
  189.9080  178.0460  139.2170 O   0  0  0  0  0  1  0  0  0  0  0  0
  188.2600  178.4720  140.6660 C   0  0  0  0  0  1  0  0  0  0  0  0
  1 14  1  0  0  0  0
  2  1  2  0  0  0  0
  2 19  1  0  0  0  0
  4  8  1  0  0  0  0
  4  1  1  0  0  0  0
  5 12  2  0  0  0  0
  5 18  1  0  0  0  0
  6  9  1  0  0  0  0
  7  3  1  0  0  0  0
  8 15  1  0  0  0  0
  9  8  2  0  0  0  0
 10 19  1  0  0  0  0
 10 11  1  1  0  0  0
 12  2  1  0  0  0  0
 13 17  1  0  0  0  0
 13  6  2  0  0  0  0
 14 15  1  0  0  0  0
 14  3  2  0  0  0  0
 16 10  1  0  0  0  0
 17  4  2  0  0  0  0
 18 16  1  0  0  0  0
 19  7  2  0  0  0  0
 20  5  1  0  0  0  0
 21 22  1  0  0  0  0
 22 20  1  0  0  0  0
 23 25  1  0  0  0  0
 23 22  1  0  0  0  0
 24 23  1  0  0  0  0
M  END
>  <MODEL>
1

>  <REMARK>
 VINA RESULT:     -10.3      0.000      0.000
  Name = 
  3 active torsions:
  status: ('A' for Active; 'I' for Inactive)
    1  A    between atoms: N_2  and  N_25
    2  A    between atoms: C_6  and  C_15
    3  A    between atoms: C_15  and  N_25
                            x       y       z     vdW  Elec       q    Type
                         _______ _______ _______ _____ _____    ______ ____

>  <TORSDO>
F 3

$$$$
=
 OpenBabel11052412513D

 25 28  0  0  1  0  0  0  0  0999 V2000
  185.6360  178.2680  144.9170 C   0  0  0  0  0  0  0  0  0  0  0  0
  186.9460  177.8390  145.1560 C   0  0  0  0  0  0  0  0  0  0  0  0
  185.2980  178.8500  147.1850 N   0  0  0  0  0  0  0  0  0  0  0  0
  184.8530  178.3200  143.7850 C   0  0  0  0  0  0  0  0  0  0  0  0
  188.9560  176.8290  143.9290 C   0  0  0  0  0  0  0  0  0  0  0  0
  182.8250  178.6820  141.9340 C   0  0  0  0  0  3  0  0  0  0  0  0
  186.5460  178.4570  147.4600 N   0  0  0  0  0  0  0  0  0  0  0  0
  183.6390  178.8440  144.1840 C   0  0  0  0  0  0  0  0  0  0  0  0
  182.6000  179.0370  143.2760 C   0  0  0  0  0  3  0  0  0  0  0  0
  188.7700  177.5010  146.9700 C   0  0  2  0  0  3  0  0  0  0  0  0
  189.1910  178.1460  148.2810 C   0  0  0  0  0  1  0  0  0  0  0  0
  187.7200  177.3350  143.9900 C   0  0  0  0  0  3  0  0  0  0  0  0
  184.0670  178.1470  141.5300 C   0  0  0  0  0  3  0  0  0  0  0  0
  184.8420  178.7610  145.9200 C   0  0  0  0  0  0  0  0  0  0  0  0
  183.6070  179.1250  145.5060 N   0  0  0  0  0  2  0  0  0  0  0  0
  189.7940  177.7540  145.9770 N   0  0  0  0  0  2  0  0  0  0  0  0
  185.1030  177.9600  142.4610 C   0  0  0  0  0  3  0  0  0  0  0  0
  189.7950  176.5800  145.1310 C   0  0  0  0  0  2  0  0  0  0  0  0
  187.4090  177.9730  146.5050 C   0  0  0  0  0  0  0  0  0  0  0  0
  189.5140  176.4090  142.5950 C   0  0  0  0  0  2  0  0  0  0  0  0
  191.3800  177.4580  141.5720 C   0  0  0  0  0  1  0  0  0  0  0  0
  189.9280  177.5290  141.7260 N   0  0  0  0  0  0  0  0  0  0  0  0
  189.3070  177.4270  140.4540 N   0  0  0  0  0  0  0  0  0  0  0  0
  190.2000  177.8330  139.5160 O   0  0  0  0  0  1  0  0  0  0  0  0
  188.2280  178.4050  140.4000 C   0  0  0  0  0  1  0  0  0  0  0  0
  1  2  2  0  0  0  0
  1 14  1  0  0  0  0
  2 19  1  0  0  0  0
  3  7  1  0  0  0  0
  4  8  1  0  0  0  0
  4  1  1  0  0  0  0
  5 12  2  0  0  0  0
  5 18  1  0  0  0  0
  6  9  1  0  0  0  0
  8 15  1  0  0  0  0
  9  8  2  0  0  0  0
 10 11  1  1  0  0  0
 12  2  1  0  0  0  0
 13  6  2  0  0  0  0
 13 17  1  0  0  0  0
 14  3  2  0  0  0  0
 15 14  1  0  0  0  0
 16 10  1  0  0  0  0
 17  4  2  0  0  0  0
 18 16  1  0  0  0  0
 19 10  1  0  0  0  0
 19  7  2  0  0  0  0
 20  5  1  0  0  0  0
 21 22  1  0  0  0  0
 22 20  1  0  0  0  0
 23 22  1  0  0  0  0
 24 23  1  0  0  0  0
 25 23  1  0  0  0  0
M  END
>  <MODEL>
2

>  <REMARK>
 VINA RESULT:     -10.3      1.153      1.778
  Name = 
  3 active torsions:
  status: ('A' for Active; 'I' for Inactive)
    1  A    between atoms: N_2  and  N_25
    2  A    between atoms: C_6  and  C_15
    3  A    between atoms: C_15  and  N_25
                            x       y       z     vdW  Elec       q    Type
                         _______ _______ _______ _____ _____    ______ ____

>  <TORSDO>
F 3

$$$$
=
 OpenBabel11052412513D

 25 28  0  0  1  0  0  0  0  0999 V2000
  186.9230  177.8340  144.8910 C   0  0  0  0  0  0  0  0  0  0  0  0
  188.1200  177.4180  144.3000 C   0  0  0  0  0  0  0  0  0  0  0  0
  187.8160  177.6630  147.0750 N   0  0  0  0  0  0  0  0  0  0  0  0
  185.6960  178.1990  144.3800 C   0  0  0  0  0  0  0  0  0  0  0  0
  189.1320  176.9420  141.9940 C   0  0  0  0  0  0  0  0  0  0  0  0
  183.0780  179.0180  144.0030 C   0  0  0  0  0  3  0  0  0  0  0  0
  188.9820  177.2660  146.5550 N   0  0  0  0  0  0  0  0  0  0  0  0
  184.9060  178.5110  145.4700 C   0  0  0  0  0  0  0  0  0  0  0  0
  183.5860  178.9250  145.3120 C   0  0  0  0  0  3  0  0  0  0  0  0
  190.5470  176.6230  144.7560 C   0  0  2  0  0  3  0  0  0  0  0  0
  191.6320  176.8470  145.7990 C   0  0  0  0  0  1  0  0  0  0  0  0
  188.1560  177.3430  142.8150 C   0  0  0  0  0  3  0  0  0  0  0  0
  183.8880  178.6980  142.8930 C   0  0  0  0  0  3  0  0  0  0  0  0
  186.7890  177.9510  146.2500 C   0  0  0  0  0  0  0  0  0  0  0  0
  185.5630  178.3630  146.6420 N   0  0  0  0  0  2  0  0  0  0  0  0
  190.9720  177.2220  143.5080 N   0  0  0  0  0  2  0  0  0  0  0  0
  185.2180  178.2820  143.0730 C   0  0  0  0  0  3  0  0  0  0  0  0
  190.4190  176.3730  142.4750 C   0  0  0  0  0  2  0  0  0  0  0  0
  189.2000  177.1470  145.2030 C   0  0  0  0  0  0  0  0  0  0  0  0
  188.9080  176.9880  140.5060 C   0  0  0  0  0  2  0  0  0  0  0  0
  190.6140  177.2440  138.8770 C   0  0  0  0  0  1  0  0  0  0  0  0
  189.7400  177.9770  139.7920 N   0  0  0  0  0  0  0  0  0  0  0  0
  188.9250  178.8760  139.0580 N   0  0  0  0  0  0  0  0  0  0  0  0
  187.6270  178.5670  139.3080 O   0  0  0  0  0  1  0  0  0  0  0  0
  189.1160  178.6010  137.6390 C   0  0  0  0  0  1  0  0  0  0  0  0
  1 14  1  0  0  0  0
  2  1  2  0  0  0  0
  2 19  1  0  0  0  0
  4  1  1  0  0  0  0
  4  8  1  0  0  0  0
  5 18  1  0  0  0  0
  5 12  2  0  0  0  0
  6  9  1  0  0  0  0
  7  3  1  0  0  0  0
  8 15  1  0  0  0  0
  9  8  2  0  0  0  0
 10 19  1  0  0  0  0
 10 11  1  1  0  0  0
 12  2  1  0  0  0  0
 13 17  1  0  0  0  0
 13  6  2  0  0  0  0
 14 15  1  0  0  0  0
 14  3  2  0  0  0  0
 16 10  1  0  0  0  0
 17  4  2  0  0  0  0
 18 16  1  0  0  0  0
 19  7  2  0  0  0  0
 20  5  1  0  0  0  0
 21 22  1  0  0  0  0
 22 20  1  0  0  0  0
 23 24  1  0  0  0  0
 23 22  1  0  0  0  0
 25 23  1  0  0  0  0
M  END
>  <MODEL>
3

>  <REMARK>
 VINA RESULT:     -10.0      1.356      1.631
  Name = 
  3 active torsions:
  status: ('A' for Active; 'I' for Inactive)
    1  A    between atoms: N_2  and  N_25
    2  A    between atoms: C_6  and  C_15
    3  A    between atoms: C_15  and  N_25
                            x       y       z     vdW  Elec       q    Type
                         _______ _______ _______ _____ _____    ______ ____

>  <TORSDO>
F 3

$$$$
=
 OpenBabel11052412513D

 25 28  0  0  1  0  0  0  0  0999 V2000
  186.8140  178.0330  145.5260 C   0  0  0  0  0  0  0  0  0  0  0  0
  186.0530  178.2880  144.3800 C   0  0  0  0  0  0  0  0  0  0  0  0
  185.0410  178.6460  146.9680 N   0  0  0  0  0  0  0  0  0  0  0  0
  188.1050  177.5960  145.7230 C   0  0  0  0  0  0  0  0  0  0  0  0
  186.2430  178.2410  141.8250 C   0  0  0  0  0  0  0  0  0  0  0  0
  190.5330  176.7720  146.7680 C   0  0  0  0  0  3  0  0  0  0  0  0
  184.2750  178.8980  145.9020 N   0  0  0  0  0  0  0  0  0  0  0  0
  188.2850  177.5400  147.0910 C   0  0  0  0  0  0  0  0  0  0  0  0
  189.4950  177.1300  147.6460 C   0  0  0  0  0  3  0  0  0  0  0  0
  183.7560  179.1100  143.4970 C   0  0  2  0  0  3  0  0  0  0  0  0
  182.3020  179.0890  143.9430 C   0  0  0  0  0  1  0  0  0  0  0  0
  186.7030  178.0450  143.0650 C   0  0  0  0  0  3  0  0  0  0  0  0
  190.3450  176.8300  145.3710 C   0  0  0  0  0  3  0  0  0  0  0  0
  186.3040  178.2120  146.7860 C   0  0  0  0  0  0  0  0  0  0  0  0
  187.1810  177.9190  147.7730 N   0  0  0  0  0  2  0  0  0  0  0  0
  183.9000  178.2490  142.3410 N   0  0  0  0  0  2  0  0  0  0  0  0
  189.1170  177.2470  144.8300 C   0  0  0  0  0  3  0  0  0  0  0  0
  184.9270  178.8710  141.5340 C   0  0  0  0  0  2  0  0  0  0  0  0
  184.7070  178.7210  144.6090 C   0  0  0  0  0  0  0  0  0  0  0  0
  187.1150  177.8840  140.6500 C   0  0  0  0  0  2  0  0  0  0  0  0
  189.4320  177.8640  141.1580 C   0  0  0  0  0  1  0  0  0  0  0  0
  188.3660  178.6640  140.5590 N   0  0  0  0  0  0  0  0  0  0  0  0
  188.6800  178.9420  139.2040 N   0  0  0  0  0  0  0  0  0  0  0  0
  187.5980  178.6270  138.4470 O   0  0  0  0  0  1  0  0  0  0  0  0
  189.7210  178.0110  138.7830 C   0  0  0  0  0  1  0  0  0  0  0  0
  1  4  1  0  0  0  0
  1 14  1  0  0  0  0
  2 19  1  0  0  0  0
  2  1  2  0  0  0  0
  4  8  1  0  0  0  0
  5 12  2  0  0  0  0
  6  9  1  0  0  0  0
  7  3  1  0  0  0  0
  8  9  2  0  0  0  0
  8 15  1  0  0  0  0
 10 11  1  1  0  0  0
 10 19  1  0  0  0  0
 12  2  1  0  0  0  0
 13  6  2  0  0  0  0
 14  3  2  0  0  0  0
 14 15  1  0  0  0  0
 16 10  1  0  0  0  0
 17 13  1  0  0  0  0
 17  4  2  0  0  0  0
 18  5  1  0  0  0  0
 18 16  1  0  0  0  0
 19  7  2  0  0  0  0
 20  5  1  0  0  0  0
 22 20  1  0  0  0  0
 22 21  1  0  0  0  0
 23 22  1  0  0  0  0
 24 23  1  0  0  0  0
 25 23  1  0  0  0  0
M  END
>  <MODEL>
4

>  <REMARK>
 VINA RESULT:      -9.7      1.645      4.920
  Name = 
  3 active torsions:
  status: ('A' for Active; 'I' for Inactive)
    1  A    between atoms: N_2  and  N_25
    2  A    between atoms: C_6  and  C_15
    3  A    between atoms: C_15  and  N_25
                            x       y       z     vdW  Elec       q    Type
                         _______ _______ _______ _____ _____    ______ ____

>  <TORSDO>
F 3

$$$$
=
 OpenBabel11052412513D

 25 28  0  0  1  0  0  0  0  0999 V2000
  187.9750  177.6610  145.3130 C   0  0  0  0  0  0  0  0  0  0  0  0
  187.2250  177.9950  144.1800 C   0  0  0  0  0  0  0  0  0  0  0  0
  186.1760  178.1370  146.7740 N   0  0  0  0  0  0  0  0  0  0  0  0
  189.2690  177.2250  145.4930 C   0  0  0  0  0  0  0  0  0  0  0  0
  187.4480  178.1510  141.6320 C   0  0  0  0  0  0  0  0  0  0  0  0
  191.6950  176.3530  146.5030 C   0  0  0  0  0  3  0  0  0  0  0  0
  185.4200  178.4610  145.7210 N   0  0  0  0  0  0  0  0  0  0  0  0
  189.4330  177.0650  146.8550 C   0  0  0  0  0  0  0  0  0  0  0  0
  190.6410  176.6280  147.3920 C   0  0  0  0  0  3  0  0  0  0  0  0
  184.9290  178.8550  143.3330 C   0  0  2  0  0  3  0  0  0  0  0  0
  183.4690  178.7810  143.7560 C   0  0  0  0  0  1  0  0  0  0  0  0
  187.8950  177.8650  142.8590 C   0  0  0  0  0  3  0  0  0  0  0  0
  191.5240  176.5190  145.1120 C   0  0  0  0  0  3  0  0  0  0  0  0
  187.4470  177.7340  146.5760 C   0  0  0  0  0  0  0  0  0  0  0  0
  188.3150  177.3750  147.5490 N   0  0  0  0  0  2  0  0  0  0  0  0
  185.0990  178.0890  142.1150 N   0  0  0  0  0  2  0  0  0  0  0  0
  190.2970  176.9600  144.5890 C   0  0  0  0  0  3  0  0  0  0  0  0
  186.1280  178.7850  141.3730 C   0  0  0  0  0  2  0  0  0  0  0  0
  185.8700  178.3920  144.4240 C   0  0  0  0  0  0  0  0  0  0  0  0
  188.3390  177.8990  140.4450 C   0  0  0  0  0  2  0  0  0  0  0  0
  189.0630  178.9720  138.4570 C   0  0  0  0  0  1  0  0  0  0  0  0
  187.8790  178.5270  139.1900 N   0  0  0  0  0  0  0  0  0  0  0  0
  187.1530  177.5950  138.4050 N   0  0  0  0  0  0  0  0  0  0  0  0
  187.9990  176.5950  138.0490 O   0  0  0  0  0  1  0  0  0  0  0  0
  186.7870  178.2480  137.1540 C   0  0  0  0  0  1  0  0  0  0  0  0
  1  4  1  0  0  0  0
  1 14  1  0  0  0  0
  2 19  1  0  0  0  0
  2  1  2  0  0  0  0
  4  8  1  0  0  0  0
  5 12  2  0  0  0  0
  6  9  1  0  0  0  0
  7  3  1  0  0  0  0
  8  9  2  0  0  0  0
  8 15  1  0  0  0  0
 10 11  1  1  0  0  0
 10 19  1  0  0  0  0
 12  2  1  0  0  0  0
 13  6  2  0  0  0  0
 14  3  2  0  0  0  0
 14 15  1  0  0  0  0
 16 10  1  0  0  0  0
 17 13  1  0  0  0  0
 17  4  2  0  0  0  0
 18  5  1  0  0  0  0
 18 16  1  0  0  0  0
 19  7  2  0  0  0  0
 20  5  1  0  0  0  0
 21 22  1  0  0  0  0
 22 20  1  0  0  0  0
 23 22  1  0  0  0  0
 24 23  1  0  0  0  0
 25 23  1  0  0  0  0
M  END
>  <MODEL>
5

>  <REMARK>
 VINA RESULT:      -9.4      1.817      4.922
  Name = 
  3 active torsions:
  status: ('A' for Active; 'I' for Inactive)
    1  A    between atoms: N_2  and  N_25
    2  A    between atoms: C_6  and  C_15
    3  A    between atoms: C_15  and  N_25
                            x       y       z     vdW  Elec       q    Type
                         _______ _______ _______ _____ _____    ______ ____

>  <TORSDO>
F 3

$$$$
=
 OpenBabel11052412513D

 25 28  0  0  1  0  0  0  0  0999 V2000
  186.6710  178.3000  142.5360 C   0  0  0  0  0  0  0  0  0  0  0  0
  187.9080  177.9230  142.0030 C   0  0  0  0  0  0  0  0  0  0  0  0
  185.8480  178.9790  140.4250 N   0  0  0  0  0  0  0  0  0  0  0  0
  186.1480  178.2800  143.8100 C   0  0  0  0  0  0  0  0  0  0  0  0
  190.1710  176.9670  142.7310 C   0  0  0  0  0  0  0  0  0  0  0  0
  184.5550  178.4960  146.0650 C   0  0  0  0  0  3  0  0  0  0  0  0
  187.0120  178.6280  139.8700 N   0  0  0  0  0  0  0  0  0  0  0  0
  184.8670  178.7850  143.7050 C   0  0  0  0  0  0  0  0  0  0  0  0
  184.0420  178.9050  144.8210 C   0  0  0  0  0  3  0  0  0  0  0  0
  189.3380  177.7960  139.8420 C   0  0  2  0  0  3  0  0  0  0  0  0
  189.1130  177.6080  138.3490 C   0  0  0  0  0  1  0  0  0  0  0  0
  188.9130  177.3630  142.9460 C   0  0  0  0  0  3  0  0  0  0  0  0
  185.8650  177.9810  146.1680 C   0  0  0  0  0  3  0  0  0  0  0  0
  185.6720  178.8140  141.7510 C   0  0  0  0  0  0  0  0  0  0  0  0
  184.5480  179.1250  142.4360 N   0  0  0  0  0  2  0  0  0  0  0  0
  190.0100  176.6240  140.3620 N   0  0  0  0  0  2  0  0  0  0  0  0
  186.6810  177.8670  145.0300 C   0  0  0  0  0  3  0  0  0  0  0  0
  190.8620  177.1180  141.4230 C   0  0  0  0  0  2  0  0  0  0  0  0
  188.0520  178.0850  140.5870 C   0  0  0  0  0  0  0  0  0  0  0  0
  190.9740  176.4090  143.8770 C   0  0  0  0  0  2  0  0  0  0  0  0
  191.0720  178.7170  144.4140 C   0  0  0  0  0  1  0  0  0  0  0  0
  191.7060  177.4230  144.6610 N   0  0  0  0  0  0  0  0  0  0  0  0
  191.6470  177.1190  146.0450 N   0  0  0  0  0  0  0  0  0  0  0  0
  192.0550  175.8350  146.2120 O   0  0  0  0  0  1  0  0  0  0  0  0
  190.2470  177.1280  146.4500 C   0  0  0  0  0  1  0  0  0  0  0  0
  1  4  1  0  0  0  0
  2  1  2  0  0  0  0
  2 12  1  0  0  0  0
  3 14  2  0  0  0  0
  4 17  1  0  0  0  0
  5 12  2  0  0  0  0
  5 20  1  0  0  0  0
  6 13  1  0  0  0  0
  7  3  1  0  0  0  0
  7 19  2  0  0  0  0
  8  4  2  0  0  0  0
  8  9  1  0  0  0  0
  9  6  2  0  0  0  0
 10 11  1  6  0  0  0
 10 16  1  0  0  0  0
 10 19  1  0  0  0  0
 14 15  1  0  0  0  0
 14  1  1  0  0  0  0
 15  8  1  0  0  0  0
 16 18  1  0  0  0  0
 17 13  2  0  0  0  0
 18  5  1  0  0  0  0
 19  2  1  0  0  0  0
 20 22  1  0  0  0  0
 21 22  1  0  0  0  0
 22 23  1  0  0  0  0
 23 24  1  0  0  0  0
 23 25  1  0  0  0  0
M  END
>  <MODEL>
6

>  <REMARK>
 VINA RESULT:      -9.1      2.343      5.015
  Name = 
  3 active torsions:
  status: ('A' for Active; 'I' for Inactive)
    1  A    between atoms: N_2  and  N_25
    2  A    between atoms: C_6  and  C_15
    3  A    between atoms: C_15  and  N_25
                            x       y       z     vdW  Elec       q    Type
                         _______ _______ _______ _____ _____    ______ ____

>  <TORSDO>
F 3

$$$$
=
 OpenBabel11052412513D

 25 28  0  0  1  0  0  0  0  0999 V2000
  189.1050  177.4100  144.2090 C   0  0  0  0  0  0  0  0  0  0  0  0
  188.8120  177.6510  142.8630 C   0  0  0  0  0  0  0  0  0  0  0  0
  191.1970  176.4350  143.6900 N   0  0  0  0  0  0  0  0  0  0  0  0
  188.4220  177.6510  145.3810 C   0  0  0  0  0  0  0  0  0  0  0  0
  186.9630  178.6260  141.3810 C   0  0  0  0  0  0  0  0  0  0  0  0
  187.5930  177.8560  148.0150 C   0  0  0  0  0  3  0  0  0  0  0  0
  190.9630  176.6500  142.3920 N   0  0  0  0  0  0  0  0  0  0  0  0
  189.2310  177.1840  146.3980 C   0  0  0  0  0  0  0  0  0  0  0  0
  188.8410  177.2730  147.7330 C   0  0  0  0  0  3  0  0  0  0  0  0
  189.6580  177.3790  140.4260 C   0  0  2  0  0  3  0  0  0  0  0  0
  190.9890  177.3360  139.6900 C   0  0  0  0  0  1  0  0  0  0  0  0
  187.5170  178.3160  142.5570 C   0  0  0  0  0  3  0  0  0  0  0  0
  186.7690  178.3310  146.9730 C   0  0  0  0  0  3  0  0  0  0  0  0
  190.2770  176.8150  144.5980 C   0  0  0  0  0  0  0  0  0  0  0  0
  190.3890  176.6590  145.9370 N   0  0  0  0  0  2  0  0  0  0  0  0
  188.9610  178.5940  140.0550 N   0  0  0  0  0  2  0  0  0  0  0  0
  187.1800  178.2330  145.6330 C   0  0  0  0  0  3  0  0  0  0  0  0
  187.5570  178.2430  140.0730 C   0  0  0  0  0  2  0  0  0  0  0  0
  189.8230  177.2610  141.9250 C   0  0  0  0  0  0  0  0  0  0  0  0
  185.6310  179.3280  141.3570 C   0  0  0  0  0  2  0  0  0  0  0  0
  183.4410  178.6120  141.9210 C   0  0  0  0  0  1  0  0  0  0  0  0
  184.5010  178.4820  140.9230 N   0  0  0  0  0  0  0  0  0  0  0  0
  184.0200  178.9050  139.6580 N   0  0  0  0  0  0  0  0  0  0  0  0
  184.5490  180.1270  139.3930 O   0  0  0  0  0  1  0  0  0  0  0  0
  182.5840  179.1300  139.7730 C   0  0  0  0  0  1  0  0  0  0  0  0
  1 14  1  0  0  0  0
  1  4  1  0  0  0  0
  2  1  2  0  0  0  0
  3 14  2  0  0  0  0
  4 17  2  0  0  0  0
  4  8  1  0  0  0  0
  5 12  2  0  0  0  0
  7  3  1  0  0  0  0
  8  9  2  0  0  0  0
  9  6  1  0  0  0  0
 10 11  1  6  0  0  0
 10 19  1  0  0  0  0
 12  2  1  0  0  0  0
 13  6  2  0  0  0  0
 14 15  1  0  0  0  0
 15  8  1  0  0  0  0
 16 18  1  0  0  0  0
 16 10  1  0  0  0  0
 17 13  1  0  0  0  0
 18  5  1  0  0  0  0
 19  7  2  0  0  0  0
 19  2  1  0  0  0  0
 20  5  1  0  0  0  0
 22 20  1  0  0  0  0
 22 21  1  0  0  0  0
 23 25  1  0  0  0  0
 23 22  1  0  0  0  0
 24 23  1  0  0  0  0
M  END
>  <MODEL>
7

>  <REMARK>
 VINA RESULT:      -8.9      2.359      5.339
  Name = 
  3 active torsions:
  status: ('A' for Active; 'I' for Inactive)
    1  A    between atoms: N_2  and  N_25
    2  A    between atoms: C_6  and  C_15
    3  A    between atoms: C_15  and  N_25
                            x       y       z     vdW  Elec       q    Type
                         _______ _______ _______ _____ _____    ______ ____

>  <TORSDO>
F 3

$$$$
=
 OpenBabel11052412513D

 25 28  0  0  1  0  0  0  0  0999 V2000
  187.4880  177.7250  144.4800 C   0  0  0  0  0  0  0  0  0  0  0  0
  188.2810  177.5790  143.3380 C   0  0  0  0  0  0  0  0  0  0  0  0
  189.2310  177.0120  145.9120 N   0  0  0  0  0  0  0  0  0  0  0  0
  186.1860  178.1290  144.6790 C   0  0  0  0  0  0  0  0  0  0  0  0
  188.1570  177.8430  140.7920 C   0  0  0  0  0  0  0  0  0  0  0  0
  183.7200  178.8310  145.7250 C   0  0  0  0  0  3  0  0  0  0  0  0
  190.0280  176.8620  144.8500 N   0  0  0  0  0  0  0  0  0  0  0  0
  185.9700  178.0650  146.0420 C   0  0  0  0  0  0  0  0  0  0  0  0
  184.7400  178.4110  146.5970 C   0  0  0  0  0  3  0  0  0  0  0  0
  190.6120  176.8630  142.4500 C   0  0  2  0  0  3  0  0  0  0  0  0
  192.0540  176.8630  142.9350 C   0  0  0  0  0  1  0  0  0  0  0  0
  187.6620  177.9260  142.0310 C   0  0  0  0  0  3  0  0  0  0  0  0
  183.9450  178.8950  144.3330 C   0  0  0  0  0  3  0  0  0  0  0  0
  187.9670  177.4450  145.7340 C   0  0  0  0  0  0  0  0  0  0  0  0
  187.0610  177.6420  146.7180 N   0  0  0  0  0  2  0  0  0  0  0  0
  190.4860  177.8180  141.3680 N   0  0  0  0  0  2  0  0  0  0  0  0
  185.1930  178.5410  143.7920 C   0  0  0  0  0  3  0  0  0  0  0  0
  189.4880  177.2560  140.4840 C   0  0  0  0  0  2  0  0  0  0  0  0
  189.6280  177.1440  143.5650 C   0  0  0  0  0  0  0  0  0  0  0  0
  187.3110  178.2880  139.6290 C   0  0  0  0  0  2  0  0  0  0  0  0
  186.6530  177.3090  137.5710 C   0  0  0  0  0  1  0  0  0  0  0  0
  187.7980  177.8380  138.3100 N   0  0  0  0  0  0  0  0  0  0  0  0
  188.3700  178.9210  137.5950 N   0  0  0  0  0  0  0  0  0  0  0  0
  187.4080  179.4570  136.8020 O   0  0  0  0  0  1  0  0  0  0  0  0
  189.3620  178.3790  136.6740 C   0  0  0  0  0  1  0  0  0  0  0  0
  1  4  1  0  0  0  0
  1 14  1  0  0  0  0
  2 19  1  0  0  0  0
  2  1  2  0  0  0  0
  4  8  1  0  0  0  0
  5 12  2  0  0  0  0
  6  9  1  0  0  0  0
  7  3  1  0  0  0  0
  8  9  2  0  0  0  0
  8 15  1  0  0  0  0
 10 11  1  1  0  0  0
 10 19  1  0  0  0  0
 12  2  1  0  0  0  0
 13  6  2  0  0  0  0
 14  3  2  0  0  0  0
 14 15  1  0  0  0  0
 16 10  1  0  0  0  0
 17 13  1  0  0  0  0
 17  4  2  0  0  0  0
 18  5  1  0  0  0  0
 18 16  1  0  0  0  0
 19  7  2  0  0  0  0
 20  5  1  0  0  0  0
 21 22  1  0  0  0  0
 22 20  1  0  0  0  0
 23 22  1  0  0  0  0
 24 23  1  0  0  0  0
 25 23  1  0  0  0  0
M  END
>  <MODEL>
8

>  <REMARK>
 VINA RESULT:      -8.8      1.909      3.268
  Name = 
  3 active torsions:
  status: ('A' for Active; 'I' for Inactive)
    1  A    between atoms: N_2  and  N_25
    2  A    between atoms: C_6  and  C_15
    3  A    between atoms: C_15  and  N_25
                            x       y       z     vdW  Elec       q    Type
                         _______ _______ _______ _____ _____    ______ ____

>  <TORSDO>
F 3

$$$$
=
 OpenBabel11052412513D

 25 28  0  0  1  0  0  0  0  0999 V2000
  186.3440  178.4240  142.1840 C   0  0  0  0  0  0  0  0  0  0  0  0
  187.6900  178.0450  142.2210 C   0  0  0  0  0  0  0  0  0  0  0  0
  186.3890  178.7470  139.8410 N   0  0  0  0  0  0  0  0  0  0  0  0
  185.3750  178.5580  143.1540 C   0  0  0  0  0  0  0  0  0  0  0  0
  189.5030  177.3320  143.8860 C   0  0  0  0  0  0  0  0  0  0  0  0
  183.0440  179.0040  144.5800 C   0  0  0  0  0  3  0  0  0  0  0  0
  187.6750  178.3860  139.8270 N   0  0  0  0  0  0  0  0  0  0  0  0
  184.2310  178.9690  142.4980 C   0  0  0  0  0  0  0  0  0  0  0  0
  183.0440  179.2020  143.1880 C   0  0  0  0  0  3  0  0  0  0  0  0
  189.8340  177.6910  140.8050 C   0  0  2  0  0  3  0  0  0  0  0  0
  190.1950  177.2780  139.3860 C   0  0  0  0  0  1  0  0  0  0  0  0
  188.2580  177.6830  143.5470 C   0  0  0  0  0  3  0  0  0  0  0  0
  184.2140  178.5840  145.2470 C   0  0  0  0  0  3  0  0  0  0  0  0
  185.7210  178.7640  141.0120 C   0  0  0  0  0  0  0  0  0  0  0  0
  184.4210  179.1050  141.1660 N   0  0  0  0  0  2  0  0  0  0  0  0
  190.2550  176.6450  141.7140 N   0  0  0  0  0  2  0  0  0  0  0  0
  185.4020  178.3540  144.5330 C   0  0  0  0  0  3  0  0  0  0  0  0
  190.6400  177.3330  142.9270 C   0  0  0  0  0  2  0  0  0  0  0  0
  188.3630  178.0100  140.9570 C   0  0  0  0  0  0  0  0  0  0  0  0
  189.8070  176.9890  145.3210 C   0  0  0  0  0  2  0  0  0  0  0  0
  187.8760  176.9360  146.6970 C   0  0  0  0  0  1  0  0  0  0  0  0
  189.0230  177.7550  146.3110 N   0  0  0  0  0  0  0  0  0  0  0  0
  189.8120  178.0420  147.4540 N   0  0  0  0  0  0  0  0  0  0  0  0
  190.5780  176.9540  147.7210 O   0  0  0  0  0  1  0  0  0  0  0  0
  188.9170  178.1670  148.5990 C   0  0  0  0  0  1  0  0  0  0  0  0
  1  2  2  0  0  0  0
  1  4  1  0  0  0  0
  2 12  1  0  0  0  0
  3 14  2  0  0  0  0
  4 17  1  0  0  0  0
  5 20  1  0  0  0  0
  6 13  1  0  0  0  0
  7  3  1  0  0  0  0
  7 19  2  0  0  0  0
  8  4  2  0  0  0  0
  8  9  1  0  0  0  0
  9  6  2  0  0  0  0
 10 11  1  6  0  0  0
 10 19  1  0  0  0  0
 10 16  1  0  0  0  0
 12  5  2  0  0  0  0
 14 15  1  0  0  0  0
 14  1  1  0  0  0  0
 15  8  1  0  0  0  0
 16 18  1  0  0  0  0
 17 13  2  0  0  0  0
 18  5  1  0  0  0  0
 19  2  1  0  0  0  0
 20 22  1  0  0  0  0
 22 21  1  0  0  0  0
 22 23  1  0  0  0  0
 23 24  1  0  0  0  0
 23 25  1  0  0  0  0
M  END
>  <MODEL>
9

>  <REMARK>
 VINA RESULT:      -8.7      2.481      5.315
  Name = 
  3 active torsions:
  status: ('A' for Active; 'I' for Inactive)
    1  A    between atoms: N_2  and  N_25
    2  A    between atoms: C_6  and  C_15
    3  A    between atoms: C_15  and  N_25
                            x       y       z     vdW  Elec       q    Type
                         _______ _______ _______ _____ _____    ______ ____

>  <TORSDO>
F 3

$$$$
