=
 OpenBabel11052416503D

 32 33  0  0  1  0  0  0  0  0999 V2000
  183.3780  179.0370  141.8010 C   0  0  0  0  0  2  0  0  0  0  0  0
  186.4950  177.7590  146.2130 C   0  0  0  0  0  2  0  0  0  0  0  0
  184.7800  178.5730  144.6140 C   0  0  2  0  0  3  0  0  0  0  0  0
  186.8420  178.2350  143.0810 C   0  0  0  0  0  2  0  0  0  0  0  0
  184.5310  178.1080  142.1400 C   0  0  0  0  0  2  0  0  0  0  0  0
  187.1290  176.9720  143.8890 C   0  0  2  0  0  3  0  0  0  0  0  0
  182.3330  178.5710  144.1550 C   0  0  0  0  0  2  0  0  0  0  0  0
  185.4020  178.7440  143.2160 C   0  0  1  0  0  3  0  0  0  0  0  0
  183.4910  179.3700  144.7450 C   0  0  0  0  0  2  0  0  0  0  0  0
  182.1260  178.7700  142.6440 C   0  0  1  0  0  3  0  0  0  0  0  0
  185.7330  178.9840  145.7250 C   0  0  0  0  0  2  0  0  0  0  0  0
  187.6330  177.3770  145.2740 C   0  0  0  0  0  2  0  0  0  0  0  0
  180.0170  179.6180  141.4640 C   0  0  0  0  0  0  0  0  0  0  0  0
  181.0980  179.7740  142.3890 N   0  0  0  0  0  2  0  0  0  0  0  0
  179.8460  178.5340  140.8450 O   0  0  0  0  0  0  0  0  0  0  0  0
  179.0800  180.7480  141.2330 C   0  0  0  0  0  1  0  0  0  0  0  0
  188.1550  176.2010  143.2040 N   0  0  0  0  0  2  0  0  0  0  0  0
  188.6630  177.0220  142.1130 C   0  0  0  0  0  2  0  0  0  0  0  0
  190.1800  176.8990  142.0310 C   0  0  2  0  0  3  0  0  0  0  0  0
  190.8370  177.6700  143.1680 C   0  0  0  0  0  2  0  0  0  0  0  0
  191.7820  175.5320  143.8920 C   0  0  0  0  0  2  0  0  0  0  0  0
  191.3520  176.7440  144.2240 C   0  0  0  0  0  0  0  0  0  0  0  0
  191.3790  177.1730  145.6500 C   0  0  0  0  0  1  0  0  0  0  0  0
  190.6680  177.4480  140.7010 C   0  0  0  0  0  2  0  0  0  0  0  0
  190.0250  176.7030  139.5360 C   0  0  1  0  0  3  0  0  0  0  0  0
  188.9290  177.5390  138.8710 C   0  0  0  0  0  2  0  0  0  0  0  0
  189.3750  178.2020  137.5710 C   0  0  0  0  0  2  0  0  0  0  0  0
  189.0210  179.5520  137.5700 O   0  0  0  0  0  1  0  0  0  0  0  0
  191.0780  176.2280  138.5350 C   0  0  0  0  0  2  0  0  0  0  0  0
  191.0320  174.8160  138.3870 O   0  0  0  0  0  0  0  0  0  0  0  0
  191.0190  174.2320  137.1500 C   0  0  0  0  0  0  0  0  0  0  0  0
  191.0100  173.7170  136.0570 C   0  0  0  0  0  3  0  0  0  0  0  0
  1  5  1  0  0  0  0
  1 10  1  0  0  0  0
  3  9  1  6  0  0  0
  3 11  1  0  0  0  0
  4  8  1  0  0  0  0
  4  6  1  0  0  0  0
  6 17  1  6  0  0  0
  6 12  1  0  0  0  0
  7  9  1  0  0  0  0
  8  5  1  6  0  0  0
  8  3  1  0  0  0  0
 10 14  1  1  0  0  0
 10  7  1  0  0  0  0
 11  2  1  0  0  0  0
 12  2  1  0  0  0  0
 13 14  1  0  0  0  0
 15 13  2  0  0  0  0
 16 13  1  0  0  0  0
 18 17  1  0  0  0  0
 19 24  1  6  0  0  0
 19 18  1  0  0  0  0
 19 20  1  0  0  0  0
 20 22  1  0  0  0  0
 21 22  2  0  0  0  0
 22 23  1  0  0  0  0
 25 29  1  6  0  0  0
 25 24  1  0  0  0  0
 26 25  1  0  0  0  0
 27 26  1  0  0  0  0
 28 27  1  0  0  0  0
 30 29  1  0  0  0  0
 31 30  1  0  0  0  0
 32 31  3  0  0  0  0
M  END
>  <MODEL>
1

>  <REMARK>
 VINA RESULT:      -7.6      0.000      0.000
  Name = 
  13 active torsions:
  status: ('A' for Active; 'I' for Inactive)
    1  A    between atoms: C_5  and  C_25
    2  A    between atoms: O_6  and  C_7
    3  A    between atoms: O_6  and  C_32
    4  A    between atoms: N_10  and  C_24
    5  A    between atoms: C_11  and  C_27
    6  A    between atoms: C_11  and  C_30
    7  A    between atoms: C_11  and  C_32
    8  A    between atoms: C_14  and  N_15
    9  A    between atoms: N_15  and  C_26
   10  A    between atoms: C_16  and  C_25
   11  A    between atoms: C_16  and  C_26
   12  A    between atoms: C_16  and  C_27
   13  A    between atoms: C_18  and  C_30
                            x       y       z     vdW  Elec       q    Type
                         _______ _______ _______ _____ _____    ______ ____

>  <TORSDO>
F 13

$$$$
=
 OpenBabel11052416503D

 32 33  0  0  1  0  0  0  0  0999 V2000
  190.0200  178.0190  145.1960 C   0  0  0  0  0  2  0  0  0  0  0  0
  190.0250  176.8870  139.7610 C   0  0  0  0  0  2  0  0  0  0  0  0
  190.5280  177.1780  142.1750 C   0  0  2  0  0  3  0  0  0  0  0  0
  188.6520  178.9240  141.7900 C   0  0  0  0  0  2  0  0  0  0  0  0
  189.0170  177.9370  144.0560 C   0  0  0  0  0  2  0  0  0  0  0  0
  187.9880  177.8870  140.8890 C   0  0  2  0  0  3  0  0  0  0  0  0
  191.2900  175.9560  144.2050 C   0  0  0  0  0  2  0  0  0  0  0  0
  189.6930  178.3360  142.7510 C   0  0  1  0  0  3  0  0  0  0  0  0
  191.7240  176.8660  143.0610 C   0  0  0  0  0  2  0  0  0  0  0  0
  190.7560  176.6970  145.4430 C   0  0  1  0  0  3  0  0  0  0  0  0
  191.0170  177.4640  140.7630 C   0  0  0  0  0  2  0  0  0  0  0  0
  188.7940  177.7700  139.5960 C   0  0  0  0  0  2  0  0  0  0  0  0
  192.0710  175.9410  147.5060 C   0  0  0  0  0  0  0  0  0  0  0  0
  191.8070  176.8620  146.4420 N   0  0  0  0  0  2  0  0  0  0  0  0
  191.4310  174.8610  147.6010 O   0  0  0  0  0  0  0  0  0  0  0  0
  193.1180  176.2620  148.5110 C   0  0  0  0  0  1  0  0  0  0  0  0
  186.6370  178.3300  140.5810 N   0  0  0  0  0  2  0  0  0  0  0  0
  186.2490  179.2920  141.6030 C   0  0  0  0  0  2  0  0  0  0  0  0
  184.9770  178.8260  142.3030 C   0  0  2  0  0  3  0  0  0  0  0  0
  185.3220  177.9740  143.5160 C   0  0  0  0  0  2  0  0  0  0  0  0
  185.7540  178.8590  145.7570 C   0  0  0  0  0  2  0  0  0  0  0  0
  184.8770  178.6320  144.7840 C   0  0  0  0  0  0  0  0  0  0  0  0
  183.4530  179.0270  144.9660 C   0  0  0  0  0  1  0  0  0  0  0  0
  184.1310  178.0120  141.3390 C   0  0  0  0  0  2  0  0  0  0  0  0
  182.8770  178.7810  140.9340 C   0  0  1  0  0  3  0  0  0  0  0  0
  182.6860  178.7830  139.4150 C   0  0  0  0  0  2  0  0  0  0  0  0
  182.9150  180.1500  138.7760 C   0  0  0  0  0  2  0  0  0  0  0  0
  184.2370  180.5540  138.9610 O   0  0  0  0  0  1  0  0  0  0  0  0
  181.6450  178.2570  141.6710 C   0  0  0  0  0  2  0  0  0  0  0  0
  180.8800  179.3300  142.2000 O   0  0  0  0  0  0  0  0  0  0  0  0
  180.0560  179.1520  143.2780 C   0  0  0  0  0  0  0  0  0  0  0  0
  179.3300  178.9980  144.2300 C   0  0  0  0  0  3  0  0  0  0  0  0
  1 10  1  0  0  0  0
  2 11  1  0  0  0  0
  3 11  1  6  0  0  0
  3  8  1  0  0  0  0
  3  9  1  0  0  0  0
  5  1  1  0  0  0  0
  6 17  1  6  0  0  0
  6  4  1  0  0  0  0
  7 10  1  0  0  0  0
  8  4  1  6  0  0  0
  8  5  1  0  0  0  0
  9  7  1  0  0  0  0
 10 14  1  1  0  0  0
 12  2  1  0  0  0  0
 12  6  1  0  0  0  0
 13 15  2  0  0  0  0
 13 16  1  0  0  0  0
 14 13  1  0  0  0  0
 17 18  1  0  0  0  0
 18 19  1  0  0  0  0
 19 24  1  6  0  0  0
 19 20  1  0  0  0  0
 20 22  1  0  0  0  0
 22 23  1  0  0  0  0
 22 21  2  0  0  0  0
 25 26  1  6  0  0  0
 25 24  1  0  0  0  0
 25 29  1  0  0  0  0
 27 28  1  0  0  0  0
 27 26  1  0  0  0  0
 29 30  1  0  0  0  0
 30 31  1  0  0  0  0
 31 32  3  0  0  0  0
M  END
>  <MODEL>
2

>  <REMARK>
 VINA RESULT:      -7.4      2.754      8.780
  Name = 
  13 active torsions:
  status: ('A' for Active; 'I' for Inactive)
    1  A    between atoms: C_5  and  C_25
    2  A    between atoms: O_6  and  C_7
    3  A    between atoms: O_6  and  C_32
    4  A    between atoms: N_10  and  C_24
    5  A    between atoms: C_11  and  C_27
    6  A    between atoms: C_11  and  C_30
    7  A    between atoms: C_11  and  C_32
    8  A    between atoms: C_14  and  N_15
    9  A    between atoms: N_15  and  C_26
   10  A    between atoms: C_16  and  C_25
   11  A    between atoms: C_16  and  C_26
   12  A    between atoms: C_16  and  C_27
   13  A    between atoms: C_18  and  C_30
                            x       y       z     vdW  Elec       q    Type
                         _______ _______ _______ _____ _____    ______ ____

>  <TORSDO>
F 13

$$$$
=
 OpenBabel11052416503D

 32 33  0  0  1  0  0  0  0  0999 V2000
  188.9820  177.0110  144.8250 C   0  0  0  0  0  2  0  0  0  0  0  0
  183.9020  179.2350  145.0960 C   0  0  0  0  0  2  0  0  0  0  0  0
  186.1050  178.1680  145.5140 C   0  0  2  0  0  3  0  0  0  0  0  0
  185.7710  177.7610  142.9770 C   0  0  0  0  0  2  0  0  0  0  0  0
  188.0690  177.8570  143.9520 C   0  0  0  0  0  2  0  0  0  0  0  0
  185.1900  179.1700  142.9130 C   0  0  2  0  0  3  0  0  0  0  0  0
  188.1430  178.3140  146.9340 C   0  0  0  0  0  2  0  0  0  0  0  0
  186.6160  177.4930  144.2280 C   0  0  1  0  0  3  0  0  0  0  0  0
  186.8040  177.6100  146.7450 C   0  0  0  0  0  2  0  0  0  0  0  0
  189.3130  177.6760  146.1660 C   0  0  1  0  0  3  0  0  0  0  0  0
  184.6010  178.0180  145.6870 C   0  0  0  0  0  2  0  0  0  0  0  0
  183.8130  179.1660  143.5760 C   0  0  0  0  0  2  0  0  0  0  0  0
  191.4560  176.4610  146.8660 C   0  0  0  0  0  0  0  0  0  0  0  0
  190.0680  176.7710  147.0270 N   0  0  0  0  0  2  0  0  0  0  0  0
  192.1480  177.0290  145.9800 O   0  0  0  0  0  0  0  0  0  0  0  0
  192.0930  175.4590  147.7600 C   0  0  0  0  0  1  0  0  0  0  0  0
  185.0570  179.5600  141.5180 N   0  0  0  0  0  2  0  0  0  0  0  0
  184.8320  178.3460  140.7450 C   0  0  0  0  0  2  0  0  0  0  0  0
  183.5750  178.4950  139.8960 C   0  0  2  0  0  3  0  0  0  0  0  0
  182.6950  177.2600  140.0330 C   0  0  0  0  0  2  0  0  0  0  0  0
  180.3050  176.7760  140.2330 C   0  0  0  0  0  2  0  0  0  0  0  0
  181.3030  177.6280  140.4380 C   0  0  0  0  0  0  0  0  0  0  0  0
  181.0290  178.9510  141.0650 C   0  0  0  0  0  1  0  0  0  0  0  0
  183.9590  178.6810  138.4380 C   0  0  0  0  0  2  0  0  0  0  0  0
  184.9470  177.6070  137.9950 C   0  0  1  0  0  3  0  0  0  0  0  0
  184.3210  176.6530  136.9750 C   0  0  0  0  0  2  0  0  0  0  0  0
  184.6130  175.1830  137.2580 C   0  0  0  0  0  2  0  0  0  0  0  0
  183.4510  174.5310  137.6740 O   0  0  0  0  0  1  0  0  0  0  0  0
  186.2460  178.2290  137.4820 C   0  0  0  0  0  2  0  0  0  0  0  0
  187.3750  177.5560  138.0230 O   0  0  0  0  0  0  0  0  0  0  0  0
  187.9770  177.9890  139.1730 C   0  0  0  0  0  0  0  0  0  0  0  0
  188.5060  178.3700  140.1890 C   0  0  0  0  0  3  0  0  0  0  0  0
  1 10  1  0  0  0  0
  2 11  1  0  0  0  0
  3 11  1  1  0  0  0
  3  9  1  0  0  0  0
  5  8  1  0  0  0  0
  5  1  1  0  0  0  0
  6 17  1  6  0  0  0
  6  4  1  0  0  0  0
  6 12  1  0  0  0  0
  8  4  1  6  0  0  0
  8  3  1  0  0  0  0
  9  7  1  0  0  0  0
 10  7  1  0  0  0  0
 10 14  1  1  0  0  0
 12  2  1  0  0  0  0
 13 14  1  0  0  0  0
 13 16  1  0  0  0  0
 15 13  2  0  0  0  0
 18 17  1  0  0  0  0
 19 24  1  6  0  0  0
 19 20  1  0  0  0  0
 19 18  1  0  0  0  0
 20 22  1  0  0  0  0
 21 22  2  0  0  0  0
 22 23  1  0  0  0  0
 25 26  1  6  0  0  0
 25 24  1  0  0  0  0
 26 27  1  0  0  0  0
 27 28  1  0  0  0  0
 29 25  1  0  0  0  0
 29 30  1  0  0  0  0
 30 31  1  0  0  0  0
 31 32  3  0  0  0  0
M  END
>  <MODEL>
3

>  <REMARK>
 VINA RESULT:      -7.3      3.049      7.534
  Name = 
  13 active torsions:
  status: ('A' for Active; 'I' for Inactive)
    1  A    between atoms: C_5  and  C_25
    2  A    between atoms: O_6  and  C_7
    3  A    between atoms: O_6  and  C_32
    4  A    between atoms: N_10  and  C_24
    5  A    between atoms: C_11  and  C_27
    6  A    between atoms: C_11  and  C_30
    7  A    between atoms: C_11  and  C_32
    8  A    between atoms: C_14  and  N_15
    9  A    between atoms: N_15  and  C_26
   10  A    between atoms: C_16  and  C_25
   11  A    between atoms: C_16  and  C_26
   12  A    between atoms: C_16  and  C_27
   13  A    between atoms: C_18  and  C_30
                            x       y       z     vdW  Elec       q    Type
                         _______ _______ _______ _____ _____    ______ ____

>  <TORSDO>
F 13

$$$$
=
 OpenBabel11052416503D

 32 33  0  0  1  0  0  0  0  0999 V2000
  188.9520  177.0420  144.6820 C   0  0  0  0  0  2  0  0  0  0  0  0
  183.8650  179.2560  144.8810 C   0  0  0  0  0  2  0  0  0  0  0  0
  186.0580  178.1830  145.3280 C   0  0  2  0  0  3  0  0  0  0  0  0
  185.7830  177.8250  142.7770 C   0  0  0  0  0  2  0  0  0  0  0  0
  188.0580  177.9040  143.8050 C   0  0  0  0  0  2  0  0  0  0  0  0
  185.2010  179.2350  142.7270 C   0  0  2  0  0  3  0  0  0  0  0  0
  188.0640  178.3030  146.7970 C   0  0  0  0  0  2  0  0  0  0  0  0
  186.6000  177.5340  144.0420 C   0  0  1  0  0  3  0  0  0  0  0  0
  186.7310  177.6020  146.5630 C   0  0  0  0  0  2  0  0  0  0  0  0
  189.2520  177.6810  146.0430 C   0  0  1  0  0  3  0  0  0  0  0  0
  184.5510  178.0280  145.4640 C   0  0  0  0  0  2  0  0  0  0  0  0
  183.8090  179.2160  143.3580 C   0  0  0  0  0  2  0  0  0  0  0  0
  191.3940  176.5080  146.8120 C   0  0  0  0  0  0  0  0  0  0  0  0
  189.9880  176.7610  146.9030 N   0  0  0  0  0  2  0  0  0  0  0  0
  192.1150  177.1430  145.9980 O   0  0  0  0  0  0  0  0  0  0  0  0
  192.0140  175.4840  147.6940 C   0  0  0  0  0  1  0  0  0  0  0  0
  185.1000  179.6510  141.3370 N   0  0  0  0  0  2  0  0  0  0  0  0
  185.8470  178.6900  140.5370 C   0  0  0  0  0  2  0  0  0  0  0  0
  185.0250  178.2720  139.3230 C   0  0  2  0  0  3  0  0  0  0  0  0
  185.8430  178.4310  138.0490 C   0  0  0  0  0  2  0  0  0  0  0  0
  186.6510  176.2870  137.1900 C   0  0  0  0  0  2  0  0  0  0  0  0
  185.7140  177.2290  137.1680 C   0  0  0  0  0  0  0  0  0  0  0  0
  184.5420  177.0850  136.2610 C   0  0  0  0  0  1  0  0  0  0  0  0
  183.7750  179.1300  139.2290 C   0  0  0  0  0  2  0  0  0  0  0  0
  182.5200  178.2630  139.2220 C   0  0  1  0  0  3  0  0  0  0  0  0
  182.7420  176.9460  139.9700 C   0  0  0  0  0  2  0  0  0  0  0  0
  182.2270  175.7240  139.2140 C   0  0  0  0  0  2  0  0  0  0  0  0
  180.8640  175.5460  139.4560 O   0  0  0  0  0  1  0  0  0  0  0  0
  181.3130  179.0340  139.7560 C   0  0  0  0  0  2  0  0  0  0  0  0
  181.0080  178.6360  141.0850 O   0  0  0  0  0  0  0  0  0  0  0  0
  180.3820  179.4870  141.9560 C   0  0  0  0  0  0  0  0  0  0  0  0
  179.8310  180.2360  142.7260 C   0  0  0  0  0  3  0  0  0  0  0  0
  1 10  1  0  0  0  0
  2 11  1  0  0  0  0
  3 11  1  1  0  0  0
  3  9  1  0  0  0  0
  5  8  1  0  0  0  0
  5  1  1  0  0  0  0
  6 17  1  6  0  0  0
  6  4  1  0  0  0  0
  6 12  1  0  0  0  0
  8  4  1  6  0  0  0
  8  3  1  0  0  0  0
  9  7  1  0  0  0  0
 10  7  1  0  0  0  0
 10 14  1  1  0  0  0
 12  2  1  0  0  0  0
 13 14  1  0  0  0  0
 13 16  1  0  0  0  0
 15 13  2  0  0  0  0
 18 17  1  0  0  0  0
 19 20  1  6  0  0  0
 19 18  1  0  0  0  0
 22 21  2  0  0  0  0
 22 20  1  0  0  0  0
 23 22  1  0  0  0  0
 24 19  1  0  0  0  0
 25 24  1  1  0  0  0
 25 29  1  0  0  0  0
 25 26  1  0  0  0  0
 27 28  1  0  0  0  0
 27 26  1  0  0  0  0
 29 30  1  0  0  0  0
 30 31  1  0  0  0  0
 31 32  3  0  0  0  0
M  END
>  <MODEL>
4

>  <REMARK>
 VINA RESULT:      -7.2      3.364      8.362
  Name = 
  13 active torsions:
  status: ('A' for Active; 'I' for Inactive)
    1  A    between atoms: C_5  and  C_25
    2  A    between atoms: O_6  and  C_7
    3  A    between atoms: O_6  and  C_32
    4  A    between atoms: N_10  and  C_24
    5  A    between atoms: C_11  and  C_27
    6  A    between atoms: C_11  and  C_30
    7  A    between atoms: C_11  and  C_32
    8  A    between atoms: C_14  and  N_15
    9  A    between atoms: N_15  and  C_26
   10  A    between atoms: C_16  and  C_25
   11  A    between atoms: C_16  and  C_26
   12  A    between atoms: C_16  and  C_27
   13  A    between atoms: C_18  and  C_30
                            x       y       z     vdW  Elec       q    Type
                         _______ _______ _______ _____ _____    ______ ____

>  <TORSDO>
F 13

$$$$
=
 OpenBabel11052416503D

 32 33  0  0  1  0  0  0  0  0999 V2000
  190.9550  176.9310  139.2430 C   0  0  0  0  0  2  0  0  0  0  0  0
  185.5790  178.2100  138.7150 C   0  0  0  0  0  2  0  0  0  0  0  0
  187.9450  177.5210  138.4160 C   0  0  2  0  0  3  0  0  0  0  0  0
  188.0670  178.9910  140.5460 C   0  0  0  0  0  2  0  0  0  0  0  0
  189.7620  177.2000  140.1450 C   0  0  0  0  0  2  0  0  0  0  0  0
  186.7450  178.3510  140.9610 C   0  0  2  0  0  3  0  0  0  0  0  0
  189.3830  175.6740  137.5690 C   0  0  0  0  0  2  0  0  0  0  0  0
  188.8300  178.2020  139.4760 C   0  0  1  0  0  3  0  0  0  0  0  0
  188.7730  177.0320  137.2370 C   0  0  0  0  0  2  0  0  0  0  0  0
  190.7350  175.7430  138.2990 C   0  0  1  0  0  3  0  0  0  0  0  0
  186.8460  178.4400  137.9030 C   0  0  0  0  0  2  0  0  0  0  0  0
  185.6300  178.9020  140.0720 C   0  0  0  0  0  2  0  0  0  0  0  0
  192.2050  174.3980  136.6890 C   0  0  0  0  0  0  0  0  0  0  0  0
  191.8410  175.6120  137.3550 N   0  0  0  0  0  2  0  0  0  0  0  0
  191.5220  173.3500  136.8330 O   0  0  0  0  0  0  0  0  0  0  0  0
  193.4050  174.3750  135.8110 C   0  0  0  0  0  1  0  0  0  0  0  0
  186.4730  178.6920  142.3480 N   0  0  0  0  0  2  0  0  0  0  0  0
  186.4640  177.4510  143.1100 C   0  0  0  0  0  2  0  0  0  0  0  0
  187.6010  177.4540  144.1260 C   0  0  2  0  0  3  0  0  0  0  0  0
  188.6470  176.4120  143.7530 C   0  0  0  0  0  2  0  0  0  0  0  0
  191.0800  176.2140  143.5900 C   0  0  0  0  0  2  0  0  0  0  0  0
  190.0220  177.0010  143.7500 C   0  0  0  0  0  0  0  0  0  0  0  0
  190.2120  178.4670  143.9340 C   0  0  0  0  0  1  0  0  0  0  0  0
  187.0540  177.1470  145.5090 C   0  0  0  0  0  2  0  0  0  0  0  0
  187.3400  178.2930  146.4740 C   0  0  1  0  0  3  0  0  0  0  0  0
  186.0490  178.9670  146.9450 C   0  0  0  0  0  2  0  0  0  0  0  0
  184.7860  178.2320  146.5090 C   0  0  0  0  0  2  0  0  0  0  0  0
  183.9910  179.0650  145.7200 O   0  0  0  0  0  1  0  0  0  0  0  0
  188.2100  177.8290  147.6420 C   0  0  0  0  0  2  0  0  0  0  0  0
  188.9370  176.6590  147.2950 O   0  0  0  0  0  0  0  0  0  0  0  0
  190.3050  176.6460  147.2940 C   0  0  0  0  0  0  0  0  0  0  0  0
  191.5130  176.6350  147.2960 C   0  0  0  0  0  3  0  0  0  0  0  0
  1  5  1  0  0  0  0
  2 12  1  0  0  0  0
  3  9  1  6  0  0  0
  3  8  1  0  0  0  0
  4  6  1  0  0  0  0
  6 17  1  1  0  0  0
  7 10  1  0  0  0  0
  8  5  1  1  0  0  0
  8  4  1  0  0  0  0
  9  7  1  0  0  0  0
 10 14  1  6  0  0  0
 10  1  1  0  0  0  0
 11  3  1  0  0  0  0
 11  2  1  0  0  0  0
 12  6  1  0  0  0  0
 13 15  2  0  0  0  0
 13 14  1  0  0  0  0
 16 13  1  0  0  0  0
 17 18  1  0  0  0  0
 19 18  1  6  0  0  0
 19 24  1  0  0  0  0
 20 19  1  0  0  0  0
 21 22  2  0  0  0  0
 22 20  1  0  0  0  0
 22 23  1  0  0  0  0
 25 24  1  6  0  0  0
 25 26  1  0  0  0  0
 25 29  1  0  0  0  0
 27 26  1  0  0  0  0
 28 27  1  0  0  0  0
 30 29  1  0  0  0  0
 31 30  1  0  0  0  0
 31 32  3  0  0  0  0
M  END
>  <MODEL>
5

>  <REMARK>
 VINA RESULT:      -7.2      3.035      8.448
  Name = 
  13 active torsions:
  status: ('A' for Active; 'I' for Inactive)
    1  A    between atoms: C_5  and  C_25
    2  A    between atoms: O_6  and  C_7
    3  A    between atoms: O_6  and  C_32
    4  A    between atoms: N_10  and  C_24
    5  A    between atoms: C_11  and  C_27
    6  A    between atoms: C_11  and  C_30
    7  A    between atoms: C_11  and  C_32
    8  A    between atoms: C_14  and  N_15
    9  A    between atoms: N_15  and  C_26
   10  A    between atoms: C_16  and  C_25
   11  A    between atoms: C_16  and  C_26
   12  A    between atoms: C_16  and  C_27
   13  A    between atoms: C_18  and  C_30
                            x       y       z     vdW  Elec       q    Type
                         _______ _______ _______ _____ _____    ______ ____

>  <TORSDO>
F 13

$$$$
=
 OpenBabel11052416503D

 32 33  0  0  1  0  0  0  0  0999 V2000
  184.5740  178.4560  139.3990 C   0  0  0  0  0  2  0  0  0  0  0  0
  182.5620  178.6030  144.5710 C   0  0  0  0  0  2  0  0  0  0  0  0
  182.9320  178.5670  142.1160 C   0  0  2  0  0  3  0  0  0  0  0  0
  185.2260  179.3810  143.0050 C   0  0  0  0  0  2  0  0  0  0  0  0
  185.0670  178.1940  140.8130 C   0  0  0  0  0  2  0  0  0  0  0  0
  185.0490  178.3740  144.1390 C   0  0  2  0  0  3  0  0  0  0  0  0
  182.2660  177.3930  140.0250 C   0  0  0  0  0  2  0  0  0  0  0  0
  184.3350  179.1080  141.7870 C   0  0  1  0  0  3  0  0  0  0  0  0
  182.0210  178.6180  140.8990 C   0  0  0  0  0  2  0  0  0  0  0  0
  183.3990  177.5570  138.9980 C   0  0  1  0  0  3  0  0  0  0  0  0
  182.2740  179.3230  143.2610 C   0  0  0  0  0  2  0  0  0  0  0  0
  183.9670  178.8870  145.0890 C   0  0  0  0  0  2  0  0  0  0  0  0
  182.9700  177.1500  136.5060 C   0  0  0  0  0  0  0  0  0  0  0  0
  182.8660  177.9410  137.6950 N   0  0  0  0  0  2  0  0  0  0  0  0
  183.4870  176.0020  136.5360 O   0  0  0  0  0  0  0  0  0  0  0  0
  182.4580  177.6890  135.2190 C   0  0  0  0  0  1  0  0  0  0  0  0
  186.3070  178.2510  144.8570 N   0  0  0  0  0  2  0  0  0  0  0  0
  187.0720  177.1880  144.2190 C   0  0  0  0  0  2  0  0  0  0  0  0
  188.5620  177.4030  144.4580 C   0  0  2  0  0  3  0  0  0  0  0  0
  188.7850  178.1970  145.7370 C   0  0  0  0  0  2  0  0  0  0  0  0
  188.3220  176.9640  147.8000 C   0  0  0  0  0  2  0  0  0  0  0  0
  189.2010  177.3050  146.8640 C   0  0  0  0  0  0  0  0  0  0  0  0
  190.6000  176.8010  146.9450 C   0  0  0  0  0  1  0  0  0  0  0  0
  189.1670  178.1560  143.2850 C   0  0  0  0  0  2  0  0  0  0  0  0
  189.9560  177.2140  142.3820 C   0  0  1  0  0  3  0  0  0  0  0  0
  190.3580  175.9340  143.1180 C   0  0  0  0  0  2  0  0  0  0  0  0
  191.7460  176.0060  143.7480 C   0  0  0  0  0  2  0  0  0  0  0  0
  192.1130  174.7570  144.2510 O   0  0  0  0  0  1  0  0  0  0  0  0
  189.1940  176.9210  141.0890 C   0  0  0  0  0  2  0  0  0  0  0  0
  188.6470  178.1140  140.5450 O   0  0  0  0  0  0  0  0  0  0  0  0
  188.8450  178.4540  139.2340 C   0  0  0  0  0  0  0  0  0  0  0  0
  189.0160  178.7530  138.0770 C   0  0  0  0  0  3  0  0  0  0  0  0
  1  5  1  0  0  0  0
  2 12  1  0  0  0  0
  3  9  1  6  0  0  0
  3 11  1  0  0  0  0
  4  6  1  0  0  0  0
  6 17  1  1  0  0  0
  6 12  1  0  0  0  0
  7  9  1  0  0  0  0
  8  5  1  6  0  0  0
  8  3  1  0  0  0  0
  8  4  1  0  0  0  0
 10 14  1  6  0  0  0
 10  1  1  0  0  0  0
 10  7  1  0  0  0  0
 11  2  1  0  0  0  0
 13 15  2  0  0  0  0
 13 14  1  0  0  0  0
 16 13  1  0  0  0  0
 18 19  1  0  0  0  0
 18 17  1  0  0  0  0
 19 24  1  6  0  0  0
 19 20  1  0  0  0  0
 20 22  1  0  0  0  0
 22 23  1  0  0  0  0
 22 21  2  0  0  0  0
 25 29  1  6  0  0  0
 25 26  1  0  0  0  0
 25 24  1  0  0  0  0
 26 27  1  0  0  0  0
 27 28  1  0  0  0  0
 30 29  1  0  0  0  0
 31 30  1  0  0  0  0
 32 31  3  0  0  0  0
M  END
>  <MODEL>
6

>  <REMARK>
 VINA RESULT:      -7.1      2.857      4.473
  Name = 
  13 active torsions:
  status: ('A' for Active; 'I' for Inactive)
    1  A    between atoms: C_5  and  C_25
    2  A    between atoms: O_6  and  C_7
    3  A    between atoms: O_6  and  C_32
    4  A    between atoms: N_10  and  C_24
    5  A    between atoms: C_11  and  C_27
    6  A    between atoms: C_11  and  C_30
    7  A    between atoms: C_11  and  C_32
    8  A    between atoms: C_14  and  N_15
    9  A    between atoms: N_15  and  C_26
   10  A    between atoms: C_16  and  C_25
   11  A    between atoms: C_16  and  C_26
   12  A    between atoms: C_16  and  C_27
   13  A    between atoms: C_18  and  C_30
                            x       y       z     vdW  Elec       q    Type
                         _______ _______ _______ _____ _____    ______ ____

>  <TORSDO>
F 13

$$$$
=
 OpenBabel11052416503D

 32 33  0  0  1  0  0  0  0  0999 V2000
  188.9040  177.0100  144.5670 C   0  0  0  0  0  2  0  0  0  0  0  0
  183.8850  179.3820  144.5980 C   0  0  0  0  0  2  0  0  0  0  0  0
  186.0330  178.2540  145.1210 C   0  0  2  0  0  3  0  0  0  0  0  0
  185.8030  177.8420  142.5730 C   0  0  0  0  0  2  0  0  0  0  0  0
  188.0570  177.8770  143.6500 C   0  0  0  0  0  2  0  0  0  0  0  0
  185.2670  179.2680  142.4760 C   0  0  2  0  0  3  0  0  0  0  0  0
  188.0090  178.3480  146.6310 C   0  0  0  0  0  2  0  0  0  0  0  0
  186.5830  177.5570  143.8620 C   0  0  1  0  0  3  0  0  0  0  0  0
  186.6600  177.6830  146.3840 C   0  0  0  0  0  2  0  0  0  0  0  0
  189.1940  177.6720  145.9190 C   0  0  1  0  0  3  0  0  0  0  0  0
  184.5200  178.1480  145.2260 C   0  0  0  0  0  2  0  0  0  0  0  0
  183.8620  179.3070  143.0760 C   0  0  0  0  0  2  0  0  0  0  0  0
  191.2900  176.4950  146.8000 C   0  0  0  0  0  0  0  0  0  0  0  0
  189.8820  176.7500  146.8170 N   0  0  0  0  0  2  0  0  0  0  0  0
  192.0540  177.1290  146.0250 O   0  0  0  0  0  0  0  0  0  0  0  0
  191.8610  175.4700  147.7140 C   0  0  0  0  0  1  0  0  0  0  0  0
  185.2090  179.6540  141.0750 N   0  0  0  0  0  2  0  0  0  0  0  0
  185.9940  178.6850  140.3230 C   0  0  0  0  0  2  0  0  0  0  0  0
  185.3750  178.4690  138.9460 C   0  0  2  0  0  3  0  0  0  0  0  0
  183.9660  177.9080  139.0810 C   0  0  0  0  0  2  0  0  0  0  0  0
  182.3840  178.2120  137.2390 C   0  0  0  0  0  2  0  0  0  0  0  0
  182.9810  178.7270  138.3090 C   0  0  0  0  0  0  0  0  0  0  0  0
  182.6690  180.1210  138.7310 C   0  0  0  0  0  1  0  0  0  0  0  0
  186.2290  177.5000  138.1460 C   0  0  0  0  0  2  0  0  0  0  0  0
  186.1340  177.7960  136.6530 C   0  0  1  0  0  3  0  0  0  0  0  0
  187.3250  178.6250  136.1680 C   0  0  0  0  0  2  0  0  0  0  0  0
  188.5760  178.4510  137.0240 C   0  0  0  0  0  2  0  0  0  0  0  0
  188.9380  179.6680  137.6030 O   0  0  0  0  0  1  0  0  0  0  0  0
  185.9560  176.5110  135.8450 C   0  0  0  0  0  2  0  0  0  0  0  0
  185.5050  175.4510  136.6760 O   0  0  0  0  0  0  0  0  0  0  0  0
  184.2140  175.0020  136.6180 C   0  0  0  0  0  0  0  0  0  0  0  0
  183.0740  174.6060  136.5690 C   0  0  0  0  0  3  0  0  0  0  0  0
  1 10  1  0  0  0  0
  2 11  1  0  0  0  0
  3 11  1  1  0  0  0
  3  9  1  0  0  0  0
  5  8  1  0  0  0  0
  5  1  1  0  0  0  0
  6 17  1  6  0  0  0
  6  4  1  0  0  0  0
  6 12  1  0  0  0  0
  8  4  1  6  0  0  0
  8  3  1  0  0  0  0
  9  7  1  0  0  0  0
 10  7  1  0  0  0  0
 10 14  1  1  0  0  0
 12  2  1  0  0  0  0
 13 14  1  0  0  0  0
 13 16  1  0  0  0  0
 15 13  2  0  0  0  0
 18 17  1  0  0  0  0
 19 24  1  6  0  0  0
 19 20  1  0  0  0  0
 19 18  1  0  0  0  0
 21 22  2  0  0  0  0
 22 23  1  0  0  0  0
 22 20  1  0  0  0  0
 25 29  1  6  0  0  0
 25 24  1  0  0  0  0
 26 25  1  0  0  0  0
 26 27  1  0  0  0  0
 27 28  1  0  0  0  0
 29 30  1  0  0  0  0
 31 30  1  0  0  0  0
 32 31  3  0  0  0  0
M  END
>  <MODEL>
7

>  <REMARK>
 VINA RESULT:      -7.1      3.310      7.224
  Name = 
  13 active torsions:
  status: ('A' for Active; 'I' for Inactive)
    1  A    between atoms: C_5  and  C_25
    2  A    between atoms: O_6  and  C_7
    3  A    between atoms: O_6  and  C_32
    4  A    between atoms: N_10  and  C_24
    5  A    between atoms: C_11  and  C_27
    6  A    between atoms: C_11  and  C_30
    7  A    between atoms: C_11  and  C_32
    8  A    between atoms: C_14  and  N_15
    9  A    between atoms: N_15  and  C_26
   10  A    between atoms: C_16  and  C_25
   11  A    between atoms: C_16  and  C_26
   12  A    between atoms: C_16  and  C_27
   13  A    between atoms: C_18  and  C_30
                            x       y       z     vdW  Elec       q    Type
                         _______ _______ _______ _____ _____    ______ ____

>  <TORSDO>
F 13

$$$$
=
 OpenBabel11052416503D

 32 33  0  0  1  0  0  0  0  0999 V2000
  192.4720  176.5100  138.4980 C   0  0  0  0  0  2  0  0  0  0  0  0
  187.0980  177.0380  137.2100 C   0  0  0  0  0  2  0  0  0  0  0  0
  189.5380  176.5860  137.2830 C   0  0  2  0  0  3  0  0  0  0  0  0
  189.2670  178.4230  139.0900 C   0  0  0  0  0  2  0  0  0  0  0  0
  191.1610  176.7990  139.2110 C   0  0  0  0  0  2  0  0  0  0  0  0
  187.9720  177.7200  139.4900 C   0  0  2  0  0  3  0  0  0  0  0  0
  191.2360  174.7950  136.9550 C   0  0  0  0  0  2  0  0  0  0  0  0
  190.2230  177.5460  138.2720 C   0  0  1  0  0  3  0  0  0  0  0  0
  190.5430  175.9900  136.3090 C   0  0  0  0  0  2  0  0  0  0  0  0
  192.4800  175.1530  137.7860 C   0  0  1  0  0  3  0  0  0  0  0  0
  188.4250  177.2620  136.4970 C   0  0  0  0  0  2  0  0  0  0  0  0
  186.9230  177.9670  138.4060 C   0  0  0  0  0  2  0  0  0  0  0  0
  194.9380  174.4870  137.5110 C   0  0  0  0  0  0  0  0  0  0  0  0
  193.6970  174.9820  136.9980 N   0  0  0  0  0  2  0  0  0  0  0  0
  195.0340  174.0890  138.7020 O   0  0  0  0  0  0  0  0  0  0  0  0
  196.1300  174.4360  136.6250 C   0  0  0  0  0  1  0  0  0  0  0  0
  187.5080  178.2750  140.7510 N   0  0  0  0  0  2  0  0  0  0  0  0
  188.6850  178.6140  141.5390 C   0  0  0  0  0  2  0  0  0  0  0  0
  188.6720  177.8410  142.8540 C   0  0  2  0  0  3  0  0  0  0  0  0
  189.6880  176.7080  142.8120 C   0  0  0  0  0  2  0  0  0  0  0  0
  191.6670  176.0260  144.0790 C   0  0  0  0  0  2  0  0  0  0  0  0
  190.8740  177.0110  143.6710 C   0  0  0  0  0  0  0  0  0  0  0  0
  191.1690  178.4130  144.0780 C   0  0  0  0  0  1  0  0  0  0  0  0
  187.2870  177.2690  143.0990 C   0  0  0  0  0  2  0  0  0  0  0  0
  186.5790  178.0200  144.2220 C   0  0  1  0  0  3  0  0  0  0  0  0
  185.1000  178.2480  143.9000 C   0  0  0  0  0  2  0  0  0  0  0  0
  184.4770  179.3960  144.6870 C   0  0  0  0  0  2  0  0  0  0  0  0
  184.2350  179.0030  146.0050 O   0  0  0  0  0  1  0  0  0  0  0  0
  186.7760  177.3200  145.5660 C   0  0  0  0  0  2  0  0  0  0  0  0
  187.7520  177.9940  146.3470 O   0  0  0  0  0  0  0  0  0  0  0  0
  188.8370  177.3330  146.8550 C   0  0  0  0  0  0  0  0  0  0  0  0
  189.7950  176.7500  147.3020 C   0  0  0  0  0  3  0  0  0  0  0  0
  1  5  1  0  0  0  0
  2 12  1  0  0  0  0
  3  9  1  6  0  0  0
  3  8  1  0  0  0  0
  4  6  1  0  0  0  0
  6 17  1  1  0  0  0
  7 10  1  0  0  0  0
  8  4  1  1  0  0  0
  8  5  1  0  0  0  0
  9  7  1  0  0  0  0
 10 14  1  6  0  0  0
 10  1  1  0  0  0  0
 11  2  1  0  0  0  0
 11  3  1  0  0  0  0
 12  6  1  0  0  0  0
 13 15  2  0  0  0  0
 14 13  1  0  0  0  0
 16 13  1  0  0  0  0
 17 18  1  0  0  0  0
 19 18  1  6  0  0  0
 19 24  1  0  0  0  0
 20 19  1  0  0  0  0
 20 22  1  0  0  0  0
 22 23  1  0  0  0  0
 22 21  2  0  0  0  0
 25 24  1  6  0  0  0
 25 29  1  0  0  0  0
 26 25  1  0  0  0  0
 26 27  1  0  0  0  0
 27 28  1  0  0  0  0
 29 30  1  0  0  0  0
 30 31  1  0  0  0  0
 31 32  3  0  0  0  0
M  END
>  <MODEL>
8

>  <REMARK>
 VINA RESULT:      -7.0      3.159      9.258
  Name = 
  13 active torsions:
  status: ('A' for Active; 'I' for Inactive)
    1  A    between atoms: C_5  and  C_25
    2  A    between atoms: O_6  and  C_7
    3  A    between atoms: O_6  and  C_32
    4  A    between atoms: N_10  and  C_24
    5  A    between atoms: C_11  and  C_27
    6  A    between atoms: C_11  and  C_30
    7  A    between atoms: C_11  and  C_32
    8  A    between atoms: C_14  and  N_15
    9  A    between atoms: N_15  and  C_26
   10  A    between atoms: C_16  and  C_25
   11  A    between atoms: C_16  and  C_26
   12  A    between atoms: C_16  and  C_27
   13  A    between atoms: C_18  and  C_30
                            x       y       z     vdW  Elec       q    Type
                         _______ _______ _______ _____ _____    ______ ____

>  <TORSDO>
F 13

$$$$
=
 OpenBabel11052416503D

 32 33  0  0  1  0  0  0  0  0999 V2000
  188.8280  177.0290  144.5210 C   0  0  0  0  0  2  0  0  0  0  0  0
  183.7930  179.3420  144.8500 C   0  0  0  0  0  2  0  0  0  0  0  0
  185.9750  178.2260  145.2420 C   0  0  2  0  0  3  0  0  0  0  0  0
  185.6270  177.8730  142.6980 C   0  0  0  0  0  2  0  0  0  0  0  0
  187.9290  177.9080  143.6670 C   0  0  0  0  0  2  0  0  0  0  0  0
  185.0720  179.2940  142.6620 C   0  0  2  0  0  3  0  0  0  0  0  0
  188.0210  178.3070  146.6570 C   0  0  0  0  0  2  0  0  0  0  0  0
  186.4710  177.5660  143.9420 C   0  0  1  0  0  3  0  0  0  0  0  0
  186.6680  177.6330  146.4590 C   0  0  0  0  0  2  0  0  0  0  0  0
  189.1760  177.6620  145.8730 C   0  0  1  0  0  3  0  0  0  0  0  0
  184.4700  178.1010  145.4160 C   0  0  0  0  0  2  0  0  0  0  0  0
  183.6970  179.3030  143.3290 C   0  0  0  0  0  2  0  0  0  0  0  0
  191.3290  176.5080  146.6430 C   0  0  0  0  0  0  0  0  0  0  0  0
  189.9160  176.7270  146.7150 N   0  0  0  0  0  2  0  0  0  0  0  0
  192.0510  177.1870  145.8660 O   0  0  0  0  0  0  0  0  0  0  0  0
  191.9540  175.4670  147.5000 C   0  0  0  0  0  1  0  0  0  0  0  0
  184.9430  179.7120  141.2750 N   0  0  0  0  0  2  0  0  0  0  0  0
  185.0390  178.5170  140.4480 C   0  0  0  0  0  2  0  0  0  0  0  0
  183.8660  178.4600  139.4760 C   0  0  2  0  0  3  0  0  0  0  0  0
  184.1340  177.4350  138.3820 C   0  0  0  0  0  2  0  0  0  0  0  0
  182.5480  175.9240  139.4720 C   0  0  0  0  0  2  0  0  0  0  0  0
  183.0600  176.3950  138.3400 C   0  0  0  0  0  0  0  0  0  0  0  0
  182.5660  175.8780  137.0340 C   0  0  0  0  0  1  0  0  0  0  0  0
  183.6560  179.8260  138.8450 C   0  0  0  0  0  2  0  0  0  0  0  0
  182.1700  180.1510  138.7340 C   0  0  1  0  0  3  0  0  0  0  0  0
  181.3570  179.4430  139.8210 C   0  0  0  0  0  2  0  0  0  0  0  0
  180.2380  180.3030  140.4000 C   0  0  0  0  0  2  0  0  0  0  0  0
  179.2440  179.4930  140.9530 O   0  0  0  0  0  1  0  0  0  0  0  0
  181.9340  181.6620  138.7280 C   0  0  0  0  0  2  0  0  0  0  0  0
  181.3170  182.0700  137.5150 O   0  0  0  0  0  0  0  0  0  0  0  0
  181.1980  183.3940  137.1890 C   0  0  0  0  0  0  0  0  0  0  0  0
  181.0900  184.5610  136.9020 C   0  0  0  0  0  3  0  0  0  0  0  0
  1 10  1  0  0  0  0
  2 11  1  0  0  0  0
  3 11  1  1  0  0  0
  3  9  1  0  0  0  0
  5  8  1  0  0  0  0
  5  1  1  0  0  0  0
  6 17  1  6  0  0  0
  6  4  1  0  0  0  0
  6 12  1  0  0  0  0
  8  4  1  6  0  0  0
  8  3  1  0  0  0  0
  9  7  1  0  0  0  0
 10  7  1  0  0  0  0
 10 14  1  1  0  0  0
 12  2  1  0  0  0  0
 13 14  1  0  0  0  0
 13 16  1  0  0  0  0
 15 13  2  0  0  0  0
 18 17  1  0  0  0  0
 19 20  1  6  0  0  0
 19 18  1  0  0  0  0
 22 20  1  0  0  0  0
 22 21  2  0  0  0  0
 23 22  1  0  0  0  0
 24 19  1  0  0  0  0
 25 29  1  1  0  0  0
 25 24  1  0  0  0  0
 25 26  1  0  0  0  0
 26 27  1  0  0  0  0
 27 28  1  0  0  0  0
 30 29  1  0  0  0  0
 31 30  1  0  0  0  0
 32 31  3  0  0  0  0
M  END
>  <MODEL>
9

>  <REMARK>
 VINA RESULT:      -6.9      3.819      8.810
  Name = 
  13 active torsions:
  status: ('A' for Active; 'I' for Inactive)
    1  A    between atoms: C_5  and  C_25
    2  A    between atoms: O_6  and  C_7
    3  A    between atoms: O_6  and  C_32
    4  A    between atoms: N_10  and  C_24
    5  A    between atoms: C_11  and  C_27
    6  A    between atoms: C_11  and  C_30
    7  A    between atoms: C_11  and  C_32
    8  A    between atoms: C_14  and  N_15
    9  A    between atoms: N_15  and  C_26
   10  A    between atoms: C_16  and  C_25
   11  A    between atoms: C_16  and  C_26
   12  A    between atoms: C_16  and  C_27
   13  A    between atoms: C_18  and  C_30
                            x       y       z     vdW  Elec       q    Type
                         _______ _______ _______ _____ _____    ______ ____

>  <TORSDO>
F 13

$$$$
