=
 OpenBabel11052415143D

 37 43  0  0  1  0  0  0  0  0999 V2000
  188.6810  176.2230  142.8140 C   0  0  0  0  0  2  0  0  0  0  0  0
  183.7040  177.8050  140.3260 C   0  0  0  0  0  2  0  0  0  0  0  0
  187.6110  177.7680  138.6290 C   0  0  0  0  0  0  0  0  0  0  0  0
  188.6250  176.4840  144.3200 C   0  0  1  0  0  3  0  0  0  0  0  0
  190.8010  176.9840  140.4640 C   0  0  0  0  0  2  0  0  0  0  0  0
  185.3310  178.6570  138.5320 C   0  0  0  0  0  0  0  0  0  0  0  0
  188.3340  177.1950  139.5870 C   0  0  1  0  0  3  0  0  0  0  0  0
  191.3030  179.1080  144.0020 C   0  0  0  0  0  0  0  0  0  0  0  0
  186.4370  178.3800  139.2240 C   0  0  0  0  0  0  0  0  0  0  0  0
  189.7370  176.7160  139.4060 C   0  0  0  0  0  0  0  0  0  0  0  0
  185.3980  178.4520  137.0600 C   0  0  0  0  0  3  0  0  0  0  0  0
  189.4150  177.7750  144.7430 C   0  0  0  0  0  2  0  0  0  0  0  0
  186.6660  178.3830  140.6640 C   0  0  0  0  0  0  0  0  0  0  0  0
  184.9410  178.6480  142.4430 C   0  0  0  0  0  2  0  0  0  0  0  0
  188.1090  176.2290  136.7800 C   0  0  0  0  0  3  0  0  0  0  0  0
  186.5120  178.0280  136.4130 C   0  0  0  0  0  3  0  0  0  0  0  0
  186.0710  179.3520  141.6220 C   0  0  0  0  0  2  0  0  0  0  0  0
  190.3240  178.3280  143.6450 C   0  0  0  0  0  0  0  0  0  0  0  0
  190.6600  178.3830  141.0640 C   0  0  0  0  0  2  0  0  0  0  0  0
  187.7950  177.6620  137.1430 C   0  0  0  0  0  0  0  0  0  0  0  0
  187.7360  177.6340  140.8620 C   0  0  0  0  0  0  0  0  0  0  0  0
  183.9690  178.8110  139.1710 C   0  0  0  0  0  2  0  0  0  0  0  0
  190.0960  175.9830  138.3000 C   0  0  0  0  0  0  0  0  0  0  0  0
  183.6220  178.5590  141.6520 C   0  0  0  0  0  2  0  0  0  0  0  0
  189.7110  178.4710  142.2580 C   0  0  1  0  0  3  0  0  0  0  0  0
  192.2710  179.8450  144.3420 O   0  0  0  0  0  0  0  0  0  0  0  0
  188.4340  177.5820  142.1720 C   0  0  2  0  0  3  0  0  0  0  0  0
  189.1290  175.5410  137.2910 C   0  0  0  0  0  3  0  0  0  0  0  0
  192.4730  176.5580  137.9920 C   0  0  0  0  0  3  0  0  0  0  0  0
  191.4760  175.5590  138.0440 C   0  0  0  0  0  0  0  0  0  0  0  0
  191.7730  174.2490  137.6300 C   0  0  0  0  0  3  0  0  0  0  0  0
  193.3030  172.6860  136.7130 F   0  0  0  0  0  0  0  0  0  0  0  0
  194.0370  174.9500  137.0920 C   0  0  0  0  0  3  0  0  0  0  0  0
  193.0430  173.9410  137.1570 C   0  0  0  0  0  0  0  0  0  0  0  0
  193.7360  176.2530  137.5080 C   0  0  0  0  0  3  0  0  0  0  0  0
  187.0310  177.9190  145.6130 C   0  0  0  0  0  1  0  0  0  0  0  0
  187.1410  176.7010  144.7110 C   0  0  0  0  0  2  0  0  0  0  0  0
  1  4  1  0  0  0  0
  2 24  1  0  0  0  0
  3  9  2  0  0  0  0
  4 37  1  6  0  0  0
  4 12  1  0  0  0  0
  5 19  1  0  0  0  0
  6 22  1  0  0  0  0
  6  9  1  0  0  0  0
  7  3  1  6  0  0  0
  7 21  1  0  0  0  0
  8 26  2  0  0  0  0
  9 13  1  0  0  0  0
 10  7  1  0  0  0  0
 10  5  1  0  0  0  0
 11  6  2  0  0  0  0
 13 21  2  0  0  0  0
 13 17  1  0  0  0  0
 15 20  1  0  0  0  0
 15 28  2  0  0  0  0
 16 11  1  0  0  0  0
 16 20  2  0  0  0  0
 17 14  1  0  0  0  0
 18  8  2  0  0  0  0
 18 12  1  0  0  0  0
 20  3  1  0  0  0  0
 21 27  1  0  0  0  0
 22  2  1  0  0  0  0
 23 10  2  0  0  0  0
 24 14  1  0  0  0  0
 25 19  1  6  0  0  0
 25 18  1  0  0  0  0
 27 25  1  0  0  0  0
 27  1  1  6  0  0  0
 28 23  1  0  0  0  0
 29 30  1  0  0  0  0
 30 23  1  0  0  0  0
 31 30  2  0  0  0  0
 32 34  1  0  0  0  0
 33 34  2  0  0  0  0
 33 35  1  0  0  0  0
 34 31  1  0  0  0  0
 35 29  2  0  0  0  0
 37 36  1  0  0  0  0
M  END
>  <MODEL>
1

>  <REMARK>
 VINA RESULT:      -8.0      0.000      0.000
  Name = 
  2 active torsions:
  status: ('A' for Active; 'I' for Inactive)
    1  A    between atoms: C_5  and  C_23
    2  A    between atoms: C_6  and  C_31
                            x       y       z     vdW  Elec       q    Type
                         _______ _______ _______ _____ _____    ______ ____

>  <TORSDO>
F 2

$$$$
=
 OpenBabel11052415143D

 37 43  0  0  1  0  0  0  0  0999 V2000
  183.5940  176.9390  138.8150 C   0  0  0  0  0  2  0  0  0  0  0  0
  188.6480  175.8150  136.2340 C   0  0  0  0  0  2  0  0  0  0  0  0
  187.9390  178.0260  139.8050 C   0  0  0  0  0  0  0  0  0  0  0  0
  182.4720  176.9970  137.7770 C   0  0  1  0  0  3  0  0  0  0  0  0
  184.5640  178.9190  141.2100 C   0  0  0  0  0  2  0  0  0  0  0  0
  189.4530  177.5590  137.9380 C   0  0  0  0  0  0  0  0  0  0  0  0
  186.6350  177.8500  139.9980 C   0  0  0  0  0  0  0  0  0  0  0  0
  181.9790  180.6640  138.4620 C   0  0  0  0  0  0  0  0  0  0  0  0
  188.2370  177.8590  138.3950 C   0  0  0  0  0  0  0  0  0  0  0  0
  185.9160  178.2160  141.2540 C   0  0  0  0  0  0  0  0  0  0  0  0
  190.5560  177.5510  138.9370 C   0  0  0  0  0  3  0  0  0  0  0  0
  182.0400  178.4680  137.4310 C   0  0  0  0  0  2  0  0  0  0  0  0
  186.9510  177.8590  137.7050 C   0  0  0  0  0  0  0  0  0  0  0  0
  186.4950  177.0010  135.4100 C   0  0  0  0  0  2  0  0  0  0  0  0
  188.7780  177.1630  141.9470 C   0  0  0  0  0  3  0  0  0  0  0  0
  190.3810  177.8480  140.2480 C   0  0  0  0  0  3  0  0  0  0  0  0
  186.7390  178.2700  136.2930 C   0  0  0  0  0  2  0  0  0  0  0  0
  182.5870  179.5150  138.4010 C   0  0  0  0  0  0  0  0  0  0  0  0
  184.5100  179.9660  140.0970 C   0  0  0  0  0  2  0  0  0  0  0  0
  189.0160  178.1650  140.8420 C   0  0  1  0  0  3  0  0  0  0  0  0
  186.0330  177.7870  138.6530 C   0  0  0  0  0  0  0  0  0  0  0  0
  189.6980  176.9020  136.5980 C   0  0  0  0  0  2  0  0  0  0  0  0
  186.4330  177.8890  142.4850 C   0  0  0  0  0  0  0  0  0  0  0  0
  187.8110  176.2880  135.0470 C   0  0  0  0  0  2  0  0  0  0  0  0
  184.0700  179.4270  138.7360 C   0  0  1  0  0  3  0  0  0  0  0  0
  181.3780  181.7720  138.5460 O   0  0  0  0  0  0  0  0  0  0  0  0
  184.5900  178.0030  138.3750 C   0  0  2  0  0  3  0  0  0  0  0  0
  187.6490  177.0870  142.6500 C   0  0  0  0  0  3  0  0  0  0  0  0
  186.5490  178.1530  144.9330 C   0  0  0  0  0  3  0  0  0  0  0  0
  185.8010  178.2960  143.7440 C   0  0  0  0  0  0  0  0  0  0  0  0
  184.4290  178.5940  143.8090 C   0  0  0  0  0  3  0  0  0  0  0  0
  182.4710  178.9690  145.0950 F   0  0  0  0  0  0  0  0  0  0  0  0
  184.5560  178.5720  146.2360 C   0  0  0  0  0  3  0  0  0  0  0  0
  183.8060  178.7320  145.0440 C   0  0  0  0  0  0  0  0  0  0  0  0
  185.9240  178.2780  146.1640 C   0  0  0  0  0  3  0  0  0  0  0  0
  182.7170  177.2770  135.3000 C   0  0  0  0  0  1  0  0  0  0  0  0
  182.9990  176.3500  136.4710 C   0  0  0  0  0  2  0  0  0  0  0  0
  2 22  1  0  0  0  0
  3  7  2  0  0  0  0
  3 20  1  0  0  0  0
  4 37  1  6  0  0  0
  4  1  1  0  0  0  0
  5 10  1  0  0  0  0
  6  9  2  0  0  0  0
  6 11  1  0  0  0  0
  7 10  1  0  0  0  0
  8 26  2  0  0  0  0
  9  3  1  0  0  0  0
 10 23  2  0  0  0  0
 11 16  2  0  0  0  0
 12  4  1  0  0  0  0
 12 18  1  0  0  0  0
 13  9  1  0  0  0  0
 13 21  2  0  0  0  0
 14 17  1  0  0  0  0
 15 28  2  0  0  0  0
 17 13  1  0  0  0  0
 18  8  2  0  0  0  0
 18 25  1  0  0  0  0
 19  5  1  0  0  0  0
 20 16  1  6  0  0  0
 20 15  1  0  0  0  0
 21  7  1  0  0  0  0
 22  6  1  0  0  0  0
 23 28  1  0  0  0  0
 23 30  1  0  0  0  0
 24 14  1  0  0  0  0
 24  2  1  0  0  0  0
 25 19  1  1  0  0  0
 27 21  1  0  0  0  0
 27 25  1  0  0  0  0
 27  1  1  1  0  0  0
 29 35  1  0  0  0  0
 30 31  1  0  0  0  0
 30 29  2  0  0  0  0
 31 34  2  0  0  0  0
 34 32  1  0  0  0  0
 34 33  1  0  0  0  0
 35 33  2  0  0  0  0
 36 37  1  0  0  0  0
M  END
>  <MODEL>
2

>  <REMARK>
 VINA RESULT:      -7.7      3.782      8.113
  Name = 
  2 active torsions:
  status: ('A' for Active; 'I' for Inactive)
    1  A    between atoms: C_5  and  C_23
    2  A    between atoms: C_6  and  C_31
                            x       y       z     vdW  Elec       q    Type
                         _______ _______ _______ _____ _____    ______ ____

>  <TORSDO>
F 2

$$$$
=
 OpenBabel11052415143D

 37 43  0  0  1  0  0  0  0  0999 V2000
  182.1500  179.4730  137.6130 C   0  0  0  0  0  2  0  0  0  0  0  0
  180.2080  180.5020  142.9640 C   0  0  0  0  0  2  0  0  0  0  0  0
  183.6950  178.3570  141.7850 C   0  0  0  0  0  0  0  0  0  0  0  0
  180.9800  179.4090  136.6290 C   0  0  1  0  0  3  0  0  0  0  0  0
  184.6770  177.5230  138.2510 C   0  0  0  0  0  2  0  0  0  0  0  0
  182.0260  178.7780  143.5280 C   0  0  0  0  0  0  0  0  0  0  0  0
  183.7200  178.5500  140.4700 C   0  0  0  0  0  0  0  0  0  0  0  0
  181.6530  175.7590  136.0090 C   0  0  0  0  0  0  0  0  0  0  0  0
  182.3310  178.4980  142.2600 C   0  0  0  0  0  0  0  0  0  0  0  0
  184.8810  178.2130  139.5940 C   0  0  0  0  0  0  0  0  0  0  0  0
  183.1550  178.7910  144.4960 C   0  0  0  0  0  3  0  0  0  0  0  0
  180.6040  177.9370  136.2270 C   0  0  0  0  0  2  0  0  0  0  0  0
  181.4850  178.5000  141.0710 C   0  0  0  0  0  0  0  0  0  0  0  0
  179.1380  179.3240  140.9170 C   0  0  0  0  0  2  0  0  0  0  0  0
  185.9110  179.2480  142.3600 C   0  0  0  0  0  3  0  0  0  0  0  0
  184.4380  178.5180  144.1550 C   0  0  0  0  0  3  0  0  0  0  0  0
  180.0640  178.0680  141.0330 C   0  0  0  0  0  2  0  0  0  0  0  0
  181.6520  176.9010  136.6350 C   0  0  0  0  0  0  0  0  0  0  0  0
  183.5820  176.4590  138.3240 C   0  0  0  0  0  2  0  0  0  0  0  0
  184.8610  178.2250  142.7220 C   0  0  1  0  0  3  0  0  0  0  0  0
  182.3090  178.5970  140.0430 C   0  0  0  0  0  0  0  0  0  0  0  0
  180.7180  179.4100  143.9470 C   0  0  0  0  0  2  0  0  0  0  0  0
  186.1620  178.5550  139.9570 C   0  0  0  0  0  0  0  0  0  0  0  0
  178.9330  180.0180  142.2770 C   0  0  0  0  0  2  0  0  0  0  0  0
  182.1690  176.9800  138.0650 C   0  0  1  0  0  3  0  0  0  0  0  0
  181.6780  174.6590  135.3890 O   0  0  0  0  0  0  0  0  0  0  0  0
  181.8540  178.3910  138.6430 C   0  0  2  0  0  3  0  0  0  0  0  0
  186.4650  179.3460  141.1530 C   0  0  0  0  0  3  0  0  0  0  0  0
  188.5520  177.9610  139.8540 C   0  0  0  0  0  3  0  0  0  0  0  0
  187.3370  178.1750  139.1670 C   0  0  0  0  0  0  0  0  0  0  0  0
  187.3290  178.2490  137.7630 C   0  0  0  0  0  3  0  0  0  0  0  0
  188.5040  178.2500  135.7030 F   0  0  0  0  0  0  0  0  0  0  0  0
  189.7370  177.9270  137.7480 C   0  0  0  0  0  3  0  0  0  0  0  0
  188.5170  178.1270  137.0540 C   0  0  0  0  0  0  0  0  0  0  0  0
  189.7390  177.8520  139.1470 C   0  0  0  0  0  3  0  0  0  0  0  0
  180.0800  181.4310  137.8020 C   0  0  0  0  0  1  0  0  0  0  0  0
  179.7410  180.0290  137.3240 C   0  0  0  0  0  2  0  0  0  0  0  0
  2 22  1  0  0  0  0
  3  9  1  0  0  0  0
  3 20  1  0  0  0  0
  4 37  1  1  0  0  0
  4  1  1  0  0  0  0
  5 19  1  0  0  0  0
  5 10  1  0  0  0  0
  6 22  1  0  0  0  0
  6 11  1  0  0  0  0
  7  3  2  0  0  0  0
  8 18  2  0  0  0  0
  9  6  2  0  0  0  0
 10 23  2  0  0  0  0
 10  7  1  0  0  0  0
 12  4  1  0  0  0  0
 12 18  1  0  0  0  0
 13  9  1  0  0  0  0
 14 17  1  0  0  0  0
 14 24  1  0  0  0  0
 16 11  2  0  0  0  0
 17 13  1  0  0  0  0
 18 25  1  0  0  0  0
 20 15  1  6  0  0  0
 20 16  1  0  0  0  0
 21  7  1  0  0  0  0
 21 13  2  0  0  0  0
 23 28  1  0  0  0  0
 24  2  1  0  0  0  0
 25 19  1  6  0  0  0
 25 27  1  0  0  0  0
 26  8  2  0  0  0  0
 27  1  1  6  0  0  0
 27 21  1  0  0  0  0
 28 15  2  0  0  0  0
 30 29  1  0  0  0  0
 30 23  1  0  0  0  0
 31 30  2  0  0  0  0
 32 34  1  0  0  0  0
 33 35  1  0  0  0  0
 34 33  2  0  0  0  0
 34 31  1  0  0  0  0
 35 29  2  0  0  0  0
 37 36  1  0  0  0  0
M  END
>  <MODEL>
3

>  <REMARK>
 VINA RESULT:      -7.2      3.859      7.710
  Name = 
  2 active torsions:
  status: ('A' for Active; 'I' for Inactive)
    1  A    between atoms: C_5  and  C_23
    2  A    between atoms: C_6  and  C_31
                            x       y       z     vdW  Elec       q    Type
                         _______ _______ _______ _____ _____    ______ ____

>  <TORSDO>
F 2

$$$$
=
 OpenBabel11052415143D

 37 43  0  0  1  0  0  0  0  0999 V2000
  182.4010  176.5550  140.9560 C   0  0  0  0  0  2  0  0  0  0  0  0
  185.9270  176.6440  136.3710 C   0  0  0  0  0  2  0  0  0  0  0  0
  186.5490  178.3690  140.2160 C   0  0  0  0  0  0  0  0  0  0  0  0
  180.9420  176.4840  140.5000 C   0  0  1  0  0  3  0  0  0  0  0  0
  184.0360  178.4750  143.0150 C   0  0  0  0  0  2  0  0  0  0  0  0
  187.1460  178.3600  137.8410 C   0  0  0  0  0  0  0  0  0  0  0  0
  185.4970  177.9300  140.9010 C   0  0  1  0  0  3  0  0  0  0  0  0
  180.3000  179.9170  141.9010 C   0  0  0  0  0  0  0  0  0  0  0  0
  186.2220  178.3820  138.8020 C   0  0  0  0  0  0  0  0  0  0  0  0
  185.3540  178.0430  142.3830 C   0  0  0  0  0  0  0  0  0  0  0  0
  188.5630  178.4800  138.2780 C   0  0  0  0  0  3  0  0  0  0  0  0
  180.2060  177.8690  140.6020 C   0  0  0  0  0  2  0  0  0  0  0  0
  184.7780  178.1930  138.7170 C   0  0  0  0  0  0  0  0  0  0  0  0
  183.4900  177.4610  136.7130 C   0  0  0  0  0  2  0  0  0  0  0  0
  188.3460  177.5040  141.6500 C   0  0  0  0  0  3  0  0  0  0  0  0
  188.9380  178.6260  139.5720 C   0  0  0  0  0  3  0  0  0  0  0  0
  183.9180  178.6730  137.6040 C   0  0  0  0  0  2  0  0  0  0  0  0
  180.9720  178.9150  141.4120 C   0  0  0  0  0  0  0  0  0  0  0  0
  183.3600  179.5820  142.2060 C   0  0  0  0  0  2  0  0  0  0  0  0
  187.9400  178.6240  140.7210 C   0  0  0  0  0  0  0  0  0  0  0  0
  184.3840  177.8660  139.9350 C   0  0  0  0  0  0  0  0  0  0  0  0
  186.8700  177.8790  136.4350 C   0  0  0  0  0  2  0  0  0  0  0  0
  186.3960  177.7190  143.2200 C   0  0  0  0  0  0  0  0  0  0  0  0
  184.6000  177.0470  135.7290 C   0  0  0  0  0  2  0  0  0  0  0  0
  182.4500  179.0860  141.0840 C   0  0  1  0  0  3  0  0  0  0  0  0
  179.6510  180.8780  142.4020 O   0  0  0  0  0  0  0  0  0  0  0  0
  182.9500  177.8240  140.3180 C   0  0  2  0  0  3  0  0  0  0  0  0
  187.6590  177.1540  142.7360 C   0  0  0  0  0  3  0  0  0  0  0  0
  185.5750  178.9750  145.1760 C   0  0  0  0  0  3  0  0  0  0  0  0
  186.3260  177.8890  144.6750 C   0  0  0  0  0  0  0  0  0  0  0  0
  187.1570  177.1520  145.5360 C   0  0  0  0  0  3  0  0  0  0  0  0
  188.0950  176.8170  147.6890 F   0  0  0  0  0  0  0  0  0  0  0  0
  186.5090  178.6040  147.3750 C   0  0  0  0  0  3  0  0  0  0  0  0
  187.2510  177.5030  146.8780 C   0  0  0  0  0  0  0  0  0  0  0  0
  185.6800  179.3320  146.5110 C   0  0  0  0  0  3  0  0  0  0  0  0
  180.0250  177.0010  138.2280 C   0  0  0  0  0  1  0  0  0  0  0  0
  180.9310  176.0630  139.0090 C   0  0  0  0  0  2  0  0  0  0  0  0
  2 22  1  0  0  0  0
  3 20  1  0  0  0  0
  3  7  1  0  0  0  0
  4 37  1  6  0  0  0
  4 12  1  0  0  0  0
  4  1  1  0  0  0  0
  6 11  2  0  0  0  0
  6  9  1  0  0  0  0
  7 21  1  6  0  0  0
  7 10  1  0  0  0  0
  8 26  2  0  0  0  0
  9  3  2  0  0  0  0
 10  5  1  0  0  0  0
 10 23  2  0  0  0  0
 11 16  1  0  0  0  0
 12 18  1  0  0  0  0
 13  9  1  0  0  0  0
 13 21  2  0  0  0  0
 14 17  1  0  0  0  0
 15 28  2  0  0  0  0
 16 20  2  0  0  0  0
 17 13  1  0  0  0  0
 18  8  2  0  0  0  0
 19  5  1  0  0  0  0
 20 15  1  0  0  0  0
 21 27  1  0  0  0  0
 22  6  1  0  0  0  0
 23 30  1  0  0  0  0
 24  2  1  0  0  0  0
 24 14  1  0  0  0  0
 25 18  1  0  0  0  0
 25 19  1  1  0  0  0
 27  1  1  1  0  0  0
 27 25  1  0  0  0  0
 28 23  1  0  0  0  0
 29 35  1  0  0  0  0
 30 29  2  0  0  0  0
 30 31  1  0  0  0  0
 31 34  2  0  0  0  0
 34 33  1  0  0  0  0
 34 32  1  0  0  0  0
 35 33  2  0  0  0  0
 36 37  1  0  0  0  0
M  END
>  <MODEL>
4

>  <REMARK>
 VINA RESULT:      -7.1      4.059      7.764
  Name = 
  2 active torsions:
  status: ('A' for Active; 'I' for Inactive)
    1  A    between atoms: C_5  and  C_23
    2  A    between atoms: C_6  and  C_31
                            x       y       z     vdW  Elec       q    Type
                         _______ _______ _______ _____ _____    ______ ____

>  <TORSDO>
F 2

$$$$
=
 OpenBabel11052415143D

 37 43  0  0  1  0  0  0  0  0999 V2000
  183.7660  180.0280  138.7630 C   0  0  0  0  0  2  0  0  0  0  0  0
  184.1810  179.9550  144.5330 C   0  0  0  0  0  2  0  0  0  0  0  0
  186.5510  177.8500  141.6860 C   0  0  0  0  0  0  0  0  0  0  0  0
  182.3200  180.2930  138.3400 C   0  0  1  0  0  3  0  0  0  0  0  0
  185.9770  177.7740  137.9690 C   0  0  0  0  0  2  0  0  0  0  0  0
  185.7550  177.9980  143.9980 C   0  0  0  0  0  0  0  0  0  0  0  0
  186.1120  178.3390  140.5310 C   0  0  0  0  0  0  0  0  0  0  0  0
  182.0800  176.8410  136.8610 C   0  0  0  0  0  0  0  0  0  0  0  0
  185.5090  177.9940  142.6880 C   0  0  0  0  0  0  0  0  0  0  0  0
  186.7840  178.1150  139.2160 C   0  0  0  0  0  0  0  0  0  0  0  0
  187.1500  177.6910  144.4150 C   0  0  0  0  0  3  0  0  0  0  0  0
  181.5770  178.9920  137.8680 C   0  0  0  0  0  2  0  0  0  0  0  0
  184.2930  178.3420  141.9620 C   0  0  0  0  0  0  0  0  0  0  0  0
  182.2370  179.3780  142.9160 C   0  0  0  0  0  2  0  0  0  0  0  0
  188.9370  178.3910  141.4680 C   0  0  0  0  0  3  0  0  0  0  0  0
  188.1440  177.3950  143.5420 C   0  0  0  0  0  3  0  0  0  0  0  0
  182.9100  178.0540  142.4230 C   0  0  0  0  0  2  0  0  0  0  0  0
  182.5080  177.8030  137.6270 C   0  0  0  0  0  0  0  0  0  0  0  0
  184.8260  176.8190  138.2860 C   0  0  0  0  0  2  0  0  0  0  0  0
  187.9420  177.4050  142.0340 C   0  0  1  0  0  3  0  0  0  0  0  0
  184.6740  178.6040  140.7240 C   0  0  0  0  0  0  0  0  0  0  0  0
  184.8280  178.6260  145.0140 C   0  0  0  0  0  2  0  0  0  0  0  0
  188.1450  178.2530  139.0860 C   0  0  0  0  0  0  0  0  0  0  0  0
  182.6780  179.7530  144.3430 C   0  0  0  0  0  2  0  0  0  0  0  0
  183.5300  177.5050  138.7160 C   0  0  1  0  0  3  0  0  0  0  0  0
  181.6830  175.9160  136.0980 O   0  0  0  0  0  0  0  0  0  0  0  0
  183.7000  178.7660  139.6140 C   0  0  2  0  0  3  0  0  0  0  0  0
  189.0050  178.7180  140.1780 C   0  0  0  0  0  3  0  0  0  0  0  0
  188.4200  178.6280  136.6650 C   0  0  0  0  0  3  0  0  0  0  0  0
  188.8550  177.9670  137.8350 C   0  0  0  0  0  0  0  0  0  0  0  0
  189.7750  176.9090  137.7430 C   0  0  0  0  0  3  0  0  0  0  0  0
  191.0930  175.4470  136.4190 F   0  0  0  0  0  0  0  0  0  0  0  0
  189.7940  177.1570  135.3260 C   0  0  0  0  0  3  0  0  0  0  0  0
  190.2450  176.5030  136.5000 C   0  0  0  0  0  0  0  0  0  0  0  0
  188.8790  178.2130  135.4250 C   0  0  0  0  0  3  0  0  0  0  0  0
  180.2810  180.0370  139.7730 C   0  0  0  0  0  1  0  0  0  0  0  0
  181.5570  180.8390  139.5740 C   0  0  0  0  0  2  0  0  0  0  0  0
  2 22  1  0  0  0  0
  3 20  1  0  0  0  0
  3  9  1  0  0  0  0
  4  1  1  0  0  0  0
  4 37  1  1  0  0  0
  5 19  1  0  0  0  0
  5 10  1  0  0  0  0
  6 11  1  0  0  0  0
  6 22  1  0  0  0  0
  7 21  1  0  0  0  0
  7  3  2  0  0  0  0
  8 18  2  0  0  0  0
  9  6  2  0  0  0  0
 10  7  1  0  0  0  0
 12  4  1  0  0  0  0
 13 17  1  0  0  0  0
 13  9  1  0  0  0  0
 14 24  1  0  0  0  0
 16 11  2  0  0  0  0
 17 14  1  0  0  0  0
 18 12  1  0  0  0  0
 18 25  1  0  0  0  0
 20 15  1  6  0  0  0
 20 16  1  0  0  0  0
 21 13  2  0  0  0  0
 23 10  2  0  0  0  0
 23 28  1  0  0  0  0
 24  2  1  0  0  0  0
 25 19  1  6  0  0  0
 25 27  1  0  0  0  0
 26  8  2  0  0  0  0
 27  1  1  6  0  0  0
 27 21  1  0  0  0  0
 28 15  2  0  0  0  0
 29 30  1  0  0  0  0
 30 23  1  0  0  0  0
 31 30  2  0  0  0  0
 32 34  1  0  0  0  0
 33 35  1  0  0  0  0
 33 34  2  0  0  0  0
 34 31  1  0  0  0  0
 35 29  2  0  0  0  0
 37 36  1  0  0  0  0
M  END
>  <MODEL>
5

>  <REMARK>
 VINA RESULT:      -6.8      3.033      6.376
  Name = 
  2 active torsions:
  status: ('A' for Active; 'I' for Inactive)
    1  A    between atoms: C_5  and  C_23
    2  A    between atoms: C_6  and  C_31
                            x       y       z     vdW  Elec       q    Type
                         _______ _______ _______ _____ _____    ______ ____

>  <TORSDO>
F 2

$$$$
=
 OpenBabel11052415143D

 37 43  0  0  1  0  0  0  0  0999 V2000
  188.0950  176.5600  143.1790 C   0  0  0  0  0  2  0  0  0  0  0  0
  182.6170  178.2340  142.3740 C   0  0  0  0  0  2  0  0  0  0  0  0
  185.9030  178.5620  139.6830 C   0  0  0  0  0  0  0  0  0  0  0  0
  188.4580  176.6330  144.6640 C   0  0  1  0  0  3  0  0  0  0  0  0
  189.4790  177.6870  140.4570 C   0  0  0  0  0  2  0  0  0  0  0  0
  183.6800  179.3640  140.3290 C   0  0  0  0  0  0  0  0  0  0  0  0
  186.8650  177.9060  140.3240 C   0  0  0  0  0  0  0  0  0  0  0  0
  190.9300  179.3820  143.9650 C   0  0  0  0  0  0  0  0  0  0  0  0
  184.9360  179.0490  140.6500 C   0  0  1  0  0  3  0  0  0  0  0  0
  188.1650  177.5090  139.7060 C   0  0  0  0  0  0  0  0  0  0  0  0
  183.3390  179.3440  138.8810 C   0  0  0  0  0  3  0  0  0  0  0  0
  189.3270  177.8930  145.0170 C   0  0  0  0  0  2  0  0  0  0  0  0
  185.5540  178.8850  141.9600 C   0  0  0  0  0  0  0  0  0  0  0  0
  184.3870  178.8600  144.1620 C   0  0  0  0  0  2  0  0  0  0  0  0
  185.8770  177.2820  137.5860 C   0  0  0  0  0  3  0  0  0  0  0  0
  184.2310  179.0470  137.9040 C   0  0  0  0  0  3  0  0  0  0  0  0
  185.2430  179.7040  143.1610 C   0  0  0  0  0  2  0  0  0  0  0  0
  189.8940  178.6120  143.7930 C   0  0  0  0  0  0  0  0  0  0  0  0
  189.5030  178.9960  141.2480 C   0  0  0  0  0  2  0  0  0  0  0  0
  185.6690  178.6460  138.2020 C   0  0  0  0  0  0  0  0  0  0  0  0
  186.6410  178.1610  141.7590 C   0  0  0  0  0  0  0  0  0  0  0  0
  182.5480  179.3840  141.3300 C   0  0  0  0  0  2  0  0  0  0  0  0
  188.2080  176.9320  138.4590 C   0  0  0  0  0  0  0  0  0  0  0  0
  182.9020  178.8160  143.7580 C   0  0  0  0  0  2  0  0  0  0  0  0
  188.9210  178.8990  142.6570 C   0  0  1  0  0  3  0  0  0  0  0  0
  191.9510  180.1090  144.1190 O   0  0  0  0  0  0  0  0  0  0  0  0
  187.6750  177.9760  142.8100 C   0  0  2  0  0  3  0  0  0  0  0  0
  187.0020  176.5780  137.7050 C   0  0  0  0  0  3  0  0  0  0  0  0
  189.6830  177.1360  136.4950 C   0  0  0  0  0  3  0  0  0  0  0  0
  189.4650  176.5990  137.7820 C   0  0  0  0  0  0  0  0  0  0  0  0
  190.3200  175.5990  138.2800 C   0  0  0  0  0  3  0  0  0  0  0  0
  192.1560  174.1310  137.9680 F   0  0  0  0  0  0  0  0  0  0  0  0
  191.5750  175.6610  136.2000 C   0  0  0  0  0  3  0  0  0  0  0  0
  191.3690  175.1310  137.4980 C   0  0  0  0  0  0  0  0  0  0  0  0
  190.7220  176.6590  135.7110 C   0  0  0  0  0  3  0  0  0  0  0  0
  187.2570  177.8690  146.4820 C   0  0  0  0  0  1  0  0  0  0  0  0
  187.1380  176.7410  145.4700 C   0  0  0  0  0  2  0  0  0  0  0  0
  1  4  1  0  0  0  0
  2 24  1  0  0  0  0
  3  7  2  0  0  0  0
  4 12  1  0  0  0  0
  4 37  1  1  0  0  0
  5 19  1  0  0  0  0
  6  9  1  0  0  0  0
  6 22  1  0  0  0  0
  7 21  1  0  0  0  0
  8 26  2  0  0  0  0
  9  3  1  6  0  0  0
  9 13  1  0  0  0  0
 10  7  1  0  0  0  0
 10  5  1  0  0  0  0
 11  6  2  0  0  0  0
 13 17  1  0  0  0  0
 15 28  2  0  0  0  0
 15 20  1  0  0  0  0
 16 20  2  0  0  0  0
 16 11  1  0  0  0  0
 17 14  1  0  0  0  0
 18  8  2  0  0  0  0
 18 12  1  0  0  0  0
 20  3  1  0  0  0  0
 21 13  2  0  0  0  0
 21 27  1  0  0  0  0
 22  2  1  0  0  0  0
 23 10  2  0  0  0  0
 24 14  1  0  0  0  0
 25 19  1  6  0  0  0
 25 27  1  0  0  0  0
 25 18  1  0  0  0  0
 27  1  1  6  0  0  0
 28 23  1  0  0  0  0
 29 30  1  0  0  0  0
 30 31  2  0  0  0  0
 30 23  1  0  0  0  0
 33 34  2  0  0  0  0
 34 32  1  0  0  0  0
 34 31  1  0  0  0  0
 35 33  1  0  0  0  0
 35 29  2  0  0  0  0
 37 36  1  0  0  0  0
M  END
>  <MODEL>
6

>  <REMARK>
 VINA RESULT:      -6.6      1.261      2.016
  Name = 
  2 active torsions:
  status: ('A' for Active; 'I' for Inactive)
    1  A    between atoms: C_5  and  C_23
    2  A    between atoms: C_6  and  C_31
                            x       y       z     vdW  Elec       q    Type
                         _______ _______ _______ _____ _____    ______ ____

>  <TORSDO>
F 2

$$$$
=
 OpenBabel11052415143D

 37 43  0  0  1  0  0  0  0  0999 V2000
  181.9910  176.1870  137.1730 C   0  0  0  0  0  2  0  0  0  0  0  0
  187.7480  176.0300  137.7090 C   0  0  0  0  0  2  0  0  0  0  0  0
  184.9690  178.5160  139.7690 C   0  0  0  0  0  0  0  0  0  0  0  0
  181.5800  175.7840  135.7550 C   0  0  1  0  0  3  0  0  0  0  0  0
  181.2710  178.7060  139.1060 C   0  0  0  0  0  2  0  0  0  0  0  0
  187.2850  178.1710  139.0480 C   0  0  0  0  0  0  0  0  0  0  0  0
  183.7990  178.0380  139.3600 C   0  0  0  0  0  0  0  0  0  0  0  0
  180.2800  179.2550  135.1060 C   0  0  0  0  0  0  0  0  0  0  0  0
  185.9800  178.2110  138.7730 C   0  0  0  0  0  0  0  0  0  0  0  0
  182.4850  178.3970  139.9740 C   0  0  0  0  0  0  0  0  0  0  0  0
  187.6920  178.6110  140.4090 C   0  0  0  0  0  3  0  0  0  0  0  0
  181.1860  177.0170  134.8640 C   0  0  0  0  0  2  0  0  0  0  0  0
  185.2590  177.7660  137.5860 C   0  0  0  0  0  0  0  0  0  0  0  0
  186.1970  176.4660  135.6770 C   0  0  0  0  0  2  0  0  0  0  0  0
  184.6820  178.2530  142.1950 C   0  0  0  0  0  3  0  0  0  0  0  0
  186.8170  179.0560  141.3460 C   0  0  0  0  0  3  0  0  0  0  0  0
  185.7590  177.8770  136.1910 C   0  0  0  0  0  2  0  0  0  0  0  0
  180.9880  178.3100  135.6540 C   0  0  0  0  0  0  0  0  0  0  0  0
  181.6550  179.5110  137.8650 C   0  0  0  0  0  2  0  0  0  0  0  0
  185.3140  179.0950  141.1110 C   0  0  1  0  0  3  0  0  0  0  0  0
  184.0030  177.6070  137.9650 C   0  0  0  0  0  0  0  0  0  0  0  0
  188.2840  177.3980  138.2180 C   0  0  0  0  0  2  0  0  0  0  0  0
  182.3250  178.4160  141.3390 C   0  0  0  0  0  0  0  0  0  0  0  0
  187.5960  176.0740  136.1890 C   0  0  0  0  0  2  0  0  0  0  0  0
  182.0730  178.6680  136.6610 C   0  0  1  0  0  3  0  0  0  0  0  0
  179.5710  180.1660  134.5940 O   0  0  0  0  0  0  0  0  0  0  0  0
  182.9040  177.3910  136.9890 C   0  0  2  0  0  3  0  0  0  0  0  0
  183.3770  177.9970  142.2690 C   0  0  0  0  0  3  0  0  0  0  0  0
  180.4460  180.0040  141.5000 C   0  0  0  0  0  3  0  0  0  0  0  0
  181.0780  178.8370  141.9840 C   0  0  0  0  0  0  0  0  0  0  0  0
  180.6430  178.2510  143.1860 C   0  0  0  0  0  3  0  0  0  0  0  0
  179.2260  178.2840  145.0880 F   0  0  0  0  0  0  0  0  0  0  0  0
  178.9820  180.0090  143.4230 C   0  0  0  0  0  3  0  0  0  0  0  0
  179.6030  178.8290  143.9040 C   0  0  0  0  0  0  0  0  0  0  0  0
  179.4180  180.5870  142.2240 C   0  0  0  0  0  3  0  0  0  0  0  0
  183.4250  174.1180  136.0620 C   0  0  0  0  0  1  0  0  0  0  0  0
  182.7980  175.0990  135.0850 C   0  0  0  0  0  2  0  0  0  0  0  0
  2 22  1  0  0  0  0
  3 20  1  0  0  0  0
  4 37  1  6  0  0  0
  4  1  1  0  0  0  0
  5 10  1  0  0  0  0
  6 11  1  0  0  0  0
  7  3  2  0  0  0  0
  7 10  1  0  0  0  0
  8 18  2  0  0  0  0
  9  6  2  0  0  0  0
  9  3  1  0  0  0  0
 10 23  2  0  0  0  0
 11 16  2  0  0  0  0
 12 18  1  0  0  0  0
 12  4  1  0  0  0  0
 13 21  2  0  0  0  0
 13  9  1  0  0  0  0
 14 24  1  0  0  0  0
 14 17  1  0  0  0  0
 15 28  2  0  0  0  0
 17 13  1  0  0  0  0
 18 25  1  0  0  0  0
 19  5  1  0  0  0  0
 20 16  1  1  0  0  0
 20 15  1  0  0  0  0
 21  7  1  0  0  0  0
 22  6  1  0  0  0  0
 23 30  1  0  0  0  0
 23 28  1  0  0  0  0
 24  2  1  0  0  0  0
 25 27  1  0  0  0  0
 25 19  1  1  0  0  0
 26  8  2  0  0  0  0
 27  1  1  1  0  0  0
 27 21  1  0  0  0  0
 29 30  2  0  0  0  0
 29 35  1  0  0  0  0
 30 31  1  0  0  0  0
 31 34  2  0  0  0  0
 33 34  1  0  0  0  0
 34 32  1  0  0  0  0
 35 33  2  0  0  0  0
 37 36  1  0  0  0  0
M  END
>  <MODEL>
7

>  <REMARK>
 VINA RESULT:      -6.5      4.921      9.950
  Name = 
  2 active torsions:
  status: ('A' for Active; 'I' for Inactive)
    1  A    between atoms: C_5  and  C_23
    2  A    between atoms: C_6  and  C_31
                            x       y       z     vdW  Elec       q    Type
                         _______ _______ _______ _____ _____    ______ ____

>  <TORSDO>
F 2

$$$$
=
 OpenBabel11052415143D

 37 43  0  0  1  0  0  0  0  0999 V2000
  185.2870  178.6850  137.6210 C   0  0  0  0  0  2  0  0  0  0  0  0
  183.0440  173.9340  135.2000 C   0  0  0  0  0  2  0  0  0  0  0  0
  180.9890  177.2410  136.9290 C   0  0  0  0  0  0  0  0  0  0  0  0
  186.6530  178.3710  138.2360 C   0  0  1  0  0  3  0  0  0  0  0  0
  182.5890  180.1330  138.7260 C   0  0  0  0  0  2  0  0  0  0  0  0
  180.9060  174.8880  136.2550 C   0  0  0  0  0  0  0  0  0  0  0  0
  181.9800  178.0860  137.1980 C   0  0  1  0  0  3  0  0  0  0  0  0
  185.2920  179.0210  141.6830 C   0  0  0  0  0  0  0  0  0  0  0  0
  181.5160  175.8890  136.8910 C   0  0  0  0  0  0  0  0  0  0  0  0
  181.7820  179.5120  137.5920 C   0  0  0  0  0  0  0  0  0  0  0  0
  179.5560  175.1750  135.7000 C   0  0  0  0  0  3  0  0  0  0  0  0
  186.5950  178.2210  139.7990 C   0  0  0  0  0  2  0  0  0  0  0  0
  182.8590  175.9600  137.4550 C   0  0  0  0  0  0  0  0  0  0  0  0
  184.6760  174.2760  137.1870 C   0  0  0  0  0  2  0  0  0  0  0  0
  179.6110  178.6860  135.4980 C   0  0  0  0  0  3  0  0  0  0  0  0
  178.9330  176.3720  135.8300 C   0  0  0  0  0  3  0  0  0  0  0  0
  183.5630  174.8390  138.1310 C   0  0  0  0  0  2  0  0  0  0  0  0
  185.2880  178.7160  140.4180 C   0  0  0  0  0  0  0  0  0  0  0  0
  182.7780  179.1540  139.8850 C   0  0  0  0  0  2  0  0  0  0  0  0
  179.5840  177.5670  136.5120 C   0  0  0  0  0  0  0  0  0  0  0  0
  183.1370  177.2480  137.5640 C   0  0  0  0  0  0  0  0  0  0  0  0
  181.6280  173.6490  135.7740 C   0  0  0  0  0  2  0  0  0  0  0  0
  180.8970  180.3160  136.9140 C   0  0  0  0  0  0  0  0  0  0  0  0
  184.1010  173.3240  136.1210 C   0  0  0  0  0  2  0  0  0  0  0  0
  183.9990  178.2440  139.7580 C   0  0  1  0  0  3  0  0  0  0  0  0
  185.2930  179.3450  142.9040 O   0  0  0  0  0  0  0  0  0  0  0  0
  184.3180  177.7410  138.3190 C   0  0  2  0  0  3  0  0  0  0  0  0
  180.1750  179.8730  135.7180 C   0  0  0  0  0  3  0  0  0  0  0  0
  179.6060  181.9110  138.2800 C   0  0  0  0  0  3  0  0  0  0  0  0
  180.6150  181.6980  137.3150 C   0  0  0  0  0  0  0  0  0  0  0  0
  181.1500  182.7880  136.6070 C   0  0  0  0  0  3  0  0  0  0  0  0
  181.1620  185.1100  136.1200 F   0  0  0  0  0  0  0  0  0  0  0  0
  179.6510  184.2800  137.8040 C   0  0  0  0  0  3  0  0  0  0  0  0
  180.6750  184.0720  136.8460 C   0  0  0  0  0  0  0  0  0  0  0  0
  179.1240  183.1910  138.5090 C   0  0  0  0  0  3  0  0  0  0  0  0
  187.1080  177.0780  136.1400 C   0  0  0  0  0  1  0  0  0  0  0  0
  187.1340  177.0150  137.6580 C   0  0  0  0  0  2  0  0  0  0  0  0
  1  4  1  0  0  0  0
  2 22  1  0  0  0  0
  2 24  1  0  0  0  0
  4 37  1  6  0  0  0
  4 12  1  0  0  0  0
  5 19  1  0  0  0  0
  6  9  1  0  0  0  0
  7  3  1  1  0  0  0
  7 21  1  0  0  0  0
  7 10  1  0  0  0  0
  8 26  2  0  0  0  0
  9  3  2  0  0  0  0
  9 13  1  0  0  0  0
 10  5  1  0  0  0  0
 11 16  1  0  0  0  0
 11  6  2  0  0  0  0
 12 18  1  0  0  0  0
 13 21  2  0  0  0  0
 13 17  1  0  0  0  0
 14 17  1  0  0  0  0
 15 28  2  0  0  0  0
 15 20  1  0  0  0  0
 16 20  2  0  0  0  0
 18  8  2  0  0  0  0
 20  3  1  0  0  0  0
 21 27  1  0  0  0  0
 22  6  1  0  0  0  0
 23 30  1  0  0  0  0
 23 10  2  0  0  0  0
 24 14  1  0  0  0  0
 25 19  1  6  0  0  0
 25 18  1  0  0  0  0
 27  1  1  6  0  0  0
 27 25  1  0  0  0  0
 28 23  1  0  0  0  0
 29 35  1  0  0  0  0
 30 29  2  0  0  0  0
 31 34  2  0  0  0  0
 31 30  1  0  0  0  0
 32 34  1  0  0  0  0
 33 35  2  0  0  0  0
 34 33  1  0  0  0  0
 36 37  1  0  0  0  0
M  END
>  <MODEL>
8

>  <REMARK>
 VINA RESULT:      -6.3      5.216      9.379
  Name = 
  2 active torsions:
  status: ('A' for Active; 'I' for Inactive)
    1  A    between atoms: C_5  and  C_23
    2  A    between atoms: C_6  and  C_31
                            x       y       z     vdW  Elec       q    Type
                         _______ _______ _______ _____ _____    ______ ____

>  <TORSDO>
F 2

$$$$
=
 OpenBabel11052415143D

 37 43  0  0  1  0  0  0  0  0999 V2000
  185.1220  176.9590  135.4110 C   0  0  0  0  0  2  0  0  0  0  0  0
  182.4020  171.8590  135.6370 C   0  0  0  0  0  2  0  0  0  0  0  0
  181.4330  175.4630  137.6900 C   0  0  0  0  0  0  0  0  0  0  0  0
  186.6100  176.7520  135.1210 C   0  0  1  0  0  3  0  0  0  0  0  0
  183.4680  178.6280  137.6650 C   0  0  0  0  0  2  0  0  0  0  0  0
  181.2180  173.0250  137.5940 C   0  0  0  0  0  0  0  0  0  0  0  0
  182.2940  176.3310  137.1670 C   0  0  0  0  0  0  0  0  0  0  0  0
  187.4960  178.0740  138.5310 C   0  0  0  0  0  0  0  0  0  0  0  0
  181.9750  174.1230  137.5630 C   0  0  0  0  0  0  0  0  0  0  0  0
  182.2180  177.8100  137.3640 C   0  0  0  0  0  0  0  0  0  0  0  0
  179.7810  173.2180  137.9260 C   0  0  0  0  0  3  0  0  0  0  0  0
  187.5060  176.9080  136.4030 C   0  0  0  0  0  2  0  0  0  0  0  0
  183.3740  174.2850  137.1840 C   0  0  0  0  0  0  0  0  0  0  0  0
  184.8450  172.5570  136.1530 C   0  0  0  0  0  2  0  0  0  0  0  0
  179.3310  176.6220  137.1670 C   0  0  0  0  0  3  0  0  0  0  0  0
  179.2320  174.4250  138.2080 C   0  0  0  0  0  3  0  0  0  0  0  0
  184.4560  173.3070  137.4700 C   0  0  0  0  0  2  0  0  0  0  0  0
  186.7760  177.5290  137.5930 C   0  0  0  0  0  0  0  0  0  0  0  0
  184.4100  177.8890  138.6160 C   0  0  0  0  0  2  0  0  0  0  0  0
  180.0290  175.7200  138.1570 C   0  0  1  0  0  3  0  0  0  0  0  0
  183.5240  175.5650  136.8940 C   0  0  0  0  0  0  0  0  0  0  0  0
  181.6410  171.7080  136.9840 C   0  0  0  0  0  2  0  0  0  0  0  0
  181.0240  178.4790  137.2360 C   0  0  0  0  0  0  0  0  0  0  0  0
  183.8560  171.4250  135.8200 C   0  0  0  0  0  2  0  0  0  0  0  0
  185.4060  176.9560  137.9300 C   0  0  1  0  0  3  0  0  0  0  0  0
  188.1860  178.6280  139.4320 O   0  0  0  0  0  0  0  0  0  0  0  0
  184.8610  176.1800  136.6930 C   0  0  2  0  0  3  0  0  0  0  0  0
  179.7860  177.8220  136.8070 C   0  0  0  0  0  3  0  0  0  0  0  0
  180.6070  180.3220  138.8190 C   0  0  0  0  0  3  0  0  0  0  0  0
  180.8890  179.9160  137.4960 C   0  0  0  0  0  0  0  0  0  0  0  0
  180.8050  180.8430  136.4430 C   0  0  0  0  0  3  0  0  0  0  0  0
  180.3040  183.0300  135.6730 F   0  0  0  0  0  0  0  0  0  0  0  0
  180.1330  182.5570  138.0300 C   0  0  0  0  0  3  0  0  0  0  0  0
  180.4310  182.1560  136.7030 C   0  0  0  0  0  0  0  0  0  0  0  0
  180.2210  181.6290  139.0740 C   0  0  0  0  0  3  0  0  0  0  0  0
  187.9630  174.6540  135.3240 C   0  0  0  0  0  1  0  0  0  0  0  0
  186.7960  175.3050  134.6000 C   0  0  0  0  0  2  0  0  0  0  0  0
  2 24  1  0  0  0  0
  2 22  1  0  0  0  0
  3 20  1  0  0  0  0
  4 37  1  1  0  0  0
  4  1  1  0  0  0  0
  4 12  1  0  0  0  0
  5 19  1  0  0  0  0
  6 11  1  0  0  0  0
  7 10  1  0  0  0  0
  7  3  2  0  0  0  0
  8 26  2  0  0  0  0
  9  6  2  0  0  0  0
  9  3  1  0  0  0  0
 10  5  1  0  0  0  0
 11 16  2  0  0  0  0
 12 18  1  0  0  0  0
 13 17  1  0  0  0  0
 13  9  1  0  0  0  0
 14 17  1  0  0  0  0
 18 25  1  0  0  0  0
 18  8  2  0  0  0  0
 20 15  1  6  0  0  0
 20 16  1  0  0  0  0
 21  7  1  0  0  0  0
 21 13  2  0  0  0  0
 22  6  1  0  0  0  0
 23 10  2  0  0  0  0
 23 30  1  0  0  0  0
 24 14  1  0  0  0  0
 25 19  1  6  0  0  0
 27  1  1  6  0  0  0
 27 21  1  0  0  0  0
 27 25  1  0  0  0  0
 28 15  2  0  0  0  0
 28 23  1  0  0  0  0
 29 35  1  0  0  0  0
 30 29  2  0  0  0  0
 31 34  2  0  0  0  0
 31 30  1  0  0  0  0
 32 34  1  0  0  0  0
 33 35  2  0  0  0  0
 34 33  1  0  0  0  0
 37 36  1  0  0  0  0
M  END
>  <MODEL>
9

>  <REMARK>
 VINA RESULT:      -6.2      5.142      9.465
  Name = 
  2 active torsions:
  status: ('A' for Active; 'I' for Inactive)
    1  A    between atoms: C_5  and  C_23
    2  A    between atoms: C_6  and  C_31
                            x       y       z     vdW  Elec       q    Type
                         _______ _______ _______ _____ _____    ______ ____

>  <TORSDO>
F 2

$$$$
