=
 OpenBabel11052415563D

 34 39  0  0  1  0  0  0  0  0999 V2000
  186.8880  178.1310  143.9800 N   0  0  0  0  0  0  0  0  0  0  0  0
  183.2540  178.9270  144.8080 C   0  0  0  0  0  3  0  0  0  0  0  0
  185.1890  178.4430  146.2000 C   0  0  0  0  0  3  0  0  0  0  0  0
  189.5430  177.3540  144.4340 N   0  0  0  0  0  0  0  0  0  0  0  0
  187.7930  177.9410  142.8780 C   0  0  0  0  0  3  0  0  0  0  0  0
  188.7960  177.5280  145.4830 C   0  0  0  0  0  0  0  0  0  0  0  0
  188.3540  177.5410  147.9470 C   0  0  0  0  0  3  0  0  0  0  0  0
  189.3670  177.3110  146.8540 C   0  0  0  0  0  3  0  0  0  0  0  0
  189.0640  177.5550  143.0880 C   0  0  0  0  0  0  0  0  0  0  0  0
  186.6090  178.1100  146.3830 C   0  0  0  0  0  0  0  0  0  0  0  0
  187.3960  177.9380  145.3120 C   0  0  2  0  0  3  0  0  0  0  0  0
  187.1250  177.8990  147.7050 N   0  0  0  0  0  0  0  0  0  0  0  0
  182.7170  178.8090  143.5880 C   0  0  0  0  0  0  0  0  0  0  0  0
  183.5470  178.3820  142.4380 C   0  0  0  0  0  3  0  0  0  0  0  0
  184.6950  178.7040  144.9890 C   0  0  0  0  0  0  0  0  0  0  0  0
  184.8810  178.3240  142.5290 C   0  0  0  0  0  3  0  0  0  0  0  0
  185.5940  178.7960  143.7730 C   0  0  2  0  0  3  0  0  0  0  0  0
  192.2330  177.3460  141.0070 C   0  0  0  0  0  3  0  0  0  0  0  0
  189.4730  176.9610  140.7020 C   0  0  0  0  0  3  0  0  0  0  0  0
  192.0570  176.3710  137.4350 C   0  0  0  0  0  0  0  0  0  0  0  0
  192.5730  176.7610  138.6810 C   0  0  0  0  0  3  0  0  0  0  0  0
  191.7180  176.9580  139.7690 C   0  0  0  0  0  0  0  0  0  0  0  0
  189.8130  176.3760  138.3760 C   0  0  0  0  0  3  0  0  0  0  0  0
  190.3280  176.7640  139.6140 C   0  0  0  0  0  0  0  0  0  0  0  0
  190.6750  176.1800  137.2920 C   0  0  0  0  0  3  0  0  0  0  0  0
  189.9850  177.3510  141.9490 C   0  0  0  0  0  0  0  0  0  0  0  0
  191.3720  177.5420  142.0900 C   0  0  0  0  0  3  0  0  0  0  0  0
  192.9600  176.1640  136.2890 C   0  0  0  0  0  0  0  0  0  0  0  0
  194.3130  176.6050  136.3470 N   0  0  0  0  0  1  0  0  0  0  0  0
  192.5430  175.5940  135.2460 O   0  0  0  0  0  0  0  0  0  0  0  0
  181.2530  179.0280  143.4040 C   0  0  0  0  0  2  0  0  0  0  0  0
  180.9110  179.1840  141.9300 C   0  0  1  0  0  3  0  0  0  0  0  0
  179.9570  178.0830  141.5190 C   0  0  0  0  0  1  0  0  0  0  0  0
  180.3080  180.4230  141.7090 O   0  0  0  0  0  1  0  0  0  0  0  0
  1 11  1  0  0  0  0
  2 15  1  0  0  0  0
  3 10  1  0  0  0  0
  4  6  2  0  0  0  0
  5  9  2  0  0  0  0
  5  1  1  0  0  0  0
  6  8  1  0  0  0  0
  8  7  2  0  0  0  0
  9  4  1  0  0  0  0
 10 12  2  0  0  0  0
 11  6  1  6  0  0  0
 11 10  1  0  0  0  0
 12  7  1  0  0  0  0
 13  2  2  0  0  0  0
 14 16  2  0  0  0  0
 14 13  1  0  0  0  0
 15  3  2  0  0  0  0
 17 16  1  6  0  0  0
 17  1  1  0  0  0  0
 17 15  1  0  0  0  0
 18 27  1  0  0  0  0
 19 26  1  0  0  0  0
 20 21  2  0  0  0  0
 21 22  1  0  0  0  0
 22 18  2  0  0  0  0
 23 24  1  0  0  0  0
 24 22  1  0  0  0  0
 24 19  2  0  0  0  0
 25 20  1  0  0  0  0
 25 23  2  0  0  0  0
 26 27  2  0  0  0  0
 26  9  1  0  0  0  0
 28 29  1  0  0  0  0
 28 20  1  0  0  0  0
 30 28  2  0  0  0  0
 31 13  1  0  0  0  0
 32 33  1  1  0  0  0
 32 31  1  0  0  0  0
 34 32  1  0  0  0  0
M  END
>  <MODEL>
1

>  <REMARK>
 VINA RESULT:     -10.8      0.000      0.000
  Name = 
  4 active torsions:
  status: ('A' for Active; 'I' for Inactive)
    1  A    between atoms: C_3  and  C_25
    2  A    between atoms: C_7  and  C_11
    3  A    between atoms: C_18  and  C_30
    4  A    between atoms: C_23  and  C_25
                            x       y       z     vdW  Elec       q    Type
                         _______ _______ _______ _____ _____    ______ ____

>  <TORSDO>
F 4

$$$$
=
 OpenBabel11052415563D

 34 39  0  0  1  0  0  0  0  0999 V2000
  186.6380  178.1120  143.6070 N   0  0  0  0  0  0  0  0  0  0  0  0
  183.1800  178.9740  144.9600 C   0  0  0  0  0  3  0  0  0  0  0  0
  185.2890  178.4530  146.0530 C   0  0  0  0  0  3  0  0  0  0  0  0
  189.3160  177.2860  143.6680 N   0  0  0  0  0  0  0  0  0  0  0  0
  187.3670  177.9080  142.3850 C   0  0  0  0  0  3  0  0  0  0  0  0
  188.7350  177.4720  144.8150 C   0  0  0  0  0  0  0  0  0  0  0  0
  188.6600  177.4910  147.3170 C   0  0  0  0  0  3  0  0  0  0  0  0
  189.4970  177.2430  146.0870 C   0  0  0  0  0  3  0  0  0  0  0  0
  188.6480  177.4980  142.4060 C   0  0  0  0  0  0  0  0  0  0  0  0
  186.7150  178.0940  146.0250 C   0  0  0  0  0  0  0  0  0  0  0  0
  187.3330  177.9090  144.8510 C   0  0  2  0  0  3  0  0  0  0  0  0
  187.4160  177.8710  147.2580 N   0  0  0  0  0  0  0  0  0  0  0  0
  182.4680  178.8680  143.8320 C   0  0  0  0  0  0  0  0  0  0  0  0
  183.1120  178.4270  142.5730 C   0  0  0  0  0  3  0  0  0  0  0  0
  184.6280  178.7240  144.9270 C   0  0  0  0  0  0  0  0  0  0  0  0
  184.4440  178.3440  142.4670 C   0  0  0  0  0  3  0  0  0  0  0  0
  185.3400  178.8020  143.5920 C   0  0  2  0  0  3  0  0  0  0  0  0
  189.4190  176.9070  138.7350 C   0  0  0  0  0  3  0  0  0  0  0  0
  190.7900  177.2300  141.1590 C   0  0  0  0  0  3  0  0  0  0  0  0
  192.9330  176.6070  137.5930 C   0  0  0  0  0  0  0  0  0  0  0  0
  191.5300  176.6540  137.5740 C   0  0  0  0  0  3  0  0  0  0  0  0
  190.8140  176.8610  138.7560 C   0  0  0  0  0  0  0  0  0  0  0  0
  192.9000  176.9770  139.9980 C   0  0  0  0  0  3  0  0  0  0  0  0
  191.5050  177.0240  139.9770 C   0  0  0  0  0  0  0  0  0  0  0  0
  193.6100  176.7700  138.8110 C   0  0  0  0  0  3  0  0  0  0  0  0
  189.3880  177.2780  141.1440 C   0  0  0  0  0  0  0  0  0  0  0  0
  188.7100  177.1140  139.9220 C   0  0  0  0  0  3  0  0  0  0  0  0
  193.6860  176.3880  136.3460 C   0  0  0  0  0  0  0  0  0  0  0  0
  193.1850  175.5080  135.3450 N   0  0  0  0  0  1  0  0  0  0  0  0
  194.7820  176.9790  136.1530 O   0  0  0  0  0  0  0  0  0  0  0  0
  180.9970  179.1140  143.8640 C   0  0  0  0  0  2  0  0  0  0  0  0
  180.4860  179.5190  142.4910 C   0  0  1  0  0  3  0  0  0  0  0  0
  179.4190  178.5440  142.0460 C   0  0  0  0  0  1  0  0  0  0  0  0
  179.9420  180.8040  142.5450 O   0  0  0  0  0  1  0  0  0  0  0  0
  1 11  1  0  0  0  0
  4  6  2  0  0  0  0
  5  9  2  0  0  0  0
  5  1  1  0  0  0  0
  6  8  1  0  0  0  0
  8  7  2  0  0  0  0
  9  4  1  0  0  0  0
 10  3  1  0  0  0  0
 10 12  2  0  0  0  0
 11  6  1  1  0  0  0
 11 10  1  0  0  0  0
 12  7  1  0  0  0  0
 13 31  1  0  0  0  0
 13  2  2  0  0  0  0
 14 13  1  0  0  0  0
 15  2  1  0  0  0  0
 15  3  2  0  0  0  0
 16 14  2  0  0  0  0
 17 16  1  6  0  0  0
 17  1  1  0  0  0  0
 17 15  1  0  0  0  0
 18 22  2  0  0  0  0
 18 27  1  0  0  0  0
 20 25  1  0  0  0  0
 21 20  2  0  0  0  0
 21 22  1  0  0  0  0
 22 24  1  0  0  0  0
 24 23  1  0  0  0  0
 24 19  2  0  0  0  0
 25 23  2  0  0  0  0
 26 19  1  0  0  0  0
 26  9  1  0  0  0  0
 27 26  2  0  0  0  0
 28 20  1  0  0  0  0
 29 28  1  0  0  0  0
 30 28  2  0  0  0  0
 32 33  1  1  0  0  0
 32 34  1  0  0  0  0
 32 31  1  0  0  0  0
M  END
>  <MODEL>
2

>  <REMARK>
 VINA RESULT:     -10.5      0.901      1.514
  Name = 
  4 active torsions:
  status: ('A' for Active; 'I' for Inactive)
    1  A    between atoms: C_3  and  C_25
    2  A    between atoms: C_7  and  C_11
    3  A    between atoms: C_18  and  C_30
    4  A    between atoms: C_23  and  C_25
                            x       y       z     vdW  Elec       q    Type
                         _______ _______ _______ _____ _____    ______ ____

>  <TORSDO>
F 4

$$$$
=
 OpenBabel11052415563D

 34 39  0  0  1  0  0  0  0  0999 V2000
  189.2210  177.3620  143.4220 N   0  0  0  0  0  0  0  0  0  0  0  0
  192.4220  176.7230  141.4540 C   0  0  0  0  0  2  0  0  0  0  0  0
  191.9360  176.7470  143.8370 C   0  0  0  0  0  3  0  0  0  0  0  0
  187.5980  177.8030  145.6650 N   0  0  0  0  0  0  0  0  0  0  0  0
  187.8310  177.6950  143.2650 C   0  0  0  0  0  3  0  0  0  0  0  0
  188.8370  177.4830  145.8930 C   0  0  0  0  0  0  0  0  0  0  0  0
  190.7960  177.0040  147.3750 C   0  0  0  0  0  3  0  0  0  0  0  0
  189.3350  177.3670  147.3040 C   0  0  0  0  0  3  0  0  0  0  0  0
  187.0500  177.9220  144.3360 C   0  0  0  0  0  0  0  0  0  0  0  0
  191.0210  176.9160  144.9760 C   0  0  0  0  0  0  0  0  0  0  0  0
  189.7380  177.2350  144.7590 C   0  0  2  0  0  3  0  0  0  0  0  0
  191.5270  176.8090  146.3150 N   0  0  0  0  0  0  0  0  0  0  0  0
  192.0240  177.1320  140.2430 C   0  0  0  0  0  0  0  0  0  0  0  0
  190.6750  177.7120  140.0510 C   0  0  0  0  0  3  0  0  0  0  0  0
  191.4830  176.7820  142.5820 C   0  0  0  0  0  0  0  0  0  0  0  0
  189.7440  177.6390  141.0100 C   0  0  0  0  0  3  0  0  0  0  0  0
  190.0010  176.8640  142.2800 C   0  0  0  0  0  0  0  0  0  0  0  0
  183.4770  178.9580  145.0940 C   0  0  0  0  0  3  0  0  0  0  0  0
  185.0530  178.2630  142.8830 C   0  0  0  0  0  3  0  0  0  0  0  0
  181.0020  179.2610  142.3520 C   0  0  0  0  0  0  0  0  0  0  0  0
  181.5690  179.2740  143.6360 C   0  0  0  0  0  3  0  0  0  0  0  0
  182.9140  178.9440  143.8170 C   0  0  0  0  0  0  0  0  0  0  0  0
  183.1460  178.5800  141.4250 C   0  0  0  0  0  3  0  0  0  0  0  0
  183.7080  178.5940  142.7020 C   0  0  0  0  0  0  0  0  0  0  0  0
  181.7990  178.9120  141.2510 C   0  0  0  0  0  3  0  0  0  0  0  0
  185.6240  178.2750  144.1650 C   0  0  0  0  0  0  0  0  0  0  0  0
  184.8230  178.6250  145.2670 C   0  0  0  0  0  3  0  0  0  0  0  0
  179.5820  179.6100  142.1630 C   0  0  0  0  0  0  0  0  0  0  0  0
  178.9330  179.3400  140.9240 N   0  0  0  0  0  1  0  0  0  0  0  0
  178.9310  180.1500  143.0950 O   0  0  0  0  0  0  0  0  0  0  0  0
  192.9780  177.0790  139.0980 C   0  0  0  0  0  2  0  0  0  0  0  0
  192.3510  176.3760  137.9040 C   0  0  1  0  0  3  0  0  0  0  0  0
  193.4050  176.1590  136.8410 C   0  0  0  0  0  1  0  0  0  0  0  0
  191.8310  175.1420  138.2970 O   0  0  0  0  0  1  0  0  0  0  0  0
  1 11  1  0  0  0  0
  2 15  1  0  0  0  0
  3 10  1  0  0  0  0
  4  6  2  0  0  0  0
  5  1  1  0  0  0  0
  5  9  2  0  0  0  0
  6  8  1  0  0  0  0
  8  7  2  0  0  0  0
  9  4  1  0  0  0  0
 10 12  2  0  0  0  0
 11 10  1  6  0  0  0
 11  6  1  0  0  0  0
 12  7  1  0  0  0  0
 13  2  1  0  0  0  0
 14 13  2  0  0  0  0
 14 16  1  0  0  0  0
 15  3  2  0  0  0  0
 16 17  2  0  0  0  0
 17 15  1  0  0  0  0
 17  1  1  0  0  0  0
 18 27  1  0  0  0  0
 19 26  1  0  0  0  0
 20 21  2  0  0  0  0
 21 22  1  0  0  0  0
 22 18  2  0  0  0  0
 23 24  1  0  0  0  0
 24 19  2  0  0  0  0
 24 22  1  0  0  0  0
 25 23  2  0  0  0  0
 25 20  1  0  0  0  0
 26  9  1  0  0  0  0
 26 27  2  0  0  0  0
 28 20  1  0  0  0  0
 28 30  2  0  0  0  0
 29 28  1  0  0  0  0
 31 13  1  0  0  0  0
 32 33  1  6  0  0  0
 32 34  1  0  0  0  0
 32 31  1  0  0  0  0
M  END
>  <MODEL>
3

>  <REMARK>
 VINA RESULT:     -10.0      1.938      9.026
  Name = 
  4 active torsions:
  status: ('A' for Active; 'I' for Inactive)
    1  A    between atoms: C_3  and  C_25
    2  A    between atoms: C_7  and  C_11
    3  A    between atoms: C_18  and  C_30
    4  A    between atoms: C_23  and  C_25
                            x       y       z     vdW  Elec       q    Type
                         _______ _______ _______ _____ _____    ______ ____

>  <TORSDO>
F 4

$$$$
=
 OpenBabel11052415563D

 34 39  0  0  1  0  0  0  0  0999 V2000
  182.6720  178.6450  141.3000 N   0  0  0  0  0  0  0  0  0  0  0  0
  181.4590  178.5400  137.6870 C   0  0  0  0  0  2  0  0  0  0  0  0
  180.3250  179.0010  139.7890 C   0  0  0  0  0  3  0  0  0  0  0  0
  182.4950  178.8080  144.0930 N   0  0  0  0  0  0  0  0  0  0  0  0
  183.8390  178.4550  142.1180 C   0  0  0  0  0  3  0  0  0  0  0  0
  181.4010  179.0160  143.4230 C   0  0  0  0  0  0  0  0  0  0  0  0
  178.9580  179.5190  143.2160 C   0  0  0  0  0  3  0  0  0  0  0  0
  180.1250  179.3240  144.1510 C   0  0  0  0  0  3  0  0  0  0  0  0
  183.7590  178.5170  143.4590 C   0  0  0  0  0  0  0  0  0  0  0  0
  180.3060  179.1490  141.2520 C   0  0  0  0  0  0  0  0  0  0  0  0
  181.4280  178.9490  141.9560 C   0  0  2  0  0  3  0  0  0  0  0  0
  179.0690  179.4340  141.9210 N   0  0  0  0  0  0  0  0  0  0  0  0
  182.5240  177.9710  137.1120 C   0  0  0  0  0  0  0  0  0  0  0  0
  183.6760  177.5270  137.9310 C   0  0  0  0  0  3  0  0  0  0  0  0
  181.4690  178.7950  139.1340 C   0  0  0  0  0  0  0  0  0  0  0  0
  183.7900  177.8810  139.2170 C   0  0  0  0  0  3  0  0  0  0  0  0
  182.8050  178.8350  139.8480 C   0  0  0  0  0  0  0  0  0  0  0  0
  186.0760  178.3380  146.4620 C   0  0  0  0  0  3  0  0  0  0  0  0
  186.1560  177.8750  143.6980 C   0  0  0  0  0  3  0  0  0  0  0  0
  189.6000  177.2690  146.0360 C   0  0  0  0  0  0  0  0  0  0  0  0
  188.4070  177.7040  146.6360 C   0  0  0  0  0  3  0  0  0  0  0  0
  187.2610  177.9060  145.8630 C   0  0  0  0  0  0  0  0  0  0  0  0
  188.4870  177.2410  143.8720 C   0  0  0  0  0  3  0  0  0  0  0  0
  187.3020  177.6730  144.4710 C   0  0  0  0  0  0  0  0  0  0  0  0
  189.6300  177.0400  144.6520 C   0  0  0  0  0  3  0  0  0  0  0  0
  184.9620  178.3080  144.2940 C   0  0  0  0  0  0  0  0  0  0  0  0
  184.9340  178.5380  145.6820 C   0  0  0  0  0  3  0  0  0  0  0  0
  190.8080  177.0570  146.8520 C   0  0  0  0  0  0  0  0  0  0  0  0
  191.9250  176.3530  146.3180 N   0  0  0  0  0  1  0  0  0  0  0  0
  190.8650  177.4960  148.0310 O   0  0  0  0  0  0  0  0  0  0  0  0
  182.5140  177.7050  135.6440 C   0  0  0  0  0  2  0  0  0  0  0  0
  182.5480  176.2100  135.3650 C   0  0  1  0  0  3  0  0  0  0  0  0
  181.2980  175.8130  134.6100 C   0  0  0  0  0  1  0  0  0  0  0  0
  183.6700  175.8950  134.5970 O   0  0  0  0  0  1  0  0  0  0  0  0
  1 11  1  0  0  0  0
  1  5  1  0  0  0  0
  2 15  1  0  0  0  0
  3 10  1  0  0  0  0
  5  9  2  0  0  0  0
  6  4  2  0  0  0  0
  6  8  1  0  0  0  0
  7  8  2  0  0  0  0
  9  4  1  0  0  0  0
  9 26  1  0  0  0  0
 10 12  2  0  0  0  0
 11 10  1  1  0  0  0
 11  6  1  0  0  0  0
 12  7  1  0  0  0  0
 13  2  1  0  0  0  0
 13 14  2  0  0  0  0
 14 16  1  0  0  0  0
 15  3  2  0  0  0  0
 15 17  1  0  0  0  0
 16 17  2  0  0  0  0
 17  1  1  0  0  0  0
 19 26  2  0  0  0  0
 19 24  1  0  0  0  0
 20 21  1  0  0  0  0
 20 28  1  0  0  0  0
 22 18  1  0  0  0  0
 22 21  2  0  0  0  0
 23 24  2  0  0  0  0
 23 25  1  0  0  0  0
 24 22  1  0  0  0  0
 25 20  2  0  0  0  0
 26 27  1  0  0  0  0
 27 18  2  0  0  0  0
 28 30  2  0  0  0  0
 29 28  1  0  0  0  0
 31 13  1  0  0  0  0
 32 33  1  6  0  0  0
 32 31  1  0  0  0  0
 34 32  1  0  0  0  0
M  END
>  <MODEL>
4

>  <REMARK>
 VINA RESULT:      -9.7      4.522      7.747
  Name = 
  4 active torsions:
  status: ('A' for Active; 'I' for Inactive)
    1  A    between atoms: C_3  and  C_25
    2  A    between atoms: C_7  and  C_11
    3  A    between atoms: C_18  and  C_30
    4  A    between atoms: C_23  and  C_25
                            x       y       z     vdW  Elec       q    Type
                         _______ _______ _______ _____ _____    ______ ____

>  <TORSDO>
F 4

$$$$
=
 OpenBabel11052415563D

 34 39  0  0  1  0  0  0  0  0999 V2000
  186.0370  178.1170  141.6340 N   0  0  0  0  0  0  0  0  0  0  0  0
  182.3720  179.0550  141.1700 C   0  0  0  0  0  2  0  0  0  0  0  0
  184.2360  178.8900  139.6160 C   0  0  0  0  0  3  0  0  0  0  0  0
  188.7330  177.7670  140.9500 N   0  0  0  0  0  0  0  0  0  0  0  0
  187.0010  177.7380  142.6320 C   0  0  0  0  0  3  0  0  0  0  0  0
  187.9210  178.0870  139.9870 C   0  0  0  0  0  0  0  0  0  0  0  0
  187.3650  178.6380  137.6100 C   0  0  0  0  0  3  0  0  0  0  0  0
  188.4440  178.2510  138.5900 C   0  0  0  0  0  2  0  0  0  0  0  0
  188.2980  177.5820  142.3140 C   0  0  0  0  0  0  0  0  0  0  0  0
  185.6470  178.6200  139.3010 C   0  0  0  0  0  0  0  0  0  0  0  0
  186.4950  178.2800  140.2800 C   0  0  0  0  0  0  0  0  0  0  0  0
  186.1200  178.7960  137.9570 N   0  0  0  0  0  0  0  0  0  0  0  0
  182.0150  179.1990  142.4510 C   0  0  0  0  0  0  0  0  0  0  0  0
  183.0170  179.0560  143.5330 C   0  0  0  0  0  3  0  0  0  0  0  0
  183.7540  178.6790  140.8410 C   0  0  0  0  0  0  0  0  0  0  0  0
  184.2370  178.5630  143.2870 C   0  0  0  0  0  3  0  0  0  0  0  0
  184.5980  178.0320  141.9210 C   0  0  0  0  0  0  0  0  0  0  0  0
  191.3960  176.1710  143.9960 C   0  0  0  0  0  3  0  0  0  0  0  0
  189.0420  177.5250  144.6920 C   0  0  0  0  0  3  0  0  0  0  0  0
  191.8230  176.4670  147.6660 C   0  0  0  0  0  0  0  0  0  0  0  0
  192.0690  176.1440  146.3230 C   0  0  0  0  0  3  0  0  0  0  0  0
  191.1490  176.4930  145.3320 C   0  0  0  0  0  0  0  0  0  0  0  0
  189.7160  177.4990  147.0190 C   0  0  0  0  0  3  0  0  0  0  0  0
  189.9630  177.1760  145.6830 C   0  0  0  0  0  0  0  0  0  0  0  0
  190.6420  177.1450  148.0050 C   0  0  0  0  0  3  0  0  0  0  0  0
  189.2850  177.2040  143.3490 C   0  0  0  0  0  0  0  0  0  0  0  0
  190.4700  176.5240  143.0110 C   0  0  0  0  0  3  0  0  0  0  0  0
  192.7950  176.0980  148.7110 C   0  0  0  0  0  0  0  0  0  0  0  0
  193.4480  177.1050  149.4770 N   0  0  0  0  0  1  0  0  0  0  0  0
  193.0570  174.8870  148.9350 O   0  0  0  0  0  0  0  0  0  0  0  0
  180.6150  179.5880  142.7870 C   0  0  0  0  0  2  0  0  0  0  0  0
  180.0200  178.6380  143.8140 C   0  0  1  0  0  3  0  0  0  0  0  0
  178.9310  179.3510  144.5840 C   0  0  0  0  0  1  0  0  0  0  0  0
  179.4780  177.5230  143.1730 O   0  0  0  0  0  1  0  0  0  0  0  0
  1 17  1  0  0  0  0
  1  5  1  0  0  0  0
  2 13  1  0  0  0  0
  3 15  2  0  0  0  0
  4  9  1  0  0  0  0
  6 11  1  0  0  0  0
  6  4  2  0  0  0  0
  7 12  2  0  0  0  0
  7  8  1  0  0  0  0
  8  6  1  0  0  0  0
  9  5  2  0  0  0  0
  9 26  1  0  0  0  0
 10  3  1  0  0  0  0
 10 11  2  0  0  0  0
 11  1  1  0  0  0  0
 12 10  1  0  0  0  0
 13 31  1  0  0  0  0
 13 14  2  0  0  0  0
 15  2  1  0  0  0  0
 15 17  1  0  0  0  0
 16 14  1  0  0  0  0
 17 16  2  0  0  0  0
 18 22  1  0  0  0  0
 19 24  1  0  0  0  0
 20 25  1  0  0  0  0
 20 28  1  0  0  0  0
 21 20  2  0  0  0  0
 22 24  2  0  0  0  0
 22 21  1  0  0  0  0
 23 25  2  0  0  0  0
 24 23  1  0  0  0  0
 26 19  2  0  0  0  0
 27 26  1  0  0  0  0
 27 18  2  0  0  0  0
 28 30  2  0  0  0  0
 28 29  1  0  0  0  0
 31 32  1  0  0  0  0
 32 33  1  6  0  0  0
 34 32  1  0  0  0  0
M  END
>  <MODEL>
5

>  <REMARK>
 VINA RESULT:      -9.5      3.723      6.629
  Name = 
  4 active torsions:
  status: ('A' for Active; 'I' for Inactive)
    1  A    between atoms: C_3  and  C_25
    2  A    between atoms: C_7  and  C_11
    3  A    between atoms: C_18  and  C_30
    4  A    between atoms: C_23  and  C_25
                            x       y       z     vdW  Elec       q    Type
                         _______ _______ _______ _____ _____    ______ ____

>  <TORSDO>
F 4

$$$$
=
 OpenBabel11052415563D

 34 39  0  0  1  0  0  0  0  0999 V2000
  191.3460  176.4500  138.0130 N   0  0  0  0  0  0  0  0  0  0  0  0
  193.8470  175.3750  135.3450 C   0  0  0  0  0  2  0  0  0  0  0  0
  191.4890  175.9650  135.2450 C   0  0  0  0  0  3  0  0  0  0  0  0
  188.8570  177.1070  139.1220 N   0  0  0  0  0  0  0  0  0  0  0  0
  191.2160  176.6920  139.4240 C   0  0  0  0  0  3  0  0  0  0  0  0
  188.8960  176.9270  137.8360 C   0  0  0  0  0  0  0  0  0  0  0  0
  187.8740  176.8130  135.5540 C   0  0  0  0  0  3  0  0  0  0  0  0
  187.6440  177.0730  137.0210 C   0  0  0  0  0  2  0  0  0  0  0  0
  190.0220  176.9930  139.9660 C   0  0  0  0  0  0  0  0  0  0  0  0
  190.2260  176.3850  135.8700 C   0  0  0  0  0  0  0  0  0  0  0  0
  190.1710  176.5850  137.1930 C   0  0  0  0  0  0  0  0  0  0  0  0
  189.0430  176.5060  135.0660 N   0  0  0  0  0  0  0  0  0  0  0  0
  194.8470  174.9610  136.1320 C   0  0  0  0  0  0  0  0  0  0  0  0
  194.6950  174.9580  137.6050 C   0  0  0  0  0  3  0  0  0  0  0  0
  192.6180  175.9010  135.9540 C   0  0  0  0  0  0  0  0  0  0  0  0
  193.6620  175.5710  138.1970 C   0  0  0  0  0  3  0  0  0  0  0  0
  192.6760  176.3800  137.3900 C   0  0  0  0  0  0  0  0  0  0  0  0
  190.8840  177.7720  143.5810 C   0  0  0  0  0  3  0  0  0  0  0  0
  188.6370  177.1300  142.0330 C   0  0  0  0  0  3  0  0  0  0  0  0
  188.2290  177.7920  146.1670 C   0  0  0  0  0  0  0  0  0  0  0  0
  189.4900  177.8910  145.5580 C   0  0  0  0  0  3  0  0  0  0  0  0
  189.6290  177.6720  144.1850 C   0  0  0  0  0  0  0  0  0  0  0  0
  187.2420  177.2500  144.0100 C   0  0  0  0  0  3  0  0  0  0  0  0
  188.4970  177.3490  143.4060 C   0  0  0  0  0  0  0  0  0  0  0  0
  187.1100  177.4700  145.3850 C   0  0  0  0  0  3  0  0  0  0  0  0
  189.8950  177.2290  141.4200 C   0  0  0  0  0  0  0  0  0  0  0  0
  191.0160  177.5520  142.2070 C   0  0  0  0  0  3  0  0  0  0  0  0
  188.0830  178.0230  147.6160 C   0  0  0  0  0  0  0  0  0  0  0  0
  189.2280  178.0410  148.4620 N   0  0  0  0  0  1  0  0  0  0  0  0
  186.9430  178.2060  148.1180 O   0  0  0  0  0  0  0  0  0  0  0  0
  196.0930  174.4210  135.5160 C   0  0  0  0  0  2  0  0  0  0  0  0
  197.3250  175.0560  136.1400 C   0  0  1  0  0  3  0  0  0  0  0  0
  198.5670  174.4650  135.5100 C   0  0  0  0  0  1  0  0  0  0  0  0
  197.3110  176.4350  135.9250 O   0  0  0  0  0  1  0  0  0  0  0  0
  1  5  1  0  0  0  0
  2 15  1  0  0  0  0
  2 13  1  0  0  0  0
  3 10  1  0  0  0  0
  3 15  2  0  0  0  0
  4  9  1  0  0  0  0
  5  9  2  0  0  0  0
  6  4  2  0  0  0  0
  7  8  1  0  0  0  0
  8  6  1  0  0  0  0
  9 26  1  0  0  0  0
 10 11  2  0  0  0  0
 11  6  1  0  0  0  0
 11  1  1  0  0  0  0
 12  7  2  0  0  0  0
 12 10  1  0  0  0  0
 13 14  2  0  0  0  0
 14 16  1  0  0  0  0
 15 17  1  0  0  0  0
 17  1  1  0  0  0  0
 17 16  2  0  0  0  0
 18 22  1  0  0  0  0
 19 24  1  0  0  0  0
 20 28  1  0  0  0  0
 21 20  1  0  0  0  0
 22 21  2  0  0  0  0
 23 25  1  0  0  0  0
 24 23  2  0  0  0  0
 24 22  1  0  0  0  0
 25 20  2  0  0  0  0
 26 19  2  0  0  0  0
 26 27  1  0  0  0  0
 27 18  2  0  0  0  0
 28 30  2  0  0  0  0
 28 29  1  0  0  0  0
 31 13  1  0  0  0  0
 31 32  1  0  0  0  0
 32 33  1  6  0  0  0
 34 32  1  0  0  0  0
M  END
>  <MODEL>
6

>  <REMARK>
 VINA RESULT:      -9.5      3.519     11.020
  Name = 
  4 active torsions:
  status: ('A' for Active; 'I' for Inactive)
    1  A    between atoms: C_3  and  C_25
    2  A    between atoms: C_7  and  C_11
    3  A    between atoms: C_18  and  C_30
    4  A    between atoms: C_23  and  C_25
                            x       y       z     vdW  Elec       q    Type
                         _______ _______ _______ _____ _____    ______ ____

>  <TORSDO>
F 4

$$$$
=
 OpenBabel11052415563D

 34 39  0  0  1  0  0  0  0  0999 V2000
  185.6200  178.3470  141.1050 N   0  0  0  0  0  0  0  0  0  0  0  0
  185.2590  178.4820  137.3130 C   0  0  0  0  0  2  0  0  0  0  0  0
  183.6620  178.7580  139.1270 C   0  0  0  0  0  3  0  0  0  0  0  0
  184.8110  178.2960  143.7890 N   0  0  0  0  0  0  0  0  0  0  0  0
  186.5790  178.1240  142.1540 C   0  0  0  0  0  3  0  0  0  0  0  0
  183.8880  178.5270  142.9030 C   0  0  0  0  0  0  0  0  0  0  0  0
  181.5370  178.9850  142.1790 C   0  0  0  0  0  3  0  0  0  0  0  0
  182.4700  178.7490  143.3390 C   0  0  0  0  0  3  0  0  0  0  0  0
  186.1960  178.0840  143.4420 C   0  0  0  0  0  0  0  0  0  0  0  0
  183.3080  178.7950  140.5540 C   0  0  0  0  0  0  0  0  0  0  0  0
  184.2490  178.5700  141.4800 C   0  0  2  0  0  3  0  0  0  0  0  0
  181.9410  179.0000  140.9410 N   0  0  0  0  0  0  0  0  0  0  0  0
  186.4490  177.9830  136.9590 C   0  0  0  0  0  0  0  0  0  0  0  0
  187.4030  177.5080  137.9870 C   0  0  0  0  0  3  0  0  0  0  0  0
  184.9320  178.6290  138.7380 C   0  0  0  0  0  0  0  0  0  0  0  0
  187.2090  177.7670  139.2860 C   0  0  0  0  0  3  0  0  0  0  0  0
  186.0690  178.6470  139.7390 C   0  0  0  0  0  0  0  0  0  0  0  0
  187.7900  177.7720  146.8740 C   0  0  0  0  0  3  0  0  0  0  0  0
  188.4900  177.4480  144.1790 C   0  0  0  0  0  3  0  0  0  0  0  0
  191.3390  176.7520  147.1950 C   0  0  0  0  0  0  0  0  0  0  0  0
  190.0350  177.1470  147.5340 C   0  0  0  0  0  3  0  0  0  0  0  0
  189.0860  177.3790  146.5350 C   0  0  0  0  0  0  0  0  0  0  0  0
  190.7350  176.8220  144.8390 C   0  0  0  0  0  3  0  0  0  0  0  0
  189.4390  177.2160  145.1780 C   0  0  0  0  0  0  0  0  0  0  0  0
  191.6800  176.5920  145.8440 C   0  0  0  0  0  3  0  0  0  0  0  0
  187.1860  177.8430  144.5140 C   0  0  0  0  0  0  0  0  0  0  0  0
  186.8460  178.0030  145.8690 C   0  0  0  0  0  3  0  0  0  0  0  0
  192.3390  176.5070  148.2500 C   0  0  0  0  0  0  0  0  0  0  0  0
  193.0900  175.2970  148.2650 N   0  0  0  0  0  1  0  0  0  0  0  0
  192.5400  177.3670  149.1470 O   0  0  0  0  0  0  0  0  0  0  0  0
  186.7810  177.8270  135.5130 C   0  0  0  0  0  2  0  0  0  0  0  0
  186.4340  176.4290  135.0260 C   0  0  1  0  0  3  0  0  0  0  0  0
  187.6660  175.5540  135.0980 C   0  0  0  0  0  1  0  0  0  0  0  0
  185.4320  175.8800  135.8280 O   0  0  0  0  0  1  0  0  0  0  0  0
  1 11  1  0  0  0  0
  1  5  1  0  0  0  0
  2 15  1  0  0  0  0
  3 10  1  0  0  0  0
  5  9  2  0  0  0  0
  6  8  1  0  0  0  0
  6  4  2  0  0  0  0
  7  8  2  0  0  0  0
  9  4  1  0  0  0  0
  9 26  1  0  0  0  0
 10 12  2  0  0  0  0
 11 10  1  6  0  0  0
 11  6  1  0  0  0  0
 12  7  1  0  0  0  0
 13  2  1  0  0  0  0
 13 14  2  0  0  0  0
 14 16  1  0  0  0  0
 15  3  2  0  0  0  0
 15 17  1  0  0  0  0
 16 17  2  0  0  0  0
 17  1  1  0  0  0  0
 19 26  2  0  0  0  0
 19 24  1  0  0  0  0
 20 21  1  0  0  0  0
 20 28  1  0  0  0  0
 22 18  1  0  0  0  0
 22 21  2  0  0  0  0
 23 24  2  0  0  0  0
 23 25  1  0  0  0  0
 24 22  1  0  0  0  0
 25 20  2  0  0  0  0
 26 27  1  0  0  0  0
 27 18  2  0  0  0  0
 28 29  1  0  0  0  0
 28 30  2  0  0  0  0
 31 13  1  0  0  0  0
 32 33  1  1  0  0  0
 32 31  1  0  0  0  0
 32 34  1  0  0  0  0
M  END
>  <MODEL>
7

>  <REMARK>
 VINA RESULT:      -9.0      3.905      7.663
  Name = 
  4 active torsions:
  status: ('A' for Active; 'I' for Inactive)
    1  A    between atoms: C_3  and  C_25
    2  A    between atoms: C_7  and  C_11
    3  A    between atoms: C_18  and  C_30
    4  A    between atoms: C_23  and  C_25
                            x       y       z     vdW  Elec       q    Type
                         _______ _______ _______ _____ _____    ______ ____

>  <TORSDO>
F 4

$$$$
=
 OpenBabel11052415563D

 34 39  0  0  1  0  0  0  0  0999 V2000
  185.0360  178.4060  142.9120 N   0  0  0  0  0  0  0  0  0  0  0  0
  181.2740  179.0200  142.9010 C   0  0  0  0  0  3  0  0  0  0  0  0
  182.9210  178.9450  144.6890 C   0  0  0  0  0  3  0  0  0  0  0  0
  187.5870  177.9460  143.9800 N   0  0  0  0  0  0  0  0  0  0  0  0
  186.1470  178.1110  142.0490 C   0  0  0  0  0  3  0  0  0  0  0  0
  186.6410  178.2310  144.8250 C   0  0  0  0  0  0  0  0  0  0  0  0
  185.7250  178.6240  147.1210 C   0  0  0  0  0  3  0  0  0  0  0  0
  186.9430  178.2980  146.2930 C   0  0  0  0  0  3  0  0  0  0  0  0
  187.3700  177.8750  142.5550 C   0  0  0  0  0  0  0  0  0  0  0  0
  184.2940  178.7690  145.1860 C   0  0  0  0  0  0  0  0  0  0  0  0
  185.2820  178.4860  144.3280 C   0  0  2  0  0  3  0  0  0  0  0  0
  184.5510  178.8290  146.5970 N   0  0  0  0  0  0  0  0  0  0  0  0
  180.9920  178.6530  141.6450 C   0  0  0  0  0  0  0  0  0  0  0  0
  182.0520  178.1090  140.7640 C   0  0  0  0  0  3  0  0  0  0  0  0
  182.6610  178.9540  143.3800 C   0  0  0  0  0  0  0  0  0  0  0  0
  183.3440  178.1800  141.1080 C   0  0  0  0  0  3  0  0  0  0  0  0
  183.7750  178.9150  142.3540 C   0  0  2  0  0  3  0  0  0  0  0  0
  190.8510  176.9870  141.3230 C   0  0  0  0  0  3  0  0  0  0  0  0
  188.3100  177.5340  140.2710 C   0  0  0  0  0  3  0  0  0  0  0  0
  191.5110  176.6430  137.6920 C   0  0  0  0  0  0  0  0  0  0  0  0
  191.7110  176.6680  139.0810 C   0  0  0  0  0  3  0  0  0  0  0  0
  190.6500  176.9630  139.9410 C   0  0  0  0  0  0  0  0  0  0  0  0
  189.1700  177.2140  138.0300 C   0  0  0  0  0  3  0  0  0  0  0  0
  189.3710  177.2380  139.4110 C   0  0  0  0  0  0  0  0  0  0  0  0
  190.2360  176.9180  137.1750 C   0  0  0  0  0  3  0  0  0  0  0  0
  188.5050  177.5590  141.6600 C   0  0  0  0  0  0  0  0  0  0  0  0
  189.7850  177.2840  142.1770 C   0  0  0  0  0  3  0  0  0  0  0  0
  192.6310  176.3320  136.7860 C   0  0  0  0  0  0  0  0  0  0  0  0
  193.9570  176.7360  137.1120 N   0  0  0  0  0  1  0  0  0  0  0  0
  192.4250  175.7050  135.7130 O   0  0  0  0  0  0  0  0  0  0  0  0
  179.5840  178.7130  141.1590 C   0  0  0  0  0  2  0  0  0  0  0  0
  179.4480  179.7080  140.0180 C   0  0  1  0  0  3  0  0  0  0  0  0
  180.4180  180.8490  140.2310 C   0  0  0  0  0  1  0  0  0  0  0  0
  179.7310  179.0830  138.8030 O   0  0  0  0  0  1  0  0  0  0  0  0
  1 11  1  0  0  0  0
  2 15  1  0  0  0  0
  3 10  1  0  0  0  0
  4  6  2  0  0  0  0
  5  9  2  0  0  0  0
  5  1  1  0  0  0  0
  6  8  1  0  0  0  0
  8  7  2  0  0  0  0
  9  4  1  0  0  0  0
 10 12  2  0  0  0  0
 11  6  1  1  0  0  0
 11 10  1  0  0  0  0
 12  7  1  0  0  0  0
 13  2  2  0  0  0  0
 14 16  2  0  0  0  0
 14 13  1  0  0  0  0
 15  3  2  0  0  0  0
 17 16  1  6  0  0  0
 17  1  1  0  0  0  0
 17 15  1  0  0  0  0
 18 27  1  0  0  0  0
 19 26  1  0  0  0  0
 20 21  2  0  0  0  0
 21 22  1  0  0  0  0
 22 18  2  0  0  0  0
 23 24  1  0  0  0  0
 24 22  1  0  0  0  0
 24 19  2  0  0  0  0
 25 20  1  0  0  0  0
 25 23  2  0  0  0  0
 26 27  2  0  0  0  0
 26  9  1  0  0  0  0
 28 29  1  0  0  0  0
 28 20  1  0  0  0  0
 30 28  2  0  0  0  0
 31 13  1  0  0  0  0
 32 33  1  1  0  0  0
 32 31  1  0  0  0  0
 34 32  1  0  0  0  0
M  END
>  <MODEL>
8

>  <REMARK>
 VINA RESULT:      -9.0      1.329      2.119
  Name = 
  4 active torsions:
  status: ('A' for Active; 'I' for Inactive)
    1  A    between atoms: C_3  and  C_25
    2  A    between atoms: C_7  and  C_11
    3  A    between atoms: C_18  and  C_30
    4  A    between atoms: C_23  and  C_25
                            x       y       z     vdW  Elec       q    Type
                         _______ _______ _______ _____ _____    ______ ____

>  <TORSDO>
F 4

$$$$
=
 OpenBabel11052415563D

 34 39  0  0  1  0  0  0  0  0999 V2000
  182.6260  178.7120  140.8440 N   0  0  0  0  0  0  0  0  0  0  0  0
  180.5700  178.9550  137.6440 C   0  0  0  0  0  2  0  0  0  0  0  0
  179.9820  179.1630  139.9950 C   0  0  0  0  0  3  0  0  0  0  0  0
  183.1350  178.5760  143.5970 N   0  0  0  0  0  0  0  0  0  0  0  0
  183.9570  178.4680  141.3300 C   0  0  0  0  0  3  0  0  0  0  0  0
  181.9110  178.8240  143.2400 C   0  0  0  0  0  0  0  0  0  0  0  0
  179.4910  179.2810  143.6860 C   0  0  0  0  0  3  0  0  0  0  0  0
  180.8510  179.0200  144.2830 C   0  0  0  0  0  3  0  0  0  0  0  0
  184.2060  178.3870  142.6490 C   0  0  0  0  0  0  0  0  0  0  0  0
  180.3200  179.1550  141.4260 C   0  0  0  0  0  0  0  0  0  0  0  0
  181.5800  178.9120  141.8110 C   0  0  2  0  0  3  0  0  0  0  0  0
  179.2830  179.3360  142.4020 N   0  0  0  0  0  0  0  0  0  0  0  0
  181.4630  178.4770  136.7690 C   0  0  0  0  0  0  0  0  0  0  0  0
  182.7790  177.9810  137.2320 C   0  0  0  0  0  3  0  0  0  0  0  0
  180.9320  179.0570  139.0640 C   0  0  0  0  0  0  0  0  0  0  0  0
  183.2030  178.2000  138.4830 C   0  0  0  0  0  3  0  0  0  0  0  0
  182.4010  179.0570  139.4330 C   0  0  0  0  0  0  0  0  0  0  0  0
  187.9530  177.7710  142.7260 C   0  0  0  0  0  3  0  0  0  0  0  0
  185.8050  177.9710  144.5160 C   0  0  0  0  0  3  0  0  0  0  0  0
  189.6850  177.2200  145.9560 C   0  0  0  0  0  0  0  0  0  0  0  0
  189.4610  177.3720  144.5780 C   0  0  0  0  0  3  0  0  0  0  0  0
  188.1740  177.6210  144.0960 C   0  0  0  0  0  0  0  0  0  0  0  0
  187.3130  177.5710  146.3690 C   0  0  0  0  0  3  0  0  0  0  0  0
  187.0920  177.7220  144.9980 C   0  0  0  0  0  0  0  0  0  0  0  0
  188.6040  177.3220  146.8440 C   0  0  0  0  0  3  0  0  0  0  0  0
  185.5770  178.1230  143.1400 C   0  0  0  0  0  0  0  0  0  0  0  0
  186.6620  178.0210  142.2510 C   0  0  0  0  0  3  0  0  0  0  0  0
  191.0430  176.9570  146.4640 C   0  0  0  0  0  0  0  0  0  0  0  0
  191.3820  177.2670  147.8120 N   0  0  0  0  0  1  0  0  0  0  0  0
  191.9180  176.4540  145.7100 O   0  0  0  0  0  0  0  0  0  0  0  0
  181.0950  178.3670  135.3280 C   0  0  0  0  0  2  0  0  0  0  0  0
  180.6780  179.7180  134.7710 C   0  0  1  0  0  3  0  0  0  0  0  0
  179.1750  179.7470  134.6000 C   0  0  0  0  0  1  0  0  0  0  0  0
  181.0620  180.7340  135.6480 O   0  0  0  0  0  1  0  0  0  0  0  0
  1  5  1  0  0  0  0
  1 11  1  0  0  0  0
  2 15  1  0  0  0  0
  3 10  1  0  0  0  0
  5  9  2  0  0  0  0
  6  4  2  0  0  0  0
  6  8  1  0  0  0  0
  7  8  2  0  0  0  0
  9 26  1  0  0  0  0
  9  4  1  0  0  0  0
 10 12  2  0  0  0  0
 11 10  1  6  0  0  0
 11  6  1  0  0  0  0
 12  7  1  0  0  0  0
 13 14  2  0  0  0  0
 13  2  1  0  0  0  0
 14 16  1  0  0  0  0
 15 17  1  0  0  0  0
 15  3  2  0  0  0  0
 16 17  2  0  0  0  0
 17  1  1  0  0  0  0
 18 22  1  0  0  0  0
 19 24  1  0  0  0  0
 20 28  1  0  0  0  0
 20 25  1  0  0  0  0
 21 20  2  0  0  0  0
 22 21  1  0  0  0  0
 22 24  2  0  0  0  0
 23 25  2  0  0  0  0
 24 23  1  0  0  0  0
 26 19  2  0  0  0  0
 27 18  2  0  0  0  0
 27 26  1  0  0  0  0
 28 29  1  0  0  0  0
 30 28  2  0  0  0  0
 31 13  1  0  0  0  0
 32 33  1  1  0  0  0
 32 31  1  0  0  0  0
 32 34  1  0  0  0  0
M  END
>  <MODEL>
9

>  <REMARK>
 VINA RESULT:      -8.8      4.396      7.426
  Name = 
  4 active torsions:
  status: ('A' for Active; 'I' for Inactive)
    1  A    between atoms: C_3  and  C_25
    2  A    between atoms: C_7  and  C_11
    3  A    between atoms: C_18  and  C_30
    4  A    between atoms: C_23  and  C_25
                            x       y       z     vdW  Elec       q    Type
                         _______ _______ _______ _____ _____    ______ ____

>  <TORSDO>
F 4

$$$$
