=
 OpenBabel11052416543D

 32 36  0  0  1  0  0  0  0  0999 V2000
  180.3080  179.5070  142.2460 N   0  0  0  0  0  0  0  0  0  0  0  0
  185.0870  177.9680  143.0220 C   0  0  0  0  0  0  0  0  0  0  0  0
  185.9840  178.8200  147.7240 C   0  0  0  0  0  3  0  0  0  0  0  0
  187.2000  178.2330  147.5780 N   0  0  0  0  0  0  0  0  0  0  0  0
  182.9950  178.6310  142.0060 C   0  0  0  0  0  0  0  0  0  0  0  0
  183.3810  179.0860  144.3510 C   0  0  0  0  0  3  0  0  0  0  0  0
  181.2410  179.6900  143.2920 N   0  0  0  0  0  2  0  0  0  0  0  0
  185.1210  178.9250  146.6340 C   0  0  0  0  0  3  0  0  0  0  0  0
  184.6580  178.5020  144.2630 C   0  0  0  0  0  0  0  0  0  0  0  0
  185.5110  178.4220  145.3840 C   0  0  0  0  0  0  0  0  0  0  0  0
  187.2080  177.3150  144.0050 C   0  0  0  0  0  0  0  0  0  0  0  0
  180.9980  179.5880  140.9470 C   0  0  0  0  0  2  0  0  0  0  0  0
  182.5580  179.1380  143.2260 C   0  0  0  0  0  0  0  0  0  0  0  0
  182.1480  178.7340  140.9020 O   0  0  0  0  0  0  0  0  0  0  0  0
  187.6140  177.7380  146.3820 C   0  0  0  0  0  3  0  0  0  0  0  0
  186.7880  177.8210  145.2510 C   0  0  0  0  0  0  0  0  0  0  0  0
  184.2530  178.0350  141.9000 C   0  0  0  0  0  3  0  0  0  0  0  0
  186.3450  177.3820  142.9080 C   0  0  0  0  0  3  0  0  0  0  0  0
  179.7330  178.1740  142.3780 C   0  0  0  0  0  2  0  0  0  0  0  0
  178.9320  177.8290  141.1350 C   0  0  0  0  0  2  0  0  0  0  0  0
  178.9880  176.3970  140.9000 N   0  0  0  0  0  2  0  0  0  0  0  0
  180.8590  175.7050  139.5230 C   0  0  0  0  0  1  0  0  0  0  0  0
  179.4300  176.2130  139.5290 C   0  0  0  0  0  2  0  0  0  0  0  0
  188.5680  176.6720  143.8430 C   0  0  0  0  0  2  0  0  0  0  0  0
  190.2560  176.9110  142.0110 C   0  0  1  0  0  3  0  0  0  0  0  0
  190.5890  178.0360  144.1270 C   0  0  2  0  0  3  0  0  0  0  0  0
  191.7500  178.5610  143.3200 C   0  0  0  0  0  2  0  0  0  0  0  0
  192.0140  177.3860  141.9720 S   0  0  0  0  0  0  0  0  0  0  0  0
  191.1090  176.9960  145.1180 C   0  0  0  0  0  1  0  0  0  0  0  0
  189.5960  177.5070  143.1830 N   0  0  0  0  0  0  0  0  0  0  0  0
  189.6000  177.4120  140.7350 C   0  0  0  0  0  2  0  0  0  0  0  0
  188.8210  178.5370  141.0020 O   0  0  0  0  0  1  0  0  0  0  0  0
  1 19  1  0  0  0  0
  1  7  1  0  0  0  0
  2  9  1  0  0  0  0
  4  3  1  0  0  0  0
  5 13  1  0  0  0  0
  8  3  2  0  0  0  0
  9  6  1  0  0  0  0
  9 10  2  0  0  0  0
 10  8  1  0  0  0  0
 11 16  2  0  0  0  0
 12  1  1  0  0  0  0
 13  7  1  0  0  0  0
 13  6  2  0  0  0  0
 14 12  1  0  0  0  0
 14  5  1  0  0  0  0
 15  4  2  0  0  0  0
 16 10  1  0  0  0  0
 16 15  1  0  0  0  0
 17  5  2  0  0  0  0
 17  2  1  0  0  0  0
 18  2  2  0  0  0  0
 18 11  1  0  0  0  0
 20 19  1  0  0  0  0
 21 20  1  0  0  0  0
 22 23  1  0  0  0  0
 23 21  1  0  0  0  0
 24 11  1  0  0  0  0
 25 31  1  6  0  0  0
 25 30  1  0  0  0  0
 26 29  1  1  0  0  0
 27 26  1  0  0  0  0
 28 25  1  0  0  0  0
 28 27  1  0  0  0  0
 30 24  1  0  0  0  0
 30 26  1  0  0  0  0
 31 32  1  0  0  0  0
M  END
>  <MODEL>
1

>  <REMARK>
 VINA RESULT:      -8.2      0.000      0.000
  Name = 
  7 active torsions:
  status: ('A' for Active; 'I' for Inactive)
    1  A    between atoms: N_1  and  C_10
    2  A    between atoms: N_1  and  C_20
    3  A    between atoms: N_2  and  C_24
    4  A    between atoms: C_6  and  C_7
    5  A    between atoms: C_10  and  C_24
    6  A    between atoms: C_16  and  C_27
    7  A    between atoms: C_27  and  N_32
                            x       y       z     vdW  Elec       q    Type
                         _______ _______ _______ _____ _____    ______ ____

>  <TORSDO>
F 7

$$$$
=
 OpenBabel11052416543D

 32 36  0  0  1  0  0  0  0  0999 V2000
  187.0170  178.4330  137.3690 N   0  0  0  0  0  0  0  0  0  0  0  0
  187.3780  177.8430  142.4010 C   0  0  0  0  0  0  0  0  0  0  0  0
  183.1280  179.3710  144.2020 C   0  0  0  0  0  3  0  0  0  0  0  0
  183.5380  178.9900  145.4400 N   0  0  0  0  0  0  0  0  0  0  0  0
  187.8720  178.0140  140.0410 C   0  0  0  0  0  0  0  0  0  0  0  0
  185.7380  178.7940  140.8750 C   0  0  0  0  0  3  0  0  0  0  0  0
  186.2570  178.8930  138.4680 N   0  0  0  0  0  2  0  0  0  0  0  0
  183.9670  179.1990  143.1020 C   0  0  0  0  0  3  0  0  0  0  0  0
  186.1080  178.4330  142.1830 C   0  0  0  0  0  0  0  0  0  0  0  0
  185.2380  178.6310  143.2760 C   0  0  0  0  0  0  0  0  0  0  0  0
  186.9240  177.6830  144.7810 C   0  0  0  0  0  0  0  0  0  0  0  0
  188.4510  178.4820  137.7020 C   0  0  0  0  0  2  0  0  0  0  0  0
  186.6180  178.5740  139.8150 C   0  0  0  0  0  0  0  0  0  0  0  0
  188.7280  177.8410  138.9530 O   0  0  0  0  0  0  0  0  0  0  0  0
  184.7630  178.4400  145.6470 C   0  0  0  0  0  3  0  0  0  0  0  0
  185.6490  178.2490  144.5770 C   0  0  0  0  0  0  0  0  0  0  0  0
  188.2530  177.6360  141.3290 C   0  0  0  0  0  3  0  0  0  0  0  0
  187.7680  177.4740  143.6870 C   0  0  0  0  0  3  0  0  0  0  0  0
  186.6520  177.0440  137.1140 C   0  0  0  0  0  2  0  0  0  0  0  0
  185.1880  176.9570  136.7190 C   0  0  0  0  0  2  0  0  0  0  0  0
  184.4820  176.0940  137.6500 N   0  0  0  0  0  2  0  0  0  0  0  0
  182.8150  176.2700  139.3990 C   0  0  0  0  0  1  0  0  0  0  0  0
  183.2870  176.8070  138.0620 C   0  0  0  0  0  2  0  0  0  0  0  0
  187.3820  177.2710  146.1620 C   0  0  0  0  0  2  0  0  0  0  0  0
  189.8200  176.7880  146.4550 C   0  0  1  0  0  3  0  0  0  0  0  0
  188.7180  178.3950  147.8890 C   0  0  2  0  0  3  0  0  0  0  0  0
  190.1520  178.5310  148.3320 C   0  0  0  0  0  2  0  0  0  0  0  0
  190.9910  177.0090  147.8320 S   0  0  0  0  0  0  0  0  0  0  0  0
  187.9480  177.6070  148.9480 C   0  0  0  0  0  1  0  0  0  0  0  0
  188.7200  177.7590  146.5650 N   0  0  0  0  0  0  0  0  0  0  0  0
  190.5720  177.0020  145.1520 C   0  0  0  0  0  2  0  0  0  0  0  0
  191.8740  177.4280  145.4090 O   0  0  0  0  0  1  0  0  0  0  0  0
  1 12  1  0  0  0  0
  1  7  1  0  0  0  0
  2 18  1  0  0  0  0
  3  4  1  0  0  0  0
  4 15  2  0  0  0  0
  5 17  1  0  0  0  0
  6  9  2  0  0  0  0
  7 13  1  0  0  0  0
  8 10  1  0  0  0  0
  8  3  2  0  0  0  0
  9  2  1  0  0  0  0
  9 10  1  0  0  0  0
 10 16  2  0  0  0  0
 11 24  1  0  0  0  0
 12 14  1  0  0  0  0
 13  5  2  0  0  0  0
 13  6  1  0  0  0  0
 14  5  1  0  0  0  0
 16 11  1  0  0  0  0
 16 15  1  0  0  0  0
 17  2  2  0  0  0  0
 18 11  2  0  0  0  0
 19  1  1  0  0  0  0
 20 19  1  0  0  0  0
 20 21  1  0  0  0  0
 21 23  1  0  0  0  0
 23 22  1  0  0  0  0
 24 30  1  0  0  0  0
 25 31  1  6  0  0  0
 25 30  1  0  0  0  0
 25 28  1  0  0  0  0
 26 27  1  0  0  0  0
 26 29  1  1  0  0  0
 28 27  1  0  0  0  0
 30 26  1  0  0  0  0
 31 32  1  0  0  0  0
M  END
>  <MODEL>
2

>  <REMARK>
 VINA RESULT:      -7.5      3.213      5.013
  Name = 
  7 active torsions:
  status: ('A' for Active; 'I' for Inactive)
    1  A    between atoms: N_1  and  C_10
    2  A    between atoms: N_1  and  C_20
    3  A    between atoms: N_2  and  C_24
    4  A    between atoms: C_6  and  C_7
    5  A    between atoms: C_10  and  C_24
    6  A    between atoms: C_16  and  C_27
    7  A    between atoms: C_27  and  N_32
                            x       y       z     vdW  Elec       q    Type
                         _______ _______ _______ _____ _____    ______ ____

>  <TORSDO>
F 7

$$$$
=
 OpenBabel11052416543D

 32 36  0  0  1  0  0  0  0  0999 V2000
  191.4840  177.9140  144.5120 N   0  0  0  0  0  0  0  0  0  0  0  0
  189.5360  177.2260  139.8720 C   0  0  0  0  0  0  0  0  0  0  0  0
  193.3140  176.1100  137.0240 C   0  0  0  0  0  3  0  0  0  0  0  0
  192.4530  175.9130  135.9920 N   0  0  0  0  0  0  0  0  0  0  0  0
  189.8500  177.8140  142.1960 C   0  0  0  0  0  0  0  0  0  0  0  0
  191.7720  177.2690  140.8310 C   0  0  0  0  0  3  0  0  0  0  0  0
  192.0420  177.8130  143.2180 N   0  0  0  0  0  2  0  0  0  0  0  0
  192.8330  176.4970  138.2740 C   0  0  0  0  0  3  0  0  0  0  0  0
  190.9350  177.0630  139.7190 C   0  0  0  0  0  0  0  0  0  0  0  0
  191.4560  176.6830  138.4650 C   0  0  0  0  0  0  0  0  0  0  0  0
  189.1890  176.6690  137.5340 C   0  0  0  0  0  0  0  0  0  0  0  0
  190.2360  178.6950  144.4540 C   0  0  0  0  0  2  0  0  0  0  0  0
  191.2230  177.6340  142.0600 C   0  0  0  0  0  0  0  0  0  0  0  0
  189.3510  178.2070  143.4380 O   0  0  0  0  0  0  0  0  0  0  0  0
  191.1130  176.0880  136.1370 C   0  0  0  0  0  3  0  0  0  0  0  0
  190.5760  176.4810  137.3720 C   0  0  0  0  0  0  0  0  0  0  0  0
  189.0000  177.6000  141.1090 C   0  0  0  0  0  3  0  0  0  0  0  0
  188.6840  177.0260  138.7880 C   0  0  0  0  0  3  0  0  0  0  0  0
  191.1620  176.5690  144.9750 C   0  0  0  0  0  2  0  0  0  0  0  0
  191.9260  176.2640  146.2510 C   0  0  0  0  0  2  0  0  0  0  0  0
  191.3690  177.0340  147.3490 N   0  0  0  0  0  2  0  0  0  0  0  0
  189.2140  177.8520  148.0960 C   0  0  0  0  0  1  0  0  0  0  0  0
  189.9520  176.7220  147.4070 C   0  0  0  0  0  2  0  0  0  0  0  0
  188.2340  176.4610  136.3800 C   0  0  0  0  0  2  0  0  0  0  0  0
  187.6750  174.2980  135.2510 C   0  0  1  0  0  3  0  0  0  0  0  0
  186.0390  175.3960  136.6560 C   0  0  2  0  0  3  0  0  0  0  0  0
  185.3290  174.1110  136.3130 C   0  0  0  0  0  2  0  0  0  0  0  0
  186.1110  173.4730  134.8130 S   0  0  0  0  0  0  0  0  0  0  0  0
  185.4240  176.5300  135.8380 C   0  0  0  0  0  1  0  0  0  0  0  0
  187.4710  175.1920  136.4010 N   0  0  0  0  0  0  0  0  0  0  0  0
  188.6950  173.2280  135.6000 C   0  0  0  0  0  2  0  0  0  0  0  0
  188.7250  173.0180  136.9780 O   0  0  0  0  0  1  0  0  0  0  0  0
  1 19  1  0  0  0  0
  2 17  1  0  0  0  0
  3  8  1  0  0  0  0
  4 15  1  0  0  0  0
  4  3  2  0  0  0  0
  5 14  1  0  0  0  0
  6 13  2  0  0  0  0
  7  1  1  0  0  0  0
  8 10  2  0  0  0  0
  9  2  2  0  0  0  0
  9  6  1  0  0  0  0
 10  9  1  0  0  0  0
 11 18  2  0  0  0  0
 12  1  1  0  0  0  0
 13  5  1  0  0  0  0
 13  7  1  0  0  0  0
 14 12  1  0  0  0  0
 15 16  2  0  0  0  0
 16 11  1  0  0  0  0
 16 10  1  0  0  0  0
 17  5  2  0  0  0  0
 18  2  1  0  0  0  0
 19 20  1  0  0  0  0
 20 21  1  0  0  0  0
 21 23  1  0  0  0  0
 23 22  1  0  0  0  0
 24 30  1  0  0  0  0
 24 11  1  0  0  0  0
 25 31  1  1  0  0  0
 25 30  1  0  0  0  0
 26 29  1  6  0  0  0
 27 26  1  0  0  0  0
 28 25  1  0  0  0  0
 28 27  1  0  0  0  0
 30 26  1  0  0  0  0
 31 32  1  0  0  0  0
M  END
>  <MODEL>
3

>  <REMARK>
 VINA RESULT:      -7.0      5.831      9.841
  Name = 
  7 active torsions:
  status: ('A' for Active; 'I' for Inactive)
    1  A    between atoms: N_1  and  C_10
    2  A    between atoms: N_1  and  C_20
    3  A    between atoms: N_2  and  C_24
    4  A    between atoms: C_6  and  C_7
    5  A    between atoms: C_10  and  C_24
    6  A    between atoms: C_16  and  C_27
    7  A    between atoms: C_27  and  N_32
                            x       y       z     vdW  Elec       q    Type
                         _______ _______ _______ _____ _____    ______ ____

>  <TORSDO>
F 7

$$$$
=
 OpenBabel11052416543D

 32 36  0  0  1  0  0  0  0  0999 V2000
  180.6830  178.9960  139.5110 N   0  0  0  0  0  0  0  0  0  0  0  0
  185.5390  178.6890  140.9700 C   0  0  0  0  0  0  0  0  0  0  0  0
  188.0830  177.9680  136.8900 C   0  0  0  0  0  3  0  0  0  0  0  0
  189.2290  178.0410  137.6150 N   0  0  0  0  0  0  0  0  0  0  0  0
  183.1230  178.7740  140.9410 C   0  0  0  0  0  0  0  0  0  0  0  0
  184.3310  178.4110  138.8750 C   0  0  0  0  0  3  0  0  0  0  0  0
  181.8720  178.5670  138.8800 N   0  0  0  0  0  2  0  0  0  0  0  0
  186.8460  178.1020  137.5190 C   0  0  0  0  0  3  0  0  0  0  0  0
  185.5530  178.4630  139.5710 C   0  0  0  0  0  0  0  0  0  0  0  0
  186.7870  178.3130  138.9050 C   0  0  0  0  0  0  0  0  0  0  0  0
  187.9640  178.5790  141.0380 C   0  0  0  0  0  0  0  0  0  0  0  0
  180.6790  178.5520  140.9160 C   0  0  0  0  0  2  0  0  0  0  0  0
  183.1290  178.5760  139.5630 C   0  0  0  0  0  0  0  0  0  0  0  0
  181.8950  178.9040  141.5880 O   0  0  0  0  0  0  0  0  0  0  0  0
  189.2120  178.2390  138.9600 C   0  0  0  0  0  3  0  0  0  0  0  0
  187.9940  178.3760  139.6440 C   0  0  0  0  0  0  0  0  0  0  0  0
  184.3240  178.8430  141.6480 C   0  0  0  0  0  3  0  0  0  0  0  0
  186.7350  178.7470  141.6830 C   0  0  0  0  0  3  0  0  0  0  0  0
  180.6590  180.4540  139.4920 C   0  0  0  0  0  2  0  0  0  0  0  0
  180.7700  180.9550  138.0620 C   0  0  0  0  0  2  0  0  0  0  0  0
  181.5430  182.1840  138.0340 N   0  0  0  0  0  2  0  0  0  0  0  0
  181.5000  184.4800  137.2590 C   0  0  0  0  0  1  0  0  0  0  0  0
  180.7590  183.1580  137.2960 C   0  0  0  0  0  2  0  0  0  0  0  0
  189.2410  178.6470  141.8450 C   0  0  0  0  0  2  0  0  0  0  0  0
  189.7110  177.8540  144.1710 C   0  0  1  0  0  3  0  0  0  0  0  0
  190.5270  176.5990  142.2700 C   0  0  2  0  0  3  0  0  0  0  0  0
  190.9220  175.7020  143.4150 C   0  0  0  0  0  2  0  0  0  0  0  0
  190.9590  176.7410  144.8940 S   0  0  0  0  0  0  0  0  0  0  0  0
  191.7730  177.3160  141.7530 C   0  0  0  0  0  1  0  0  0  0  0  0
  189.4830  177.5090  142.7590 N   0  0  0  0  0  0  0  0  0  0  0  0
  188.4210  177.6980  144.9580 C   0  0  0  0  0  2  0  0  0  0  0  0
  187.6100  176.7280  144.3720 O   0  0  0  0  0  1  0  0  0  0  0  0
  1 12  1  0  0  0  0
  2 17  2  0  0  0  0
  2 18  1  0  0  0  0
  3  8  2  0  0  0  0
  3  4  1  0  0  0  0
  4 15  2  0  0  0  0
  5 14  1  0  0  0  0
  5 17  1  0  0  0  0
  6 13  1  0  0  0  0
  6  9  2  0  0  0  0
  7  1  1  0  0  0  0
  7 13  1  0  0  0  0
  8 10  1  0  0  0  0
  9  2  1  0  0  0  0
 10  9  1  0  0  0  0
 10 16  2  0  0  0  0
 11 18  2  0  0  0  0
 11 24  1  0  0  0  0
 12 14  1  0  0  0  0
 13  5  2  0  0  0  0
 15 16  1  0  0  0  0
 16 11  1  0  0  0  0
 19  1  1  0  0  0  0
 20 19  1  0  0  0  0
 21 20  1  0  0  0  0
 22 23  1  0  0  0  0
 23 21  1  0  0  0  0
 24 30  1  0  0  0  0
 25 28  1  0  0  0  0
 25 31  1  1  0  0  0
 26 29  1  1  0  0  0
 26 30  1  0  0  0  0
 26 27  1  0  0  0  0
 27 28  1  0  0  0  0
 30 25  1  0  0  0  0
 32 31  1  0  0  0  0
M  END
>  <MODEL>
4

>  <REMARK>
 VINA RESULT:      -6.9      3.010      5.233
  Name = 
  7 active torsions:
  status: ('A' for Active; 'I' for Inactive)
    1  A    between atoms: N_1  and  C_10
    2  A    between atoms: N_1  and  C_20
    3  A    between atoms: N_2  and  C_24
    4  A    between atoms: C_6  and  C_7
    5  A    between atoms: C_10  and  C_24
    6  A    between atoms: C_16  and  C_27
    7  A    between atoms: C_27  and  N_32
                            x       y       z     vdW  Elec       q    Type
                         _______ _______ _______ _____ _____    ______ ____

>  <TORSDO>
F 7

$$$$
=
 OpenBabel11052416543D

 32 36  0  0  1  0  0  0  0  0999 V2000
  179.9550  179.0110  142.6670 N   0  0  0  0  0  0  0  0  0  0  0  0
  185.0190  178.6390  142.5410 C   0  0  0  0  0  0  0  0  0  0  0  0
  186.1800  178.2240  137.8380 C   0  0  0  0  0  3  0  0  0  0  0  0
  187.4940  178.2550  138.1800 N   0  0  0  0  0  0  0  0  0  0  0  0
  182.7120  178.7080  143.2600 C   0  0  0  0  0  0  0  0  0  0  0  0
  183.2240  178.4990  140.9040 C   0  0  0  0  0  3  0  0  0  0  0  0
  180.8870  178.6350  141.6740 N   0  0  0  0  0  2  0  0  0  0  0  0
  185.1970  178.3040  138.8240 C   0  0  0  0  0  3  0  0  0  0  0  0
  184.6000  178.5120  141.1930 C   0  0  0  0  0  0  0  0  0  0  0  0
  185.5680  178.4170  140.1720 C   0  0  0  0  0  0  0  0  0  0  0  0
  187.3460  178.5430  141.8540 C   0  0  0  0  0  0  0  0  0  0  0  0
  180.3750  178.4690  143.9710 C   0  0  0  0  0  2  0  0  0  0  0  0
  182.2920  178.6060  141.9370 C   0  0  0  0  0  0  0  0  0  0  0  0
  181.7430  178.7830  144.2610 O   0  0  0  0  0  0  0  0  0  0  0  0
  187.8920  178.3590  139.4750 C   0  0  0  0  0  3  0  0  0  0  0  0
  186.9450  178.4380  140.5070 C   0  0  0  0  0  0  0  0  0  0  0  0
  184.0730  178.7370  143.5670 C   0  0  0  0  0  3  0  0  0  0  0  0
  186.3760  178.6570  142.8550 C   0  0  0  0  0  3  0  0  0  0  0  0
  179.9470  180.4660  142.7560 C   0  0  0  0  0  2  0  0  0  0  0  0
  178.9840  181.0420  141.7330 C   0  0  0  0  0  2  0  0  0  0  0  0
  179.2620  180.4710  140.4260 N   0  0  0  0  0  2  0  0  0  0  0  0
  180.8600  180.9760  138.6760 C   0  0  0  0  0  1  0  0  0  0  0  0
  179.8050  181.5400  139.6070 C   0  0  0  0  0  2  0  0  0  0  0  0
  188.8100  178.5650  142.2330 C   0  0  0  0  0  2  0  0  0  0  0  0
  189.8790  177.8840  144.3910 C   0  0  1  0  0  3  0  0  0  0  0  0
  190.0960  176.4820  142.4300 C   0  0  2  0  0  3  0  0  0  0  0  0
  190.7630  175.6340  143.4820 C   0  0  0  0  0  2  0  0  0  0  0  0
  191.2410  176.7520  144.8200 S   0  0  0  0  0  0  0  0  0  0  0  0
  191.1730  177.1040  141.5430 C   0  0  0  0  0  1  0  0  0  0  0  0
  189.2580  177.4700  143.1230 N   0  0  0  0  0  0  0  0  0  0  0  0
  188.8520  177.8390  145.5100 C   0  0  0  0  0  2  0  0  0  0  0  0
  189.2820  176.9880  146.5270 O   0  0  0  0  0  1  0  0  0  0  0  0
  1 19  1  0  0  0  0
  1 12  1  0  0  0  0
  2 18  1  0  0  0  0
  2 17  1  0  0  0  0
  3  4  2  0  0  0  0
  3  8  1  0  0  0  0
  4 15  1  0  0  0  0
  5 17  2  0  0  0  0
  5 14  1  0  0  0  0
  6  9  1  0  0  0  0
  6 13  2  0  0  0  0
  7 13  1  0  0  0  0
  7  1  1  0  0  0  0
  8 10  2  0  0  0  0
  9  2  2  0  0  0  0
 10 16  1  0  0  0  0
 10  9  1  0  0  0  0
 11 24  1  0  0  0  0
 11 18  2  0  0  0  0
 12 14  1  0  0  0  0
 13  5  1  0  0  0  0
 15 16  2  0  0  0  0
 16 11  1  0  0  0  0
 20 19  1  0  0  0  0
 21 20  1  0  0  0  0
 22 23  1  0  0  0  0
 23 21  1  0  0  0  0
 24 30  1  0  0  0  0
 25 28  1  0  0  0  0
 25 31  1  1  0  0  0
 26 29  1  1  0  0  0
 26 30  1  0  0  0  0
 26 27  1  0  0  0  0
 27 28  1  0  0  0  0
 30 25  1  0  0  0  0
 31 32  1  0  0  0  0
M  END
>  <MODEL>
5

>  <REMARK>
 VINA RESULT:      -6.8      2.532      4.354
  Name = 
  7 active torsions:
  status: ('A' for Active; 'I' for Inactive)
    1  A    between atoms: N_1  and  C_10
    2  A    between atoms: N_1  and  C_20
    3  A    between atoms: N_2  and  C_24
    4  A    between atoms: C_6  and  C_7
    5  A    between atoms: C_10  and  C_24
    6  A    between atoms: C_16  and  C_27
    7  A    between atoms: C_27  and  N_32
                            x       y       z     vdW  Elec       q    Type
                         _______ _______ _______ _____ _____    ______ ____

>  <TORSDO>
F 7

$$$$
=
 OpenBabel11052416543D

 32 36  0  0  1  0  0  0  0  0999 V2000
  190.5730  176.4160  143.8810 N   0  0  0  0  0  0  0  0  0  0  0  0
  186.6230  178.2050  141.2360 C   0  0  0  0  0  0  0  0  0  0  0  0
  183.0020  178.6630  144.4480 C   0  0  0  0  0  3  0  0  0  0  0  0
  182.2330  179.2150  143.4730 N   0  0  0  0  0  0  0  0  0  0  0  0
  188.7500  177.2500  141.8740 C   0  0  0  0  0  0  0  0  0  0  0  0
  186.9870  177.4490  143.5200 C   0  0  0  0  0  3  0  0  0  0  0  0
  189.1900  176.5390  144.1450 N   0  0  0  0  0  2  0  0  0  0  0  0
  184.3040  178.2520  144.1650 C   0  0  0  0  0  3  0  0  0  0  0  0
  186.1360  178.0150  142.5530 C   0  0  0  0  0  0  0  0  0  0  0  0
  184.8200  178.4100  142.8700 C   0  0  0  0  0  0  0  0  0  0  0  0
  184.4880  179.1410  140.5550 C   0  0  0  0  0  0  0  0  0  0  0  0
  190.7760  176.0040  142.4810 C   0  0  0  0  0  2  0  0  0  0  0  0
  188.2880  177.0800  143.1760 C   0  0  0  0  0  0  0  0  0  0  0  0
  190.0480  176.8380  141.5710 O   0  0  0  0  0  0  0  0  0  0  0  0
  182.6970  179.3790  142.2060 C   0  0  0  0  0  3  0  0  0  0  0  0
  183.9980  178.9790  141.8660 C   0  0  0  0  0  0  0  0  0  0  0  0
  187.9270  177.8220  140.9030 C   0  0  0  0  0  3  0  0  0  0  0  0
  185.8020  178.7640  140.2590 C   0  0  0  0  0  3  0  0  0  0  0  0
  191.1890  177.7240  144.0690 C   0  0  0  0  0  2  0  0  0  0  0  0
  191.4230  177.9790  145.5470 C   0  0  0  0  0  2  0  0  0  0  0  0
  191.8610  176.7520  146.1910 N   0  0  0  0  0  2  0  0  0  0  0  0
  189.8360  177.1280  147.4660 C   0  0  0  0  0  1  0  0  0  0  0  0
  191.3040  176.7580  147.5320 C   0  0  0  0  0  2  0  0  0  0  0  0
  183.6260  179.7450  139.4690 C   0  0  0  0  0  2  0  0  0  0  0  0
  183.0120  178.0690  137.7140 C   0  0  1  0  0  3  0  0  0  0  0  0
  181.3230  179.5290  138.6470 C   0  0  2  0  0  3  0  0  0  0  0  0
  180.4930  178.6360  137.7600 C   0  0  0  0  0  2  0  0  0  0  0  0
  181.6240  177.9230  136.5430 S   0  0  0  0  0  0  0  0  0  0  0  0
  181.4740  180.8910  137.9700 C   0  0  0  0  0  1  0  0  0  0  0  0
  182.6000  178.8470  138.8920 N   0  0  0  0  0  0  0  0  0  0  0  0
  183.4290  176.6700  138.1340 C   0  0  0  0  0  2  0  0  0  0  0  0
  182.7680  176.3000  139.3050 O   0  0  0  0  0  1  0  0  0  0  0  0
  1 19  1  0  0  0  0
  1  7  1  0  0  0  0
  2  9  1  0  0  0  0
  4  3  2  0  0  0  0
  5 13  2  0  0  0  0
  8  3  1  0  0  0  0
  9 10  1  0  0  0  0
  9  6  2  0  0  0  0
 10  8  2  0  0  0  0
 11 16  1  0  0  0  0
 12  1  1  0  0  0  0
 13  6  1  0  0  0  0
 13  7  1  0  0  0  0
 14  5  1  0  0  0  0
 14 12  1  0  0  0  0
 15  4  1  0  0  0  0
 16 15  2  0  0  0  0
 16 10  1  0  0  0  0
 17  2  2  0  0  0  0
 17  5  1  0  0  0  0
 18 11  2  0  0  0  0
 18  2  1  0  0  0  0
 19 20  1  0  0  0  0
 20 21  1  0  0  0  0
 21 23  1  0  0  0  0
 22 23  1  0  0  0  0
 24 11  1  0  0  0  0
 25 31  1  1  0  0  0
 25 30  1  0  0  0  0
 26 29  1  6  0  0  0
 26 30  1  0  0  0  0
 27 26  1  0  0  0  0
 28 25  1  0  0  0  0
 28 27  1  0  0  0  0
 30 24  1  0  0  0  0
 31 32  1  0  0  0  0
M  END
>  <MODEL>
6

>  <REMARK>
 VINA RESULT:      -6.6      3.051      8.601
  Name = 
  7 active torsions:
  status: ('A' for Active; 'I' for Inactive)
    1  A    between atoms: N_1  and  C_10
    2  A    between atoms: N_1  and  C_20
    3  A    between atoms: N_2  and  C_24
    4  A    between atoms: C_6  and  C_7
    5  A    between atoms: C_10  and  C_24
    6  A    between atoms: C_16  and  C_27
    7  A    between atoms: C_27  and  N_32
                            x       y       z     vdW  Elec       q    Type
                         _______ _______ _______ _____ _____    ______ ____

>  <TORSDO>
F 7

$$$$
=
 OpenBabel11052416543D

 32 36  0  0  1  0  0  0  0  0999 V2000
  190.7010  176.3060  147.4750 N   0  0  0  0  0  0  0  0  0  0  0  0
  189.7130  177.4970  142.6370 C   0  0  0  0  0  0  0  0  0  0  0  0
  184.9190  178.2790  142.4390 C   0  0  0  0  0  3  0  0  0  0  0  0
  185.0510  178.6420  141.1370 N   0  0  0  0  0  0  0  0  0  0  0  0
  190.7770  176.7450  144.6740 C   0  0  0  0  0  0  0  0  0  0  0  0
  188.3850  177.1150  144.6400 C   0  0  0  0  0  3  0  0  0  0  0  0
  189.5170  176.4070  146.7110 N   0  0  0  0  0  2  0  0  0  0  0  0
  186.0360  177.8870  143.1750 C   0  0  0  0  0  3  0  0  0  0  0  0
  188.4530  177.4880  143.2850 C   0  0  0  0  0  0  0  0  0  0  0  0
  187.3010  177.8690  142.5670 C   0  0  0  0  0  0  0  0  0  0  0  0
  188.6720  178.2250  140.5670 C   0  0  0  0  0  0  0  0  0  0  0  0
  191.7660  175.6960  146.6600 C   0  0  0  0  0  2  0  0  0  0  0  0
  189.5460  176.7550  145.3240 C   0  0  0  0  0  0  0  0  0  0  0  0
  191.9050  176.3490  145.3920 O   0  0  0  0  0  0  0  0  0  0  0  0
  186.2590  178.6320  140.5130 C   0  0  0  0  0  3  0  0  0  0  0  0
  187.4150  178.2420  141.2050 C   0  0  0  0  0  0  0  0  0  0  0  0
  190.8680  177.1260  143.3340 C   0  0  0  0  0  3  0  0  0  0  0  0
  189.8090  177.8650  141.2970 C   0  0  0  0  0  3  0  0  0  0  0  0
  191.1210  177.6530  147.8430 C   0  0  0  0  0  2  0  0  0  0  0  0
  190.1430  178.2450  148.8430 C   0  0  0  0  0  2  0  0  0  0  0  0
  189.0490  178.8870  148.1350 N   0  0  0  0  0  2  0  0  0  0  0  0
  186.7310  178.4610  147.5730 C   0  0  0  0  0  1  0  0  0  0  0  0
  187.8220  178.2720  148.6080 C   0  0  0  0  0  2  0  0  0  0  0  0
  188.8150  178.6180  139.1140 C   0  0  0  0  0  2  0  0  0  0  0  0
  190.1270  177.4880  137.3070 C   0  0  1  0  0  3  0  0  0  0  0  0
  187.7130  177.3220  137.3430 C   0  0  2  0  0  3  0  0  0  0  0  0
  188.0600  176.4070  136.1970 C   0  0  0  0  0  2  0  0  0  0  0  0
  189.7120  176.8860  135.6380 S   0  0  0  0  0  0  0  0  0  0  0  0
  187.1580  178.6290  136.7800 C   0  0  0  0  0  1  0  0  0  0  0  0
  188.9250  177.4950  138.1550 N   0  0  0  0  0  0  0  0  0  0  0  0
  191.1750  176.5620  137.9000 C   0  0  0  0  0  2  0  0  0  0  0  0
  190.5620  175.4930  138.5540 O   0  0  0  0  0  1  0  0  0  0  0  0
  1 19  1  0  0  0  0
  2  9  2  0  0  0  0
  2 17  1  0  0  0  0
  3  8  1  0  0  0  0
  4  3  2  0  0  0  0
  5 13  1  0  0  0  0
  5 14  1  0  0  0  0
  6 13  2  0  0  0  0
  7  1  1  0  0  0  0
  9  6  1  0  0  0  0
 10  8  2  0  0  0  0
 10  9  1  0  0  0  0
 11 16  1  0  0  0  0
 11 18  2  0  0  0  0
 12  1  1  0  0  0  0
 13  7  1  0  0  0  0
 14 12  1  0  0  0  0
 15  4  1  0  0  0  0
 15 16  2  0  0  0  0
 16 10  1  0  0  0  0
 17  5  2  0  0  0  0
 18  2  1  0  0  0  0
 19 20  1  0  0  0  0
 21 23  1  0  0  0  0
 21 20  1  0  0  0  0
 22 23  1  0  0  0  0
 24 11  1  0  0  0  0
 25 31  1  1  0  0  0
 25 30  1  0  0  0  0
 26 29  1  6  0  0  0
 26 30  1  0  0  0  0
 27 26  1  0  0  0  0
 28 27  1  0  0  0  0
 28 25  1  0  0  0  0
 30 24  1  0  0  0  0
 31 32  1  0  0  0  0
M  END
>  <MODEL>
7

>  <REMARK>
 VINA RESULT:      -6.6      3.797      8.062
  Name = 
  7 active torsions:
  status: ('A' for Active; 'I' for Inactive)
    1  A    between atoms: N_1  and  C_10
    2  A    between atoms: N_1  and  C_20
    3  A    between atoms: N_2  and  C_24
    4  A    between atoms: C_6  and  C_7
    5  A    between atoms: C_10  and  C_24
    6  A    between atoms: C_16  and  C_27
    7  A    between atoms: C_27  and  N_32
                            x       y       z     vdW  Elec       q    Type
                         _______ _______ _______ _____ _____    ______ ____

>  <TORSDO>
F 7

$$$$
=
 OpenBabel11052416543D

 32 36  0  0  1  0  0  0  0  0999 V2000
  191.2770  176.9140  137.4750 N   0  0  0  0  0  0  0  0  0  0  0  0
  188.8480  176.9850  141.9360 C   0  0  0  0  0  0  0  0  0  0  0  0
  184.6120  179.2110  141.0790 C   0  0  0  0  0  3  0  0  0  0  0  0
  184.2430  178.9600  142.3620 N   0  0  0  0  0  0  0  0  0  0  0  0
  190.5240  176.7730  140.2060 C   0  0  0  0  0  0  0  0  0  0  0  0
  188.4360  177.8940  139.7170 C   0  0  0  0  0  3  0  0  0  0  0  0
  190.1450  177.6030  137.9660 N   0  0  0  0  0  2  0  0  0  0  0  0
  185.8600  178.7970  140.6150 C   0  0  0  0  0  3  0  0  0  0  0  0
  188.0000  177.6780  141.0360 C   0  0  0  0  0  0  0  0  0  0  0  0
  186.7350  178.1200  141.4770 C   0  0  0  0  0  0  0  0  0  0  0  0
  187.1980  177.2060  143.7030 C   0  0  0  0  0  0  0  0  0  0  0  0
  192.3100  176.8480  138.5240 C   0  0  0  0  0  2  0  0  0  0  0  0
  189.6890  177.4340  139.3100 C   0  0  0  0  0  0  0  0  0  0  0  0
  191.7790  176.3580  139.7620 O   0  0  0  0  0  0  0  0  0  0  0  0
  185.0660  178.3110  143.2270 C   0  0  0  0  0  3  0  0  0  0  0  0
  186.3350  177.8770  142.8140 C   0  0  0  0  0  0  0  0  0  0  0  0
  190.1060  176.5360  141.5160 C   0  0  0  0  0  3  0  0  0  0  0  0
  188.4400  176.7550  143.2480 C   0  0  0  0  0  3  0  0  0  0  0  0
  190.8720  175.5540  137.1430 C   0  0  0  0  0  2  0  0  0  0  0  0
  191.1980  175.2560  135.6900 C   0  0  0  0  0  2  0  0  0  0  0  0
  192.6060  174.9220  135.5650 N   0  0  0  0  0  2  0  0  0  0  0  0
  194.2840  173.7530  136.8650 C   0  0  0  0  0  1  0  0  0  0  0  0
  192.8400  173.7600  136.4030 C   0  0  0  0  0  2  0  0  0  0  0  0
  186.7890  176.9390  145.1350 C   0  0  0  0  0  2  0  0  0  0  0  0
  188.1320  177.1190  147.2390 C   0  0  1  0  0  3  0  0  0  0  0  0
  186.4910  178.8110  146.6940 C   0  0  2  0  0  3  0  0  0  0  0  0
  187.1200  179.3900  147.9360 C   0  0  0  0  0  2  0  0  0  0  0  0
  187.8990  178.0120  148.8090 S   0  0  0  0  0  0  0  0  0  0  0  0
  185.1180  178.2470  147.0550 C   0  0  0  0  0  1  0  0  0  0  0  0
  187.4180  177.8090  146.1530 N   0  0  0  0  0  0  0  0  0  0  0  0
  189.6200  177.0720  146.9340 C   0  0  0  0  0  2  0  0  0  0  0  0
  189.9470  178.0270  145.9720 O   0  0  0  0  0  1  0  0  0  0  0  0
  1  7  1  0  0  0  0
  1 12  1  0  0  0  0
  2 18  1  0  0  0  0
  3  4  1  0  0  0  0
  4 15  2  0  0  0  0
  5 17  1  0  0  0  0
  6  9  2  0  0  0  0
  7 13  1  0  0  0  0
  8  3  2  0  0  0  0
  8 10  1  0  0  0  0
  9 10  1  0  0  0  0
  9  2  1  0  0  0  0
 10 16  2  0  0  0  0
 11 24  1  0  0  0  0
 12 14  1  0  0  0  0
 13  6  1  0  0  0  0
 13  5  2  0  0  0  0
 14  5  1  0  0  0  0
 16 15  1  0  0  0  0
 16 11  1  0  0  0  0
 17  2  2  0  0  0  0
 18 11  2  0  0  0  0
 19  1  1  0  0  0  0
 20 19  1  0  0  0  0
 21 20  1  0  0  0  0
 21 23  1  0  0  0  0
 23 22  1  0  0  0  0
 24 30  1  0  0  0  0
 25 31  1  6  0  0  0
 25 28  1  0  0  0  0
 26 29  1  1  0  0  0
 26 27  1  0  0  0  0
 27 28  1  0  0  0  0
 30 26  1  0  0  0  0
 30 25  1  0  0  0  0
 32 31  1  0  0  0  0
M  END
>  <MODEL>
8

>  <REMARK>
 VINA RESULT:      -6.4      3.724      8.214
  Name = 
  7 active torsions:
  status: ('A' for Active; 'I' for Inactive)
    1  A    between atoms: N_1  and  C_10
    2  A    between atoms: N_1  and  C_20
    3  A    between atoms: N_2  and  C_24
    4  A    between atoms: C_6  and  C_7
    5  A    between atoms: C_10  and  C_24
    6  A    between atoms: C_16  and  C_27
    7  A    between atoms: C_27  and  N_32
                            x       y       z     vdW  Elec       q    Type
                         _______ _______ _______ _____ _____    ______ ____

>  <TORSDO>
F 7

$$$$
=
 OpenBabel11052416543D

 32 36  0  0  1  0  0  0  0  0999 V2000
  191.8370  177.5550  144.1000 N   0  0  0  0  0  0  0  0  0  0  0  0
  188.3710  178.0030  140.4120 C   0  0  0  0  0  0  0  0  0  0  0  0
  190.0840  175.3870  136.6890 C   0  0  0  0  0  3  0  0  0  0  0  0
  188.9370  175.6440  136.0070 N   0  0  0  0  0  0  0  0  0  0  0  0
  189.6630  178.2970  142.4350 C   0  0  0  0  0  0  0  0  0  0  0  0
  190.5720  176.9840  140.6170 C   0  0  0  0  0  3  0  0  0  0  0  0
  191.8290  177.2570  142.7180 N   0  0  0  0  0  2  0  0  0  0  0  0
  190.2680  175.9050  137.9700 C   0  0  0  0  0  3  0  0  0  0  0  0
  189.4150  177.2240  139.8540 C   0  0  0  0  0  0  0  0  0  0  0  0
  189.2650  176.6930  138.5550 C   0  0  0  0  0  0  0  0  0  0  0  0
  187.0610  177.7510  138.3830 C   0  0  0  0  0  0  0  0  0  0  0  0
  191.1230  178.8220  144.3380 C   0  0  0  0  0  2  0  0  0  0  0  0
  190.6830  177.5140  141.9020 C   0  0  0  0  0  0  0  0  0  0  0  0
  189.8330  178.8290  143.7130 O   0  0  0  0  0  0  0  0  0  0  0  0
  187.9460  176.4060  136.5400 C   0  0  0  0  0  3  0  0  0  0  0  0
  188.0810  176.9560  137.8230 C   0  0  0  0  0  0  0  0  0  0  0  0
  188.5010  178.5350  141.7000 C   0  0  0  0  0  3  0  0  0  0  0  0
  187.2140  178.2530  139.6800 C   0  0  0  0  0  3  0  0  0  0  0  0
  191.1270  176.4900  144.7980 C   0  0  0  0  0  2  0  0  0  0  0  0
  191.1630  176.7390  146.2960 C   0  0  0  0  0  2  0  0  0  0  0  0
  189.8650  176.4360  146.8720 N   0  0  0  0  0  2  0  0  0  0  0  0
  187.9660  177.8790  147.2980 C   0  0  0  0  0  1  0  0  0  0  0  0
  189.4320  177.6260  147.5840 C   0  0  0  0  0  2  0  0  0  0  0  0
  185.7910  178.0450  137.6180 C   0  0  0  0  0  2  0  0  0  0  0  0
  183.6820  176.8780  136.9420 C   0  0  1  0  0  3  0  0  0  0  0  0
  183.8700  177.8790  139.1370 C   0  0  2  0  0  3  0  0  0  0  0  0
  182.5260  177.2020  139.2290 C   0  0  0  0  0  2  0  0  0  0  0  0
  181.9600  176.9500  137.5300 S   0  0  0  0  0  0  0  0  0  0  0  0
  183.6540  179.3820  138.9720 C   0  0  0  0  0  1  0  0  0  0  0  0
  184.6020  177.2620  138.0240 N   0  0  0  0  0  0  0  0  0  0  0  0
  183.9730  175.4560  136.4930 C   0  0  0  0  0  2  0  0  0  0  0  0
  183.1340  174.5590  137.1530 O   0  0  0  0  0  1  0  0  0  0  0  0
  1 12  1  0  0  0  0
  1 19  1  0  0  0  0
  2 17  1  0  0  0  0
  3  8  1  0  0  0  0
  4 15  1  0  0  0  0
  4  3  2  0  0  0  0
  5 14  1  0  0  0  0
  6 13  2  0  0  0  0
  7  1  1  0  0  0  0
  8 10  2  0  0  0  0
  9  2  2  0  0  0  0
  9  6  1  0  0  0  0
 10  9  1  0  0  0  0
 11 18  2  0  0  0  0
 13  5  1  0  0  0  0
 13  7  1  0  0  0  0
 14 12  1  0  0  0  0
 15 16  2  0  0  0  0
 16 11  1  0  0  0  0
 16 10  1  0  0  0  0
 17  5  2  0  0  0  0
 18  2  1  0  0  0  0
 19 20  1  0  0  0  0
 20 21  1  0  0  0  0
 21 23  1  0  0  0  0
 22 23  1  0  0  0  0
 24 30  1  0  0  0  0
 24 11  1  0  0  0  0
 25 31  1  1  0  0  0
 25 28  1  0  0  0  0
 25 30  1  0  0  0  0
 26 29  1  6  0  0  0
 26 27  1  0  0  0  0
 28 27  1  0  0  0  0
 30 26  1  0  0  0  0
 31 32  1  0  0  0  0
M  END
>  <MODEL>
9

>  <REMARK>
 VINA RESULT:      -6.4      4.047      9.362
  Name = 
  7 active torsions:
  status: ('A' for Active; 'I' for Inactive)
    1  A    between atoms: N_1  and  C_10
    2  A    between atoms: N_1  and  C_20
    3  A    between atoms: N_2  and  C_24
    4  A    between atoms: C_6  and  C_7
    5  A    between atoms: C_10  and  C_24
    6  A    between atoms: C_16  and  C_27
    7  A    between atoms: C_27  and  N_32
                            x       y       z     vdW  Elec       q    Type
                         _______ _______ _______ _____ _____    ______ ____

>  <TORSDO>
F 7

$$$$
