=
 OpenBabel11052412373D

 30 34  0  0  1  0  0  0  0  0999 V2000
  189.2700  177.6810  140.7200 C   0  0  2  0  0  3  0  0  0  0  0  0
  190.5520  174.9660  138.4380 C   0  0  2  0  0  3  0  0  0  0  0  0
  192.0950  178.1580  140.9010 C   0  0  0  0  0  2  0  0  0  0  0  0
  188.5170  177.0630  141.9150 C   0  0  2  0  0  3  0  0  0  0  0  0
  188.3930  178.2390  139.7800 O   0  0  0  0  0  1  0  0  0  0  0  0
  187.6090  176.5330  145.9890 C   0  0  0  0  0  3  0  0  0  0  0  0
  190.3030  177.3340  143.7630 C   0  0  1  0  0  3  0  0  0  0  0  0
  191.2960  178.1750  142.9560 C   0  0  0  0  0  2  0  0  0  0  0  0
  187.6900  178.1630  142.6260 C   0  0  2  0  0  3  0  0  0  0  0  0
  189.9660  174.3200  137.3510 O   0  0  0  0  0  1  0  0  0  0  0  0
  189.3920  178.2940  144.5500 C   0  0  2  0  0  3  0  0  0  0  0  0
  189.0050  176.7640  146.5030 C   0  0  0  0  0  2  0  0  0  0  0  0
  189.6110  176.0440  138.9550 C   0  0  0  0  0  2  0  0  0  0  0  0
  191.4590  177.4090  139.7170 C   0  0  2  0  0  3  0  0  0  0  0  0
  191.8570  175.6130  138.0020 C   0  0  0  0  0  2  0  0  0  0  0  0
  190.2120  176.7250  140.1090 N   0  0  1  0  0  0  0  0  0  0  0  0
  190.2140  175.3230  142.3690 O   0  0  0  0  0  1  0  0  0  0  0  0
  192.0530  177.3970  142.0750 O   0  0  0  0  0  0  0  0  0  0  0  0
  189.4590  176.3610  142.9210 C   0  0  2  0  0  3  0  0  0  0  0  0
  189.5630  178.1150  146.0570 C   0  0  0  0  0  2  0  0  0  0  0  0
  187.1240  177.1590  144.9070 C   0  0  0  0  0  3  0  0  0  0  0  0
  192.4690  176.3960  139.1570 C   0  0  1  0  0  3  0  0  0  0  0  0
  193.6110  177.0570  138.7020 O   0  0  0  0  0  1  0  0  0  0  0  0
  187.8930  178.2330  144.1610 C   0  0  2  0  0  3  0  0  0  0  0  0
  185.4690  179.2920  142.7640 C   0  0  1  0  0  3  0  0  0  0  0  0
  186.2160  178.0800  142.2320 C   0  0  1  0  0  3  0  0  0  0  0  0
  185.8570  179.2230  141.3050 C   0  0  0  0  0  2  0  0  0  0  0  0
  184.1190  178.9690  142.9010 O   0  0  0  0  0  0  0  0  0  0  0  0
  183.6980  179.6810  144.0240 C   0  0  0  0  0  2  0  0  0  0  0  0
  183.9570  178.8610  145.2690 C   0  0  0  0  0  1  0  0  0  0  0  0
  1  5  1  6  0  0  0
  1  4  1  0  0  0  0
  2 10  1  6  0  0  0
  2 13  1  0  0  0  0
  3 18  1  0  0  0  0
  4  9  1  0  0  0  0
  4 19  1  0  0  0  0
  6 12  1  0  0  0  0
  7 11  1  0  0  0  0
  8  7  1  0  0  0  0
  9 24  1  0  0  0  0
 11 20  1  0  0  0  0
 13 16  1  0  0  0  0
 14 16  1  0  0  0  0
 14  3  1  0  0  0  0
 15  2  1  0  0  0  0
 15 22  1  0  0  0  0
 16  1  1  0  0  0  0
 17 19  1  0  0  0  0
 18  8  1  0  0  0  0
 19  7  1  0  0  0  0
 20 12  1  0  0  0  0
 21  6  2  0  0  0  0
 22 14  1  0  0  0  0
 23 22  1  0  0  0  0
 24 11  1  0  0  0  0
 24 21  1  0  0  0  0
 25 28  1  0  0  0  0
 26  9  1  0  0  0  0
 26 25  1  0  0  0  0
 27 26  1  0  0  0  0
 27 25  1  0  0  0  0
 28 29  1  0  0  0  0
 29 30  1  0  0  0  0
M  END
>  <MODEL>
1

>  <REMARK>
 VINA RESULT:      -6.6      0.000      0.000
  Name = 
  3 active torsions:
  status: ('A' for Active; 'I' for Inactive)
    1  A    between atoms: C_6  and  O_21
    2  A    between atoms: C_8  and  C_13
    3  A    between atoms: C_9  and  O_21
                            x       y       z     vdW  Elec       q    Type
                         _______ _______ _______ _____ _____    ______ ____

>  <TORSDO>
F 3

$$$$
=
 OpenBabel11052412373D

 30 34  0  0  1  0  0  0  0  0999 V2000
  191.5120  175.7540  137.5380 C   0  0  2  0  0  3  0  0  0  0  0  0
  194.5280  176.4690  135.3900 C   0  0  2  0  0  3  0  0  0  0  0  0
  191.6910  173.2880  136.0790 C   0  0  0  0  0  2  0  0  0  0  0  0
  190.3820  176.7530  137.2220 C   0  0  2  0  0  3  0  0  0  0  0  0
  192.1450  176.0460  138.7540 O   0  0  0  0  0  1  0  0  0  0  0  0
  186.4420  177.8780  136.2640 C   0  0  0  0  0  3  0  0  0  0  0  0
  188.8380  175.2520  135.7940 C   0  0  1  0  0  3  0  0  0  0  0  0
  189.5840  173.9340  136.0160 C   0  0  0  0  0  2  0  0  0  0  0  0
  189.3140  176.6940  138.3430 C   0  0  2  0  0  3  0  0  0  0  0  0
  195.6230  177.3090  135.5850 O   0  0  0  0  0  1  0  0  0  0  0  0
  187.7150  175.3490  136.8440 C   0  0  2  0  0  3  0  0  0  0  0  0
  186.1250  176.6720  135.4210 C   0  0  0  0  0  2  0  0  0  0  0  0
  193.6330  176.5070  136.6200 C   0  0  0  0  0  2  0  0  0  0  0  0
  192.8940  174.2310  136.2560 C   0  0  2  0  0  3  0  0  0  0  0  0
  195.0130  175.0440  135.1730 C   0  0  0  0  0  2  0  0  0  0  0  0
  192.4690  175.6340  136.4230 N   0  0  1  0  0  0  0  0  0  0  0  0
  190.6180  176.5830  134.7670 O   0  0  0  0  0  1  0  0  0  0  0  0
  190.7300  173.8350  135.2210 O   0  0  0  0  0  0  0  0  0  0  0  0
  189.7290  176.5050  135.8410 C   0  0  2  0  0  3  0  0  0  0  0  0
  186.3370  175.3660  136.1860 C   0  0  0  0  0  2  0  0  0  0  0  0
  187.2590  177.8230  137.3250 C   0  0  0  0  0  3  0  0  0  0  0  0
  193.8270  174.0970  135.0430 C   0  0  1  0  0  3  0  0  0  0  0  0
  194.3010  172.7880  134.9420 O   0  0  0  0  0  1  0  0  0  0  0  0
  187.8580  176.5270  137.8400 C   0  0  2  0  0  3  0  0  0  0  0  0
  188.6810  177.6010  140.5800 C   0  0  1  0  0  3  0  0  0  0  0  0
  189.4710  177.8680  139.3090 C   0  0  1  0  0  3  0  0  0  0  0  0
  190.1810  177.4170  140.5690 C   0  0  0  0  0  2  0  0  0  0  0  0
  188.3660  178.8180  141.1840 O   0  0  0  0  0  0  0  0  0  0  0  0
  187.0930  178.6280  141.7180 C   0  0  0  0  0  2  0  0  0  0  0  0
  187.1770  177.6950  142.9070 C   0  0  0  0  0  1  0  0  0  0  0  0
  1  5  1  1  0  0  0
  2 10  1  1  0  0  0
  2 13  1  0  0  0  0
  3 14  1  0  0  0  0
  4  1  1  0  0  0  0
  4  9  1  0  0  0  0
  6 21  2  0  0  0  0
  7 19  1  0  0  0  0
  7  8  1  0  0  0  0
  7 11  1  0  0  0  0
  9 26  1  0  0  0  0
 11 24  1  0  0  0  0
 12 20  1  0  0  0  0
 12  6  1  0  0  0  0
 14 16  1  0  0  0  0
 15  2  1  0  0  0  0
 16 13  1  0  0  0  0
 16  1  1  0  0  0  0
 17 19  1  0  0  0  0
 18  8  1  0  0  0  0
 18  3  1  0  0  0  0
 19  4  1  0  0  0  0
 20 11  1  0  0  0  0
 21 24  1  0  0  0  0
 22 15  1  0  0  0  0
 22 14  1  0  0  0  0
 23 22  1  0  0  0  0
 24  9  1  0  0  0  0
 25 28  1  0  0  0  0
 26 27  1  0  0  0  0
 26 25  1  0  0  0  0
 27 25  1  0  0  0  0
 28 29  1  0  0  0  0
 29 30  1  0  0  0  0
M  END
>  <MODEL>
2

>  <REMARK>
 VINA RESULT:      -6.0      3.054      6.556
  Name = 
  3 active torsions:
  status: ('A' for Active; 'I' for Inactive)
    1  A    between atoms: C_6  and  O_21
    2  A    between atoms: C_8  and  C_13
    3  A    between atoms: C_9  and  O_21
                            x       y       z     vdW  Elec       q    Type
                         _______ _______ _______ _____ _____    ______ ____

>  <TORSDO>
F 3

$$$$
=
 OpenBabel11052412373D

 30 34  0  0  1  0  0  0  0  0999 V2000
  184.0980  179.6990  139.4910 C   0  0  2  0  0  3  0  0  0  0  0  0
  187.0240  177.7120  138.1810 C   0  0  2  0  0  3  0  0  0  0  0  0
  185.3890  179.0090  141.9610 C   0  0  0  0  0  2  0  0  0  0  0  0
  182.7720  179.0170  139.1020 C   0  0  2  0  0  3  0  0  0  0  0  0
  184.3520  180.8350  138.7120 O   0  0  0  0  0  1  0  0  0  0  0  0
  178.9380  177.4380  139.8220 C   0  0  0  0  0  3  0  0  0  0  0  0
  182.1380  177.9350  141.3610 C   0  0  1  0  0  3  0  0  0  0  0  0
  183.2400  178.5820  142.2050 C   0  0  0  0  0  2  0  0  0  0  0  0
  181.6020  180.0110  139.3090 C   0  0  2  0  0  3  0  0  0  0  0  0
  187.7030  177.7600  136.9650 O   0  0  0  0  0  1  0  0  0  0  0  0
  180.8770  178.8130  141.4670 C   0  0  2  0  0  3  0  0  0  0  0  0
  179.2220  176.9420  141.2140 C   0  0  0  0  0  2  0  0  0  0  0  0
  185.9580  178.7980  138.2120 C   0  0  0  0  0  2  0  0  0  0  0  0
  186.1350  179.0210  140.6150 C   0  0  2  0  0  3  0  0  0  0  0  0
  188.0040  177.9460  139.3200 C   0  0  0  0  0  2  0  0  0  0  0  0
  185.2280  178.7510  139.4840 N   0  0  1  0  0  0  0  0  0  0  0  0
  183.5050  176.7380  139.7190 O   0  0  0  0  0  1  0  0  0  0  0  0
  184.4760  177.9510  142.0340 O   0  0  0  0  0  0  0  0  0  0  0  0
  182.5150  177.7090  139.8860 C   0  0  2  0  0  3  0  0  0  0  0  0
  179.7260  178.0570  142.1290 C   0  0  0  0  0  2  0  0  0  0  0  0
  179.5110  178.5410  139.3170 C   0  0  0  0  0  3  0  0  0  0  0  0
  187.2650  177.9810  140.6520 C   0  0  1  0  0  3  0  0  0  0  0  0
  188.1730  178.2930  141.6660 O   0  0  0  0  0  1  0  0  0  0  0  0
  180.4140  179.4480  140.1310 C   0  0  2  0  0  3  0  0  0  0  0  0
  180.2420  181.8060  138.2330 C   0  0  1  0  0  3  0  0  0  0  0  0
  181.1590  180.6210  137.9800 C   0  0  1  0  0  3  0  0  0  0  0  0
  181.6870  182.0350  137.8510 C   0  0  0  0  0  2  0  0  0  0  0  0
  179.4300  182.0000  137.1170 O   0  0  0  0  0  0  0  0  0  0  0  0
  178.9400  183.2980  137.2580 C   0  0  0  0  0  2  0  0  0  0  0  0
  179.2520  184.0950  136.0100 C   0  0  0  0  0  1  0  0  0  0  0  0
  1  5  1  6  0  0  0
  2 10  1  6  0  0  0
  2 13  1  0  0  0  0
  2 15  1  0  0  0  0
  3 18  1  0  0  0  0
  4  9  1  0  0  0  0
  4  1  1  0  0  0  0
  4 19  1  0  0  0  0
  6 12  1  0  0  0  0
  7 11  1  0  0  0  0
  7  8  1  0  0  0  0
  9 24  1  0  0  0  0
 11 20  1  0  0  0  0
 12 20  1  0  0  0  0
 13 16  1  0  0  0  0
 14 22  1  0  0  0  0
 14  3  1  0  0  0  0
 15 22  1  0  0  0  0
 16  1  1  0  0  0  0
 16 14  1  0  0  0  0
 17 19  1  0  0  0  0
 18  8  1  0  0  0  0
 19  7  1  0  0  0  0
 21  6  2  0  0  0  0
 21 24  1  0  0  0  0
 22 23  1  0  0  0  0
 24 11  1  0  0  0  0
 26 25  1  0  0  0  0
 26  9  1  0  0  0  0
 27 26  1  0  0  0  0
 27 25  1  0  0  0  0
 28 29  1  0  0  0  0
 28 25  1  0  0  0  0
 30 29  1  0  0  0  0
M  END
>  <MODEL>
3

>  <REMARK>
 VINA RESULT:      -5.2      4.935      7.621
  Name = 
  3 active torsions:
  status: ('A' for Active; 'I' for Inactive)
    1  A    between atoms: C_6  and  O_21
    2  A    between atoms: C_8  and  C_13
    3  A    between atoms: C_9  and  O_21
                            x       y       z     vdW  Elec       q    Type
                         _______ _______ _______ _____ _____    ______ ____

>  <TORSDO>
F 3

$$$$
=
 OpenBabel11052412373D

 30 34  0  0  1  0  0  0  0  0999 V2000
  189.3620  178.1050  140.5080 C   0  0  2  0  0  3  0  0  0  0  0  0
  189.8770  175.3670  137.9670 C   0  0  2  0  0  3  0  0  0  0  0  0
  192.2030  177.7520  140.7130 C   0  0  0  0  0  2  0  0  0  0  0  0
  188.4430  177.6130  141.6450 C   0  0  2  0  0  3  0  0  0  0  0  0
  188.6950  178.9720  139.6330 O   0  0  0  0  0  1  0  0  0  0  0  0
  187.3430  176.9770  145.6560 C   0  0  0  0  0  3  0  0  0  0  0  0
  190.1970  177.1980  143.4960 C   0  0  1  0  0  3  0  0  0  0  0  0
  191.4010  177.7980  142.7660 C   0  0  0  0  0  2  0  0  0  0  0  0
  187.9430  178.8290  142.4640 C   0  0  2  0  0  3  0  0  0  0  0  0
  189.1560  175.0160  136.8270 O   0  0  0  0  0  1  0  0  0  0  0  0
  189.5760  178.2960  144.3790 C   0  0  2  0  0  3  0  0  0  0  0  0
  188.7380  176.7580  146.1780 C   0  0  0  0  0  2  0  0  0  0  0  0
  189.2660  176.6120  138.5930 C   0  0  0  0  0  2  0  0  0  0  0  0
  191.4070  177.3260  139.4680 C   0  0  2  0  0  3  0  0  0  0  0  0
  191.3200  175.6600  137.5850 C   0  0  0  0  0  2  0  0  0  0  0  0
  190.0110  176.9850  139.8010 N   0  0  1  0  0  0  0  0  0  0  0  0
  189.5760  175.4320  141.9160 O   0  0  0  0  0  1  0  0  0  0  0  0
  191.9270  176.9250  141.8090 O   0  0  0  0  0  0  0  0  0  0  0  0
  189.1310  176.5830  142.5710 C   0  0  2  0  0  3  0  0  0  0  0  0
  189.6600  177.9340  145.8610 C   0  0  0  0  0  2  0  0  0  0  0  0
  187.0740  177.8140  144.6430 C   0  0  0  0  0  3  0  0  0  0  0  0
  192.1040  176.1270  138.8050 C   0  0  1  0  0  3  0  0  0  0  0  0
  193.3940  176.4810  138.4060 O   0  0  0  0  0  1  0  0  0  0  0  0
  188.1270  178.6940  143.9970 C   0  0  2  0  0  3  0  0  0  0  0  0
  186.1970  178.6630  140.6880 C   0  0  1  0  0  3  0  0  0  0  0  0
  186.5130  179.2000  142.0750 C   0  0  1  0  0  3  0  0  0  0  0  0
  185.6730  177.9490  141.9140 C   0  0  0  0  0  2  0  0  0  0  0  0
  185.1780  179.4290  140.1250 O   0  0  0  0  0  0  0  0  0  0  0  0
  184.6120  178.6040  139.1530 C   0  0  0  0  0  2  0  0  0  0  0  0
  185.6630  178.2360  138.1290 C   0  0  0  0  0  1  0  0  0  0  0  0
  1  5  1  6  0  0  0
  1  4  1  0  0  0  0
  2 10  1  6  0  0  0
  2 13  1  0  0  0  0
  3 18  1  0  0  0  0
  4  9  1  0  0  0  0
  4 19  1  0  0  0  0
  6 12  1  0  0  0  0
  7 11  1  0  0  0  0
  8  7  1  0  0  0  0
  9 24  1  0  0  0  0
 11 20  1  0  0  0  0
 13 16  1  0  0  0  0
 14 16  1  0  0  0  0
 14  3  1  0  0  0  0
 15  2  1  0  0  0  0
 15 22  1  0  0  0  0
 16  1  1  0  0  0  0
 17 19  1  0  0  0  0
 18  8  1  0  0  0  0
 19  7  1  0  0  0  0
 20 12  1  0  0  0  0
 21  6  2  0  0  0  0
 22 14  1  0  0  0  0
 23 22  1  0  0  0  0
 24 11  1  0  0  0  0
 24 21  1  0  0  0  0
 25 27  1  0  0  0  0
 25 26  1  0  0  0  0
 26  9  1  0  0  0  0
 27 26  1  0  0  0  0
 28 25  1  0  0  0  0
 29 28  1  0  0  0  0
 30 29  1  0  0  0  0
M  END
>  <MODEL>
4

>  <REMARK>
 VINA RESULT:      -5.0      1.208      1.889
  Name = 
  3 active torsions:
  status: ('A' for Active; 'I' for Inactive)
    1  A    between atoms: C_6  and  O_21
    2  A    between atoms: C_8  and  C_13
    3  A    between atoms: C_9  and  O_21
                            x       y       z     vdW  Elec       q    Type
                         _______ _______ _______ _____ _____    ______ ____

>  <TORSDO>
F 3

$$$$
=
 OpenBabel11052412373D

 30 34  0  0  1  0  0  0  0  0999 V2000
  186.3470  177.7550  137.3220 C   0  0  2  0  0  3  0  0  0  0  0  0
  183.1710  175.9250  138.2080 C   0  0  2  0  0  3  0  0  0  0  0  0
  185.3870  177.1070  134.6960 C   0  0  0  0  0  2  0  0  0  0  0  0
  187.5700  177.0120  137.8980 C   0  0  2  0  0  3  0  0  0  0  0  0
  186.0420  178.9090  138.0560 O   0  0  0  0  0  1  0  0  0  0  0  0
  191.3830  175.2420  137.7320 C   0  0  0  0  0  3  0  0  0  0  0  0
  188.4620  175.8810  135.7530 C   0  0  1  0  0  3  0  0  0  0  0  0
  187.5250  176.5720  134.7600 C   0  0  0  0  0  2  0  0  0  0  0  0
  188.8050  177.9460  137.8560 C   0  0  2  0  0  3  0  0  0  0  0  0
  182.3290  176.0180  139.3150 O   0  0  0  0  0  1  0  0  0  0  0  0
  189.7680  176.6940  135.8260 C   0  0  2  0  0  3  0  0  0  0  0  0
  191.2760  174.7470  136.3150 C   0  0  0  0  0  2  0  0  0  0  0  0
  184.2820  176.9580  138.3270 C   0  0  0  0  0  2  0  0  0  0  0  0
  184.4590  177.1670  135.9220 C   0  0  2  0  0  3  0  0  0  0  0  0
  182.3750  176.1960  136.9410 C   0  0  0  0  0  2  0  0  0  0  0  0
  185.1830  176.8630  137.1710 N   0  0  1  0  0  0  0  0  0  0  0  0
  186.8190  174.7670  137.1870 O   0  0  0  0  0  1  0  0  0  0  0  0
  186.2470  176.0040  134.7560 O   0  0  0  0  0  0  0  0  0  0  0  0
  187.8700  175.6860  137.1600 C   0  0  2  0  0  3  0  0  0  0  0  0
  190.9620  175.8770  135.3360 C   0  0  0  0  0  2  0  0  0  0  0  0
  190.8000  176.3750  138.1480 C   0  0  0  0  0  3  0  0  0  0  0  0
  183.2950  176.1830  135.7270 C   0  0  1  0  0  3  0  0  0  0  0  0
  182.5570  176.5300  134.5940 O   0  0  0  0  0  1  0  0  0  0  0  0
  190.0680  177.3190  137.2120 C   0  0  2  0  0  3  0  0  0  0  0  0
  188.0810  178.0130  140.2440 C   0  0  1  0  0  3  0  0  0  0  0  0
  189.0840  178.5450  139.2340 C   0  0  1  0  0  3  0  0  0  0  0  0
  189.4860  177.4560  140.2070 C   0  0  0  0  0  2  0  0  0  0  0  0
  187.9690  178.9210  141.2960 O   0  0  0  0  0  0  0  0  0  0  0  0
  186.9070  178.4430  142.0630 C   0  0  0  0  0  2  0  0  0  0  0  0
  185.6010  178.9550  141.4940 C   0  0  0  0  0  1  0  0  0  0  0  0
  1  4  1  0  0  0  0
  1  5  1  1  0  0  0
  2 13  1  0  0  0  0
  2 10  1  1  0  0  0
  3 18  1  0  0  0  0
  3 14  1  0  0  0  0
  6 21  2  0  0  0  0
  7 11  1  0  0  0  0
  7 19  1  0  0  0  0
  8  7  1  0  0  0  0
  9  4  1  0  0  0  0
  9 26  1  0  0  0  0
 11 24  1  0  0  0  0
 12  6  1  0  0  0  0
 14 16  1  0  0  0  0
 15  2  1  0  0  0  0
 16  1  1  0  0  0  0
 16 13  1  0  0  0  0
 18  8  1  0  0  0  0
 19 17  1  0  0  0  0
 19  4  1  0  0  0  0
 20 11  1  0  0  0  0
 20 12  1  0  0  0  0
 22 14  1  0  0  0  0
 22 15  1  0  0  0  0
 23 22  1  0  0  0  0
 24  9  1  0  0  0  0
 24 21  1  0  0  0  0
 25 28  1  0  0  0  0
 26 27  1  0  0  0  0
 26 25  1  0  0  0  0
 27 25  1  0  0  0  0
 28 29  1  0  0  0  0
 30 29  1  0  0  0  0
M  END
>  <MODEL>
5

>  <REMARK>
 VINA RESULT:      -4.9      3.979      7.434
  Name = 
  3 active torsions:
  status: ('A' for Active; 'I' for Inactive)
    1  A    between atoms: C_6  and  O_21
    2  A    between atoms: C_8  and  C_13
    3  A    between atoms: C_9  and  O_21
                            x       y       z     vdW  Elec       q    Type
                         _______ _______ _______ _____ _____    ______ ____

>  <TORSDO>
F 3

$$$$
=
 OpenBabel11052412373D

 30 34  0  0  1  0  0  0  0  0999 V2000
  183.7880  178.8300  139.1810 C   0  0  2  0  0  3  0  0  0  0  0  0
  183.5170  178.2580  142.8990 C   0  0  2  0  0  3  0  0  0  0  0  0
  180.9620  179.1820  139.5430 C   0  0  0  0  0  2  0  0  0  0  0  0
  184.3210  177.5630  138.4830 C   0  0  2  0  0  3  0  0  0  0  0  0
  184.7670  179.8280  139.2740 O   0  0  0  0  0  1  0  0  0  0  0  0
  184.3070  174.5120  135.5860 C   0  0  0  0  0  3  0  0  0  0  0  0
  182.1280  176.6510  137.4660 C   0  0  1  0  0  3  0  0  0  0  0  0
  181.2380  177.8480  137.8090 C   0  0  0  0  0  2  0  0  0  0  0  0
  184.7770  177.9200  137.0470 C   0  0  2  0  0  3  0  0  0  0  0  0
  184.4350  178.4390  143.9310 O   0  0  0  0  0  1  0  0  0  0  0  0
  182.6680  176.8490  136.0380 C   0  0  2  0  0  3  0  0  0  0  0  0
  182.8110  174.4100  135.4590 C   0  0  0  0  0  2  0  0  0  0  0  0
  184.1310  178.7190  141.5850 C   0  0  0  0  0  2  0  0  0  0  0  0
  181.9680  179.3430  140.6960 C   0  0  2  0  0  3  0  0  0  0  0  0
  182.2690  179.0810  143.1790 C   0  0  0  0  0  2  0  0  0  0  0  0
  183.1760  178.5230  140.4870 N   0  0  1  0  0  0  0  0  0  0  0  0
  182.8530  175.9990  139.7130 O   0  0  0  0  0  1  0  0  0  0  0  0
  180.8400  177.8440  139.1490 O   0  0  0  0  0  0  0  0  0  0  0  0
  183.2860  176.4140  138.4510 C   0  0  2  0  0  3  0  0  0  0  0  0
  182.1740  175.7510  135.0970 C   0  0  0  0  0  2  0  0  0  0  0  0
  184.9330  175.6680  135.8490 C   0  0  0  0  0  3  0  0  0  0  0  0
  181.2870  178.9620  142.0200 C   0  0  1  0  0  3  0  0  0  0  0  0
  180.1980  179.8020  142.2600 O   0  0  0  0  0  1  0  0  0  0  0  0
  184.2080  176.9970  135.9390 C   0  0  2  0  0  3  0  0  0  0  0  0
  186.8870  178.0440  138.3740 C   0  0  1  0  0  3  0  0  0  0  0  0
  186.2970  178.0560  136.9730 C   0  0  1  0  0  3  0  0  0  0  0  0
  186.9620  176.8050  137.5110 C   0  0  0  0  0  2  0  0  0  0  0  0
  188.1180  178.6980  138.3550 O   0  0  0  0  0  0  0  0  0  0  0  0
  188.7490  178.2970  139.5330 C   0  0  0  0  0  2  0  0  0  0  0  0
  187.7910  178.4450  140.6950 C   0  0  0  0  0  1  0  0  0  0  0  0
  1  5  1  1  0  0  0
  1 16  1  0  0  0  0
  2 15  1  0  0  0  0
  2 10  1  1  0  0  0
  3 14  1  0  0  0  0
  4  1  1  0  0  0  0
  6 21  2  0  0  0  0
  7  8  1  0  0  0  0
  7 19  1  0  0  0  0
  8 18  1  0  0  0  0
  9  4  1  0  0  0  0
 11  7  1  0  0  0  0
 12  6  1  0  0  0  0
 13  2  1  0  0  0  0
 14 22  1  0  0  0  0
 16 14  1  0  0  0  0
 16 13  1  0  0  0  0
 18  3  1  0  0  0  0
 19  4  1  0  0  0  0
 19 17  1  0  0  0  0
 20 12  1  0  0  0  0
 20 11  1  0  0  0  0
 21 24  1  0  0  0  0
 22 23  1  0  0  0  0
 22 15  1  0  0  0  0
 24 11  1  0  0  0  0
 24  9  1  0  0  0  0
 26  9  1  0  0  0  0
 26 27  1  0  0  0  0
 26 25  1  0  0  0  0
 27 25  1  0  0  0  0
 28 25  1  0  0  0  0
 28 29  1  0  0  0  0
 29 30  1  0  0  0  0
M  END
>  <MODEL>
6

>  <REMARK>
 VINA RESULT:      -4.9      4.673      9.168
  Name = 
  3 active torsions:
  status: ('A' for Active; 'I' for Inactive)
    1  A    between atoms: C_6  and  O_21
    2  A    between atoms: C_8  and  C_13
    3  A    between atoms: C_9  and  O_21
                            x       y       z     vdW  Elec       q    Type
                         _______ _______ _______ _____ _____    ______ ____

>  <TORSDO>
F 3

$$$$
=
 OpenBabel11052412373D

 30 34  0  0  1  0  0  0  0  0999 V2000
  183.9290  178.6800  138.8430 C   0  0  2  0  0  3  0  0  0  0  0  0
  182.8340  178.4330  142.4430 C   0  0  2  0  0  3  0  0  0  0  0  0
  181.1210  179.1990  138.5550 C   0  0  0  0  0  2  0  0  0  0  0  0
  184.5130  177.3340  138.3690 C   0  0  2  0  0  3  0  0  0  0  0  0
  184.9300  179.6330  139.0760 O   0  0  0  0  0  1  0  0  0  0  0  0
  184.9150  174.0560  135.7610 C   0  0  0  0  0  3  0  0  0  0  0  0
  182.5320  176.4500  136.9660 C   0  0  1  0  0  3  0  0  0  0  0  0
  181.6710  177.7140  137.0210 C   0  0  0  0  0  2  0  0  0  0  0  0
  185.2880  177.5470  137.0450 C   0  0  2  0  0  3  0  0  0  0  0  0
  183.5210  178.6540  143.6350 O   0  0  0  0  0  1  0  0  0  0  0  0
  183.3760  176.5010  135.6790 C   0  0  2  0  0  3  0  0  0  0  0  0
  183.4770  174.0190  135.3180 C   0  0  0  0  0  2  0  0  0  0  0  0
  183.7430  178.7520  141.2660 C   0  0  0  0  0  2  0  0  0  0  0  0
  181.8660  179.4060  139.8850 C   0  0  2  0  0  3  0  0  0  0  0  0
  181.6130  179.3370  142.3870 C   0  0  0  0  0  2  0  0  0  0  0  0
  183.0340  178.5130  140.0030 N   0  0  1  0  0  0  0  0  0  0  0  0
  182.7170  175.9530  139.3570 O   0  0  0  0  0  1  0  0  0  0  0  0
  180.9970  177.8410  138.2400 O   0  0  0  0  0  0  0  0  0  0  0  0
  183.4360  176.2390  138.1940 C   0  0  2  0  0  3  0  0  0  0  0  0
  183.0220  175.3550  134.7340 C   0  0  0  0  0  2  0  0  0  0  0  0
  185.5460  175.1980  136.0720 C   0  0  0  0  0  3  0  0  0  0  0  0
  180.8950  179.1710  141.0520 C   0  0  1  0  0  3  0  0  0  0  0  0
  179.8380  180.0810  140.9900 O   0  0  0  0  0  1  0  0  0  0  0  0
  184.9080  176.5650  135.9080 C   0  0  2  0  0  3  0  0  0  0  0  0
  187.5250  177.8930  135.9930 C   0  0  1  0  0  3  0  0  0  0  0  0
  186.7950  177.6010  137.2940 C   0  0  1  0  0  3  0  0  0  0  0  0
  187.3230  178.9930  137.0110 C   0  0  0  0  0  2  0  0  0  0  0  0
  188.8290  177.4090  136.0860 O   0  0  0  0  0  0  0  0  0  0  0  0
  189.1630  177.0430  134.7830 C   0  0  0  0  0  2  0  0  0  0  0  0
  188.9140  175.5620  134.5940 C   0  0  0  0  0  1  0  0  0  0  0  0
  1  5  1  1  0  0  0
  1 16  1  0  0  0  0
  2 10  1  1  0  0  0
  3 14  1  0  0  0  0
  4  1  1  0  0  0  0
  6 21  2  0  0  0  0
  7  8  1  0  0  0  0
  7 19  1  0  0  0  0
  8 18  1  0  0  0  0
  9 26  1  0  0  0  0
  9  4  1  0  0  0  0
 11 24  1  0  0  0  0
 11  7  1  0  0  0  0
 12  6  1  0  0  0  0
 13  2  1  0  0  0  0
 14 16  1  0  0  0  0
 14 22  1  0  0  0  0
 15  2  1  0  0  0  0
 16 13  1  0  0  0  0
 18  3  1  0  0  0  0
 19  4  1  0  0  0  0
 19 17  1  0  0  0  0
 20 12  1  0  0  0  0
 20 11  1  0  0  0  0
 22 15  1  0  0  0  0
 23 22  1  0  0  0  0
 24 21  1  0  0  0  0
 24  9  1  0  0  0  0
 25 28  1  0  0  0  0
 25 27  1  0  0  0  0
 25 26  1  0  0  0  0
 27 26  1  0  0  0  0
 29 28  1  0  0  0  0
 30 29  1  0  0  0  0
M  END
>  <MODEL>
7

>  <REMARK>
 VINA RESULT:      -4.8      5.276      9.648
  Name = 
  3 active torsions:
  status: ('A' for Active; 'I' for Inactive)
    1  A    between atoms: C_6  and  O_21
    2  A    between atoms: C_8  and  C_13
    3  A    between atoms: C_9  and  O_21
                            x       y       z     vdW  Elec       q    Type
                         _______ _______ _______ _____ _____    ______ ____

>  <TORSDO>
F 3

$$$$
=
 OpenBabel11052412373D

 30 34  0  0  1  0  0  0  0  0999 V2000
  183.4830  177.1510  139.8230 C   0  0  2  0  0  3  0  0  0  0  0  0
  180.7310  179.4920  140.9050 C   0  0  2  0  0  3  0  0  0  0  0  0
  184.5960  178.1410  142.2770 C   0  0  0  0  0  2  0  0  0  0  0  0
  184.0730  177.6080  138.4740 C   0  0  2  0  0  3  0  0  0  0  0  0
  182.6540  176.0310  139.6810 O   0  0  0  0  0  1  0  0  0  0  0  0
  187.1690  178.6260  135.8120 C   0  0  0  0  0  3  0  0  0  0  0  0
  186.2770  178.6870  139.2850 C   0  0  1  0  0  3  0  0  0  0  0  0
  186.1820  178.2530  140.7490 C   0  0  0  0  0  2  0  0  0  0  0  0
  184.9190  176.4610  137.8680 C   0  0  2  0  0  3  0  0  0  0  0  0
  179.3620  179.4890  140.6470 O   0  0  0  0  0  1  0  0  0  0  0  0
  187.1100  177.6360  138.5270 C   0  0  2  0  0  3  0  0  0  0  0  0
  188.0870  179.2230  136.8450 C   0  0  0  0  0  2  0  0  0  0  0  0
  181.3690  178.2600  140.2780 C   0  0  0  0  0  2  0  0  0  0  0  0
  183.0860  178.1790  141.9810 C   0  0  2  0  0  3  0  0  0  0  0  0
  180.9650  179.4610  142.4080 C   0  0  0  0  0  2  0  0  0  0  0  0
  182.8150  178.2570  140.5340 N   0  0  1  0  0  0  0  0  0  0  0  0
  184.2170  179.9970  139.0930 O   0  0  0  0  0  1  0  0  0  0  0  0
  185.2990  179.0530  141.4810 O   0  0  0  0  0  0  0  0  0  0  0  0
  184.9180  178.8980  138.5920 C   0  0  2  0  0  3  0  0  0  0  0  0
  188.3980  178.2400  137.9730 C   0  0  0  0  0  2  0  0  0  0  0  0
  186.3490  177.5990  136.0820 C   0  0  0  0  0  3  0  0  0  0  0  0
  182.4560  179.3770  142.7080 C   0  0  1  0  0  3  0  0  0  0  0  0
  182.6350  179.2530  144.0870 O   0  0  0  0  0  1  0  0  0  0  0  0
  186.3420  176.8770  137.4150 C   0  0  2  0  0  3  0  0  0  0  0  0
  184.8520  174.4330  136.4140 C   0  0  1  0  0  3  0  0  0  0  0  0
  184.1450  175.7300  136.7710 C   0  0  1  0  0  3  0  0  0  0  0  0
  183.6220  174.4070  137.2920 C   0  0  0  0  0  2  0  0  0  0  0  0
  184.5030  174.0680  135.1150 O   0  0  0  0  0  0  0  0  0  0  0  0
  185.5580  173.2680  134.6780 C   0  0  0  0  0  2  0  0  0  0  0  0
  186.8720  173.9610  134.9680 C   0  0  0  0  0  1  0  0  0  0  0  0
  1  5  1  6  0  0  0
  1 16  1  0  0  0  0
  2 10  1  1  0  0  0
  2 15  1  0  0  0  0
  4 19  1  0  0  0  0
  4  1  1  0  0  0  0
  6 21  2  0  0  0  0
  6 12  1  0  0  0  0
  7  8  1  0  0  0  0
  8 18  1  0  0  0  0
  9  4  1  0  0  0  0
 11  7  1  0  0  0  0
 12 20  1  0  0  0  0
 13 16  1  0  0  0  0
 13  2  1  0  0  0  0
 14  3  1  0  0  0  0
 14 22  1  0  0  0  0
 15 22  1  0  0  0  0
 16 14  1  0  0  0  0
 18  3  1  0  0  0  0
 19 17  1  0  0  0  0
 19  7  1  0  0  0  0
 20 11  1  0  0  0  0
 21 24  1  0  0  0  0
 22 23  1  0  0  0  0
 24  9  1  0  0  0  0
 24 11  1  0  0  0  0
 25 26  1  0  0  0  0
 25 27  1  0  0  0  0
 26 27  1  0  0  0  0
 26  9  1  0  0  0  0
 28 25  1  0  0  0  0
 29 30  1  0  0  0  0
 29 28  1  0  0  0  0
M  END
>  <MODEL>
8

>  <REMARK>
 VINA RESULT:      -4.6      4.657      8.730
  Name = 
  3 active torsions:
  status: ('A' for Active; 'I' for Inactive)
    1  A    between atoms: C_6  and  O_21
    2  A    between atoms: C_8  and  C_13
    3  A    between atoms: C_9  and  O_21
                            x       y       z     vdW  Elec       q    Type
                         _______ _______ _______ _____ _____    ______ ____

>  <TORSDO>
F 3

$$$$
=
 OpenBabel11052412373D

 30 34  0  0  1  0  0  0  0  0999 V2000
  182.5250  179.0590  139.2800 C   0  0  2  0  0  3  0  0  0  0  0  0
  180.8870  178.8120  142.6680 C   0  0  2  0  0  3  0  0  0  0  0  0
  180.1660  180.6290  138.8180 C   0  0  0  0  0  2  0  0  0  0  0  0
  182.6520  177.6600  138.6450 C   0  0  2  0  0  3  0  0  0  0  0  0
  183.7530  179.5290  139.7620 O   0  0  0  0  0  1  0  0  0  0  0  0
  182.2380  174.8110  135.5750 C   0  0  0  0  0  3  0  0  0  0  0  0
  180.7200  177.7630  136.9320 C   0  0  1  0  0  3  0  0  0  0  0  0
  180.3710  179.2420  137.1160 C   0  0  0  0  0  2  0  0  0  0  0  0
  183.6410  177.7230  137.4540 C   0  0  2  0  0  3  0  0  0  0  0  0
  181.4210  178.6130  143.9390 O   0  0  0  0  0  1  0  0  0  0  0  0
  181.7090  177.6470  135.7580 C   0  0  2  0  0  3  0  0  0  0  0  0
  180.9660  175.3720  134.9980 C   0  0  0  0  0  2  0  0  0  0  0  0
  182.0160  178.9040  141.6520 C   0  0  0  0  0  2  0  0  0  0  0  0
  180.7280  180.3790  140.2280 C   0  0  2  0  0  3  0  0  0  0  0  0
  180.0940  180.1100  142.6480 C   0  0  0  0  0  2  0  0  0  0  0  0
  181.4660  179.1040  140.3050 N   0  0  1  0  0  0  0  0  0  0  0  0
  180.3530  176.9490  139.2130 O   0  0  0  0  0  1  0  0  0  0  0  0
  179.6130  179.4660  138.2700 O   0  0  0  0  0  0  0  0  0  0  0  0
  181.2920  177.0810  138.1870 C   0  0  2  0  0  3  0  0  0  0  0  0
  181.1140  176.8410  134.6050 C   0  0  0  0  0  2  0  0  0  0  0  0
  183.1820  175.5850  136.1310 C   0  0  0  0  0  3  0  0  0  0  0  0
  179.5740  180.3880  141.2430 C   0  0  1  0  0  3  0  0  0  0  0  0
  178.9350  181.6300  141.2340 O   0  0  0  0  0  1  0  0  0  0  0  0
  183.1080  177.1000  136.1380 C   0  0  2  0  0  3  0  0  0  0  0  0
  186.0250  177.4750  136.7590 C   0  0  1  0  0  3  0  0  0  0  0  0
  185.0110  177.1750  137.8510 C   0  0  1  0  0  3  0  0  0  0  0  0
  186.0000  178.3100  138.0190 C   0  0  0  0  0  2  0  0  0  0  0  0
  187.0640  176.5490  136.8360 O   0  0  0  0  0  0  0  0  0  0  0  0
  188.1920  177.2480  136.4090 C   0  0  0  0  0  2  0  0  0  0  0  0
  188.1290  177.4440  134.9100 C   0  0  0  0  0  1  0  0  0  0  0  0
  1  5  1  1  0  0  0
  1 16  1  0  0  0  0
  2 10  1  1  0  0  0
  3 14  1  0  0  0  0
  4  1  1  0  0  0  0
  6 21  2  0  0  0  0
  7  8  1  0  0  0  0
  7 19  1  0  0  0  0
  8 18  1  0  0  0  0
  9 26  1  0  0  0  0
  9  4  1  0  0  0  0
 11 24  1  0  0  0  0
 11  7  1  0  0  0  0
 12  6  1  0  0  0  0
 13  2  1  0  0  0  0
 14 16  1  0  0  0  0
 14 22  1  0  0  0  0
 15  2  1  0  0  0  0
 16 13  1  0  0  0  0
 18  3  1  0  0  0  0
 19  4  1  0  0  0  0
 19 17  1  0  0  0  0
 20 12  1  0  0  0  0
 20 11  1  0  0  0  0
 21 24  1  0  0  0  0
 22 15  1  0  0  0  0
 23 22  1  0  0  0  0
 24  9  1  0  0  0  0
 25 28  1  0  0  0  0
 25 26  1  0  0  0  0
 25 27  1  0  0  0  0
 26 27  1  0  0  0  0
 29 28  1  0  0  0  0
 30 29  1  0  0  0  0
M  END
>  <MODEL>
9

>  <REMARK>
 VINA RESULT:      -4.5      5.803     10.534
  Name = 
  3 active torsions:
  status: ('A' for Active; 'I' for Inactive)
    1  A    between atoms: C_6  and  O_21
    2  A    between atoms: C_8  and  C_13
    3  A    between atoms: C_9  and  O_21
                            x       y       z     vdW  Elec       q    Type
                         _______ _______ _______ _____ _____    ______ ____

>  <TORSDO>
F 3

$$$$
