=
 OpenBabel11052415413D

 34 37  0  0  1  0  0  0  0  0999 V2000
  182.8610  178.5410  141.2710 C   0  0  2  0  0  3  0  0  0  0  0  0
  181.2980  178.9940  143.8160 C   0  0  0  0  0  2  0  0  0  0  0  0
  183.4720  179.1090  142.5620 C   0  0  0  0  0  2  0  0  0  0  0  0
  180.6260  178.9340  142.4350 C   0  0  2  0  0  3  0  0  0  0  0  0
  182.7750  178.5700  143.8060 C   0  0  1  0  0  3  0  0  0  0  0  0
  181.4110  178.0620  141.4450 C   0  0  1  0  0  3  0  0  0  0  0  0
  180.1130  176.8810  140.2070 O   0  0  0  0  0  1  0  0  0  0  0  0
  180.7630  178.0250  140.2080 O   0  0  0  0  0  0  0  0  0  0  0  0
  180.4700  180.2280  141.9330 O   0  0  0  0  0  0  0  0  0  0  0  0
  179.9180  180.9020  142.9220 O   0  0  0  0  0  1  0  0  0  0  0  0
  183.4940  179.0800  145.0520 C   0  0  0  0  0  2  0  0  0  0  0  0
  186.9320  177.7830  143.8610 C   0  0  0  0  0  2  0  0  0  0  0  0
  185.5550  178.5210  146.4150 C   0  0  0  0  0  2  0  0  0  0  0  0
  189.6730  177.2430  146.4310 C   0  0  0  0  0  0  0  0  0  0  0  0
  188.9620  177.2760  145.2230 C   0  0  0  0  0  3  0  0  0  0  0  0
  187.6290  177.6950  145.1900 C   0  0  0  0  0  0  0  0  0  0  0  0
  187.7080  178.0780  147.5890 C   0  0  0  0  0  3  0  0  0  0  0  0
  187.0020  178.1180  146.3840 C   0  0  0  0  0  0  0  0  0  0  0  0
  189.0360  177.6480  147.6120 C   0  0  0  0  0  3  0  0  0  0  0  0
  185.0080  178.8590  145.0270 C   0  0  1  0  0  3  0  0  0  0  0  0
  185.4140  177.7990  144.0080 C   0  0  0  0  0  2  0  0  0  0  0  0
  191.0740  176.7880  146.4600 C   0  0  0  0  0  0  0  0  0  0  0  0
  191.8140  176.8060  147.6790 N   0  0  0  0  0  1  0  0  0  0  0  0
  191.6310  176.3740  145.4090 O   0  0  0  0  0  0  0  0  0  0  0  0
  183.7160  177.3970  140.7430 C   0  0  0  0  0  2  0  0  0  0  0  0
  182.8770  176.1580  138.2020 O   0  0  0  0  0  0  0  0  0  0  0  0
  184.4920  177.5030  137.0180 C   0  0  0  0  0  2  0  0  0  0  0  0
  185.4530  178.5610  137.5790 C   0  0  1  0  0  3  0  0  0  0  0  0
  185.2730  178.6060  139.1060 C   0  0  0  0  0  2  0  0  0  0  0  0
  183.7670  177.0450  138.2180 C   0  0  0  0  0  0  0  0  0  0  0  0
  184.1890  177.6930  139.3990 N   0  0  0  0  0  0  0  0  0  0  0  0
  187.3810  176.8390  137.2320 C   0  0  0  0  0  1  0  0  0  0  0  0
  187.6240  179.1510  136.8960 O   0  0  0  0  0  0  0  0  0  0  0  0
  186.8720  178.2450  137.2140 C   0  0  0  0  0  0  0  0  0  0  0  0
  1 25  1  1  0  0  0
  1  6  1  0  0  0  0
  1  3  1  0  0  0  0
  3  5  1  0  0  0  0
  4  9  1  6  0  0  0
  4  2  1  0  0  0  0
  5  2  1  0  0  0  0
  5 11  1  1  0  0  0
  6  8  1  6  0  0  0
  6  4  1  0  0  0  0
  7  8  1  0  0  0  0
  9 10  1  0  0  0  0
 12 21  1  0  0  0  0
 12 16  1  0  0  0  0
 14 22  1  0  0  0  0
 14 19  1  0  0  0  0
 15 14  2  0  0  0  0
 16 15  1  0  0  0  0
 16 18  2  0  0  0  0
 17 19  2  0  0  0  0
 18 13  1  0  0  0  0
 18 17  1  0  0  0  0
 20 11  1  1  0  0  0
 20 13  1  0  0  0  0
 21 20  1  0  0  0  0
 22 23  1  0  0  0  0
 24 22  2  0  0  0  0
 26 30  2  0  0  0  0
 27 28  1  0  0  0  0
 27 30  1  0  0  0  0
 28 34  1  1  0  0  0
 28 29  1  0  0  0  0
 29 31  1  0  0  0  0
 30 31  1  0  0  0  0
 31 25  1  0  0  0  0
 33 34  2  0  0  0  0
 34 32  1  0  0  0  0
M  END
>  <MODEL>
1

>  <REMARK>
 VINA RESULT:      -9.2      0.000      0.000
  Name = 
  8 active torsions:
  status: ('A' for Active; 'I' for Inactive)
    1  A    between atoms: C_1  and  C_34
    2  A    between atoms: C_7  and  C_11
    3  A    between atoms: C_10  and  O_12
    4  A    between atoms: C_17  and  C_18
    5  A    between atoms: C_18  and  C_30
    6  A    between atoms: O_19  and  C_20
    7  A    between atoms: C_24  and  C_25
    8  A    between atoms: N_33  and  C_34
                            x       y       z     vdW  Elec       q    Type
                         _______ _______ _______ _____ _____    ______ ____

>  <TORSDO>
F 8

$$$$
=
 OpenBabel11052415413D

 34 37  0  0  1  0  0  0  0  0999 V2000
  189.2330  177.2800  141.6210 C   0  0  2  0  0  3  0  0  0  0  0  0
  190.3520  177.2250  144.4260 C   0  0  0  0  0  2  0  0  0  0  0  0
  188.3760  177.0800  142.8810 C   0  0  0  0  0  2  0  0  0  0  0  0
  191.2080  176.9060  143.1900 C   0  0  2  0  0  3  0  0  0  0  0  0
  188.9660  177.7980  144.0900 C   0  0  1  0  0  3  0  0  0  0  0  0
  190.6990  177.6220  141.9310 C   0  0  1  0  0  3  0  0  0  0  0  0
  192.6720  177.8650  141.1160 O   0  0  0  0  0  1  0  0  0  0  0  0
  191.5090  177.3140  140.8350 O   0  0  0  0  0  0  0  0  0  0  0  0
  191.2440  175.5240  142.9890 O   0  0  0  0  0  0  0  0  0  0  0  0
  191.9220  175.0580  144.0180 O   0  0  0  0  0  1  0  0  0  0  0  0
  188.0180  177.6570  145.2770 C   0  0  0  0  0  2  0  0  0  0  0  0
  184.3900  178.7630  146.0080 C   0  0  0  0  0  2  0  0  0  0  0  0
  186.0640  177.8950  143.6820 C   0  0  0  0  0  2  0  0  0  0  0  0
  181.9410  179.0240  143.1200 C   0  0  0  0  0  0  0  0  0  0  0  0
  182.4900  179.0270  144.4100 C   0  0  0  0  0  3  0  0  0  0  0  0
  183.8270  178.6730  144.6170 C   0  0  0  0  0  0  0  0  0  0  0  0
  184.0890  178.3290  142.2260 C   0  0  0  0  0  3  0  0  0  0  0  0
  184.6390  178.3390  143.5100 C   0  0  0  0  0  0  0  0  0  0  0  0
  182.7500  178.6730  142.0310 C   0  0  0  0  0  3  0  0  0  0  0  0
  186.6390  178.2810  145.0460 C   0  0  1  0  0  3  0  0  0  0  0  0
  185.6630  177.9380  146.1670 C   0  0  0  0  0  2  0  0  0  0  0  0
  180.5270  179.3850  142.9100 C   0  0  0  0  0  0  0  0  0  0  0  0
  179.5060  178.3950  143.0180 N   0  0  0  0  0  1  0  0  0  0  0  0
  180.2070  180.5720  142.6390 O   0  0  0  0  0  0  0  0  0  0  0  0
  188.6320  178.3680  140.7420 C   0  0  0  0  0  2  0  0  0  0  0  0
  186.0880  178.6520  139.2760 O   0  0  0  0  0  0  0  0  0  0  0  0
  186.9530  177.2490  137.5140 C   0  0  0  0  0  2  0  0  0  0  0  0
  188.3400  176.6020  137.3990 C   0  0  1  0  0  3  0  0  0  0  0  0
  189.1330  176.9460  138.6720 C   0  0  0  0  0  2  0  0  0  0  0  0
  187.0340  177.9800  138.7930 C   0  0  0  0  0  0  0  0  0  0  0  0
  188.2830  177.8330  139.4350 N   0  0  0  0  0  0  0  0  0  0  0  0
  189.4430  174.2660  137.0370 C   0  0  0  0  0  1  0  0  0  0  0  0
  187.1250  174.5970  137.2250 O   0  0  0  0  0  0  0  0  0  0  0  0
  188.2280  175.1180  137.2200 C   0  0  0  0  0  0  0  0  0  0  0  0
  1 25  1  1  0  0  0
  1  6  1  0  0  0  0
  1  3  1  0  0  0  0
  3  5  1  0  0  0  0
  4  9  1  6  0  0  0
  4  2  1  0  0  0  0
  5  2  1  0  0  0  0
  5 11  1  1  0  0  0
  6  8  1  6  0  0  0
  6  4  1  0  0  0  0
  8  7  1  0  0  0  0
  9 10  1  0  0  0  0
 12 21  1  0  0  0  0
 13 20  1  0  0  0  0
 14 15  1  0  0  0  0
 15 16  2  0  0  0  0
 16 12  1  0  0  0  0
 17 18  2  0  0  0  0
 18 13  1  0  0  0  0
 18 16  1  0  0  0  0
 19 17  1  0  0  0  0
 19 14  2  0  0  0  0
 20 11  1  1  0  0  0
 20 21  1  0  0  0  0
 22 23  1  0  0  0  0
 22 14  1  0  0  0  0
 24 22  2  0  0  0  0
 27 30  1  0  0  0  0
 28 34  1  1  0  0  0
 28 27  1  0  0  0  0
 28 29  1  0  0  0  0
 29 31  1  0  0  0  0
 30 26  2  0  0  0  0
 30 31  1  0  0  0  0
 31 25  1  0  0  0  0
 32 34  1  0  0  0  0
 34 33  2  0  0  0  0
M  END
>  <MODEL>
2

>  <REMARK>
 VINA RESULT:      -9.2      2.570      7.515
  Name = 
  8 active torsions:
  status: ('A' for Active; 'I' for Inactive)
    1  A    between atoms: C_1  and  C_34
    2  A    between atoms: C_7  and  C_11
    3  A    between atoms: C_10  and  O_12
    4  A    between atoms: C_17  and  C_18
    5  A    between atoms: C_18  and  C_30
    6  A    between atoms: O_19  and  C_20
    7  A    between atoms: C_24  and  C_25
    8  A    between atoms: N_33  and  C_34
                            x       y       z     vdW  Elec       q    Type
                         _______ _______ _______ _____ _____    ______ ____

>  <TORSDO>
F 8

$$$$
=
 OpenBabel11052415413D

 34 37  0  0  1  0  0  0  0  0999 V2000
  189.7090  177.5980  143.9360 C   0  0  2  0  0  3  0  0  0  0  0  0
  189.0390  177.6450  146.8800 C   0  0  0  0  0  2  0  0  0  0  0  0
  188.3190  177.2710  144.5030 C   0  0  0  0  0  2  0  0  0  0  0  0
  190.4740  177.4580  146.3640 C   0  0  2  0  0  3  0  0  0  0  0  0
  188.0330  178.0400  145.7880 C   0  0  1  0  0  3  0  0  0  0  0  0
  190.6900  178.1210  144.9970 C   0  0  1  0  0  3  0  0  0  0  0  0
  192.4880  179.1550  144.4380 O   0  0  0  0  0  1  0  0  0  0  0  0
  192.0070  177.9370  144.5690 O   0  0  0  0  0  0  0  0  0  0  0  0
  190.7760  176.0950  146.3030 O   0  0  0  0  0  0  0  0  0  0  0  0
  191.5210  175.8730  147.3660 O   0  0  0  0  0  1  0  0  0  0  0  0
  186.6030  177.7600  146.2410 C   0  0  0  0  0  2  0  0  0  0  0  0
  183.1520  179.0860  145.1210 C   0  0  0  0  0  2  0  0  0  0  0  0
  185.5780  177.8050  143.9240 C   0  0  0  0  0  2  0  0  0  0  0  0
  182.2540  178.9650  141.4360 C   0  0  0  0  0  0  0  0  0  0  0  0
  182.1800  179.1550  142.8230 C   0  0  0  0  0  3  0  0  0  0  0  0
  183.2490  178.7950  143.6500 C   0  0  0  0  0  0  0  0  0  0  0  0
  184.4950  178.0670  141.6950 C   0  0  0  0  0  3  0  0  0  0  0  0
  184.4260  178.2630  143.0770 C   0  0  0  0  0  0  0  0  0  0  0  0
  183.4190  178.4190  140.8790 C   0  0  0  0  0  3  0  0  0  0  0  0
  185.5350  178.3840  145.3390 C   0  0  1  0  0  3  0  0  0  0  0  0
  184.1370  178.2560  145.9370 C   0  0  0  0  0  2  0  0  0  0  0  0
  181.1190  179.3340  140.5710 C   0  0  0  0  0  0  0  0  0  0  0  0
  179.9690  179.9710  141.1230 N   0  0  0  0  0  1  0  0  0  0  0  0
  181.1560  179.0960  139.3350 O   0  0  0  0  0  0  0  0  0  0  0  0
  189.5910  178.6130  142.8070 C   0  0  0  0  0  2  0  0  0  0  0  0
  191.8240  177.3460  141.3560 O   0  0  0  0  0  0  0  0  0  0  0  0
  190.3390  176.8380  139.5240 C   0  0  0  0  0  2  0  0  0  0  0  0
  188.8360  177.1270  139.4010 C   0  0  1  0  0  3  0  0  0  0  0  0
  188.3920  177.8860  140.6640 C   0  0  0  0  0  2  0  0  0  0  0  0
  190.6700  177.3730  140.8580 C   0  0  0  0  0  0  0  0  0  0  0  0
  189.5580  177.9400  141.5180 N   0  0  0  0  0  0  0  0  0  0  0  0
  187.8310  177.3080  137.0000 C   0  0  0  0  0  1  0  0  0  0  0  0
  188.8860  179.0910  138.1090 O   0  0  0  0  0  0  0  0  0  0  0  0
  188.5410  177.9220  138.1650 C   0  0  0  0  0  0  0  0  0  0  0  0
  1 25  1  6  0  0  0
  1  3  1  0  0  0  0
  1  6  1  0  0  0  0
  3  5  1  0  0  0  0
  4  9  1  6  0  0  0
  4  2  1  0  0  0  0
  5 11  1  1  0  0  0
  5  2  1  0  0  0  0
  6  8  1  6  0  0  0
  6  4  1  0  0  0  0
  7  8  1  0  0  0  0
  9 10  1  0  0  0  0
 12 21  1  0  0  0  0
 13 20  1  0  0  0  0
 14 15  1  0  0  0  0
 15 16  2  0  0  0  0
 16 12  1  0  0  0  0
 17 18  2  0  0  0  0
 18 16  1  0  0  0  0
 18 13  1  0  0  0  0
 19 14  2  0  0  0  0
 19 17  1  0  0  0  0
 20 21  1  0  0  0  0
 20 11  1  1  0  0  0
 22 23  1  0  0  0  0
 22 14  1  0  0  0  0
 24 22  2  0  0  0  0
 27 30  1  0  0  0  0
 28 34  1  6  0  0  0
 28 27  1  0  0  0  0
 28 29  1  0  0  0  0
 29 31  1  0  0  0  0
 30 26  2  0  0  0  0
 30 31  1  0  0  0  0
 31 25  1  0  0  0  0
 32 34  1  0  0  0  0
 33 34  2  0  0  0  0
M  END
>  <MODEL>
3

>  <REMARK>
 VINA RESULT:      -8.8      2.355      7.998
  Name = 
  8 active torsions:
  status: ('A' for Active; 'I' for Inactive)
    1  A    between atoms: C_1  and  C_34
    2  A    between atoms: C_7  and  C_11
    3  A    between atoms: C_10  and  O_12
    4  A    between atoms: C_17  and  C_18
    5  A    between atoms: C_18  and  C_30
    6  A    between atoms: O_19  and  C_20
    7  A    between atoms: C_24  and  C_25
    8  A    between atoms: N_33  and  C_34
                            x       y       z     vdW  Elec       q    Type
                         _______ _______ _______ _____ _____    ______ ____

>  <TORSDO>
F 8

$$$$
=
 OpenBabel11052415413D

 34 37  0  0  1  0  0  0  0  0999 V2000
  182.5920  178.3610  141.0550 C   0  0  2  0  0  3  0  0  0  0  0  0
  181.2040  178.9880  143.6630 C   0  0  0  0  0  2  0  0  0  0  0  0
  183.2810  179.0360  142.2520 C   0  0  0  0  0  2  0  0  0  0  0  0
  180.4380  178.8120  142.3430 C   0  0  2  0  0  3  0  0  0  0  0  0
  182.6840  178.5850  143.5800 C   0  0  1  0  0  3  0  0  0  0  0  0
  181.1670  177.8770  141.3690 C   0  0  1  0  0  3  0  0  0  0  0  0
  179.4060  176.9860  140.5220 O   0  0  0  0  0  1  0  0  0  0  0  0
  180.4340  177.7370  140.1880 O   0  0  0  0  0  0  0  0  0  0  0  0
  180.2220  180.0620  141.7570 O   0  0  0  0  0  0  0  0  0  0  0  0
  180.0550  180.8800  142.7750 O   0  0  0  0  0  1  0  0  0  0  0  0
  183.4790  179.1990  144.7290 C   0  0  0  0  0  2  0  0  0  0  0  0
  186.6440  178.1340  146.6710 C   0  0  0  0  0  2  0  0  0  0  0  0
  185.7230  178.4300  143.8380 C   0  0  0  0  0  2  0  0  0  0  0  0
  189.6810  176.9650  144.7180 C   0  0  0  0  0  0  0  0  0  0  0  0
  188.8330  177.3420  145.7690 C   0  0  0  0  0  3  0  0  0  0  0  0
  187.5420  177.8130  145.5090 C   0  0  0  0  0  0  0  0  0  0  0  0
  187.9270  177.5090  143.1290 C   0  0  0  0  0  3  0  0  0  0  0  0
  187.0780  177.8780  144.1760 C   0  0  0  0  0  0  0  0  0  0  0  0
  189.2190  177.0510  143.3980 C   0  0  0  0  0  3  0  0  0  0  0  0
  184.7820  178.4610  145.0440 C   0  0  1  0  0  3  0  0  0  0  0  0
  185.4850  179.0400  146.2680 C   0  0  0  0  0  2  0  0  0  0  0  0
  191.0460  176.4840  144.9980 C   0  0  0  0  0  0  0  0  0  0  0  0
  191.6810  176.7940  146.2360 N   0  0  0  0  0  1  0  0  0  0  0  0
  191.6630  175.7890  144.1480 O   0  0  0  0  0  0  0  0  0  0  0  0
  183.4290  177.1920  140.5550 C   0  0  0  0  0  2  0  0  0  0  0  0
  182.5340  176.1380  137.9500 O   0  0  0  0  0  0  0  0  0  0  0  0
  184.3180  177.3390  136.8570 C   0  0  0  0  0  2  0  0  0  0  0  0
  185.3720  178.2650  137.4800 C   0  0  1  0  0  3  0  0  0  0  0  0
  185.1540  178.2780  139.0040 C   0  0  0  0  0  2  0  0  0  0  0  0
  183.5140  176.9220  138.0210 C   0  0  0  0  0  0  0  0  0  0  0  0
  183.9700  177.4800  139.2350 N   0  0  0  0  0  0  0  0  0  0  0  0
  187.1790  177.6050  135.7190 C   0  0  0  0  0  1  0  0  0  0  0  0
  187.5570  177.6000  138.0370 O   0  0  0  0  0  0  0  0  0  0  0  0
  186.7580  177.8090  137.1400 C   0  0  0  0  0  0  0  0  0  0  0  0
  1 25  1  1  0  0  0
  1  6  1  0  0  0  0
  1  3  1  0  0  0  0
  3  5  1  0  0  0  0
  4  9  1  6  0  0  0
  4  2  1  0  0  0  0
  5  2  1  0  0  0  0
  5 11  1  1  0  0  0
  6  8  1  6  0  0  0
  6  4  1  0  0  0  0
  8  7  1  0  0  0  0
  9 10  1  0  0  0  0
 13 18  1  0  0  0  0
 13 20  1  0  0  0  0
 14 22  1  0  0  0  0
 14 15  1  0  0  0  0
 16 15  2  0  0  0  0
 16 12  1  0  0  0  0
 17 19  1  0  0  0  0
 17 18  2  0  0  0  0
 18 16  1  0  0  0  0
 19 14  2  0  0  0  0
 20 11  1  6  0  0  0
 20 21  1  0  0  0  0
 21 12  1  0  0  0  0
 22 23  1  0  0  0  0
 24 22  2  0  0  0  0
 26 30  2  0  0  0  0
 27 28  1  0  0  0  0
 27 30  1  0  0  0  0
 28 34  1  1  0  0  0
 28 29  1  0  0  0  0
 29 31  1  0  0  0  0
 30 31  1  0  0  0  0
 31 25  1  0  0  0  0
 32 34  1  0  0  0  0
 34 33  2  0  0  0  0
M  END
>  <MODEL>
4

>  <REMARK>
 VINA RESULT:      -8.7      0.826      1.572
  Name = 
  8 active torsions:
  status: ('A' for Active; 'I' for Inactive)
    1  A    between atoms: C_1  and  C_34
    2  A    between atoms: C_7  and  C_11
    3  A    between atoms: C_10  and  O_12
    4  A    between atoms: C_17  and  C_18
    5  A    between atoms: C_18  and  C_30
    6  A    between atoms: O_19  and  C_20
    7  A    between atoms: C_24  and  C_25
    8  A    between atoms: N_33  and  C_34
                            x       y       z     vdW  Elec       q    Type
                         _______ _______ _______ _____ _____    ______ ____

>  <TORSDO>
F 8

$$$$
=
 OpenBabel11052415413D

 34 37  0  0  1  0  0  0  0  0999 V2000
  182.9590  178.2950  141.0250 C   0  0  2  0  0  3  0  0  0  0  0  0
  185.4290  179.3800  142.3820 C   0  0  0  0  0  2  0  0  0  0  0  0
  183.4180  177.8760  142.4310 C   0  0  0  0  0  2  0  0  0  0  0  0
  185.2580  179.3840  140.8550 C   0  0  2  0  0  3  0  0  0  0  0  0
  184.1520  179.0030  143.1490 C   0  0  1  0  0  3  0  0  0  0  0  0
  183.7830  179.4510  140.4370 C   0  0  1  0  0  3  0  0  0  0  0  0
  183.6910  180.7390  138.7200 O   0  0  0  0  0  1  0  0  0  0  0  0
  183.6720  179.4630  139.0440 O   0  0  0  0  0  0  0  0  0  0  0  0
  185.8720  178.2530  140.3120 O   0  0  0  0  0  0  0  0  0  0  0  0
  187.1390  178.3680  140.6530 O   0  0  0  0  0  1  0  0  0  0  0  0
  184.4830  178.5670  144.5730 C   0  0  0  0  0  2  0  0  0  0  0  0
  188.0310  177.0930  144.1800 C   0  0  0  0  0  2  0  0  0  0  0  0
  186.2940  178.2640  146.3190 C   0  0  0  0  0  2  0  0  0  0  0  0
  190.3280  177.0230  147.2010 C   0  0  0  0  0  0  0  0  0  0  0  0
  189.8140  176.8410  145.9100 C   0  0  0  0  0  3  0  0  0  0  0  0
  188.5120  177.2420  145.5970 C   0  0  0  0  0  0  0  0  0  0  0  0
  188.2280  178.0420  147.8740 C   0  0  0  0  0  3  0  0  0  0  0  0
  187.7180  177.8670  146.5850 C   0  0  0  0  0  0  0  0  0  0  0  0
  189.5260  177.6270  148.1800 C   0  0  0  0  0  3  0  0  0  0  0  0
  185.9770  178.3510  144.8240 C   0  0  1  0  0  3  0  0  0  0  0  0
  186.5100  177.1290  144.0830 C   0  0  0  0  0  2  0  0  0  0  0  0
  191.6970  176.5850  147.5280 C   0  0  0  0  0  0  0  0  0  0  0  0
  192.3210  175.5480  146.7750 N   0  0  0  0  0  1  0  0  0  0  0  0
  192.3300  177.1270  148.4730 O   0  0  0  0  0  0  0  0  0  0  0  0
  181.4850  178.6780  141.0450 C   0  0  0  0  0  2  0  0  0  0  0  0
  179.3060  177.0350  142.1640 O   0  0  0  0  0  0  0  0  0  0  0  0
  179.0990  175.8820  140.0560 C   0  0  0  0  0  2  0  0  0  0  0  0
  179.8840  176.1130  138.7570 C   0  0  1  0  0  3  0  0  0  0  0  0
  180.9280  177.2130  139.0190 C   0  0  0  0  0  2  0  0  0  0  0  0
  179.6700  176.8890  140.9700 C   0  0  0  0  0  0  0  0  0  0  0  0
  180.6860  177.6650  140.3720 N   0  0  0  0  0  0  0  0  0  0  0  0
  181.9460  174.8480  137.7800 C   0  0  0  0  0  1  0  0  0  0  0  0
  179.9190  173.8000  138.3380 O   0  0  0  0  0  0  0  0  0  0  0  0
  180.5410  174.8480  138.2940 C   0  0  0  0  0  0  0  0  0  0  0  0
  1 25  1  1  0  0  0
  1  3  1  0  0  0  0
  2  5  1  0  0  0  0
  3  5  1  0  0  0  0
  4  9  1  1  0  0  0
  4  2  1  0  0  0  0
  5 11  1  1  0  0  0
  6  8  1  6  0  0  0
  6  4  1  0  0  0  0
  6  1  1  0  0  0  0
  7  8  1  0  0  0  0
  9 10  1  0  0  0  0
 12 16  1  0  0  0  0
 13 18  1  0  0  0  0
 14 22  1  0  0  0  0
 14 19  1  0  0  0  0
 15 14  2  0  0  0  0
 16 15  1  0  0  0  0
 16 18  2  0  0  0  0
 17 19  2  0  0  0  0
 18 17  1  0  0  0  0
 20 11  1  1  0  0  0
 20 13  1  0  0  0  0
 21 12  1  0  0  0  0
 21 20  1  0  0  0  0
 22 24  2  0  0  0  0
 23 22  1  0  0  0  0
 27 30  1  0  0  0  0
 28 34  1  1  0  0  0
 28 29  1  0  0  0  0
 28 27  1  0  0  0  0
 29 31  1  0  0  0  0
 30 26  2  0  0  0  0
 31 30  1  0  0  0  0
 31 25  1  0  0  0  0
 32 34  1  0  0  0  0
 34 33  2  0  0  0  0
M  END
>  <MODEL>
5

>  <REMARK>
 VINA RESULT:      -8.7      2.403      4.110
  Name = 
  8 active torsions:
  status: ('A' for Active; 'I' for Inactive)
    1  A    between atoms: C_1  and  C_34
    2  A    between atoms: C_7  and  C_11
    3  A    between atoms: C_10  and  O_12
    4  A    between atoms: C_17  and  C_18
    5  A    between atoms: C_18  and  C_30
    6  A    between atoms: O_19  and  C_20
    7  A    between atoms: C_24  and  C_25
    8  A    between atoms: N_33  and  C_34
                            x       y       z     vdW  Elec       q    Type
                         _______ _______ _______ _____ _____    ______ ____

>  <TORSDO>
F 8

$$$$
=
 OpenBabel11052415413D

 34 37  0  0  1  0  0  0  0  0999 V2000
  189.4160  177.6430  144.0130 C   0  0  2  0  0  3  0  0  0  0  0  0
  188.5060  177.8220  146.8870 C   0  0  0  0  0  2  0  0  0  0  0  0
  187.9680  177.4070  144.4690 C   0  0  0  0  0  2  0  0  0  0  0  0
  189.9670  177.5440  146.5010 C   0  0  2  0  0  3  0  0  0  0  0  0
  187.6180  178.2320  145.7020 C   0  0  1  0  0  3  0  0  0  0  0  0
  190.3320  178.1490  145.1380 C   0  0  1  0  0  3  0  0  0  0  0  0
  192.1370  179.0230  144.3680 O   0  0  0  0  0  1  0  0  0  0  0  0
  191.6680  177.8830  144.8300 O   0  0  0  0  0  0  0  0  0  0  0  0
  190.1980  176.1660  146.5040 O   0  0  0  0  0  0  0  0  0  0  0  0
  191.1930  176.0000  147.3510 O   0  0  0  0  0  1  0  0  0  0  0  0
  186.1420  178.0420  146.0390 C   0  0  0  0  0  2  0  0  0  0  0  0
  185.0240  178.3270  142.3520 C   0  0  0  0  0  2  0  0  0  0  0  0
  183.8450  178.5470  145.0950 C   0  0  0  0  0  2  0  0  0  0  0  0
  181.3660  179.0030  141.5970 C   0  0  0  0  0  0  0  0  0  0  0  0
  182.7440  178.7880  141.4470 C   0  0  0  0  0  3  0  0  0  0  0  0
  183.5670  178.6290  142.5660 C   0  0  0  0  0  0  0  0  0  0  0  0
  181.6270  178.8750  144.0090 C   0  0  0  0  0  3  0  0  0  0  0  0
  182.9980  178.6530  143.8590 C   0  0  0  0  0  0  0  0  0  0  0  0
  180.8150  179.0440  142.8860 C   0  0  0  0  0  3  0  0  0  0  0  0
  185.2310  177.9650  144.8110 C   0  0  1  0  0  3  0  0  0  0  0  0
  185.8610  178.6300  143.5910 C   0  0  0  0  0  2  0  0  0  0  0  0
  180.5060  179.1840  140.4150 C   0  0  0  0  0  0  0  0  0  0  0  0
  179.7430  178.0930  139.9040 N   0  0  0  0  0  1  0  0  0  0  0  0
  180.4330  180.3050  139.8460 O   0  0  0  0  0  0  0  0  0  0  0  0
  189.4490  178.6250  142.8490 C   0  0  0  0  0  2  0  0  0  0  0  0
  191.7950  177.2500  141.7070 O   0  0  0  0  0  0  0  0  0  0  0  0
  190.5190  176.7280  139.7280 C   0  0  0  0  0  2  0  0  0  0  0  0
  189.0510  177.0550  139.4200 C   0  0  1  0  0  3  0  0  0  0  0  0
  188.4860  177.8640  140.6000 C   0  0  0  0  0  2  0  0  0  0  0  0
  190.7090  177.2940  141.0770 C   0  0  0  0  0  0  0  0  0  0  0  0
  189.5460  177.9120  141.5840 N   0  0  0  0  0  0  0  0  0  0  0  0
  189.0860  177.1390  136.8130 C   0  0  0  0  0  1  0  0  0  0  0  0
  188.6950  179.0150  138.1720 O   0  0  0  0  0  0  0  0  0  0  0  0
  188.9290  177.8180  138.1370 C   0  0  0  0  0  0  0  0  0  0  0  0
  1 25  1  6  0  0  0
  1  3  1  0  0  0  0
  1  6  1  0  0  0  0
  3  5  1  0  0  0  0
  4  9  1  6  0  0  0
  4  2  1  0  0  0  0
  5 11  1  1  0  0  0
  5  2  1  0  0  0  0
  6  8  1  6  0  0  0
  6  4  1  0  0  0  0
  7  8  1  0  0  0  0
  9 10  1  0  0  0  0
 12 16  1  0  0  0  0
 12 21  1  0  0  0  0
 14 19  1  0  0  0  0
 15 14  2  0  0  0  0
 15 16  1  0  0  0  0
 16 18  2  0  0  0  0
 18 17  1  0  0  0  0
 18 13  1  0  0  0  0
 19 17  2  0  0  0  0
 20 13  1  0  0  0  0
 20 11  1  1  0  0  0
 21 20  1  0  0  0  0
 22 14  1  0  0  0  0
 23 22  1  0  0  0  0
 24 22  2  0  0  0  0
 27 30  1  0  0  0  0
 28 34  1  6  0  0  0
 28 27  1  0  0  0  0
 28 29  1  0  0  0  0
 29 31  1  0  0  0  0
 30 31  1  0  0  0  0
 30 26  2  0  0  0  0
 31 25  1  0  0  0  0
 32 34  1  0  0  0  0
 34 33  2  0  0  0  0
M  END
>  <MODEL>
6

>  <REMARK>
 VINA RESULT:      -8.6      2.490      8.009
  Name = 
  8 active torsions:
  status: ('A' for Active; 'I' for Inactive)
    1  A    between atoms: C_1  and  C_34
    2  A    between atoms: C_7  and  C_11
    3  A    between atoms: C_10  and  O_12
    4  A    between atoms: C_17  and  C_18
    5  A    between atoms: C_18  and  C_30
    6  A    between atoms: O_19  and  C_20
    7  A    between atoms: C_24  and  C_25
    8  A    between atoms: N_33  and  C_34
                            x       y       z     vdW  Elec       q    Type
                         _______ _______ _______ _____ _____    ______ ____

>  <TORSDO>
F 8

$$$$
=
 OpenBabel11052415413D

 34 37  0  0  1  0  0  0  0  0999 V2000
  188.2100  177.5670  146.2340 C   0  0  2  0  0  3  0  0  0  0  0  0
  191.1670  177.0190  145.9570 C   0  0  0  0  0  2  0  0  0  0  0  0
  189.0920  178.1660  145.1270 C   0  0  0  0  0  2  0  0  0  0  0  0
  190.4220  176.8660  147.2920 C   0  0  2  0  0  3  0  0  0  0  0  0
  190.2420  177.2380  144.7500 C   0  0  1  0  0  3  0  0  0  0  0  0
  188.9400  176.5220  147.0920 C   0  0  1  0  0  3  0  0  0  0  0  0
  187.8310  177.5810  148.5960 O   0  0  0  0  0  1  0  0  0  0  0  0
  188.3020  176.3820  148.3270 O   0  0  0  0  0  0  0  0  0  0  0  0
  190.5580  178.0380  148.0410 O   0  0  0  0  0  0  0  0  0  0  0  0
  191.6370  177.8400  148.7710 O   0  0  0  0  0  1  0  0  0  0  0  0
  191.0120  177.8340  143.5750 C   0  0  0  0  0  2  0  0  0  0  0  0
  191.0750  176.8320  139.8450 C   0  0  0  0  0  2  0  0  0  0  0  0
  189.2330  178.1550  141.8000 C   0  0  0  0  0  2  0  0  0  0  0  0
  188.0020  177.5010  137.7200 C   0  0  0  0  0  0  0  0  0  0  0  0
  189.2920  177.1250  138.1230 C   0  0  0  0  0  3  0  0  0  0  0  0
  189.7110  177.3190  139.4430 C   0  0  0  0  0  0  0  0  0  0  0  0
  187.5330  178.2520  139.9810 C   0  0  0  0  0  3  0  0  0  0  0  0
  188.8140  177.8710  140.3850 C   0  0  0  0  0  0  0  0  0  0  0  0
  187.1270  178.0650  138.6580 C   0  0  0  0  0  3  0  0  0  0  0  0
  190.4940  177.3890  142.2050 C   0  0  1  0  0  3  0  0  0  0  0  0
  191.5670  177.4970  141.1270 C   0  0  0  0  0  2  0  0  0  0  0  0
  187.5710  177.3060  136.3240 C   0  0  0  0  0  0  0  0  0  0  0  0
  187.6650  176.0220  135.7120 N   0  0  0  0  0  1  0  0  0  0  0  0
  187.1110  178.2720  135.6590 O   0  0  0  0  0  0  0  0  0  0  0  0
  186.9570  176.9460  145.6300 C   0  0  0  0  0  2  0  0  0  0  0  0
  185.2500  178.9890  146.9000 O   0  0  0  0  0  0  0  0  0  0  0  0
  184.5510  179.7510  144.7210 C   0  0  0  0  0  2  0  0  0  0  0  0
  184.9900  179.2420  143.3410 C   0  0  1  0  0  3  0  0  0  0  0  0
  185.9560  178.0630  143.5540 C   0  0  0  0  0  2  0  0  0  0  0  0
  185.3230  178.9030  145.6480 C   0  0  0  0  0  0  0  0  0  0  0  0
  186.1440  177.9660  144.9850 N   0  0  0  0  0  0  0  0  0  0  0  0
  183.9810  178.2090  141.1680 C   0  0  0  0  0  1  0  0  0  0  0  0
  182.6830  178.9920  142.9630 O   0  0  0  0  0  0  0  0  0  0  0  0
  183.8070  178.8250  142.5200 C   0  0  0  0  0  0  0  0  0  0  0  0
  1 25  1  6  0  0  0
  1  6  1  0  0  0  0
  2  4  1  0  0  0  0
  3  1  1  0  0  0  0
  4  9  1  6  0  0  0
  5 11  1  6  0  0  0
  5  3  1  0  0  0  0
  5  2  1  0  0  0  0
  6  4  1  0  0  0  0
  6  8  1  1  0  0  0
  8  7  1  0  0  0  0
  9 10  1  0  0  0  0
 12 21  1  0  0  0  0
 13 20  1  0  0  0  0
 14 15  2  0  0  0  0
 14 19  1  0  0  0  0
 15 16  1  0  0  0  0
 16 12  1  0  0  0  0
 16 18  2  0  0  0  0
 17 18  1  0  0  0  0
 18 13  1  0  0  0  0
 19 17  2  0  0  0  0
 20 11  1  1  0  0  0
 21 20  1  0  0  0  0
 22 14  1  0  0  0  0
 23 22  1  0  0  0  0
 24 22  2  0  0  0  0
 27 30  1  0  0  0  0
 28 34  1  6  0  0  0
 28 29  1  0  0  0  0
 28 27  1  0  0  0  0
 29 31  1  0  0  0  0
 30 26  2  0  0  0  0
 31 25  1  0  0  0  0
 31 30  1  0  0  0  0
 32 34  1  0  0  0  0
 34 33  2  0  0  0  0
M  END
>  <MODEL>
7

>  <REMARK>
 VINA RESULT:      -8.5      3.052      8.539
  Name = 
  8 active torsions:
  status: ('A' for Active; 'I' for Inactive)
    1  A    between atoms: C_1  and  C_34
    2  A    between atoms: C_7  and  C_11
    3  A    between atoms: C_10  and  O_12
    4  A    between atoms: C_17  and  C_18
    5  A    between atoms: C_18  and  C_30
    6  A    between atoms: O_19  and  C_20
    7  A    between atoms: C_24  and  C_25
    8  A    between atoms: N_33  and  C_34
                            x       y       z     vdW  Elec       q    Type
                         _______ _______ _______ _____ _____    ______ ____

>  <TORSDO>
F 8

$$$$
=
 OpenBabel11052415413D

 34 37  0  0  1  0  0  0  0  0999 V2000
  185.0310  177.4330  137.4000 C   0  0  2  0  0  3  0  0  0  0  0  0
  182.7810  178.0080  139.3310 C   0  0  0  0  0  2  0  0  0  0  0  0
  185.1090  178.4850  138.5180 C   0  0  0  0  0  2  0  0  0  0  0  0
  182.5420  177.3740  137.9520 C   0  0  2  0  0  3  0  0  0  0  0  0
  184.2630  178.0960  139.7250 C   0  0  1  0  0  3  0  0  0  0  0  0
  183.7580  176.5750  137.4620 C   0  0  1  0  0  3  0  0  0  0  0  0
  182.6210  175.0560  136.4550 O   0  0  0  0  0  1  0  0  0  0  0  0
  183.4960  176.0090  136.2120 O   0  0  0  0  0  0  0  0  0  0  0  0
  182.2050  178.3700  137.0310 O   0  0  0  0  0  0  0  0  0  0  0  0
  181.6090  179.2980  137.7520 O   0  0  0  0  0  1  0  0  0  0  0  0
  184.4690  179.1180  140.8400 C   0  0  0  0  0  2  0  0  0  0  0  0
  185.0200  178.5910  144.6260 C   0  0  0  0  0  2  0  0  0  0  0  0
  186.5420  178.3280  142.0620 C   0  0  0  0  0  2  0  0  0  0  0  0
  188.3700  177.2630  145.8190 C   0  0  0  0  0  0  0  0  0  0  0  0
  187.0640  177.7730  145.8040 C   0  0  0  0  0  3  0  0  0  0  0  0
  186.4470  178.1180  144.5980 C   0  0  0  0  0  0  0  0  0  0  0  0
  188.4400  177.4190  143.3960 C   0  0  0  0  0  3  0  0  0  0  0  0
  187.1360  177.9200  143.3800 C   0  0  0  0  0  0  0  0  0  0  0  0
  189.0520  177.0880  144.6070 C   0  0  0  0  0  3  0  0  0  0  0  0
  185.0260  178.5210  142.1340 C   0  0  1  0  0  3  0  0  0  0  0  0
  184.6400  179.3460  143.3570 C   0  0  0  0  0  2  0  0  0  0  0  0
  189.0200  176.9140  147.0950 C   0  0  0  0  0  0  0  0  0  0  0  0
  190.4420  176.8810  147.1950 N   0  0  0  0  0  1  0  0  0  0  0  0
  188.3260  176.6460  148.1110 O   0  0  0  0  0  0  0  0  0  0  0  0
  186.2560  176.5310  137.4410 C   0  0  0  0  0  2  0  0  0  0  0  0
  187.9280  178.2400  135.7140 O   0  0  0  0  0  0  0  0  0  0  0  0
  189.4080  178.6610  137.5720 C   0  0  0  0  0  2  0  0  0  0  0  0
  189.2980  178.1560  139.0170 C   0  0  1  0  0  3  0  0  0  0  0  0
  188.0670  177.2380  139.1090 C   0  0  0  0  0  2  0  0  0  0  0  0
  188.2170  178.0770  136.9260 C   0  0  0  0  0  0  0  0  0  0  0  0
  187.4400  177.2940  137.8070 N   0  0  0  0  0  0  0  0  0  0  0  0
  191.2760  176.5460  138.4680 C   0  0  0  0  0  1  0  0  0  0  0  0
  190.9650  177.5600  140.5650 O   0  0  0  0  0  0  0  0  0  0  0  0
  190.5430  177.4290  139.4280 C   0  0  0  0  0  0  0  0  0  0  0  0
  1 25  1  1  0  0  0
  1  6  1  0  0  0  0
  1  3  1  0  0  0  0
  2  5  1  0  0  0  0
  3  5  1  0  0  0  0
  4  9  1  6  0  0  0
  4  2  1  0  0  0  0
  5 11  1  1  0  0  0
  6  8  1  6  0  0  0
  6  4  1  0  0  0  0
  8  7  1  0  0  0  0
  9 10  1  0  0  0  0
 13 20  1  0  0  0  0
 13 18  1  0  0  0  0
 14 22  1  0  0  0  0
 15 14  1  0  0  0  0
 16 12  1  0  0  0  0
 16 15  2  0  0  0  0
 17 19  1  0  0  0  0
 18 17  2  0  0  0  0
 18 16  1  0  0  0  0
 19 14  2  0  0  0  0
 20 11  1  6  0  0  0
 20 21  1  0  0  0  0
 21 12  1  0  0  0  0
 22 23  1  0  0  0  0
 22 24  2  0  0  0  0
 25 31  1  0  0  0  0
 26 30  2  0  0  0  0
 27 28  1  0  0  0  0
 28 29  1  0  0  0  0
 28 34  1  6  0  0  0
 30 27  1  0  0  0  0
 30 31  1  0  0  0  0
 31 29  1  0  0  0  0
 32 34  1  0  0  0  0
 34 33  2  0  0  0  0
M  END
>  <MODEL>
8

>  <REMARK>
 VINA RESULT:      -8.5      2.325      4.121
  Name = 
  8 active torsions:
  status: ('A' for Active; 'I' for Inactive)
    1  A    between atoms: C_1  and  C_34
    2  A    between atoms: C_7  and  C_11
    3  A    between atoms: C_10  and  O_12
    4  A    between atoms: C_17  and  C_18
    5  A    between atoms: C_18  and  C_30
    6  A    between atoms: O_19  and  C_20
    7  A    between atoms: C_24  and  C_25
    8  A    between atoms: N_33  and  C_34
                            x       y       z     vdW  Elec       q    Type
                         _______ _______ _______ _____ _____    ______ ____

>  <TORSDO>
F 8

$$$$
=
 OpenBabel11052415413D

 34 37  0  0  1  0  0  0  0  0999 V2000
  191.9300  175.2590  137.1560 C   0  0  2  0  0  3  0  0  0  0  0  0
  189.5920  176.7770  138.3180 C   0  0  0  0  0  2  0  0  0  0  0  0
  192.0660  176.3510  138.2280 C   0  0  0  0  0  2  0  0  0  0  0  0
  189.5320  176.0980  136.9400 C   0  0  2  0  0  3  0  0  0  0  0  0
  190.8420  176.4140  139.1350 C   0  0  1  0  0  3  0  0  0  0  0  0
  190.4710  174.8880  136.8490 C   0  0  1  0  0  3  0  0  0  0  0  0
  189.4560  173.3650  135.7230 O   0  0  0  0  0  1  0  0  0  0  0  0
  190.3780  174.2950  135.5880 O   0  0  0  0  0  0  0  0  0  0  0  0
  189.8340  177.0310  135.9450 O   0  0  0  0  0  0  0  0  0  0  0  0
  189.4520  178.1870  136.4480 O   0  0  0  0  0  1  0  0  0  0  0  0
  191.0820  177.4350  140.2430 C   0  0  0  0  0  2  0  0  0  0  0  0
  187.9470  177.7110  142.4810 C   0  0  0  0  0  2  0  0  0  0  0  0
  190.9210  177.5280  142.7690 C   0  0  0  0  0  2  0  0  0  0  0  0
  188.3840  177.6880  146.2520 C   0  0  0  0  0  0  0  0  0  0  0  0
  187.8110  177.7610  144.9730 C   0  0  0  0  0  3  0  0  0  0  0  0
  188.6120  177.7030  143.8290 C   0  0  0  0  0  0  0  0  0  0  0  0
  190.5800  177.4720  145.2370 C   0  0  0  0  0  3  0  0  0  0  0  0
  190.0090  177.5370  143.9630 C   0  0  0  0  0  0  0  0  0  0  0  0
  189.7720  177.5430  146.3740 C   0  0  0  0  0  3  0  0  0  0  0  0
  190.1760  177.2520  141.4620 C   0  0  1  0  0  3  0  0  0  0  0  0
  188.9120  178.1000  141.3660 C   0  0  0  0  0  2  0  0  0  0  0  0
  187.5350  177.7640  147.4540 C   0  0  0  0  0  0  0  0  0  0  0  0
  186.2680  178.4150  147.4030 N   0  0  0  0  0  1  0  0  0  0  0  0
  187.9180  177.2490  148.5380 O   0  0  0  0  0  0  0  0  0  0  0  0
  192.6960  174.0110  137.5750 C   0  0  0  0  0  2  0  0  0  0  0  0
  195.1380  172.7960  138.6970 O   0  0  0  0  0  0  0  0  0  0  0  0
  196.4260  173.7170  136.8770 C   0  0  0  0  0  2  0  0  0  0  0  0
  195.9390  174.5520  135.6850 C   0  0  1  0  0  3  0  0  0  0  0  0
  194.4270  174.7840  135.8520 C   0  0  0  0  0  2  0  0  0  0  0  0
  195.1840  173.4530  137.6270 C   0  0  0  0  0  0  0  0  0  0  0  0
  194.0440  174.0330  137.0280 N   0  0  0  0  0  0  0  0  0  0  0  0
  196.2230  176.9450  134.6860 C   0  0  0  0  0  1  0  0  0  0  0  0
  197.6640  176.0280  136.2990 O   0  0  0  0  0  0  0  0  0  0  0  0
  196.6760  175.8540  135.6030 C   0  0  0  0  0  0  0  0  0  0  0  0
  1 25  1  1  0  0  0
  1  3  1  0  0  0  0
  2  5  1  0  0  0  0
  3  5  1  0  0  0  0
  4  9  1  6  0  0  0
  4  2  1  0  0  0  0
  5 11  1  1  0  0  0
  6  8  1  6  0  0  0
  6  4  1  0  0  0  0
  6  1  1  0  0  0  0
  8  7  1  0  0  0  0
  9 10  1  0  0  0  0
 12 16  1  0  0  0  0
 13 18  1  0  0  0  0
 14 19  1  0  0  0  0
 14 22  1  0  0  0  0
 15 14  2  0  0  0  0
 16 18  2  0  0  0  0
 16 15  1  0  0  0  0
 17 19  2  0  0  0  0
 18 17  1  0  0  0  0
 20 11  1  6  0  0  0
 20 13  1  0  0  0  0
 21 20  1  0  0  0  0
 21 12  1  0  0  0  0
 22 24  2  0  0  0  0
 23 22  1  0  0  0  0
 27 30  1  0  0  0  0
 28 34  1  1  0  0  0
 28 29  1  0  0  0  0
 28 27  1  0  0  0  0
 29 31  1  0  0  0  0
 30 26  2  0  0  0  0
 31 25  1  0  0  0  0
 31 30  1  0  0  0  0
 32 34  1  0  0  0  0
 34 33  2  0  0  0  0
M  END
>  <MODEL>
9

>  <REMARK>
 VINA RESULT:      -8.2      5.715      8.875
  Name = 
  8 active torsions:
  status: ('A' for Active; 'I' for Inactive)
    1  A    between atoms: C_1  and  C_34
    2  A    between atoms: C_7  and  C_11
    3  A    between atoms: C_10  and  O_12
    4  A    between atoms: C_17  and  C_18
    5  A    between atoms: C_18  and  C_30
    6  A    between atoms: O_19  and  C_20
    7  A    between atoms: C_24  and  C_25
    8  A    between atoms: N_33  and  C_34
                            x       y       z     vdW  Elec       q    Type
                         _______ _______ _______ _____ _____    ______ ____

>  <TORSDO>
F 8

$$$$
