=
 OpenBabel11052415143D

 55 55  0  0  1  0  0  0  0  0999 V2000
  187.3100  177.9800  137.6350 C   0  0  2  0  0  3  0  0  0  0  0  0
  187.0850  180.1050  136.5330 O   0  0  0  0  0  0  0  0  0  0  0  0
  187.5850  178.9490  136.5190 C   0  0  0  0  0  0  0  0  0  0  0  0
  188.4260  178.5600  135.4410 N   0  0  0  0  0  1  0  0  0  0  0  0
  188.5220  177.0740  137.9170 C   0  0  2  0  0  3  0  0  0  0  0  0
  188.0980  175.6760  138.3630 C   0  0  0  0  0  1  0  0  0  0  0  0
  190.7120  176.9180  138.8640 O   0  0  0  0  0  1  0  0  0  0  0  0
  189.5440  177.6850  138.8900 C   0  0  2  0  0  3  0  0  0  0  0  0
  187.6340  177.5300  140.3560 O   0  0  0  0  0  1  0  0  0  0  0  0
  189.0020  177.8080  140.3200 C   0  0  1  0  0  3  0  0  0  0  0  0
  189.7290  176.8400  141.2380 C   0  0  0  0  0  2  0  0  0  0  0  0
  189.7300  177.3320  142.6850 C   0  0  1  0  0  3  0  0  0  0  0  0
  191.7420  178.3490  141.8580 O   0  0  0  0  0  1  0  0  0  0  0  0
  190.9040  178.2780  142.9730 C   0  0  2  0  0  3  0  0  0  0  0  0
  191.7040  177.8580  144.2070 C   0  0  0  0  0  2  0  0  0  0  0  0
  191.4070  176.5150  144.5730 O   0  0  0  0  0  0  0  0  0  0  0  0
  191.6550  176.0130  145.8550 C   0  0  0  0  0  0  0  0  0  0  0  0
  192.2580  174.9160  146.0110 O   0  0  0  0  0  0  0  0  0  0  0  0
  191.2200  176.7780  147.0280 C   0  0  0  0  0  0  0  0  0  0  0  0
  192.0410  177.0470  147.9460 O   0  0  0  0  0  0  0  0  0  0  0  0
  189.8670  177.2060  147.1440 N   0  0  0  0  0  1  0  0  0  0  0  0
  188.3950  177.9880  143.0180 C   0  0  0  0  0  2  0  0  0  0  0  0
  187.7310  177.2710  144.0480 O   0  0  0  0  0  0  0  0  0  0  0  0
  186.5440  177.8190  146.0710 C   0  0  0  0  0  3  0  0  0  0  0  0
  184.3340  178.6800  144.5890 C   0  0  0  0  0  0  0  0  0  0  0  0
  185.4680  178.1920  143.9350 C   0  0  0  0  0  3  0  0  0  0  0  0
  185.4090  178.3080  146.7260 C   0  0  0  0  0  3  0  0  0  0  0  0
  186.5830  177.7590  144.6750 C   0  0  0  0  0  0  0  0  0  0  0  0
  183.2640  179.0960  143.8700 F   0  0  0  0  0  0  0  0  0  0  0  0
  184.3060  178.7400  145.9840 C   0  0  0  0  0  3  0  0  0  0  0  0
  185.9410  176.7460  136.0270 O   0  0  0  0  0  1  0  0  0  0  0  0
  186.0520  177.1330  137.3650 C   0  0  2  0  0  3  0  0  0  0  0  0
  184.7270  177.6750  137.9260 C   0  0  2  0  0  3  0  0  0  0  0  0
  184.7740  179.9030  138.8930 O   0  0  0  0  0  1  0  0  0  0  0  0
  184.8260  178.5380  139.1940 C   0  0  1  0  0  3  0  0  0  0  0  0
  182.4920  178.8700  140.0170 O   0  0  0  0  0  0  0  0  0  0  0  0
  183.7030  178.2040  140.1240 C   0  0  0  0  0  0  0  0  0  0  0  0
  183.8600  177.3410  141.0300 O   0  0  0  0  0  1  0  0  0  0  0  0
  183.7200  176.5370  138.1300 C   0  0  0  0  0  2  0  0  0  0  0  0
  182.6460  176.4740  137.0350 C   0  0  2  0  0  0  0  0  0  0  0  0
  183.4790  175.9910  134.7700 O   0  0  0  0  0  1  0  0  0  0  0  0
  183.1450  175.4200  136.0030 C   0  0  2  0  0  3  0  0  0  0  0  0
  182.1790  174.2390  135.8110 C   0  0  1  0  0  3  0  0  0  0  0  0
  181.5010  174.3380  134.5940 O   0  0  0  0  0  1  0  0  0  0  0  0
  183.9960  172.6240  134.9340 C   0  0  0  0  0  1  0  0  0  0  0  0
  182.8970  172.9250  135.8920 C   0  0  0  0  0  0  0  0  0  0  0  0
  182.6010  172.1050  136.7480 O   0  0  0  0  0  0  0  0  0  0  0  0
  182.5940  177.8950  136.4210 C   0  0  0  0  0  2  0  0  0  0  0  0
  181.2970  178.3040  136.0960 O   0  0  0  0  0  0  0  0  0  0  0  0
  180.8870  179.0650  137.1900 C   0  0  0  0  0  2  0  0  0  0  0  0
  181.3250  180.5040  136.9930 C   0  0  0  0  0  1  0  0  0  0  0  0
  181.4270  176.1010  137.6700 O   0  0  0  0  0  0  0  0  0  0  0  0
  181.6540  175.5670  138.9490 C   0  0  0  0  0  2  0  0  0  0  0  0
  180.5700  174.5590  139.2810 C   0  0  0  0  0  2  0  0  0  0  0  0
  179.3220  175.0670  138.9210 O   0  0  0  0  0  1  0  0  0  0  0  0
  1  3  1  6  0  0  0
  1  5  1  0  0  0  0
  3  2  2  0  0  0  0
  4  3  1  0  0  0  0
  5  6  1  1  0  0  0
  5  8  1  0  0  0  0
  8  7  1  1  0  0  0
  8 10  1  0  0  0  0
 10  9  1  6  0  0  0
 10 11  1  0  0  0  0
 12 11  1  6  0  0  0
 12 14  1  0  0  0  0
 12 22  1  0  0  0  0
 14 13  1  6  0  0  0
 14 15  1  0  0  0  0
 15 16  1  0  0  0  0
 16 17  1  0  0  0  0
 17 18  2  0  0  0  0
 17 19  1  0  0  0  0
 19 21  1  0  0  0  0
 19 20  2  0  0  0  0
 22 23  1  0  0  0  0
 23 28  1  0  0  0  0
 24 27  1  0  0  0  0
 25 30  1  0  0  0  0
 26 25  2  0  0  0  0
 26 28  1  0  0  0  0
 28 24  2  0  0  0  0
 29 25  1  0  0  0  0
 30 27  2  0  0  0  0
 32 31  1  6  0  0  0
 32  1  1  0  0  0  0
 32 33  1  0  0  0  0
 33 39  1  1  0  0  0
 33 35  1  0  0  0  0
 35 34  1  6  0  0  0
 35 37  1  0  0  0  0
 36 37  2  0  0  0  0
 37 38  1  0  0  0  0
 40 48  1  6  0  0  0
 40 52  1  0  0  0  0
 40 39  1  0  0  0  0
 42 41  1  6  0  0  0
 42 40  1  0  0  0  0
 43 44  1  6  0  0  0
 43 46  1  0  0  0  0
 43 42  1  0  0  0  0
 45 46  1  0  0  0  0
 46 47  2  0  0  0  0
 49 48  1  0  0  0  0
 49 50  1  0  0  0  0
 51 50  1  0  0  0  0
 52 53  1  0  0  0  0
 53 54  1  0  0  0  0
 55 54  1  0  0  0  0
M  END
>  <MODEL>
1

>  <REMARK>
 VINA RESULT:      -4.9      0.000      0.000
  Name = 
  29 active torsions:
  status: ('A' for Active; 'I' for Inactive)
    1  A    between atoms: C_1  and  C_30
    2  A    between atoms: O_2  and  C_28
    3  A    between atoms: O_2  and  C_44
    4  A    between atoms: C_6  and  C_8
    5  A    between atoms: C_6  and  O_20
    6  A    between atoms: C_6  and  C_38
    7  A    between atoms: C_6  and  C_46
    8  A    between atoms: C_7  and  C_8
    9  A    between atoms: C_7  and  C_23
   10  A    between atoms: C_7  and  C_43
   11  A    between atoms: C_10  and  C_32
   12  A    between atoms: C_11  and  C_29
   13  A    between atoms: C_11  and  C_38
   14  A    between atoms: C_12  and  O_14
   15  A    between atoms: O_14  and  C_46
   16  A    between atoms: C_16  and  C_17
   17  A    between atoms: C_16  and  C_26
   18  A    between atoms: C_17  and  C_23
   19  A    between atoms: C_17  and  C_37
   20  A    between atoms: O_20  and  C_30
   21  A    between atoms: C_26  and  C_45
   22  A    between atoms: C_28  and  C_33
   23  A    between atoms: C_32  and  O_39
   24  A    between atoms: C_33  and  C_49
   25  A    between atoms: C_33  and  C_52
   26  A    between atoms: C_34  and  O_39
   27  A    between atoms: C_34  and  C_52
   28  A    between atoms: C_35  and  C_43
   29  A    between atoms: C_45  and  C_49
                            x       y       z     vdW  Elec       q    Type
                         _______ _______ _______ _____ _____    ______ ____

>  <TORSDO>
F 29

$$$$
=
 OpenBabel11052415143D

 55 55  0  0  1  0  0  0  0  0999 V2000
  186.4020  177.9590  137.6500 C   0  0  2  0  0  3  0  0  0  0  0  0
  186.5620  177.9230  135.2510 O   0  0  0  0  0  0  0  0  0  0  0  0
  186.8940  178.4840  136.3300 C   0  0  0  0  0  0  0  0  0  0  0  0
  187.7330  179.6300  136.2970 N   0  0  0  0  0  1  0  0  0  0  0  0
  187.5120  177.9650  138.7170 C   0  0  2  0  0  3  0  0  0  0  0  0
  188.4870  176.8050  138.5330 C   0  0  0  0  0  1  0  0  0  0  0  0
  186.0600  179.0710  140.2610 O   0  0  0  0  0  1  0  0  0  0  0  0
  186.9870  178.0300  140.1610 C   0  0  2  0  0  3  0  0  0  0  0  0
  188.2450  179.5340  141.5650 O   0  0  0  0  0  1  0  0  0  0  0  0
  188.1090  178.1950  141.1940 C   0  0  1  0  0  3  0  0  0  0  0  0
  187.8040  177.3670  142.4310 C   0  0  0  0  0  2  0  0  0  0  0  0
  189.0590  176.6820  142.9710 C   0  0  1  0  0  3  0  0  0  0  0  0
  190.7440  175.1940  142.1290 O   0  0  0  0  0  1  0  0  0  0  0  0
  190.0840  176.3960  141.8650 C   0  0  2  0  0  3  0  0  0  0  0  0
  191.0990  177.5290  141.7020 C   0  0  0  0  0  2  0  0  0  0  0  0
  191.3960  177.7520  140.3280 O   0  0  0  0  0  0  0  0  0  0  0  0
  192.5670  177.2800  139.7260 C   0  0  0  0  0  0  0  0  0  0  0  0
  193.6980  177.5430  140.2210 O   0  0  0  0  0  0  0  0  0  0  0  0
  192.4770  176.4570  138.5140 C   0  0  0  0  0  0  0  0  0  0  0  0
  191.5650  175.5940  138.4040 O   0  0  0  0  0  0  0  0  0  0  0  0
  193.4270  176.6180  137.4670 N   0  0  0  0  0  1  0  0  0  0  0  0
  189.6710  177.5160  144.0910 C   0  0  0  0  0  2  0  0  0  0  0  0
  189.4000  176.9280  145.3550 O   0  0  0  0  0  0  0  0  0  0  0  0
  187.2030  177.8040  145.8140 C   0  0  0  0  0  3  0  0  0  0  0  0
  187.9070  178.2800  148.4790 C   0  0  0  0  0  0  0  0  0  0  0  0
  188.8390  177.7270  147.5970 C   0  0  0  0  0  3  0  0  0  0  0  0
  186.2700  178.3560  146.6960 C   0  0  0  0  0  3  0  0  0  0  0  0
  188.4910  177.4840  146.2560 C   0  0  0  0  0  0  0  0  0  0  0  0
  188.2480  178.5110  149.7690 F   0  0  0  0  0  0  0  0  0  0  0  0
  186.6220  178.5930  148.0280 C   0  0  0  0  0  3  0  0  0  0  0  0
  186.4710  175.7510  136.5980 O   0  0  0  0  0  1  0  0  0  0  0  0
  185.7880  176.5520  137.5170 C   0  0  2  0  0  3  0  0  0  0  0  0
  184.2630  176.4850  137.3260 C   0  0  2  0  0  3  0  0  0  0  0  0
  184.3710  176.1240  134.9270 O   0  0  0  0  0  1  0  0  0  0  0  0
  183.7630  175.6900  136.1090 C   0  0  1  0  0  3  0  0  0  0  0  0
  183.8460  173.6400  137.5330 O   0  0  0  0  0  1  0  0  0  0  0  0
  184.0560  174.2350  136.2990 C   0  0  0  0  0  0  0  0  0  0  0  0
  184.5250  173.5510  135.3490 O   0  0  0  0  0  0  0  0  0  0  0  0
  183.6550  177.8920  137.3330 C   0  0  0  0  0  2  0  0  0  0  0  0
  182.2000  177.9210  137.8180 C   0  0  2  0  0  0  0  0  0  0  0  0
  183.2050  179.9410  138.8010 O   0  0  0  0  0  1  0  0  0  0  0  0
  182.1200  179.0610  138.8760 C   0  0  2  0  0  3  0  0  0  0  0  0
  181.9290  178.5560  140.3160 C   0  0  1  0  0  3  0  0  0  0  0  0
  183.0530  178.8330  141.0980 O   0  0  0  0  0  1  0  0  0  0  0  0
  180.6500  179.3240  142.4250 C   0  0  0  0  0  1  0  0  0  0  0  0
  180.7060  179.1500  140.9470 C   0  0  0  0  0  0  0  0  0  0  0  0
  179.7620  179.5090  140.2610 O   0  0  0  0  0  0  0  0  0  0  0  0
  181.9450  176.5320  138.4550 C   0  0  0  0  0  2  0  0  0  0  0  0
  181.0140  175.7670  137.7460 O   0  0  0  0  0  0  0  0  0  0  0  0
  180.5670  174.8210  138.6680 C   0  0  0  0  0  2  0  0  0  0  0  0
  180.1920  175.5190  139.9610 C   0  0  0  0  0  1  0  0  0  0  0  0
  181.3850  178.1620  136.6750 O   0  0  0  0  0  0  0  0  0  0  0  0
  180.4310  179.1610  136.9240 C   0  0  0  0  0  2  0  0  0  0  0  0
  180.3390  180.0900  135.7280 C   0  0  0  0  0  2  0  0  0  0  0  0
  181.2020  179.6560  134.7210 O   0  0  0  0  0  1  0  0  0  0  0  0
  1  3  1  6  0  0  0
  1  5  1  0  0  0  0
  2  3  2  0  0  0  0
  4  3  1  0  0  0  0
  5  6  1  1  0  0  0
  5  8  1  0  0  0  0
  8  7  1  6  0  0  0
  8 10  1  0  0  0  0
 10  9  1  1  0  0  0
 10 11  1  0  0  0  0
 12 11  1  6  0  0  0
 12 22  1  0  0  0  0
 14 13  1  1  0  0  0
 14 12  1  0  0  0  0
 15 14  1  0  0  0  0
 16 15  1  0  0  0  0
 17 18  2  0  0  0  0
 17 16  1  0  0  0  0
 19 17  1  0  0  0  0
 20 19  2  0  0  0  0
 21 19  1  0  0  0  0
 22 23  1  0  0  0  0
 23 28  1  0  0  0  0
 24 28  2  0  0  0  0
 24 27  1  0  0  0  0
 25 29  1  0  0  0  0
 26 25  2  0  0  0  0
 27 30  2  0  0  0  0
 28 26  1  0  0  0  0
 30 25  1  0  0  0  0
 32 31  1  6  0  0  0
 32  1  1  0  0  0  0
 33 39  1  6  0  0  0
 33 32  1  0  0  0  0
 35 34  1  6  0  0  0
 35 37  1  0  0  0  0
 35 33  1  0  0  0  0
 37 36  1  0  0  0  0
 38 37  2  0  0  0  0
 40 39  1  6  0  0  0
 40 48  1  0  0  0  0
 40 42  1  0  0  0  0
 42 41  1  1  0  0  0
 42 43  1  0  0  0  0
 43 46  1  0  0  0  0
 43 44  1  1  0  0  0
 46 45  1  0  0  0  0
 47 46  2  0  0  0  0
 49 48  1  0  0  0  0
 49 50  1  0  0  0  0
 50 51  1  0  0  0  0
 52 53  1  0  0  0  0
 52 40  1  0  0  0  0
 54 53  1  0  0  0  0
 55 54  1  0  0  0  0
M  END
>  <MODEL>
2

>  <REMARK>
 VINA RESULT:      -4.8      2.482      4.988
  Name = 
  29 active torsions:
  status: ('A' for Active; 'I' for Inactive)
    1  A    between atoms: C_1  and  C_30
    2  A    between atoms: O_2  and  C_28
    3  A    between atoms: O_2  and  C_44
    4  A    between atoms: C_6  and  C_8
    5  A    between atoms: C_6  and  O_20
    6  A    between atoms: C_6  and  C_38
    7  A    between atoms: C_6  and  C_46
    8  A    between atoms: C_7  and  C_8
    9  A    between atoms: C_7  and  C_23
   10  A    between atoms: C_7  and  C_43
   11  A    between atoms: C_10  and  C_32
   12  A    between atoms: C_11  and  C_29
   13  A    between atoms: C_11  and  C_38
   14  A    between atoms: C_12  and  O_14
   15  A    between atoms: O_14  and  C_46
   16  A    between atoms: C_16  and  C_17
   17  A    between atoms: C_16  and  C_26
   18  A    between atoms: C_17  and  C_23
   19  A    between atoms: C_17  and  C_37
   20  A    between atoms: O_20  and  C_30
   21  A    between atoms: C_26  and  C_45
   22  A    between atoms: C_28  and  C_33
   23  A    between atoms: C_32  and  O_39
   24  A    between atoms: C_33  and  C_49
   25  A    between atoms: C_33  and  C_52
   26  A    between atoms: C_34  and  O_39
   27  A    between atoms: C_34  and  C_52
   28  A    between atoms: C_35  and  C_43
   29  A    between atoms: C_45  and  C_49
                            x       y       z     vdW  Elec       q    Type
                         _______ _______ _______ _____ _____    ______ ____

>  <TORSDO>
F 29

$$$$
=
 OpenBabel11052415143D

 55 55  0  0  1  0  0  0  0  0999 V2000
  189.8720  177.6890  141.5410 C   0  0  2  0  0  3  0  0  0  0  0  0
  192.0010  177.3950  142.6170 O   0  0  0  0  0  0  0  0  0  0  0  0
  190.9060  178.0160  142.5820 C   0  0  0  0  0  0  0  0  0  0  0  0
  190.6500  179.0440  143.5300 N   0  0  0  0  0  1  0  0  0  0  0  0
  188.4420  177.7800  142.1060 C   0  0  2  0  0  3  0  0  0  0  0  0
  188.0100  176.4780  142.7760 C   0  0  0  0  0  1  0  0  0  0  0  0
  188.0540  178.8890  140.0240 O   0  0  0  0  0  1  0  0  0  0  0  0
  187.3980  178.2560  141.0830 C   0  0  2  0  0  3  0  0  0  0  0  0
  185.4230  179.5970  140.7340 O   0  0  0  0  0  1  0  0  0  0  0  0
  186.3400  179.1790  141.7010 C   0  0  1  0  0  3  0  0  0  0  0  0
  185.5950  178.4510  142.8080 C   0  0  0  0  0  2  0  0  0  0  0  0
  184.8470  179.4260  143.7160 C   0  0  1  0  0  3  0  0  0  0  0  0
  182.8440  178.7330  144.8450 O   0  0  0  0  0  1  0  0  0  0  0  0
  183.3250  179.2390  143.6350 C   0  0  2  0  0  3  0  0  0  0  0  0
  182.9080  178.3280  142.4800 C   0  0  0  0  0  2  0  0  0  0  0  0
  181.8860  178.9330  141.6980 O   0  0  0  0  0  0  0  0  0  0  0  0
  180.7410  178.2400  141.2880 C   0  0  0  0  0  0  0  0  0  0  0  0
  179.7120  178.2100  142.0170 O   0  0  0  0  0  0  0  0  0  0  0  0
  180.7370  177.5550  139.9910 C   0  0  0  0  0  0  0  0  0  0  0  0
  181.5430  176.6110  139.7730 O   0  0  0  0  0  0  0  0  0  0  0  0
  179.8350  177.9640  138.9690 N   0  0  0  0  0  1  0  0  0  0  0  0
  185.3450  179.2940  145.1510 C   0  0  0  0  0  2  0  0  0  0  0  0
  185.9980  178.0470  145.3390 O   0  0  0  0  0  0  0  0  0  0  0  0
  188.3070  177.4510  145.6800 C   0  0  0  0  0  3  0  0  0  0  0  0
  188.0960  178.0370  148.4070 C   0  0  0  0  0  0  0  0  0  0  0  0
  186.9880  178.1900  147.5710 C   0  0  0  0  0  3  0  0  0  0  0  0
  189.4160  177.2980  146.5170 C   0  0  0  0  0  3  0  0  0  0  0  0
  187.0880  177.8990  146.1990 C   0  0  0  0  0  0  0  0  0  0  0  0
  187.9930  178.3200  149.7270 F   0  0  0  0  0  0  0  0  0  0  0  0
  189.3110  177.5920  147.8800 C   0  0  0  0  0  3  0  0  0  0  0  0
  190.9830  175.5130  141.6550 O   0  0  0  0  0  1  0  0  0  0  0  0
  190.1140  176.3080  140.9020 C   0  0  2  0  0  3  0  0  0  0  0  0
  190.4650  176.2960  139.4050 C   0  0  2  0  0  3  0  0  0  0  0  0
  191.5350  178.4580  139.6880 O   0  0  0  0  0  1  0  0  0  0  0  0
  191.5690  177.2670  138.9570 C   0  0  1  0  0  3  0  0  0  0  0  0
  193.8190  177.1620  140.0340 O   0  0  0  0  0  1  0  0  0  0  0  0
  192.9100  176.6270  139.1350 C   0  0  0  0  0  0  0  0  0  0  0  0
  193.2330  175.6210  138.4470 O   0  0  0  0  0  0  0  0  0  0  0  0
  189.2050  176.4890  138.5530 C   0  0  0  0  0  2  0  0  0  0  0  0
  189.2290  175.6860  137.2460 C   0  0  2  0  0  0  0  0  0  0  0  0
  188.5750  173.3130  137.2480 O   0  0  0  0  0  1  0  0  0  0  0  0
  188.0980  174.6230  137.3720 C   0  0  2  0  0  3  0  0  0  0  0  0
  186.9150  174.8620  136.4200 C   0  0  1  0  0  3  0  0  0  0  0  0
  186.9620  173.9900  135.3300 O   0  0  0  0  0  1  0  0  0  0  0  0
  184.6500  175.8680  137.1490 C   0  0  0  0  0  1  0  0  0  0  0  0
  185.6020  174.7240  137.1300 C   0  0  0  0  0  0  0  0  0  0  0  0
  185.2980  173.6760  137.6800 O   0  0  0  0  0  0  0  0  0  0  0  0
  190.6290  175.0260  137.1880 C   0  0  0  0  0  2  0  0  0  0  0  0
  191.3320  175.3350  136.0200 O   0  0  0  0  0  0  0  0  0  0  0  0
  191.3950  174.1300  135.3220 C   0  0  0  0  0  2  0  0  0  0  0  0
  192.0380  173.0730  136.2000 C   0  0  0  0  0  1  0  0  0  0  0  0
  189.0100  176.6110  136.1860 O   0  0  0  0  0  0  0  0  0  0  0  0
  188.8270  177.9160  136.6710 C   0  0  0  0  0  2  0  0  0  0  0  0
  187.5050  178.4670  136.1690 C   0  0  0  0  0  2  0  0  0  0  0  0
  187.1950  179.6480  136.8440 O   0  0  0  0  0  1  0  0  0  0  0  0
  1  5  1  0  0  0  0
  1  3  1  1  0  0  0
  3  2  2  0  0  0  0
  3  4  1  0  0  0  0
  5  6  1  6  0  0  0
  8  7  1  6  0  0  0
  8 10  1  0  0  0  0
  8  5  1  0  0  0  0
 10  9  1  6  0  0  0
 10 11  1  0  0  0  0
 12 11  1  6  0  0  0
 12 22  1  0  0  0  0
 14 12  1  0  0  0  0
 14 13  1  1  0  0  0
 15 14  1  0  0  0  0
 16 15  1  0  0  0  0
 17 16  1  0  0  0  0
 17 18  2  0  0  0  0
 19 17  1  0  0  0  0
 20 19  2  0  0  0  0
 21 19  1  0  0  0  0
 22 23  1  0  0  0  0
 23 28  1  0  0  0  0
 24 28  2  0  0  0  0
 24 27  1  0  0  0  0
 25 29  1  0  0  0  0
 26 25  2  0  0  0  0
 27 30  2  0  0  0  0
 28 26  1  0  0  0  0
 30 25  1  0  0  0  0
 32  1  1  0  0  0  0
 32 31  1  1  0  0  0
 33 39  1  6  0  0  0
 33 32  1  0  0  0  0
 35 37  1  0  0  0  0
 35 33  1  0  0  0  0
 35 34  1  1  0  0  0
 37 36  1  0  0  0  0
 38 37  2  0  0  0  0
 40 48  1  6  0  0  0
 40 42  1  0  0  0  0
 40 39  1  0  0  0  0
 42 41  1  6  0  0  0
 43 44  1  6  0  0  0
 43 46  1  0  0  0  0
 43 42  1  0  0  0  0
 46 45  1  0  0  0  0
 46 47  2  0  0  0  0
 49 48  1  0  0  0  0
 50 49  1  0  0  0  0
 50 51  1  0  0  0  0
 52 53  1  0  0  0  0
 52 40  1  0  0  0  0
 54 53  1  0  0  0  0
 54 55  1  0  0  0  0
M  END
>  <MODEL>
3

>  <REMARK>
 VINA RESULT:      -4.8      2.927      7.662
  Name = 
  29 active torsions:
  status: ('A' for Active; 'I' for Inactive)
    1  A    between atoms: C_1  and  C_30
    2  A    between atoms: O_2  and  C_28
    3  A    between atoms: O_2  and  C_44
    4  A    between atoms: C_6  and  C_8
    5  A    between atoms: C_6  and  O_20
    6  A    between atoms: C_6  and  C_38
    7  A    between atoms: C_6  and  C_46
    8  A    between atoms: C_7  and  C_8
    9  A    between atoms: C_7  and  C_23
   10  A    between atoms: C_7  and  C_43
   11  A    between atoms: C_10  and  C_32
   12  A    between atoms: C_11  and  C_29
   13  A    between atoms: C_11  and  C_38
   14  A    between atoms: C_12  and  O_14
   15  A    between atoms: O_14  and  C_46
   16  A    between atoms: C_16  and  C_17
   17  A    between atoms: C_16  and  C_26
   18  A    between atoms: C_17  and  C_23
   19  A    between atoms: C_17  and  C_37
   20  A    between atoms: O_20  and  C_30
   21  A    between atoms: C_26  and  C_45
   22  A    between atoms: C_28  and  C_33
   23  A    between atoms: C_32  and  O_39
   24  A    between atoms: C_33  and  C_49
   25  A    between atoms: C_33  and  C_52
   26  A    between atoms: C_34  and  O_39
   27  A    between atoms: C_34  and  C_52
   28  A    between atoms: C_35  and  C_43
   29  A    between atoms: C_45  and  C_49
                            x       y       z     vdW  Elec       q    Type
                         _______ _______ _______ _____ _____    ______ ____

>  <TORSDO>
F 29

$$$$
=
 OpenBabel11052415143D

 55 55  0  0  1  0  0  0  0  0999 V2000
  185.9270  177.5500  136.7940 C   0  0  2  0  0  3  0  0  0  0  0  0
  184.9750  177.3530  134.5950 O   0  0  0  0  0  0  0  0  0  0  0  0
  185.9510  177.7240  135.3000 C   0  0  0  0  0  0  0  0  0  0  0  0
  187.0810  178.3220  134.6790 N   0  0  0  0  0  1  0  0  0  0  0  0
  187.3470  177.4530  137.3810 C   0  0  2  0  0  3  0  0  0  0  0  0
  188.0320  176.1410  137.0050 C   0  0  0  0  0  1  0  0  0  0  0  0
  186.6080  178.8020  139.2110 O   0  0  0  0  0  1  0  0  0  0  0  0
  187.4120  177.7030  138.8970 C   0  0  2  0  0  3  0  0  0  0  0  0
  188.9430  179.0940  140.1350 O   0  0  0  0  0  1  0  0  0  0  0  0
  188.8450  177.9090  139.4040 C   0  0  1  0  0  3  0  0  0  0  0  0
  189.2570  176.7450  140.2890 C   0  0  0  0  0  2  0  0  0  0  0  0
  190.3940  177.1320  141.2330 C   0  0  1  0  0  3  0  0  0  0  0  0
  190.4100  175.3300  142.8200 O   0  0  0  0  0  1  0  0  0  0  0  0
  190.1230  176.6900  142.6780 C   0  0  2  0  0  3  0  0  0  0  0  0
  188.6850  176.9730  143.1150 C   0  0  0  0  0  2  0  0  0  0  0  0
  188.6470  177.4730  144.4470 O   0  0  0  0  0  0  0  0  0  0  0  0
  189.7880  177.5550  145.2530 C   0  0  0  0  0  0  0  0  0  0  0  0
  189.8440  176.9430  146.3540 O   0  0  0  0  0  0  0  0  0  0  0  0
  190.9350  178.3500  144.8020 C   0  0  0  0  0  0  0  0  0  0  0  0
  192.1080  177.9770  145.0740 O   0  0  0  0  0  0  0  0  0  0  0  0
  190.7300  179.5550  144.0720 N   0  0  0  0  0  1  0  0  0  0  0  0
  191.7160  176.5710  140.7220 C   0  0  0  0  0  2  0  0  0  0  0  0
  192.0170  177.0980  139.4380 O   0  0  0  0  0  0  0  0  0  0  0  0
  193.3800  176.5620  137.5250 C   0  0  0  0  0  3  0  0  0  0  0  0
  191.7490  174.3680  136.9290 C   0  0  0  0  0  0  0  0  0  0  0  0
  191.4620  175.1750  138.0330 C   0  0  0  0  0  3  0  0  0  0  0  0
  193.6680  175.7540  136.4200 C   0  0  0  0  0  3  0  0  0  0  0  0
  192.2790  176.2780  138.3380 C   0  0  0  0  0  0  0  0  0  0  0  0
  190.9600  173.3070  136.6400 F   0  0  0  0  0  0  0  0  0  0  0  0
  192.8540  174.6570  136.1240 C   0  0  0  0  0  3  0  0  0  0  0  0
  185.0600  175.3280  136.2460 O   0  0  0  0  0  1  0  0  0  0  0  0
  185.0820  176.3320  137.2180 C   0  0  2  0  0  3  0  0  0  0  0  0
  183.6810  176.6320  137.7770 C   0  0  2  0  0  3  0  0  0  0  0  0
  182.6300  176.9360  135.6080 O   0  0  0  0  0  1  0  0  0  0  0  0
  182.4960  176.3110  136.8520 C   0  0  1  0  0  3  0  0  0  0  0  0
  182.6920  173.9650  137.6850 O   0  0  0  0  0  1  0  0  0  0  0  0
  182.4000  174.8330  136.6440 C   0  0  0  0  0  0  0  0  0  0  0  0
  182.0870  174.3670  135.5140 O   0  0  0  0  0  0  0  0  0  0  0  0
  183.5950  178.0790  138.2740 C   0  0  0  0  0  2  0  0  0  0  0  0
  182.5560  178.2770  139.3850 C   0  0  2  0  0  0  0  0  0  0  0  0
  184.3770  179.8190  139.9860 O   0  0  0  0  0  1  0  0  0  0  0  0
  183.2460  179.1550  140.4710 C   0  0  2  0  0  3  0  0  0  0  0  0
  183.5770  178.3920  141.7640 C   0  0  1  0  0  3  0  0  0  0  0  0
  184.9530  178.3860  142.0050 O   0  0  0  0  0  1  0  0  0  0  0  0
  183.5600  179.1160  144.2440 C   0  0  0  0  0  1  0  0  0  0  0  0
  182.8530  178.9700  142.9430 C   0  0  0  0  0  0  0  0  0  0  0  0
  181.6920  179.3390  142.8420 O   0  0  0  0  0  0  0  0  0  0  0  0
  182.2370  176.8570  139.9160 C   0  0  0  0  0  2  0  0  0  0  0  0
  180.9000  176.6990  140.2890 O   0  0  0  0  0  0  0  0  0  0  0  0
  180.5920  175.3860  139.9360 C   0  0  0  0  0  2  0  0  0  0  0  0
  179.3260  175.3740  139.1010 C   0  0  0  0  0  1  0  0  0  0  0  0
  181.4270  178.9100  138.7900 O   0  0  0  0  0  0  0  0  0  0  0  0
  181.2650  180.2230  139.2610 C   0  0  0  0  0  2  0  0  0  0  0  0
  180.7970  181.1180  138.1280 C   0  0  0  0  0  2  0  0  0  0  0  0
  179.6650  181.8310  138.5230 O   0  0  0  0  0  1  0  0  0  0  0  0
  1  3  1  6  0  0  0
  1 32  1  0  0  0  0
  1  5  1  0  0  0  0
  2  3  2  0  0  0  0
  4  3  1  0  0  0  0
  5  6  1  1  0  0  0
  5  8  1  0  0  0  0
  8  7  1  6  0  0  0
  8 10  1  0  0  0  0
 10  9  1  1  0  0  0
 10 11  1  0  0  0  0
 12 11  1  6  0  0  0
 12 14  1  0  0  0  0
 14 13  1  6  0  0  0
 14 15  1  0  0  0  0
 15 16  1  0  0  0  0
 16 17  1  0  0  0  0
 17 18  2  0  0  0  0
 19 20  2  0  0  0  0
 19 17  1  0  0  0  0
 21 19  1  0  0  0  0
 22 12  1  0  0  0  0
 23 22  1  0  0  0  0
 24 28  1  0  0  0  0
 25 26  1  0  0  0  0
 26 28  2  0  0  0  0
 27 24  2  0  0  0  0
 28 23  1  0  0  0  0
 29 25  1  0  0  0  0
 30 27  1  0  0  0  0
 30 25  2  0  0  0  0
 32 31  1  6  0  0  0
 32 33  1  0  0  0  0
 33 39  1  6  0  0  0
 35 34  1  6  0  0  0
 35 33  1  0  0  0  0
 37 35  1  0  0  0  0
 37 36  1  0  0  0  0
 38 37  2  0  0  0  0
 40 39  1  6  0  0  0
 40 48  1  0  0  0  0
 40 42  1  0  0  0  0
 42 41  1  6  0  0  0
 42 43  1  0  0  0  0
 43 44  1  1  0  0  0
 43 46  1  0  0  0  0
 46 45  1  0  0  0  0
 47 46  2  0  0  0  0
 48 49  1  0  0  0  0
 50 49  1  0  0  0  0
 51 50  1  0  0  0  0
 52 53  1  0  0  0  0
 52 40  1  0  0  0  0
 54 55  1  0  0  0  0
 54 53  1  0  0  0  0
M  END
>  <MODEL>
4

>  <REMARK>
 VINA RESULT:      -4.5      2.724      6.050
  Name = 
  29 active torsions:
  status: ('A' for Active; 'I' for Inactive)
    1  A    between atoms: C_1  and  C_30
    2  A    between atoms: O_2  and  C_28
    3  A    between atoms: O_2  and  C_44
    4  A    between atoms: C_6  and  C_8
    5  A    between atoms: C_6  and  O_20
    6  A    between atoms: C_6  and  C_38
    7  A    between atoms: C_6  and  C_46
    8  A    between atoms: C_7  and  C_8
    9  A    between atoms: C_7  and  C_23
   10  A    between atoms: C_7  and  C_43
   11  A    between atoms: C_10  and  C_32
   12  A    between atoms: C_11  and  C_29
   13  A    between atoms: C_11  and  C_38
   14  A    between atoms: C_12  and  O_14
   15  A    between atoms: O_14  and  C_46
   16  A    between atoms: C_16  and  C_17
   17  A    between atoms: C_16  and  C_26
   18  A    between atoms: C_17  and  C_23
   19  A    between atoms: C_17  and  C_37
   20  A    between atoms: O_20  and  C_30
   21  A    between atoms: C_26  and  C_45
   22  A    between atoms: C_28  and  C_33
   23  A    between atoms: C_32  and  O_39
   24  A    between atoms: C_33  and  C_49
   25  A    between atoms: C_33  and  C_52
   26  A    between atoms: C_34  and  O_39
   27  A    between atoms: C_34  and  C_52
   28  A    between atoms: C_35  and  C_43
   29  A    between atoms: C_45  and  C_49
                            x       y       z     vdW  Elec       q    Type
                         _______ _______ _______ _____ _____    ______ ____

>  <TORSDO>
F 29

$$$$
=
 OpenBabel11052415143D

 55 55  0  0  1  0  0  0  0  0999 V2000
  190.6830  177.5640  140.7740 C   0  0  2  0  0  3  0  0  0  0  0  0
  192.9070  177.5140  139.8630 O   0  0  0  0  0  0  0  0  0  0  0  0
  192.1790  177.4780  140.8910 C   0  0  0  0  0  0  0  0  0  0  0  0
  192.7800  177.3660  142.1750 N   0  0  0  0  0  1  0  0  0  0  0  0
  189.9840  177.2010  142.0980 C   0  0  2  0  0  3  0  0  0  0  0  0
  189.1070  175.9590  141.9590 C   0  0  0  0  0  1  0  0  0  0  0  0
  190.1160  179.2790  143.2720 O   0  0  0  0  0  1  0  0  0  0  0  0
  189.2070  178.3660  142.7310 C   0  0  2  0  0  3  0  0  0  0  0  0
  187.8490  176.5660  143.5880 O   0  0  0  0  0  1  0  0  0  0  0  0
  188.2010  177.9020  143.7920 C   0  0  1  0  0  3  0  0  0  0  0  0
  188.8010  178.0510  145.1800 C   0  0  0  0  0  2  0  0  0  0  0  0
  187.8290  177.5900  146.2650 C   0  0  1  0  0  3  0  0  0  0  0  0
  188.1080  177.8790  148.6320 O   0  0  0  0  0  1  0  0  0  0  0  0
  188.5550  177.1340  147.5370 C   0  0  2  0  0  3  0  0  0  0  0  0
  190.0760  177.2430  147.4140 C   0  0  0  0  0  2  0  0  0  0  0  0
  190.7030  176.0100  147.7480 O   0  0  0  0  0  0  0  0  0  0  0  0
  192.0600  175.7680  147.5110 C   0  0  0  0  0  0  0  0  0  0  0  0
  192.4290  175.0840  146.5170 O   0  0  0  0  0  0  0  0  0  0  0  0
  193.0650  176.3300  148.4200 C   0  0  0  0  0  0  0  0  0  0  0  0
  194.2520  175.9090  148.3870 O   0  0  0  0  0  0  0  0  0  0  0  0
  192.7000  177.3390  149.3560 N   0  0  0  0  0  1  0  0  0  0  0  0
  186.8200  178.6920  146.5680 C   0  0  0  0  0  2  0  0  0  0  0  0
  185.4930  178.2030  146.4360 O   0  0  0  0  0  0  0  0  0  0  0  0
  185.3350  178.6470  144.0730 C   0  0  0  0  0  3  0  0  0  0  0  0
  182.5490  178.8170  144.2520 C   0  0  0  0  0  0  0  0  0  0  0  0
  183.3090  178.5560  145.3940 C   0  0  0  0  0  3  0  0  0  0  0  0
  184.5750  178.9080  142.9290 C   0  0  0  0  0  3  0  0  0  0  0  0
  184.7100  178.4680  145.3110 C   0  0  0  0  0  0  0  0  0  0  0  0
  181.2000  178.9000  144.3390 F   0  0  0  0  0  0  0  0  0  0  0  0
  183.1820  178.9920  143.0190 C   0  0  0  0  0  3  0  0  0  0  0  0
  190.9610  175.5910  139.3540 O   0  0  0  0  0  1  0  0  0  0  0  0
  190.1450  176.6930  139.6220 C   0  0  2  0  0  3  0  0  0  0  0  0
  189.7280  177.4340  138.3410 C   0  0  2  0  0  3  0  0  0  0  0  0
  189.0810  179.5690  137.3810 O   0  0  0  0  0  1  0  0  0  0  0  0
  189.0140  178.7810  138.5350 C   0  0  1  0  0  3  0  0  0  0  0  0
  187.2160  178.2570  140.1870 O   0  0  0  0  0  1  0  0  0  0  0  0
  187.5770  178.5500  138.8800 C   0  0  0  0  0  0  0  0  0  0  0  0
  186.6920  178.5870  137.9830 O   0  0  0  0  0  0  0  0  0  0  0  0
  188.9020  176.5170  137.4310 C   0  0  0  0  0  2  0  0  0  0  0  0
  189.6180  176.1580  136.1220 C   0  0  2  0  0  0  0  0  0  0  0  0
  188.1120  174.2160  136.2620 O   0  0  0  0  0  1  0  0  0  0  0  0
  189.4050  174.6290  135.9190 C   0  0  2  0  0  3  0  0  0  0  0  0
  190.4570  173.7580  136.6250 C   0  0  1  0  0  3  0  0  0  0  0  0
  189.8740  172.9720  137.6210 O   0  0  0  0  0  1  0  0  0  0  0  0
  192.5610  172.4040  135.9820 C   0  0  0  0  0  1  0  0  0  0  0  0
  191.1930  172.8880  135.6510 C   0  0  0  0  0  0  0  0  0  0  0  0
  190.6740  172.5590  134.5950 O   0  0  0  0  0  0  0  0  0  0  0  0
  191.1100  176.5010  136.3560 C   0  0  0  0  0  2  0  0  0  0  0  0
  191.8870  176.3820  135.2000 O   0  0  0  0  0  0  0  0  0  0  0  0
  193.1740  176.1250  135.6700 C   0  0  0  0  0  2  0  0  0  0  0  0
  193.1860  176.2300  137.1830 C   0  0  0  0  0  1  0  0  0  0  0  0
  189.0240  176.9460  135.0950 O   0  0  0  0  0  0  0  0  0  0  0  0
  187.6490  176.6860  134.9760 C   0  0  0  0  0  2  0  0  0  0  0  0
  186.9060  177.9820  134.7100 C   0  0  0  0  0  2  0  0  0  0  0  0
  185.5310  177.7510  134.7130 O   0  0  0  0  0  1  0  0  0  0  0  0
  1  3  1  1  0  0  0
  1  5  1  0  0  0  0
  2  3  2  0  0  0  0
  3  4  1  0  0  0  0
  5  6  1  6  0  0  0
  5  8  1  0  0  0  0
  8  7  1  1  0  0  0
  8 10  1  0  0  0  0
 10  9  1  6  0  0  0
 10 11  1  0  0  0  0
 12 11  1  6  0  0  0
 12 22  1  0  0  0  0
 12 14  1  0  0  0  0
 14 13  1  1  0  0  0
 15 14  1  0  0  0  0
 15 16  1  0  0  0  0
 17 16  1  0  0  0  0
 17 19  1  0  0  0  0
 18 17  2  0  0  0  0
 19 21  1  0  0  0  0
 20 19  2  0  0  0  0
 23 22  1  0  0  0  0
 24 28  1  0  0  0  0
 25 29  1  0  0  0  0
 25 26  1  0  0  0  0
 27 30  1  0  0  0  0
 27 24  2  0  0  0  0
 28 26  2  0  0  0  0
 28 23  1  0  0  0  0
 30 25  2  0  0  0  0
 32 31  1  6  0  0  0
 32  1  1  0  0  0  0
 33 39  1  1  0  0  0
 33 35  1  0  0  0  0
 33 32  1  0  0  0  0
 35 34  1  6  0  0  0
 35 37  1  0  0  0  0
 37 36  1  0  0  0  0
 38 37  2  0  0  0  0
 40 48  1  1  0  0  0
 40 39  1  0  0  0  0
 42 40  1  0  0  0  0
 42 41  1  1  0  0  0
 42 43  1  0  0  0  0
 43 44  1  1  0  0  0
 46 45  1  0  0  0  0
 46 43  1  0  0  0  0
 47 46  2  0  0  0  0
 49 50  1  0  0  0  0
 49 48  1  0  0  0  0
 50 51  1  0  0  0  0
 52 40  1  0  0  0  0
 53 52  1  0  0  0  0
 54 55  1  0  0  0  0
 54 53  1  0  0  0  0
M  END
>  <MODEL>
5

>  <REMARK>
 VINA RESULT:      -4.5      3.691      6.011
  Name = 
  29 active torsions:
  status: ('A' for Active; 'I' for Inactive)
    1  A    between atoms: C_1  and  C_30
    2  A    between atoms: O_2  and  C_28
    3  A    between atoms: O_2  and  C_44
    4  A    between atoms: C_6  and  C_8
    5  A    between atoms: C_6  and  O_20
    6  A    between atoms: C_6  and  C_38
    7  A    between atoms: C_6  and  C_46
    8  A    between atoms: C_7  and  C_8
    9  A    between atoms: C_7  and  C_23
   10  A    between atoms: C_7  and  C_43
   11  A    between atoms: C_10  and  C_32
   12  A    between atoms: C_11  and  C_29
   13  A    between atoms: C_11  and  C_38
   14  A    between atoms: C_12  and  O_14
   15  A    between atoms: O_14  and  C_46
   16  A    between atoms: C_16  and  C_17
   17  A    between atoms: C_16  and  C_26
   18  A    between atoms: C_17  and  C_23
   19  A    between atoms: C_17  and  C_37
   20  A    between atoms: O_20  and  C_30
   21  A    between atoms: C_26  and  C_45
   22  A    between atoms: C_28  and  C_33
   23  A    between atoms: C_32  and  O_39
   24  A    between atoms: C_33  and  C_49
   25  A    between atoms: C_33  and  C_52
   26  A    between atoms: C_34  and  O_39
   27  A    between atoms: C_34  and  C_52
   28  A    between atoms: C_35  and  C_43
   29  A    between atoms: C_45  and  C_49
                            x       y       z     vdW  Elec       q    Type
                         _______ _______ _______ _____ _____    ______ ____

>  <TORSDO>
F 29

$$$$
=
 OpenBabel11052415143D

 55 55  0  0  1  0  0  0  0  0999 V2000
  188.3690  177.6990  138.5290 C   0  0  2  0  0  3  0  0  0  0  0  0
  189.9830  176.1780  139.4570 O   0  0  0  0  0  0  0  0  0  0  0  0
  189.6760  176.9570  138.5150 C   0  0  0  0  0  0  0  0  0  0  0  0
  190.5720  177.1270  137.4240 N   0  0  0  0  0  1  0  0  0  0  0  0
  188.1700  178.4830  139.8390 C   0  0  2  0  0  3  0  0  0  0  0  0
  189.3770  178.3610  140.7670 C   0  0  0  0  0  1  0  0  0  0  0  0
  186.1040  179.3110  140.7120 O   0  0  0  0  0  1  0  0  0  0  0  0
  186.8630  178.1450  140.5740 C   0  0  2  0  0  3  0  0  0  0  0  0
  188.3640  176.8880  141.9820 O   0  0  0  0  0  1  0  0  0  0  0  0
  187.1020  177.4840  141.9370 C   0  0  1  0  0  3  0  0  0  0  0  0
  187.0040  178.5200  143.0440 C   0  0  0  0  0  2  0  0  0  0  0  0
  185.9810  178.1150  144.1040 C   0  0  1  0  0  3  0  0  0  0  0  0
  186.7660  178.7750  146.2750 O   0  0  0  0  0  1  0  0  0  0  0  0
  186.6480  177.6800  145.4160 C   0  0  2  0  0  3  0  0  0  0  0  0
  188.0180  177.0390  145.1900 C   0  0  0  0  0  2  0  0  0  0  0  0
  189.0600  177.8800  145.6750 O   0  0  0  0  0  0  0  0  0  0  0  0
  190.2970  177.9920  145.0330 C   0  0  0  0  0  0  0  0  0  0  0  0
  190.5430  178.9670  144.2710 O   0  0  0  0  0  0  0  0  0  0  0  0
  191.3250  176.9700  145.2610 C   0  0  0  0  0  0  0  0  0  0  0  0
  191.7430  176.2690  144.3010 O   0  0  0  0  0  0  0  0  0  0  0  0
  191.8420  176.7540  146.5700 N   0  0  0  0  0  1  0  0  0  0  0  0
  184.9900  179.2490  144.3380 C   0  0  0  0  0  2  0  0  0  0  0  0
  183.6920  178.7320  144.5920 O   0  0  0  0  0  0  0  0  0  0  0  0
  183.0500  178.6960  142.2700 C   0  0  0  0  0  3  0  0  0  0  0  0
  180.3440  178.7330  142.9770 C   0  0  0  0  0  0  0  0  0  0  0  0
  181.3270  178.7460  143.9700 C   0  0  0  0  0  3  0  0  0  0  0  0
  182.0660  178.6830  141.2760 C   0  0  0  0  0  3  0  0  0  0  0  0
  182.6890  178.7250  143.6210 C   0  0  0  0  0  0  0  0  0  0  0  0
  179.0340  178.7520  143.3200 F   0  0  0  0  0  0  0  0  0  0  0  0
  180.7140  178.7000  141.6300 C   0  0  0  0  0  3  0  0  0  0  0  0
  187.5560  175.4260  138.1360 O   0  0  0  0  0  1  0  0  0  0  0  0
  187.1720  176.7620  138.2730 C   0  0  2  0  0  3  0  0  0  0  0  0
  186.1820  177.1990  137.1800 C   0  0  2  0  0  3  0  0  0  0  0  0
  187.3810  179.2740  136.7820 O   0  0  0  0  0  1  0  0  0  0  0  0
  186.7040  178.2220  136.1580 C   0  0  1  0  0  3  0  0  0  0  0  0
  187.3800  176.2530  134.7790 O   0  0  0  0  0  0  0  0  0  0  0  0
  187.6320  177.5500  135.1960 C   0  0  0  0  0  0  0  0  0  0  0  0
  188.6650  178.1460  134.7860 O   0  0  0  0  0  1  0  0  0  0  0  0
  184.8690  177.6860  137.8030 C   0  0  0  0  0  2  0  0  0  0  0  0
  183.6480  176.8720  137.3560 C   0  0  2  0  0  0  0  0  0  0  0  0
  183.9480  176.4900  134.9430 O   0  0  0  0  0  1  0  0  0  0  0  0
  184.1470  175.9380  136.2140 C   0  0  2  0  0  3  0  0  0  0  0  0
  183.5720  174.5140  136.2830 C   0  0  1  0  0  3  0  0  0  0  0  0
  182.2650  174.4750  135.7910 O   0  0  0  0  0  1  0  0  0  0  0  0
  185.8410  173.3240  135.9600 C   0  0  0  0  0  1  0  0  0  0  0  0
  184.4300  173.5390  135.5370 C   0  0  0  0  0  0  0  0  0  0  0  0
  183.9790  172.9050  134.5950 O   0  0  0  0  0  0  0  0  0  0  0  0
  182.6210  177.9100  136.8390 C   0  0  0  0  0  2  0  0  0  0  0  0
  182.7800  179.1730  137.4160 O   0  0  0  0  0  0  0  0  0  0  0  0
  181.4860  179.6840  137.4970 C   0  0  0  0  0  2  0  0  0  0  0  0
  181.4810  180.8980  138.4070 C   0  0  0  0  0  1  0  0  0  0  0  0
  183.1850  176.1580  138.4980 O   0  0  0  0  0  0  0  0  0  0  0  0
  181.7960  176.2900  138.6600 C   0  0  0  0  0  2  0  0  0  0  0  0
  181.3210  175.3690  139.7680 C   0  0  0  0  0  2  0  0  0  0  0  0
  180.1730  174.6900  139.3630 O   0  0  0  0  0  1  0  0  0  0  0  0
  1  3  1  1  0  0  0
  1  5  1  0  0  0  0
  3  2  2  0  0  0  0
  4  3  1  0  0  0  0
  5  8  1  0  0  0  0
  5  6  1  1  0  0  0
  8  7  1  1  0  0  0
  8 10  1  0  0  0  0
 10  9  1  6  0  0  0
 10 11  1  0  0  0  0
 12 11  1  6  0  0  0
 12 22  1  0  0  0  0
 12 14  1  0  0  0  0
 14 13  1  1  0  0  0
 15 14  1  0  0  0  0
 15 16  1  0  0  0  0
 17 19  1  0  0  0  0
 17 16  1  0  0  0  0
 18 17  2  0  0  0  0
 19 21  1  0  0  0  0
 20 19  2  0  0  0  0
 22 23  1  0  0  0  0
 24 28  1  0  0  0  0
 25 29  1  0  0  0  0
 25 26  1  0  0  0  0
 27 30  1  0  0  0  0
 27 24  2  0  0  0  0
 28 26  2  0  0  0  0
 28 23  1  0  0  0  0
 30 25  2  0  0  0  0
 32 31  1  6  0  0  0
 32  1  1  0  0  0  0
 33 39  1  1  0  0  0
 33 32  1  0  0  0  0
 35 34  1  1  0  0  0
 35 33  1  0  0  0  0
 36 37  2  0  0  0  0
 37 35  1  0  0  0  0
 38 37  1  0  0  0  0
 40 48  1  6  0  0  0
 40 39  1  0  0  0  0
 40 52  1  0  0  0  0
 42 41  1  6  0  0  0
 42 43  1  0  0  0  0
 42 40  1  0  0  0  0
 43 44  1  6  0  0  0
 46 45  1  0  0  0  0
 46 43  1  0  0  0  0
 47 46  2  0  0  0  0
 48 49  1  0  0  0  0
 49 50  1  0  0  0  0
 50 51  1  0  0  0  0
 52 53  1  0  0  0  0
 53 54  1  0  0  0  0
 55 54  1  0  0  0  0
M  END
>  <MODEL>
6

>  <REMARK>
 VINA RESULT:      -4.3      1.984      3.684
  Name = 
  29 active torsions:
  status: ('A' for Active; 'I' for Inactive)
    1  A    between atoms: C_1  and  C_30
    2  A    between atoms: O_2  and  C_28
    3  A    between atoms: O_2  and  C_44
    4  A    between atoms: C_6  and  C_8
    5  A    between atoms: C_6  and  O_20
    6  A    between atoms: C_6  and  C_38
    7  A    between atoms: C_6  and  C_46
    8  A    between atoms: C_7  and  C_8
    9  A    between atoms: C_7  and  C_23
   10  A    between atoms: C_7  and  C_43
   11  A    between atoms: C_10  and  C_32
   12  A    between atoms: C_11  and  C_29
   13  A    between atoms: C_11  and  C_38
   14  A    between atoms: C_12  and  O_14
   15  A    between atoms: O_14  and  C_46
   16  A    between atoms: C_16  and  C_17
   17  A    between atoms: C_16  and  C_26
   18  A    between atoms: C_17  and  C_23
   19  A    between atoms: C_17  and  C_37
   20  A    between atoms: O_20  and  C_30
   21  A    between atoms: C_26  and  C_45
   22  A    between atoms: C_28  and  C_33
   23  A    between atoms: C_32  and  O_39
   24  A    between atoms: C_33  and  C_49
   25  A    between atoms: C_33  and  C_52
   26  A    between atoms: C_34  and  O_39
   27  A    between atoms: C_34  and  C_52
   28  A    between atoms: C_35  and  C_43
   29  A    between atoms: C_45  and  C_49
                            x       y       z     vdW  Elec       q    Type
                         _______ _______ _______ _____ _____    ______ ____

>  <TORSDO>
F 29

$$$$
=
 OpenBabel11052415143D

 55 55  0  0  1  0  0  0  0  0999 V2000
  190.0500  177.5950  142.1060 C   0  0  2  0  0  3  0  0  0  0  0  0
  191.9160  178.2550  143.4700 O   0  0  0  0  0  0  0  0  0  0  0  0
  190.8230  178.5820  142.9360 C   0  0  0  0  0  0  0  0  0  0  0  0
  190.3210  179.9000  143.1110 N   0  0  0  0  0  1  0  0  0  0  0  0
  189.0340  176.8070  142.9530 C   0  0  2  0  0  3  0  0  0  0  0  0
  189.3850  175.3230  143.0310 C   0  0  0  0  0  1  0  0  0  0  0  0
  187.5040  177.0170  141.1280 O   0  0  0  0  0  1  0  0  0  0  0  0
  187.5720  177.0140  142.5240 C   0  0  2  0  0  3  0  0  0  0  0  0
  186.7860  179.2550  142.1080 O   0  0  0  0  0  1  0  0  0  0  0  0
  186.9590  178.2940  143.1050 C   0  0  1  0  0  3  0  0  0  0  0  0
  185.6100  177.9850  143.7350 C   0  0  0  0  0  2  0  0  0  0  0  0
  185.1550  179.1090  144.6640 C   0  0  1  0  0  3  0  0  0  0  0  0
  182.9110  178.9870  145.5090 O   0  0  0  0  0  1  0  0  0  0  0  0
  183.6790  179.4750  144.4500 C   0  0  2  0  0  3  0  0  0  0  0  0
  183.1350  178.9520  143.1200 C   0  0  0  0  0  2  0  0  0  0  0  0
  181.9060  179.5890  142.7880 O   0  0  0  0  0  0  0  0  0  0  0  0
  180.9600  179.0030  141.9400 C   0  0  0  0  0  0  0  0  0  0  0  0
  181.0150  179.1810  140.6920 O   0  0  0  0  0  0  0  0  0  0  0  0
  179.9030  178.1600  142.5090 C   0  0  0  0  0  0  0  0  0  0  0  0
  179.4630  178.3940  143.6670 O   0  0  0  0  0  0  0  0  0  0  0  0
  179.3810  177.0650  141.7640 N   0  0  0  0  0  1  0  0  0  0  0  0
  185.4260  178.7320  146.1160 C   0  0  0  0  0  2  0  0  0  0  0  0
  186.2560  177.5820  146.1850 O   0  0  0  0  0  0  0  0  0  0  0  0
  187.6430  178.1420  148.0740 C   0  0  0  0  0  3  0  0  0  0  0  0
  189.9010  177.1380  146.7620 C   0  0  0  0  0  0  0  0  0  0  0  0
  188.6540  177.1050  146.1330 C   0  0  0  0  0  3  0  0  0  0  0  0
  188.8910  178.1740  148.7030 C   0  0  0  0  0  3  0  0  0  0  0  0
  187.5150  177.6060  146.7880 C   0  0  0  0  0  0  0  0  0  0  0  0
  190.9940  176.6520  146.1260 F   0  0  0  0  0  0  0  0  0  0  0  0
  190.0190  177.6710  148.0480 C   0  0  0  0  0  3  0  0  0  0  0  0
  192.2700  176.5930  141.8770 O   0  0  0  0  0  1  0  0  0  0  0  0
  190.9800  176.6320  141.3420 C   0  0  2  0  0  3  0  0  0  0  0  0
  190.9890  176.7590  139.8100 C   0  0  2  0  0  3  0  0  0  0  0  0
  193.0320  178.0190  140.1790 O   0  0  0  0  0  1  0  0  0  0  0  0
  192.1940  177.4870  139.1940 C   0  0  1  0  0  3  0  0  0  0  0  0
  193.9100  177.0250  137.4390 O   0  0  0  0  0  0  0  0  0  0  0  0
  192.9830  176.5380  138.3470 C   0  0  0  0  0  0  0  0  0  0  0  0
  192.7860  175.2960  138.4310 O   0  0  0  0  0  1  0  0  0  0  0  0
  189.6780  177.3760  139.3100 C   0  0  0  0  0  2  0  0  0  0  0  0
  189.1870  176.7690  137.9900 C   0  0  2  0  0  0  0  0  0  0  0  0
  187.0360  176.2500  136.9130 O   0  0  0  0  0  1  0  0  0  0  0  0
  187.6310  176.8160  138.0450 C   0  0  2  0  0  3  0  0  0  0  0  0
  187.0640  178.2200  138.3120 C   0  0  1  0  0  3  0  0  0  0  0  0
  187.3900  179.0990  137.2760 O   0  0  0  0  0  1  0  0  0  0  0  0
  184.9340  179.1340  139.4530 C   0  0  0  0  0  1  0  0  0  0  0  0
  185.5780  178.1840  138.5050 C   0  0  0  0  0  0  0  0  0  0  0  0
  184.8870  177.3940  137.8790 O   0  0  0  0  0  0  0  0  0  0  0  0
  189.7150  175.3130  137.9780 C   0  0  0  0  0  2  0  0  0  0  0  0
  189.1570  174.5360  136.9590 O   0  0  0  0  0  0  0  0  0  0  0  0
  190.0920  173.5250  136.7400 C   0  0  0  0  0  2  0  0  0  0  0  0
  189.6800  172.7150  135.5250 C   0  0  0  0  0  1  0  0  0  0  0  0
  189.7330  177.5630  136.9400 O   0  0  0  0  0  0  0  0  0  0  0  0
  190.3930  176.7720  135.9860 C   0  0  0  0  0  2  0  0  0  0  0  0
  189.9010  177.1300  134.5960 C   0  0  0  0  0  2  0  0  0  0  0  0
  188.6740  177.7880  134.6820 O   0  0  0  0  0  1  0  0  0  0  0  0
  1  3  1  1  0  0  0
  1  5  1  0  0  0  0
  3  4  1  0  0  0  0
  3  2  2  0  0  0  0
  5  6  1  6  0  0  0
  8  7  1  6  0  0  0
  8  5  1  0  0  0  0
  8 10  1  0  0  0  0
 10  9  1  6  0  0  0
 10 11  1  0  0  0  0
 12 11  1  6  0  0  0
 12 22  1  0  0  0  0
 14 12  1  0  0  0  0
 14 13  1  1  0  0  0
 15 14  1  0  0  0  0
 16 15  1  0  0  0  0
 17 19  1  0  0  0  0
 17 16  1  0  0  0  0
 18 17  2  0  0  0  0
 19 20  2  0  0  0  0
 21 19  1  0  0  0  0
 22 23  1  0  0  0  0
 23 28  1  0  0  0  0
 24 27  1  0  0  0  0
 25 30  1  0  0  0  0
 26 25  2  0  0  0  0
 26 28  1  0  0  0  0
 28 24  2  0  0  0  0
 29 25  1  0  0  0  0
 30 27  2  0  0  0  0
 32 31  1  1  0  0  0
 32  1  1  0  0  0  0
 33 39  1  1  0  0  0
 33 32  1  0  0  0  0
 35 33  1  0  0  0  0
 35 34  1  1  0  0  0
 36 37  2  0  0  0  0
 37 38  1  0  0  0  0
 37 35  1  0  0  0  0
 40 48  1  6  0  0  0
 40 42  1  0  0  0  0
 40 39  1  0  0  0  0
 42 41  1  6  0  0  0
 42 43  1  0  0  0  0
 43 44  1  6  0  0  0
 43 46  1  0  0  0  0
 46 45  1  0  0  0  0
 47 46  2  0  0  0  0
 49 48  1  0  0  0  0
 50 49  1  0  0  0  0
 51 50  1  0  0  0  0
 52 40  1  0  0  0  0
 53 52  1  0  0  0  0
 54 55  1  0  0  0  0
 54 53  1  0  0  0  0
M  END
>  <MODEL>
7

>  <REMARK>
 VINA RESULT:      -4.2      3.468      7.920
  Name = 
  29 active torsions:
  status: ('A' for Active; 'I' for Inactive)
    1  A    between atoms: C_1  and  C_30
    2  A    between atoms: O_2  and  C_28
    3  A    between atoms: O_2  and  C_44
    4  A    between atoms: C_6  and  C_8
    5  A    between atoms: C_6  and  O_20
    6  A    between atoms: C_6  and  C_38
    7  A    between atoms: C_6  and  C_46
    8  A    between atoms: C_7  and  C_8
    9  A    between atoms: C_7  and  C_23
   10  A    between atoms: C_7  and  C_43
   11  A    between atoms: C_10  and  C_32
   12  A    between atoms: C_11  and  C_29
   13  A    between atoms: C_11  and  C_38
   14  A    between atoms: C_12  and  O_14
   15  A    between atoms: O_14  and  C_46
   16  A    between atoms: C_16  and  C_17
   17  A    between atoms: C_16  and  C_26
   18  A    between atoms: C_17  and  C_23
   19  A    between atoms: C_17  and  C_37
   20  A    between atoms: O_20  and  C_30
   21  A    between atoms: C_26  and  C_45
   22  A    between atoms: C_28  and  C_33
   23  A    between atoms: C_32  and  O_39
   24  A    between atoms: C_33  and  C_49
   25  A    between atoms: C_33  and  C_52
   26  A    between atoms: C_34  and  O_39
   27  A    between atoms: C_34  and  C_52
   28  A    between atoms: C_35  and  C_43
   29  A    between atoms: C_45  and  C_49
                            x       y       z     vdW  Elec       q    Type
                         _______ _______ _______ _____ _____    ______ ____

>  <TORSDO>
F 29

$$$$
=
 OpenBabel11052415143D

 55 55  0  0  1  0  0  0  0  0999 V2000
  185.3830  179.0460  144.2450 C   0  0  2  0  0  3  0  0  0  0  0  0
  183.5930  178.9770  145.8490 O   0  0  0  0  0  0  0  0  0  0  0  0
  184.8020  179.2470  145.6170 C   0  0  0  0  0  0  0  0  0  0  0  0
  185.6270  179.7360  146.6660 N   0  0  0  0  0  1  0  0  0  0  0  0
  184.3080  179.1530  143.1480 C   0  0  2  0  0  3  0  0  0  0  0  0
  183.0240  178.4220  143.5320 C   0  0  0  0  0  1  0  0  0  0  0  0
  185.5940  179.7460  141.2210 O   0  0  0  0  0  1  0  0  0  0  0  0
  184.7970  178.7280  141.7540 C   0  0  2  0  0  3  0  0  0  0  0  0
  183.1330  179.5320  140.2040 O   0  0  0  0  0  1  0  0  0  0  0  0
  183.6470  178.3790  140.8010 C   0  0  1  0  0  3  0  0  0  0  0  0
  184.1370  177.4350  139.7160 C   0  0  0  0  0  2  0  0  0  0  0  0
  184.0790  178.0870  138.3360 C   0  0  1  0  0  3  0  0  0  0  0  0
  185.5830  177.4310  136.5830 O   0  0  0  0  0  1  0  0  0  0  0  0
  185.4720  178.2470  137.7120 C   0  0  2  0  0  3  0  0  0  0  0  0
  186.5950  177.9330  138.7010 C   0  0  0  0  0  2  0  0  0  0  0  0
  187.7070  177.3430  138.0370 O   0  0  0  0  0  0  0  0  0  0  0  0
  188.9650  177.9530  137.9890 C   0  0  0  0  0  0  0  0  0  0  0  0
  189.1180  179.1450  138.3750 O   0  0  0  0  0  0  0  0  0  0  0  0
  190.1190  177.1930  137.4980 C   0  0  0  0  0  0  0  0  0  0  0  0
  191.1220  177.0160  138.2410 O   0  0  0  0  0  0  0  0  0  0  0  0
  190.1200  176.6660  136.1760 N   0  0  0  0  0  1  0  0  0  0  0  0
  183.1500  177.2980  137.4210 C   0  0  0  0  0  2  0  0  0  0  0  0
  182.5780  176.2010  138.1180 O   0  0  0  0  0  0  0  0  0  0  0  0
  181.6870  174.0600  137.4630 C   0  0  0  0  0  3  0  0  0  0  0  0
  184.2700  173.0220  137.1970 C   0  0  0  0  0  0  0  0  0  0  0  0
  184.0870  174.3480  137.5940 C   0  0  0  0  0  3  0  0  0  0  0  0
  181.8700  172.7330  137.0650 C   0  0  0  0  0  3  0  0  0  0  0  0
  182.7910  174.8770  137.7280 C   0  0  0  0  0  0  0  0  0  0  0  0
  185.5210  172.5190  137.0690 F   0  0  0  0  0  0  0  0  0  0  0  0
  183.1610  172.2140  136.9310 C   0  0  0  0  0  3  0  0  0  0  0  0
  185.8640  176.8420  145.1910 O   0  0  0  0  0  1  0  0  0  0  0  0
  186.1410  177.7090  144.1310 C   0  0  2  0  0  3  0  0  0  0  0  0
  187.6460  177.7980  143.8300 C   0  0  2  0  0  3  0  0  0  0  0  0
  188.6890  178.8070  141.8820 O   0  0  0  0  0  1  0  0  0  0  0  0
  188.0560  177.6540  142.3550 C   0  0  1  0  0  3  0  0  0  0  0  0
  190.0570  176.5740  141.3240 O   0  0  0  0  0  0  0  0  0  0  0  0
  188.9850  176.4920  142.1990 C   0  0  0  0  0  0  0  0  0  0  0  0
  188.7810  175.4220  142.8340 O   0  0  0  0  0  1  0  0  0  0  0  0
  188.4320  176.8130  144.7030 C   0  0  0  0  0  2  0  0  0  0  0  0
  189.3200  177.5030  145.7460 C   0  0  2  0  0  0  0  0  0  0  0  0
  189.4140  175.8670  147.5830 O   0  0  0  0  0  1  0  0  0  0  0  0
  190.0990  176.3650  146.4690 C   0  0  2  0  0  3  0  0  0  0  0  0
  191.5410  176.7440  146.8440 C   0  0  1  0  0  3  0  0  0  0  0  0
  191.5790  177.4390  148.0560 O   0  0  0  0  0  1  0  0  0  0  0  0
  192.4370  174.5610  145.7940 C   0  0  0  0  0  1  0  0  0  0  0  0
  192.4250  175.5360  146.9190 C   0  0  0  0  0  0  0  0  0  0  0  0
  193.1490  175.3510  147.8860 O   0  0  0  0  0  0  0  0  0  0  0  0
  188.3470  178.2290  146.7070 C   0  0  0  0  0  2  0  0  0  0  0  0
  187.9700  177.4450  147.8010 O   0  0  0  0  0  0  0  0  0  0  0  0
  188.2690  178.2320  148.9130 C   0  0  0  0  0  2  0  0  0  0  0  0
  187.1620  178.0910  149.9400 C   0  0  0  0  0  1  0  0  0  0  0  0
  190.1710  178.4000  145.0390 O   0  0  0  0  0  0  0  0  0  0  0  0
  191.1550  177.7110  144.3110 C   0  0  0  0  0  2  0  0  0  0  0  0
  192.0490  178.7060  143.5940 C   0  0  0  0  0  2  0  0  0  0  0  0
  191.5360  179.9950  143.7360 O   0  0  0  0  0  1  0  0  0  0  0  0
  1  3  1  1  0  0  0
  3  2  2  0  0  0  0
  3  4  1  0  0  0  0
  5  6  1  1  0  0  0
  5  1  1  0  0  0  0
  8  7  1  6  0  0  0
  8  5  1  0  0  0  0
 10  9  1  6  0  0  0
 10  8  1  0  0  0  0
 11 10  1  0  0  0  0
 12 22  1  6  0  0  0
 12 11  1  0  0  0  0
 14 13  1  6  0  0  0
 14 12  1  0  0  0  0
 14 15  1  0  0  0  0
 16 15  1  0  0  0  0
 17 16  1  0  0  0  0
 17 18  2  0  0  0  0
 19 17  1  0  0  0  0
 19 20  2  0  0  0  0
 21 19  1  0  0  0  0
 22 23  1  0  0  0  0
 24 28  1  0  0  0  0
 25 26  1  0  0  0  0
 26 28  2  0  0  0  0
 27 24  2  0  0  0  0
 28 23  1  0  0  0  0
 29 25  1  0  0  0  0
 30 27  1  0  0  0  0
 30 25  2  0  0  0  0
 32  1  1  0  0  0  0
 32 31  1  1  0  0  0
 33 32  1  0  0  0  0
 33 39  1  1  0  0  0
 35 34  1  1  0  0  0
 35 33  1  0  0  0  0
 36 37  2  0  0  0  0
 37 35  1  0  0  0  0
 37 38  1  0  0  0  0
 40 39  1  6  0  0  0
 40 42  1  0  0  0  0
 40 48  1  0  0  0  0
 42 43  1  0  0  0  0
 42 41  1  1  0  0  0
 43 46  1  0  0  0  0
 43 44  1  1  0  0  0
 45 46  1  0  0  0  0
 46 47  2  0  0  0  0
 48 49  1  0  0  0  0
 49 50  1  0  0  0  0
 50 51  1  0  0  0  0
 52 40  1  0  0  0  0
 53 52  1  0  0  0  0
 54 55  1  0  0  0  0
 54 53  1  0  0  0  0
M  END
>  <MODEL>
8

>  <REMARK>
 VINA RESULT:      -4.0      2.459     10.101
  Name = 
  29 active torsions:
  status: ('A' for Active; 'I' for Inactive)
    1  A    between atoms: C_1  and  C_30
    2  A    between atoms: O_2  and  C_28
    3  A    between atoms: O_2  and  C_44
    4  A    between atoms: C_6  and  C_8
    5  A    between atoms: C_6  and  O_20
    6  A    between atoms: C_6  and  C_38
    7  A    between atoms: C_6  and  C_46
    8  A    between atoms: C_7  and  C_8
    9  A    between atoms: C_7  and  C_23
   10  A    between atoms: C_7  and  C_43
   11  A    between atoms: C_10  and  C_32
   12  A    between atoms: C_11  and  C_29
   13  A    between atoms: C_11  and  C_38
   14  A    between atoms: C_12  and  O_14
   15  A    between atoms: O_14  and  C_46
   16  A    between atoms: C_16  and  C_17
   17  A    between atoms: C_16  and  C_26
   18  A    between atoms: C_17  and  C_23
   19  A    between atoms: C_17  and  C_37
   20  A    between atoms: O_20  and  C_30
   21  A    between atoms: C_26  and  C_45
   22  A    between atoms: C_28  and  C_33
   23  A    between atoms: C_32  and  O_39
   24  A    between atoms: C_33  and  C_49
   25  A    between atoms: C_33  and  C_52
   26  A    between atoms: C_34  and  O_39
   27  A    between atoms: C_34  and  C_52
   28  A    between atoms: C_35  and  C_43
   29  A    between atoms: C_45  and  C_49
                            x       y       z     vdW  Elec       q    Type
                         _______ _______ _______ _____ _____    ______ ____

>  <TORSDO>
F 29

$$$$
=
 OpenBabel11052415143D

 55 55  0  0  1  0  0  0  0  0999 V2000
  185.5010  179.1660  143.8960 C   0  0  2  0  0  3  0  0  0  0  0  0
  185.5240  180.0320  146.1380 O   0  0  0  0  0  0  0  0  0  0  0  0
  184.8780  179.4320  145.2380 C   0  0  0  0  0  0  0  0  0  0  0  0
  183.5440  179.0100  145.4910 N   0  0  0  0  0  1  0  0  0  0  0  0
  184.4860  179.3370  142.7500 C   0  0  2  0  0  3  0  0  0  0  0  0
  183.1680  178.6250  143.0440 C   0  0  0  0  0  1  0  0  0  0  0  0
  186.1480  179.7430  141.0800 O   0  0  0  0  0  1  0  0  0  0  0  0
  185.0360  178.9480  141.3680 C   0  0  2  0  0  3  0  0  0  0  0  0
  184.2670  180.1300  139.4120 O   0  0  0  0  0  1  0  0  0  0  0  0
  183.9830  179.0570  140.2580 C   0  0  1  0  0  3  0  0  0  0  0  0
  183.9520  177.7750  139.4420 C   0  0  0  0  0  2  0  0  0  0  0  0
  183.4440  178.0260  138.0230 C   0  0  1  0  0  3  0  0  0  0  0  0
  183.6380  176.2910  136.3740 O   0  0  0  0  0  1  0  0  0  0  0  0
  184.3280  177.3530  136.9640 C   0  0  2  0  0  3  0  0  0  0  0  0
  185.6580  176.8630  137.5390 C   0  0  0  0  0  2  0  0  0  0  0  0
  186.7470  177.2640  136.7150 O   0  0  0  0  0  0  0  0  0  0  0  0
  187.8560  176.4430  136.4820 C   0  0  0  0  0  0  0  0  0  0  0  0
  187.7670  175.1900  136.6020 O   0  0  0  0  0  0  0  0  0  0  0  0
  189.1300  177.0480  136.0800 C   0  0  0  0  0  0  0  0  0  0  0  0
  189.2520  177.5610  134.9350 O   0  0  0  0  0  0  0  0  0  0  0  0
  190.2400  177.0410  136.9720 N   0  0  0  0  0  1  0  0  0  0  0  0
  181.9920  177.5760  137.8980 C   0  0  0  0  0  2  0  0  0  0  0  0
  181.1220  178.5330  138.4850 O   0  0  0  0  0  0  0  0  0  0  0  0
  180.8600  180.9040  138.8200 C   0  0  0  0  0  3  0  0  0  0  0  0
  180.7090  181.3180  136.0570 C   0  0  0  0  0  0  0  0  0  0  0  0
  180.8740  180.0260  136.5640 C   0  0  0  0  0  3  0  0  0  0  0  0
  180.6950  182.1970  138.3130 C   0  0  0  0  0  3  0  0  0  0  0  0
  180.9520  179.8120  137.9510 C   0  0  0  0  0  0  0  0  0  0  0  0
  180.6350  181.5170  134.7200 F   0  0  0  0  0  0  0  0  0  0  0  0
  180.6210  182.4030  136.9330 C   0  0  0  0  0  3  0  0  0  0  0  0
  185.6800  176.9070  144.8170 O   0  0  0  0  0  1  0  0  0  0  0  0
  186.1590  177.7740  143.8310 C   0  0  2  0  0  3  0  0  0  0  0  0
  187.6930  177.7460  143.7280 C   0  0  2  0  0  3  0  0  0  0  0  0
  189.0210  178.4500  141.8190 O   0  0  0  0  0  1  0  0  0  0  0  0
  188.2760  177.3920  142.3500 C   0  0  1  0  0  3  0  0  0  0  0  0
  188.6820  175.0360  143.0700 O   0  0  0  0  0  1  0  0  0  0  0  0
  189.1580  176.1890  142.4660 C   0  0  0  0  0  0  0  0  0  0  0  0
  190.3460  176.2270  142.0450 O   0  0  0  0  0  0  0  0  0  0  0  0
  188.2920  176.8400  144.8100 C   0  0  0  0  0  2  0  0  0  0  0  0
  189.2270  177.5850  145.7730 C   0  0  2  0  0  0  0  0  0  0  0  0
  189.2860  175.7060  147.3620 O   0  0  0  0  0  1  0  0  0  0  0  0
  190.0610  176.4880  146.4980 C   0  0  2  0  0  3  0  0  0  0  0  0
  191.3010  177.0330  147.2250 C   0  0  1  0  0  3  0  0  0  0  0  0
  190.9520  177.6250  148.4410 O   0  0  0  0  0  1  0  0  0  0  0  0
  192.4270  174.8270  146.4890 C   0  0  0  0  0  1  0  0  0  0  0  0
  192.3210  175.9590  147.4510 C   0  0  0  0  0  0  0  0  0  0  0  0
  193.0790  176.0100  148.4090 O   0  0  0  0  0  0  0  0  0  0  0  0
  188.2980  178.3400  146.7560 C   0  0  0  0  0  2  0  0  0  0  0  0
  187.4990  177.4850  147.5200 O   0  0  0  0  0  0  0  0  0  0  0  0
  187.5050  178.0490  148.7950 C   0  0  0  0  0  2  0  0  0  0  0  0
  186.8840  179.4320  148.7350 C   0  0  0  0  0  1  0  0  0  0  0  0
  190.0240  178.4610  144.9820 O   0  0  0  0  0  0  0  0  0  0  0  0
  191.2580  177.8780  144.6530 C   0  0  0  0  0  2  0  0  0  0  0  0
  192.0570  178.8310  143.7820 C   0  0  0  0  0  2  0  0  0  0  0  0
  191.7770  180.1500  144.1410 O   0  0  0  0  0  1  0  0  0  0  0  0
  1  3  1  1  0  0  0
  3  4  1  0  0  0  0
  3  2  2  0  0  0  0
  5  6  1  1  0  0  0
  5  1  1  0  0  0  0
  8  7  1  6  0  0  0
  8  5  1  0  0  0  0
 10  9  1  6  0  0  0
 10  8  1  0  0  0  0
 11 10  1  0  0  0  0
 12 22  1  1  0  0  0
 12 11  1  0  0  0  0
 14 13  1  1  0  0  0
 14 15  1  0  0  0  0
 14 12  1  0  0  0  0
 16 15  1  0  0  0  0
 17 18  2  0  0  0  0
 17 16  1  0  0  0  0
 19 17  1  0  0  0  0
 19 21  1  0  0  0  0
 20 19  2  0  0  0  0
 22 23  1  0  0  0  0
 25 26  2  0  0  0  0
 25 30  1  0  0  0  0
 26 28  1  0  0  0  0
 27 24  1  0  0  0  0
 28 23  1  0  0  0  0
 28 24  2  0  0  0  0
 29 25  1  0  0  0  0
 30 27  2  0  0  0  0
 32  1  1  0  0  0  0
 32 31  1  1  0  0  0
 33 32  1  0  0  0  0
 33 39  1  1  0  0  0
 35 34  1  1  0  0  0
 35 37  1  0  0  0  0
 35 33  1  0  0  0  0
 37 36  1  0  0  0  0
 38 37  2  0  0  0  0
 40 39  1  6  0  0  0
 40 42  1  0  0  0  0
 40 48  1  0  0  0  0
 42 43  1  0  0  0  0
 42 41  1  1  0  0  0
 43 46  1  0  0  0  0
 43 44  1  1  0  0  0
 45 46  1  0  0  0  0
 46 47  2  0  0  0  0
 48 49  1  0  0  0  0
 49 50  1  0  0  0  0
 51 50  1  0  0  0  0
 52 40  1  0  0  0  0
 53 52  1  0  0  0  0
 54 55  1  0  0  0  0
 54 53  1  0  0  0  0
M  END
>  <MODEL>
9

>  <REMARK>
 VINA RESULT:      -3.8      2.805     10.299
  Name = 
  29 active torsions:
  status: ('A' for Active; 'I' for Inactive)
    1  A    between atoms: C_1  and  C_30
    2  A    between atoms: O_2  and  C_28
    3  A    between atoms: O_2  and  C_44
    4  A    between atoms: C_6  and  C_8
    5  A    between atoms: C_6  and  O_20
    6  A    between atoms: C_6  and  C_38
    7  A    between atoms: C_6  and  C_46
    8  A    between atoms: C_7  and  C_8
    9  A    between atoms: C_7  and  C_23
   10  A    between atoms: C_7  and  C_43
   11  A    between atoms: C_10  and  C_32
   12  A    between atoms: C_11  and  C_29
   13  A    between atoms: C_11  and  C_38
   14  A    between atoms: C_12  and  O_14
   15  A    between atoms: O_14  and  C_46
   16  A    between atoms: C_16  and  C_17
   17  A    between atoms: C_16  and  C_26
   18  A    between atoms: C_17  and  C_23
   19  A    between atoms: C_17  and  C_37
   20  A    between atoms: O_20  and  C_30
   21  A    between atoms: C_26  and  C_45
   22  A    between atoms: C_28  and  C_33
   23  A    between atoms: C_32  and  O_39
   24  A    between atoms: C_33  and  C_49
   25  A    between atoms: C_33  and  C_52
   26  A    between atoms: C_34  and  O_39
   27  A    between atoms: C_34  and  C_52
   28  A    between atoms: C_35  and  C_43
   29  A    between atoms: C_45  and  C_49
                            x       y       z     vdW  Elec       q    Type
                         _______ _______ _______ _____ _____    ______ ____

>  <TORSDO>
F 29

$$$$
