=
 OpenBabel11052413103D

 31 35  0  0  1  0  0  0  0  0999 V2000
  182.6470  179.0220  139.5900 C   0  0  0  0  0  0  0  0  0  0  0  0
  186.3710  178.6400  140.0440 N   0  0  0  0  0  0  0  0  0  0  0  0
  187.1630  178.5030  138.8730 C   0  0  0  0  0  0  0  0  0  0  0  0
  187.6090  178.2580  136.5810 C   0  0  0  0  0  0  0  0  0  0  0  0
  184.9480  178.3500  140.1950 C   0  0  2  0  0  3  0  0  0  0  0  0
  182.1900  178.6880  140.8060 C   0  0  0  0  0  3  0  0  0  0  0  0
  186.7160  178.4730  137.5920 N   0  0  0  0  0  2  0  0  0  0  0  0
  186.9070  178.2820  142.3640 C   0  0  0  0  0  0  0  0  0  0  0  0
  181.7150  179.0220  138.4280 C   0  0  0  0  0  1  0  0  0  0  0  0
  189.7860  177.6450  141.2860 C   0  0  0  0  0  1  0  0  0  0  0  0
  187.2110  178.2450  135.3880 O   0  0  0  0  0  0  0  0  0  0  0  0
  185.4530  178.3850  142.6370 C   0  0  0  0  0  3  0  0  0  0  0  0
  187.3160  178.4190  141.0950 C   0  0  0  0  0  0  0  0  0  0  0  0
  184.1040  179.3190  139.3720 C   0  0  0  0  0  2  0  0  0  0  0  0
  188.9750  178.0440  136.8660 C   0  0  0  0  0  3  0  0  0  0  0  0
  184.5400  178.4480  141.6560 C   0  0  0  0  0  0  0  0  0  0  0  0
  183.0920  178.6330  142.0180 C   0  0  0  0  0  2  0  0  0  0  0  0
  188.6610  178.2670  140.6040 N   0  0  0  0  0  0  0  0  0  0  0  0
  188.4820  178.2970  139.1900 C   0  0  0  0  0  0  0  0  0  0  0  0
  189.4260  178.0510  138.1960 C   0  0  0  0  0  3  0  0  0  0  0  0
  187.9270  175.7430  143.4070 O   0  0  0  0  0  0  0  0  0  0  0  0
  188.3400  176.8190  143.9140 C   0  0  0  0  0  0  0  0  0  0  0  0
  187.8600  178.0790  143.4170 N   0  0  0  0  0  2  0  0  0  0  0  0
  191.3150  176.7440  147.0190 C   0  0  0  0  0  0  0  0  0  0  0  0
  190.6610  176.5000  144.7080 C   0  0  0  0  0  3  0  0  0  0  0  0
  187.3770  177.4940  146.9220 Cl  0  0  0  0  0  0  0  0  0  0  0  0
  192.2710  176.7130  147.9790 F   0  0  0  0  0  0  0  0  0  0  0  0
  191.6480  176.4670  145.6940 C   0  0  0  0  0  3  0  0  0  0  0  0
  188.9990  177.0890  146.3760 C   0  0  0  0  0  0  0  0  0  0  0  0
  189.3280  176.8080  145.0240 C   0  0  0  0  0  0  0  0  0  0  0  0
  189.9980  177.0530  147.3560 C   0  0  0  0  0  3  0  0  0  0  0  0
  1  6  2  0  0  0  0
  2  5  1  0  0  0  0
  2 13  1  0  0  0  0
  3 19  2  0  0  0  0
  3  2  1  0  0  0  0
  4 15  1  0  0  0  0
  4  7  1  0  0  0  0
  5 14  1  6  0  0  0
  5 16  1  0  0  0  0
  6 17  1  0  0  0  0
  7  3  1  0  0  0  0
  8 12  1  0  0  0  0
  8 23  1  0  0  0  0
  9  1  1  0  0  0  0
 11  4  2  0  0  0  0
 13  8  2  0  0  0  0
 14  1  1  0  0  0  0
 15 20  2  0  0  0  0
 16 17  1  0  0  0  0
 16 12  2  0  0  0  0
 18 13  1  0  0  0  0
 18 10  1  0  0  0  0
 19 18  1  0  0  0  0
 20 19  1  0  0  0  0
 21 22  2  0  0  0  0
 22 30  1  0  0  0  0
 23 22  1  0  0  0  0
 24 31  1  0  0  0  0
 24 27  1  0  0  0  0
 25 30  2  0  0  0  0
 25 28  1  0  0  0  0
 28 24  2  0  0  0  0
 29 26  1  0  0  0  0
 29 31  2  0  0  0  0
 30 29  1  0  0  0  0
M  END
>  <MODEL>
1

>  <REMARK>
 VINA RESULT:     -10.2      0.000      0.000
  Name = 
  2 active torsions:
  status: ('A' for Active; 'I' for Inactive)
    1  A    between atoms: C_9  and  C_22
    2  A    between atoms: C_15  and  N_23
                            x       y       z     vdW  Elec       q    Type
                         _______ _______ _______ _____ _____    ______ ____

>  <TORSDO>
F 2

$$$$
=
 OpenBabel11052413103D

 31 35  0  0  1  0  0  0  0  0999 V2000
  191.9030  177.4770  140.6290 C   0  0  0  0  0  0  0  0  0  0  0  0
  189.3410  177.6600  143.3910 N   0  0  0  0  0  0  0  0  0  0  0  0
  189.7870  177.4060  144.7160 C   0  0  0  0  0  0  0  0  0  0  0  0
  191.2920  176.7930  146.4110 C   0  0  0  0  0  0  0  0  0  0  0  0
  189.9640  177.2260  142.1450 C   0  0  2  0  0  3  0  0  0  0  0  0
  191.1240  177.3230  139.5480 C   0  0  0  0  0  3  0  0  0  0  0  0
  191.0480  177.0800  145.0970 N   0  0  0  0  0  2  0  0  0  0  0  0
  187.1200  177.8150  142.4750 C   0  0  0  0  0  0  0  0  0  0  0  0
  193.3510  177.1410  140.5470 C   0  0  0  0  0  1  0  0  0  0  0  0
  186.1940  177.3550  145.4390 C   0  0  0  0  0  1  0  0  0  0  0  0
  192.4590  176.5060  146.7800 O   0  0  0  0  0  0  0  0  0  0  0  0
  187.7530  177.7830  141.1340 C   0  0  0  0  0  3  0  0  0  0  0  0
  187.9230  177.7610  143.5470 C   0  0  0  0  0  0  0  0  0  0  0  0
  191.3140  177.9090  141.9440 C   0  0  0  0  0  2  0  0  0  0  0  0
  190.2420  176.8100  147.3540 C   0  0  0  0  0  3  0  0  0  0  0  0
  189.0620  177.5450  140.9630 C   0  0  0  0  0  0  0  0  0  0  0  0
  189.6400  177.6110  139.5750 C   0  0  0  0  0  2  0  0  0  0  0  0
  187.5130  177.6900  144.9260 N   0  0  0  0  0  0  0  0  0  0  0  0
  188.7400  177.4310  145.6020 C   0  0  0  0  0  0  0  0  0  0  0  0
  188.9350  177.1240  146.9460 C   0  0  0  0  0  3  0  0  0  0  0  0
  185.2900  179.6130  141.0640 O   0  0  0  0  0  0  0  0  0  0  0  0
  184.8240  178.8300  141.9330 C   0  0  0  0  0  0  0  0  0  0  0  0
  185.6990  177.9340  142.6360 N   0  0  0  0  0  2  0  0  0  0  0  0
  180.6540  178.7990  142.9890 C   0  0  0  0  0  0  0  0  0  0  0  0
  182.9900  178.9170  143.5910 C   0  0  0  0  0  3  0  0  0  0  0  0
  182.6770  178.5750  139.5340 Cl  0  0  0  0  0  0  0  0  0  0  0  0
  179.3480  178.7910  143.3470 F   0  0  0  0  0  0  0  0  0  0  0  0
  181.6450  178.9090  143.9630 C   0  0  0  0  0  3  0  0  0  0  0  0
  182.3550  178.7050  141.2580 C   0  0  0  0  0  0  0  0  0  0  0  0
  183.3710  178.8150  142.2430 C   0  0  0  0  0  0  0  0  0  0  0  0
  181.0100  178.6980  141.6440 C   0  0  0  0  0  3  0  0  0  0  0  0
  1 14  1  0  0  0  0
  2 13  1  0  0  0  0
  2  3  1  0  0  0  0
  3  7  1  0  0  0  0
  3 19  2  0  0  0  0
  4 11  2  0  0  0  0
  4 15  1  0  0  0  0
  5 14  1  6  0  0  0
  5  2  1  0  0  0  0
  6 17  1  0  0  0  0
  6  1  2  0  0  0  0
  7  4  1  0  0  0  0
  8 23  1  0  0  0  0
  8 13  2  0  0  0  0
  9  1  1  0  0  0  0
 12  8  1  0  0  0  0
 13 18  1  0  0  0  0
 16 12  2  0  0  0  0
 16  5  1  0  0  0  0
 17 16  1  0  0  0  0
 18 10  1  0  0  0  0
 18 19  1  0  0  0  0
 19 20  1  0  0  0  0
 20 15  2  0  0  0  0
 21 22  2  0  0  0  0
 22 30  1  0  0  0  0
 22 23  1  0  0  0  0
 24 27  1  0  0  0  0
 24 28  1  0  0  0  0
 25 28  2  0  0  0  0
 26 29  1  0  0  0  0
 29 31  1  0  0  0  0
 29 30  2  0  0  0  0
 30 25  1  0  0  0  0
 31 24  2  0  0  0  0
M  END
>  <MODEL>
2

>  <REMARK>
 VINA RESULT:     -10.2      3.779      8.149
  Name = 
  2 active torsions:
  status: ('A' for Active; 'I' for Inactive)
    1  A    between atoms: C_9  and  C_22
    2  A    between atoms: C_15  and  N_23
                            x       y       z     vdW  Elec       q    Type
                         _______ _______ _______ _____ _____    ______ ____

>  <TORSDO>
F 2

$$$$
=
 OpenBabel11052413103D

 31 35  0  0  1  0  0  0  0  0999 V2000
  184.5860  178.6270  144.3320 C   0  0  0  0  0  0  0  0  0  0  0  0
  188.1240  177.3290  144.1840 N   0  0  0  0  0  0  0  0  0  0  0  0
  188.8460  177.2520  145.4050 C   0  0  0  0  0  0  0  0  0  0  0  0
  189.2520  177.5500  147.6980 C   0  0  0  0  0  0  0  0  0  0  0  0
  186.9760  178.1790  143.8810 C   0  0  2  0  0  3  0  0  0  0  0  0
  184.3730  178.9790  143.0550 C   0  0  0  0  0  3  0  0  0  0  0  0
  188.4000  177.6200  146.6330 N   0  0  0  0  0  2  0  0  0  0  0  0
  188.8640  177.1500  141.8990 C   0  0  0  0  0  0  0  0  0  0  0  0
  183.6970  179.1610  145.4010 C   0  0  0  0  0  1  0  0  0  0  0  0
  191.6840  176.6210  143.1730 C   0  0  0  0  0  1  0  0  0  0  0  0
  188.8470  177.8720  148.8450 O   0  0  0  0  0  0  0  0  0  0  0  0
  187.5220  177.6450  141.5060 C   0  0  0  0  0  3  0  0  0  0  0  0
  189.1170  177.0030  143.2080 C   0  0  0  0  0  0  0  0  0  0  0  0
  185.7600  177.7650  144.7050 C   0  0  0  0  0  2  0  0  0  0  0  0
  190.5880  177.1270  147.5200 C   0  0  0  0  0  3  0  0  0  0  0  0
  186.6300  178.0930  142.4030 C   0  0  0  0  0  0  0  0  0  0  0  0
  185.2620  178.5020  141.9290 C   0  0  0  0  0  2  0  0  0  0  0  0
  190.3720  176.6230  143.8030 N   0  0  0  0  0  0  0  0  0  0  0  0
  190.1360  176.8380  145.1910 C   0  0  0  0  0  0  0  0  0  0  0  0
  191.0480  176.7730  146.2410 C   0  0  0  0  0  3  0  0  0  0  0  0
  189.4130  178.4650  139.3410 O   0  0  0  0  0  0  0  0  0  0  0  0
  190.1010  177.4630  139.6710 C   0  0  0  0  0  0  0  0  0  0  0  0
  189.8560  176.8030  140.9230 N   0  0  0  0  0  2  0  0  0  0  0  0
  193.3190  176.0140  137.2120 C   0  0  0  0  0  0  0  0  0  0  0  0
  192.4880  176.9450  139.2780 C   0  0  0  0  0  3  0  0  0  0  0  0
  189.3610  176.4140  136.7080 Cl  0  0  0  0  0  0  0  0  0  0  0  0
  194.3490  175.5630  136.4570 F   0  0  0  0  0  0  0  0  0  0  0  0
  193.5520  176.4810  138.5040 C   0  0  0  0  0  3  0  0  0  0  0  0
  190.9470  176.4720  137.4640 C   0  0  0  0  0  0  0  0  0  0  0  0
  191.1750  176.9520  138.7810 C   0  0  0  0  0  0  0  0  0  0  0  0
  192.0230  176.0100  136.6970 C   0  0  0  0  0  3  0  0  0  0  0  0
  1 14  1  0  0  0  0
  1  9  1  0  0  0  0
  2  3  1  0  0  0  0
  3  7  1  0  0  0  0
  4 11  2  0  0  0  0
  5  2  1  0  0  0  0
  5 14  1  1  0  0  0
  6  1  2  0  0  0  0
  7  4  1  0  0  0  0
  8 13  2  0  0  0  0
 10 18  1  0  0  0  0
 12  8  1  0  0  0  0
 12 16  2  0  0  0  0
 13 18  1  0  0  0  0
 13  2  1  0  0  0  0
 15  4  1  0  0  0  0
 16  5  1  0  0  0  0
 17 16  1  0  0  0  0
 17  6  1  0  0  0  0
 18 19  1  0  0  0  0
 19  3  2  0  0  0  0
 19 20  1  0  0  0  0
 20 15  2  0  0  0  0
 21 22  2  0  0  0  0
 22 23  1  0  0  0  0
 23  8  1  0  0  0  0
 24 28  1  0  0  0  0
 26 29  1  0  0  0  0
 27 24  1  0  0  0  0
 28 25  2  0  0  0  0
 29 30  2  0  0  0  0
 30 25  1  0  0  0  0
 30 22  1  0  0  0  0
 31 24  2  0  0  0  0
 31 29  1  0  0  0  0
M  END
>  <MODEL>
3

>  <REMARK>
 VINA RESULT:      -9.9      3.795      7.247
  Name = 
  2 active torsions:
  status: ('A' for Active; 'I' for Inactive)
    1  A    between atoms: C_9  and  C_22
    2  A    between atoms: C_15  and  N_23
                            x       y       z     vdW  Elec       q    Type
                         _______ _______ _______ _____ _____    ______ ____

>  <TORSDO>
F 2

$$$$
=
 OpenBabel11052413103D

 31 35  0  0  1  0  0  0  0  0999 V2000
  187.5340  178.0210  136.3470 C   0  0  0  0  0  0  0  0  0  0  0  0
  185.6750  178.2410  139.6200 N   0  0  0  0  0  0  0  0  0  0  0  0
  184.2830  178.5200  139.5650 C   0  0  0  0  0  0  0  0  0  0  0  0
  182.2250  179.0680  138.5770 C   0  0  0  0  0  0  0  0  0  0  0  0
  186.6830  178.5440  138.6090 C   0  0  2  0  0  3  0  0  0  0  0  0
  188.8040  178.1950  136.7450 C   0  0  0  0  0  3  0  0  0  0  0  0
  183.5440  178.7380  138.4480 N   0  0  0  0  0  2  0  0  0  0  0  0
  187.2170  178.2610  141.4690 C   0  0  0  0  0  0  0  0  0  0  0  0
  187.1800  178.2060  134.9120 C   0  0  0  0  0  1  0  0  0  0  0  0
  184.6830  178.9670  143.1810 C   0  0  0  0  0  1  0  0  0  0  0  0
  181.5250  179.2570  137.5490 O   0  0  0  0  0  0  0  0  0  0  0  0
  188.3040  178.1580  140.4650 C   0  0  0  0  0  3  0  0  0  0  0  0
  185.9540  178.2910  141.0220 C   0  0  0  0  0  0  0  0  0  0  0  0
  186.4510  177.7200  137.3450 C   0  0  0  0  0  2  0  0  0  0  0  0
  181.6430  179.2060  139.8560 C   0  0  0  0  0  3  0  0  0  0  0  0
  188.0750  178.2550  139.1460 C   0  0  0  0  0  0  0  0  0  0  0  0
  189.2210  178.0580  138.1910 C   0  0  0  0  0  2  0  0  0  0  0  0
  184.7660  178.4750  141.8150 N   0  0  0  0  0  0  0  0  0  0  0  0
  183.7540  178.6460  140.8250 C   0  0  0  0  0  0  0  0  0  0  0  0
  182.4210  179.0030  141.0080 C   0  0  0  0  0  3  0  0  0  0  0  0
  187.9310  176.0230  143.2180 O   0  0  0  0  0  0  0  0  0  0  0  0
  187.8350  177.1770  143.7140 C   0  0  0  0  0  0  0  0  0  0  0  0
  187.4910  178.2920  142.8770 N   0  0  0  0  0  2  0  0  0  0  0  0
  188.3800  177.8780  147.9220 C   0  0  0  0  0  0  0  0  0  0  0  0
  186.9860  177.8000  145.9520 C   0  0  0  0  0  3  0  0  0  0  0  0
  190.7970  176.7530  144.9270 Cl  0  0  0  0  0  0  0  0  0  0  0  0
  188.5260  178.1060  149.2490 F   0  0  0  0  0  0  0  0  0  0  0  0
  187.1330  178.0350  147.3200 C   0  0  0  0  0  3  0  0  0  0  0  0
  189.3440  177.2460  145.7840 C   0  0  0  0  0  0  0  0  0  0  0  0
  188.0770  177.4050  145.1620 C   0  0  0  0  0  0  0  0  0  0  0  0
  189.4780  177.4850  147.1570 C   0  0  0  0  0  3  0  0  0  0  0  0
  1  6  2  0  0  0  0
  1 14  1  0  0  0  0
  2 13  1  0  0  0  0
  3  2  1  0  0  0  0
  3 19  2  0  0  0  0
  4 15  1  0  0  0  0
  5 14  1  6  0  0  0
  5 16  1  0  0  0  0
  5  2  1  0  0  0  0
  6 17  1  0  0  0  0
  7  4  1  0  0  0  0
  7  3  1  0  0  0  0
  8 23  1  0  0  0  0
  9  1  1  0  0  0  0
 11  4  2  0  0  0  0
 12  8  1  0  0  0  0
 13  8  2  0  0  0  0
 13 18  1  0  0  0  0
 15 20  2  0  0  0  0
 16 12  2  0  0  0  0
 17 16  1  0  0  0  0
 18 10  1  0  0  0  0
 19 20  1  0  0  0  0
 19 18  1  0  0  0  0
 21 22  2  0  0  0  0
 22 30  1  0  0  0  0
 23 22  1  0  0  0  0
 24 27  1  0  0  0  0
 25 28  2  0  0  0  0
 26 29  1  0  0  0  0
 28 24  1  0  0  0  0
 29 31  1  0  0  0  0
 30 29  2  0  0  0  0
 30 25  1  0  0  0  0
 31 24  2  0  0  0  0
M  END
>  <MODEL>
4

>  <REMARK>
 VINA RESULT:      -9.7      1.970      4.478
  Name = 
  2 active torsions:
  status: ('A' for Active; 'I' for Inactive)
    1  A    between atoms: C_9  and  C_22
    2  A    between atoms: C_15  and  N_23
                            x       y       z     vdW  Elec       q    Type
                         _______ _______ _______ _____ _____    ______ ____

>  <TORSDO>
F 2

$$$$
=
 OpenBabel11052413103D

 31 35  0  0  1  0  0  0  0  0999 V2000
  189.8740  177.0980  147.1310 C   0  0  0  0  0  0  0  0  0  0  0  0
  188.4200  177.4850  143.6730 N   0  0  0  0  0  0  0  0  0  0  0  0
  189.3250  177.4760  142.5770 C   0  0  0  0  0  0  0  0  0  0  0  0
  191.4070  177.4480  141.4930 C   0  0  0  0  0  0  0  0  0  0  0  0
  188.7140  177.8080  145.0660 C   0  0  2  0  0  3  0  0  0  0  0  0
  188.8820  177.5760  147.8970 C   0  0  0  0  0  3  0  0  0  0  0  0
  190.6750  177.3630  142.6440 N   0  0  0  0  0  2  0  0  0  0  0  0
  186.0960  178.1030  143.7970 C   0  0  0  0  0  0  0  0  0  0  0  0
  191.2470  176.9750  147.6970 C   0  0  0  0  0  1  0  0  0  0  0  0
  186.3710  178.5760  140.7060 C   0  0  0  0  0  1  0  0  0  0  0  0
  192.6580  177.3280  141.5380 O   0  0  0  0  0  0  0  0  0  0  0  0
  186.2400  178.0500  145.2730 C   0  0  0  0  0  3  0  0  0  0  0  0
  187.1740  177.8160  143.0540 C   0  0  0  0  0  0  0  0  0  0  0  0
  189.6340  176.7600  145.6860 C   0  0  0  0  0  2  0  0  0  0  0  0
  190.7690  177.6780  140.2540 C   0  0  0  0  0  3  0  0  0  0  0  0
  187.4280  177.8850  145.8730 C   0  0  0  0  0  0  0  0  0  0  0  0
  187.4760  177.7600  147.3720 C   0  0  0  0  0  2  0  0  0  0  0  0
  187.2740  177.8930  141.6190 N   0  0  0  0  0  0  0  0  0  0  0  0
  188.6680  177.7010  141.3940 C   0  0  0  0  0  0  0  0  0  0  0  0
  189.3720  177.8190  140.1980 C   0  0  0  0  0  3  0  0  0  0  0  0
  183.5280  178.6670  145.0860 O   0  0  0  0  0  0  0  0  0  0  0  0
  183.5950  178.6840  143.8290 C   0  0  0  0  0  0  0  0  0  0  0  0
  184.8440  178.4160  143.1720 N   0  0  0  0  0  2  0  0  0  0  0  0
  180.0550  179.6330  141.5780 C   0  0  0  0  0  0  0  0  0  0  0  0
  181.3790  179.7570  143.5930 C   0  0  0  0  0  3  0  0  0  0  0  0
  183.4010  177.5600  140.8080 Cl  0  0  0  0  0  0  0  0  0  0  0  0
  178.9310  179.9440  140.8900 F   0  0  0  0  0  0  0  0  0  0  0  0
  180.2190  180.0810  142.8870 C   0  0  0  0  0  3  0  0  0  0  0  0
  182.2180  178.5320  141.6730 C   0  0  0  0  0  0  0  0  0  0  0  0
  182.3940  178.9830  143.0080 C   0  0  0  0  0  0  0  0  0  0  0  0
  181.0500  178.8630  140.9760 C   0  0  0  0  0  3  0  0  0  0  0  0
  1  9  1  0  0  0  0
  1  6  2  0  0  0  0
  2  5  1  0  0  0  0
  3  7  1  0  0  0  0
  3  2  1  0  0  0  0
  4 11  2  0  0  0  0
  4  7  1  0  0  0  0
  5 14  1  1  0  0  0
  5 16  1  0  0  0  0
  8 12  1  0  0  0  0
 10 18  1  0  0  0  0
 12 16  2  0  0  0  0
 13  2  1  0  0  0  0
 13  8  2  0  0  0  0
 14  1  1  0  0  0  0
 15  4  1  0  0  0  0
 16 17  1  0  0  0  0
 17  6  1  0  0  0  0
 18 13  1  0  0  0  0
 19 18  1  0  0  0  0
 19  3  2  0  0  0  0
 20 15  2  0  0  0  0
 20 19  1  0  0  0  0
 22 21  2  0  0  0  0
 23  8  1  0  0  0  0
 23 22  1  0  0  0  0
 24 28  1  0  0  0  0
 26 29  1  0  0  0  0
 27 24  1  0  0  0  0
 28 25  2  0  0  0  0
 29 30  2  0  0  0  0
 30 25  1  0  0  0  0
 30 22  1  0  0  0  0
 31 24  2  0  0  0  0
 31 29  1  0  0  0  0
M  END
>  <MODEL>
5

>  <REMARK>
 VINA RESULT:      -9.4      3.991      7.718
  Name = 
  2 active torsions:
  status: ('A' for Active; 'I' for Inactive)
    1  A    between atoms: C_9  and  C_22
    2  A    between atoms: C_15  and  N_23
                            x       y       z     vdW  Elec       q    Type
                         _______ _______ _______ _____ _____    ______ ____

>  <TORSDO>
F 2

$$$$
=
 OpenBabel11052413103D

 31 35  0  0  1  0  0  0  0  0999 V2000
  192.5460  176.1280  136.4300 C   0  0  0  0  0  0  0  0  0  0  0  0
  189.4880  177.0440  138.4390 N   0  0  0  0  0  0  0  0  0  0  0  0
  188.3140  177.3980  137.7210 C   0  0  0  0  0  0  0  0  0  0  0  0
  186.9960  177.8930  135.8420 C   0  0  0  0  0  0  0  0  0  0  0  0
  190.8690  177.0970  137.9670 C   0  0  2  0  0  3  0  0  0  0  0  0
  193.5230  176.2870  137.3370 C   0  0  0  0  0  3  0  0  0  0  0  0
  188.1790  177.4620  136.3720 N   0  0  0  0  0  2  0  0  0  0  0  0
  190.0490  177.2920  140.7670 C   0  0  0  0  0  0  0  0  0  0  0  0
  192.8870  176.0770  134.9810 C   0  0  0  0  0  1  0  0  0  0  0  0
  187.1440  178.4530  141.0300 C   0  0  0  0  0  1  0  0  0  0  0  0
  186.8520  177.9420  134.5940 O   0  0  0  0  0  0  0  0  0  0  0  0
  191.4410  176.9430  140.3910 C   0  0  0  0  0  3  0  0  0  0  0  0
  189.1280  177.3240  139.7940 C   0  0  0  0  0  0  0  0  0  0  0  0
  191.1050  176.0790  136.8560 C   0  0  0  0  0  2  0  0  0  0  0  0
  185.9370  178.2940  136.6860 C   0  0  0  0  0  3  0  0  0  0  0  0
  191.8290  176.8190  139.1120 C   0  0  0  0  0  0  0  0  0  0  0  0
  193.2390  176.3820  138.8180 C   0  0  0  0  0  2  0  0  0  0  0  0
  187.7500  177.7220  139.9280 N   0  0  0  0  0  0  0  0  0  0  0  0
  187.3100  177.7790  138.5730 C   0  0  0  0  0  0  0  0  0  0  0  0
  186.0950  178.2480  138.0810 C   0  0  0  0  0  3  0  0  0  0  0  0
  189.6460  175.3620  142.9320 O   0  0  0  0  0  0  0  0  0  0  0  0
  189.4830  176.5870  143.1710 C   0  0  0  0  0  0  0  0  0  0  0  0
  189.6790  177.5550  142.1280 N   0  0  0  0  0  2  0  0  0  0  0  0
  188.1970  177.9590  147.0390 C   0  0  0  0  0  0  0  0  0  0  0  0
  187.7560  177.4420  144.7220 C   0  0  0  0  0  3  0  0  0  0  0  0
  191.6820  176.6670  145.5350 Cl  0  0  0  0  0  0  0  0  0  0  0  0
  187.7670  178.3960  148.2470 F   0  0  0  0  0  0  0  0  0  0  0  0
  187.3100  177.8920  145.9660 C   0  0  0  0  0  3  0  0  0  0  0  0
  189.9860  177.1240  145.6260 C   0  0  0  0  0  0  0  0  0  0  0  0
  189.0910  177.0530  144.5260 C   0  0  0  0  0  0  0  0  0  0  0  0
  189.5270  177.5770  146.8680 C   0  0  0  0  0  3  0  0  0  0  0  0
  1 14  1  0  0  0  0
  1  6  2  0  0  0  0
  2 13  1  0  0  0  0
  3  2  1  0  0  0  0
  3 19  2  0  0  0  0
  4  7  1  0  0  0  0
  4 15  1  0  0  0  0
  5 14  1  6  0  0  0
  5  2  1  0  0  0  0
  5 16  1  0  0  0  0
  6 17  1  0  0  0  0
  7  3  1  0  0  0  0
  8 23  1  0  0  0  0
  9  1  1  0  0  0  0
 11  4  2  0  0  0  0
 12  8  1  0  0  0  0
 13 18  1  0  0  0  0
 13  8  2  0  0  0  0
 15 20  2  0  0  0  0
 16 12  2  0  0  0  0
 17 16  1  0  0  0  0
 18 10  1  0  0  0  0
 19 18  1  0  0  0  0
 20 19  1  0  0  0  0
 21 22  2  0  0  0  0
 22 30  1  0  0  0  0
 23 22  1  0  0  0  0
 24 27  1  0  0  0  0
 25 28  1  0  0  0  0
 26 29  1  0  0  0  0
 28 24  2  0  0  0  0
 29 31  2  0  0  0  0
 30 25  2  0  0  0  0
 30 29  1  0  0  0  0
 31 24  1  0  0  0  0
M  END
>  <MODEL>
6

>  <REMARK>
 VINA RESULT:      -9.4      2.460      5.431
  Name = 
  2 active torsions:
  status: ('A' for Active; 'I' for Inactive)
    1  A    between atoms: C_9  and  C_22
    2  A    between atoms: C_15  and  N_23
                            x       y       z     vdW  Elec       q    Type
                         _______ _______ _______ _____ _____    ______ ____

>  <TORSDO>
F 2

$$$$
=
 OpenBabel11052413103D

 31 35  0  0  1  0  0  0  0  0999 V2000
  186.9870  177.8780  146.7880 C   0  0  0  0  0  0  0  0  0  0  0  0
  187.2650  177.8390  143.0270 N   0  0  0  0  0  0  0  0  0  0  0  0
  188.5430  177.5690  142.4680 C   0  0  0  0  0  0  0  0  0  0  0  0
  190.8570  177.1710  142.4540 C   0  0  0  0  0  0  0  0  0  0  0  0
  186.9700  178.3530  144.3620 C   0  0  2  0  0  3  0  0  0  0  0  0
  185.8480  178.5640  146.9680 C   0  0  0  0  0  3  0  0  0  0  0  0
  189.6940  177.3410  143.1500 N   0  0  0  0  0  2  0  0  0  0  0  0
  185.2480  178.6860  142.0210 C   0  0  0  0  0  0  0  0  0  0  0  0
  187.9380  177.7180  147.9240 C   0  0  0  0  0  1  0  0  0  0  0  0
  186.9130  178.6280  139.3610 C   0  0  0  0  0  1  0  0  0  0  0  0
  191.9280  176.9420  143.0730 O   0  0  0  0  0  0  0  0  0  0  0  0
  184.7240  178.8570  143.3990 C   0  0  0  0  0  3  0  0  0  0  0  0
  186.4830  178.1820  141.8810 C   0  0  0  0  0  0  0  0  0  0  0  0
  187.3510  177.3360  145.4340 C   0  0  0  0  0  2  0  0  0  0  0  0
  190.8670  177.2580  141.0450 C   0  0  0  0  0  3  0  0  0  0  0  0
  185.4900  178.6790  144.4860 C   0  0  0  0  0  0  0  0  0  0  0  0
  184.8600  178.7930  145.8480 C   0  0  0  0  0  2  0  0  0  0  0  0
  187.2090  178.0180  140.6480 N   0  0  0  0  0  0  0  0  0  0  0  0
  188.5130  177.6620  141.1000 C   0  0  0  0  0  0  0  0  0  0  0  0
  189.6760  177.5190  140.3480 C   0  0  0  0  0  3  0  0  0  0  0  0
  183.0700  177.1340  140.8300 O   0  0  0  0  0  0  0  0  0  0  0  0
  183.3980  178.2280  140.3010 C   0  0  0  0  0  0  0  0  0  0  0  0
  184.4600  179.0110  140.8680 N   0  0  0  0  0  2  0  0  0  0  0  0
  181.3250  179.8100  136.8800 C   0  0  0  0  0  0  0  0  0  0  0  0
  182.0790  179.9870  139.1670 C   0  0  0  0  0  3  0  0  0  0  0  0
  183.3410  176.4240  137.6230 Cl  0  0  0  0  0  0  0  0  0  0  0  0
  180.6660  180.3300  135.8180 F   0  0  0  0  0  0  0  0  0  0  0  0
  181.3990  180.5260  138.0740 C   0  0  0  0  0  3  0  0  0  0  0  0
  182.6160  178.0070  137.8700 C   0  0  0  0  0  0  0  0  0  0  0  0
  182.6960  178.7280  139.0910 C   0  0  0  0  0  0  0  0  0  0  0  0
  181.9310  178.5580  136.7810 C   0  0  0  0  0  3  0  0  0  0  0  0
  1  6  2  0  0  0  0
  1  9  1  0  0  0  0
  2  5  1  0  0  0  0
  3  2  1  0  0  0  0
  3  7  1  0  0  0  0
  4 11  2  0  0  0  0
  4  7  1  0  0  0  0
  5 16  1  0  0  0  0
  5 14  1  1  0  0  0
  8 12  1  0  0  0  0
 10 18  1  0  0  0  0
 12 16  2  0  0  0  0
 13  8  2  0  0  0  0
 13  2  1  0  0  0  0
 14  1  1  0  0  0  0
 15  4  1  0  0  0  0
 16 17  1  0  0  0  0
 17  6  1  0  0  0  0
 18 19  1  0  0  0  0
 18 13  1  0  0  0  0
 19  3  2  0  0  0  0
 20 15  2  0  0  0  0
 20 19  1  0  0  0  0
 22 21  2  0  0  0  0
 22 23  1  0  0  0  0
 23  8  1  0  0  0  0
 24 28  1  0  0  0  0
 26 29  1  0  0  0  0
 27 24  1  0  0  0  0
 28 25  2  0  0  0  0
 29 30  2  0  0  0  0
 30 25  1  0  0  0  0
 30 22  1  0  0  0  0
 31 24  2  0  0  0  0
 31 29  1  0  0  0  0
M  END
>  <MODEL>
7

>  <REMARK>
 VINA RESULT:      -9.3      4.280      7.983
  Name = 
  2 active torsions:
  status: ('A' for Active; 'I' for Inactive)
    1  A    between atoms: C_9  and  C_22
    2  A    between atoms: C_15  and  N_23
                            x       y       z     vdW  Elec       q    Type
                         _______ _______ _______ _____ _____    ______ ____

>  <TORSDO>
F 2

$$$$
=
 OpenBabel11052413103D

 31 35  0  0  1  0  0  0  0  0999 V2000
  185.9980  178.2710  145.8520 C   0  0  0  0  0  0  0  0  0  0  0  0
  186.0810  178.4770  142.0880 N   0  0  0  0  0  0  0  0  0  0  0  0
  184.8510  178.7140  141.4170 C   0  0  0  0  0  0  0  0  0  0  0  0
  182.5320  179.0040  141.1930 C   0  0  0  0  0  0  0  0  0  0  0  0
  186.2730  177.9140  143.4210 C   0  0  2  0  0  3  0  0  0  0  0  0
  187.1480  177.6310  146.1140 C   0  0  0  0  0  3  0  0  0  0  0  0
  183.6300  178.8540  141.9920 N   0  0  0  0  0  2  0  0  0  0  0  0
  188.2260  177.7750  141.2500 C   0  0  0  0  0  0  0  0  0  0  0  0
  184.9350  178.3310  146.8950 C   0  0  0  0  0  1  0  0  0  0  0  0
  186.8260  177.8830  138.4430 C   0  0  0  0  0  1  0  0  0  0  0  0
  181.3960  179.1520  141.7120 O   0  0  0  0  0  0  0  0  0  0  0  0
  188.6240  177.5630  142.6630 C   0  0  0  0  0  3  0  0  0  0  0  0
  186.9870  178.2270  141.0100 C   0  0  0  0  0  0  0  0  0  0  0  0
  185.7390  178.8590  144.4940 C   0  0  0  0  0  2  0  0  0  0  0  0
  182.6620  178.9840  139.7870 C   0  0  0  0  0  3  0  0  0  0  0  0
  187.7490  177.6520  143.6760 C   0  0  0  0  0  0  0  0  0  0  0  0
  188.2500  177.5020  145.0870 C   0  0  0  0  0  2  0  0  0  0  0  0
  186.3760  178.4160  139.7200 N   0  0  0  0  0  0  0  0  0  0  0  0
  185.0180  178.6880  140.0560 C   0  0  0  0  0  0  0  0  0  0  0  0
  183.9270  178.8120  139.2000 C   0  0  0  0  0  3  0  0  0  0  0  0
  190.5340  175.9730  141.1900 O   0  0  0  0  0  0  0  0  0  0  0  0
  190.2680  176.6560  140.1660 C   0  0  0  0  0  0  0  0  0  0  0  0
  189.1380  177.5430  140.1670 N   0  0  0  0  0  2  0  0  0  0  0  0
  192.5650  176.3180  136.5450 C   0  0  0  0  0  0  0  0  0  0  0  0
  190.4720  176.2010  137.7430 C   0  0  0  0  0  3  0  0  0  0  0  0
  193.4380  177.2440  140.3480 Cl  0  0  0  0  0  0  0  0  0  0  0  0
  193.2660  176.2050  135.3920 F   0  0  0  0  0  0  0  0  0  0  0  0
  191.1910  176.0840  136.5530 C   0  0  0  0  0  3  0  0  0  0  0  0
  192.5070  176.7910  138.9270 C   0  0  0  0  0  0  0  0  0  0  0  0
  191.1070  176.5540  138.9440 C   0  0  0  0  0  0  0  0  0  0  0  0
  193.2170  176.6700  137.7260 C   0  0  0  0  0  3  0  0  0  0  0  0
  1  6  2  0  0  0  0
  1  9  1  0  0  0  0
  2  5  1  0  0  0  0
  3  7  1  0  0  0  0
  3  2  1  0  0  0  0
  4 11  2  0  0  0  0
  4  7  1  0  0  0  0
  5 16  1  0  0  0  0
  5 14  1  1  0  0  0
  8 12  1  0  0  0  0
 10 18  1  0  0  0  0
 12 16  2  0  0  0  0
 13  8  2  0  0  0  0
 13  2  1  0  0  0  0
 14  1  1  0  0  0  0
 15  4  1  0  0  0  0
 16 17  1  0  0  0  0
 17  6  1  0  0  0  0
 18 19  1  0  0  0  0
 18 13  1  0  0  0  0
 19  3  2  0  0  0  0
 20 15  2  0  0  0  0
 20 19  1  0  0  0  0
 22 23  1  0  0  0  0
 22 21  2  0  0  0  0
 23  8  1  0  0  0  0
 24 28  2  0  0  0  0
 24 31  1  0  0  0  0
 25 30  2  0  0  0  0
 27 24  1  0  0  0  0
 28 25  1  0  0  0  0
 29 30  1  0  0  0  0
 29 26  1  0  0  0  0
 30 22  1  0  0  0  0
 31 29  2  0  0  0  0
M  END
>  <MODEL>
8

>  <REMARK>
 VINA RESULT:      -9.0      3.754      6.517
  Name = 
  2 active torsions:
  status: ('A' for Active; 'I' for Inactive)
    1  A    between atoms: C_9  and  C_22
    2  A    between atoms: C_15  and  N_23
                            x       y       z     vdW  Elec       q    Type
                         _______ _______ _______ _____ _____    ______ ____

>  <TORSDO>
F 2

$$$$
=
 OpenBabel11052413103D

 31 35  0  0  1  0  0  0  0  0999 V2000
  187.6670  177.5750  146.8710 C   0  0  0  0  0  0  0  0  0  0  0  0
  187.1880  177.8730  143.1420 N   0  0  0  0  0  0  0  0  0  0  0  0
  188.3240  177.6600  142.3160 C   0  0  0  0  0  0  0  0  0  0  0  0
  190.5830  177.2750  141.8040 C   0  0  0  0  0  0  0  0  0  0  0  0
  187.1710  178.2650  144.5480 C   0  0  2  0  0  3  0  0  0  0  0  0
  186.5960  178.2380  147.3350 C   0  0  0  0  0  3  0  0  0  0  0  0
  189.5850  177.3770  142.7320 N   0  0  0  0  0  2  0  0  0  0  0  0
  185.0220  178.7970  142.6390 C   0  0  0  0  0  0  0  0  0  0  0  0
  188.8230  177.3190  147.7740 C   0  0  0  0  0  1  0  0  0  0  0  0
  186.1200  178.9840  139.7040 C   0  0  0  0  0  1  0  0  0  0  0  0
  191.7520  176.9970  142.1740 O   0  0  0  0  0  0  0  0  0  0  0  0
  184.7860  178.8430  144.1030 C   0  0  0  0  0  3  0  0  0  0  0  0
  186.1960  178.3140  142.2100 C   0  0  0  0  0  0  0  0  0  0  0  0
  187.7450  177.1580  145.4290 C   0  0  0  0  0  2  0  0  0  0  0  0
  190.3120  177.4870  140.4350 C   0  0  0  0  0  3  0  0  0  0  0  0
  185.7510  178.5720  144.9950 C   0  0  0  0  0  0  0  0  0  0  0  0
  185.4070  178.5620  146.4600 C   0  0  0  0  0  2  0  0  0  0  0  0
  186.6590  178.2640  140.8470 N   0  0  0  0  0  0  0  0  0  0  0  0
  188.0220  177.8750  140.9960 C   0  0  0  0  0  0  0  0  0  0  0  0
  189.0100  177.8040  140.0170 C   0  0  0  0  0  3  0  0  0  0  0  0
  183.1960  177.1280  141.0720 O   0  0  0  0  0  0  0  0  0  0  0  0
  183.1420  178.3790  140.9400 C   0  0  0  0  0  0  0  0  0  0  0  0
  184.0230  179.2210  141.7000 N   0  0  0  0  0  2  0  0  0  0  0  0
  180.4330  180.1520  138.1090 C   0  0  0  0  0  0  0  0  0  0  0  0
  182.4950  179.0140  138.6380 C   0  0  0  0  0  3  0  0  0  0  0  0
  180.4010  179.6440  142.0860 Cl  0  0  0  0  0  0  0  0  0  0  0  0
  179.5980  180.7050  137.1980 F   0  0  0  0  0  0  0  0  0  0  0  0
  181.6360  179.5820  137.6970 C   0  0  0  0  0  3  0  0  0  0  0  0
  180.9440  179.5860  140.4150 C   0  0  0  0  0  0  0  0  0  0  0  0
  182.1720  179.0030  140.0040 C   0  0  0  0  0  0  0  0  0  0  0  0
  180.0910  180.1530  139.4600 C   0  0  0  0  0  3  0  0  0  0  0  0
  1  6  2  0  0  0  0
  1  9  1  0  0  0  0
  2  5  1  0  0  0  0
  3  7  1  0  0  0  0
  3  2  1  0  0  0  0
  4 11  2  0  0  0  0
  4  7  1  0  0  0  0
  5 16  1  0  0  0  0
  5 14  1  1  0  0  0
  8 12  1  0  0  0  0
 10 18  1  0  0  0  0
 12 16  2  0  0  0  0
 13  8  2  0  0  0  0
 13  2  1  0  0  0  0
 14  1  1  0  0  0  0
 15  4  1  0  0  0  0
 16 17  1  0  0  0  0
 17  6  1  0  0  0  0
 18 19  1  0  0  0  0
 18 13  1  0  0  0  0
 19  3  2  0  0  0  0
 20 15  2  0  0  0  0
 20 19  1  0  0  0  0
 22 21  2  0  0  0  0
 22 23  1  0  0  0  0
 23  8  1  0  0  0  0
 24 31  1  0  0  0  0
 25 30  2  0  0  0  0
 27 24  1  0  0  0  0
 28 24  2  0  0  0  0
 28 25  1  0  0  0  0
 29 26  1  0  0  0  0
 30 29  1  0  0  0  0
 30 22  1  0  0  0  0
 31 29  2  0  0  0  0
M  END
>  <MODEL>
9

>  <REMARK>
 VINA RESULT:      -8.9      4.146      7.883
  Name = 
  2 active torsions:
  status: ('A' for Active; 'I' for Inactive)
    1  A    between atoms: C_9  and  C_22
    2  A    between atoms: C_15  and  N_23
                            x       y       z     vdW  Elec       q    Type
                         _______ _______ _______ _____ _____    ______ ____

>  <TORSDO>
F 2

$$$$
