=
 OpenBabel11052412213D

 30 32  0  0  1  0  0  0  0  0999 V2000
  182.9970  180.2420  138.9700 C   0  0  0  0  0  2  0  0  0  0  0  0
  182.9780  178.7630  139.3550 C   0  0  2  0  0  0  0  0  0  0  0  0
  181.7340  179.4230  138.7540 C   0  0  2  0  0  0  0  0  0  0  0  0
  182.8580  178.4890  140.7740 N   0  0  0  0  0  0  0  0  0  0  0  0
  183.5450  178.3240  143.0840 C   0  0  1  0  0  3  0  0  0  0  0  0
  184.7300  178.6840  143.9880 C   0  0  0  0  0  2  0  0  0  0  0  0
  182.4040  178.9850  143.5380 O   0  0  0  0  0  1  0  0  0  0  0  0
  185.1630  179.1890  141.2200 C   0  0  0  0  0  2  0  0  0  0  0  0
  187.5540  178.2200  141.4300 C   0  0  0  0  0  1  0  0  0  0  0  0
  183.8040  178.6680  141.6330 C   0  0  0  0  0  0  0  0  0  0  0  0
  186.0390  178.3090  143.3510 C   0  0  0  0  0  3  0  0  0  0  0  0
  186.2440  178.5570  142.0520 C   0  0  0  0  0  0  0  0  0  0  0  0
  183.7380  175.5280  137.4110 C   0  0  0  0  0  3  0  0  0  0  0  0
  183.0450  176.4460  138.2150 C   0  0  0  0  0  0  0  0  0  0  0  0
  184.8840  178.0130  137.9360 C   0  0  0  0  0  3  0  0  0  0  0  0
  183.6340  177.7050  138.4930 C   0  0  0  0  0  0  0  0  0  0  0  0
  184.9840  175.8490  136.8710 C   0  0  0  0  0  3  0  0  0  0  0  0
  185.5550  177.0930  137.1310 C   0  0  0  0  0  3  0  0  0  0  0  0
  181.8580  175.4930  140.0660 O   0  0  0  0  0  1  0  0  0  0  0  0
  181.7120  176.0530  138.7890 C   0  0  2  0  0  3  0  0  0  0  0  0
  179.9800  176.0260  137.1890 C   0  0  0  0  0  1  0  0  0  0  0  0
  180.1940  174.1810  138.6150 C   0  0  0  0  0  1  0  0  0  0  0  0
  180.9470  175.1890  137.8790 N   0  0  0  0  0  0  0  0  0  0  0  0
  180.9980  181.4480  136.7390 O   0  0  0  0  0  1  0  0  0  0  0  0
  181.0750  180.1060  136.3890 C   0  0  0  0  0  0  0  0  0  0  0  0
  180.8080  179.7540  135.2110 O   0  0  0  0  0  0  0  0  0  0  0  0
  181.4600  179.1210  137.3500 N   0  0  0  0  0  2  0  0  0  0  0  0
  180.3350  181.1420  139.6870 O   0  0  0  0  0  1  0  0  0  0  0  0
  179.3030  179.0490  139.2110 C   0  0  0  0  0  1  0  0  0  0  0  0
  180.5580  179.7650  139.6700 C   0  0  1  0  0  3  0  0  0  0  0  0
  1  2  1  0  0  0  0
  2  4  1  1  0  0  0
  3 27  1  6  0  0  0
  3  1  1  0  0  0  0
  3  2  1  0  0  0  0
  3 30  1  0  0  0  0
  4 10  2  0  0  0  0
  5  7  1  1  0  0  0
  5  6  1  0  0  0  0
  8 10  1  0  0  0  0
  8 12  1  0  0  0  0
  9 12  1  0  0  0  0
 10  5  1  0  0  0  0
 11  6  1  0  0  0  0
 12 11  2  0  0  0  0
 13 14  1  0  0  0  0
 14 16  2  0  0  0  0
 14 20  1  0  0  0  0
 15 16  1  0  0  0  0
 16  2  1  0  0  0  0
 17 18  1  0  0  0  0
 17 13  2  0  0  0  0
 18 15  2  0  0  0  0
 20 19  1  1  0  0  0
 21 23  1  0  0  0  0
 23 22  1  0  0  0  0
 23 20  1  0  0  0  0
 25 24  1  0  0  0  0
 25 27  1  0  0  0  0
 26 25  2  0  0  0  0
 30 29  1  6  0  0  0
 30 28  1  0  0  0  0
M  END
>  <MODEL>
1

>  <REMARK>
 VINA RESULT:      -5.3      0.000      0.000
  Name = 
  6 active torsions:
  status: ('A' for Active; 'I' for Inactive)
    1  A    between atoms: N_1  and  C_5
    2  A    between atoms: C_5  and  C_12
    3  A    between atoms: C_8  and  C_13
    4  A    between atoms: C_13  and  N_30
    5  A    between atoms: C_23  and  N_25
    6  A    between atoms: C_23  and  C_26
                            x       y       z     vdW  Elec       q    Type
                         _______ _______ _______ _____ _____    ______ ____

>  <TORSDO>
F 6

$$$$
=
 OpenBabel11052412213D

 30 32  0  0  1  0  0  0  0  0999 V2000
  183.3970  176.6630  138.7380 C   0  0  0  0  0  2  0  0  0  0  0  0
  183.5210  178.1740  138.9290 C   0  0  2  0  0  0  0  0  0  0  0  0
  184.0820  177.5030  137.6730 C   0  0  2  0  0  0  0  0  0  0  0  0
  184.5450  178.6020  139.8620 N   0  0  0  0  0  0  0  0  0  0  0  0
  185.5700  179.0600  142.0010 C   0  0  1  0  0  3  0  0  0  0  0  0
  185.3100  178.8570  143.4980 C   0  0  0  0  0  2  0  0  0  0  0  0
  186.7510  178.4060  141.6480 O   0  0  0  0  0  1  0  0  0  0  0  0
  183.1610  178.0580  141.8090 C   0  0  0  0  0  2  0  0  0  0  0  0
  181.4830  179.1480  143.4490 C   0  0  0  0  0  1  0  0  0  0  0  0
  184.4250  178.5640  141.1460 C   0  0  0  0  0  0  0  0  0  0  0  0
  183.8950  179.2130  143.8610 C   0  0  0  0  0  3  0  0  0  0  0  0
  182.8860  178.8270  143.0710 C   0  0  0  0  0  0  0  0  0  0  0  0
  179.9880  179.6150  138.4170 C   0  0  0  0  0  3  0  0  0  0  0  0
  181.0030  178.6730  138.6420 C   0  0  0  0  0  0  0  0  0  0  0  0
  182.6360  180.4730  138.5600 C   0  0  0  0  0  3  0  0  0  0  0  0
  182.3510  179.1070  138.7010 C   0  0  0  0  0  0  0  0  0  0  0  0
  180.2910  180.9700  138.2720 C   0  0  0  0  0  3  0  0  0  0  0  0
  181.6150  181.3990  138.3470 C   0  0  0  0  0  3  0  0  0  0  0  0
  179.6590  176.8590  137.8380 O   0  0  0  0  0  1  0  0  0  0  0  0
  180.6340  177.2210  138.7760 C   0  0  2  0  0  3  0  0  0  0  0  0
  180.1610  175.4220  140.2260 C   0  0  0  0  0  1  0  0  0  0  0  0
  178.9350  177.4000  140.4850 C   0  0  0  0  0  1  0  0  0  0  0  0
  180.2520  176.8700  140.1520 N   0  0  0  0  0  0  0  0  0  0  0  0
  183.0540  175.2580  136.0590 O   0  0  0  0  0  1  0  0  0  0  0  0
  182.8270  176.5690  135.6610 C   0  0  0  0  0  0  0  0  0  0  0  0
  182.1980  176.7960  134.5950 O   0  0  0  0  0  0  0  0  0  0  0  0
  183.2950  177.6640  136.4510 N   0  0  0  0  0  2  0  0  0  0  0  0
  185.8970  175.9690  137.3030 O   0  0  0  0  0  1  0  0  0  0  0  0
  186.1480  178.1690  136.4270 C   0  0  0  0  0  1  0  0  0  0  0  0
  185.5950  177.3080  137.5460 C   0  0  1  0  0  3  0  0  0  0  0  0
  1  2  1  0  0  0  0
  2  4  1  1  0  0  0
  3 27  1  6  0  0  0
  3  1  1  0  0  0  0
  3  2  1  0  0  0  0
  4 10  2  0  0  0  0
  5  7  1  6  0  0  0
  5  6  1  0  0  0  0
  6 11  1  0  0  0  0
  8 12  1  0  0  0  0
 10  8  1  0  0  0  0
 10  5  1  0  0  0  0
 12  9  1  0  0  0  0
 12 11  2  0  0  0  0
 13 14  1  0  0  0  0
 14 16  2  0  0  0  0
 14 20  1  0  0  0  0
 15 16  1  0  0  0  0
 16  2  1  0  0  0  0
 17 18  1  0  0  0  0
 17 13  2  0  0  0  0
 18 15  2  0  0  0  0
 20 19  1  6  0  0  0
 20 23  1  0  0  0  0
 23 21  1  0  0  0  0
 23 22  1  0  0  0  0
 25 24  1  0  0  0  0
 25 27  1  0  0  0  0
 26 25  2  0  0  0  0
 28 30  1  0  0  0  0
 30 29  1  6  0  0  0
 30  3  1  0  0  0  0
M  END
>  <MODEL>
2

>  <REMARK>
 VINA RESULT:      -4.6      2.226      4.259
  Name = 
  6 active torsions:
  status: ('A' for Active; 'I' for Inactive)
    1  A    between atoms: N_1  and  C_5
    2  A    between atoms: C_5  and  C_12
    3  A    between atoms: C_8  and  C_13
    4  A    between atoms: C_13  and  N_30
    5  A    between atoms: C_23  and  N_25
    6  A    between atoms: C_23  and  C_26
                            x       y       z     vdW  Elec       q    Type
                         _______ _______ _______ _____ _____    ______ ____

>  <TORSDO>
F 6

$$$$
=
 OpenBabel11052412213D

 30 32  0  0  1  0  0  0  0  0999 V2000
  182.1600  177.1380  139.7200 C   0  0  0  0  0  2  0  0  0  0  0  0
  182.6010  178.5640  139.3900 C   0  0  2  0  0  0  0  0  0  0  0  0
  182.5080  177.5060  138.2870 C   0  0  2  0  0  0  0  0  0  0  0  0
  183.9640  178.8960  139.7580 N   0  0  0  0  0  0  0  0  0  0  0  0
  185.9150  179.0870  141.1710 C   0  0  1  0  0  3  0  0  0  0  0  0
  186.4070  178.6640  142.5600 C   0  0  0  0  0  2  0  0  0  0  0  0
  186.7520  178.5370  140.2000 O   0  0  0  0  0  1  0  0  0  0  0  0
  183.6830  178.0290  142.0320 C   0  0  0  0  0  2  0  0  0  0  0  0
  183.0510  178.8080  144.4170 C   0  0  0  0  0  1  0  0  0  0  0  0
  184.4810  178.6720  140.9190 C   0  0  0  0  0  0  0  0  0  0  0  0
  185.3600  178.9100  143.6110 C   0  0  0  0  0  3  0  0  0  0  0  0
  184.0820  178.6000  143.3630 C   0  0  0  0  0  0  0  0  0  0  0  0
  179.5050  180.8170  139.7850 C   0  0  0  0  0  3  0  0  0  0  0  0
  180.3600  179.7180  139.9540 C   0  0  0  0  0  0  0  0  0  0  0  0
  181.9730  180.8010  138.4910 C   0  0  0  0  0  3  0  0  0  0  0  0
  181.6090  179.7030  139.2850 C   0  0  0  0  0  0  0  0  0  0  0  0
  179.8810  181.8980  138.9860 C   0  0  0  0  0  3  0  0  0  0  0  0
  181.1160  181.8910  138.3420 C   0  0  0  0  0  3  0  0  0  0  0  0
  178.9310  177.8050  140.1590 O   0  0  0  0  0  1  0  0  0  0  0  0
  179.9100  178.5670  140.8110 C   0  0  2  0  0  3  0  0  0  0  0  0
  180.3610  180.0890  142.5550 C   0  0  0  0  0  1  0  0  0  0  0  0
  179.6450  177.9350  143.1290 C   0  0  0  0  0  1  0  0  0  0  0  0
  179.4850  179.0040  142.1490 N   0  0  0  0  0  0  0  0  0  0  0  0
  180.5900  175.3100  137.8390 O   0  0  0  0  0  1  0  0  0  0  0  0
  180.4410  176.5190  137.1710 C   0  0  0  0  0  0  0  0  0  0  0  0
  179.4950  176.6660  136.3550 O   0  0  0  0  0  0  0  0  0  0  0  0
  181.3470  177.5980  137.4030 N   0  0  0  0  0  2  0  0  0  0  0  0
  183.8180  175.5140  137.9710 O   0  0  0  0  0  1  0  0  0  0  0  0
  183.9200  177.1570  136.2510 C   0  0  0  0  0  1  0  0  0  0  0  0
  183.7960  176.8890  137.7380 C   0  0  1  0  0  3  0  0  0  0  0  0
  2  1  1  0  0  0  0
  2  4  1  1  0  0  0
  3 27  1  6  0  0  0
  3  2  1  0  0  0  0
  3  1  1  0  0  0  0
  4 10  2  0  0  0  0
  5  7  1  6  0  0  0
  5  6  1  0  0  0  0
  6 11  1  0  0  0  0
  8 12  1  0  0  0  0
 10  5  1  0  0  0  0
 10  8  1  0  0  0  0
 12 11  2  0  0  0  0
 12  9  1  0  0  0  0
 13 14  1  0  0  0  0
 14 20  1  0  0  0  0
 15 16  1  0  0  0  0
 16  2  1  0  0  0  0
 16 14  2  0  0  0  0
 17 13  2  0  0  0  0
 18 15  2  0  0  0  0
 18 17  1  0  0  0  0
 20 19  1  6  0  0  0
 20 23  1  0  0  0  0
 23 21  1  0  0  0  0
 23 22  1  0  0  0  0
 25 27  1  0  0  0  0
 25 24  1  0  0  0  0
 26 25  2  0  0  0  0
 30 29  1  6  0  0  0
 30 28  1  0  0  0  0
 30  3  1  0  0  0  0
M  END
>  <MODEL>
3

>  <REMARK>
 VINA RESULT:      -4.6      2.211      4.573
  Name = 
  6 active torsions:
  status: ('A' for Active; 'I' for Inactive)
    1  A    between atoms: N_1  and  C_5
    2  A    between atoms: C_5  and  C_12
    3  A    between atoms: C_8  and  C_13
    4  A    between atoms: C_13  and  N_30
    5  A    between atoms: C_23  and  N_25
    6  A    between atoms: C_23  and  C_26
                            x       y       z     vdW  Elec       q    Type
                         _______ _______ _______ _____ _____    ______ ____

>  <TORSDO>
F 6

$$$$
=
 OpenBabel11052412213D

 30 32  0  0  1  0  0  0  0  0999 V2000
  180.8840  177.1340  136.6880 C   0  0  0  0  0  2  0  0  0  0  0  0
  181.9420  177.7700  137.5880 C   0  0  2  0  0  0  0  0  0  0  0  0
  181.2770  176.4510  137.9880 C   0  0  2  0  0  0  0  0  0  0  0  0
  181.4930  178.9040  138.3730 N   0  0  0  0  0  0  0  0  0  0  0  0
  180.4610  181.0410  138.8250 C   0  0  1  0  0  3  0  0  0  0  0  0
  179.6270  182.1170  138.1210 C   0  0  0  0  0  2  0  0  0  0  0  0
  179.7380  180.5360  139.9070 O   0  0  0  0  0  1  0  0  0  0  0  0
  180.5150  180.0140  136.4200 C   0  0  0  0  0  2  0  0  0  0  0  0
  181.0980  181.7530  134.5940 C   0  0  0  0  0  1  0  0  0  0  0  0
  180.8550  179.9170  137.8920 C   0  0  0  0  0  0  0  0  0  0  0  0
  180.1790  182.4340  136.7590 C   0  0  0  0  0  3  0  0  0  0  0  0
  180.5860  181.4420  135.9570 C   0  0  0  0  0  0  0  0  0  0  0  0
  185.7770  178.0820  137.7200 C   0  0  0  0  0  3  0  0  0  0  0  0
  184.4350  178.2040  138.1090 C   0  0  0  0  0  0  0  0  0  0  0  0
  183.7830  177.0360  136.0790 C   0  0  0  0  0  3  0  0  0  0  0  0
  183.4200  177.6840  137.2690 C   0  0  0  0  0  0  0  0  0  0  0  0
  186.1200  177.4400  136.5290 C   0  0  0  0  0  3  0  0  0  0  0  0
  185.1220  176.9140  135.7100 C   0  0  0  0  0  3  0  0  0  0  0  0
  184.4820  180.2660  139.3290 O   0  0  0  0  0  1  0  0  0  0  0  0
  184.1080  178.9170  139.3920 C   0  0  2  0  0  3  0  0  0  0  0  0
  183.6170  178.1520  141.5690 C   0  0  0  0  0  1  0  0  0  0  0  0
  185.7620  178.9960  141.1540 C   0  0  0  0  0  1  0  0  0  0  0  0
  184.6660  178.2320  140.5670 N   0  0  0  0  0  0  0  0  0  0  0  0
  180.3910  174.0980  136.4430 O   0  0  0  0  0  0  0  0  0  0  0  0
  181.6280  174.0980  137.0740 C   0  0  0  0  0  0  0  0  0  0  0  0
  182.3630  173.0780  137.0030 O   0  0  0  0  0  1  0  0  0  0  0  0
  182.0790  175.2430  137.8000 N   0  0  0  0  0  2  0  0  0  0  0  0
  178.9380  176.3480  138.5360 O   0  0  0  0  0  1  0  0  0  0  0  0
  180.4490  175.3160  140.0590 C   0  0  0  0  0  1  0  0  0  0  0  0
  180.2140  176.4570  139.0880 C   0  0  1  0  0  3  0  0  0  0  0  0
  1  2  1  0  0  0  0
  1  3  1  0  0  0  0
  2  3  1  0  0  0  0
  2  4  1  1  0  0  0
  3 27  1  6  0  0  0
  3 30  1  0  0  0  0
  5  7  1  1  0  0  0
  6  5  1  0  0  0  0
  8 10  1  0  0  0  0
  9 12  1  0  0  0  0
 10  4  2  0  0  0  0
 10  5  1  0  0  0  0
 11  6  1  0  0  0  0
 12  8  1  0  0  0  0
 12 11  2  0  0  0  0
 13 14  1  0  0  0  0
 14 20  1  0  0  0  0
 15 16  1  0  0  0  0
 16  2  1  0  0  0  0
 16 14  2  0  0  0  0
 17 13  2  0  0  0  0
 18 15  2  0  0  0  0
 18 17  1  0  0  0  0
 20 19  1  6  0  0  0
 20 23  1  0  0  0  0
 23 22  1  0  0  0  0
 23 21  1  0  0  0  0
 24 25  2  0  0  0  0
 25 27  1  0  0  0  0
 26 25  1  0  0  0  0
 28 30  1  0  0  0  0
 30 29  1  1  0  0  0
M  END
>  <MODEL>
4

>  <REMARK>
 VINA RESULT:      -4.1      2.080      5.559
  Name = 
  6 active torsions:
  status: ('A' for Active; 'I' for Inactive)
    1  A    between atoms: N_1  and  C_5
    2  A    between atoms: C_5  and  C_12
    3  A    between atoms: C_8  and  C_13
    4  A    between atoms: C_13  and  N_30
    5  A    between atoms: C_23  and  N_25
    6  A    between atoms: C_23  and  C_26
                            x       y       z     vdW  Elec       q    Type
                         _______ _______ _______ _____ _____    ______ ____

>  <TORSDO>
F 6

$$$$
=
 OpenBabel11052412213D

 30 32  0  0  1  0  0  0  0  0999 V2000
  182.6000  179.4340  138.7510 C   0  0  0  0  0  2  0  0  0  0  0  0
  182.0320  178.2160  139.4780 C   0  0  2  0  0  0  0  0  0  0  0  0
  181.0950  179.2800  138.9020 C   0  0  2  0  0  0  0  0  0  0  0  0
  182.1290  178.2530  140.9240 N   0  0  0  0  0  0  0  0  0  0  0  0
  183.1360  178.6250  143.0890 C   0  0  1  0  0  3  0  0  0  0  0  0
  184.4030  179.2240  143.7100 C   0  0  0  0  0  2  0  0  0  0  0  0
  182.0210  179.3180  143.5600 O   0  0  0  0  0  1  0  0  0  0  0  0
  184.4150  179.1330  140.8640 C   0  0  0  0  0  2  0  0  0  0  0  0
  186.8770  178.3380  140.9120 C   0  0  0  0  0  1  0  0  0  0  0  0
  183.1670  178.6550  141.5760 C   0  0  0  0  0  0  0  0  0  0  0  0
  185.6370  178.7770  142.9770 C   0  0  0  0  0  3  0  0  0  0  0  0
  185.6430  178.7450  141.6390 C   0  0  0  0  0  0  0  0  0  0  0  0
  182.6430  175.1720  137.2020 C   0  0  0  0  0  3  0  0  0  0  0  0
  182.7980  176.4530  137.7530 C   0  0  0  0  0  0  0  0  0  0  0  0
  181.0040  175.9530  139.3150 C   0  0  0  0  0  3  0  0  0  0  0  0
  181.9560  176.8550  138.8190 C   0  0  0  0  0  0  0  0  0  0  0  0
  181.6850  174.2890  137.7040 C   0  0  0  0  0  3  0  0  0  0  0  0
  180.8680  174.6790  138.7640 C   0  0  0  0  0  3  0  0  0  0  0  0
  183.6610  177.5170  135.7860 O   0  0  0  0  0  1  0  0  0  0  0  0
  183.8310  177.3780  137.1700 C   0  0  2  0  0  3  0  0  0  0  0  0
  186.0020  178.1910  137.6060 C   0  0  0  0  0  1  0  0  0  0  0  0
  185.7940  176.1340  136.5060 C   0  0  0  0  0  1  0  0  0  0  0  0
  185.2000  176.9820  137.5330 N   0  0  0  0  0  0  0  0  0  0  0  0
  181.0610  180.9830  136.4940 O   0  0  0  0  0  1  0  0  0  0  0  0
  180.3750  179.7750  136.5080 C   0  0  0  0  0  0  0  0  0  0  0  0
  179.7190  179.4200  135.4950 O   0  0  0  0  0  0  0  0  0  0  0  0
  180.4100  178.9290  137.6590 N   0  0  0  0  0  2  0  0  0  0  0  0
  180.6320  181.5810  139.4270 O   0  0  0  0  0  1  0  0  0  0  0  0
  178.9310  179.9940  139.9360 C   0  0  0  0  0  1  0  0  0  0  0  0
  180.4200  180.2700  139.8530 C   0  0  1  0  0  3  0  0  0  0  0  0
  1  3  1  0  0  0  0
  1  2  1  0  0  0  0
  2  4  1  1  0  0  0
  3 27  1  6  0  0  0
  3  2  1  0  0  0  0
  3 30  1  0  0  0  0
  4 10  2  0  0  0  0
  5  7  1  1  0  0  0
  5  6  1  0  0  0  0
  8 10  1  0  0  0  0
  8 12  1  0  0  0  0
  9 12  1  0  0  0  0
 10  5  1  0  0  0  0
 11  6  1  0  0  0  0
 12 11  2  0  0  0  0
 13 17  2  0  0  0  0
 13 14  1  0  0  0  0
 14 16  2  0  0  0  0
 16 15  1  0  0  0  0
 16  2  1  0  0  0  0
 17 18  1  0  0  0  0
 18 15  2  0  0  0  0
 20 19  1  6  0  0  0
 20 23  1  0  0  0  0
 20 14  1  0  0  0  0
 22 23  1  0  0  0  0
 23 21  1  0  0  0  0
 24 25  1  0  0  0  0
 25 27  1  0  0  0  0
 26 25  2  0  0  0  0
 28 30  1  0  0  0  0
 30 29  1  6  0  0  0
M  END
>  <MODEL>
5

>  <REMARK>
 VINA RESULT:      -3.9      1.484      2.711
  Name = 
  6 active torsions:
  status: ('A' for Active; 'I' for Inactive)
    1  A    between atoms: N_1  and  C_5
    2  A    between atoms: C_5  and  C_12
    3  A    between atoms: C_8  and  C_13
    4  A    between atoms: C_13  and  N_30
    5  A    between atoms: C_23  and  N_25
    6  A    between atoms: C_23  and  C_26
                            x       y       z     vdW  Elec       q    Type
                         _______ _______ _______ _____ _____    ______ ____

>  <TORSDO>
F 6

$$$$
=
 OpenBabel11052412213D

 30 32  0  0  1  0  0  0  0  0999 V2000
  182.7400  176.5060  139.5960 C   0  0  0  0  0  2  0  0  0  0  0  0
  182.0850  176.3860  138.2200 C   0  0  2  0  0  0  0  0  0  0  0  0
  181.8710  177.6380  139.0730 C   0  0  2  0  0  0  0  0  0  0  0  0
  180.9210  175.5240  138.1570 N   0  0  0  0  0  0  0  0  0  0  0  0
  179.6490  173.5110  137.7480 C   0  0  1  0  0  3  0  0  0  0  0  0
  179.8630  172.0390  137.3770 C   0  0  0  0  0  2  0  0  0  0  0  0
  179.0120  173.5840  138.9870 O   0  0  0  0  0  1  0  0  0  0  0  0
  182.2330  173.6160  137.3570 C   0  0  0  0  0  2  0  0  0  0  0  0
  182.9690  172.4610  135.1620 C   0  0  0  0  0  1  0  0  0  0  0  0
  180.9460  174.2900  137.7820 C   0  0  0  0  0  0  0  0  0  0  0  0
  180.8530  171.8950  136.2540 C   0  0  0  0  0  3  0  0  0  0  0  0
  181.9710  172.6300  136.2540 C   0  0  0  0  0  0  0  0  0  0  0  0
  183.0960  177.1970  134.5950 C   0  0  0  0  0  3  0  0  0  0  0  0
  182.2860  177.0420  135.7300 C   0  0  0  0  0  0  0  0  0  0  0  0
  184.2480  176.3430  136.9840 C   0  0  0  0  0  3  0  0  0  0  0  0
  182.8690  176.5950  136.9410 C   0  0  0  0  0  0  0  0  0  0  0  0
  184.4660  176.9340  134.6540 C   0  0  0  0  0  3  0  0  0  0  0  0
  185.0420  176.5100  135.8500 C   0  0  0  0  0  3  0  0  0  0  0  0
  180.1350  176.2330  135.0500 O   0  0  0  0  0  1  0  0  0  0  0  0
  180.8120  177.3200  135.6180 C   0  0  2  0  0  3  0  0  0  0  0  0
  180.8670  179.6690  135.8260 C   0  0  0  0  0  1  0  0  0  0  0  0
  179.1200  178.7110  134.5970 C   0  0  0  0  0  1  0  0  0  0  0  0
  180.5360  178.5830  134.9190 N   0  0  0  0  0  0  0  0  0  0  0  0
  183.9550  178.9090  140.7320 O   0  0  0  0  0  1  0  0  0  0  0  0
  183.6130  179.4500  139.4990 C   0  0  0  0  0  0  0  0  0  0  0  0
  184.1820  180.4990  139.1000 O   0  0  0  0  0  0  0  0  0  0  0  0
  182.6260  178.8260  138.6750 N   0  0  0  0  0  2  0  0  0  0  0  0
  180.7370  178.1650  141.1270 O   0  0  0  0  0  1  0  0  0  0  0  0
  179.7210  178.9170  139.1090 C   0  0  0  0  0  1  0  0  0  0  0  0
  180.5330  177.8310  139.7890 C   0  0  1  0  0  3  0  0  0  0  0  0
  2  4  1  6  0  0  0
  2  3  1  0  0  0  0
  2  1  1  0  0  0  0
  3 27  1  6  0  0  0
  3  1  1  0  0  0  0
  3 30  1  0  0  0  0
  5 10  1  0  0  0  0
  5  7  1  1  0  0  0
  6  5  1  0  0  0  0
  8 10  1  0  0  0  0
  9 12  1  0  0  0  0
 10  4  2  0  0  0  0
 11 12  2  0  0  0  0
 11  6  1  0  0  0  0
 12  8  1  0  0  0  0
 13 17  2  0  0  0  0
 13 14  1  0  0  0  0
 14 16  2  0  0  0  0
 16 15  1  0  0  0  0
 16  2  1  0  0  0  0
 17 18  1  0  0  0  0
 18 15  2  0  0  0  0
 20 19  1  6  0  0  0
 20 14  1  0  0  0  0
 22 23  1  0  0  0  0
 23 20  1  0  0  0  0
 23 21  1  0  0  0  0
 25 24  1  0  0  0  0
 26 25  2  0  0  0  0
 27 25  1  0  0  0  0
 30 29  1  6  0  0  0
 30 28  1  0  0  0  0
M  END
>  <MODEL>
6

>  <REMARK>
 VINA RESULT:      -3.9      2.568      5.549
  Name = 
  6 active torsions:
  status: ('A' for Active; 'I' for Inactive)
    1  A    between atoms: N_1  and  C_5
    2  A    between atoms: C_5  and  C_12
    3  A    between atoms: C_8  and  C_13
    4  A    between atoms: C_13  and  N_30
    5  A    between atoms: C_23  and  N_25
    6  A    between atoms: C_23  and  C_26
                            x       y       z     vdW  Elec       q    Type
                         _______ _______ _______ _____ _____    ______ ____

>  <TORSDO>
F 6

$$$$
=
 OpenBabel11052412213D

 30 32  0  0  1  0  0  0  0  0999 V2000
  183.5610  179.6350  140.3100 C   0  0  0  0  0  2  0  0  0  0  0  0
  183.5480  178.1970  139.7930 C   0  0  2  0  0  0  0  0  0  0  0  0
  184.0130  178.5040  141.2190 C   0  0  2  0  0  0  0  0  0  0  0  0
  184.6320  177.8480  138.8950 N   0  0  0  0  0  0  0  0  0  0  0  0
  185.7210  177.3220  136.8030 C   0  0  1  0  0  3  0  0  0  0  0  0
  185.4260  177.2900  135.2990 C   0  0  0  0  0  2  0  0  0  0  0  0
  186.7650  178.2160  137.0480 O   0  0  0  0  0  1  0  0  0  0  0  0
  183.1710  177.8920  136.9290 C   0  0  0  0  0  2  0  0  0  0  0  0
  181.7150  176.3270  135.4710 C   0  0  0  0  0  1  0  0  0  0  0  0
  184.5060  177.7060  137.6190 C   0  0  0  0  0  0  0  0  0  0  0  0
  184.0990  176.6450  135.0150 C   0  0  0  0  0  3  0  0  0  0  0  0
  183.0380  176.9380  135.7760 C   0  0  0  0  0  0  0  0  0  0  0  0
  179.8520  177.1600  139.5160 C   0  0  0  0  0  3  0  0  0  0  0  0
  180.9810  177.9870  139.6070 C   0  0  0  0  0  0  0  0  0  0  0  0
  182.3830  176.0010  139.6410 C   0  0  0  0  0  3  0  0  0  0  0  0
  182.2670  177.3980  139.6840 C   0  0  0  0  0  0  0  0  0  0  0  0
  179.9850  175.7710  139.4820 C   0  0  0  0  0  3  0  0  0  0  0  0
  181.2510  175.1920  139.5410 C   0  0  0  0  0  3  0  0  0  0  0  0
  180.1390  179.8650  140.8360 O   0  0  0  0  0  1  0  0  0  0  0  0
  180.7910  179.4780  139.6570 C   0  0  2  0  0  3  0  0  0  0  0  0
  181.0590  180.8940  137.7890 C   0  0  0  0  0  1  0  0  0  0  0  0
  178.9460  180.7780  138.7920 C   0  0  0  0  0  1  0  0  0  0  0  0
  180.1280  179.9950  138.4510 N   0  0  0  0  0  0  0  0  0  0  0  0
  183.5740  180.1990  143.5940 O   0  0  0  0  0  0  0  0  0  0  0  0
  182.8810  179.0030  143.4470 C   0  0  0  0  0  0  0  0  0  0  0  0
  182.0790  178.6350  144.3440 O   0  0  0  0  0  1  0  0  0  0  0  0
  183.0650  178.1900  142.2870 N   0  0  0  0  0  2  0  0  0  0  0  0
  186.0530  179.7510  141.4810 O   0  0  0  0  0  1  0  0  0  0  0  0
  185.7430  177.8740  142.9130 C   0  0  0  0  0  1  0  0  0  0  0  0
  185.5090  178.4680  141.5380 C   0  0  1  0  0  3  0  0  0  0  0  0
  1  3  1  0  0  0  0
  2  4  1  6  0  0  0
  2  1  1  0  0  0  0
  2  3  1  0  0  0  0
  3 30  1  0  0  0  0
  3 27  1  1  0  0  0
  5  7  1  6  0  0  0
  5 10  1  0  0  0  0
  6  5  1  0  0  0  0
  8 10  1  0  0  0  0
  9 12  1  0  0  0  0
 10  4  2  0  0  0  0
 11  6  1  0  0  0  0
 11 12  2  0  0  0  0
 12  8  1  0  0  0  0
 13 14  1  0  0  0  0
 14 20  1  0  0  0  0
 14 16  2  0  0  0  0
 15 16  1  0  0  0  0
 16  2  1  0  0  0  0
 17 13  2  0  0  0  0
 17 18  1  0  0  0  0
 18 15  2  0  0  0  0
 20 19  1  1  0  0  0
 21 23  1  0  0  0  0
 23 22  1  0  0  0  0
 23 20  1  0  0  0  0
 25 24  2  0  0  0  0
 25 26  1  0  0  0  0
 27 25  1  0  0  0  0
 28 30  1  0  0  0  0
 30 29  1  1  0  0  0
M  END
>  <MODEL>
7

>  <REMARK>
 VINA RESULT:      -3.8      2.231      5.876
  Name = 
  6 active torsions:
  status: ('A' for Active; 'I' for Inactive)
    1  A    between atoms: N_1  and  C_5
    2  A    between atoms: C_5  and  C_12
    3  A    between atoms: C_8  and  C_13
    4  A    between atoms: C_13  and  N_30
    5  A    between atoms: C_23  and  N_25
    6  A    between atoms: C_23  and  C_26
                            x       y       z     vdW  Elec       q    Type
                         _______ _______ _______ _____ _____    ______ ____

>  <TORSDO>
F 6

$$$$
=
 OpenBabel11052412213D

 30 32  0  0  1  0  0  0  0  0999 V2000
  191.1280  174.9910  134.9940 C   0  0  0  0  0  2  0  0  0  0  0  0
  190.3900  175.2760  136.3020 C   0  0  2  0  0  0  0  0  0  0  0  0
  191.9030  175.0470  136.3000 C   0  0  2  0  0  0  0  0  0  0  0  0
  189.6380  174.1640  136.8480 N   0  0  0  0  0  0  0  0  0  0  0  0
  187.7000  172.8230  137.3840 C   0  0  1  0  0  3  0  0  0  0  0  0
  186.1970  172.7600  137.0930 C   0  0  0  0  0  2  0  0  0  0  0  0
  188.3060  171.6510  136.9290 O   0  0  0  0  0  1  0  0  0  0  0  0
  187.5060  175.0560  136.0360 C   0  0  0  0  0  2  0  0  0  0  0  0
  185.5190  176.5270  136.8020 C   0  0  0  0  0  1  0  0  0  0  0  0
  188.3590  174.0290  136.7500 C   0  0  0  0  0  0  0  0  0  0  0  0
  185.5570  174.1150  137.2180 C   0  0  0  0  0  3  0  0  0  0  0  0
  186.1700  175.1910  136.7110 C   0  0  0  0  0  0  0  0  0  0  0  0
  189.7210  178.5560  138.2030 C   0  0  0  0  0  3  0  0  0  0  0  0
  190.1830  177.2560  137.9480 C   0  0  0  0  0  0  0  0  0  0  0  0
  189.2730  177.4200  135.6990 C   0  0  0  0  0  3  0  0  0  0  0  0
  189.9440  176.6730  136.6790 C   0  0  0  0  0  0  0  0  0  0  0  0
  189.0490  179.2820  137.2180 C   0  0  0  0  0  3  0  0  0  0  0  0
  188.8280  178.7140  135.9650 C   0  0  0  0  0  3  0  0  0  0  0  0
  190.0090  175.6340  139.7040 O   0  0  0  0  0  1  0  0  0  0  0  0
  190.8870  176.5030  139.0420 C   0  0  2  0  0  3  0  0  0  0  0  0
  193.0170  177.1280  139.8400 C   0  0  0  0  0  1  0  0  0  0  0  0
  191.2290  177.1280  141.3520 C   0  0  0  0  0  1  0  0  0  0  0  0
  191.5960  177.4000  139.9670 N   0  0  0  0  0  0  0  0  0  0  0  0
  194.3380  175.5650  134.7150 O   0  0  0  0  0  0  0  0  0  0  0  0
  193.9290  176.4670  135.6890 C   0  0  0  0  0  0  0  0  0  0  0  0
  194.6150  177.4990  135.9080 O   0  0  0  0  0  1  0  0  0  0  0  0
  192.7360  176.2410  136.4410 N   0  0  0  0  0  2  0  0  0  0  0  0
  192.8050  172.8910  135.7290 O   0  0  0  0  0  1  0  0  0  0  0  0
  193.6620  173.9350  137.6900 C   0  0  0  0  0  1  0  0  0  0  0  0
  192.4540  173.7100  136.8020 C   0  0  1  0  0  3  0  0  0  0  0  0
  1  3  1  0  0  0  0
  1  2  1  0  0  0  0
  2 16  1  0  0  0  0
  2  4  1  1  0  0  0
  3  2  1  0  0  0  0
  3 27  1  1  0  0  0
  3 30  1  0  0  0  0
  5  7  1  6  0  0  0
  6 11  1  0  0  0  0
  6  5  1  0  0  0  0
  8 12  1  0  0  0  0
  8 10  1  0  0  0  0
 10  4  2  0  0  0  0
 10  5  1  0  0  0  0
 12  9  1  0  0  0  0
 12 11  2  0  0  0  0
 14 13  1  0  0  0  0
 14 20  1  0  0  0  0
 15 18  2  0  0  0  0
 15 16  1  0  0  0  0
 16 14  2  0  0  0  0
 17 13  2  0  0  0  0
 18 17  1  0  0  0  0
 20 19  1  1  0  0  0
 20 23  1  0  0  0  0
 21 23  1  0  0  0  0
 23 22  1  0  0  0  0
 24 25  2  0  0  0  0
 25 26  1  0  0  0  0
 25 27  1  0  0  0  0
 28 30  1  0  0  0  0
 30 29  1  1  0  0  0
M  END
>  <MODEL>
8

>  <REMARK>
 VINA RESULT:      -3.4      6.986     10.195
  Name = 
  6 active torsions:
  status: ('A' for Active; 'I' for Inactive)
    1  A    between atoms: N_1  and  C_5
    2  A    between atoms: C_5  and  C_12
    3  A    between atoms: C_8  and  C_13
    4  A    between atoms: C_13  and  N_30
    5  A    between atoms: C_23  and  N_25
    6  A    between atoms: C_23  and  C_26
                            x       y       z     vdW  Elec       q    Type
                         _______ _______ _______ _____ _____    ______ ____

>  <TORSDO>
F 6

$$$$
=
 OpenBabel11052412213D

 30 32  0  0  1  0  0  0  0  0999 V2000
  179.1540  178.9530  137.7130 C   0  0  0  0  0  2  0  0  0  0  0  0
  180.3590  178.0220  137.8350 C   0  0  2  0  0  0  0  0  0  0  0  0
  180.4150  179.2450  136.9170 C   0  0  2  0  0  0  0  0  0  0  0  0
  180.2520  176.7660  137.1180 N   0  0  0  0  0  0  0  0  0  0  0  0
  179.6860  174.4470  136.7430 C   0  0  1  0  0  3  0  0  0  0  0  0
  178.9310  173.2970  137.4180 C   0  0  0  0  0  2  0  0  0  0  0  0
  179.0950  174.7240  135.5100 O   0  0  0  0  0  1  0  0  0  0  0  0
  179.1390  175.6560  138.9970 C   0  0  0  0  0  2  0  0  0  0  0  0
  179.6670  174.2050  141.0740 C   0  0  0  0  0  1  0  0  0  0  0  0
  179.7160  175.6950  137.5980 C   0  0  0  0  0  0  0  0  0  0  0  0
  179.2760  173.1960  138.8780 C   0  0  0  0  0  3  0  0  0  0  0  0
  179.3620  174.3070  139.6200 C   0  0  0  0  0  0  0  0  0  0  0  0
  183.3630  177.5900  140.2040 C   0  0  0  0  0  3  0  0  0  0  0  0
  182.5860  177.5070  139.0380 C   0  0  0  0  0  0  0  0  0  0  0  0
  180.8110  178.7090  140.1870 C   0  0  0  0  0  3  0  0  0  0  0  0
  181.2830  178.0640  139.0340 C   0  0  0  0  0  0  0  0  0  0  0  0
  182.8740  178.2290  141.3440 C   0  0  0  0  0  3  0  0  0  0  0  0
  181.6000  178.7920  141.3340 C   0  0  0  0  0  3  0  0  0  0  0  0
  183.7960  175.6120  138.2100 O   0  0  0  0  0  1  0  0  0  0  0  0
  183.1450  176.7950  137.8370 C   0  0  2  0  0  3  0  0  0  0  0  0
  184.0080  177.1300  135.6680 C   0  0  0  0  0  1  0  0  0  0  0  0
  185.3710  177.6720  137.4940 C   0  0  0  0  0  1  0  0  0  0  0  0
  183.9930  177.6710  137.0160 N   0  0  0  0  0  0  0  0  0  0  0  0
  179.3260  181.9760  137.1640 O   0  0  0  0  0  0  0  0  0  0  0  0
  180.6470  181.7140  137.5030 C   0  0  0  0  0  0  0  0  0  0  0  0
  181.3860  182.6540  137.8970 O   0  0  0  0  0  1  0  0  0  0  0  0
  181.1760  180.3900  137.4150 N   0  0  0  0  0  2  0  0  0  0  0  0
  179.1660  179.6780  134.9080 O   0  0  0  0  0  1  0  0  0  0  0  0
  181.5370  179.5900  134.7070 C   0  0  0  0  0  1  0  0  0  0  0  0
  180.3060  179.0450  135.4040 C   0  0  1  0  0  3  0  0  0  0  0  0
  1  2  1  0  0  0  0
  2  4  1  6  0  0  0
  2 16  1  0  0  0  0
  3 27  1  1  0  0  0
  3  1  1  0  0  0  0
  3  2  1  0  0  0  0
  4 10  2  0  0  0  0
  5  7  1  6  0  0  0
  5  6  1  0  0  0  0
  5 10  1  0  0  0  0
  6 11  1  0  0  0  0
  8 12  1  0  0  0  0
 10  8  1  0  0  0  0
 11 12  2  0  0  0  0
 12  9  1  0  0  0  0
 13 17  1  0  0  0  0
 14 13  2  0  0  0  0
 15 18  1  0  0  0  0
 16 14  1  0  0  0  0
 16 15  2  0  0  0  0
 18 17  2  0  0  0  0
 20 19  1  1  0  0  0
 20 14  1  0  0  0  0
 21 23  1  0  0  0  0
 23 22  1  0  0  0  0
 23 20  1  0  0  0  0
 24 25  2  0  0  0  0
 25 26  1  0  0  0  0
 27 25  1  0  0  0  0
 28 30  1  0  0  0  0
 30 29  1  6  0  0  0
 30  3  1  0  0  0  0
M  END
>  <MODEL>
9

>  <REMARK>
 VINA RESULT:      -3.4      2.450      5.639
  Name = 
  6 active torsions:
  status: ('A' for Active; 'I' for Inactive)
    1  A    between atoms: N_1  and  C_5
    2  A    between atoms: C_5  and  C_12
    3  A    between atoms: C_8  and  C_13
    4  A    between atoms: C_13  and  N_30
    5  A    between atoms: C_23  and  N_25
    6  A    between atoms: C_23  and  C_26
                            x       y       z     vdW  Elec       q    Type
                         _______ _______ _______ _____ _____    ______ ____

>  <TORSDO>
F 6

$$$$
