=
 OpenBabel11052417033D

 32 36  0  0  1  0  0  0  0  0999 V2000
  182.4970  178.5070  143.6910 C   0  0  2  0  0  3  0  0  0  0  0  0
  187.3350  177.9310  142.1890 C   0  0  0  0  0  0  0  0  0  0  0  0
  188.6370  176.8630  146.7580 O   0  0  0  0  0  0  0  0  0  0  0  0
  188.6190  177.7710  139.9950 C   0  0  0  0  0  0  0  0  0  0  0  0
  189.8120  177.3210  139.2640 C   0  0  0  0  0  0  0  0  0  0  0  0
  184.9730  178.5400  142.2700 C   0  0  0  0  0  0  0  0  0  0  0  0
  186.1830  178.1690  144.3310 C   0  0  0  0  0  3  0  0  0  0  0  0
  192.1150  176.5670  137.9100 C   0  0  0  0  0  3  0  0  0  0  0  0
  183.7770  178.8770  144.4540 C   0  0  0  0  0  2  0  0  0  0  0  0
  188.6220  177.1910  145.5650 C   0  0  0  0  0  0  0  0  0  0  0  0
  187.3500  177.8820  143.6050 C   0  0  0  0  0  0  0  0  0  0  0  0
  188.6070  177.5380  144.3030 C   0  0  0  0  0  0  0  0  0  0  0  0
  189.6160  176.8830  142.1550 C   0  0  2  0  0  3  0  0  0  0  0  0
  191.0270  177.0090  137.2250 N   0  0  0  0  0  0  0  0  0  0  0  0
  182.5680  178.9230  142.2450 C   0  0  0  0  0  3  0  0  0  0  0  0
  184.9980  178.4870  143.6720 C   0  0  0  0  0  0  0  0  0  0  0  0
  189.8880  177.3890  137.8660 C   0  0  0  0  0  3  0  0  0  0  0  0
  183.7240  178.8910  141.5760 C   0  0  0  0  0  3  0  0  0  0  0  0
  189.8820  177.5030  143.5270 C   0  0  1  0  0  3  0  0  0  0  0  0
  190.8670  176.8110  141.4000 N   0  0  0  0  0  2  0  0  0  0  0  0
  186.1320  178.2640  141.5420 C   0  0  0  0  0  3  0  0  0  0  0  0
  187.6910  178.3320  139.3520 O   0  0  0  0  0  0  0  0  0  0  0  0
  192.0810  176.4910  139.3050 C   0  0  0  0  0  3  0  0  0  0  0  0
  188.5370  177.6020  141.4340 N   0  0  0  0  0  0  0  0  0  0  0  0
  190.9160  176.8610  139.9780 C   0  0  0  0  0  0  0  0  0  0  0  0
  191.6550  178.9160  144.1080 C   0  0  0  0  0  1  0  0  0  0  0  0
  190.4020  178.8570  143.3760 N   0  0  0  0  0  2  0  0  0  0  0  0
  181.2780  179.1310  144.3450 C   0  0  0  0  0  2  0  0  0  0  0  0
  180.0560  178.2510  144.1370 C   0  0  0  0  0  2  0  0  0  0  0  0
  179.3010  178.6940  142.9290 C   0  0  0  0  0  0  0  0  0  0  0  0
  178.9710  180.1350  142.7480 C   0  0  0  0  0  1  0  0  0  0  0  0
  178.9310  177.8780  142.1000 O   0  0  0  0  0  0  0  0  0  0  0  0
  1 28  1  1  0  0  0
  1  9  1  0  0  0  0
  2 11  1  0  0  0  0
  4 24  1  0  0  0  0
  5 25  1  0  0  0  0
  5  4  1  0  0  0  0
  6 16  2  0  0  0  0
  8 23  1  0  0  0  0
 10  3  2  0  0  0  0
 11 12  1  0  0  0  0
 11  7  2  0  0  0  0
 12 10  2  0  0  0  0
 13 20  1  6  0  0  0
 13 19  1  0  0  0  0
 14 17  1  0  0  0  0
 14  8  2  0  0  0  0
 15  1  1  0  0  0  0
 16  7  1  0  0  0  0
 16  9  1  0  0  0  0
 17  5  2  0  0  0  0
 18 15  2  0  0  0  0
 18  6  1  0  0  0  0
 19 27  1  6  0  0  0
 19 12  1  0  0  0  0
 21  2  2  0  0  0  0
 21  6  1  0  0  0  0
 22  4  2  0  0  0  0
 23 25  2  0  0  0  0
 24 13  1  0  0  0  0
 24  2  1  0  0  0  0
 25 20  1  0  0  0  0
 27 26  1  0  0  0  0
 29 28  1  0  0  0  0
 30 29  1  0  0  0  0
 31 30  1  0  0  0  0
 32 30  2  0  0  0  0
M  END
>  <MODEL>
1

>  <REMARK>
 VINA RESULT:      -9.4      0.000      0.000
  Name = 
  4 active torsions:
  status: ('A' for Active; 'I' for Inactive)
    1  A    between atoms: C_1  and  C_10
    2  A    between atoms: C_2  and  C_24
    3  A    between atoms: C_10  and  C_24
    4  A    between atoms: N_25  and  C_26
                            x       y       z     vdW  Elec       q    Type
                         _______ _______ _______ _____ _____    ______ ____

>  <TORSDO>
F 4

$$$$
=
 OpenBabel11052417033D

 32 36  0  0  1  0  0  0  0  0999 V2000
  187.4490  178.5780  136.8190 C   0  0  2  0  0  3  0  0  0  0  0  0
  188.8060  177.7110  141.6570 C   0  0  0  0  0  0  0  0  0  0  0  0
  193.4850  177.5120  140.3200 O   0  0  0  0  0  0  0  0  0  0  0  0
  187.7190  177.7800  143.9590 C   0  0  0  0  0  0  0  0  0  0  0  0
  187.8610  177.9110  145.4160 C   0  0  0  0  0  0  0  0  0  0  0  0
  187.5110  177.9370  139.6010 C   0  0  0  0  0  0  0  0  0  0  0  0
  189.8930  177.5330  139.4740 C   0  0  0  0  0  3  0  0  0  0  0  0
  188.1460  178.0460  148.1740 C   0  0  0  0  0  3  0  0  0  0  0  0
  188.5770  177.6750  137.3400 C   0  0  0  0  0  2  0  0  0  0  0  0
  192.4070  177.4080  140.9190 C   0  0  0  0  0  0  0  0  0  0  0  0
  189.9740  177.5200  140.8760 C   0  0  0  0  0  0  0  0  0  0  0  0
  191.2680  177.2980  141.5550 C   0  0  0  0  0  0  0  0  0  0  0  0
  190.2420  177.9110  143.7070 C   0  0  2  0  0  3  0  0  0  0  0  0
  186.9140  178.1190  147.6040 N   0  0  0  0  0  0  0  0  0  0  0  0
  186.1810  178.4040  137.6140 C   0  0  0  0  0  3  0  0  0  0  0  0
  188.6730  177.7500  138.8370 C   0  0  0  0  0  0  0  0  0  0  0  0
  186.7480  178.0500  146.2550 C   0  0  0  0  0  3  0  0  0  0  0  0
  186.2210  178.1500  138.9260 C   0  0  0  0  0  3  0  0  0  0  0  0
  191.2810  177.0230  143.0220 C   0  0  1  0  0  3  0  0  0  0  0  0
  190.2710  177.6760  145.1500 N   0  0  0  0  0  2  0  0  0  0  0  0
  187.5840  177.9170  140.9950 C   0  0  0  0  0  3  0  0  0  0  0  0
  186.5600  177.6810  143.4700 O   0  0  0  0  0  0  0  0  0  0  0  0
  189.2810  177.9010  147.3720 C   0  0  0  0  0  3  0  0  0  0  0  0
  188.8960  177.7300  143.1110 N   0  0  0  0  0  0  0  0  0  0  0  0
  189.1310  177.8450  145.9850 C   0  0  0  0  0  0  0  0  0  0  0  0
  192.0140  175.1000  144.1380 C   0  0  0  0  0  1  0  0  0  0  0  0
  190.9780  175.6170  143.2610 N   0  0  0  0  0  2  0  0  0  0  0  0
  187.1750  178.3080  135.3510 C   0  0  0  0  0  2  0  0  0  0  0  0
  187.8100  176.9940  134.9270 C   0  0  0  0  0  2  0  0  0  0  0  0
  186.7720  175.9270  134.8270 C   0  0  0  0  0  0  0  0  0  0  0  0
  185.3480  176.2980  134.5940 C   0  0  0  0  0  1  0  0  0  0  0  0
  187.0780  174.7530  134.9600 O   0  0  0  0  0  0  0  0  0  0  0  0
  1 28  1  6  0  0  0
  1  9  1  0  0  0  0
  1 15  1  0  0  0  0
  2 24  1  0  0  0  0
  3 10  2  0  0  0  0
  4  5  1  0  0  0  0
  5 25  2  0  0  0  0
  5 17  1  0  0  0  0
  6 21  2  0  0  0  0
  7 11  1  0  0  0  0
  9 16  1  0  0  0  0
 10 12  2  0  0  0  0
 11 12  1  0  0  0  0
 11  2  2  0  0  0  0
 12 19  1  0  0  0  0
 13 20  1  1  0  0  0
 14  8  1  0  0  0  0
 15 18  2  0  0  0  0
 16  7  2  0  0  0  0
 16  6  1  0  0  0  0
 17 14  2  0  0  0  0
 18  6  1  0  0  0  0
 19 27  1  6  0  0  0
 19 13  1  0  0  0  0
 20 25  1  0  0  0  0
 21  2  1  0  0  0  0
 22  4  2  0  0  0  0
 23  8  2  0  0  0  0
 24 13  1  0  0  0  0
 24  4  1  0  0  0  0
 25 23  1  0  0  0  0
 27 26  1  0  0  0  0
 29 28  1  0  0  0  0
 30 29  1  0  0  0  0
 30 32  2  0  0  0  0
 31 30  1  0  0  0  0
M  END
>  <MODEL>
2

>  <REMARK>
 VINA RESULT:      -8.3      3.905      7.144
  Name = 
  4 active torsions:
  status: ('A' for Active; 'I' for Inactive)
    1  A    between atoms: C_1  and  C_10
    2  A    between atoms: C_2  and  C_24
    3  A    between atoms: C_10  and  C_24
    4  A    between atoms: N_25  and  C_26
                            x       y       z     vdW  Elec       q    Type
                         _______ _______ _______ _____ _____    ______ ____

>  <TORSDO>
F 4

$$$$
=
 OpenBabel11052417033D

 32 36  0  0  1  0  0  0  0  0999 V2000
  189.8710  177.0620  144.5130 C   0  0  2  0  0  3  0  0  0  0  0  0
  185.4590  178.2260  142.2370 C   0  0  0  0  0  0  0  0  0  0  0  0
  187.5420  177.6350  137.8750 O   0  0  0  0  0  0  0  0  0  0  0  0
  183.0220  178.5460  142.9050 C   0  0  0  0  0  0  0  0  0  0  0  0
  181.6020  178.5480  142.5270 C   0  0  0  0  0  0  0  0  0  0  0  0
  187.2360  177.9720  143.8900 C   0  0  0  0  0  0  0  0  0  0  0  0
  187.7920  178.0260  141.5360 C   0  0  0  0  0  3  0  0  0  0  0  0
  178.9310  178.6590  141.7820 C   0  0  0  0  0  3  0  0  0  0  0  0
  189.6530  177.8480  143.2120 C   0  0  0  0  0  2  0  0  0  0  0  0
  186.7950  177.9490  138.8110 C   0  0  0  0  0  0  0  0  0  0  0  0
  186.4340  178.1710  141.2100 C   0  0  0  0  0  0  0  0  0  0  0  0
  186.0050  178.2810  139.7990 C   0  0  0  0  0  0  0  0  0  0  0  0
  183.6570  178.0410  140.4990 C   0  0  2  0  0  3  0  0  0  0  0  0
  179.2820  178.6990  143.0940 N   0  0  0  0  0  0  0  0  0  0  0  0
  188.9110  177.4910  145.5930 C   0  0  0  0  0  3  0  0  0  0  0  0
  188.1940  177.9160  142.8650 C   0  0  0  0  0  0  0  0  0  0  0  0
  180.5850  178.6510  143.4840 C   0  0  0  0  0  3  0  0  0  0  0  0
  187.6650  177.8710  145.2940 C   0  0  0  0  0  3  0  0  0  0  0  0
  184.6040  178.7010  139.4980 C   0  0  1  0  0  3  0  0  0  0  0  0
  182.2780  178.4170  140.1900 N   0  0  0  0  0  2  0  0  0  0  0  0
  185.8860  178.1250  143.5720 C   0  0  0  0  0  3  0  0  0  0  0  0
  183.3270  178.7540  144.1110 O   0  0  0  0  0  0  0  0  0  0  0  0
  179.9160  178.5610  140.7950 C   0  0  0  0  0  3  0  0  0  0  0  0
  184.0470  178.3450  141.8980 N   0  0  0  0  0  0  0  0  0  0  0  0
  181.2570  178.4950  141.1780 C   0  0  0  0  0  0  0  0  0  0  0  0
  183.4000  180.5520  138.7200 C   0  0  0  0  0  1  0  0  0  0  0  0
  184.4980  180.1530  139.5840 N   0  0  0  0  0  2  0  0  0  0  0  0
  191.2980  177.2150  145.0060 C   0  0  0  0  0  2  0  0  0  0  0  0
  191.3640  177.0090  146.5100 C   0  0  0  0  0  2  0  0  0  0  0  0
  192.1640  175.7910  146.8300 C   0  0  0  0  0  0  0  0  0  0  0  0
  192.7800  175.6420  148.1780 C   0  0  0  0  0  1  0  0  0  0  0  0
  192.3350  174.9260  145.9860 O   0  0  0  0  0  0  0  0  0  0  0  0
  1 28  1  1  0  0  0
  1 15  1  0  0  0  0
  2 21  1  0  0  0  0
  3 10  2  0  0  0  0
  4 22  2  0  0  0  0
  5  4  1  0  0  0  0
  5 17  1  0  0  0  0
  6 18  1  0  0  0  0
  7 16  2  0  0  0  0
  8 14  1  0  0  0  0
  9  1  1  0  0  0  0
 10 12  2  0  0  0  0
 11  7  1  0  0  0  0
 11  2  2  0  0  0  0
 12 11  1  0  0  0  0
 13 20  1  6  0  0  0
 13 24  1  0  0  0  0
 14 17  2  0  0  0  0
 16  9  1  0  0  0  0
 16  6  1  0  0  0  0
 18 15  2  0  0  0  0
 19 27  1  1  0  0  0
 19 12  1  0  0  0  0
 19 13  1  0  0  0  0
 20 25  1  0  0  0  0
 21  6  2  0  0  0  0
 23 25  1  0  0  0  0
 23  8  2  0  0  0  0
 24  2  1  0  0  0  0
 24  4  1  0  0  0  0
 25  5  2  0  0  0  0
 26 27  1  0  0  0  0
 28 29  1  0  0  0  0
 29 30  1  0  0  0  0
 30 31  1  0  0  0  0
 32 30  2  0  0  0  0
M  END
>  <MODEL>
3

>  <REMARK>
 VINA RESULT:      -8.3      3.216      8.820
  Name = 
  4 active torsions:
  status: ('A' for Active; 'I' for Inactive)
    1  A    between atoms: C_1  and  C_10
    2  A    between atoms: C_2  and  C_24
    3  A    between atoms: C_10  and  C_24
    4  A    between atoms: N_25  and  C_26
                            x       y       z     vdW  Elec       q    Type
                         _______ _______ _______ _____ _____    ______ ____

>  <TORSDO>
F 4

$$$$
=
 OpenBabel11052417033D

 32 36  0  0  1  0  0  0  0  0999 V2000
  185.1160  178.2780  144.5720 C   0  0  2  0  0  3  0  0  0  0  0  0
  188.4960  177.5640  140.8230 C   0  0  0  0  0  0  0  0  0  0  0  0
  191.4550  175.2450  143.9180 O   0  0  0  0  0  0  0  0  0  0  0  0
  188.5810  177.8180  138.2900 C   0  0  0  0  0  0  0  0  0  0  0  0
  189.1840  177.4360  137.0050 C   0  0  0  0  0  0  0  0  0  0  0  0
  186.6230  178.3910  142.1490 C   0  0  0  0  0  0  0  0  0  0  0  0
  188.5200  177.3820  143.2600 C   0  0  0  0  0  3  0  0  0  0  0  0
  190.4010  176.7960  134.5940 C   0  0  0  0  0  3  0  0  0  0  0  0
  186.6480  178.3000  144.6610 C   0  0  0  0  0  2  0  0  0  0  0  0
  190.9750  175.8620  142.9590 C   0  0  0  0  0  0  0  0  0  0  0  0
  189.1390  177.1590  142.0200 C   0  0  0  0  0  0  0  0  0  0  0  0
  190.4670  176.5130  141.9450 C   0  0  0  0  0  0  0  0  0  0  0  0
  190.2260  176.3110  139.5030 C   0  0  2  0  0  3  0  0  0  0  0  0
  189.2460  177.5130  134.6140 N   0  0  0  0  0  0  0  0  0  0  0  0
  184.6140  179.0330  143.3690 C   0  0  0  0  0  3  0  0  0  0  0  0
  187.2660  177.9850  143.3290 C   0  0  0  0  0  0  0  0  0  0  0  0
  188.6330  177.8440  135.7830 C   0  0  0  0  0  3  0  0  0  0  0  0
  185.3050  179.0420  142.2250 C   0  0  0  0  0  3  0  0  0  0  0  0
  191.2110  176.5340  140.6500 C   0  0  1  0  0  3  0  0  0  0  0  0
  190.9510  176.2930  138.2320 N   0  0  0  0  0  2  0  0  0  0  0  0
  187.2360  178.1800  140.9140 C   0  0  0  0  0  3  0  0  0  0  0  0
  187.6090  178.6220  138.2870 O   0  0  0  0  0  0  0  0  0  0  0  0
  190.9850  176.3760  135.7910 C   0  0  0  0  0  3  0  0  0  0  0  0
  189.1240  177.3030  139.5340 N   0  0  0  0  0  0  0  0  0  0  0  0
  190.3620  176.6920  137.0000 C   0  0  0  0  0  0  0  0  0  0  0  0
  193.2890  177.5290  140.2370 C   0  0  0  0  0  1  0  0  0  0  0  0
  191.8880  177.8150  140.4930 N   0  0  0  0  0  2  0  0  0  0  0  0
  184.4930  178.8490  145.8330 C   0  0  0  0  0  2  0  0  0  0  0  0
  185.0790  178.1780  147.0640 C   0  0  0  0  0  2  0  0  0  0  0  0
  186.1810  179.0090  147.6300 C   0  0  0  0  0  0  0  0  0  0  0  0
  187.4310  178.3550  148.1090 C   0  0  0  0  0  1  0  0  0  0  0  0
  186.0550  180.2190  147.7240 O   0  0  0  0  0  0  0  0  0  0  0  0
  1  9  1  0  0  0  0
  1 28  1  1  0  0  0
  2 21  2  0  0  0  0
  2 11  1  0  0  0  0
  4 24  1  0  0  0  0
  5  4  1  0  0  0  0
  6 18  1  0  0  0  0
  6 16  2  0  0  0  0
  7 16  1  0  0  0  0
  8 14  2  0  0  0  0
  8 23  1  0  0  0  0
 10  3  2  0  0  0  0
 11  7  2  0  0  0  0
 12 11  1  0  0  0  0
 12 10  2  0  0  0  0
 13 20  1  6  0  0  0
 13 24  1  0  0  0  0
 13 19  1  0  0  0  0
 14 17  1  0  0  0  0
 15  1  1  0  0  0  0
 16  9  1  0  0  0  0
 17  5  2  0  0  0  0
 18 15  2  0  0  0  0
 19 27  1  6  0  0  0
 19 12  1  0  0  0  0
 21  6  1  0  0  0  0
 22  4  2  0  0  0  0
 23 25  2  0  0  0  0
 24  2  1  0  0  0  0
 25  5  1  0  0  0  0
 25 20  1  0  0  0  0
 26 27  1  0  0  0  0
 28 29  1  0  0  0  0
 29 30  1  0  0  0  0
 30 32  2  0  0  0  0
 30 31  1  0  0  0  0
M  END
>  <MODEL>
4

>  <REMARK>
 VINA RESULT:      -8.2      2.915      4.064
  Name = 
  4 active torsions:
  status: ('A' for Active; 'I' for Inactive)
    1  A    between atoms: C_1  and  C_10
    2  A    between atoms: C_2  and  C_24
    3  A    between atoms: C_10  and  C_24
    4  A    between atoms: N_25  and  C_26
                            x       y       z     vdW  Elec       q    Type
                         _______ _______ _______ _____ _____    ______ ____

>  <TORSDO>
F 4

$$$$
=
 OpenBabel11052417033D

 32 36  0  0  1  0  0  0  0  0999 V2000
  182.0780  179.5040  139.6270 C   0  0  2  0  0  3  0  0  0  0  0  0
  186.0730  178.2820  142.5490 C   0  0  0  0  0  0  0  0  0  0  0  0
  189.0650  178.9820  138.7710 O   0  0  0  0  0  0  0  0  0  0  0  0
  186.5520  177.9000  145.0220 C   0  0  0  0  0  0  0  0  0  0  0  0
  187.5190  177.8740  146.1290 C   0  0  0  0  0  0  0  0  0  0  0  0
  183.8050  178.5490  141.6910 C   0  0  0  0  0  0  0  0  0  0  0  0
  185.6710  178.5420  140.1520 C   0  0  0  0  0  3  0  0  0  0  0  0
  189.3670  177.7180  148.1930 C   0  0  0  0  0  3  0  0  0  0  0  0
  183.3440  178.7330  139.2280 C   0  0  0  0  0  2  0  0  0  0  0  0
  188.5560  178.6380  139.8450 C   0  0  0  0  0  0  0  0  0  0  0  0
  186.5640  178.3720  141.2230 C   0  0  0  0  0  0  0  0  0  0  0  0
  188.0200  178.2750  140.9820 C   0  0  0  0  0  0  0  0  0  0  0  0
  188.4280  178.4550  143.4030 C   0  0  2  0  0  3  0  0  0  0  0  0
  188.0350  177.6650  148.4560 N   0  0  0  0  0  0  0  0  0  0  0  0
  181.5350  179.0390  140.9540 C   0  0  0  0  0  3  0  0  0  0  0  0
  184.3010  178.6400  140.3810 C   0  0  0  0  0  0  0  0  0  0  0  0
  187.1090  177.7350  147.4610 C   0  0  0  0  0  3  0  0  0  0  0  0
  182.3560  178.6370  141.9300 C   0  0  0  0  0  3  0  0  0  0  0  0
  188.9110  177.8300  142.0950 C   0  0  1  0  0  3  0  0  0  0  0  0
  189.3160  178.0540  144.4940 N   0  0  0  0  0  2  0  0  0  0  0  0
  184.6860  178.3720  142.7590 C   0  0  0  0  0  3  0  0  0  0  0  0
  185.3360  177.6810  145.2750 O   0  0  0  0  0  0  0  0  0  0  0  0
  189.8170  177.8510  146.8760 C   0  0  0  0  0  3  0  0  0  0  0  0
  187.0020  178.1380  143.6630 N   0  0  0  0  0  0  0  0  0  0  0  0
  188.8810  177.9400  145.8440 C   0  0  0  0  0  0  0  0  0  0  0  0
  190.2460  175.9430  142.4650 C   0  0  0  0  0  1  0  0  0  0  0  0
  188.8860  176.3750  142.1910 N   0  0  0  0  0  2  0  0  0  0  0  0
  181.0070  179.3750  138.5610 C   0  0  0  0  0  2  0  0  0  0  0  0
  181.1610  180.4700  137.5190 C   0  0  0  0  0  2  0  0  0  0  0  0
  180.8200  181.7970  138.1100 C   0  0  0  0  0  0  0  0  0  0  0  0
  179.5220  181.9820  138.8160 C   0  0  0  0  0  1  0  0  0  0  0  0
  181.5900  182.7380  137.9980 O   0  0  0  0  0  0  0  0  0  0  0  0
  1 28  1  6  0  0  0
  1 15  1  0  0  0  0
  2 21  1  0  0  0  0
  2 24  1  0  0  0  0
  3 10  2  0  0  0  0
  4 22  2  0  0  0  0
  4  5  1  0  0  0  0
  5 17  1  0  0  0  0
  6 18  1  0  0  0  0
  6 21  2  0  0  0  0
  7 16  2  0  0  0  0
  7 11  1  0  0  0  0
  8 14  1  0  0  0  0
  9  1  1  0  0  0  0
  9 16  1  0  0  0  0
 10 12  2  0  0  0  0
 11  2  2  0  0  0  0
 12 11  1  0  0  0  0
 12 19  1  0  0  0  0
 13 24  1  0  0  0  0
 13 20  1  1  0  0  0
 15 18  2  0  0  0  0
 16  6  1  0  0  0  0
 17 14  2  0  0  0  0
 19 27  1  1  0  0  0
 19 13  1  0  0  0  0
 20 25  1  0  0  0  0
 23  8  2  0  0  0  0
 24  4  1  0  0  0  0
 25  5  2  0  0  0  0
 25 23  1  0  0  0  0
 27 26  1  0  0  0  0
 29 30  1  0  0  0  0
 29 28  1  0  0  0  0
 30 31  1  0  0  0  0
 32 30  2  0  0  0  0
M  END
>  <MODEL>
5

>  <REMARK>
 VINA RESULT:      -8.1      2.779      5.656
  Name = 
  4 active torsions:
  status: ('A' for Active; 'I' for Inactive)
    1  A    between atoms: C_1  and  C_10
    2  A    between atoms: C_2  and  C_24
    3  A    between atoms: C_10  and  C_24
    4  A    between atoms: N_25  and  C_26
                            x       y       z     vdW  Elec       q    Type
                         _______ _______ _______ _____ _____    ______ ____

>  <TORSDO>
F 4

$$$$
=
 OpenBabel11052417033D

 32 36  0  0  1  0  0  0  0  0999 V2000
  182.3870  179.4330  140.2320 C   0  0  2  0  0  3  0  0  0  0  0  0
  186.9400  178.0850  142.0880 C   0  0  0  0  0  0  0  0  0  0  0  0
  189.0560  179.4450  137.9190 O   0  0  0  0  0  0  0  0  0  0  0  0
  187.9350  177.4170  144.3370 C   0  0  0  0  0  0  0  0  0  0  0  0
  189.1110  177.3070  145.2110 C   0  0  0  0  0  0  0  0  0  0  0  0
  184.5360  178.3240  141.7520 C   0  0  0  0  0  0  0  0  0  0  0  0
  186.0400  178.6280  139.8820 C   0  0  0  0  0  3  0  0  0  0  0  0
  191.3530  176.9960  146.8170 C   0  0  0  0  0  3  0  0  0  0  0  0
  183.5670  178.7970  139.4820 C   0  0  0  0  0  2  0  0  0  0  0  0
  188.7930  178.9360  139.0150 C   0  0  0  0  0  0  0  0  0  0  0  0
  187.1410  178.3750  140.7160 C   0  0  0  0  0  0  0  0  0  0  0  0
  188.5170  178.3980  140.1760 C   0  0  0  0  0  0  0  0  0  0  0  0
  189.4140  178.2870  142.4650 C   0  0  2  0  0  3  0  0  0  0  0  0
  190.1070  176.8300  147.3340 N   0  0  0  0  0  0  0  0  0  0  0  0
  182.1480  178.7690  141.5630 C   0  0  0  0  0  3  0  0  0  0  0  0
  184.7450  178.6130  140.3940 C   0  0  0  0  0  0  0  0  0  0  0  0
  188.9930  176.9720  146.5660 C   0  0  0  0  0  3  0  0  0  0  0  0
  183.1660  178.2940  142.2870 C   0  0  0  0  0  3  0  0  0  0  0  0
  189.6340  177.8660  141.0130 C   0  0  1  0  0  3  0  0  0  0  0  0
  190.5230  177.8030  143.2880 N   0  0  0  0  0  2  0  0  0  0  0  0
  185.6250  178.0640  142.5840 C   0  0  0  0  0  3  0  0  0  0  0  0
  186.8060  177.0940  144.7970 O   0  0  0  0  0  0  0  0  0  0  0  0
  191.5140  177.3250  145.4690 C   0  0  0  0  0  3  0  0  0  0  0  0
  188.0850  177.8550  142.9610 N   0  0  0  0  0  0  0  0  0  0  0  0
  190.3820  177.4900  144.6690 C   0  0  0  0  0  0  0  0  0  0  0  0
  190.5550  176.0900  139.7980 C   0  0  0  0  0  1  0  0  0  0  0  0
  189.6770  176.4130  140.9090 N   0  0  0  0  0  2  0  0  0  0  0  0
  181.1220  179.3780  139.3960 C   0  0  0  0  0  2  0  0  0  0  0  0
  181.1750  178.2040  138.4310 C   0  0  0  0  0  2  0  0  0  0  0  0
  180.4170  177.0450  138.9850 C   0  0  0  0  0  0  0  0  0  0  0  0
  181.1500  175.8270  139.4310 C   0  0  0  0  0  1  0  0  0  0  0  0
  179.2000  177.0790  139.0540 O   0  0  0  0  0  0  0  0  0  0  0  0
  1 28  1  6  0  0  0
  1 15  1  0  0  0  0
  2 21  1  0  0  0  0
  2 24  1  0  0  0  0
  3 10  2  0  0  0  0
  4 22  2  0  0  0  0
  4  5  1  0  0  0  0
  5 17  1  0  0  0  0
  6 18  1  0  0  0  0
  6 21  2  0  0  0  0
  7 16  2  0  0  0  0
  7 11  1  0  0  0  0
  8 14  1  0  0  0  0
  9  1  1  0  0  0  0
  9 16  1  0  0  0  0
 10 12  2  0  0  0  0
 11  2  2  0  0  0  0
 12 11  1  0  0  0  0
 12 19  1  0  0  0  0
 13 24  1  0  0  0  0
 13 20  1  1  0  0  0
 15 18  2  0  0  0  0
 16  6  1  0  0  0  0
 17 14  2  0  0  0  0
 19 27  1  1  0  0  0
 19 13  1  0  0  0  0
 20 25  1  0  0  0  0
 23  8  2  0  0  0  0
 24  4  1  0  0  0  0
 25  5  2  0  0  0  0
 25 23  1  0  0  0  0
 26 27  1  0  0  0  0
 29 30  1  0  0  0  0
 29 28  1  0  0  0  0
 30 32  2  0  0  0  0
 30 31  1  0  0  0  0
M  END
>  <MODEL>
6

>  <REMARK>
 VINA RESULT:      -8.1      2.210      5.053
  Name = 
  4 active torsions:
  status: ('A' for Active; 'I' for Inactive)
    1  A    between atoms: C_1  and  C_10
    2  A    between atoms: C_2  and  C_24
    3  A    between atoms: C_10  and  C_24
    4  A    between atoms: N_25  and  C_26
                            x       y       z     vdW  Elec       q    Type
                         _______ _______ _______ _____ _____    ______ ____

>  <TORSDO>
F 4

$$$$
=
 OpenBabel11052417033D

 32 36  0  0  1  0  0  0  0  0999 V2000
  188.3410  178.0350  145.1630 C   0  0  2  0  0  3  0  0  0  0  0  0
  188.8260  177.2350  140.1510 C   0  0  0  0  0  0  0  0  0  0  0  0
  184.7070  179.7050  139.3460 O   0  0  0  0  0  0  0  0  0  0  0  0
  190.6010  176.3600  138.5460 C   0  0  0  0  0  0  0  0  0  0  0  0
  191.1540  176.3100  137.1860 C   0  0  0  0  0  0  0  0  0  0  0  0
  189.0770  177.0830  142.5730 C   0  0  0  0  0  0  0  0  0  0  0  0
  187.0420  177.9980  141.6380 C   0  0  0  0  0  3  0  0  0  0  0  0
  192.1300  176.1300  134.5940 C   0  0  0  0  0  3  0  0  0  0  0  0
  187.2320  177.7770  144.1320 C   0  0  0  0  0  2  0  0  0  0  0  0
  185.6930  178.9630  139.2560 C   0  0  0  0  0  0  0  0  0  0  0  0
  187.5420  177.8040  140.3400 C   0  0  0  0  0  0  0  0  0  0  0  0
  186.7370  178.1790  139.1580 C   0  0  0  0  0  0  0  0  0  0  0  0
  188.6960  177.8180  137.7120 C   0  0  2  0  0  3  0  0  0  0  0  0
  192.8530  175.6440  135.6370 N   0  0  0  0  0  0  0  0  0  0  0  0
  189.5100  177.1050  144.9700 C   0  0  0  0  0  3  0  0  0  0  0  0
  187.8050  177.6500  142.7500 C   0  0  0  0  0  0  0  0  0  0  0  0
  192.3940  175.7160  136.9160 C   0  0  0  0  0  3  0  0  0  0  0  0
  189.8750  176.7020  143.7490 C   0  0  0  0  0  3  0  0  0  0  0  0
  187.1740  177.7190  137.8060 C   0  0  1  0  0  3  0  0  0  0  0  0
  189.1320  177.4040  136.3790 N   0  0  0  0  0  2  0  0  0  0  0  0
  189.5760  176.8800  141.2860 C   0  0  0  0  0  3  0  0  0  0  0  0
  191.2100  175.7550  139.4700 O   0  0  0  0  0  0  0  0  0  0  0  0
  190.8860  176.7240  134.8200 C   0  0  0  0  0  3  0  0  0  0  0  0
  189.3580  177.0630  138.8050 N   0  0  0  0  0  0  0  0  0  0  0  0
  190.4060  176.8220  136.1270 C   0  0  0  0  0  0  0  0  0  0  0  0
  185.6140  176.3860  136.6800 C   0  0  0  0  0  1  0  0  0  0  0  0
  186.7430  176.3430  137.5930 N   0  0  0  0  0  2  0  0  0  0  0  0
  187.8060  177.9020  146.5770 C   0  0  0  0  0  2  0  0  0  0  0  0
  186.3360  177.5150  146.5530 C   0  0  0  0  0  2  0  0  0  0  0  0
  185.4800  178.7350  146.6130 C   0  0  0  0  0  0  0  0  0  0  0  0
  184.2730  178.8360  145.7450 C   0  0  0  0  0  1  0  0  0  0  0  0
  185.7760  179.6610  147.3510 O   0  0  0  0  0  0  0  0  0  0  0  0
  1 28  1  1  0  0  0
  2 11  2  0  0  0  0
  2 21  1  0  0  0  0
  4 24  1  0  0  0  0
  4 22  2  0  0  0  0
  5  4  1  0  0  0  0
  6 16  1  0  0  0  0
  6 18  1  0  0  0  0
  7 16  2  0  0  0  0
  8 23  2  0  0  0  0
  8 14  1  0  0  0  0
  9  1  1  0  0  0  0
 10  3  2  0  0  0  0
 11  7  1  0  0  0  0
 12 10  2  0  0  0  0
 12 11  1  0  0  0  0
 13 20  1  6  0  0  0
 13 19  1  0  0  0  0
 13 24  1  0  0  0  0
 14 17  2  0  0  0  0
 15  1  1  0  0  0  0
 16  9  1  0  0  0  0
 17  5  1  0  0  0  0
 18 15  2  0  0  0  0
 19 27  1  1  0  0  0
 19 12  1  0  0  0  0
 21  6  2  0  0  0  0
 23 25  1  0  0  0  0
 24  2  1  0  0  0  0
 25 20  1  0  0  0  0
 25  5  2  0  0  0  0
 26 27  1  0  0  0  0
 29 28  1  0  0  0  0
 29 30  1  0  0  0  0
 30 32  2  0  0  0  0
 31 30  1  0  0  0  0
M  END
>  <MODEL>
7

>  <REMARK>
 VINA RESULT:      -8.0      3.009      5.580
  Name = 
  4 active torsions:
  status: ('A' for Active; 'I' for Inactive)
    1  A    between atoms: C_1  and  C_10
    2  A    between atoms: C_2  and  C_24
    3  A    between atoms: C_10  and  C_24
    4  A    between atoms: N_25  and  C_26
                            x       y       z     vdW  Elec       q    Type
                         _______ _______ _______ _____ _____    ______ ____

>  <TORSDO>
F 4

$$$$
=
 OpenBabel11052417033D

 32 36  0  0  1  0  0  0  0  0999 V2000
  185.5430  179.0120  145.3810 C   0  0  2  0  0  3  0  0  0  0  0  0
  182.8620  178.4510  141.0810 C   0  0  0  0  0  0  0  0  0  0  0  0
  178.9960  180.5100  143.2090 O   0  0  0  0  0  0  0  0  0  0  0  0
  183.3070  177.8250  138.6520 C   0  0  0  0  0  0  0  0  0  0  0  0
  182.8990  177.8830  137.2410 C   0  0  0  0  0  0  0  0  0  0  0  0
  184.5690  178.2370  142.8110 C   0  0  0  0  0  0  0  0  0  0  0  0
  182.3430  178.9710  143.4120 C   0  0  0  0  0  3  0  0  0  0  0  0
  182.0660  177.9000  134.5940 C   0  0  0  0  0  3  0  0  0  0  0  0
  184.0510  178.6790  145.2300 C   0  0  0  0  0  2  0  0  0  0  0  0
  179.7550  179.8780  142.4630 C   0  0  0  0  0  0  0  0  0  0  0  0
  181.9410  178.8780  142.0700 C   0  0  0  0  0  0  0  0  0  0  0  0
  180.5560  179.2110  141.6730 C   0  0  0  0  0  0  0  0  0  0  0  0
  181.2140  179.1070  139.3030 C   0  0  2  0  0  3  0  0  0  0  0  0
  183.3070  177.4530  134.9220 N   0  0  0  0  0  0  0  0  0  0  0  0
  186.3930  178.2160  144.4250 C   0  0  0  0  0  3  0  0  0  0  0  0
  183.6500  178.6630  143.7830 C   0  0  0  0  0  0  0  0  0  0  0  0
  183.7360  177.4310  136.2130 C   0  0  0  0  0  3  0  0  0  0  0  0
  185.9440  177.8980  143.2070 C   0  0  0  0  0  3  0  0  0  0  0  0
  180.0870  178.8480  140.3030 C   0  0  1  0  0  3  0  0  0  0  0  0
  180.7530  178.7900  137.9520 N   0  0  0  0  0  2  0  0  0  0  0  0
  184.1730  178.1350  141.4770 C   0  0  0  0  0  3  0  0  0  0  0  0
  184.3920  177.2530  138.9450 O   0  0  0  0  0  0  0  0  0  0  0  0
  181.1980  178.3540  135.5900 C   0  0  0  0  0  3  0  0  0  0  0  0
  182.4530  178.3860  139.6830 N   0  0  0  0  0  0  0  0  0  0  0  0
  181.6270  178.3520  136.9180 C   0  0  0  0  0  0  0  0  0  0  0  0
  178.9320  177.1870  141.4790 C   0  0  0  0  0  1  0  0  0  0  0  0
  179.6980  177.4440  140.2720 N   0  0  0  0  0  2  0  0  0  0  0  0
  186.0090  178.7720  146.8050 C   0  0  0  0  0  2  0  0  0  0  0  0
  186.8850  177.5330  146.8740 C   0  0  0  0  0  2  0  0  0  0  0  0
  188.1150  177.8130  147.6720 C   0  0  0  0  0  0  0  0  0  0  0  0
  189.4550  177.5030  147.1000 C   0  0  0  0  0  1  0  0  0  0  0  0
  188.0270  178.2730  148.7980 O   0  0  0  0  0  0  0  0  0  0  0  0
  1 28  1  1  0  0  0
  2 21  2  0  0  0  0
  2 11  1  0  0  0  0
  4 22  2  0  0  0  0
  4 24  1  0  0  0  0
  5  4  1  0  0  0  0
  6 18  1  0  0  0  0
  6 16  2  0  0  0  0
  7 16  1  0  0  0  0
  8 14  2  0  0  0  0
  8 23  1  0  0  0  0
  9  1  1  0  0  0  0
 10  3  2  0  0  0  0
 11  7  2  0  0  0  0
 12 11  1  0  0  0  0
 12 10  2  0  0  0  0
 13 20  1  6  0  0  0
 13 24  1  0  0  0  0
 13 19  1  0  0  0  0
 14 17  1  0  0  0  0
 15  1  1  0  0  0  0
 16  9  1  0  0  0  0
 17  5  2  0  0  0  0
 18 15  2  0  0  0  0
 19 27  1  1  0  0  0
 19 12  1  0  0  0  0
 21  6  1  0  0  0  0
 23 25  2  0  0  0  0
 24  2  1  0  0  0  0
 25  5  1  0  0  0  0
 25 20  1  0  0  0  0
 27 26  1  0  0  0  0
 28 29  1  0  0  0  0
 29 30  1  0  0  0  0
 30 32  2  0  0  0  0
 31 30  1  0  0  0  0
M  END
>  <MODEL>
8

>  <REMARK>
 VINA RESULT:      -7.9      4.359      8.006
  Name = 
  4 active torsions:
  status: ('A' for Active; 'I' for Inactive)
    1  A    between atoms: C_1  and  C_10
    2  A    between atoms: C_2  and  C_24
    3  A    between atoms: C_10  and  C_24
    4  A    between atoms: N_25  and  C_26
                            x       y       z     vdW  Elec       q    Type
                         _______ _______ _______ _____ _____    ______ ____

>  <TORSDO>
F 4

$$$$
=
 OpenBabel11052417033D

 32 36  0  0  1  0  0  0  0  0999 V2000
  188.8990  178.1040  144.6840 C   0  0  2  0  0  3  0  0  0  0  0  0
  189.8150  176.9430  139.8050 C   0  0  0  0  0  0  0  0  0  0  0  0
  185.5670  178.9460  138.5190 O   0  0  0  0  0  0  0  0  0  0  0  0
  191.7710  176.1080  138.4030 C   0  0  0  0  0  0  0  0  0  0  0  0
  192.4240  175.9990  137.0900 C   0  0  0  0  0  0  0  0  0  0  0  0
  189.9020  177.0150  142.2420 C   0  0  0  0  0  0  0  0  0  0  0  0
  187.8690  177.6570  141.0990 C   0  0  0  0  0  3  0  0  0  0  0  0
  193.5980  175.6970  134.5940 C   0  0  0  0  0  3  0  0  0  0  0  0
  187.8950  177.6610  143.6100 C   0  0  0  0  0  2  0  0  0  0  0  0
  186.6180  178.2940  138.5580 C   0  0  0  0  0  0  0  0  0  0  0  0
  188.4760  177.4050  139.8590 C   0  0  0  0  0  0  0  0  0  0  0  0
  187.7300  177.6050  138.5990 C   0  0  0  0  0  0  0  0  0  0  0  0
  189.8130  177.3100  137.3210 C   0  0  2  0  0  3  0  0  0  0  0  0
  194.2830  175.3680  135.7210 N   0  0  0  0  0  0  0  0  0  0  0  0
  190.1560  177.2740  144.6510 C   0  0  0  0  0  3  0  0  0  0  0  0
  188.5760  177.4740  142.2850 C   0  0  0  0  0  0  0  0  0  0  0  0
  193.7270  175.5020  136.9560 C   0  0  0  0  0  3  0  0  0  0  0  0
  190.6420  176.8070  143.4970 C   0  0  0  0  0  3  0  0  0  0  0  0
  188.3020  177.0780  137.3240 C   0  0  1  0  0  3  0  0  0  0  0  0
  190.3790  176.8300  136.0600 N   0  0  0  0  0  2  0  0  0  0  0  0
  190.5090  176.7540  141.0130 C   0  0  0  0  0  3  0  0  0  0  0  0
  192.3620  175.6410  139.4140 O   0  0  0  0  0  0  0  0  0  0  0  0
  192.2940  176.1900  134.6850 C   0  0  0  0  0  3  0  0  0  0  0  0
  190.4560  176.7120  138.5170 N   0  0  0  0  0  0  0  0  0  0  0  0
  191.7140  176.3500  135.9450 C   0  0  0  0  0  0  0  0  0  0  0  0
  186.9290  175.5200  136.2450 C   0  0  0  0  0  1  0  0  0  0  0  0
  188.0100  175.6550  137.2060 N   0  0  0  0  0  2  0  0  0  0  0  0
  188.2770  178.0380  146.0670 C   0  0  0  0  0  2  0  0  0  0  0  0
  186.8470  177.5310  145.9800 C   0  0  0  0  0  2  0  0  0  0  0  0
  185.8880  178.6360  146.2710 C   0  0  0  0  0  0  0  0  0  0  0  0
  184.8930  179.0440  145.2390 C   0  0  0  0  0  1  0  0  0  0  0  0
  185.9290  179.2240  147.3390 O   0  0  0  0  0  0  0  0  0  0  0  0
  1 28  1  1  0  0  0
  2 11  2  0  0  0  0
  2 21  1  0  0  0  0
  3 10  2  0  0  0  0
  4 24  1  0  0  0  0
  4 22  2  0  0  0  0
  5  4  1  0  0  0  0
  6 16  1  0  0  0  0
  6 18  1  0  0  0  0
  7 16  2  0  0  0  0
  8 23  2  0  0  0  0
  8 14  1  0  0  0  0
  9  1  1  0  0  0  0
 10 12  2  0  0  0  0
 11  7  1  0  0  0  0
 12 11  1  0  0  0  0
 13 20  1  6  0  0  0
 13 19  1  0  0  0  0
 13 24  1  0  0  0  0
 14 17  2  0  0  0  0
 15  1  1  0  0  0  0
 16  9  1  0  0  0  0
 17  5  1  0  0  0  0
 18 15  2  0  0  0  0
 19 27  1  1  0  0  0
 19 12  1  0  0  0  0
 21  6  2  0  0  0  0
 23 25  1  0  0  0  0
 24  2  1  0  0  0  0
 25 20  1  0  0  0  0
 25  5  2  0  0  0  0
 26 27  1  0  0  0  0
 29 28  1  0  0  0  0
 29 30  1  0  0  0  0
 30 32  2  0  0  0  0
 31 30  1  0  0  0  0
M  END
>  <MODEL>
9

>  <REMARK>
 VINA RESULT:      -7.6      3.155      5.964
  Name = 
  4 active torsions:
  status: ('A' for Active; 'I' for Inactive)
    1  A    between atoms: C_1  and  C_10
    2  A    between atoms: C_2  and  C_24
    3  A    between atoms: C_10  and  C_24
    4  A    between atoms: N_25  and  C_26
                            x       y       z     vdW  Elec       q    Type
                         _______ _______ _______ _____ _____    ______ ____

>  <TORSDO>
F 4

$$$$
