=
 OpenBabel11052416183D

 43 50  0  0  1  0  0  0  0  0999 V2000
  184.7610  178.2910  143.5690 N   0  0  0  0  0  0  0  0  0  0  0  0
  191.2130  176.6180  146.7330 C   0  0  0  0  0  0  0  0  0  0  0  0
  187.0140  177.8830  144.1960 N   0  0  0  0  0  0  0  0  0  0  0  0
  187.7050  177.8030  141.4370 C   0  0  1  0  0  3  0  0  0  0  0  0
  188.9010  177.1280  146.1220 C   0  0  0  0  0  0  0  0  0  0  0  0
  191.6800  176.8730  145.5080 C   0  0  0  0  0  3  0  0  0  0  0  0
  192.1540  176.1760  147.7950 C   0  0  0  0  0  1  0  0  0  0  0  0
  189.3350  177.4190  144.7350 C   0  0  0  0  0  0  0  0  0  0  0  0
  189.7830  176.7550  147.0480 C   0  0  0  0  0  3  0  0  0  0  0  0
  190.8010  177.3300  144.3730 C   0  0  0  0  0  2  0  0  0  0  0  0
  188.8300  178.1100  142.4140 C   0  0  0  0  0  2  0  0  0  0  0  0
  188.4110  177.7700  143.8190 C   0  0  0  0  0  0  0  0  0  0  0  0
  186.6020  177.6070  145.5490 C   0  0  0  0  0  3  0  0  0  0  0  0
  186.0150  178.2260  143.2120 C   0  0  0  0  0  0  0  0  0  0  0  0
  186.4580  178.5850  141.8180 C   0  0  0  0  0  2  0  0  0  0  0  0
  187.4850  177.2480  146.4770 C   0  0  0  0  0  3  0  0  0  0  0  0
  188.1240  178.1290  140.0420 C   0  0  0  0  0  0  0  0  0  0  0  0
  188.0460  176.2640  136.7030 N   0  0  0  0  0  2  0  0  0  0  0  0
  187.9290  177.1520  139.0150 N   0  0  0  0  0  2  0  0  0  0  0  0
  188.6550  179.2440  139.7830 O   0  0  0  0  0  0  0  0  0  0  0  0
  188.2490  177.3310  137.6290 C   0  0  0  0  0  0  0  0  0  0  0  0
  188.7060  178.4280  137.2110 O   0  0  0  0  0  0  0  0  0  0  0  0
  187.5650  174.9520  137.1160 C   0  0  2  0  0  3  0  0  0  0  0  0
  186.1140  173.7180  135.4790 N   0  0  0  0  0  2  0  0  0  0  0  0
  185.0770  175.7350  136.6790 C   0  0  2  0  0  3  0  0  0  0  0  0
  188.6360  173.6680  136.4140 S   0  0  0  0  0  0  0  0  0  0  0  0
  186.1900  174.7030  136.5440 C   0  0  2  0  0  0  0  0  0  0  0  0
  185.1190  174.5100  137.5910 C   0  0  0  0  0  2  0  0  0  0  0  0
  187.1980  172.7800  135.7320 C   0  0  0  0  0  2  0  0  0  0  0  0
  184.0590  175.5550  135.6420 N   0  0  2  0  0  0  0  0  0  0  0  0
  182.5320  177.0700  136.8670 C   0  0  0  0  0  2  0  0  0  0  0  0
  183.1110  177.4960  134.6360 C   0  0  0  0  0  2  0  0  0  0  0  0
  182.0810  176.9100  135.4760 N   0  0  1  0  0  0  0  0  0  0  0  0
  184.2780  176.5420  134.5960 C   0  0  0  0  0  2  0  0  0  0  0  0
  182.7080  175.7760  136.1860 C   0  0  1  0  0  3  0  0  0  0  0  0
  182.4040  178.7620  140.6660 C   0  0  0  0  0  3  0  0  0  0  0  0
  181.2560  179.2140  141.3370 C   0  0  0  0  0  0  0  0  0  0  0  0
  182.4490  179.0510  143.4430 C   0  0  0  0  0  3  0  0  0  0  0  0
  183.5640  178.4600  141.3830 C   0  0  0  0  0  3  0  0  0  0  0  0
  183.5990  178.6090  142.7800 C   0  0  0  0  0  0  0  0  0  0  0  0
  181.2870  179.3540  142.7270 C   0  0  0  0  0  3  0  0  0  0  0  0
  180.0810  179.5280  140.6500 O   0  0  0  0  0  0  0  0  0  0  0  0
  179.6850  180.8650  140.3790 C   0  0  0  0  0  1  0  0  0  0  0  0
  2  9  1  0  0  0  0
  2  7  1  0  0  0  0
  3 13  1  0  0  0  0
  4 17  1  6  0  0  0
  4 15  1  0  0  0  0
  4 11  1  0  0  0  0
  5 16  1  0  0  0  0
  5  9  2  0  0  0  0
  6  2  2  0  0  0  0
  8  5  1  0  0  0  0
 10  8  1  0  0  0  0
 10  6  1  0  0  0  0
 11 12  1  0  0  0  0
 12  3  1  0  0  0  0
 12  8  2  0  0  0  0
 13 16  2  0  0  0  0
 14  1  2  0  0  0  0
 14  3  1  0  0  0  0
 15 14  1  0  0  0  0
 18 21  1  0  0  0  0
 19 17  1  0  0  0  0
 20 17  2  0  0  0  0
 21 19  1  0  0  0  0
 22 21  2  0  0  0  0
 23 18  1  6  0  0  0
 24 29  1  0  0  0  0
 24 27  1  0  0  0  0
 25 28  1  1  0  0  0
 26 23  1  0  0  0  0
 27 25  1  0  0  0  0
 27 23  1  0  0  0  0
 27 28  1  1  0  0  0
 29 26  1  0  0  0  0
 30 34  1  6  0  0  0
 30 35  1  0  0  0  0
 30 25  1  0  0  0  0
 33 32  1  6  0  0  0
 33 35  1  0  0  0  0
 33 31  1  0  0  0  0
 34 32  1  0  0  0  0
 35 31  1  1  0  0  0
 36 37  2  0  0  0  0
 36 39  1  0  0  0  0
 37 41  1  0  0  0  0
 39 40  2  0  0  0  0
 40 38  1  0  0  0  0
 40  1  1  0  0  0  0
 41 38  2  0  0  0  0
 42 37  1  0  0  0  0
 43 42  1  0  0  0  0
M  END
>  <MODEL>
1

>  <REMARK>
 VINA RESULT:     -10.2      0.000      0.000
  Name = 
  5 active torsions:
  status: ('A' for Active; 'I' for Inactive)
    1  A    between atoms: N_1  and  C_35
    2  A    between atoms: C_2  and  C_13
    3  A    between atoms: N_3  and  C_4
    4  A    between atoms: N_11  and  C_14
    5  A    between atoms: C_19  and  O_25
                            x       y       z     vdW  Elec       q    Type
                         _______ _______ _______ _____ _____    ______ ____

>  <TORSDO>
F 5

$$$$
=
 OpenBabel11052416183D

 43 50  0  0  1  0  0  0  0  0999 V2000
  190.9170  176.8360  141.3280 N   0  0  0  0  0  0  0  0  0  0  0  0
  187.9780  177.9030  148.0120 C   0  0  0  0  0  0  0  0  0  0  0  0
  189.5870  177.2390  143.2540 N   0  0  0  0  0  0  0  0  0  0  0  0
  187.6540  178.4940  141.5850 C   0  0  1  0  0  3  0  0  0  0  0  0
  189.3280  177.3930  146.0380 C   0  0  0  0  0  0  0  0  0  0  0  0
  186.8960  178.2160  147.2930 C   0  0  0  0  0  3  0  0  0  0  0  0
  187.9220  177.9990  149.4940 C   0  0  0  0  0  1  0  0  0  0  0  0
  188.1780  177.7350  145.1680 C   0  0  0  0  0  0  0  0  0  0  0  0
  189.2270  177.4740  147.3630 C   0  0  0  0  0  3  0  0  0  0  0  0
  186.8600  178.1420  145.7900 C   0  0  0  0  0  2  0  0  0  0  0  0
  187.1610  177.9670  142.9250 C   0  0  0  0  0  2  0  0  0  0  0  0
  188.3250  177.6650  143.8290 C   0  0  0  0  0  0  0  0  0  0  0  0
  190.6980  176.9000  144.1080 C   0  0  0  0  0  3  0  0  0  0  0  0
  189.7610  177.1940  141.8220 C   0  0  0  0  0  0  0  0  0  0  0  0
  188.5780  177.4770  140.9350 C   0  0  0  0  0  2  0  0  0  0  0  0
  190.5920  176.9670  145.4330 C   0  0  0  0  0  3  0  0  0  0  0  0
  186.5000  178.8050  140.6910 C   0  0  0  0  0  0  0  0  0  0  0  0
  185.3270  177.5410  137.2760 N   0  0  0  0  0  2  0  0  0  0  0  0
  186.3810  178.1050  139.4480 N   0  0  0  0  0  2  0  0  0  0  0  0
  185.6580  179.6810  141.0240 O   0  0  0  0  0  0  0  0  0  0  0  0
  185.3150  178.2700  138.5040 C   0  0  0  0  0  0  0  0  0  0  0  0
  184.3560  179.0500  138.7460 O   0  0  0  0  0  0  0  0  0  0  0  0
  186.4220  176.6560  136.9040 C   0  0  2  0  0  3  0  0  0  0  0  0
  186.2670  175.5600  134.6490 N   0  0  0  0  0  2  0  0  0  0  0  0
  184.6890  174.7030  136.4820 C   0  0  2  0  0  3  0  0  0  0  0  0
  187.6000  177.5570  135.8610 S   0  0  0  0  0  0  0  0  0  0  0  0
  185.9010  175.5210  136.0550 C   0  0  2  0  0  0  0  0  0  0  0  0
  186.1030  174.1560  136.6690 C   0  0  0  0  0  2  0  0  0  0  0  0
  187.5480  176.2480  134.5940 C   0  0  0  0  0  2  0  0  0  0  0  0
  184.0490  174.0620  135.3310 N   0  0  2  0  0  0  0  0  0  0  0  0
  182.5430  172.8170  136.8510 C   0  0  0  0  0  2  0  0  0  0  0  0
  181.6760  174.1720  135.1460 C   0  0  0  0  0  2  0  0  0  0  0  0
  182.0110  172.7980  135.4800 N   0  0  1  0  0  0  0  0  0  0  0  0
  182.9620  174.9090  134.8680 C   0  0  0  0  0  2  0  0  0  0  0  0
  183.4700  172.7600  135.7070 C   0  0  1  0  0  3  0  0  0  0  0  0
  193.0040  176.7600  138.1920 C   0  0  0  0  0  3  0  0  0  0  0  0
  192.0320  176.4070  137.2440 C   0  0  0  0  0  0  0  0  0  0  0  0
  190.3640  176.3560  139.0050 C   0  0  0  0  0  3  0  0  0  0  0  0
  192.6550  176.9100  139.5360 C   0  0  0  0  0  3  0  0  0  0  0  0
  191.3270  176.7160  139.9540 C   0  0  0  0  0  0  0  0  0  0  0  0
  190.7130  176.2050  137.6590 C   0  0  0  0  0  3  0  0  0  0  0  0
  192.3480  176.2520  135.8920 O   0  0  0  0  0  0  0  0  0  0  0  0
  191.4800  175.6070  134.9700 C   0  0  0  0  0  1  0  0  0  0  0  0
  1 14  2  0  0  0  0
  2  7  1  0  0  0  0
  3 12  1  0  0  0  0
  3 13  1  0  0  0  0
  4 17  1  6  0  0  0
  4 11  1  0  0  0  0
  5  9  2  0  0  0  0
  6  2  2  0  0  0  0
  8 10  1  0  0  0  0
  8  5  1  0  0  0  0
  9  2  1  0  0  0  0
 10  6  1  0  0  0  0
 11 12  1  0  0  0  0
 12  8  2  0  0  0  0
 13 16  2  0  0  0  0
 14  3  1  0  0  0  0
 15  4  1  0  0  0  0
 15 14  1  0  0  0  0
 16  5  1  0  0  0  0
 17 20  2  0  0  0  0
 18 21  1  0  0  0  0
 19 17  1  0  0  0  0
 21 22  2  0  0  0  0
 21 19  1  0  0  0  0
 23 18  1  6  0  0  0
 24 27  1  0  0  0  0
 25 28  1  1  0  0  0
 26 23  1  0  0  0  0
 27 25  1  0  0  0  0
 27 28  1  1  0  0  0
 27 23  1  0  0  0  0
 29 24  1  0  0  0  0
 29 26  1  0  0  0  0
 30 34  1  1  0  0  0
 30 35  1  0  0  0  0
 30 25  1  0  0  0  0
 33 32  1  6  0  0  0
 33 35  1  0  0  0  0
 33 31  1  0  0  0  0
 34 32  1  0  0  0  0
 35 31  1  1  0  0  0
 36 39  1  0  0  0  0
 37 41  1  0  0  0  0
 37 36  2  0  0  0  0
 38 40  1  0  0  0  0
 39 40  2  0  0  0  0
 40  1  1  0  0  0  0
 41 38  2  0  0  0  0
 42 37  1  0  0  0  0
 43 42  1  0  0  0  0
M  END
>  <MODEL>
2

>  <REMARK>
 VINA RESULT:      -9.7      2.834      5.666
  Name = 
  5 active torsions:
  status: ('A' for Active; 'I' for Inactive)
    1  A    between atoms: N_1  and  C_35
    2  A    between atoms: C_2  and  C_13
    3  A    between atoms: N_3  and  C_4
    4  A    between atoms: N_11  and  C_14
    5  A    between atoms: C_19  and  O_25
                            x       y       z     vdW  Elec       q    Type
                         _______ _______ _______ _____ _____    ______ ____

>  <TORSDO>
F 5

$$$$
=
 OpenBabel11052416183D

 43 50  0  0  1  0  0  0  0  0999 V2000
  189.9620  176.9400  140.5800 N   0  0  0  0  0  0  0  0  0  0  0  0
  187.9020  177.8990  147.6000 C   0  0  0  0  0  0  0  0  0  0  0  0
  188.8890  177.3070  142.6660 N   0  0  0  0  0  0  0  0  0  0  0  0
  186.7470  178.5640  141.2770 C   0  0  1  0  0  3  0  0  0  0  0  0
  188.9900  177.4260  145.4620 C   0  0  2  0  0  3  0  0  0  0  0  0
  186.7350  178.2100  147.0310 C   0  0  0  0  0  3  0  0  0  0  0  0
  188.0380  177.9770  149.0780 C   0  0  0  0  0  1  0  0  0  0  0  0
  187.7350  177.7670  144.7520 C   0  0  0  0  0  0  0  0  0  0  0  0
  189.0600  177.4900  146.7900 C   0  0  0  0  0  3  0  0  0  0  0  0
  186.5050  178.1540  145.5440 C   0  0  0  0  0  3  0  0  0  0  0  0
  186.4350  178.0160  142.6620 C   0  0  0  0  0  2  0  0  0  0  0  0
  187.7080  177.7140  143.4050 C   0  0  0  0  0  0  0  0  0  0  0  0
  190.1030  176.9690  143.3650 C   0  0  0  0  0  3  0  0  0  0  0  0
  188.8770  177.2810  141.2230 C   0  0  0  0  0  0  0  0  0  0  0  0
  187.5870  177.5630  140.4990 C   0  0  0  0  0  2  0  0  0  0  0  0
  190.1690  177.0190  144.6930 C   0  0  0  0  0  3  0  0  0  0  0  0
  185.4850  178.8730  140.5430 C   0  0  0  0  0  0  0  0  0  0  0  0
  183.6670  177.3360  137.5480 N   0  0  0  0  0  2  0  0  0  0  0  0
  185.1080  178.0480  139.4360 N   0  0  0  0  0  2  0  0  0  0  0  0
  184.7750  179.8560  140.8890 O   0  0  0  0  0  0  0  0  0  0  0  0
  183.9140  178.2000  138.6580 C   0  0  0  0  0  0  0  0  0  0  0  0
  183.0680  179.0880  138.9450 O   0  0  0  0  0  0  0  0  0  0  0  0
  184.6170  176.3160  137.1260 C   0  0  2  0  0  3  0  0  0  0  0  0
  183.9960  174.9680  135.1010 N   0  0  0  0  0  2  0  0  0  0  0  0
  182.7090  174.4910  137.2690 C   0  0  2  0  0  3  0  0  0  0  0  0
  185.6520  176.9710  135.7890 S   0  0  0  0  0  0  0  0  0  0  0  0
  183.8810  175.1360  136.5390 C   0  0  2  0  0  0  0  0  0  0  0  0
  184.0950  173.8460  137.2930 C   0  0  0  0  0  2  0  0  0  0  0  0
  185.2910  175.5250  134.7400 C   0  0  0  0  0  2  0  0  0  0  0  0
  181.8360  173.7710  136.3380 N   0  0  2  0  0  0  0  0  0  0  0  0
  180.2540  173.2920  138.1810 C   0  0  0  0  0  2  0  0  0  0  0  0
  179.5370  174.3870  136.2370 C   0  0  0  0  0  2  0  0  0  0  0  0
  179.5970  173.0870  136.8810 N   0  0  1  0  0  0  0  0  0  0  0  0
  180.9180  174.7210  135.7310 C   0  0  0  0  0  2  0  0  0  0  0  0
  181.0300  172.7620  137.0460 C   0  0  1  0  0  3  0  0  0  0  0  0
  189.8930  177.5990  136.8700 C   0  0  0  0  0  3  0  0  0  0  0  0
  190.7520  176.5860  136.4130 C   0  0  0  0  0  0  0  0  0  0  0  0
  191.0550  175.8390  138.7010 C   0  0  0  0  0  3  0  0  0  0  0  0
  189.6200  177.7260  138.2340 C   0  0  0  0  0  3  0  0  0  0  0  0
  190.1930  176.8410  139.1620 C   0  0  0  0  0  0  0  0  0  0  0  0
  191.3300  175.7110  137.3360 C   0  0  0  0  0  3  0  0  0  0  0  0
  191.0440  176.4300  135.0560 O   0  0  0  0  0  0  0  0  0  0  0  0
  192.2170  175.7750  134.5940 C   0  0  0  0  0  1  0  0  0  0  0  0
  1 14  2  0  0  0  0
  2  7  1  0  0  0  0
  3 13  1  0  0  0  0
  3 12  1  0  0  0  0
  4 17  1  6  0  0  0
  4 11  1  0  0  0  0
  5 16  1  6  0  0  0
  5  9  1  0  0  0  0
  6  2  1  0  0  0  0
  8  5  1  0  0  0  0
  8 10  1  0  0  0  0
  9  2  2  0  0  0  0
 10  6  2  0  0  0  0
 11 12  1  0  0  0  0
 12  8  2  0  0  0  0
 13 16  2  0  0  0  0
 14  3  1  0  0  0  0
 15 14  1  0  0  0  0
 15  4  1  0  0  0  0
 17 20  2  0  0  0  0
 18 21  1  0  0  0  0
 19 17  1  0  0  0  0
 21 22  2  0  0  0  0
 21 19  1  0  0  0  0
 23 18  1  6  0  0  0
 24 27  1  0  0  0  0
 25 28  1  1  0  0  0
 26 23  1  0  0  0  0
 27 23  1  0  0  0  0
 27 25  1  0  0  0  0
 27 28  1  1  0  0  0
 29 24  1  0  0  0  0
 29 26  1  0  0  0  0
 30 34  1  1  0  0  0
 30 35  1  0  0  0  0
 30 25  1  0  0  0  0
 33 32  1  6  0  0  0
 33 35  1  0  0  0  0
 33 31  1  0  0  0  0
 34 32  1  0  0  0  0
 35 31  1  1  0  0  0
 36 39  1  0  0  0  0
 37 36  2  0  0  0  0
 37 41  1  0  0  0  0
 38 40  1  0  0  0  0
 39 40  2  0  0  0  0
 40  1  1  0  0  0  0
 41 38  2  0  0  0  0
 42 37  1  0  0  0  0
 43 42  1  0  0  0  0
M  END
>  <MODEL>
3

>  <REMARK>
 VINA RESULT:      -9.4      2.685      5.692
  Name = 
  5 active torsions:
  status: ('A' for Active; 'I' for Inactive)
    1  A    between atoms: N_1  and  C_35
    2  A    between atoms: C_2  and  C_13
    3  A    between atoms: N_3  and  C_4
    4  A    between atoms: N_11  and  C_14
    5  A    between atoms: C_19  and  O_25
                            x       y       z     vdW  Elec       q    Type
                         _______ _______ _______ _____ _____    ______ ____

>  <TORSDO>
F 5

$$$$
=
 OpenBabel11052416183D

 43 50  0  0  1  0  0  0  0  0999 V2000
  183.1230  179.0250  140.5550 N   0  0  0  0  0  0  0  0  0  0  0  0
  188.3420  177.4830  145.5380 C   0  0  0  0  0  0  0  0  0  0  0  0
  185.0870  178.5970  141.8180 N   0  0  0  0  0  0  0  0  0  0  0  0
  186.4790  178.1170  139.3830 C   0  0  1  0  0  3  0  0  0  0  0  0
  186.3250  178.0180  144.2620 C   0  0  0  0  0  0  0  0  0  0  0  0
  189.1370  177.5500  144.4670 C   0  0  0  0  0  3  0  0  0  0  0  0
  188.9270  177.1430  146.8620 C   0  0  0  0  0  1  0  0  0  0  0  0
  187.1350  178.0990  143.0230 C   0  0  0  0  0  0  0  0  0  0  0  0
  186.8950  177.7300  145.4310 C   0  0  0  0  0  3  0  0  0  0  0  0
  188.6320  177.8930  143.0900 C   0  0  0  0  0  2  0  0  0  0  0  0
  187.3240  178.4970  140.5890 C   0  0  0  0  0  2  0  0  0  0  0  0
  186.5200  178.3680  141.8540 C   0  0  0  0  0  0  0  0  0  0  0  0
  184.3090  178.5250  143.0280 C   0  0  0  0  0  3  0  0  0  0  0  0
  184.4180  178.8530  140.5650 C   0  0  0  0  0  0  0  0  0  0  0  0
  185.2440  179.0010  139.3150 C   0  0  0  0  0  2  0  0  0  0  0  0
  184.8810  178.2510  144.1990 C   0  0  0  0  0  3  0  0  0  0  0  0
  187.2790  178.2340  138.1280 C   0  0  0  0  0  0  0  0  0  0  0  0
  190.6930  176.9400  136.9850 N   0  0  0  0  0  2  0  0  0  0  0  0
  188.5560  177.5900  138.0600 N   0  0  0  0  0  2  0  0  0  0  0  0
  186.8380  178.9020  137.1550 O   0  0  0  0  0  0  0  0  0  0  0  0
  189.4210  177.5850  136.9180 C   0  0  0  0  0  0  0  0  0  0  0  0
  189.0710  178.1400  135.8430 O   0  0  0  0  0  0  0  0  0  0  0  0
  191.1890  176.3160  138.2040 C   0  0  2  0  0  3  0  0  0  0  0  0
  193.4580  177.0410  138.9980 N   0  0  0  0  0  2  0  0  0  0  0  0
  193.3650  175.5460  136.9150 C   0  0  2  0  0  3  0  0  0  0  0  0
  190.8660  177.4070  139.6160 S   0  0  0  0  0  0  0  0  0  0  0  0
  192.6890  176.1630  138.1320 C   0  0  2  0  0  0  0  0  0  0  0  0
  193.1610  174.7300  138.1910 C   0  0  0  0  0  2  0  0  0  0  0  0
  192.6060  177.3060  140.1480 C   0  0  0  0  0  2  0  0  0  0  0  0
  194.7620  175.9740  136.8100 N   0  0  2  0  0  0  0  0  0  0  0  0
  195.2560  174.0360  135.3510 C   0  0  0  0  0  2  0  0  0  0  0  0
  195.7110  176.2220  134.6380 C   0  0  0  0  0  2  0  0  0  0  0  0
  196.3200  175.0450  135.2330 N   0  0  1  0  0  0  0  0  0  0  0  0
  194.8840  176.9040  135.6990 C   0  0  0  0  0  2  0  0  0  0  0  0
  195.6450  174.8290  136.5300 C   0  0  1  0  0  3  0  0  0  0  0  0
  180.7260  178.5840  137.6810 C   0  0  0  0  0  3  0  0  0  0  0  0
  180.5050  179.9240  137.3220 C   0  0  0  0  0  0  0  0  0  0  0  0
  182.0130  180.6230  139.0880 C   0  0  0  0  0  3  0  0  0  0  0  0
  181.5860  178.2720  138.7360 C   0  0  0  0  0  3  0  0  0  0  0  0
  182.2440  179.2900  139.4450 C   0  0  0  0  0  0  0  0  0  0  0  0
  181.1520  180.9380  138.0330 C   0  0  0  0  0  3  0  0  0  0  0  0
  179.6530  180.2700  136.2700 O   0  0  0  0  0  0  0  0  0  0  0  0
  180.0670  181.0910  135.1860 C   0  0  0  0  0  1  0  0  0  0  0  0
  1 14  2  0  0  0  0
  2  7  1  0  0  0  0
  3 12  1  0  0  0  0
  3 13  1  0  0  0  0
  4 17  1  6  0  0  0
  4 11  1  0  0  0  0
  5  9  2  0  0  0  0
  6  2  2  0  0  0  0
  8 10  1  0  0  0  0
  8  5  1  0  0  0  0
  9  2  1  0  0  0  0
 10  6  1  0  0  0  0
 11 12  1  0  0  0  0
 12  8  2  0  0  0  0
 13 16  2  0  0  0  0
 14  3  1  0  0  0  0
 15  4  1  0  0  0  0
 15 14  1  0  0  0  0
 16  5  1  0  0  0  0
 19 17  1  0  0  0  0
 20 17  2  0  0  0  0
 21 18  1  0  0  0  0
 21 19  1  0  0  0  0
 22 21  2  0  0  0  0
 23 18  1  6  0  0  0
 23 26  1  0  0  0  0
 24 29  1  0  0  0  0
 25 27  1  0  0  0  0
 25 28  1  1  0  0  0
 26 29  1  0  0  0  0
 27 28  1  1  0  0  0
 27 23  1  0  0  0  0
 27 24  1  0  0  0  0
 30 34  1  6  0  0  0
 30 25  1  0  0  0  0
 32 34  1  0  0  0  0
 33 32  1  6  0  0  0
 33 31  1  0  0  0  0
 33 35  1  0  0  0  0
 35 31  1  6  0  0  0
 35 30  1  0  0  0  0
 36 39  1  0  0  0  0
 37 36  2  0  0  0  0
 37 41  1  0  0  0  0
 38 40  1  0  0  0  0
 39 40  2  0  0  0  0
 40  1  1  0  0  0  0
 41 38  2  0  0  0  0
 42 37  1  0  0  0  0
 43 42  1  0  0  0  0
M  END
>  <MODEL>
4

>  <REMARK>
 VINA RESULT:      -9.0      3.928      6.173
  Name = 
  5 active torsions:
  status: ('A' for Active; 'I' for Inactive)
    1  A    between atoms: N_1  and  C_35
    2  A    between atoms: C_2  and  C_13
    3  A    between atoms: N_3  and  C_4
    4  A    between atoms: N_11  and  C_14
    5  A    between atoms: C_19  and  O_25
                            x       y       z     vdW  Elec       q    Type
                         _______ _______ _______ _____ _____    ______ ____

>  <TORSDO>
F 5

$$$$
=
 OpenBabel11052416183D

 43 50  0  0  1  0  0  0  0  0999 V2000
  186.3970  178.0510  145.5120 N   0  0  0  0  0  0  0  0  0  0  0  0
  180.3500  179.4880  141.5360 C   0  0  0  0  0  0  0  0  0  0  0  0
  184.7070  178.3990  143.8810 N   0  0  0  0  0  0  0  0  0  0  0  0
  186.7400  178.5960  141.9000 C   0  0  1  0  0  3  0  0  0  0  0  0
  182.0610  179.0380  143.2240 C   0  0  0  0  0  0  0  0  0  0  0  0
  181.1860  179.2830  140.5150 C   0  0  0  0  0  3  0  0  0  0  0  0
  178.9390  179.8680  141.2600 C   0  0  0  0  0  1  0  0  0  0  0  0
  183.0550  178.8060  142.1490 C   0  0  0  0  0  0  0  0  0  0  0  0
  180.8020  179.3560  142.9300 C   0  0  0  0  0  3  0  0  0  0  0  0
  182.6280  178.8910  140.7010 C   0  0  0  0  0  2  0  0  0  0  0  0
  185.3450  178.2300  141.4140 C   0  0  0  0  0  2  0  0  0  0  0  0
  184.3260  178.5100  142.4850 C   0  0  0  0  0  0  0  0  0  0  0  0
  183.7320  178.6180  144.9200 C   0  0  0  0  0  3  0  0  0  0  0  0
  186.0740  178.1150  144.2480 C   0  0  0  0  0  0  0  0  0  0  0  0
  187.0720  177.8150  143.1620 C   0  0  0  0  0  2  0  0  0  0  0  0
  182.4700  178.9210  144.6260 C   0  0  0  0  0  3  0  0  0  0  0  0
  187.7500  178.3290  140.8340 C   0  0  0  0  0  0  0  0  0  0  0  0
  187.6060  177.9200  137.0340 N   0  0  0  0  0  2  0  0  0  0  0  0
  187.3130  178.2440  139.4740 N   0  0  0  0  0  2  0  0  0  0  0  0
  188.9630  178.1660  141.1370 O   0  0  0  0  0  0  0  0  0  0  0  0
  188.1660  178.0260  138.3430 C   0  0  0  0  0  0  0  0  0  0  0  0
  189.4140  177.9320  138.4860 O   0  0  0  0  0  0  0  0  0  0  0  0
  186.1710  177.9720  136.7910 C   0  0  2  0  0  3  0  0  0  0  0  0
  184.8080  176.0600  137.6830 N   0  0  0  0  0  2  0  0  0  0  0  0
  186.2880  175.5940  135.6390 C   0  0  2  0  0  3  0  0  0  0  0  0
  185.3340  178.6350  138.2570 S   0  0  0  0  0  0  0  0  0  0  0  0
  185.6290  176.5750  136.6010 C   0  0  2  0  0  0  0  0  0  0  0  0
  185.0140  176.3390  135.2430 C   0  0  0  0  0  2  0  0  0  0  0  0
  184.1800  177.2240  138.2910 C   0  0  0  0  0  2  0  0  0  0  0  0
  185.9710  174.2090  135.9960 N   0  0  2  0  0  0  0  0  0  0  0  0
  187.8480  173.4100  134.5940 C   0  0  0  0  0  2  0  0  0  0  0  0
  187.7140  172.8350  136.8620 C   0  0  0  0  0  2  0  0  0  0  0  0
  187.4220  172.3520  135.5230 N   0  0  1  0  0  0  0  0  0  0  0  0
  186.6760  173.8680  137.2210 C   0  0  0  0  0  2  0  0  0  0  0  0
  186.4250  173.2780  134.9470 C   0  0  1  0  0  3  0  0  0  0  0  0
  189.1570  177.6010  148.0380 C   0  0  0  0  0  3  0  0  0  0  0  0
  190.2080  177.1930  147.2020 C   0  0  0  0  0  0  0  0  0  0  0  0
  188.7260  177.3690  145.2900 C   0  0  0  0  0  3  0  0  0  0  0  0
  187.9010  177.8910  147.4990 C   0  0  0  0  0  3  0  0  0  0  0  0
  187.6770  177.7850  146.1170 C   0  0  0  0  0  0  0  0  0  0  0  0
  189.9830  177.0780  145.8270 C   0  0  0  0  0  3  0  0  0  0  0  0
  191.4760  176.8980  147.7080 O   0  0  0  0  0  0  0  0  0  0  0  0
  192.1340  175.6640  147.4580 C   0  0  0  0  0  1  0  0  0  0  0  0
  1 40  1  0  0  0  0
  2  9  1  0  0  0  0
  3 14  1  0  0  0  0
  3 13  1  0  0  0  0
  4 17  1  6  0  0  0
  4 15  1  0  0  0  0
  5 16  1  0  0  0  0
  6 10  1  0  0  0  0
  6  2  2  0  0  0  0
  7  2  1  0  0  0  0
  8 12  2  0  0  0  0
  8  5  1  0  0  0  0
  9  5  2  0  0  0  0
 10  8  1  0  0  0  0
 11  4  1  0  0  0  0
 11 12  1  0  0  0  0
 12  3  1  0  0  0  0
 14  1  2  0  0  0  0
 15 14  1  0  0  0  0
 16 13  2  0  0  0  0
 17 20  2  0  0  0  0
 18 21  1  0  0  0  0
 19 17  1  0  0  0  0
 21 22  2  0  0  0  0
 21 19  1  0  0  0  0
 23 18  1  1  0  0  0
 23 26  1  0  0  0  0
 24 29  1  0  0  0  0
 25 28  1  6  0  0  0
 25 30  1  0  0  0  0
 25 27  1  0  0  0  0
 26 29  1  0  0  0  0
 27 28  1  6  0  0  0
 27 23  1  0  0  0  0
 27 24  1  0  0  0  0
 30 34  1  1  0  0  0
 32 34  1  0  0  0  0
 33 31  1  6  0  0  0
 33 32  1  0  0  0  0
 35 31  1  6  0  0  0
 35 33  1  0  0  0  0
 35 30  1  0  0  0  0
 37 42  1  0  0  0  0
 37 36  2  0  0  0  0
 38 41  2  0  0  0  0
 38 40  1  0  0  0  0
 39 36  1  0  0  0  0
 40 39  2  0  0  0  0
 41 37  1  0  0  0  0
 43 42  1  0  0  0  0
M  END
>  <MODEL>
5

>  <REMARK>
 VINA RESULT:      -8.6      2.177      6.965
  Name = 
  5 active torsions:
  status: ('A' for Active; 'I' for Inactive)
    1  A    between atoms: N_1  and  C_35
    2  A    between atoms: C_2  and  C_13
    3  A    between atoms: N_3  and  C_4
    4  A    between atoms: N_11  and  C_14
    5  A    between atoms: C_19  and  O_25
                            x       y       z     vdW  Elec       q    Type
                         _______ _______ _______ _____ _____    ______ ____

>  <TORSDO>
F 5

$$$$
=
 OpenBabel11052416183D

 43 50  0  0  1  0  0  0  0  0999 V2000
  189.1280  177.5700  140.2920 N   0  0  0  0  0  0  0  0  0  0  0  0
  191.3440  176.5610  147.2570 C   0  0  0  0  0  0  0  0  0  0  0  0
  189.4030  177.2620  142.6300 N   0  0  0  0  0  0  0  0  0  0  0  0
  186.8080  178.3610  143.0210 C   0  0  1  0  0  3  0  0  0  0  0  0
  191.0560  176.7830  144.8390 C   0  0  2  0  0  3  0  0  0  0  0  0
  190.0480  176.7610  147.5130 C   0  0  0  0  0  3  0  0  0  0  0  0
  192.2850  176.3380  148.3860 C   0  0  0  0  0  1  0  0  0  0  0  0
  189.6070  177.0260  145.0380 C   0  0  0  0  0  0  0  0  0  0  0  0
  191.8590  176.5670  145.8800 C   0  0  0  0  0  3  0  0  0  0  0  0
  189.0240  176.9900  146.4330 C   0  0  0  0  0  3  0  0  0  0  0  0
  187.3490  177.4750  144.1330 C   0  0  0  0  0  2  0  0  0  0  0  0
  188.8290  177.2650  143.9630 C   0  0  0  0  0  0  0  0  0  0  0  0
  190.8110  177.0150  142.4450 C   0  0  0  0  0  3  0  0  0  0  0  0
  188.5820  177.5500  141.4790 C   0  0  0  0  0  0  0  0  0  0  0  0
  187.1000  177.7330  141.6680 C   0  0  0  0  0  2  0  0  0  0  0  0
  191.6110  176.7850  143.4840 C   0  0  0  0  0  3  0  0  0  0  0  0
  185.3420  178.5790  143.1960 C   0  0  0  0  0  0  0  0  0  0  0  0
  182.3020  178.3980  140.8810 N   0  0  0  0  0  2  0  0  0  0  0  0
  184.4790  178.4110  142.0660 N   0  0  0  0  0  2  0  0  0  0  0  0
  184.8800  178.9200  144.3180 O   0  0  0  0  0  0  0  0  0  0  0  0
  183.0530  178.5520  142.0850 C   0  0  0  0  0  0  0  0  0  0  0  0
  182.4460  178.8060  143.1590 O   0  0  0  0  0  0  0  0  0  0  0  0
  182.9330  178.1500  139.5920 C   0  0  2  0  0  3  0  0  0  0  0  0
  181.4080  177.9770  137.6050 N   0  0  0  0  0  2  0  0  0  0  0  0
  181.4030  176.0180  139.2620 C   0  0  2  0  0  3  0  0  0  0  0  0
  183.1360  179.7190  138.7060 S   0  0  0  0  0  0  0  0  0  0  0  0
  182.0300  177.3010  138.7300 C   0  0  2  0  0  0  0  0  0  0  0  0
  182.6270  175.9670  138.3480 C   0  0  0  0  0  2  0  0  0  0  0  0
  182.3310  179.0350  137.2210 C   0  0  0  0  0  2  0  0  0  0  0  0
  180.1980  175.6650  138.5080 N   0  0  2  0  0  0  0  0  0  0  0  0
  181.0370  173.3520  138.2350 C   0  0  0  0  0  2  0  0  0  0  0  0
  178.9430  173.7630  139.2050 C   0  0  0  0  0  2  0  0  0  0  0  0
  179.5940  173.4060  137.9560 N   0  0  1  0  0  0  0  0  0  0  0  0
  179.1710  175.2340  139.4440 C   0  0  0  0  0  2  0  0  0  0  0  0
  180.4610  174.5450  137.5890 C   0  0  1  0  0  3  0  0  0  0  0  0
  188.4550  178.9290  136.8420 C   0  0  0  0  0  3  0  0  0  0  0  0
  187.2880  178.2230  136.5100 C   0  0  0  0  0  0  0  0  0  0  0  0
  187.3670  177.1210  138.6700 C   0  0  0  0  0  3  0  0  0  0  0  0
  189.0690  178.7310  138.0810 C   0  0  0  0  0  3  0  0  0  0  0  0
  188.5250  177.8290  139.0110 C   0  0  0  0  0  0  0  0  0  0  0  0
  186.7510  177.3180  137.4300 C   0  0  0  0  0  3  0  0  0  0  0  0
  186.6480  178.4000  135.2810 O   0  0  0  0  0  0  0  0  0  0  0  0
  185.6350  177.5220  134.8100 C   0  0  0  0  0  1  0  0  0  0  0  0
  1 14  2  0  0  0  0
  2  6  1  0  0  0  0
  2  7  1  0  0  0  0
  3 12  1  0  0  0  0
  4 17  1  1  0  0  0
  4 11  1  0  0  0  0
  5 16  1  1  0  0  0
  5  8  1  0  0  0  0
  5  9  1  0  0  0  0
  8 10  1  0  0  0  0
  9  2  2  0  0  0  0
 10  6  2  0  0  0  0
 12 11  1  0  0  0  0
 12  8  2  0  0  0  0
 13  3  1  0  0  0  0
 13 16  2  0  0  0  0
 14 15  1  0  0  0  0
 14  3  1  0  0  0  0
 15  4  1  0  0  0  0
 17 20  2  0  0  0  0
 18 21  1  0  0  0  0
 19 21  1  0  0  0  0
 19 17  1  0  0  0  0
 21 22  2  0  0  0  0
 23 18  1  1  0  0  0
 24 27  1  0  0  0  0
 25 28  1  6  0  0  0
 26 23  1  0  0  0  0
 27 28  1  6  0  0  0
 27 25  1  0  0  0  0
 27 23  1  0  0  0  0
 29 24  1  0  0  0  0
 29 26  1  0  0  0  0
 30 25  1  0  0  0  0
 30 34  1  1  0  0  0
 32 34  1  0  0  0  0
 33 31  1  1  0  0  0
 33 32  1  0  0  0  0
 35 33  1  0  0  0  0
 35 31  1  1  0  0  0
 35 30  1  0  0  0  0
 36 39  1  0  0  0  0
 37 36  2  0  0  0  0
 37 41  1  0  0  0  0
 38 40  1  0  0  0  0
 39 40  2  0  0  0  0
 40  1  1  0  0  0  0
 41 38  2  0  0  0  0
 42 37  1  0  0  0  0
 43 42  1  0  0  0  0
M  END
>  <MODEL>
6

>  <REMARK>
 VINA RESULT:      -8.5      2.780      5.511
  Name = 
  5 active torsions:
  status: ('A' for Active; 'I' for Inactive)
    1  A    between atoms: N_1  and  C_35
    2  A    between atoms: C_2  and  C_13
    3  A    between atoms: N_3  and  C_4
    4  A    between atoms: N_11  and  C_14
    5  A    between atoms: C_19  and  O_25
                            x       y       z     vdW  Elec       q    Type
                         _______ _______ _______ _____ _____    ______ ____

>  <TORSDO>
F 5

$$$$
=
 OpenBabel11052416183D

 43 50  0  0  1  0  0  0  0  0999 V2000
  184.4430  178.3740  144.0980 N   0  0  0  0  0  0  0  0  0  0  0  0
  191.0570  176.7430  146.9330 C   0  0  0  0  0  0  0  0  0  0  0  0
  186.7260  177.9600  144.6030 N   0  0  0  0  0  0  0  0  0  0  0  0
  187.2470  177.7560  141.8130 C   0  0  1  0  0  3  0  0  0  0  0  0
  188.7180  177.2600  146.4430 C   0  0  0  0  0  0  0  0  0  0  0  0
  191.4510  176.9410  145.6720 C   0  0  0  0  0  3  0  0  0  0  0  0
  192.0560  176.3330  147.9550 C   0  0  0  0  0  1  0  0  0  0  0  0
  189.0700  177.4860  145.0200 C   0  0  0  0  0  0  0  0  0  0  0  0
  189.6500  176.9140  147.3280 C   0  0  0  0  0  3  0  0  0  0  0  0
  190.5100  177.3620  144.5750 C   0  0  0  0  0  2  0  0  0  0  0  0
  188.4320  178.0870  142.7070 C   0  0  0  0  0  2  0  0  0  0  0  0
  188.0960  177.8120  144.1480 C   0  0  0  0  0  0  0  0  0  0  0  0
  186.3940  177.7470  145.9890 C   0  0  0  0  0  3  0  0  0  0  0  0
  185.6730  178.2760  143.6680 C   0  0  0  0  0  0  0  0  0  0  0  0
  186.0340  178.5700  142.2360 C   0  0  0  0  0  2  0  0  0  0  0  0
  187.3280  177.4150  146.8770 C   0  0  0  0  0  3  0  0  0  0  0  0
  187.5830  178.0180  140.3830 C   0  0  0  0  0  0  0  0  0  0  0  0
  190.5190  177.1160  138.1020 N   0  0  0  0  0  2  0  0  0  0  0  0
  188.8100  177.5020  139.8560 N   0  0  0  0  0  2  0  0  0  0  0  0
  186.8030  178.6960  139.6620 O   0  0  0  0  0  0  0  0  0  0  0  0
  189.2530  177.6420  138.5000 C   0  0  0  0  0  0  0  0  0  0  0  0
  188.5330  178.2220  137.6450 O   0  0  0  0  0  0  0  0  0  0  0  0
  191.4280  176.4740  139.0410 C   0  0  2  0  0  3  0  0  0  0  0  0
  193.8370  177.1750  138.9350 N   0  0  0  0  0  2  0  0  0  0  0  0
  192.9570  175.7070  137.0240 C   0  0  2  0  0  3  0  0  0  0  0  0
  191.6690  177.5490  140.4820 S   0  0  0  0  0  0  0  0  0  0  0  0
  192.7910  176.3130  138.4120 C   0  0  2  0  0  0  0  0  0  0  0  0
  193.2370  174.8770  138.2760 C   0  0  0  0  0  2  0  0  0  0  0  0
  193.4800  177.4310  140.3230 C   0  0  0  0  0  2  0  0  0  0  0  0
  194.2180  176.1290  136.4080 N   0  0  2  0  0  0  0  0  0  0  0  0
  195.1580  173.8670  136.7660 C   0  0  0  0  0  2  0  0  0  0  0  0
  195.1010  174.8180  134.6250 C   0  0  0  0  0  2  0  0  0  0  0  0
  195.9610  174.6000  135.7760 N   0  0  1  0  0  0  0  0  0  0  0  0
  194.1300  175.9180  134.9730 C   0  0  0  0  0  2  0  0  0  0  0  0
  195.3440  175.3210  136.9080 C   0  0  1  0  0  3  0  0  0  0  0  0
  181.9360  178.8020  141.3170 C   0  0  0  0  0  3  0  0  0  0  0  0
  180.8200  179.2470  142.0430 C   0  0  0  0  0  0  0  0  0  0  0  0
  182.1200  179.1100  144.0860 C   0  0  0  0  0  3  0  0  0  0  0  0
  183.1340  178.5160  141.9750 C   0  0  0  0  0  3  0  0  0  0  0  0
  183.2400  178.6750  143.3670 C   0  0  0  0  0  0  0  0  0  0  0  0
  180.9200  179.3960  143.4290 C   0  0  0  0  0  3  0  0  0  0  0  0
  179.6080  179.5440  141.4150 O   0  0  0  0  0  0  0  0  0  0  0  0
  179.2330  180.8680  141.0590 C   0  0  0  0  0  1  0  0  0  0  0  0
  2  9  1  0  0  0  0
  2  7  1  0  0  0  0
  3 13  1  0  0  0  0
  4 17  1  6  0  0  0
  4 15  1  0  0  0  0
  4 11  1  0  0  0  0
  5 16  1  0  0  0  0
  5  9  2  0  0  0  0
  6  2  2  0  0  0  0
  8  5  1  0  0  0  0
 10  8  1  0  0  0  0
 10  6  1  0  0  0  0
 11 12  1  0  0  0  0
 12  3  1  0  0  0  0
 12  8  2  0  0  0  0
 13 16  2  0  0  0  0
 14  1  2  0  0  0  0
 14  3  1  0  0  0  0
 15 14  1  0  0  0  0
 18 21  1  0  0  0  0
 19 17  1  0  0  0  0
 20 17  2  0  0  0  0
 21 19  1  0  0  0  0
 22 21  2  0  0  0  0
 23 18  1  6  0  0  0
 23 26  1  0  0  0  0
 24 29  1  0  0  0  0
 25 28  1  1  0  0  0
 25 27  1  0  0  0  0
 27 28  1  1  0  0  0
 27 24  1  0  0  0  0
 27 23  1  0  0  0  0
 29 26  1  0  0  0  0
 30 34  1  6  0  0  0
 30 35  1  0  0  0  0
 30 25  1  0  0  0  0
 32 34  1  0  0  0  0
 33 32  1  6  0  0  0
 33 31  1  0  0  0  0
 33 35  1  0  0  0  0
 35 31  1  1  0  0  0
 36 39  2  0  0  0  0
 36 37  1  0  0  0  0
 37 41  2  0  0  0  0
 39 40  1  0  0  0  0
 40 38  2  0  0  0  0
 40  1  1  0  0  0  0
 41 38  1  0  0  0  0
 42 37  1  0  0  0  0
 43 42  1  0  0  0  0
M  END
>  <MODEL>
7

>  <REMARK>
 VINA RESULT:      -8.4      3.540      5.523
  Name = 
  5 active torsions:
  status: ('A' for Active; 'I' for Inactive)
    1  A    between atoms: N_1  and  C_35
    2  A    between atoms: C_2  and  C_13
    3  A    between atoms: N_3  and  C_4
    4  A    between atoms: N_11  and  C_14
    5  A    between atoms: C_19  and  O_25
                            x       y       z     vdW  Elec       q    Type
                         _______ _______ _______ _____ _____    ______ ____

>  <TORSDO>
F 5

$$$$
=
 OpenBabel11052416183D

 43 50  0  0  1  0  0  0  0  0999 V2000
  188.5270  177.8320  140.8970 N   0  0  0  0  0  0  0  0  0  0  0  0
  193.8810  175.7750  136.2550 C   0  0  0  0  0  0  0  0  0  0  0  0
  189.9350  177.2170  139.0870 N   0  0  0  0  0  0  0  0  0  0  0  0
  187.6100  176.6510  137.5460 C   0  0  1  0  0  3  0  0  0  0  0  0
  192.4580  176.5000  138.1070 C   0  0  0  0  0  0  0  0  0  0  0  0
  192.8790  175.7870  135.3720 C   0  0  0  0  0  3  0  0  0  0  0  0
  195.2400  175.3670  135.8120 C   0  0  0  0  0  1  0  0  0  0  0  0
  191.2900  176.5270  137.1940 C   0  0  0  0  0  0  0  0  0  0  0  0
  193.6630  176.1480  137.6610 C   0  0  0  0  0  3  0  0  0  0  0  0
  191.4730  176.1910  135.7310 C   0  0  0  0  0  2  0  0  0  0  0  0
  188.8880  176.9400  136.7730 C   0  0  0  0  0  2  0  0  0  0  0  0
  190.0820  176.8640  137.6860 C   0  0  0  0  0  0  0  0  0  0  0  0
  191.0770  177.1970  139.9650 C   0  0  0  0  0  3  0  0  0  0  0  0
  188.6380  177.5470  139.6260 C   0  0  0  0  0  0  0  0  0  0  0  0
  187.4610  177.6400  138.6920 C   0  0  0  0  0  2  0  0  0  0  0  0
  192.2840  176.8590  139.5160 C   0  0  0  0  0  3  0  0  0  0  0  0
  186.4270  176.7140  136.6390 C   0  0  0  0  0  0  0  0  0  0  0  0
  182.6860  177.3390  137.1360 N   0  0  0  0  0  2  0  0  0  0  0  0
  185.1380  176.9840  137.2010 N   0  0  0  0  0  2  0  0  0  0  0  0
  186.5650  176.5170  135.4020 O   0  0  0  0  0  0  0  0  0  0  0  0
  183.9200  177.1080  136.4570 C   0  0  0  0  0  0  0  0  0  0  0  0
  183.9220  177.0210  135.2000 O   0  0  0  0  0  0  0  0  0  0  0  0
  182.5940  177.4060  138.5880 C   0  0  2  0  0  3  0  0  0  0  0  0
  180.3180  177.8460  139.5540 N   0  0  0  0  0  2  0  0  0  0  0  0
  181.5030  179.8080  138.4010 C   0  0  2  0  0  3  0  0  0  0  0  0
  182.0400  175.8040  139.2340 S   0  0  0  0  0  0  0  0  0  0  0  0
  181.5360  178.4040  138.9930 C   0  0  2  0  0  0  0  0  0  0  0  0
  182.0680  179.5640  139.8000 C   0  0  0  0  0  2  0  0  0  0  0  0
  180.7140  176.6010  140.1970 C   0  0  0  0  0  2  0  0  0  0  0  0
  180.1620  180.3910  138.4940 N   0  0  2  0  0  0  0  0  0  0  0  0
  181.0580  182.5840  137.7750 C   0  0  0  0  0  2  0  0  0  0  0  0
  179.3020  181.5610  136.6050 C   0  0  0  0  0  2  0  0  0  0  0  0
  179.5950  182.5570  137.6220 N   0  0  1  0  0  0  0  0  0  0  0  0
  179.4800  180.1980  137.2250 C   0  0  0  0  0  2  0  0  0  0  0  0
  180.2350  181.8410  138.7450 C   0  0  1  0  0  3  0  0  0  0  0  0
  185.1920  179.2700  141.9020 C   0  0  0  0  0  3  0  0  0  0  0  0
  185.0850  178.7810  143.2140 C   0  0  0  0  0  0  0  0  0  0  0  0
  187.2400  177.6950  142.9610 C   0  0  0  0  0  3  0  0  0  0  0  0
  186.3170  178.9720  141.1300 C   0  0  0  0  0  3  0  0  0  0  0  0
  187.3560  178.1870  141.6560 C   0  0  0  0  0  0  0  0  0  0  0  0
  186.1140  177.9920  143.7360 C   0  0  0  0  0  3  0  0  0  0  0  0
  183.9750  179.0630  144.0140 O   0  0  0  0  0  0  0  0  0  0  0  0
  182.6410  178.9860  143.5300 C   0  0  0  0  0  1  0  0  0  0  0  0
  1 40  1  0  0  0  0
  2  9  1  0  0  0  0
  3 14  1  0  0  0  0
  3 13  1  0  0  0  0
  4 17  1  6  0  0  0
  4 15  1  0  0  0  0
  5 16  1  0  0  0  0
  6 10  1  0  0  0  0
  6  2  2  0  0  0  0
  7  2  1  0  0  0  0
  8 12  2  0  0  0  0
  8  5  1  0  0  0  0
  9  5  2  0  0  0  0
 10  8  1  0  0  0  0
 11  4  1  0  0  0  0
 11 12  1  0  0  0  0
 12  3  1  0  0  0  0
 14  1  2  0  0  0  0
 15 14  1  0  0  0  0
 16 13  2  0  0  0  0
 17 19  1  0  0  0  0
 20 17  2  0  0  0  0
 21 18  1  0  0  0  0
 21 19  1  0  0  0  0
 22 21  2  0  0  0  0
 23 18  1  6  0  0  0
 23 27  1  0  0  0  0
 23 26  1  0  0  0  0
 24 29  1  0  0  0  0
 25 30  1  0  0  0  0
 25 27  1  0  0  0  0
 25 28  1  1  0  0  0
 26 29  1  0  0  0  0
 27 24  1  0  0  0  0
 27 28  1  1  0  0  0
 30 34  1  6  0  0  0
 30 35  1  0  0  0  0
 32 34  1  0  0  0  0
 33 32  1  6  0  0  0
 33 31  1  0  0  0  0
 33 35  1  0  0  0  0
 35 31  1  6  0  0  0
 36 37  1  0  0  0  0
 37 41  2  0  0  0  0
 37 42  1  0  0  0  0
 38 41  1  0  0  0  0
 39 40  1  0  0  0  0
 39 36  2  0  0  0  0
 40 38  2  0  0  0  0
 43 42  1  0  0  0  0
M  END
>  <MODEL>
8

>  <REMARK>
 VINA RESULT:      -8.3      3.533      6.619
  Name = 
  5 active torsions:
  status: ('A' for Active; 'I' for Inactive)
    1  A    between atoms: N_1  and  C_35
    2  A    between atoms: C_2  and  C_13
    3  A    between atoms: N_3  and  C_4
    4  A    between atoms: N_11  and  C_14
    5  A    between atoms: C_19  and  O_25
                            x       y       z     vdW  Elec       q    Type
                         _______ _______ _______ _____ _____    ______ ____

>  <TORSDO>
F 5

$$$$
=
 OpenBabel11052416183D

 43 50  0  0  1  0  0  0  0  0999 V2000
  184.2150  178.4060  141.6420 N   0  0  0  0  0  0  0  0  0  0  0  0
  189.9850  177.1190  146.0580 C   0  0  0  0  0  0  0  0  0  0  0  0
  186.3170  178.1170  142.7090 N   0  0  0  0  0  0  0  0  0  0  0  0
  187.5360  177.9850  140.1410 C   0  0  1  0  0  3  0  0  0  0  0  0
  187.8180  177.5070  144.9920 C   0  0  0  0  0  0  0  0  0  0  0  0
  190.6720  177.3570  144.9380 C   0  0  0  0  0  3  0  0  0  0  0  0
  190.7170  176.7510  147.2990 C   0  0  0  0  0  1  0  0  0  0  0  0
  188.5040  177.7740  143.7050 C   0  0  0  0  0  0  0  0  0  0  0  0
  188.5160  177.2020  146.0840 C   0  0  0  0  0  3  0  0  0  0  0  0
  190.0150  177.7400  143.6380 C   0  0  0  0  0  2  0  0  0  0  0  0
  188.4360  178.3710  141.3060 C   0  0  0  0  0  2  0  0  0  0  0  0
  187.7640  178.0560  142.6140 C   0  0  0  0  0  0  0  0  0  0  0  0
  185.6590  177.8650  143.9660 C   0  0  0  0  0  3  0  0  0  0  0  0
  185.5170  178.3860  141.5370 C   0  0  0  0  0  0  0  0  0  0  0  0
  186.2090  178.7220  140.2440 C   0  0  0  0  0  2  0  0  0  0  0  0
  186.3570  177.5740  145.0610 C   0  0  0  0  0  3  0  0  0  0  0  0
  188.2060  178.2870  138.8420 C   0  0  0  0  0  0  0  0  0  0  0  0
  187.5190  177.3910  135.1870 N   0  0  0  0  0  2  0  0  0  0  0  0
  187.6400  177.7680  137.6350 N   0  0  0  0  0  2  0  0  0  0  0  0
  189.2620  178.9770  138.8190 O   0  0  0  0  0  0  0  0  0  0  0  0
  188.1500  177.9990  136.3150 C   0  0  0  0  0  0  0  0  0  0  0  0
  189.1500  178.7420  136.1320 O   0  0  0  0  0  0  0  0  0  0  0  0
  186.3880  176.4840  135.3200 C   0  0  2  0  0  3  0  0  0  0  0  0
  186.4840  174.8300  137.2070 N   0  0  0  0  0  2  0  0  0  0  0  0
  188.0380  174.4210  135.2060 C   0  0  2  0  0  3  0  0  0  0  0  0
  185.2400  177.1270  136.5680 S   0  0  0  0  0  0  0  0  0  0  0  0
  186.8570  175.1460  135.8380 C   0  0  2  0  0  0  0  0  0  0  0  0
  186.6030  174.0000  134.8890 C   0  0  0  0  0  2  0  0  0  0  0  0
  185.2310  175.5310  137.4470 C   0  0  0  0  0  2  0  0  0  0  0  0
  188.6440  173.4740  136.1460 N   0  0  2  0  0  0  0  0  0  0  0  0
  190.5520  173.1510  134.6030 C   0  0  0  0  0  2  0  0  0  0  0  0
  190.9010  173.8330  136.8180 C   0  0  0  0  0  2  0  0  0  0  0  0
  190.8990  172.6690  135.9480 N   0  0  1  0  0  0  0  0  0  0  0  0
  189.4680  174.2140  137.0880 C   0  0  0  0  0  2  0  0  0  0  0  0
  189.5190  172.5210  135.4430 C   0  0  1  0  0  3  0  0  0  0  0  0
  182.4070  179.7610  138.6260 C   0  0  0  0  0  3  0  0  0  0  0  0
  181.2250  179.0060  138.6740 C   0  0  0  0  0  0  0  0  0  0  0  0
  182.0420  177.8920  140.6680 C   0  0  0  0  0  3  0  0  0  0  0  0
  183.3970  179.5800  139.5950 C   0  0  0  0  0  3  0  0  0  0  0  0
  183.2190  178.6480  140.6310 C   0  0  0  0  0  0  0  0  0  0  0  0
  181.0500  178.0710  139.6980 C   0  0  0  0  0  3  0  0  0  0  0  0
  180.2150  179.1650  137.7220 O   0  0  0  0  0  0  0  0  0  0  0  0
  180.1800  180.2580  136.8150 C   0  0  0  0  0  1  0  0  0  0  0  0
  2  9  1  0  0  0  0
  2  7  1  0  0  0  0
  3 13  1  0  0  0  0
  4 17  1  6  0  0  0
  4 15  1  0  0  0  0
  4 11  1  0  0  0  0
  5 16  1  0  0  0  0
  5  9  2  0  0  0  0
  6  2  2  0  0  0  0
  8  5  1  0  0  0  0
 10  8  1  0  0  0  0
 10  6  1  0  0  0  0
 11 12  1  0  0  0  0
 12  3  1  0  0  0  0
 12  8  2  0  0  0  0
 13 16  2  0  0  0  0
 14  1  2  0  0  0  0
 14  3  1  0  0  0  0
 15 14  1  0  0  0  0
 18 21  1  0  0  0  0
 19 17  1  0  0  0  0
 20 17  2  0  0  0  0
 21 19  1  0  0  0  0
 22 21  2  0  0  0  0
 23 18  1  1  0  0  0
 23 27  1  0  0  0  0
 23 26  1  0  0  0  0
 24 29  1  0  0  0  0
 25 28  1  6  0  0  0
 25 27  1  0  0  0  0
 25 30  1  0  0  0  0
 26 29  1  0  0  0  0
 27 28  1  6  0  0  0
 27 24  1  0  0  0  0
 30 34  1  1  0  0  0
 32 34  1  0  0  0  0
 33 31  1  6  0  0  0
 33 32  1  0  0  0  0
 35 31  1  6  0  0  0
 35 33  1  0  0  0  0
 35 30  1  0  0  0  0
 36 37  2  0  0  0  0
 36 39  1  0  0  0  0
 37 41  1  0  0  0  0
 39 40  2  0  0  0  0
 40 38  1  0  0  0  0
 40  1  1  0  0  0  0
 41 38  2  0  0  0  0
 42 37  1  0  0  0  0
 43 42  1  0  0  0  0
M  END
>  <MODEL>
9

>  <REMARK>
 VINA RESULT:      -8.2      2.031      3.640
  Name = 
  5 active torsions:
  status: ('A' for Active; 'I' for Inactive)
    1  A    between atoms: N_1  and  C_35
    2  A    between atoms: C_2  and  C_13
    3  A    between atoms: N_3  and  C_4
    4  A    between atoms: N_11  and  C_14
    5  A    between atoms: C_19  and  O_25
                            x       y       z     vdW  Elec       q    Type
                         _______ _______ _______ _____ _____    ______ ____

>  <TORSDO>
F 5

$$$$
