=
 OpenBabel11052413263D

 28 32  0  0  1  0  0  0  0  0999 V2000
  182.4590  178.7850  140.6400 C   0  0  0  0  0  0  0  0  0  0  0  0
  183.5160  178.5290  139.5950 C   0  0  1  0  0  3  0  0  0  0  0  0
  185.1700  178.1680  141.4610 C   0  0  1  0  0  3  0  0  0  0  0  0
  186.1070  178.7450  145.6610 C   0  0  0  0  0  2  0  0  0  0  0  0
  179.4200  179.5270  143.4450 O   0  0  0  0  0  1  0  0  0  0  0  0
  184.9290  178.8290  140.1080 C   0  0  0  0  0  2  0  0  0  0  0  0
  188.1970  178.0310  143.7880 C   0  0  0  0  0  2  0  0  0  0  0  0
  184.3940  178.5680  143.8400 C   0  0  0  0  0  0  0  0  0  0  0  0
  188.2040  177.6300  146.2020 N   0  0  0  0  0  0  0  0  0  0  0  0
  185.7510  178.3630  144.2920 N   0  0  0  0  0  0  0  0  0  0  0  0
  186.5600  178.5150  141.9750 C   0  0  0  0  0  2  0  0  0  0  0  0
  188.5200  177.0470  144.9040 C   0  0  0  0  0  2  0  0  0  0  0  0
  181.7520  179.0400  142.9650 C   0  0  0  0  0  0  0  0  0  0  0  0
  184.0950  178.5430  142.4590 C   0  0  0  0  0  0  0  0  0  0  0  0
  186.7520  177.8540  143.3310 C   0  0  1  0  0  3  0  0  0  0  0  0
  180.1420  179.2650  141.1660 C   0  0  0  0  0  3  0  0  0  0  0  0
  182.0630  179.0640  144.3290 C   0  0  0  0  0  3  0  0  0  0  0  0
  180.4380  179.2780  142.5310 C   0  0  0  0  0  0  0  0  0  0  0  0
  188.7840  176.7520  147.2010 C   0  0  0  0  0  1  0  0  0  0  0  0
  186.7610  177.5830  146.3960 C   0  0  0  0  0  2  0  0  0  0  0  0
  183.3690  178.8360  144.7590 C   0  0  0  0  0  3  0  0  0  0  0  0
  181.1460  179.0220  140.2280 C   0  0  0  0  0  3  0  0  0  0  0  0
  182.7730  178.7790  142.0190 C   0  0  0  0  0  0  0  0  0  0  0  0
  184.1130  176.8620  137.8230 C   0  0  0  0  0  0  0  0  0  0  0  0
  182.6280  176.1550  139.7170 C   0  0  0  0  0  1  0  0  0  0  0  0
  183.4130  177.1790  139.0360 N   0  0  0  0  0  0  0  0  0  0  0  0
  184.0450  175.4960  137.2290 C   0  0  0  0  0  1  0  0  0  0  0  0
  184.7990  177.7430  137.2370 O   0  0  0  0  0  0  0  0  0  0  0  0
  1 23  1  0  0  0  0
  2 26  1  1  0  0  0
  2  6  1  0  0  0  0
  2  1  1  0  0  0  0
  3  6  1  6  0  0  0
  3 11  1  0  0  0  0
  3 14  1  0  0  0  0
  4 20  1  0  0  0  0
  7 12  1  0  0  0  0
  8 10  1  0  0  0  0
  8 21  1  0  0  0  0
  9 20  1  0  0  0  0
  9 19  1  0  0  0  0
 10  4  1  0  0  0  0
 12  9  1  0  0  0  0
 13 17  1  0  0  0  0
 14  8  2  0  0  0  0
 15 11  1  6  0  0  0
 15  7  1  0  0  0  0
 15 10  1  0  0  0  0
 16 18  2  0  0  0  0
 17 21  2  0  0  0  0
 18 13  1  0  0  0  0
 18  5  1  0  0  0  0
 22  1  2  0  0  0  0
 22 16  1  0  0  0  0
 23 14  1  0  0  0  0
 23 13  2  0  0  0  0
 24 26  1  0  0  0  0
 26 25  1  0  0  0  0
 27 24  1  0  0  0  0
 28 24  2  0  0  0  0
M  END
>  <MODEL>
1

>  <REMARK>
 VINA RESULT:      -8.7      0.000      0.000
  Name = 
  1 active torsions:
  status: ('A' for Active; 'I' for Inactive)
    1  A    between atoms: C_2  and  N_11
                            x       y       z     vdW  Elec       q    Type
                         _______ _______ _______ _____ _____    ______ ____

>  <TORSDO>
F 1

$$$$
=
 OpenBabel11052413263D

 28 32  0  0  1  0  0  0  0  0999 V2000
  182.2790  178.7080  141.6170 C   0  0  0  0  0  0  0  0  0  0  0  0
  181.7850  178.6390  140.1940 C   0  0  1  0  0  3  0  0  0  0  0  0
  184.1690  178.2840  139.4610 C   0  0  1  0  0  3  0  0  0  0  0  0
  188.3780  178.6040  140.4760 C   0  0  0  0  0  2  0  0  0  0  0  0
  183.5180  178.9310  145.6250 O   0  0  0  0  0  1  0  0  0  0  0  0
  182.8670  179.0270  139.1810 C   0  0  0  0  0  2  0  0  0  0  0  0
  187.5690  178.2440  137.7190 C   0  0  0  0  0  2  0  0  0  0  0  0
  185.9910  178.4150  141.2160 C   0  0  0  0  0  0  0  0  0  0  0  0
  189.7350  177.6510  138.6910 N   0  0  0  0  0  0  0  0  0  0  0  0
  186.9780  178.3020  140.1670 N   0  0  0  0  0  0  0  0  0  0  0  0
  185.2440  178.7170  138.4740 C   0  0  0  0  0  2  0  0  0  0  0  0
  188.6830  177.2070  137.7860 C   0  0  0  0  0  2  0  0  0  0  0  0
  184.0780  178.7050  143.2710 C   0  0  0  0  0  0  0  0  0  0  0  0
  184.6170  178.4740  140.8950 C   0  0  0  0  0  0  0  0  0  0  0  0
  186.5280  177.9700  138.7990 C   0  0  1  0  0  3  0  0  0  0  0  0
  181.7670  178.9240  143.9770 C   0  0  0  0  0  3  0  0  0  0  0  0
  185.4410  178.6480  143.5750 C   0  0  0  0  0  3  0  0  0  0  0  0
  183.1260  178.8530  144.2930 C   0  0  0  0  0  0  0  0  0  0  0  0
  190.8570  176.7520  138.4910 C   0  0  0  0  0  1  0  0  0  0  0  0
  189.2850  177.4530  140.0630 C   0  0  0  0  0  2  0  0  0  0  0  0
  186.3860  178.5090  142.5590 C   0  0  0  0  0  3  0  0  0  0  0  0
  181.3480  178.8530  142.6480 C   0  0  0  0  0  3  0  0  0  0  0  0
  183.6570  178.6190  141.9210 C   0  0  0  0  0  0  0  0  0  0  0  0
  179.7650  177.2170  139.7720 C   0  0  0  0  0  0  0  0  0  0  0  0
  182.0420  176.1690  139.6720 C   0  0  0  0  0  1  0  0  0  0  0  0
  181.1920  177.3350  139.8860 N   0  0  0  0  0  0  0  0  0  0  0  0
  179.1230  175.9110  139.4470 C   0  0  0  0  0  1  0  0  0  0  0  0
  179.0290  178.2250  139.9490 O   0  0  0  0  0  0  0  0  0  0  0  0
  1 23  2  0  0  0  0
  1 22  1  0  0  0  0
  2 26  1  6  0  0  0
  2  1  1  0  0  0  0
  3 11  1  6  0  0  0
  3 14  1  0  0  0  0
  6  3  1  0  0  0  0
  6  2  1  0  0  0  0
  7 12  1  0  0  0  0
  8 21  1  0  0  0  0
  9 20  1  0  0  0  0
 10  4  1  0  0  0  0
 10  8  1  0  0  0  0
 11 15  1  0  0  0  0
 12  9  1  0  0  0  0
 13 17  1  0  0  0  0
 13 18  2  0  0  0  0
 14  8  2  0  0  0  0
 14 23  1  0  0  0  0
 15  7  1  6  0  0  0
 15 10  1  0  0  0  0
 16 18  1  0  0  0  0
 18  5  1  0  0  0  0
 19  9  1  0  0  0  0
 20  4  1  0  0  0  0
 21 17  2  0  0  0  0
 22 16  2  0  0  0  0
 23 13  1  0  0  0  0
 24 26  1  0  0  0  0
 24 28  2  0  0  0  0
 25 26  1  0  0  0  0
 27 24  1  0  0  0  0
M  END
>  <MODEL>
2

>  <REMARK>
 VINA RESULT:      -8.2      2.776      4.496
  Name = 
  1 active torsions:
  status: ('A' for Active; 'I' for Inactive)
    1  A    between atoms: C_2  and  N_11
                            x       y       z     vdW  Elec       q    Type
                         _______ _______ _______ _____ _____    ______ ____

>  <TORSDO>
F 1

$$$$
=
 OpenBabel11052413263D

 28 32  0  0  1  0  0  0  0  0999 V2000
  190.0650  177.5060  138.1260 C   0  0  0  0  0  0  0  0  0  0  0  0
  191.5170  177.1080  138.2120 C   0  0  1  0  0  3  0  0  0  0  0  0
  191.2800  177.0600  140.7200 C   0  0  1  0  0  3  0  0  0  0  0  0
  188.9680  178.2880  144.1840 C   0  0  0  0  0  2  0  0  0  0  0  0
  186.0330  178.6240  137.7410 O   0  0  0  0  0  1  0  0  0  0  0  0
  192.1520  177.5030  139.5500 C   0  0  0  0  0  2  0  0  0  0  0  0
  191.6800  177.3260  144.5110 C   0  0  0  0  0  2  0  0  0  0  0  0
  189.0780  177.8090  141.7270 C   0  0  0  0  0  0  0  0  0  0  0  0
  189.9120  177.3000  146.2010 N   0  0  0  0  0  0  0  0  0  0  0  0
  189.6680  177.6950  143.0410 N   0  0  0  0  0  0  0  0  0  0  0  0
  191.9030  177.5030  142.0360 C   0  0  0  0  0  2  0  0  0  0  0  0
  191.0020  176.5300  145.6170 C   0  0  0  0  0  2  0  0  0  0  0  0
  187.9340  178.1030  139.1630 C   0  0  0  0  0  0  0  0  0  0  0  0
  189.8610  177.5680  140.5750 C   0  0  0  0  0  0  0  0  0  0  0  0
  190.9950  177.0610  143.1740 C   0  0  1  0  0  3  0  0  0  0  0  0
  188.1400  178.0270  136.7470 C   0  0  0  0  0  3  0  0  0  0  0  0
  187.1720  178.3400  140.3110 C   0  0  0  0  0  3  0  0  0  0  0  0
  187.3650  178.2520  137.8880 C   0  0  0  0  0  0  0  0  0  0  0  0
  189.5040  176.5930  147.4010 C   0  0  0  0  0  1  0  0  0  0  0  0
  188.7740  177.2620  145.2930 C   0  0  0  0  0  2  0  0  0  0  0  0
  187.7390  178.2000  141.5760 C   0  0  0  0  0  3  0  0  0  0  0  0
  189.4800  177.6570  136.8670 C   0  0  0  0  0  3  0  0  0  0  0  0
  189.2900  177.7150  139.2900 C   0  0  0  0  0  0  0  0  0  0  0  0
  193.0260  175.2060  137.5930 C   0  0  0  0  0  0  0  0  0  0  0  0
  190.5850  174.7600  137.9680 C   0  0  0  0  0  1  0  0  0  0  0  0
  191.7110  175.6870  137.9150 N   0  0  0  0  0  0  0  0  0  0  0  0
  193.2680  173.7640  137.2980 C   0  0  0  0  0  1  0  0  0  0  0  0
  194.0010  176.0030  137.5550 O   0  0  0  0  0  0  0  0  0  0  0  0
  1  2  1  0  0  0  0
  1 23  1  0  0  0  0
  2 26  1  1  0  0  0
  2  6  1  0  0  0  0
  3  6  1  6  0  0  0
  3 11  1  0  0  0  0
  4 20  1  0  0  0  0
  5 18  1  0  0  0  0
  7 12  1  0  0  0  0
  8 10  1  0  0  0  0
  9 19  1  0  0  0  0
 10 15  1  0  0  0  0
 10  4  1  0  0  0  0
 12  9  1  0  0  0  0
 13 23  2  0  0  0  0
 13 17  1  0  0  0  0
 14  3  1  0  0  0  0
 14  8  2  0  0  0  0
 15 11  1  6  0  0  0
 15  7  1  0  0  0  0
 16 22  1  0  0  0  0
 16 18  2  0  0  0  0
 17 21  2  0  0  0  0
 18 13  1  0  0  0  0
 20  9  1  0  0  0  0
 21  8  1  0  0  0  0
 22  1  2  0  0  0  0
 23 14  1  0  0  0  0
 24 26  1  0  0  0  0
 26 25  1  0  0  0  0
 27 24  1  0  0  0  0
 28 24  2  0  0  0  0
M  END
>  <MODEL>
3

>  <REMARK>
 VINA RESULT:      -7.9      4.832      6.783
  Name = 
  1 active torsions:
  status: ('A' for Active; 'I' for Inactive)
    1  A    between atoms: C_2  and  N_11
                            x       y       z     vdW  Elec       q    Type
                         _______ _______ _______ _____ _____    ______ ____

>  <TORSDO>
F 1

$$$$
=
 OpenBabel11052413263D

 28 32  0  0  1  0  0  0  0  0999 V2000
  186.5580  178.6880  141.1750 C   0  0  0  0  0  0  0  0  0  0  0  0
  187.7980  178.8150  140.3260 C   0  0  1  0  0  3  0  0  0  0  0  0
  189.1510  178.0780  142.3190 C   0  0  1  0  0  3  0  0  0  0  0  0
  189.2960  177.5370  146.6240 C   0  0  0  0  0  2  0  0  0  0  0  0
  183.0260  178.3860  143.4300 O   0  0  0  0  0  1  0  0  0  0  0  0
  189.0560  179.0680  141.1630 C   0  0  0  0  0  2  0  0  0  0  0  0
  191.7420  177.5340  145.0740 C   0  0  0  0  0  2  0  0  0  0  0  0
  187.9460  177.7410  144.5220 C   0  0  0  0  0  0  0  0  0  0  0  0
  191.3990  176.4810  147.2550 N   0  0  0  0  0  0  0  0  0  0  0  0
  189.2240  177.5230  145.1600 N   0  0  0  0  0  0  0  0  0  0  0  0
  190.3800  178.3750  143.1650 C   0  0  0  0  0  2  0  0  0  0  0  0
  191.9970  176.3070  145.9380 C   0  0  0  0  0  2  0  0  0  0  0  0
  185.4480  178.2320  143.3040 C   0  0  0  0  0  0  0  0  0  0  0  0
  187.8860  178.0770  143.1510 C   0  0  0  0  0  0  0  0  0  0  0  0
  190.4270  177.3800  144.3150 C   0  0  1  0  0  3  0  0  0  0  0  0
  184.1440  178.8240  141.3460 C   0  0  0  0  0  3  0  0  0  0  0  0
  185.5220  177.9000  144.6600 C   0  0  0  0  0  3  0  0  0  0  0  0
  184.2050  178.4790  142.6990 C   0  0  0  0  0  0  0  0  0  0  0  0
  191.9110  175.4060  148.0860 C   0  0  0  0  0  1  0  0  0  0  0  0
  189.9610  176.2700  147.1460 C   0  0  0  0  0  2  0  0  0  0  0  0
  186.7570  177.6630  145.2620 C   0  0  0  0  0  3  0  0  0  0  0  0
  185.3120  178.9290  140.5910 C   0  0  0  0  0  3  0  0  0  0  0  0
  186.6370  178.3240  142.5390 C   0  0  0  0  0  0  0  0  0  0  0  0
  187.3470  177.6970  138.1290 C   0  0  0  0  0  0  0  0  0  0  0  0
  188.7620  176.5200  139.8340 C   0  0  0  0  0  1  0  0  0  0  0  0
  187.9610  177.6690  139.4270 N   0  0  0  0  0  0  0  0  0  0  0  0
  187.5000  176.5570  137.1800 C   0  0  0  0  0  1  0  0  0  0  0  0
  186.6610  178.6930  137.7730 O   0  0  0  0  0  0  0  0  0  0  0  0
  1 23  1  0  0  0  0
  2 26  1  1  0  0  0
  2  6  1  0  0  0  0
  2  1  1  0  0  0  0
  3  6  1  6  0  0  0
  3 14  1  0  0  0  0
  3 11  1  0  0  0  0
  4 20  1  0  0  0  0
  7 12  1  0  0  0  0
  8 10  1  0  0  0  0
  8 21  1  0  0  0  0
  9 19  1  0  0  0  0
 10  4  1  0  0  0  0
 12  9  1  0  0  0  0
 13 17  1  0  0  0  0
 14  8  2  0  0  0  0
 15 11  1  6  0  0  0
 15  7  1  0  0  0  0
 15 10  1  0  0  0  0
 16 18  2  0  0  0  0
 17 21  2  0  0  0  0
 18 13  1  0  0  0  0
 18  5  1  0  0  0  0
 20  9  1  0  0  0  0
 22  1  2  0  0  0  0
 22 16  1  0  0  0  0
 23 14  1  0  0  0  0
 23 13  2  0  0  0  0
 24 26  1  0  0  0  0
 26 25  1  0  0  0  0
 27 24  1  0  0  0  0
 28 24  2  0  0  0  0
M  END
>  <MODEL>
4

>  <REMARK>
 VINA RESULT:      -7.6      2.477      3.916
  Name = 
  1 active torsions:
  status: ('A' for Active; 'I' for Inactive)
    1  A    between atoms: C_2  and  N_11
                            x       y       z     vdW  Elec       q    Type
                         _______ _______ _______ _____ _____    ______ ____

>  <TORSDO>
F 1

$$$$
=
 OpenBabel11052413263D

 28 32  0  0  1  0  0  0  0  0999 V2000
  190.2600  176.6170  136.3130 C   0  0  0  0  0  0  0  0  0  0  0  0
  191.6510  176.1640  136.6770 C   0  0  1  0  0  3  0  0  0  0  0  0
  191.0520  176.5150  139.0990 C   0  0  1  0  0  3  0  0  0  0  0  0
  188.3610  178.3760  141.9530 C   0  0  0  0  0  2  0  0  0  0  0  0
  186.4180  177.8650  135.1550 O   0  0  0  0  0  1  0  0  0  0  0  0
  192.1140  176.7280  138.0250 C   0  0  0  0  0  2  0  0  0  0  0  0
  190.9200  177.3400  142.8270 C   0  0  0  0  0  2  0  0  0  0  0  0
  188.7890  177.5200  139.6360 C   0  0  0  0  0  0  0  0  0  0  0  0
  188.9290  177.6640  144.2120 N   0  0  0  0  0  0  0  0  0  0  0  0
  189.1720  177.5800  141.0280 N   0  0  0  0  0  0  0  0  0  0  0  0
  191.5090  177.1230  140.4170 C   0  0  0  0  0  2  0  0  0  0  0  0
  190.0320  176.7590  143.9190 C   0  0  0  0  0  2  0  0  0  0  0  0
  188.0510  177.4730  136.9120 C   0  0  0  0  0  0  0  0  0  0  0  0
  189.7100  177.0650  138.6660 C   0  0  0  0  0  0  0  0  0  0  0  0
  190.4170  176.9070  141.4530 C   0  0  1  0  0  3  0  0  0  0  0  0
  188.5970  177.0160  134.5940 C   0  0  0  0  0  3  0  0  0  0  0  0
  187.1500  177.9220  137.8830 C   0  0  0  0  0  3  0  0  0  0  0  0
  187.6840  177.4530  135.5570 C   0  0  0  0  0  0  0  0  0  0  0  0
  188.3020  177.1710  145.4250 C   0  0  0  0  0  1  0  0  0  0  0  0
  187.9340  177.5440  143.1540 C   0  0  0  0  0  2  0  0  0  0  0  0
  187.5180  177.9500  139.2280 C   0  0  0  0  0  3  0  0  0  0  0  0
  189.8760  176.6020  134.9690 C   0  0  0  0  0  3  0  0  0  0  0  0
  189.3430  177.0410  137.3010 C   0  0  0  0  0  0  0  0  0  0  0  0
  193.0320  174.1240  136.2200 C   0  0  0  0  0  0  0  0  0  0  0  0
  190.6610  173.8490  136.9950 C   0  0  0  0  0  1  0  0  0  0  0  0
  191.7820  174.7070  136.6210 N   0  0  0  0  0  0  0  0  0  0  0  0
  193.2100  172.6450  136.1630 C   0  0  0  0  0  1  0  0  0  0  0  0
  194.0040  174.8630  135.9050 O   0  0  0  0  0  0  0  0  0  0  0  0
  1  2  1  0  0  0  0
  1 23  1  0  0  0  0
  2 26  1  1  0  0  0
  2  6  1  0  0  0  0
  3  6  1  6  0  0  0
  3 11  1  0  0  0  0
  4 20  1  0  0  0  0
  5 18  1  0  0  0  0
  7 12  1  0  0  0  0
  8 10  1  0  0  0  0
  9 19  1  0  0  0  0
 10 15  1  0  0  0  0
 10  4  1  0  0  0  0
 12  9  1  0  0  0  0
 13 23  2  0  0  0  0
 13 17  1  0  0  0  0
 14  3  1  0  0  0  0
 14  8  2  0  0  0  0
 15 11  1  6  0  0  0
 15  7  1  0  0  0  0
 16 22  1  0  0  0  0
 16 18  2  0  0  0  0
 17 21  2  0  0  0  0
 18 13  1  0  0  0  0
 20  9  1  0  0  0  0
 21  8  1  0  0  0  0
 22  1  2  0  0  0  0
 23 14  1  0  0  0  0
 24 26  1  0  0  0  0
 26 25  1  0  0  0  0
 27 24  1  0  0  0  0
 28 24  2  0  0  0  0
M  END
>  <MODEL>
5

>  <REMARK>
 VINA RESULT:      -7.5      5.518      7.631
  Name = 
  1 active torsions:
  status: ('A' for Active; 'I' for Inactive)
    1  A    between atoms: C_2  and  N_11
                            x       y       z     vdW  Elec       q    Type
                         _______ _______ _______ _____ _____    ______ ____

>  <TORSDO>
F 1

$$$$
=
 OpenBabel11052413263D

 28 32  0  0  1  0  0  0  0  0999 V2000
  187.2350  177.9910  138.0900 C   0  0  0  0  0  0  0  0  0  0  0  0
  188.4870  177.5460  137.3780 C   0  0  1  0  0  3  0  0  0  0  0  0
  189.5790  177.2630  139.6310 C   0  0  1  0  0  3  0  0  0  0  0  0
  189.4930  178.2140  143.8660 C   0  0  0  0  0  2  0  0  0  0  0  0
  183.6820  179.2540  139.9430 O   0  0  0  0  0  1  0  0  0  0  0  0
  189.7500  177.7920  138.2110 C   0  0  0  0  0  2  0  0  0  0  0  0
  191.9020  177.1490  142.6620 C   0  0  0  0  0  2  0  0  0  0  0  0
  188.2790  177.9720  141.6870 C   0  0  0  0  0  0  0  0  0  0  0  0
  191.2670  177.0080  145.0210 N   0  0  0  0  0  0  0  0  0  0  0  0
  189.4530  177.7150  142.4880 N   0  0  0  0  0  0  0  0  0  0  0  0
  190.8250  177.5580  140.4540 C   0  0  0  0  0  2  0  0  0  0  0  0
  191.8370  176.2680  143.9030 C   0  0  0  0  0  2  0  0  0  0  0  0
  185.9990  178.5440  140.1240 C   0  0  0  0  0  0  0  0  0  0  0  0
  188.3320  177.8220  140.2820 C   0  0  0  0  0  0  0  0  0  0  0  0
  190.6060  177.0330  141.8650 C   0  0  1  0  0  3  0  0  0  0  0  0
  184.9190  178.6970  137.9580 C   0  0  0  0  0  3  0  0  0  0  0  0
  185.9610  178.6910  141.5150 C   0  0  0  0  0  3  0  0  0  0  0  0
  184.8650  178.8330  139.3470 C   0  0  0  0  0  0  0  0  0  0  0  0
  191.4890  176.2000  146.2060 C   0  0  0  0  0  1  0  0  0  0  0  0
  189.8240  177.0910  144.8400 C   0  0  0  0  0  2  0  0  0  0  0  0
  187.0890  178.4120  142.2840 C   0  0  0  0  0  3  0  0  0  0  0  0
  186.0960  178.2800  137.3340 C   0  0  0  0  0  3  0  0  0  0  0  0
  187.1920  178.1080  139.4980 C   0  0  0  0  0  0  0  0  0  0  0  0
  189.3390  175.6590  135.9670 C   0  0  0  0  0  0  0  0  0  0  0  0
  187.3640  175.2720  137.4650 C   0  0  0  0  0  1  0  0  0  0  0  0
  188.3930  176.1560  136.9270 N   0  0  0  0  0  0  0  0  0  0  0  0
  189.2850  174.2460  135.4920 C   0  0  0  0  0  1  0  0  0  0  0  0
  190.2340  176.4180  135.5070 O   0  0  0  0  0  0  0  0  0  0  0  0
  1 23  1  0  0  0  0
  2 26  1  1  0  0  0
  2  1  1  0  0  0  0
  2  6  1  0  0  0  0
  3  6  1  6  0  0  0
  3 14  1  0  0  0  0
  3 11  1  0  0  0  0
  4 20  1  0  0  0  0
  7 12  1  0  0  0  0
  8 21  1  0  0  0  0
  8 10  1  0  0  0  0
  9 19  1  0  0  0  0
 10  4  1  0  0  0  0
 12  9  1  0  0  0  0
 13 17  1  0  0  0  0
 14  8  2  0  0  0  0
 15 11  1  6  0  0  0
 15 10  1  0  0  0  0
 15  7  1  0  0  0  0
 16 18  2  0  0  0  0
 17 21  2  0  0  0  0
 18  5  1  0  0  0  0
 18 13  1  0  0  0  0
 20  9  1  0  0  0  0
 22 16  1  0  0  0  0
 22  1  2  0  0  0  0
 23 13  2  0  0  0  0
 23 14  1  0  0  0  0
 24 26  1  0  0  0  0
 26 25  1  0  0  0  0
 27 24  1  0  0  0  0
 28 24  2  0  0  0  0
M  END
>  <MODEL>
6

>  <REMARK>
 VINA RESULT:      -7.4      3.504      4.883
  Name = 
  1 active torsions:
  status: ('A' for Active; 'I' for Inactive)
    1  A    between atoms: C_2  and  N_11
                            x       y       z     vdW  Elec       q    Type
                         _______ _______ _______ _____ _____    ______ ____

>  <TORSDO>
F 1

$$$$
=
 OpenBabel11052413263D

 28 32  0  0  1  0  0  0  0  0999 V2000
  186.6520  177.6890  145.0250 C   0  0  0  0  0  0  0  0  0  0  0  0
  187.9070  176.9090  145.3250 C   0  0  1  0  0  3  0  0  0  0  0  0
  188.5340  177.1200  142.8940 C   0  0  1  0  0  3  0  0  0  0  0  0
  187.2010  177.9630  138.8490 C   0  0  0  0  0  2  0  0  0  0  0  0
  183.1140  179.8440  144.3260 O   0  0  0  0  0  1  0  0  0  0  0  0
  188.4510  176.1800  144.0920 C   0  0  0  0  0  2  0  0  0  0  0  0
  189.7460  176.6570  139.3010 C   0  0  0  0  0  2  0  0  0  0  0  0
  186.8700  178.2060  141.3220 C   0  0  0  0  0  0  0  0  0  0  0  0
  189.1070  177.9640  137.3330 N   0  0  0  0  0  0  0  0  0  0  0  0
  187.7290  177.8600  140.2130 N   0  0  0  0  0  0  0  0  0  0  0  0
  189.0300  176.3680  141.6680 C   0  0  0  0  0  2  0  0  0  0  0  0
  190.1820  177.7010  138.2810 C   0  0  0  0  0  2  0  0  0  0  0  0
  185.1490  178.8270  143.4710 C   0  0  0  0  0  0  0  0  0  0  0  0
  187.2070  177.8010  142.6330 C   0  0  0  0  0  0  0  0  0  0  0  0
  189.0800  177.3340  140.4950 C   0  0  1  0  0  3  0  0  0  0  0  0
  184.6140  178.7230  145.8340 C   0  0  0  0  0  3  0  0  0  0  0  0
  184.8270  179.2210  142.1680 C   0  0  0  0  0  3  0  0  0  0  0  0
  184.2900  179.1340  144.5390 C   0  0  0  0  0  0  0  0  0  0  0  0
  189.6880  178.7490  136.2590 C   0  0  0  0  0  1  0  0  0  0  0  0
  188.1140  178.8130  137.9760 C   0  0  0  0  0  2  0  0  0  0  0  0
  185.6750  178.9090  141.1070 C   0  0  0  0  0  3  0  0  0  0  0  0
  185.7860  178.0050  146.0740 C   0  0  0  0  0  3  0  0  0  0  0  0
  186.3460  178.1100  143.7100 C   0  0  0  0  0  0  0  0  0  0  0  0
  189.0640  177.7310  147.3900 C   0  0  0  0  0  0  0  0  0  0  0  0
  189.8210  178.5660  145.1480 C   0  0  0  0  0  1  0  0  0  0  0  0
  188.9290  177.7440  145.9600 N   0  0  0  0  0  0  0  0  0  0  0  0
  190.1010  178.5560  148.0730 C   0  0  0  0  0  1  0  0  0  0  0  0
  188.3010  177.0150  148.0930 O   0  0  0  0  0  0  0  0  0  0  0  0
  1  2  1  0  0  0  0
  1 22  1  0  0  0  0
  2 26  1  6  0  0  0
  3 11  1  6  0  0  0
  3  6  1  0  0  0  0
  4 10  1  0  0  0  0
  5 18  1  0  0  0  0
  6  2  1  0  0  0  0
  8 14  2  0  0  0  0
  9 20  1  0  0  0  0
  9 12  1  0  0  0  0
 10 15  1  0  0  0  0
 10  8  1  0  0  0  0
 12  7  1  0  0  0  0
 13 23  1  0  0  0  0
 13 18  2  0  0  0  0
 14  3  1  0  0  0  0
 14 23  1  0  0  0  0
 15  7  1  6  0  0  0
 15 11  1  0  0  0  0
 16 22  2  0  0  0  0
 17 13  1  0  0  0  0
 18 16  1  0  0  0  0
 19  9  1  0  0  0  0
 20  4  1  0  0  0  0
 21  8  1  0  0  0  0
 21 17  2  0  0  0  0
 23  1  2  0  0  0  0
 24 27  1  0  0  0  0
 24 28  2  0  0  0  0
 25 26  1  0  0  0  0
 26 24  1  0  0  0  0
M  END
>  <MODEL>
7

>  <REMARK>
 VINA RESULT:      -7.2      3.425      7.012
  Name = 
  1 active torsions:
  status: ('A' for Active; 'I' for Inactive)
    1  A    between atoms: C_2  and  N_11
                            x       y       z     vdW  Elec       q    Type
                         _______ _______ _______ _____ _____    ______ ____

>  <TORSDO>
F 1

$$$$
=
 OpenBabel11052413263D

 28 32  0  0  1  0  0  0  0  0999 V2000
  189.0420  177.1340  145.4270 C   0  0  0  0  0  0  0  0  0  0  0  0
  189.3530  176.6940  144.0180 C   0  0  1  0  0  3  0  0  0  0  0  0
  187.0500  177.4650  143.3470 C   0  0  1  0  0  3  0  0  0  0  0  0
  183.0510  178.5520  144.6430 C   0  0  0  0  0  2  0  0  0  0  0  0
  188.3060  178.3070  149.3930 O   0  0  0  0  0  1  0  0  0  0  0  0
  188.0890  176.3560  143.2200 C   0  0  0  0  0  2  0  0  0  0  0  0
  183.5650  177.9480  141.8580 C   0  0  0  0  0  2  0  0  0  0  0  0
  185.4880  178.2870  145.1650 C   0  0  0  0  0  0  0  0  0  0  0  0
  181.7470  179.3290  142.7380 N   0  0  0  0  0  0  0  0  0  0  0  0
  184.4320  178.3790  144.1830 N   0  0  0  0  0  0  0  0  0  0  0  0
  185.7860  177.0900  142.5870 C   0  0  0  0  0  2  0  0  0  0  0  0
  182.7500  179.2240  141.6870 C   0  0  0  0  0  2  0  0  0  0  0  0
  187.5220  178.0480  147.1080 C   0  0  0  0  0  0  0  0  0  0  0  0
  186.7560  177.7830  144.7980 C   0  0  0  0  0  0  0  0  0  0  0  0
  184.7700  178.2090  142.7550 C   0  0  1  0  0  3  0  0  0  0  0  0
  189.7830  177.4160  147.7180 C   0  0  0  0  0  3  0  0  0  0  0  0
  186.2620  178.5430  147.4580 C   0  0  0  0  0  3  0  0  0  0  0  0
  188.5320  177.9260  148.0760 C   0  0  0  0  0  0  0  0  0  0  0  0
  180.8570  180.4090  142.3520 C   0  0  0  0  0  1  0  0  0  0  0  0
  182.4010  179.7530  143.9680 C   0  0  0  0  0  2  0  0  0  0  0  0
  185.2570  178.6560  146.4990 C   0  0  0  0  0  3  0  0  0  0  0  0
  190.0350  177.0220  146.4030 C   0  0  0  0  0  3  0  0  0  0  0  0
  187.7760  177.6620  145.7690 C   0  0  0  0  0  0  0  0  0  0  0  0
  190.8380  177.2890  142.0900 C   0  0  0  0  0  0  0  0  0  0  0  0
  190.3660  179.0150  143.8490 C   0  0  0  0  0  1  0  0  0  0  0  0
  190.1970  177.6660  143.3190 N   0  0  0  0  0  0  0  0  0  0  0  0
  191.6940  178.2530  141.3400 C   0  0  0  0  0  1  0  0  0  0  0  0
  190.6860  176.1270  141.6250 O   0  0  0  0  0  0  0  0  0  0  0  0
  1 23  2  0  0  0  0
  1 22  1  0  0  0  0
  2 26  1  6  0  0  0
  2  1  1  0  0  0  0
  3 11  1  1  0  0  0
  3 14  1  0  0  0  0
  6  3  1  0  0  0  0
  6  2  1  0  0  0  0
  8 21  1  0  0  0  0
  9 20  1  0  0  0  0
 10  4  1  0  0  0  0
 10  8  1  0  0  0  0
 11 15  1  0  0  0  0
 12  7  1  0  0  0  0
 12  9  1  0  0  0  0
 13 17  1  0  0  0  0
 13 18  2  0  0  0  0
 14  8  2  0  0  0  0
 14 23  1  0  0  0  0
 15  7  1  6  0  0  0
 15 10  1  0  0  0  0
 16 18  1  0  0  0  0
 18  5  1  0  0  0  0
 19  9  1  0  0  0  0
 20  4  1  0  0  0  0
 21 17  2  0  0  0  0
 22 16  2  0  0  0  0
 23 13  1  0  0  0  0
 24 26  1  0  0  0  0
 26 25  1  0  0  0  0
 27 24  1  0  0  0  0
 28 24  2  0  0  0  0
M  END
>  <MODEL>
8

>  <REMARK>
 VINA RESULT:      -7.0      3.274      7.091
  Name = 
  1 active torsions:
  status: ('A' for Active; 'I' for Inactive)
    1  A    between atoms: C_2  and  N_11
                            x       y       z     vdW  Elec       q    Type
                         _______ _______ _______ _____ _____    ______ ____

>  <TORSDO>
F 1

$$$$
=
 OpenBabel11052413263D

 28 32  0  0  1  0  0  0  0  0999 V2000
  190.9190  177.5780  142.3610 C   0  0  0  0  0  0  0  0  0  0  0  0
  191.1390  177.6040  143.8520 C   0  0  1  0  0  3  0  0  0  0  0  0
  188.6640  177.9790  144.1370 C   0  0  1  0  0  3  0  0  0  0  0  0
  184.9270  179.1910  142.2880 C   0  0  0  0  0  2  0  0  0  0  0  0
  190.4510  177.4900  138.1870 O   0  0  0  0  0  1  0  0  0  0  0  0
  190.0570  178.4030  144.5880 C   0  0  0  0  0  2  0  0  0  0  0  0
  185.1500  179.0650  145.1730 C   0  0  0  0  0  2  0  0  0  0  0  0
  187.2560  178.2950  142.0540 C   0  0  0  0  0  0  0  0  0  0  0  0
  183.0910  178.8960  143.8620 N   0  0  0  0  0  0  0  0  0  0  0  0
  186.1210  178.5960  142.8960 N   0  0  0  0  0  0  0  0  0  0  0  0
  187.6060  178.8150  144.8420 C   0  0  0  0  0  2  0  0  0  0  0  0
  183.8200  178.3450  144.9970 C   0  0  0  0  0  2  0  0  0  0  0  0
  189.4800  177.7750  140.3960 C   0  0  0  0  0  0  0  0  0  0  0  0
  188.5230  178.0540  142.6310 C   0  0  0  0  0  0  0  0  0  0  0  0
  186.2350  178.3750  144.3520 C   0  0  1  0  0  3  0  0  0  0  0  0
  191.8430  177.2940  140.1370 C   0  0  0  0  0  3  0  0  0  0  0  0
  188.2210  178.0180  139.8380 C   0  0  0  0  0  3  0  0  0  0  0  0
  190.5870  177.5200  139.5700 C   0  0  0  0  0  0  0  0  0  0  0  0
  181.7480  178.3510  143.9310 C   0  0  0  0  0  1  0  0  0  0  0  0
  183.6830  178.3830  142.6340 C   0  0  0  0  0  2  0  0  0  0  0  0
  187.1240  178.2790  140.6580 C   0  0  0  0  0  3  0  0  0  0  0  0
  192.0080  177.3240  141.5230 C   0  0  0  0  0  3  0  0  0  0  0  0
  189.6380  177.7940  141.8030 C   0  0  0  0  0  0  0  0  0  0  0  0
  191.7800  176.0930  145.7450 C   0  0  0  0  0  0  0  0  0  0  0  0
  190.9260  175.0870  143.6110 C   0  0  0  0  0  1  0  0  0  0  0  0
  191.2910  176.2560  144.4040 N   0  0  0  0  0  0  0  0  0  0  0  0
  191.9360  174.7380  146.3490 C   0  0  0  0  0  1  0  0  0  0  0  0
  192.0870  177.1020  146.4360 O   0  0  0  0  0  0  0  0  0  0  0  0
  1  2  1  0  0  0  0
  2 26  1  1  0  0  0
  2  6  1  0  0  0  0
  3  6  1  6  0  0  0
  3 11  1  0  0  0  0
  4 20  1  0  0  0  0
  4 10  1  0  0  0  0
  5 18  1  0  0  0  0
  8 14  1  0  0  0  0
  8 10  1  0  0  0  0
  9 19  1  0  0  0  0
  9 12  1  0  0  0  0
 10 15  1  0  0  0  0
 12  7  1  0  0  0  0
 13 23  1  0  0  0  0
 14  3  1  0  0  0  0
 15 11  1  1  0  0  0
 15  7  1  0  0  0  0
 16 22  1  0  0  0  0
 17 13  2  0  0  0  0
 17 21  1  0  0  0  0
 18 16  2  0  0  0  0
 18 13  1  0  0  0  0
 20  9  1  0  0  0  0
 21  8  2  0  0  0  0
 22  1  2  0  0  0  0
 23  1  1  0  0  0  0
 23 14  2  0  0  0  0
 24 27  1  0  0  0  0
 24 28  2  0  0  0  0
 25 26  1  0  0  0  0
 26 24  1  0  0  0  0
M  END
>  <MODEL>
9

>  <REMARK>
 VINA RESULT:      -6.9      3.619      7.917
  Name = 
  1 active torsions:
  status: ('A' for Active; 'I' for Inactive)
    1  A    between atoms: C_2  and  N_11
                            x       y       z     vdW  Elec       q    Type
                         _______ _______ _______ _____ _____    ______ ____

>  <TORSDO>
F 1

$$$$
