=
 OpenBabel11052415333D

 37 41  0  0  1  0  0  0  0  0999 V2000
  190.2710  175.4250  142.7550 C   0  0  0  0  0  1  0  0  0  0  0  0
  187.4030  178.9090  140.8440 C   0  0  2  0  0  3  0  0  0  0  0  0
  183.7200  178.0440  139.1440 C   0  0  1  0  0  0  0  0  0  0  0  0
  184.9910  177.6700  137.8520 S   0  0  0  0  0  0  0  0  0  0  0  0
  188.6840  177.3270  142.2780 C   0  0  2  0  0  3  0  0  0  0  0  0
  187.0340  177.9300  139.8190 N   0  0  1  0  0  0  0  0  0  0  0  0
  188.7860  178.5260  141.2970 C   0  0  1  0  0  3  0  0  0  0  0  0
  185.8820  178.5400  139.1870 C   0  0  2  0  0  3  0  0  0  0  0  0
  187.7530  177.6310  143.3690 N   0  0  0  0  0  2  0  0  0  0  0  0
  189.4220  178.1600  139.9420 C   0  0  1  0  0  3  0  0  0  0  0  0
  191.6790  177.5320  140.9930 C   0  0  0  0  0  2  0  0  0  0  0  0
  185.5020  177.9050  143.9040 O   0  0  0  0  0  1  0  0  0  0  0  0
  186.3970  177.7850  142.8410 C   0  0  1  0  0  3  0  0  0  0  0  0
  190.5780  177.1320  140.0000 C   0  0  2  0  0  3  0  0  0  0  0  0
  186.3280  179.0340  141.9610 C   0  0  2  0  0  3  0  0  0  0  0  0
  188.2260  177.8630  138.9870 C   0  0  1  0  0  3  0  0  0  0  0  0
  190.0290  176.9180  142.8930 C   0  0  2  0  0  3  0  0  0  0  0  0
  184.7850  178.2980  140.1740 C   0  0  1  0  0  3  0  0  0  0  0  0
  191.2340  177.7540  142.4440 C   0  0  0  0  0  2  0  0  0  0  0  0
  184.9100  179.2590  141.3440 C   0  0  0  0  0  2  0  0  0  0  0  0
  182.9100  179.3090  138.8460 C   0  0  0  0  0  2  0  0  0  0  0  0
  181.7550  179.3580  139.6280 O   0  0  0  0  0  1  0  0  0  0  0  0
  182.8790  176.8300  139.5450 C   0  0  0  0  0  2  0  0  0  0  0  0
  183.1840  174.8380  138.2640 O   0  0  0  0  0  0  0  0  0  0  0  0
  181.5640  176.2920  137.4570 N   0  0  0  0  0  1  0  0  0  0  0  0
  182.5640  175.9240  138.4000 C   0  0  0  0  0  0  0  0  0  0  0  0
  191.2240  176.9770  138.6210 C   0  0  0  0  0  2  0  0  0  0  0  0
  192.1160  175.7370  138.4810 C   0  0  1  0  0  3  0  0  0  0  0  0
  191.4920  174.6540  137.6160 C   0  0  0  0  0  1  0  0  0  0  0  0
  193.5110  176.0600  138.0460 C   0  0  0  0  0  0  0  0  0  0  0  0
  193.7190  176.9630  137.1900 O   0  0  0  0  0  0  0  0  0  0  0  0
  194.5770  175.3550  138.6110 O   0  0  0  0  0  0  0  0  0  0  0  0
  195.3560  174.4250  137.8680 C   0  0  0  0  0  2  0  0  0  0  0  0
  195.2080  173.0330  138.4500 C   0  0  0  0  0  1  0  0  0  0  0  0
  188.2740  176.4990  138.3090 C   0  0  0  0  0  2  0  0  0  0  0  0
  188.1850  176.6810  136.8090 C   0  0  0  0  0  2  0  0  0  0  0  0
  188.6280  177.9570  136.4670 O   0  0  0  0  0  1  0  0  0  0  0  0
  1 17  1  0  0  0  0
  2  7  1  0  0  0  0
  2 15  1  0  0  0  0
  3 23  1  0  0  0  0
  3 18  1  0  0  0  0
  4  3  1  0  0  0  0
  4  8  1  0  0  0  0
  5 17  1  0  0  0  0
  5  9  1  0  0  0  0
  6  2  1  0  0  0  0
  7  5  1  0  0  0  0
  8  6  1  0  0  0  0
  8 18  1  0  0  0  0
 10 14  1  0  0  0  0
 10  7  1  0  0  0  0
 11 19  1  0  0  0  0
 13  9  1  0  0  0  0
 13 12  1  0  0  0  0
 14 11  1  0  0  0  0
 15 13  1  0  0  0  0
 16  6  1  0  0  0  0
 16 10  1  0  0  0  0
 18 20  1  0  0  0  0
 19 17  1  0  0  0  0
 20 15  1  0  0  0  0
 21  3  1  0  0  0  0
 21 22  1  0  0  0  0
 24 26  2  0  0  0  0
 25 26  1  0  0  0  0
 26 23  1  0  0  0  0
 27 14  1  0  0  0  0
 28 27  1  0  0  0  0
 29 28  1  0  0  0  0
 30 28  1  0  0  0  0
 30 32  1  0  0  0  0
 31 30  2  0  0  0  0
 33 34  1  0  0  0  0
 33 32  1  0  0  0  0
 35 16  1  0  0  0  0
 36 35  1  0  0  0  0
 37 36  1  0  0  0  0
M  END
>  <MODEL>
1

>  <REMARK>
 VINA RESULT:      -6.1      0.000      0.000
  Name = 
  10 active torsions:
  status: ('A' for Active; 'I' for Inactive)
    1  A    between atoms: C_1  and  C_5
    2  A    between atoms: C_1  and  C_23
    3  A    between atoms: C_2  and  C_6
    4  A    between atoms: C_5  and  O_26
    5  A    between atoms: C_6  and  C_8
    6  A    between atoms: C_8  and  C_19
    7  A    between atoms: C_11  and  O_26
    8  A    between atoms: C_23  and  C_25
    9  A    between atoms: C_27  and  C_33
   10  A    between atoms: C_29  and  C_33
                            x       y       z     vdW  Elec       q    Type
                         _______ _______ _______ _____ _____    ______ ____

>  <TORSDO>
F 10

$$$$
=
 OpenBabel11052415333D

 37 41  0  0  1  0  0  0  0  0999 V2000
  185.7560  175.1580  136.9880 C   0  0  0  0  0  1  0  0  0  0  0  0
  188.9980  178.0960  139.1950 C   0  0  2  0  0  3  0  0  0  0  0  0
  190.6280  177.1900  142.9000 C   0  0  1  0  0  0  0  0  0  0  0  0
  188.9650  177.9330  143.2290 S   0  0  0  0  0  0  0  0  0  0  0  0
  187.7660  176.4630  137.7760 C   0  0  2  0  0  3  0  0  0  0  0  0
  188.3500  177.7300  140.4560 N   0  0  1  0  0  0  0  0  0  0  0  0
  187.9380  177.9630  138.1360 C   0  0  1  0  0  3  0  0  0  0  0  0
  189.2870  178.2060  141.4530 C   0  0  2  0  0  3  0  0  0  0  0  0
  189.0570  175.8670  137.4160 N   0  0  0  0  0  2  0  0  0  0  0  0
  186.7300  178.5580  138.8870 C   0  0  1  0  0  3  0  0  0  0  0  0
  185.1210  178.1790  136.9220 C   0  0  0  0  0  2  0  0  0  0  0  0
  191.1010  175.1440  138.2690 O   0  0  0  0  0  1  0  0  0  0  0  0
  189.9460  175.8620  138.5780 C   0  0  1  0  0  3  0  0  0  0  0  0
  185.3420  178.0440  138.4360 C   0  0  2  0  0  3  0  0  0  0  0  0
  190.3120  177.3000  138.9500 C   0  0  2  0  0  3  0  0  0  0  0  0
  187.0920  178.4590  140.4000 C   0  0  1  0  0  3  0  0  0  0  0  0
  186.7840  176.2140  136.6220 C   0  0  2  0  0  3  0  0  0  0  0  0
  190.3710  177.1770  141.4190 C   0  0  1  0  0  3  0  0  0  0  0  0
  186.1460  177.4750  136.0240 C   0  0  0  0  0  2  0  0  0  0  0  0
  191.2500  177.3800  140.1970 C   0  0  0  0  0  2  0  0  0  0  0  0
  191.7880  178.1200  143.2640 C   0  0  0  0  0  2  0  0  0  0  0  0
  191.3200  179.2930  143.8580 O   0  0  0  0  0  1  0  0  0  0  0  0
  190.7720  175.7580  143.4220 C   0  0  0  0  0  2  0  0  0  0  0  0
  192.5110  174.7880  144.7400 O   0  0  0  0  0  0  0  0  0  0  0  0
  191.3790  176.5510  145.7420 N   0  0  0  0  0  1  0  0  0  0  0  0
  191.6080  175.6600  144.6560 C   0  0  0  0  0  0  0  0  0  0  0  0
  184.2290  178.8240  139.1420 C   0  0  0  0  0  2  0  0  0  0  0  0
  182.8920  178.0770  139.2220 C   0  0  1  0  0  3  0  0  0  0  0  0
  183.0610  176.5710  139.3390 C   0  0  0  0  0  1  0  0  0  0  0  0
  181.9780  178.6160  140.2780 C   0  0  0  0  0  0  0  0  0  0  0  0
  180.8890  179.1660  139.9580 O   0  0  0  0  0  0  0  0  0  0  0  0
  182.3440  178.4900  141.6200 O   0  0  0  0  0  0  0  0  0  0  0  0
  181.5980  179.0870  142.6740 C   0  0  0  0  0  2  0  0  0  0  0  0
  182.2810  178.8410  144.0050 C   0  0  0  0  0  1  0  0  0  0  0  0
  186.0640  177.7280  141.2550 C   0  0  0  0  0  2  0  0  0  0  0  0
  185.6460  178.6170  142.4080 C   0  0  0  0  0  2  0  0  0  0  0  0
  185.6770  179.9500  142.0020 O   0  0  0  0  0  1  0  0  0  0  0  0
  2  6  1  0  0  0  0
  3  4  1  0  0  0  0
  3 21  1  0  0  0  0
  3 23  1  0  0  0  0
  5  7  1  0  0  0  0
  6  8  1  0  0  0  0
  7 10  1  0  0  0  0
  7  2  1  0  0  0  0
  8  4  1  0  0  0  0
  9  5  1  0  0  0  0
  9 13  1  0  0  0  0
 10 16  1  0  0  0  0
 11 14  1  0  0  0  0
 12 13  1  0  0  0  0
 13 15  1  0  0  0  0
 14 10  1  0  0  0  0
 14 27  1  0  0  0  0
 15  2  1  0  0  0  0
 15 20  1  0  0  0  0
 16  6  1  0  0  0  0
 16 35  1  0  0  0  0
 17  1  1  0  0  0  0
 17  5  1  0  0  0  0
 18  8  1  0  0  0  0
 18  3  1  0  0  0  0
 19 17  1  0  0  0  0
 19 11  1  0  0  0  0
 20 18  1  0  0  0  0
 21 22  1  0  0  0  0
 23 26  1  0  0  0  0
 26 24  2  0  0  0  0
 26 25  1  0  0  0  0
 27 28  1  0  0  0  0
 28 29  1  0  0  0  0
 28 30  1  0  0  0  0
 30 32  1  0  0  0  0
 31 30  2  0  0  0  0
 32 33  1  0  0  0  0
 33 34  1  0  0  0  0
 35 36  1  0  0  0  0
 37 36  1  0  0  0  0
M  END
>  <MODEL>
2

>  <REMARK>
 VINA RESULT:      -5.5      2.828      8.498
  Name = 
  10 active torsions:
  status: ('A' for Active; 'I' for Inactive)
    1  A    between atoms: C_1  and  C_5
    2  A    between atoms: C_1  and  C_23
    3  A    between atoms: C_2  and  C_6
    4  A    between atoms: C_5  and  O_26
    5  A    between atoms: C_6  and  C_8
    6  A    between atoms: C_8  and  C_19
    7  A    between atoms: C_11  and  O_26
    8  A    between atoms: C_23  and  C_25
    9  A    between atoms: C_27  and  C_33
   10  A    between atoms: C_29  and  C_33
                            x       y       z     vdW  Elec       q    Type
                         _______ _______ _______ _____ _____    ______ ____

>  <TORSDO>
F 10

$$$$
=
 OpenBabel11052415333D

 37 41  0  0  1  0  0  0  0  0999 V2000
  191.1200  179.6060  144.6330 C   0  0  0  0  0  1  0  0  0  0  0  0
  189.9740  176.2680  141.2330 C   0  0  2  0  0  3  0  0  0  0  0  0
  188.5930  177.3380  137.4720 C   0  0  1  0  0  0  0  0  0  0  0  0
  187.1350  177.4250  138.6070 S   0  0  0  0  0  0  0  0  0  0  0  0
  191.0550  177.8480  142.8250 C   0  0  2  0  0  3  0  0  0  0  0  0
  188.8830  177.1620  140.8390 N   0  0  1  0  0  0  0  0  0  0  0  0
  190.2230  176.5450  142.6910 C   0  0  1  0  0  3  0  0  0  0  0  0
  188.4610  176.6160  139.5660 C   0  0  2  0  0  3  0  0  0  0  0  0
  192.2710  177.7710  142.0080 N   0  0  0  0  0  2  0  0  0  0  0  0
  188.7720  176.6860  143.1910 C   0  0  1  0  0  3  0  0  0  0  0  0
  189.4860  177.1750  145.6080 C   0  0  0  0  0  2  0  0  0  0  0  0
  193.0770  177.8070  139.8220 O   0  0  0  0  0  1  0  0  0  0  0  0
  191.9160  177.7100  140.5900 C   0  0  1  0  0  3  0  0  0  0  0  0
  188.5780  177.5810  144.4390 C   0  0  2  0  0  3  0  0  0  0  0  0
  191.2090  176.3860  140.2950 C   0  0  2  0  0  3  0  0  0  0  0  0
  187.9240  177.0050  141.9220 C   0  0  1  0  0  3  0  0  0  0  0  0
  191.4660  178.1730  144.2680 C   0  0  2  0  0  3  0  0  0  0  0  0
  189.5240  177.0850  138.6240 C   0  0  1  0  0  3  0  0  0  0  0  0
  190.9930  177.1650  145.3240 C   0  0  0  0  0  2  0  0  0  0  0  0
  190.7820  176.2520  138.7970 C   0  0  0  0  0  2  0  0  0  0  0  0
  188.5420  176.1450  136.5140 C   0  0  0  0  0  2  0  0  0  0  0  0
  189.5590  176.2260  135.5600 O   0  0  0  0  0  1  0  0  0  0  0  0
  188.9310  178.6740  136.8060 C   0  0  0  0  0  2  0  0  0  0  0  0
  187.3260  180.4280  136.5890 O   0  0  0  0  0  0  0  0  0  0  0  0
  187.1140  178.7000  135.0530 N   0  0  0  0  0  1  0  0  0  0  0  0
  187.7550  179.3270  136.1580 C   0  0  0  0  0  0  0  0  0  0  0  0
  187.1280  177.5110  144.9250 C   0  0  0  0  0  2  0  0  0  0  0  0
  186.6190  178.8050  145.5720 C   0  0  1  0  0  3  0  0  0  0  0  0
  185.3240  179.3050  144.9540 C   0  0  0  0  0  1  0  0  0  0  0  0
  186.5260  178.7220  147.0640 C   0  0  0  0  0  0  0  0  0  0  0  0
  185.9540  179.6360  147.7180 O   0  0  0  0  0  0  0  0  0  0  0  0
  187.0720  177.6140  147.7160 O   0  0  0  0  0  0  0  0  0  0  0  0
  187.8830  177.7360  148.8780 C   0  0  0  0  0  2  0  0  0  0  0  0
  189.1650  178.4760  148.5470 C   0  0  0  0  0  1  0  0  0  0  0  0
  187.0840  178.2720  142.0180 C   0  0  0  0  0  2  0  0  0  0  0  0
  185.6350  177.9360  141.7350 C   0  0  0  0  0  2  0  0  0  0  0  0
  184.9860  179.0610  141.2290 O   0  0  0  0  0  1  0  0  0  0  0  0
  2  7  1  0  0  0  0
  3  4  1  0  0  0  0
  3 18  1  0  0  0  0
  4  8  1  0  0  0  0
  5 17  1  0  0  0  0
  6  2  1  0  0  0  0
  6 16  1  0  0  0  0
  7  5  1  0  0  0  0
  7 10  1  0  0  0  0
  8  6  1  0  0  0  0
  9  5  1  0  0  0  0
 10 14  1  0  0  0  0
 12 13  1  0  0  0  0
 13  9  1  0  0  0  0
 14 27  1  0  0  0  0
 14 11  1  0  0  0  0
 15 13  1  0  0  0  0
 15  2  1  0  0  0  0
 16 35  1  0  0  0  0
 16 10  1  0  0  0  0
 17  1  1  0  0  0  0
 17 19  1  0  0  0  0
 18 20  1  0  0  0  0
 18  8  1  0  0  0  0
 19 11  1  0  0  0  0
 20 15  1  0  0  0  0
 21  3  1  0  0  0  0
 22 21  1  0  0  0  0
 23  3  1  0  0  0  0
 25 26  1  0  0  0  0
 26 24  2  0  0  0  0
 26 23  1  0  0  0  0
 27 28  1  0  0  0  0
 28 30  1  0  0  0  0
 29 28  1  0  0  0  0
 30 32  1  0  0  0  0
 30 31  2  0  0  0  0
 32 33  1  0  0  0  0
 34 33  1  0  0  0  0
 36 35  1  0  0  0  0
 37 36  1  0  0  0  0
M  END
>  <MODEL>
3

>  <REMARK>
 VINA RESULT:      -5.3      2.860      7.184
  Name = 
  10 active torsions:
  status: ('A' for Active; 'I' for Inactive)
    1  A    between atoms: C_1  and  C_5
    2  A    between atoms: C_1  and  C_23
    3  A    between atoms: C_2  and  C_6
    4  A    between atoms: C_5  and  O_26
    5  A    between atoms: C_6  and  C_8
    6  A    between atoms: C_8  and  C_19
    7  A    between atoms: C_11  and  O_26
    8  A    between atoms: C_23  and  C_25
    9  A    between atoms: C_27  and  C_33
   10  A    between atoms: C_29  and  C_33
                            x       y       z     vdW  Elec       q    Type
                         _______ _______ _______ _____ _____    ______ ____

>  <TORSDO>
F 10

$$$$
=
 OpenBabel11052415333D

 37 41  0  0  1  0  0  0  0  0999 V2000
  189.2030  177.1290  140.3620 C   0  0  0  0  0  1  0  0  0  0  0  0
  185.2050  178.1190  137.7070 C   0  0  2  0  0  3  0  0  0  0  0  0
  181.6400  176.0680  138.2430 C   0  0  1  0  0  0  0  0  0  0  0  0
  182.7040  174.9950  137.1750 S   0  0  0  0  0  0  0  0  0  0  0  0
  187.1050  178.0590  139.3150 C   0  0  2  0  0  3  0  0  0  0  0  0
  184.9290  176.6810  137.7340 N   0  0  1  0  0  0  0  0  0  0  0  0
  186.6980  178.2520  137.8300 C   0  0  1  0  0  3  0  0  0  0  0  0
  183.5600  176.6050  137.2680 C   0  0  2  0  0  3  0  0  0  0  0  0
  186.3450  178.9670  140.1800 N   0  0  0  0  0  2  0  0  0  0  0  0
  187.1480  177.0970  136.9140 C   0  0  1  0  0  3  0  0  0  0  0  0
  189.6440  177.5270  137.3330 C   0  0  0  0  0  2  0  0  0  0  0  0
  184.2410  179.3780  141.0950 O   0  0  0  0  0  1  0  0  0  0  0  0
  184.9240  178.6190  140.1440 C   0  0  1  0  0  3  0  0  0  0  0  0
  188.5270  176.4780  137.2450 C   0  0  2  0  0  3  0  0  0  0  0  0
  184.3610  178.9060  138.7510 C   0  0  2  0  0  3  0  0  0  0  0  0
  185.9200  176.1410  136.8160 C   0  0  1  0  0  3  0  0  0  0  0  0
  188.6000  178.2830  139.5800 C   0  0  2  0  0  3  0  0  0  0  0  0
  182.7690  177.0350  138.4620 C   0  0  1  0  0  3  0  0  0  0  0  0
  189.4330  178.6580  138.3470 C   0  0  0  0  0  2  0  0  0  0  0  0
  182.8460  178.5430  138.6260 C   0  0  0  0  0  2  0  0  0  0  0  0
  180.4800  176.7170  137.4830 C   0  0  0  0  0  2  0  0  0  0  0  0
  180.0790  175.9190  136.4090 O   0  0  0  0  0  1  0  0  0  0  0  0
  181.2440  175.4120  139.5680 C   0  0  0  0  0  2  0  0  0  0  0  0
  178.9330  175.5090  140.1630 O   0  0  0  0  0  0  0  0  0  0  0  0
  180.2180  177.2980  140.8980 N   0  0  0  0  0  1  0  0  0  0  0  0
  180.0640  176.0580  140.2180 C   0  0  0  0  0  0  0  0  0  0  0  0
  188.9260  175.4580  136.1740 C   0  0  0  0  0  2  0  0  0  0  0  0
  189.8530  174.3470  136.6790 C   0  0  1  0  0  3  0  0  0  0  0  0
  189.4140  172.9610  136.2350 C   0  0  0  0  0  1  0  0  0  0  0  0
  191.2970  174.5960  136.3680 C   0  0  0  0  0  0  0  0  0  0  0  0
  191.6330  175.0970  135.2600 O   0  0  0  0  0  0  0  0  0  0  0  0
  192.2600  174.2790  137.3290 O   0  0  0  0  0  0  0  0  0  0  0  0
  193.3770  175.1190  137.5950 C   0  0  0  0  0  2  0  0  0  0  0  0
  192.9270  176.3780  138.3100 C   0  0  0  0  0  1  0  0  0  0  0  0
  186.2060  174.6950  137.2000 C   0  0  0  0  0  2  0  0  0  0  0  0
  185.7860  173.7820  136.0670 C   0  0  0  0  0  2  0  0  0  0  0  0
  185.7670  174.5010  134.8730 O   0  0  0  0  0  1  0  0  0  0  0  0
  2  6  1  0  0  0  0
  2  7  1  0  0  0  0
  2 15  1  0  0  0  0
  3 18  1  0  0  0  0
  3 23  1  0  0  0  0
  4  8  1  0  0  0  0
  4  3  1  0  0  0  0
  5 17  1  0  0  0  0
  5  9  1  0  0  0  0
  7  5  1  0  0  0  0
  8  6  1  0  0  0  0
  8 18  1  0  0  0  0
 10 14  1  0  0  0  0
 10  7  1  0  0  0  0
 11 19  1  0  0  0  0
 13  9  1  0  0  0  0
 13 12  1  0  0  0  0
 14 11  1  0  0  0  0
 15 13  1  0  0  0  0
 16 10  1  0  0  0  0
 16 35  1  0  0  0  0
 16  6  1  0  0  0  0
 17  1  1  0  0  0  0
 18 20  1  0  0  0  0
 19 17  1  0  0  0  0
 20 15  1  0  0  0  0
 21  3  1  0  0  0  0
 22 21  1  0  0  0  0
 23 26  1  0  0  0  0
 24 26  2  0  0  0  0
 26 25  1  0  0  0  0
 27 28  1  0  0  0  0
 27 14  1  0  0  0  0
 29 28  1  0  0  0  0
 30 28  1  0  0  0  0
 30 32  1  0  0  0  0
 31 30  2  0  0  0  0
 32 33  1  0  0  0  0
 33 34  1  0  0  0  0
 36 35  1  0  0  0  0
 37 36  1  0  0  0  0
M  END
>  <MODEL>
4

>  <REMARK>
 VINA RESULT:      -5.0      2.382      3.613
  Name = 
  10 active torsions:
  status: ('A' for Active; 'I' for Inactive)
    1  A    between atoms: C_1  and  C_5
    2  A    between atoms: C_1  and  C_23
    3  A    between atoms: C_2  and  C_6
    4  A    between atoms: C_5  and  O_26
    5  A    between atoms: C_6  and  C_8
    6  A    between atoms: C_8  and  C_19
    7  A    between atoms: C_11  and  O_26
    8  A    between atoms: C_23  and  C_25
    9  A    between atoms: C_27  and  C_33
   10  A    between atoms: C_29  and  C_33
                            x       y       z     vdW  Elec       q    Type
                         _______ _______ _______ _____ _____    ______ ____

>  <TORSDO>
F 10

$$$$
=
 OpenBabel11052415333D

 37 41  0  0  1  0  0  0  0  0999 V2000
  180.3160  174.7600  138.8010 C   0  0  0  0  0  1  0  0  0  0  0  0
  183.7250  177.1030  136.1740 C   0  0  2  0  0  3  0  0  0  0  0  0
  187.7790  176.6520  136.9230 C   0  0  1  0  0  0  0  0  0  0  0  0
  187.1540  177.8830  138.1550 S   0  0  0  0  0  0  0  0  0  0  0  0
  181.9620  175.5980  137.0830 C   0  0  2  0  0  3  0  0  0  0  0  0
  184.4820  177.2310  137.4210 N   0  0  1  0  0  0  0  0  0  0  0  0
  182.2780  177.0320  136.5790 C   0  0  1  0  0  3  0  0  0  0  0  0
  185.7930  177.6420  136.9630 C   0  0  2  0  0  3  0  0  0  0  0  0
  182.3590  174.6000  136.0840 N   0  0  0  0  0  2  0  0  0  0  0  0
  182.2570  178.0940  137.6960 C   0  0  1  0  0  3  0  0  0  0  0  0
  179.7670  177.7390  138.2060 C   0  0  0  0  0  2  0  0  0  0  0  0
  184.1880  173.5530  135.0910 O   0  0  0  0  0  1  0  0  0  0  0  0
  183.8120  174.6150  135.9140 C   0  0  1  0  0  3  0  0  0  0  0  0
  181.1790  177.8980  138.7880 C   0  0  2  0  0  3  0  0  0  0  0  0
  184.2420  175.9390  135.2810 C   0  0  2  0  0  3  0  0  0  0  0  0
  183.7410  178.2480  138.1500 C   0  0  1  0  0  3  0  0  0  0  0  0
  180.4810  175.3750  137.4220 C   0  0  2  0  0  3  0  0  0  0  0  0
  186.3840  176.3720  136.4380 C   0  0  1  0  0  3  0  0  0  0  0  0
  179.5720  176.5910  137.2070 C   0  0  0  0  0  2  0  0  0  0  0  0
  185.7890  176.0380  135.0810 C   0  0  0  0  0  2  0  0  0  0  0  0
  188.6430  177.2800  135.8260 C   0  0  0  0  0  2  0  0  0  0  0  0
  189.1040  178.5400  136.2130 O   0  0  0  0  0  1  0  0  0  0  0  0
  188.3770  175.3960  137.5610 C   0  0  0  0  0  2  0  0  0  0  0  0
  190.2500  176.2600  138.7650 O   0  0  0  0  0  0  0  0  0  0  0  0
  190.7730  174.7790  137.0540 N   0  0  0  0  0  1  0  0  0  0  0  0
  189.8400  175.5120  137.8400 C   0  0  0  0  0  0  0  0  0  0  0  0
  181.1600  179.0960  139.7410 C   0  0  0  0  0  2  0  0  0  0  0  0
  180.2500  178.9140  140.9620 C   0  0  1  0  0  3  0  0  0  0  0  0
  180.0480  177.4550  141.3370 C   0  0  0  0  0  1  0  0  0  0  0  0
  180.6720  179.7370  142.1390 C   0  0  0  0  0  0  0  0  0  0  0  0
  179.9000  180.6170  142.6110 O   0  0  0  0  0  0  0  0  0  0  0  0
  181.9250  179.5070  142.7130 O   0  0  0  0  0  0  0  0  0  0  0  0
  182.0800  178.8470  143.9640 C   0  0  0  0  0  2  0  0  0  0  0  0
  183.5340  178.8750  144.3940 C   0  0  0  0  0  1  0  0  0  0  0  0
  183.9740  178.0470  139.6430 C   0  0  0  0  0  2  0  0  0  0  0  0
  184.5470  179.3170  140.2370 C   0  0  0  0  0  2  0  0  0  0  0  0
  185.4790  178.9920  141.2200 O   0  0  0  0  0  1  0  0  0  0  0  0
  2  7  1  0  0  0  0
  2  6  1  0  0  0  0
  3 23  1  0  0  0  0
  3  4  1  0  0  0  0
  5 17  1  0  0  0  0
  6 16  1  0  0  0  0
  7  5  1  0  0  0  0
  7 10  1  0  0  0  0
  8  6  1  0  0  0  0
  8  4  1  0  0  0  0
  9  5  1  0  0  0  0
 10 16  1  0  0  0  0
 10 14  1  0  0  0  0
 11 14  1  0  0  0  0
 12 13  1  0  0  0  0
 13  9  1  0  0  0  0
 14 27  1  0  0  0  0
 15 13  1  0  0  0  0
 15  2  1  0  0  0  0
 16 35  1  0  0  0  0
 17  1  1  0  0  0  0
 18  3  1  0  0  0  0
 18  8  1  0  0  0  0
 19 17  1  0  0  0  0
 19 11  1  0  0  0  0
 20 15  1  0  0  0  0
 20 18  1  0  0  0  0
 21 22  1  0  0  0  0
 21  3  1  0  0  0  0
 23 26  1  0  0  0  0
 25 26  1  0  0  0  0
 26 24  2  0  0  0  0
 27 28  1  0  0  0  0
 28 29  1  0  0  0  0
 28 30  1  0  0  0  0
 30 31  2  0  0  0  0
 30 32  1  0  0  0  0
 32 33  1  0  0  0  0
 33 34  1  0  0  0  0
 35 36  1  0  0  0  0
 36 37  1  0  0  0  0
M  END
>  <MODEL>
5

>  <REMARK>
 VINA RESULT:      -4.6      3.443      9.357
  Name = 
  10 active torsions:
  status: ('A' for Active; 'I' for Inactive)
    1  A    between atoms: C_1  and  C_5
    2  A    between atoms: C_1  and  C_23
    3  A    between atoms: C_2  and  C_6
    4  A    between atoms: C_5  and  O_26
    5  A    between atoms: C_6  and  C_8
    6  A    between atoms: C_8  and  C_19
    7  A    between atoms: C_11  and  O_26
    8  A    between atoms: C_23  and  C_25
    9  A    between atoms: C_27  and  C_33
   10  A    between atoms: C_29  and  C_33
                            x       y       z     vdW  Elec       q    Type
                         _______ _______ _______ _____ _____    ______ ____

>  <TORSDO>
F 10

$$$$
=
 OpenBabel11052415333D

 37 41  0  0  1  0  0  0  0  0999 V2000
  184.4730  177.5030  141.9270 C   0  0  0  0  0  1  0  0  0  0  0  0
  188.6830  178.6730  139.7080 C   0  0  2  0  0  3  0  0  0  0  0  0
  190.8630  175.9060  137.5170 C   0  0  1  0  0  0  0  0  0  0  0  0
  191.2900  175.6180  139.2950 S   0  0  0  0  0  0  0  0  0  0  0  0
  186.3240  178.3360  140.4280 C   0  0  2  0  0  3  0  0  0  0  0  0
  189.1510  177.3310  140.0650 N   0  0  1  0  0  0  0  0  0  0  0  0
  187.6670  179.0430  140.7540 C   0  0  1  0  0  3  0  0  0  0  0  0
  190.3450  177.1790  139.2600 C   0  0  2  0  0  3  0  0  0  0  0  0
  185.9080  178.6250  139.0520 N   0  0  0  0  0  2  0  0  0  0  0  0
  188.3620  178.4940  142.0140 C   0  0  1  0  0  3  0  0  0  0  0  0
  186.4510  179.2080  143.5730 C   0  0  0  0  0  2  0  0  0  0  0  0
  186.3690  178.1790  136.8120 O   0  0  0  0  0  1  0  0  0  0  0  0
  186.8640  178.0430  138.1090 C   0  0  1  0  0  3  0  0  0  0  0  0
  187.4220  178.0870  143.1750 C   0  0  2  0  0  3  0  0  0  0  0  0
  188.2070  178.7630  138.2300 C   0  0  2  0  0  3  0  0  0  0  0  0
  189.3860  177.4380  141.4970 C   0  0  1  0  0  3  0  0  0  0  0  0
  185.1760  178.7280  141.3690 C   0  0  2  0  0  3  0  0  0  0  0  0
  189.8010  176.9020  137.8950 C   0  0  1  0  0  3  0  0  0  0  0  0
  185.5430  179.7430  142.4590 C   0  0  0  0  0  2  0  0  0  0  0  0
  189.2900  178.1850  137.2630 C   0  0  0  0  0  2  0  0  0  0  0  0
  191.9950  176.5620  136.7230 C   0  0  0  0  0  2  0  0  0  0  0  0
  192.9810  175.6290  136.3950 O   0  0  0  0  0  1  0  0  0  0  0  0
  190.2270  174.6930  136.8350 C   0  0  0  0  0  2  0  0  0  0  0  0
  187.8730  174.8450  136.4640 O   0  0  0  0  0  0  0  0  0  0  0  0
  189.1990  175.5790  134.7060 N   0  0  0  0  0  1  0  0  0  0  0  0
  189.0300  175.0370  136.0100 C   0  0  0  0  0  0  0  0  0  0  0  0
  188.2370  177.7120  144.4150 C   0  0  0  0  0  2  0  0  0  0  0  0
  187.4980  177.9250  145.7420 C   0  0  1  0  0  3  0  0  0  0  0  0
  186.2010  177.1370  145.8300 C   0  0  0  0  0  1  0  0  0  0  0  0
  188.3650  177.7030  146.9420 C   0  0  0  0  0  0  0  0  0  0  0  0
  187.8460  177.4710  148.0680 O   0  0  0  0  0  0  0  0  0  0  0  0
  189.7530  177.7450  146.7920 O   0  0  0  0  0  0  0  0  0  0  0  0
  190.6090  176.7510  147.3430 C   0  0  0  0  0  2  0  0  0  0  0  0
  191.6870  176.3760  146.3430 C   0  0  0  0  0  1  0  0  0  0  0  0
  189.2450  176.0540  142.1200 C   0  0  0  0  0  2  0  0  0  0  0  0
  190.5230  175.6990  142.8500 C   0  0  0  0  0  2  0  0  0  0  0  0
  191.3980  176.7840  142.8110 O   0  0  0  0  0  1  0  0  0  0  0  0
  2  6  1  0  0  0  0
  2  7  1  0  0  0  0
  3 18  1  0  0  0  0
  3  4  1  0  0  0  0
  5  7  1  0  0  0  0
  5 17  1  0  0  0  0
  6 16  1  0  0  0  0
  7 10  1  0  0  0  0
  8  4  1  0  0  0  0
  8  6  1  0  0  0  0
  9  5  1  0  0  0  0
 10 14  1  0  0  0  0
 12 13  1  0  0  0  0
 13 15  1  0  0  0  0
 13  9  1  0  0  0  0
 14 11  1  0  0  0  0
 14 27  1  0  0  0  0
 15  2  1  0  0  0  0
 16 10  1  0  0  0  0
 16 35  1  0  0  0  0
 17  1  1  0  0  0  0
 17 19  1  0  0  0  0
 18  8  1  0  0  0  0
 19 11  1  0  0  0  0
 20 18  1  0  0  0  0
 20 15  1  0  0  0  0
 21  3  1  0  0  0  0
 22 21  1  0  0  0  0
 23  3  1  0  0  0  0
 25 26  1  0  0  0  0
 26 24  2  0  0  0  0
 26 23  1  0  0  0  0
 27 28  1  0  0  0  0
 28 29  1  0  0  0  0
 28 30  1  0  0  0  0
 30 31  2  0  0  0  0
 32 30  1  0  0  0  0
 32 33  1  0  0  0  0
 34 33  1  0  0  0  0
 35 36  1  0  0  0  0
 37 36  1  0  0  0  0
M  END
>  <MODEL>
6

>  <REMARK>
 VINA RESULT:      -4.5      2.892      7.067
  Name = 
  10 active torsions:
  status: ('A' for Active; 'I' for Inactive)
    1  A    between atoms: C_1  and  C_5
    2  A    between atoms: C_1  and  C_23
    3  A    between atoms: C_2  and  C_6
    4  A    between atoms: C_5  and  O_26
    5  A    between atoms: C_6  and  C_8
    6  A    between atoms: C_8  and  C_19
    7  A    between atoms: C_11  and  O_26
    8  A    between atoms: C_23  and  C_25
    9  A    between atoms: C_27  and  C_33
   10  A    between atoms: C_29  and  C_33
                            x       y       z     vdW  Elec       q    Type
                         _______ _______ _______ _____ _____    ______ ____

>  <TORSDO>
F 10

$$$$
=
 OpenBabel11052415333D

 37 41  0  0  1  0  0  0  0  0999 V2000
  186.4300  180.1280  146.9700 C   0  0  0  0  0  1  0  0  0  0  0  0
  187.3730  176.6820  143.6160 C   0  0  2  0  0  3  0  0  0  0  0  0
  190.0710  177.2940  140.5250 C   0  0  1  0  0  0  0  0  0  0  0  0
  188.4860  178.0920  140.0000 S   0  0  0  0  0  0  0  0  0  0  0  0
  187.2050  178.1360  145.6300 C   0  0  2  0  0  3  0  0  0  0  0  0
  187.4740  177.7710  142.6420 N   0  0  1  0  0  0  0  0  0  0  0  0
  186.4360  177.1740  144.6850 C   0  0  1  0  0  3  0  0  0  0  0  0
  188.0830  177.1270  141.4970 C   0  0  2  0  0  3  0  0  0  0  0  0
  188.4210  177.4950  146.1410 N   0  0  0  0  0  2  0  0  0  0  0  0
  185.3800  177.8810  143.8140 C   0  0  1  0  0  3  0  0  0  0  0  0
  183.9830  178.6270  145.8340 C   0  0  0  0  0  2  0  0  0  0  0  0
  190.5660  176.7920  145.5610 O   0  0  0  0  0  1  0  0  0  0  0  0
  189.3530  177.2440  145.0410 C   0  0  1  0  0  3  0  0  0  0  0  0
  184.6140  179.0400  144.4970 C   0  0  2  0  0  3  0  0  0  0  0  0
  188.7660  176.1880  144.1020 C   0  0  2  0  0  3  0  0  0  0  0  0
  186.0880  178.1710  142.4550 C   0  0  1  0  0  3  0  0  0  0  0  0
  186.3760  178.6170  146.8290 C   0  0  2  0  0  3  0  0  0  0  0  0
  189.5200  177.0110  141.8950 C   0  0  1  0  0  3  0  0  0  0  0  0
  184.9440  178.0710  146.8930 C   0  0  0  0  0  2  0  0  0  0  0  0
  189.6990  175.8760  142.8880 C   0  0  0  0  0  2  0  0  0  0  0  0
  190.3790  176.0030  139.7630 C   0  0  0  0  0  2  0  0  0  0  0  0
  190.3360  176.2140  138.3840 O   0  0  0  0  0  1  0  0  0  0  0  0
  191.2460  178.2710  140.6230 C   0  0  0  0  0  2  0  0  0  0  0  0
  192.8050  177.1230  142.0200 O   0  0  0  0  0  0  0  0  0  0  0  0
  193.5210  177.5010  139.8440 N   0  0  0  0  0  1  0  0  0  0  0  0
  192.5540  177.5990  140.8820 C   0  0  0  0  0  0  0  0  0  0  0  0
  183.4930  179.5490  143.5870 C   0  0  0  0  0  2  0  0  0  0  0  0
  182.4590  178.4820  143.2070 C   0  0  1  0  0  3  0  0  0  0  0  0
  181.1510  178.6280  143.9690 C   0  0  0  0  0  1  0  0  0  0  0  0
  182.2330  178.3790  141.7310 C   0  0  0  0  0  0  0  0  0  0  0  0
  181.4190  179.1520  141.1550 O   0  0  0  0  0  0  0  0  0  0  0  0
  182.9450  177.4230  141.0020 O   0  0  0  0  0  0  0  0  0  0  0  0
  182.6350  177.1100  139.6500 C   0  0  0  0  0  2  0  0  0  0  0  0
  181.6420  175.9660  139.5910 C   0  0  0  0  0  1  0  0  0  0  0  0
  186.0550  179.6310  142.0180 C   0  0  0  0  0  2  0  0  0  0  0  0
  185.1620  179.7710  140.8040 C   0  0  0  0  0  2  0  0  0  0  0  0
  185.6610  178.9860  139.7660 O   0  0  0  0  0  1  0  0  0  0  0  0
  2 15  1  0  0  0  0
  2  7  1  0  0  0  0
  3 23  1  0  0  0  0
  3 18  1  0  0  0  0
  4  3  1  0  0  0  0
  4  8  1  0  0  0  0
  5  9  1  0  0  0  0
  5 17  1  0  0  0  0
  6  2  1  0  0  0  0
  7  5  1  0  0  0  0
  8 18  1  0  0  0  0
  8  6  1  0  0  0  0
 10 14  1  0  0  0  0
 10  7  1  0  0  0  0
 11 19  1  0  0  0  0
 13 12  1  0  0  0  0
 13  9  1  0  0  0  0
 14 11  1  0  0  0  0
 15 13  1  0  0  0  0
 16  6  1  0  0  0  0
 16 10  1  0  0  0  0
 17 19  1  0  0  0  0
 17  1  1  0  0  0  0
 18 20  1  0  0  0  0
 20 15  1  0  0  0  0
 21  3  1  0  0  0  0
 22 21  1  0  0  0  0
 23 26  1  0  0  0  0
 25 26  1  0  0  0  0
 26 24  2  0  0  0  0
 27 14  1  0  0  0  0
 28 27  1  0  0  0  0
 28 29  1  0  0  0  0
 30 28  1  0  0  0  0
 31 30  2  0  0  0  0
 32 30  1  0  0  0  0
 33 32  1  0  0  0  0
 34 33  1  0  0  0  0
 35 16  1  0  0  0  0
 36 35  1  0  0  0  0
 37 36  1  0  0  0  0
M  END
>  <MODEL>
7

>  <REMARK>
 VINA RESULT:      -4.3      2.908      8.194
  Name = 
  10 active torsions:
  status: ('A' for Active; 'I' for Inactive)
    1  A    between atoms: C_1  and  C_5
    2  A    between atoms: C_1  and  C_23
    3  A    between atoms: C_2  and  C_6
    4  A    between atoms: C_5  and  O_26
    5  A    between atoms: C_6  and  C_8
    6  A    between atoms: C_8  and  C_19
    7  A    between atoms: C_11  and  O_26
    8  A    between atoms: C_23  and  C_25
    9  A    between atoms: C_27  and  C_33
   10  A    between atoms: C_29  and  C_33
                            x       y       z     vdW  Elec       q    Type
                         _______ _______ _______ _____ _____    ______ ____

>  <TORSDO>
F 10

$$$$
=
 OpenBabel11052415333D

 37 41  0  0  1  0  0  0  0  0999 V2000
  188.3400  174.4150  136.2190 C   0  0  0  0  0  1  0  0  0  0  0  0
  187.4700  178.5310  138.7330 C   0  0  2  0  0  3  0  0  0  0  0  0
  185.6710  178.4920  142.4700 C   0  0  1  0  0  0  0  0  0  0  0  0
  184.3040  178.3560  141.2310 S   0  0  0  0  0  0  0  0  0  0  0  0
  188.4110  176.5140  137.6160 C   0  0  2  0  0  3  0  0  0  0  0  0
  186.2300  177.8960  139.1850 N   0  0  1  0  0  0  0  0  0  0  0  0
  187.7800  177.9150  137.3950 C   0  0  1  0  0  3  0  0  0  0  0  0
  185.8040  178.7560  140.2700 C   0  0  2  0  0  3  0  0  0  0  0  0
  189.5620  176.6030  138.5210 N   0  0  0  0  0  2  0  0  0  0  0  0
  186.3650  177.8630  136.7870 C   0  0  1  0  0  3  0  0  0  0  0  0
  187.1700  176.7740  134.6060 C   0  0  0  0  0  2  0  0  0  0  0  0
  190.1920  176.9330  140.7400 O   0  0  0  0  0  1  0  0  0  0  0  0
  189.1180  177.0160  139.8530 C   0  0  1  0  0  3  0  0  0  0  0  0
  186.1290  176.7540  135.7340 C   0  0  2  0  0  3  0  0  0  0  0  0
  188.6010  178.4540  139.7990 C   0  0  2  0  0  3  0  0  0  0  0  0
  185.3880  177.9420  138.0000 C   0  0  1  0  0  3  0  0  0  0  0  0
  188.8720  175.8340  136.3190 C   0  0  2  0  0  3  0  0  0  0  0  0
  186.7110  178.3640  141.3920 C   0  0  1  0  0  3  0  0  0  0  0  0
  188.6370  176.6440  135.0380 C   0  0  0  0  0  2  0  0  0  0  0  0
  188.0910  178.9650  141.1850 C   0  0  0  0  0  2  0  0  0  0  0  0
  185.7330  179.8590  143.1550 C   0  0  0  0  0  2  0  0  0  0  0  0
  184.5910  180.0840  143.9260 O   0  0  0  0  0  1  0  0  0  0  0  0
  185.7530  177.2980  143.4240 C   0  0  0  0  0  2  0  0  0  0  0  0
  187.9200  176.3030  143.5620 O   0  0  0  0  0  0  0  0  0  0  0  0
  187.4590  177.8960  145.1880 N   0  0  0  0  0  1  0  0  0  0  0  0
  187.1010  177.1280  144.0450 C   0  0  0  0  0  0  0  0  0  0  0  0
  184.7450  176.9100  135.0960 C   0  0  0  0  0  2  0  0  0  0  0  0
  184.0840  175.5860  134.6980 C   0  0  1  0  0  3  0  0  0  0  0  0
  184.6950  174.3840  135.4000 C   0  0  0  0  0  1  0  0  0  0  0  0
  182.5930  175.6070  134.8320 C   0  0  0  0  0  0  0  0  0  0  0  0
  181.9510  176.6750  134.6360 O   0  0  0  0  0  0  0  0  0  0  0  0
  181.9260  174.4250  135.1630 O   0  0  0  0  0  0  0  0  0  0  0  0
  180.9920  174.3520  136.2340 C   0  0  0  0  0  2  0  0  0  0  0  0
  181.4170  173.2890  137.2280 C   0  0  0  0  0  1  0  0  0  0  0  0
  184.3740  176.8080  138.0760 C   0  0  0  0  0  2  0  0  0  0  0  0
  182.9730  177.3830  138.0450 C   0  0  0  0  0  2  0  0  0  0  0  0
  183.0370  178.7470  137.7660 O   0  0  0  0  0  1  0  0  0  0  0  0
  1 17  1  0  0  0  0
  2  6  1  0  0  0  0
  2 15  1  0  0  0  0
  3 21  1  0  0  0  0
  3 23  1  0  0  0  0
  4  3  1  0  0  0  0
  5  9  1  0  0  0  0
  6  8  1  0  0  0  0
  7  5  1  0  0  0  0
  7  2  1  0  0  0  0
  8  4  1  0  0  0  0
  8 18  1  0  0  0  0
  9 13  1  0  0  0  0
 10  7  1  0  0  0  0
 10 16  1  0  0  0  0
 11 19  1  0  0  0  0
 11 14  1  0  0  0  0
 13 12  1  0  0  0  0
 14 10  1  0  0  0  0
 15 13  1  0  0  0  0
 15 20  1  0  0  0  0
 16 35  1  0  0  0  0
 16  6  1  0  0  0  0
 17  5  1  0  0  0  0
 18  3  1  0  0  0  0
 19 17  1  0  0  0  0
 20 18  1  0  0  0  0
 21 22  1  0  0  0  0
 23 26  1  0  0  0  0
 24 26  2  0  0  0  0
 26 25  1  0  0  0  0
 27 14  1  0  0  0  0
 28 30  1  0  0  0  0
 28 27  1  0  0  0  0
 28 29  1  0  0  0  0
 30 32  1  0  0  0  0
 31 30  2  0  0  0  0
 32 33  1  0  0  0  0
 33 34  1  0  0  0  0
 36 35  1  0  0  0  0
 37 36  1  0  0  0  0
M  END
>  <MODEL>
8

>  <REMARK>
 VINA RESULT:      -4.3      3.126      7.077
  Name = 
  10 active torsions:
  status: ('A' for Active; 'I' for Inactive)
    1  A    between atoms: C_1  and  C_5
    2  A    between atoms: C_1  and  C_23
    3  A    between atoms: C_2  and  C_6
    4  A    between atoms: C_5  and  O_26
    5  A    between atoms: C_6  and  C_8
    6  A    between atoms: C_8  and  C_19
    7  A    between atoms: C_11  and  O_26
    8  A    between atoms: C_23  and  C_25
    9  A    between atoms: C_27  and  C_33
   10  A    between atoms: C_29  and  C_33
                            x       y       z     vdW  Elec       q    Type
                         _______ _______ _______ _____ _____    ______ ____

>  <TORSDO>
F 10

$$$$
=
 OpenBabel11052415333D

 37 41  0  0  1  0  0  0  0  0999 V2000
  185.8900  176.4480  145.0600 C   0  0  0  0  0  1  0  0  0  0  0  0
  186.6080  179.0180  140.9490 C   0  0  2  0  0  3  0  0  0  0  0  0
  186.7650  177.2100  137.2200 C   0  0  1  0  0  0  0  0  0  0  0  0
  188.4380  176.9890  137.9780 S   0  0  0  0  0  0  0  0  0  0  0  0
  185.7510  177.9040  143.0050 C   0  0  2  0  0  3  0  0  0  0  0  0
  187.4030  177.8830  140.4740 N   0  0  1  0  0  0  0  0  0  0  0  0
  186.7120  178.9900  142.4500 C   0  0  1  0  0  3  0  0  0  0  0  0
  187.5550  178.1620  139.0620 C   0  0  2  0  0  3  0  0  0  0  0  0
  184.3910  178.1100  142.4970 N   0  0  0  0  0  2  0  0  0  0  0  0
  188.2020  178.6330  142.6120 C   0  0  1  0  0  3  0  0  0  0  0  0
  188.0830  178.6180  145.1760 C   0  0  0  0  0  2  0  0  0  0  0  0
  183.0410  177.9450  140.6040 O   0  0  0  0  0  1  0  0  0  0  0  0
  184.3640  177.9130  141.0470 C   0  0  1  0  0  3  0  0  0  0  0  0
  188.5750  177.8910  143.9170 C   0  0  2  0  0  3  0  0  0  0  0  0
  185.1670  179.0210  140.3640 C   0  0  2  0  0  3  0  0  0  0  0  0
  188.6250  177.9900  141.2560 C   0  0  1  0  0  3  0  0  0  0  0  0
  185.6890  177.8600  144.5380 C   0  0  2  0  0  3  0  0  0  0  0  0
  186.2220  177.7910  138.4950 C   0  0  1  0  0  3  0  0  0  0  0  0
  186.5750  178.8860  145.2570 C   0  0  0  0  0  2  0  0  0  0  0  0
  185.2000  178.8710  138.8090 C   0  0  0  0  0  2  0  0  0  0  0  0
  186.7470  178.2330  136.0810 C   0  0  0  0  0  2  0  0  0  0  0  0
  187.5580  177.8170  135.0230 O   0  0  0  0  0  1  0  0  0  0  0  0
  186.0580  175.8900  136.9000 C   0  0  0  0  0  2  0  0  0  0  0  0
  183.9600  176.6540  136.0520 O   0  0  0  0  0  0  0  0  0  0  0  0
  183.8340  175.3500  137.9690 N   0  0  0  0  0  1  0  0  0  0  0  0
  184.5680  175.9940  136.9340 C   0  0  0  0  0  0  0  0  0  0  0  0
  190.0950  177.7380  144.0290 C   0  0  0  0  0  2  0  0  0  0  0  0
  190.5470  176.4860  144.7900 C   0  0  1  0  0  3  0  0  0  0  0  0
  191.6820  175.7500  144.0970 C   0  0  0  0  0  1  0  0  0  0  0  0
  190.8540  176.7500  146.2310 C   0  0  0  0  0  0  0  0  0  0  0  0
  192.0480  176.8930  146.6120 O   0  0  0  0  0  0  0  0  0  0  0  0
  189.7990  176.8470  147.1410 O   0  0  0  0  0  0  0  0  0  0  0  0
  189.7180  177.8910  148.1050 C   0  0  0  0  0  2  0  0  0  0  0  0
  188.3630  177.8710  148.7860 C   0  0  0  0  0  1  0  0  0  0  0  0
  189.2520  176.6060  141.3750 C   0  0  0  0  0  2  0  0  0  0  0  0
  190.6610  176.6440  140.8210 C   0  0  0  0  0  2  0  0  0  0  0  0
  190.8910  177.8800  140.2190 O   0  0  0  0  0  1  0  0  0  0  0  0
  2  7  1  0  0  0  0
  3  4  1  0  0  0  0
  3 18  1  0  0  0  0
  4  8  1  0  0  0  0
  5 17  1  0  0  0  0
  6  2  1  0  0  0  0
  6 16  1  0  0  0  0
  7 10  1  0  0  0  0
  7  5  1  0  0  0  0
  8  6  1  0  0  0  0
  9  5  1  0  0  0  0
 10 14  1  0  0  0  0
 11 19  1  0  0  0  0
 12 13  1  0  0  0  0
 13  9  1  0  0  0  0
 14 27  1  0  0  0  0
 14 11  1  0  0  0  0
 15  2  1  0  0  0  0
 15 13  1  0  0  0  0
 16 35  1  0  0  0  0
 16 10  1  0  0  0  0
 17  1  1  0  0  0  0
 17 19  1  0  0  0  0
 18 20  1  0  0  0  0
 18  8  1  0  0  0  0
 20 15  1  0  0  0  0
 21  3  1  0  0  0  0
 22 21  1  0  0  0  0
 23 26  1  0  0  0  0
 23  3  1  0  0  0  0
 24 26  2  0  0  0  0
 26 25  1  0  0  0  0
 27 28  1  0  0  0  0
 28 30  1  0  0  0  0
 29 28  1  0  0  0  0
 30 31  2  0  0  0  0
 30 32  1  0  0  0  0
 32 33  1  0  0  0  0
 33 34  1  0  0  0  0
 36 35  1  0  0  0  0
 37 36  1  0  0  0  0
M  END
>  <MODEL>
9

>  <REMARK>
 VINA RESULT:      -4.2      2.822      5.504
  Name = 
  10 active torsions:
  status: ('A' for Active; 'I' for Inactive)
    1  A    between atoms: C_1  and  C_5
    2  A    between atoms: C_1  and  C_23
    3  A    between atoms: C_2  and  C_6
    4  A    between atoms: C_5  and  O_26
    5  A    between atoms: C_6  and  C_8
    6  A    between atoms: C_8  and  C_19
    7  A    between atoms: C_11  and  O_26
    8  A    between atoms: C_23  and  C_25
    9  A    between atoms: C_27  and  C_33
   10  A    between atoms: C_29  and  C_33
                            x       y       z     vdW  Elec       q    Type
                         _______ _______ _______ _____ _____    ______ ____

>  <TORSDO>
F 10

$$$$
