=
 OpenBabel11052415153D

 37 42  0  0  1  0  0  0  0  0999 V2000
  186.2740  178.5180  137.7900 C   0  0  0  0  0  2  0  0  0  0  0  0
  184.8830  179.3130  142.3510 C   0  0  1  0  0  3  0  0  0  0  0  0
  187.1720  177.8270  136.7370 C   0  0  1  0  0  0  0  0  0  0  0  0
  187.9130  177.8730  141.1810 O   0  0  0  0  0  0  0  0  0  0  0  0
  182.5410  178.2990  142.0610 C   0  0  1  0  0  3  0  0  0  0  0  0
  185.8900  178.5190  141.5540 C   0  0  2  0  0  3  0  0  0  0  0  0
  188.6660  178.1500  136.8340 C   0  0  2  0  0  3  0  0  0  0  0  0
  183.6000  179.2430  141.4790 C   0  0  2  0  0  3  0  0  0  0  0  0
  187.2300  178.8700  141.7400 O   0  0  0  0  0  0  0  0  0  0  0  0
  182.1770  178.6660  143.5040 C   0  0  0  0  0  2  0  0  0  0  0  0
  187.4780  176.3990  137.1640 C   0  0  0  0  0  2  0  0  0  0  0  0
  184.0520  178.7490  140.0950 C   0  0  2  0  0  3  0  0  0  0  0  0
  183.3600  179.1790  144.3340 C   0  0  0  0  0  2  0  0  0  0  0  0
  188.8630  176.8470  137.6130 C   0  0  2  0  0  3  0  0  0  0  0  0
  187.8830  178.0420  139.7680 C   0  0  1  0  0  3  0  0  0  0  0  0
  184.6990  178.7290  143.7610 C   0  0  2  0  0  3  0  0  0  0  0  0
  185.5610  178.8590  140.1430 C   0  0  2  0  0  3  0  0  0  0  0  0
  181.3870  178.3220  141.2760 O   0  0  0  0  0  1  0  0  0  0  0  0
  188.8350  176.9910  139.1530 C   0  0  0  0  0  2  0  0  0  0  0  0
  189.0570  179.4610  137.5170 C   0  0  0  0  0  1  0  0  0  0  0  0
  186.4110  177.9820  139.2320 C   0  0  1  0  0  3  0  0  0  0  0  0
  185.5070  177.0570  135.3810 C   0  0  0  0  0  1  0  0  0  0  0  0
  186.6590  177.8570  135.4240 O   0  0  0  0  0  0  0  0  0  0  0  0
  185.8120  179.1990  144.6800 C   0  0  0  0  0  2  0  0  0  0  0  0
  185.8520  178.3350  145.9290 C   0  0  0  0  0  2  0  0  0  0  0  0
  187.7340  177.5350  147.2330 C   0  0  0  0  0  3  0  0  0  0  0  0
  187.7520  177.0910  144.7900 C   0  0  0  0  0  3  0  0  0  0  0  0
  189.0570  176.9840  144.5090 C   0  0  0  0  0  3  0  0  0  0  0  0
  191.3450  177.8410  144.7720 O   0  0  0  0  0  1  0  0  0  0  0  0
  190.1420  177.3370  146.7110 C   0  0  0  0  0  3  0  0  0  0  0  0
  190.1790  177.3950  145.3780 C   0  0  0  0  0  0  0  0  0  0  0  0
  187.1640  177.6420  146.0300 C   0  0  0  0  0  0  0  0  0  0  0  0
  188.9940  176.7760  147.4820 C   0  0  0  0  0  2  0  0  0  0  0  0
  183.4310  179.5690  138.9580 C   0  0  0  0  0  2  0  0  0  0  0  0
  181.5710  179.4050  137.2940 O   0  0  0  0  0  1  0  0  0  0  0  0
  182.5420  178.7690  138.0560 C   0  0  0  0  0  0  0  0  0  0  0  0
  182.6820  177.4550  137.9790 C   0  0  0  0  0  2  0  0  0  0  0  0
  1 21  1  0  0  0  0
  2 16  1  0  0  0  0
  3  7  1  0  0  0  0
  3 11  1  0  0  0  0
  3  1  1  0  0  0  0
  4  9  1  0  0  0  0
  5 10  1  0  0  0  0
  6  9  1  0  0  0  0
  6  2  1  0  0  0  0
  7 20  1  0  0  0  0
  7 14  1  0  0  0  0
  8  5  1  0  0  0  0
  8  2  1  0  0  0  0
 10 13  1  0  0  0  0
 11 14  1  0  0  0  0
 12 17  1  0  0  0  0
 12  8  1  0  0  0  0
 14 19  1  0  0  0  0
 15  4  1  0  0  0  0
 16 13  1  0  0  0  0
 16 24  1  0  0  0  0
 17  6  1  0  0  0  0
 18  5  1  0  0  0  0
 19 15  1  0  0  0  0
 21 15  1  0  0  0  0
 21 17  1  0  0  0  0
 22 23  1  0  0  0  0
 23  3  1  0  0  0  0
 24 25  1  0  0  0  0
 25 32  1  0  0  0  0
 26 33  1  0  0  0  0
 27 32  1  0  0  0  0
 28 27  2  0  0  0  0
 28 31  1  0  0  0  0
 29 31  1  0  0  0  0
 30 33  1  0  0  0  0
 31 30  2  0  0  0  0
 32 26  2  0  0  0  0
 34 12  1  0  0  0  0
 35 36  1  0  0  0  0
 36 34  1  0  0  0  0
 37 36  2  0  0  0  0
M  END
>  <MODEL>
1

>  <REMARK>
 VINA RESULT:      -9.2      0.000      0.000
  Name = 
  6 active torsions:
  status: ('A' for Active; 'I' for Inactive)
    1  A    between atoms: C_5  and  O_23
    2  A    between atoms: C_20  and  C_25
    3  A    between atoms: C_21  and  C_25
    4  A    between atoms: C_22  and  C_28
    5  A    between atoms: C_22  and  C_37
    6  A    between atoms: C_31  and  C_37
                            x       y       z     vdW  Elec       q    Type
                         _______ _______ _______ _____ _____    ______ ____

>  <TORSDO>
F 6

$$$$
=
 OpenBabel11052415153D

 37 42  0  0  1  0  0  0  0  0999 V2000
  189.4390  177.2350  144.9660 C   0  0  0  0  0  2  0  0  0  0  0  0
  185.1740  177.7690  142.7530 C   0  0  1  0  0  3  0  0  0  0  0  0
  190.9730  177.4260  145.0410 C   0  0  1  0  0  0  0  0  0  0  0  0
  188.4350  178.0400  141.3690 O   0  0  0  0  0  0  0  0  0  0  0  0
  184.1790  179.3260  144.5390 C   0  0  1  0  0  3  0  0  0  0  0  0
  186.6400  178.0760  142.5630 C   0  0  2  0  0  3  0  0  0  0  0  0
  191.7760  176.7210  143.9450 C   0  0  2  0  0  3  0  0  0  0  0  0
  184.9480  178.0270  144.2690 C   0  0  2  0  0  3  0  0  0  0  0  0
  187.2730  177.4040  141.5130 O   0  0  0  0  0  0  0  0  0  0  0  0
  182.8410  179.3640  143.7920 C   0  0  0  0  0  2  0  0  0  0  0  0
  191.3650  178.7650  144.4330 C   0  0  0  0  0  2  0  0  0  0  0  0
  186.3470  178.0930  144.9030 C   0  0  2  0  0  3  0  0  0  0  0  0
  182.8810  178.7110  142.4060 C   0  0  0  0  0  2  0  0  0  0  0  0
  191.8170  178.0400  143.1710 C   0  0  2  0  0  3  0  0  0  0  0  0
  189.3140  177.6140  142.4040 C   0  0  1  0  0  3  0  0  0  0  0  0
  184.2960  178.6440  141.8450 C   0  0  2  0  0  3  0  0  0  0  0  0
  187.2650  177.5740  143.8170 C   0  0  2  0  0  3  0  0  0  0  0  0
  183.9470  179.4760  145.9070 O   0  0  0  0  0  1  0  0  0  0  0  0
  190.7080  178.2130  142.1060 C   0  0  0  0  0  2  0  0  0  0  0  0
  191.1280  175.5110  143.2680 C   0  0  0  0  0  1  0  0  0  0  0  0
  188.7330  177.9810  143.8130 C   0  0  1  0  0  3  0  0  0  0  0  0
  192.0210  175.9830  146.4630 C   0  0  0  0  0  1  0  0  0  0  0  0
  191.5150  177.2860  146.3350 O   0  0  0  0  0  0  0  0  0  0  0  0
  184.2440  178.0680  140.4410 C   0  0  0  0  0  2  0  0  0  0  0  0
  184.9870  178.9790  139.4800 C   0  0  0  0  0  2  0  0  0  0  0  0
  184.6000  177.5710  137.5440 C   0  0  0  0  0  3  0  0  0  0  0  0
  186.9480  178.1790  138.0770 C   0  0  0  0  0  3  0  0  0  0  0  0
  187.6520  177.1710  137.5460 C   0  0  0  0  0  3  0  0  0  0  0  0
  187.9390  174.7550  137.1990 O   0  0  0  0  0  1  0  0  0  0  0  0
  185.9030  175.7130  136.5640 C   0  0  0  0  0  3  0  0  0  0  0  0
  187.1180  175.8700  137.0930 C   0  0  0  0  0  0  0  0  0  0  0  0
  185.4890  178.1980  138.3190 C   0  0  0  0  0  0  0  0  0  0  0  0
  184.9670  176.8430  136.2940 C   0  0  0  0  0  2  0  0  0  0  0  0
  186.4340  177.2770  146.1980 C   0  0  0  0  0  2  0  0  0  0  0  0
  186.4120  179.3020  147.6660 O   0  0  0  0  0  1  0  0  0  0  0  0
  186.9510  178.0570  147.3670 C   0  0  0  0  0  0  0  0  0  0  0  0
  187.9180  177.5600  148.1230 C   0  0  0  0  0  2  0  0  0  0  0  0
  1  3  1  0  0  0  0
  2  8  1  0  0  0  0
  3 23  1  0  0  0  0
  4  9  1  0  0  0  0
  4 15  1  0  0  0  0
  5 18  1  0  0  0  0
  6  2  1  0  0  0  0
  6 17  1  0  0  0  0
  7  3  1  0  0  0  0
  8  5  1  0  0  0  0
  8 12  1  0  0  0  0
  9  6  1  0  0  0  0
 10  5  1  0  0  0  0
 11  3  1  0  0  0  0
 12 34  1  0  0  0  0
 13 10  1  0  0  0  0
 14  7  1  0  0  0  0
 14 11  1  0  0  0  0
 15 21  1  0  0  0  0
 16 13  1  0  0  0  0
 16  2  1  0  0  0  0
 17 12  1  0  0  0  0
 19 15  1  0  0  0  0
 19 14  1  0  0  0  0
 20  7  1  0  0  0  0
 21 17  1  0  0  0  0
 21  1  1  0  0  0  0
 23 22  1  0  0  0  0
 24 16  1  0  0  0  0
 25 24  1  0  0  0  0
 26 32  2  0  0  0  0
 27 32  1  0  0  0  0
 28 27  2  0  0  0  0
 30 31  2  0  0  0  0
 31 29  1  0  0  0  0
 31 28  1  0  0  0  0
 32 25  1  0  0  0  0
 33 30  1  0  0  0  0
 33 26  1  0  0  0  0
 34 36  1  0  0  0  0
 36 35  1  0  0  0  0
 36 37  2  0  0  0  0
M  END
>  <MODEL>
2

>  <REMARK>
 VINA RESULT:      -9.2      2.082      7.416
  Name = 
  6 active torsions:
  status: ('A' for Active; 'I' for Inactive)
    1  A    between atoms: C_5  and  O_23
    2  A    between atoms: C_20  and  C_25
    3  A    between atoms: C_21  and  C_25
    4  A    between atoms: C_22  and  C_28
    5  A    between atoms: C_22  and  C_37
    6  A    between atoms: C_31  and  C_37
                            x       y       z     vdW  Elec       q    Type
                         _______ _______ _______ _____ _____    ______ ____

>  <TORSDO>
F 6

$$$$
=
 OpenBabel11052415153D

 37 42  0  0  1  0  0  0  0  0999 V2000
  189.4440  177.2530  144.9510 C   0  0  0  0  0  2  0  0  0  0  0  0
  185.2370  177.8220  142.6390 C   0  0  1  0  0  3  0  0  0  0  0  0
  190.9750  177.4500  145.0710 C   0  0  1  0  0  0  0  0  0  0  0  0
  188.5320  178.1400  141.3480 O   0  0  0  0  0  0  0  0  0  0  0  0
  184.1870  179.3300  144.4340 C   0  0  1  0  0  3  0  0  0  0  0  0
  186.7060  178.1400  142.4950 C   0  0  2  0  0  3  0  0  0  0  0  0
  191.8100  176.7740  143.9800 C   0  0  2  0  0  3  0  0  0  0  0  0
  184.9690  178.0410  144.1530 C   0  0  2  0  0  3  0  0  0  0  0  0
  187.3710  177.4960  141.4470 O   0  0  0  0  0  0  0  0  0  0  0  0
  182.8690  179.3800  143.6530 C   0  0  0  0  0  2  0  0  0  0  0  0
  191.3760  178.8040  144.5060 C   0  0  0  0  0  2  0  0  0  0  0  0
  186.3510  178.0990  144.8250 C   0  0  2  0  0  3  0  0  0  0  0  0
  182.9490  178.7610  142.2520 C   0  0  0  0  0  2  0  0  0  0  0  0
  191.8650  178.1130  143.2400 C   0  0  2  0  0  3  0  0  0  0  0  0
  189.3850  177.6940  142.3960 C   0  0  1  0  0  3  0  0  0  0  0  0
  184.3790  178.7140  141.7290 C   0  0  2  0  0  3  0  0  0  0  0  0
  187.3000  177.6110  143.7530 C   0  0  2  0  0  3  0  0  0  0  0  0
  183.9180  179.4460  145.7980 O   0  0  0  0  0  1  0  0  0  0  0  0
  190.7840  178.3060  142.1510 C   0  0  0  0  0  2  0  0  0  0  0  0
  191.1880  175.5790  143.2580 C   0  0  0  0  0  1  0  0  0  0  0  0
  188.7660  178.0240  143.7980 C   0  0  1  0  0  3  0  0  0  0  0  0
  191.9860  175.9750  146.4880 C   0  0  0  0  0  1  0  0  0  0  0  0
  191.4830  177.2810  146.3750 O   0  0  0  0  0  0  0  0  0  0  0  0
  184.3680  178.1720  140.3110 C   0  0  0  0  0  2  0  0  0  0  0  0
  184.3000  179.3200  139.3180 C   0  0  0  0  0  2  0  0  0  0  0  0
  182.5820  178.2760  137.9620 C   0  0  0  0  0  3  0  0  0  0  0  0
  182.1370  180.5590  138.8310 C   0  0  0  0  0  3  0  0  0  0  0  0
  181.2680  181.0590  137.9430 C   0  0  0  0  0  3  0  0  0  0  0  0
  180.6070  181.3930  135.6000 O   0  0  0  0  0  1  0  0  0  0  0  0
  180.9770  179.2020  136.3260 C   0  0  0  0  0  3  0  0  0  0  0  0
  180.9600  180.5060  136.6080 C   0  0  0  0  0  0  0  0  0  0  0  0
  182.9680  179.3480  138.6580 C   0  0  0  0  0  0  0  0  0  0  0  0
  181.2310  178.1390  137.3420 C   0  0  0  0  0  2  0  0  0  0  0  0
  186.4070  177.2510  146.1020 C   0  0  0  0  0  2  0  0  0  0  0  0
  186.3360  179.2270  147.6350 O   0  0  0  0  0  1  0  0  0  0  0  0
  186.9000  178.0020  147.3010 C   0  0  0  0  0  0  0  0  0  0  0  0
  187.8700  177.4990  148.0490 C   0  0  0  0  0  2  0  0  0  0  0  0
  1  3  1  0  0  0  0
  2  8  1  0  0  0  0
  3 23  1  0  0  0  0
  4  9  1  0  0  0  0
  4 15  1  0  0  0  0
  5 18  1  0  0  0  0
  6  2  1  0  0  0  0
  6 17  1  0  0  0  0
  7  3  1  0  0  0  0
  8  5  1  0  0  0  0
  8 12  1  0  0  0  0
  9  6  1  0  0  0  0
 10  5  1  0  0  0  0
 11  3  1  0  0  0  0
 12 34  1  0  0  0  0
 13 10  1  0  0  0  0
 14  7  1  0  0  0  0
 14 11  1  0  0  0  0
 15 21  1  0  0  0  0
 16 13  1  0  0  0  0
 16  2  1  0  0  0  0
 17 21  1  0  0  0  0
 17 12  1  0  0  0  0
 19 15  1  0  0  0  0
 19 14  1  0  0  0  0
 20  7  1  0  0  0  0
 21  1  1  0  0  0  0
 23 22  1  0  0  0  0
 24 16  1  0  0  0  0
 25 24  1  0  0  0  0
 26 32  2  0  0  0  0
 28 27  2  0  0  0  0
 29 31  1  0  0  0  0
 30 31  2  0  0  0  0
 30 33  1  0  0  0  0
 31 28  1  0  0  0  0
 32 27  1  0  0  0  0
 32 25  1  0  0  0  0
 33 26  1  0  0  0  0
 34 36  1  0  0  0  0
 36 35  1  0  0  0  0
 36 37  2  0  0  0  0
M  END
>  <MODEL>
3

>  <REMARK>
 VINA RESULT:      -9.1      2.682      8.185
  Name = 
  6 active torsions:
  status: ('A' for Active; 'I' for Inactive)
    1  A    between atoms: C_5  and  O_23
    2  A    between atoms: C_20  and  C_25
    3  A    between atoms: C_21  and  C_25
    4  A    between atoms: C_22  and  C_28
    5  A    between atoms: C_22  and  C_37
    6  A    between atoms: C_31  and  C_37
                            x       y       z     vdW  Elec       q    Type
                         _______ _______ _______ _____ _____    ______ ____

>  <TORSDO>
F 6

$$$$
=
 OpenBabel11052415153D

 37 42  0  0  1  0  0  0  0  0999 V2000
  189.5160  177.2440  144.9770 C   0  0  0  0  0  2  0  0  0  0  0  0
  185.3040  177.7860  142.6680 C   0  0  1  0  0  3  0  0  0  0  0  0
  191.0450  177.4510  145.0960 C   0  0  1  0  0  0  0  0  0  0  0  0
  188.5960  178.1300  141.3760 O   0  0  0  0  0  0  0  0  0  0  0  0
  184.2440  179.2840  144.4660 C   0  0  1  0  0  3  0  0  0  0  0  0
  186.7700  178.1140  142.5250 C   0  0  2  0  0  3  0  0  0  0  0  0
  191.8850  176.7830  144.0040 C   0  0  2  0  0  3  0  0  0  0  0  0
  185.0350  178.0020  144.1830 C   0  0  2  0  0  3  0  0  0  0  0  0
  187.4380  177.4770  141.4740 O   0  0  0  0  0  0  0  0  0  0  0  0
  182.9250  179.3270  143.6870 C   0  0  0  0  0  2  0  0  0  0  0  0
  191.4370  178.8090  144.5330 C   0  0  0  0  0  2  0  0  0  0  0  0
  186.4170  178.0680  144.8550 C   0  0  2  0  0  3  0  0  0  0  0  0
  183.0090  178.7090  142.2850 C   0  0  0  0  0  2  0  0  0  0  0  0
  191.9290  178.1230  143.2650 C   0  0  2  0  0  3  0  0  0  0  0  0
  189.4520  177.6870  142.4220 C   0  0  1  0  0  3  0  0  0  0  0  0
  184.4380  178.6740  141.7600 C   0  0  2  0  0  3  0  0  0  0  0  0
  187.3690  177.5880  143.7810 C   0  0  2  0  0  3  0  0  0  0  0  0
  183.9750  179.3960  145.8310 O   0  0  0  0  0  1  0  0  0  0  0  0
  190.8470  178.3100  142.1770 C   0  0  0  0  0  2  0  0  0  0  0  0
  191.2700  175.5840  143.2800 C   0  0  0  0  0  1  0  0  0  0  0  0
  188.8320  178.0120  143.8250 C   0  0  1  0  0  3  0  0  0  0  0  0
  191.1230  176.0410  146.8880 C   0  0  0  0  0  1  0  0  0  0  0  0
  191.5560  177.2840  146.4000 O   0  0  0  0  0  0  0  0  0  0  0  0
  184.4300  178.1340  140.3410 C   0  0  0  0  0  2  0  0  0  0  0  0
  184.3980  179.2830  139.3490 C   0  0  0  0  0  2  0  0  0  0  0  0
  182.4230  180.5360  138.7090 C   0  0  0  0  0  3  0  0  0  0  0  0
  182.5280  178.1400  138.0650 C   0  0  0  0  0  3  0  0  0  0  0  0
  181.2380  177.7940  137.9690 C   0  0  0  0  0  3  0  0  0  0  0  0
  178.9660  177.8520  138.9020 O   0  0  0  0  0  1  0  0  0  0  0  0
  180.0430  179.8930  138.5300 C   0  0  0  0  0  3  0  0  0  0  0  0
  180.0830  178.5600  138.4790 C   0  0  0  0  0  0  0  0  0  0  0  0
  183.0620  179.3630  138.7010 C   0  0  0  0  0  0  0  0  0  0  0  0
  181.1290  180.7720  138.0050 C   0  0  0  0  0  2  0  0  0  0  0  0
  186.4800  177.2190  146.1310 C   0  0  0  0  0  2  0  0  0  0  0  0
  186.3670  179.2000  147.6530 O   0  0  0  0  0  1  0  0  0  0  0  0
  186.9450  177.9780  147.3350 C   0  0  0  0  0  0  0  0  0  0  0  0
  187.9030  177.4840  148.1040 C   0  0  0  0  0  2  0  0  0  0  0  0
  1  3  1  0  0  0  0
  2  8  1  0  0  0  0
  3 23  1  0  0  0  0
  4  9  1  0  0  0  0
  4 15  1  0  0  0  0
  5 18  1  0  0  0  0
  6  2  1  0  0  0  0
  6 17  1  0  0  0  0
  7  3  1  0  0  0  0
  8  5  1  0  0  0  0
  8 12  1  0  0  0  0
  9  6  1  0  0  0  0
 10  5  1  0  0  0  0
 11  3  1  0  0  0  0
 12 34  1  0  0  0  0
 13 10  1  0  0  0  0
 14  7  1  0  0  0  0
 14 11  1  0  0  0  0
 15 21  1  0  0  0  0
 16 13  1  0  0  0  0
 16  2  1  0  0  0  0
 17 21  1  0  0  0  0
 17 12  1  0  0  0  0
 19 15  1  0  0  0  0
 19 14  1  0  0  0  0
 20  7  1  0  0  0  0
 21  1  1  0  0  0  0
 23 22  1  0  0  0  0
 24 16  1  0  0  0  0
 25 24  1  0  0  0  0
 27 32  1  0  0  0  0
 28 27  2  0  0  0  0
 28 31  1  0  0  0  0
 31 30  2  0  0  0  0
 31 29  1  0  0  0  0
 32 26  2  0  0  0  0
 32 25  1  0  0  0  0
 33 30  1  0  0  0  0
 33 26  1  0  0  0  0
 34 36  1  0  0  0  0
 36 35  1  0  0  0  0
 36 37  2  0  0  0  0
M  END
>  <MODEL>
4

>  <REMARK>
 VINA RESULT:      -8.8      2.611      8.058
  Name = 
  6 active torsions:
  status: ('A' for Active; 'I' for Inactive)
    1  A    between atoms: C_5  and  O_23
    2  A    between atoms: C_20  and  C_25
    3  A    between atoms: C_21  and  C_25
    4  A    between atoms: C_22  and  C_28
    5  A    between atoms: C_22  and  C_37
    6  A    between atoms: C_31  and  C_37
                            x       y       z     vdW  Elec       q    Type
                         _______ _______ _______ _____ _____    ______ ____

>  <TORSDO>
F 6

$$$$
=
 OpenBabel11052415153D

 37 42  0  0  1  0  0  0  0  0999 V2000
  189.5920  177.1760  145.0020 C   0  0  0  0  0  2  0  0  0  0  0  0
  185.2980  177.8110  142.8760 C   0  0  1  0  0  3  0  0  0  0  0  0
  191.1270  177.3630  145.0630 C   0  0  1  0  0  0  0  0  0  0  0  0
  188.5390  178.1400  141.4580 O   0  0  0  0  0  0  0  0  0  0  0  0
  184.3300  179.2890  144.7420 C   0  0  1  0  0  3  0  0  0  0  0  0
  186.7610  178.1250  142.6790 C   0  0  2  0  0  3  0  0  0  0  0  0
  191.9140  176.7060  143.9260 C   0  0  2  0  0  3  0  0  0  0  0  0
  185.0930  178.0020  144.4040 C   0  0  2  0  0  3  0  0  0  0  0  0
  187.3790  177.4990  141.5910 O   0  0  0  0  0  0  0  0  0  0  0  0
  182.9810  179.3610  144.0170 C   0  0  0  0  0  2  0  0  0  0  0  0
  191.5130  178.7270  144.5090 C   0  0  0  0  0  2  0  0  0  0  0  0
  186.5010  178.0400  145.0200 C   0  0  2  0  0  3  0  0  0  0  0  0
  183.0010  178.7690  142.6020 C   0  0  0  0  0  2  0  0  0  0  0  0
  191.9460  178.0580  143.2110 C   0  0  2  0  0  3  0  0  0  0  0  0
  189.4310  177.6680  142.4610 C   0  0  1  0  0  3  0  0  0  0  0  0
  184.4080  178.7270  142.0190 C   0  0  2  0  0  3  0  0  0  0  0  0
  187.4030  177.5680  143.9000 C   0  0  2  0  0  3  0  0  0  0  0  0
  184.1180  179.3790  146.1180 O   0  0  0  0  0  1  0  0  0  0  0  0
  190.8220  178.2790  142.1700 C   0  0  0  0  0  2  0  0  0  0  0  0
  191.2550  175.5280  143.2060 C   0  0  0  0  0  1  0  0  0  0  0  0
  188.8720  177.9740  143.8930 C   0  0  1  0  0  3  0  0  0  0  0  0
  190.8170  176.3530  147.0850 C   0  0  0  0  0  1  0  0  0  0  0  0
  191.6880  177.1660  146.3420 O   0  0  0  0  0  0  0  0  0  0  0  0
  184.3360  178.2130  140.5930 C   0  0  0  0  0  2  0  0  0  0  0  0
  182.8870  178.1250  140.1460 C   0  0  0  0  0  2  0  0  0  0  0  0
  183.5130  176.4120  138.5490 C   0  0  0  0  0  3  0  0  0  0  0  0
  181.4420  176.0530  139.8700 C   0  0  0  0  0  3  0  0  0  0  0  0
  180.7140  175.2510  139.0840 C   0  0  0  0  0  3  0  0  0  0  0  0
  179.8530  174.7090  136.8480 O   0  0  0  0  0  1  0  0  0  0  0  0
  182.1660  174.9290  137.1010 C   0  0  0  0  0  3  0  0  0  0  0  0
  180.9530  174.9700  137.6540 C   0  0  0  0  0  0  0  0  0  0  0  0
  182.6380  176.8250  139.4680 C   0  0  0  0  0  0  0  0  0  0  0  0
  183.4330  175.0830  137.8740 C   0  0  0  0  0  2  0  0  0  0  0  0
  186.6050  177.1670  146.2770 C   0  0  0  0  0  2  0  0  0  0  0  0
  186.6710  179.2150  147.7110 O   0  0  0  0  0  1  0  0  0  0  0  0
  187.0840  177.9080  147.4860 C   0  0  0  0  0  0  0  0  0  0  0  0
  187.8990  177.3200  148.3480 C   0  0  0  0  0  2  0  0  0  0  0  0
  1  3  1  0  0  0  0
  2  8  1  0  0  0  0
  3 23  1  0  0  0  0
  4  9  1  0  0  0  0
  4 15  1  0  0  0  0
  5 18  1  0  0  0  0
  6  2  1  0  0  0  0
  6 17  1  0  0  0  0
  7  3  1  0  0  0  0
  8  5  1  0  0  0  0
  8 12  1  0  0  0  0
  9  6  1  0  0  0  0
 10  5  1  0  0  0  0
 11  3  1  0  0  0  0
 12 34  1  0  0  0  0
 13 10  1  0  0  0  0
 14  7  1  0  0  0  0
 14 11  1  0  0  0  0
 15 21  1  0  0  0  0
 16 13  1  0  0  0  0
 16  2  1  0  0  0  0
 17 12  1  0  0  0  0
 19 15  1  0  0  0  0
 19 14  1  0  0  0  0
 20  7  1  0  0  0  0
 21 17  1  0  0  0  0
 21  1  1  0  0  0  0
 23 22  1  0  0  0  0
 24 16  1  0  0  0  0
 25 24  1  0  0  0  0
 26 32  2  0  0  0  0
 28 27  2  0  0  0  0
 29 31  1  0  0  0  0
 30 31  2  0  0  0  0
 30 33  1  0  0  0  0
 31 28  1  0  0  0  0
 32 27  1  0  0  0  0
 32 25  1  0  0  0  0
 33 26  1  0  0  0  0
 34 36  1  0  0  0  0
 36 35  1  0  0  0  0
 36 37  2  0  0  0  0
M  END
>  <MODEL>
5

>  <REMARK>
 VINA RESULT:      -8.6      2.877      7.965
  Name = 
  6 active torsions:
  status: ('A' for Active; 'I' for Inactive)
    1  A    between atoms: C_5  and  O_23
    2  A    between atoms: C_20  and  C_25
    3  A    between atoms: C_21  and  C_25
    4  A    between atoms: C_22  and  C_28
    5  A    between atoms: C_22  and  C_37
    6  A    between atoms: C_31  and  C_37
                            x       y       z     vdW  Elec       q    Type
                         _______ _______ _______ _____ _____    ______ ____

>  <TORSDO>
F 6

$$$$
=
 OpenBabel11052415153D

 37 42  0  0  1  0  0  0  0  0999 V2000
  182.5810  179.3720  141.0670 C   0  0  0  0  0  2  0  0  0  0  0  0
  187.3270  178.6260  141.6050 C   0  0  1  0  0  3  0  0  0  0  0  0
  181.2380  179.1510  140.3300 C   0  0  1  0  0  0  0  0  0  0  0  0
  185.3080  178.0570  138.7370 O   0  0  0  0  0  0  0  0  0  0  0  0
  187.1160  177.3870  143.8460 C   0  0  1  0  0  3  0  0  0  0  0  0
  186.1760  178.2530  140.7010 C   0  0  2  0  0  3  0  0  0  0  0  0
  181.1910  179.6590  138.8870 C   0  0  2  0  0  3  0  0  0  0  0  0
  186.6890  178.6080  143.0220 C   0  0  2  0  0  3  0  0  0  0  0  0
  186.2460  178.7400  139.3920 O   0  0  0  0  0  0  0  0  0  0  0  0
  188.6400  177.2730  143.9530 C   0  0  0  0  0  2  0  0  0  0  0  0
  181.1550  177.7250  139.8060 C   0  0  0  0  0  2  0  0  0  0  0  0
  185.1680  178.6000  142.8040 C   0  0  2  0  0  3  0  0  0  0  0  0
  189.3890  177.7070  142.6870 C   0  0  0  0  0  2  0  0  0  0  0  0
  181.4940  178.2360  138.4110 C   0  0  2  0  0  3  0  0  0  0  0  0
  184.0380  178.6110  139.0620 C   0  0  1  0  0  3  0  0  0  0  0  0
  188.5020  177.6480  141.4500 C   0  0  2  0  0  3  0  0  0  0  0  0
  185.0070  178.9220  141.3340 C   0  0  2  0  0  3  0  0  0  0  0  0
  186.5680  177.4540  145.1280 O   0  0  0  0  0  1  0  0  0  0  0  0
  182.9890  177.9340  138.1490 C   0  0  0  0  0  2  0  0  0  0  0  0
  182.1700  180.7690  138.5010 C   0  0  0  0  0  1  0  0  0  0  0  0
  183.7490  178.4780  140.5970 C   0  0  1  0  0  3  0  0  0  0  0  0
  179.6490  178.3030  141.7300 C   0  0  0  0  0  1  0  0  0  0  0  0
  180.0960  179.4710  141.0920 O   0  0  0  0  0  0  0  0  0  0  0  0
  189.3320  178.0050  140.2300 C   0  0  0  0  0  2  0  0  0  0  0  0
  189.6250  176.7550  139.4180 C   0  0  0  0  0  2  0  0  0  0  0  0
  189.1680  178.1150  137.4640 C   0  0  0  0  0  3  0  0  0  0  0  0
  188.5620  175.7090  137.3610 C   0  0  0  0  0  3  0  0  0  0  0  0
  187.5710  175.6820  136.4620 C   0  0  0  0  0  3  0  0  0  0  0  0
  185.4850  176.6510  135.5960 O   0  0  0  0  0  1  0  0  0  0  0  0
  187.3370  178.0610  135.8030 C   0  0  0  0  0  3  0  0  0  0  0  0
  186.8120  176.8450  135.9560 C   0  0  0  0  0  0  0  0  0  0  0  0
  189.1030  176.9100  138.0340 C   0  0  0  0  0  0  0  0  0  0  0  0
  188.7750  178.3780  136.0480 C   0  0  0  0  0  2  0  0  0  0  0  0
  184.4480  179.6010  143.7150 C   0  0  0  0  0  2  0  0  0  0  0  0
  183.9020  178.7960  146.0200 O   0  0  0  0  0  1  0  0  0  0  0  0
  183.5150  178.9590  144.6960 C   0  0  0  0  0  0  0  0  0  0  0  0
  182.3170  178.5510  144.3050 C   0  0  0  0  0  2  0  0  0  0  0  0
  2  8  1  0  0  0  0
  3  1  1  0  0  0  0
  3 23  1  0  0  0  0
  4 15  1  0  0  0  0
  4  9  1  0  0  0  0
  5 10  1  0  0  0  0
  5 18  1  0  0  0  0
  6 17  1  0  0  0  0
  6  2  1  0  0  0  0
  7  3  1  0  0  0  0
  8  5  1  0  0  0  0
  9  6  1  0  0  0  0
 11  3  1  0  0  0  0
 12  8  1  0  0  0  0
 12 34  1  0  0  0  0
 13 10  1  0  0  0  0
 14  7  1  0  0  0  0
 14 11  1  0  0  0  0
 15 21  1  0  0  0  0
 16  2  1  0  0  0  0
 16 13  1  0  0  0  0
 17 12  1  0  0  0  0
 19 14  1  0  0  0  0
 19 15  1  0  0  0  0
 20  7  1  0  0  0  0
 21  1  1  0  0  0  0
 21 17  1  0  0  0  0
 23 22  1  0  0  0  0
 24 16  1  0  0  0  0
 25 24  1  0  0  0  0
 26 32  2  0  0  0  0
 27 32  1  0  0  0  0
 28 27  2  0  0  0  0
 29 31  1  0  0  0  0
 30 31  2  0  0  0  0
 30 33  1  0  0  0  0
 31 28  1  0  0  0  0
 32 25  1  0  0  0  0
 33 26  1  0  0  0  0
 34 36  1  0  0  0  0
 36 35  1  0  0  0  0
 37 36  2  0  0  0  0
M  END
>  <MODEL>
6

>  <REMARK>
 VINA RESULT:      -8.1      1.961      6.955
  Name = 
  6 active torsions:
  status: ('A' for Active; 'I' for Inactive)
    1  A    between atoms: C_5  and  O_23
    2  A    between atoms: C_20  and  C_25
    3  A    between atoms: C_21  and  C_25
    4  A    between atoms: C_22  and  C_28
    5  A    between atoms: C_22  and  C_37
    6  A    between atoms: C_31  and  C_37
                            x       y       z     vdW  Elec       q    Type
                         _______ _______ _______ _____ _____    ______ ____

>  <TORSDO>
F 6

$$$$
=
 OpenBabel11052415153D

 37 42  0  0  1  0  0  0  0  0999 V2000
  182.6690  179.3200  141.0510 C   0  0  0  0  0  2  0  0  0  0  0  0
  187.4290  178.5840  141.4630 C   0  0  1  0  0  3  0  0  0  0  0  0
  181.3040  179.0780  140.3640 C   0  0  1  0  0  0  0  0  0  0  0  0
  185.3210  177.9260  138.6790 O   0  0  0  0  0  0  0  0  0  0  0  0
  187.2880  177.4180  143.7480 C   0  0  1  0  0  3  0  0  0  0  0  0
  186.2500  178.1840  140.6080 C   0  0  2  0  0  3  0  0  0  0  0  0
  181.2120  179.5390  138.9070 C   0  0  2  0  0  3  0  0  0  0  0  0
  186.8370  178.6130  142.8980 C   0  0  2  0  0  3  0  0  0  0  0  0
  186.2790  178.6280  139.2820 O   0  0  0  0  0  0  0  0  0  0  0  0
  188.8150  177.3050  143.8100 C   0  0  0  0  0  2  0  0  0  0  0  0
  181.2030  177.6360  139.8880 C   0  0  0  0  0  2  0  0  0  0  0  0
  185.3090  178.6000  142.7290 C   0  0  2  0  0  3  0  0  0  0  0  0
  189.5240  177.6970  142.5080 C   0  0  0  0  0  2  0  0  0  0  0  0
  181.4980  178.1010  138.4680 C   0  0  2  0  0  3  0  0  0  0  0  0
  184.0620  178.4920  139.0260 C   0  0  1  0  0  3  0  0  0  0  0  0
  188.5980  177.5990  141.3020 C   0  0  2  0  0  3  0  0  0  0  0  0
  185.1020  178.8750  141.2550 C   0  0  2  0  0  3  0  0  0  0  0  0
  186.7810  177.5270  145.0440 O   0  0  0  0  0  1  0  0  0  0  0  0
  182.9840  177.7890  138.1690 C   0  0  0  0  0  2  0  0  0  0  0  0
  182.1790  180.6340  138.4550 C   0  0  0  0  0  1  0  0  0  0  0  0
  183.8220  178.4100  140.5730 C   0  0  1  0  0  3  0  0  0  0  0  0
  179.7580  180.7060  140.7700 C   0  0  0  0  0  1  0  0  0  0  0  0
  180.1860  179.4240  141.1510 O   0  0  0  0  0  0  0  0  0  0  0  0
  189.3900  177.9150  140.0460 C   0  0  0  0  0  2  0  0  0  0  0  0
  190.8270  177.4520  140.2080 C   0  0  0  0  0  2  0  0  0  0  0  0
  190.3520  176.0040  138.3220 C   0  0  0  0  0  3  0  0  0  0  0  0
  192.6850  176.8090  138.5990 C   0  0  0  0  0  3  0  0  0  0  0  0
  193.4090  175.8600  137.9930 C   0  0  0  0  0  3  0  0  0  0  0  0
  193.8580  173.4750  137.6110 O   0  0  0  0  0  1  0  0  0  0  0  0
  191.6930  174.2540  137.2020 C   0  0  0  0  0  3  0  0  0  0  0  0
  192.9410  174.5160  137.5970 C   0  0  0  0  0  0  0  0  0  0  0  0
  191.2640  176.7070  138.9970 C   0  0  0  0  0  0  0  0  0  0  0  0
  190.6420  175.3000  137.0380 C   0  0  0  0  0  2  0  0  0  0  0  0
  184.6190  179.6310  143.6300 C   0  0  0  0  0  2  0  0  0  0  0  0
  184.1540  178.8800  145.9700 O   0  0  0  0  0  1  0  0  0  0  0  0
  183.7170  179.0230  144.6590 C   0  0  0  0  0  0  0  0  0  0  0  0
  182.4990  178.6250  144.3260 C   0  0  0  0  0  2  0  0  0  0  0  0
  2  8  1  0  0  0  0
  3  1  1  0  0  0  0
  3 23  1  0  0  0  0
  4 15  1  0  0  0  0
  4  9  1  0  0  0  0
  5 10  1  0  0  0  0
  5 18  1  0  0  0  0
  6 17  1  0  0  0  0
  6  2  1  0  0  0  0
  7  3  1  0  0  0  0
  8  5  1  0  0  0  0
  9  6  1  0  0  0  0
 11  3  1  0  0  0  0
 12  8  1  0  0  0  0
 12 34  1  0  0  0  0
 13 10  1  0  0  0  0
 14  7  1  0  0  0  0
 14 11  1  0  0  0  0
 15 21  1  0  0  0  0
 16  2  1  0  0  0  0
 16 13  1  0  0  0  0
 17 12  1  0  0  0  0
 19 14  1  0  0  0  0
 19 15  1  0  0  0  0
 20  7  1  0  0  0  0
 21  1  1  0  0  0  0
 21 17  1  0  0  0  0
 22 23  1  0  0  0  0
 24 25  1  0  0  0  0
 24 16  1  0  0  0  0
 26 32  2  0  0  0  0
 27 32  1  0  0  0  0
 28 27  2  0  0  0  0
 30 31  2  0  0  0  0
 31 29  1  0  0  0  0
 31 28  1  0  0  0  0
 32 25  1  0  0  0  0
 33 30  1  0  0  0  0
 33 26  1  0  0  0  0
 34 36  1  0  0  0  0
 36 35  1  0  0  0  0
 37 36  2  0  0  0  0
M  END
>  <MODEL>
7

>  <REMARK>
 VINA RESULT:      -7.9      2.763      6.724
  Name = 
  6 active torsions:
  status: ('A' for Active; 'I' for Inactive)
    1  A    between atoms: C_5  and  O_23
    2  A    between atoms: C_20  and  C_25
    3  A    between atoms: C_21  and  C_25
    4  A    between atoms: C_22  and  C_28
    5  A    between atoms: C_22  and  C_37
    6  A    between atoms: C_31  and  C_37
                            x       y       z     vdW  Elec       q    Type
                         _______ _______ _______ _____ _____    ______ ____

>  <TORSDO>
F 6

$$$$
=
 OpenBabel11052415153D

 37 42  0  0  1  0  0  0  0  0999 V2000
  182.6430  177.3250  137.3960 C   0  0  0  0  0  2  0  0  0  0  0  0
  187.4060  177.4060  138.2180 C   0  0  1  0  0  3  0  0  0  0  0  0
  181.2460  177.9900  137.3950 C   0  0  1  0  0  0  0  0  0  0  0  0
  184.9080  179.6020  139.4660 O   0  0  0  0  0  0  0  0  0  0  0  0
  188.0730  177.1560  135.7490 C   0  0  1  0  0  3  0  0  0  0  0  0
  186.1820  178.2810  138.3330 C   0  0  2  0  0  3  0  0  0  0  0  0
  180.7120  178.3970  138.7710 C   0  0  2  0  0  3  0  0  0  0  0  0
  187.1770  176.6440  136.8840 C   0  0  2  0  0  3  0  0  0  0  0  0
  185.7970  178.6240  139.6330 O   0  0  0  0  0  0  0  0  0  0  0  0
  189.5570  177.1170  136.1300 C   0  0  0  0  0  2  0  0  0  0  0  0
  181.3650  179.4620  137.0310 C   0  0  0  0  0  2  0  0  0  0  0  0
  185.6960  176.8470  136.5270 C   0  0  2  0  0  3  0  0  0  0  0  0
  189.8330  177.4470  137.6020 C   0  0  0  0  0  2  0  0  0  0  0  0
  181.2050  179.8210  138.5030 C   0  0  2  0  0  3  0  0  0  0  0  0
  183.6710  179.0230  139.0650 C   0  0  1  0  0  3  0  0  0  0  0  0
  188.6960  178.2420  138.2330 C   0  0  2  0  0  3  0  0  0  0  0  0
  185.0920  177.4280  137.7870 C   0  0  2  0  0  3  0  0  0  0  0  0
  187.8750  176.3980  134.5950 O   0  0  0  0  0  1  0  0  0  0  0  0
  182.6090  180.1470  139.0640 C   0  0  0  0  0  2  0  0  0  0  0  0
  181.2730  177.6600  139.9870 C   0  0  0  0  0  1  0  0  0  0  0  0
  183.8260  178.2710  137.6980 C   0  0  1  0  0  3  0  0  0  0  0  0
  180.6040  175.9780  136.5300 C   0  0  0  0  0  1  0  0  0  0  0  0
  180.2960  177.3470  136.5740 O   0  0  0  0  0  0  0  0  0  0  0  0
  189.0780  178.6040  139.6570 C   0  0  0  0  0  2  0  0  0  0  0  0
  190.0100  177.5500  140.2280 C   0  0  0  0  0  2  0  0  0  0  0  0
  188.2940  177.4450  141.9370 C   0  0  0  0  0  3  0  0  0  0  0  0
  190.4650  176.3390  142.4140 C   0  0  0  0  0  3  0  0  0  0  0  0
  190.5290  176.3560  143.7510 C   0  0  0  0  0  3  0  0  0  0  0  0
  190.2440  177.5880  145.8580 O   0  0  0  0  0  1  0  0  0  0  0  0
  188.4150  177.4750  144.4060 C   0  0  0  0  0  3  0  0  0  0  0  0
  189.6870  177.1600  144.6600 C   0  0  0  0  0  0  0  0  0  0  0  0
  189.5360  177.1210  141.5700 C   0  0  0  0  0  0  0  0  0  0  0  0
  187.6660  176.9870  143.2120 C   0  0  0  0  0  2  0  0  0  0  0  0
  185.0220  175.5400  136.0900 C   0  0  0  0  0  2  0  0  0  0  0  0
  184.0230  174.2340  137.9750 O   0  0  0  0  0  1  0  0  0  0  0  0
  185.0940  174.4540  137.1190 C   0  0  0  0  0  0  0  0  0  0  0  0
  186.1760  173.6960  137.2120 C   0  0  0  0  0  2  0  0  0  0  0  0
  1 21  1  0  0  0  0
  2 16  1  0  0  0  0
  2  6  1  0  0  0  0
  3  1  1  0  0  0  0
  3  7  1  0  0  0  0
  4  9  1  0  0  0  0
  5 10  1  0  0  0  0
  5  8  1  0  0  0  0
  6  9  1  0  0  0  0
  7 20  1  0  0  0  0
  8  2  1  0  0  0  0
 10 13  1  0  0  0  0
 11  3  1  0  0  0  0
 11 14  1  0  0  0  0
 12  8  1  0  0  0  0
 12 17  1  0  0  0  0
 13 16  1  0  0  0  0
 14  7  1  0  0  0  0
 14 19  1  0  0  0  0
 15  4  1  0  0  0  0
 16 24  1  0  0  0  0
 17  6  1  0  0  0  0
 18  5  1  0  0  0  0
 19 15  1  0  0  0  0
 21 17  1  0  0  0  0
 21 15  1  0  0  0  0
 22 23  1  0  0  0  0
 23  3  1  0  0  0  0
 24 25  1  0  0  0  0
 25 32  1  0  0  0  0
 26 33  1  0  0  0  0
 27 28  2  0  0  0  0
 28 31  1  0  0  0  0
 30 31  2  0  0  0  0
 31 29  1  0  0  0  0
 32 26  2  0  0  0  0
 32 27  1  0  0  0  0
 33 30  1  0  0  0  0
 34 12  1  0  0  0  0
 34 36  1  0  0  0  0
 36 37  2  0  0  0  0
 36 35  1  0  0  0  0
M  END
>  <MODEL>
8

>  <REMARK>
 VINA RESULT:      -7.6      2.302      5.899
  Name = 
  6 active torsions:
  status: ('A' for Active; 'I' for Inactive)
    1  A    between atoms: C_5  and  O_23
    2  A    between atoms: C_20  and  C_25
    3  A    between atoms: C_21  and  C_25
    4  A    between atoms: C_22  and  C_28
    5  A    between atoms: C_22  and  C_37
    6  A    between atoms: C_31  and  C_37
                            x       y       z     vdW  Elec       q    Type
                         _______ _______ _______ _____ _____    ______ ____

>  <TORSDO>
F 6

$$$$
=
 OpenBabel11052415153D

 37 42  0  0  1  0  0  0  0  0999 V2000
  190.3000  177.6180  141.2640 C   0  0  0  0  0  2  0  0  0  0  0  0
  186.1450  178.6010  138.9960 C   0  0  1  0  0  3  0  0  0  0  0  0
  191.1030  177.1370  142.4970 C   0  0  1  0  0  0  0  0  0  0  0  0
  186.7240  178.1980  142.4780 O   0  0  0  0  0  0  0  0  0  0  0  0
  186.4100  176.7640  137.2190 C   0  0  1  0  0  3  0  0  0  0  0  0
  186.6680  178.1090  140.3250 C   0  0  2  0  0  3  0  0  0  0  0  0
  190.9510  177.9970  143.7540 C   0  0  2  0  0  3  0  0  0  0  0  0
  187.0880  177.9190  137.9660 C   0  0  2  0  0  3  0  0  0  0  0  0
  186.4490  178.9540  141.4170 O   0  0  0  0  0  0  0  0  0  0  0  0
  185.1140  177.2090  136.5320 C   0  0  0  0  0  2  0  0  0  0  0  0
  190.3580  176.0150  143.2030 C   0  0  0  0  0  2  0  0  0  0  0  0
  188.2920  177.4010  138.7690 C   0  0  2  0  0  3  0  0  0  0  0  0
  184.3150  178.2520  137.3240 C   0  0  0  0  0  2  0  0  0  0  0  0
  189.8990  177.0080  144.2630 C   0  0  2  0  0  3  0  0  0  0  0  0
  188.1370  178.1050  142.6110 C   0  0  1  0  0  3  0  0  0  0  0  0
  184.6640  178.2350  138.8060 C   0  0  2  0  0  3  0  0  0  0  0  0
  188.1410  178.0630  140.1220 C   0  0  2  0  0  3  0  0  0  0  0  0
  187.2760  176.2310  136.2640 O   0  0  0  0  0  1  0  0  0  0  0  0
  188.4330  177.3880  143.9490 C   0  0  0  0  0  2  0  0  0  0  0  0
  190.5320  179.4550  143.5610 C   0  0  0  0  0  1  0  0  0  0  0  0
  188.7710  177.4190  141.3510 C   0  0  1  0  0  3  0  0  0  0  0  0
  192.7950  177.3100  140.9770 C   0  0  0  0  0  1  0  0  0  0  0  0
  192.4310  176.7570  142.2140 O   0  0  0  0  0  0  0  0  0  0  0  0
  183.7750  179.2280  139.5340 C   0  0  0  0  0  2  0  0  0  0  0  0
  182.4720  178.5600  139.9340 C   0  0  0  0  0  2  0  0  0  0  0  0
  183.0100  178.6290  142.2970 C   0  0  0  0  0  3  0  0  0  0  0  0
  180.8280  179.5740  141.5840 C   0  0  0  0  0  3  0  0  0  0  0  0
  180.0690  179.4510  142.6810 C   0  0  0  0  0  3  0  0  0  0  0  0
  179.3050  178.0800  144.5710 O   0  0  0  0  0  1  0  0  0  0  0  0
  181.6060  178.4040  144.3200 C   0  0  0  0  0  3  0  0  0  0  0  0
  180.3710  178.6280  143.8690 C   0  0  0  0  0  0  0  0  0  0  0  0
  182.1260  178.9110  141.3370 C   0  0  0  0  0  0  0  0  0  0  0  0
  182.8280  179.0220  143.7250 C   0  0  0  0  0  2  0  0  0  0  0  0
  189.6260  177.7320  138.0890 C   0  0  0  0  0  2  0  0  0  0  0  0
  190.6790  175.5470  138.7000 O   0  0  0  0  0  1  0  0  0  0  0  0
  190.4400  176.5240  137.7420 C   0  0  0  0  0  0  0  0  0  0  0  0
  190.9300  176.3800  136.5210 C   0  0  0  0  0  2  0  0  0  0  0  0
  1 21  1  0  0  0  0
  1  3  1  0  0  0  0
  2  6  1  0  0  0  0
  3 11  1  0  0  0  0
  3  7  1  0  0  0  0
  4 15  1  0  0  0  0
  5  8  1  0  0  0  0
  6  9  1  0  0  0  0
  7 14  1  0  0  0  0
  8 12  1  0  0  0  0
  8  2  1  0  0  0  0
  9  4  1  0  0  0  0
 10  5  1  0  0  0  0
 10 13  1  0  0  0  0
 11 14  1  0  0  0  0
 12 17  1  0  0  0  0
 13 16  1  0  0  0  0
 15 19  1  0  0  0  0
 16  2  1  0  0  0  0
 16 24  1  0  0  0  0
 17  6  1  0  0  0  0
 17 21  1  0  0  0  0
 18  5  1  0  0  0  0
 19 14  1  0  0  0  0
 20  7  1  0  0  0  0
 21 15  1  0  0  0  0
 22 23  1  0  0  0  0
 23  3  1  0  0  0  0
 24 25  1  0  0  0  0
 25 32  1  0  0  0  0
 26 33  1  0  0  0  0
 27 28  2  0  0  0  0
 28 31  1  0  0  0  0
 31 30  2  0  0  0  0
 31 29  1  0  0  0  0
 32 27  1  0  0  0  0
 32 26  2  0  0  0  0
 33 30  1  0  0  0  0
 34 12  1  0  0  0  0
 36 34  1  0  0  0  0
 36 35  1  0  0  0  0
 37 36  2  0  0  0  0
M  END
>  <MODEL>
9

>  <REMARK>
 VINA RESULT:      -7.4      2.144      6.925
  Name = 
  6 active torsions:
  status: ('A' for Active; 'I' for Inactive)
    1  A    between atoms: C_5  and  O_23
    2  A    between atoms: C_20  and  C_25
    3  A    between atoms: C_21  and  C_25
    4  A    between atoms: C_22  and  C_28
    5  A    between atoms: C_22  and  C_37
    6  A    between atoms: C_31  and  C_37
                            x       y       z     vdW  Elec       q    Type
                         _______ _______ _______ _____ _____    ______ ____

>  <TORSDO>
F 6

$$$$
