=
 OpenBabel11052413393D

 27 31  0  0  1  0  0  0  0  0999 V2000
  190.9600  177.8220  145.0670 C   0  0  0  0  0  3  0  0  0  0  0  0
  188.8220  177.7720  146.3410 C   0  0  0  0  0  0  0  0  0  0  0  0
  188.1620  177.2020  143.9490 C   0  0  0  0  0  3  0  0  0  0  0  0
  184.9170  178.9670  146.8860 N   0  0  0  0  0  0  0  0  0  0  0  0
  183.1650  178.9600  145.1870 N   0  0  0  0  0  1  0  0  0  0  0  0
  188.4320  178.2250  147.6260 C   0  0  0  0  0  3  0  0  0  0  0  0
  185.4700  178.2390  144.8070 N   0  0  0  0  0  0  0  0  0  0  0  0
  190.3880  177.1100  141.0370 C   0  0  0  0  0  0  0  0  0  0  0  0
  185.3280  177.8980  143.3990 C   0  0  0  0  0  1  0  0  0  0  0  0
  190.1950  177.1990  139.8370 O   0  0  0  0  0  0  0  0  0  0  0  0
  186.5620  178.1690  145.5930 C   0  0  0  0  0  0  0  0  0  0  0  0
  190.1690  177.3090  146.1470 N   0  0  0  0  0  0  0  0  0  0  0  0
  184.5020  178.7230  145.6190 C   0  0  0  0  0  0  0  0  0  0  0  0
  186.2150  178.6110  146.8420 C   0  0  0  0  0  0  0  0  0  0  0  0
  190.5760  177.8290  143.7930 C   0  0  0  0  0  0  0  0  0  0  0  0
  187.8700  177.7470  145.2860 C   0  0  0  0  0  0  0  0  0  0  0  0
  189.3150  176.5630  141.9320 C   0  0  0  0  0  2  0  0  0  0  0  0
  187.1230  178.6540  147.8880 C   0  0  0  0  0  3  0  0  0  0  0  0
  191.7210  177.4720  141.6100 C   0  0  0  0  0  2  0  0  0  0  0  0
  191.5290  178.4120  142.7950 C   0  0  0  0  0  2  0  0  0  0  0  0
  189.3230  177.2040  143.2920 C   0  0  0  0  0  0  0  0  0  0  0  0
  193.2240  175.9840  148.6470 O   0  0  0  0  0  0  0  0  0  0  0  0
  190.8590  176.6560  147.2600 C   0  0  2  0  0  3  0  0  0  0  0  0
  191.5560  177.6770  148.1640 C   0  0  0  0  0  2  0  0  0  0  0  0
  192.3260  176.9230  149.2440 C   0  0  0  0  0  2  0  0  0  0  0  0
  192.9130  175.3030  147.4600 C   0  0  0  0  0  3  0  0  0  0  0  0
  191.8160  175.6050  146.7640 C   0  0  0  0  0  3  0  0  0  0  0  0
  1 12  1  0  0  0  0
  2  6  1  0  0  0  0
  3 16  1  0  0  0  0
  5 13  1  0  0  0  0
  6 18  2  0  0  0  0
  7 11  1  0  0  0  0
  7 13  1  0  0  0  0
  8 19  1  0  0  0  0
  8 17  1  0  0  0  0
  9  7  1  0  0  0  0
 10  8  2  0  0  0  0
 11 14  2  0  0  0  0
 12  2  1  0  0  0  0
 13  4  2  0  0  0  0
 14  4  1  0  0  0  0
 14 18  1  0  0  0  0
 15  1  2  0  0  0  0
 16 11  1  0  0  0  0
 16  2  2  0  0  0  0
 17 21  1  0  0  0  0
 19 20  1  0  0  0  0
 20 15  1  0  0  0  0
 21 15  1  0  0  0  0
 21  3  2  0  0  0  0
 22 25  1  0  0  0  0
 23 12  1  6  0  0  0
 23 24  1  0  0  0  0
 24 25  1  0  0  0  0
 26 22  1  0  0  0  0
 27 23  1  0  0  0  0
 27 26  2  0  0  0  0
M  END
>  <MODEL>
1

>  <REMARK>
 VINA RESULT:      -8.6      0.000      0.000
  Name = 
  1 active torsions:
  status: ('A' for Active; 'I' for Inactive)
    1  A    between atoms: C_9  and  N_15
                            x       y       z     vdW  Elec       q    Type
                         _______ _______ _______ _____ _____    ______ ____

>  <TORSDO>
F 1

$$$$
=
 OpenBabel11052413393D

 27 31  0  0  1  0  0  0  0  0999 V2000
  185.0920  179.0750  144.5760 C   0  0  0  0  0  3  0  0  0  0  0  0
  186.0070  178.3330  142.3830 C   0  0  0  0  0  0  0  0  0  0  0  0
  187.5860  177.3360  144.1120 C   0  0  0  0  0  3  0  0  0  0  0  0
  189.1130  177.9990  139.6950 N   0  0  0  0  0  0  0  0  0  0  0  0
  191.3530  177.1680  140.1900 N   0  0  0  0  0  1  0  0  0  0  0  0
  185.7770  178.7220  141.0390 C   0  0  0  0  0  3  0  0  0  0  0  0
  189.5450  177.3460  141.8270 N   0  0  0  0  0  0  0  0  0  0  0  0
  187.4350  177.8270  147.7420 C   0  0  0  0  0  0  0  0  0  0  0  0
  190.2870  176.8470  142.9770 C   0  0  0  0  0  1  0  0  0  0  0  0
  188.2610  177.7250  148.6330 O   0  0  0  0  0  0  0  0  0  0  0  0
  188.2690  177.7700  141.7580 C   0  0  0  0  0  0  0  0  0  0  0  0
  184.9210  178.4020  143.3210 N   0  0  0  0  0  0  0  0  0  0  0  0
  190.0190  177.4980  140.5690 C   0  0  0  0  0  0  0  0  0  0  0  0
  188.0210  178.1610  140.4690 C   0  0  0  0  0  0  0  0  0  0  0  0
  186.0720  178.8160  145.4380 C   0  0  0  0  0  0  0  0  0  0  0  0
  187.2870  177.8510  142.7640 C   0  0  0  0  0  0  0  0  0  0  0  0
  187.5650  176.9990  146.4980 C   0  0  0  0  0  2  0  0  0  0  0  0
  186.7850  178.6430  140.0680 C   0  0  0  0  0  3  0  0  0  0  0  0
  186.2490  178.7210  147.9200 C   0  0  0  0  0  2  0  0  0  0  0  0
  186.1020  179.6220  146.7000 C   0  0  0  0  0  2  0  0  0  0  0  0
  187.0610  177.7180  145.2770 C   0  0  0  0  0  0  0  0  0  0  0  0
  181.0160  179.1160  142.0630 O   0  0  0  0  0  0  0  0  0  0  0  0
  183.5580  178.1680  142.8430 C   0  0  2  0  0  3  0  0  0  0  0  0
  183.3390  178.7740  141.4540 C   0  0  0  0  0  2  0  0  0  0  0  0
  181.8780  178.5710  141.0610 C   0  0  0  0  0  2  0  0  0  0  0  0
  181.3430  179.0860  143.4270 C   0  0  0  0  0  3  0  0  0  0  0  0
  182.5410  178.6650  143.8360 C   0  0  0  0  0  3  0  0  0  0  0  0
  1 15  2  0  0  0  0
  2 16  1  0  0  0  0
  2 12  1  0  0  0  0
  3 21  2  0  0  0  0
  4 14  1  0  0  0  0
  4 13  2  0  0  0  0
  5 13  1  0  0  0  0
  6  2  2  0  0  0  0
  7  9  1  0  0  0  0
  8 19  1  0  0  0  0
  8 10  2  0  0  0  0
 11  7  1  0  0  0  0
 11 16  2  0  0  0  0
 12  1  1  0  0  0  0
 13  7  1  0  0  0  0
 14 11  1  0  0  0  0
 15 20  1  0  0  0  0
 16  3  1  0  0  0  0
 17  8  1  0  0  0  0
 18 14  2  0  0  0  0
 18  6  1  0  0  0  0
 20 19  1  0  0  0  0
 21 15  1  0  0  0  0
 21 17  1  0  0  0  0
 22 26  1  0  0  0  0
 23 24  1  6  0  0  0
 23 12  1  0  0  0  0
 23 27  1  0  0  0  0
 25 24  1  0  0  0  0
 25 22  1  0  0  0  0
 26 27  2  0  0  0  0
M  END
>  <MODEL>
2

>  <REMARK>
 VINA RESULT:      -7.9      3.407      7.939
  Name = 
  1 active torsions:
  status: ('A' for Active; 'I' for Inactive)
    1  A    between atoms: C_9  and  N_15
                            x       y       z     vdW  Elec       q    Type
                         _______ _______ _______ _____ _____    ______ ____

>  <TORSDO>
F 1

$$$$
=
 OpenBabel11052413393D

 27 31  0  0  1  0  0  0  0  0999 V2000
  184.8550  179.1690  141.8140 C   0  0  0  0  0  3  0  0  0  0  0  0
  186.6030  178.2790  140.2820 C   0  0  0  0  0  0  0  0  0  0  0  0
  187.3320  177.5240  142.6010 C   0  0  0  0  0  3  0  0  0  0  0  0
  190.5460  177.8600  139.1610 N   0  0  0  0  0  0  0  0  0  0  0  0
  192.3860  177.1920  140.6170 N   0  0  0  0  0  1  0  0  0  0  0  0
  186.9480  178.5320  138.9300 C   0  0  0  0  0  3  0  0  0  0  0  0
  190.0620  177.4260  141.3370 N   0  0  0  0  0  0  0  0  0  0  0  0
  185.6850  178.3330  145.7750 C   0  0  0  0  0  0  0  0  0  0  0  0
  190.2640  177.0710  142.7350 C   0  0  0  0  0  1  0  0  0  0  0  0
  186.0680  178.3540  146.9310 O   0  0  0  0  0  0  0  0  0  0  0  0
  188.9250  177.7770  140.7050 C   0  0  0  0  0  0  0  0  0  0  0  0
  185.2250  178.3780  140.6770 N   0  0  0  0  0  0  0  0  0  0  0  0
  191.0130  177.4870  140.3770 C   0  0  0  0  0  0  0  0  0  0  0  0
  189.2310  178.0360  139.3950 C   0  0  0  0  0  0  0  0  0  0  0  0
  185.3920  179.0400  143.0250 C   0  0  0  0  0  0  0  0  0  0  0  0
  187.6140  177.8990  141.2040 C   0  0  0  0  0  0  0  0  0  0  0  0
  186.3260  177.4030  144.7870 C   0  0  0  0  0  2  0  0  0  0  0  0
  188.2680  178.4170  138.4740 C   0  0  0  0  0  3  0  0  0  0  0  0
  184.5240  179.1780  145.3550 C   0  0  0  0  0  2  0  0  0  0  0  0
  184.8880  179.9570  144.0970 C   0  0  0  0  0  2  0  0  0  0  0  0
  186.3680  177.9830  143.4000 C   0  0  0  0  0  0  0  0  0  0  0  0
  181.4940  178.0590  138.8570 O   0  0  0  0  0  0  0  0  0  0  0  0
  184.1850  178.0330  139.7070 C   0  0  2  0  0  3  0  0  0  0  0  0
  183.5760  179.2840  139.0680 C   0  0  0  0  0  2  0  0  0  0  0  0
  182.4430  178.8530  138.1410 C   0  0  0  0  0  2  0  0  0  0  0  0
  181.8740  177.1830  139.8850 C   0  0  0  0  0  3  0  0  0  0  0  0
  183.1320  177.1550  140.3300 C   0  0  0  0  0  3  0  0  0  0  0  0
  1 15  2  0  0  0  0
  2 12  1  0  0  0  0
  2 16  1  0  0  0  0
  3 21  2  0  0  0  0
  4 14  1  0  0  0  0
  4 13  2  0  0  0  0
  6  2  2  0  0  0  0
  7  9  1  0  0  0  0
  8 10  2  0  0  0  0
 11 16  2  0  0  0  0
 11  7  1  0  0  0  0
 12  1  1  0  0  0  0
 13  5  1  0  0  0  0
 13  7  1  0  0  0  0
 14 11  1  0  0  0  0
 15 21  1  0  0  0  0
 15 20  1  0  0  0  0
 16  3  1  0  0  0  0
 17  8  1  0  0  0  0
 18  6  1  0  0  0  0
 18 14  2  0  0  0  0
 19  8  1  0  0  0  0
 20 19  1  0  0  0  0
 21 17  1  0  0  0  0
 22 26  1  0  0  0  0
 23 24  1  1  0  0  0
 23 27  1  0  0  0  0
 23 12  1  0  0  0  0
 25 22  1  0  0  0  0
 25 24  1  0  0  0  0
 26 27  2  0  0  0  0
M  END
>  <MODEL>
3

>  <REMARK>
 VINA RESULT:      -7.7      4.086      8.747
  Name = 
  1 active torsions:
  status: ('A' for Active; 'I' for Inactive)
    1  A    between atoms: C_9  and  N_15
                            x       y       z     vdW  Elec       q    Type
                         _______ _______ _______ _____ _____    ______ ____

>  <TORSDO>
F 1

$$$$
=
 OpenBabel11052413393D

 27 31  0  0  1  0  0  0  0  0999 V2000
  190.8080  175.9250  143.0310 C   0  0  0  0  0  3  0  0  0  0  0  0
  188.7900  177.3620  142.7920 C   0  0  0  0  0  0  0  0  0  0  0  0
  189.4260  177.5460  145.2500 C   0  0  0  0  0  3  0  0  0  0  0  0
  184.9870  178.4620  143.9360 N   0  0  0  0  0  0  0  0  0  0  0  0
  184.2490  178.9050  146.2190 N   0  0  0  0  0  1  0  0  0  0  0  0
  187.8030  177.5120  141.7860 C   0  0  0  0  0  3  0  0  0  0  0  0
  186.5220  178.2530  145.5970 N   0  0  0  0  0  0  0  0  0  0  0  0
  192.1490  175.7610  146.9360 C   0  0  0  0  0  0  0  0  0  0  0  0
  187.0860  178.2430  146.9390 C   0  0  0  0  0  1  0  0  0  0  0  0
  192.3630  175.4740  148.1010 O   0  0  0  0  0  0  0  0  0  0  0  0
  187.1170  177.9680  144.4230 C   0  0  0  0  0  0  0  0  0  0  0  0
  190.1310  177.0220  142.4040 N   0  0  0  0  0  0  0  0  0  0  0  0
  185.2440  178.5450  145.2640 C   0  0  0  0  0  0  0  0  0  0  0  0
  186.1820  178.0970  143.4300 C   0  0  0  0  0  0  0  0  0  0  0  0
  190.9480  175.7820  144.3470 C   0  0  0  0  0  0  0  0  0  0  0  0
  188.4450  177.5850  144.1520 C   0  0  0  0  0  0  0  0  0  0  0  0
  191.3420  176.9800  146.5970 C   0  0  0  0  0  2  0  0  0  0  0  0
  186.4860  177.8780  142.0960 C   0  0  0  0  0  3  0  0  0  0  0  0
  192.7560  174.9440  145.8400 C   0  0  0  0  0  2  0  0  0  0  0  0
  191.6810  174.5670  144.8280 C   0  0  0  0  0  2  0  0  0  0  0  0
  190.5250  176.7960  145.3490 C   0  0  0  0  0  0  0  0  0  0  0  0
  192.1160  177.1190  138.7460 O   0  0  0  0  0  0  0  0  0  0  0  0
  190.6390  177.5040  141.1190 C   0  0  2  0  0  3  0  0  0  0  0  0
  190.0520  176.7090  139.9500 C   0  0  0  0  0  2  0  0  0  0  0  0
  190.6920  177.2040  138.6560 C   0  0  0  0  0  2  0  0  0  0  0  0
  192.8050  177.3370  139.9480 C   0  0  0  0  0  3  0  0  0  0  0  0
  192.1450  177.5030  141.0950 C   0  0  0  0  0  3  0  0  0  0  0  0
  1 15  2  0  0  0  0
  2 16  1  0  0  0  0
  3 21  2  0  0  0  0
  4 13  2  0  0  0  0
  6 18  1  0  0  0  0
  6  2  2  0  0  0  0
  7  9  1  0  0  0  0
  8 10  2  0  0  0  0
 11  7  1  0  0  0  0
 12  2  1  0  0  0  0
 12  1  1  0  0  0  0
 13  7  1  0  0  0  0
 13  5  1  0  0  0  0
 14  4  1  0  0  0  0
 14 11  1  0  0  0  0
 15 20  1  0  0  0  0
 15 21  1  0  0  0  0
 16 11  2  0  0  0  0
 16  3  1  0  0  0  0
 17  8  1  0  0  0  0
 18 14  2  0  0  0  0
 19  8  1  0  0  0  0
 20 19  1  0  0  0  0
 21 17  1  0  0  0  0
 22 26  1  0  0  0  0
 23 24  1  6  0  0  0
 23 12  1  0  0  0  0
 25 22  1  0  0  0  0
 25 24  1  0  0  0  0
 26 27  2  0  0  0  0
 27 23  1  0  0  0  0
M  END
>  <MODEL>
4

>  <REMARK>
 VINA RESULT:      -7.6      1.563      5.339
  Name = 
  1 active torsions:
  status: ('A' for Active; 'I' for Inactive)
    1  A    between atoms: C_9  and  N_15
                            x       y       z     vdW  Elec       q    Type
                         _______ _______ _______ _____ _____    ______ ____

>  <TORSDO>
F 1

$$$$
=
 OpenBabel11052413393D

 27 31  0  0  1  0  0  0  0  0999 V2000
  187.6670  178.4980  140.9970 C   0  0  0  0  0  3  0  0  0  0  0  0
  189.5950  177.4820  142.1990 C   0  0  0  0  0  0  0  0  0  0  0  0
  187.6430  177.2750  143.8190 C   0  0  0  0  0  3  0  0  0  0  0  0
  192.0550  177.2060  145.4930 N   0  0  0  0  0  0  0  0  0  0  0  0
  191.3270  177.0120  147.8130 N   0  0  0  0  0  1  0  0  0  0  0  0
  190.9970  177.4900  141.9920 C   0  0  0  0  0  3  0  0  0  0  0  0
  189.8200  177.1730  145.8950 N   0  0  0  0  0  0  0  0  0  0  0  0
  184.2430  178.5500  143.3110 C   0  0  0  0  0  0  0  0  0  0  0  0
  188.5690  177.1250  146.6370 C   0  0  0  0  0  1  0  0  0  0  0  0
  183.3370  178.8360  144.0740 O   0  0  0  0  0  0  0  0  0  0  0  0
  190.0170  177.2870  144.5670 C   0  0  0  0  0  0  0  0  0  0  0  0
  188.7240  177.5330  141.0570 N   0  0  0  0  0  0  0  0  0  0  0  0
  191.0670  177.1280  146.4170 C   0  0  0  0  0  0  0  0  0  0  0  0
  191.3680  177.3050  144.3390 C   0  0  0  0  0  0  0  0  0  0  0  0
  186.7470  178.6630  141.9450 C   0  0  0  0  0  0  0  0  0  0  0  0
  189.0810  177.3870  143.5200 C   0  0  0  0  0  0  0  0  0  0  0  0
  185.2470  177.5030  143.6950 C   0  0  0  0  0  2  0  0  0  0  0  0
  191.8990  177.4060  143.0630 C   0  0  0  0  0  3  0  0  0  0  0  0
  184.3120  179.1850  141.9590 C   0  0  0  0  0  2  0  0  0  0  0  0
  185.7170  179.7270  141.7200 C   0  0  0  0  0  2  0  0  0  0  0  0
  186.6160  177.7950  143.1450 C   0  0  0  0  0  0  0  0  0  0  0  0
  189.8970  177.0730  137.0880 O   0  0  0  0  0  0  0  0  0  0  0  0
  189.1610  176.9070  139.8070 C   0  0  2  0  0  3  0  0  0  0  0  0
  190.5590  177.3820  139.4010 C   0  0  0  0  0  2  0  0  0  0  0  0
  190.9070  176.7630  138.0500 C   0  0  0  0  0  2  0  0  0  0  0  0
  188.5420  177.1800  137.4340 C   0  0  0  0  0  3  0  0  0  0  0  0
  188.1540  177.1280  138.7100 C   0  0  0  0  0  3  0  0  0  0  0  0
  1 12  1  0  0  0  0
  1 15  2  0  0  0  0
  2 16  1  0  0  0  0
  4 13  2  0  0  0  0
  6  2  2  0  0  0  0
  6 18  1  0  0  0  0
  7 13  1  0  0  0  0
  7  9  1  0  0  0  0
  8 17  1  0  0  0  0
  8 10  2  0  0  0  0
 11  7  1  0  0  0  0
 12  2  1  0  0  0  0
 13  5  1  0  0  0  0
 14 11  1  0  0  0  0
 14  4  1  0  0  0  0
 15 21  1  0  0  0  0
 16  3  1  0  0  0  0
 16 11  2  0  0  0  0
 18 14  2  0  0  0  0
 19  8  1  0  0  0  0
 20 15  1  0  0  0  0
 20 19  1  0  0  0  0
 21 17  1  0  0  0  0
 21  3  2  0  0  0  0
 22 26  1  0  0  0  0
 22 25  1  0  0  0  0
 23 27  1  6  0  0  0
 23 12  1  0  0  0  0
 24 23  1  0  0  0  0
 25 24  1  0  0  0  0
 26 27  2  0  0  0  0
M  END
>  <MODEL>
5

>  <REMARK>
 VINA RESULT:      -7.5      3.299      6.948
  Name = 
  1 active torsions:
  status: ('A' for Active; 'I' for Inactive)
    1  A    between atoms: C_9  and  N_15
                            x       y       z     vdW  Elec       q    Type
                         _______ _______ _______ _____ _____    ______ ____

>  <TORSDO>
F 1

$$$$
=
 OpenBabel11052413393D

 27 31  0  0  1  0  0  0  0  0999 V2000
  184.3150  179.1400  144.3270 C   0  0  0  0  0  3  0  0  0  0  0  0
  184.9210  178.5470  141.9870 C   0  0  0  0  0  0  0  0  0  0  0  0
  186.7960  177.5740  143.4060 C   0  0  0  0  0  3  0  0  0  0  0  0
  187.5910  178.5100  138.8490 N   0  0  0  0  0  0  0  0  0  0  0  0
  189.9210  177.7940  138.9580 N   0  0  0  0  0  1  0  0  0  0  0  0
  184.4680  178.9760  140.7150 C   0  0  0  0  0  3  0  0  0  0  0  0
  188.3790  177.7960  140.8550 N   0  0  0  0  0  0  0  0  0  0  0  0
  187.1780  177.9020  147.0380 C   0  0  0  0  0  0  0  0  0  0  0  0
  189.3130  177.2940  141.8540 C   0  0  0  0  0  1  0  0  0  0  0  0
  188.1340  177.8120  147.7870 O   0  0  0  0  0  0  0  0  0  0  0  0
  187.0870  178.1460  141.0010 C   0  0  0  0  0  0  0  0  0  0  0  0
  183.9890  178.5110  143.0810 N   0  0  0  0  0  0  0  0  0  0  0  0
  188.6460  178.0280  139.5500 C   0  0  0  0  0  0  0  0  0  0  0  0
  186.6240  178.5740  139.7850 C   0  0  0  0  0  0  0  0  0  0  0  0
  185.4280  178.9040  145.0180 C   0  0  0  0  0  0  0  0  0  0  0  0
  186.2680  178.1260  142.1460 C   0  0  0  0  0  0  0  0  0  0  0  0
  187.1580  177.1360  145.7480 C   0  0  0  0  0  2  0  0  0  0  0  0
  185.3180  178.9990  139.6000 C   0  0  0  0  0  3  0  0  0  0  0  0
  185.9870  178.7160  147.4370 C   0  0  0  0  0  2  0  0  0  0  0  0
  185.6080  179.6570  146.3000 C   0  0  0  0  0  2  0  0  0  0  0  0
  186.4370  177.8740  144.6540 C   0  0  0  0  0  0  0  0  0  0  0  0
  179.8960  179.0340  142.5200 O   0  0  0  0  0  0  0  0  0  0  0  0
  182.5830  178.2160  142.8020 C   0  0  2  0  0  3  0  0  0  0  0  0
  182.1050  178.9160  141.5260 C   0  0  0  0  0  2  0  0  0  0  0  0
  180.6150  178.6380  141.3490 C   0  0  0  0  0  2  0  0  0  0  0  0
  180.4410  178.9170  143.8070 C   0  0  0  0  0  3  0  0  0  0  0  0
  181.7130  178.5540  143.9830 C   0  0  0  0  0  3  0  0  0  0  0  0
  1 15  2  0  0  0  0
  2 16  1  0  0  0  0
  2 12  1  0  0  0  0
  3 21  2  0  0  0  0
  4 13  2  0  0  0  0
  4 14  1  0  0  0  0
  5 13  1  0  0  0  0
  6  2  2  0  0  0  0
  7 11  1  0  0  0  0
  7  9  1  0  0  0  0
  8 19  1  0  0  0  0
  8 10  2  0  0  0  0
 11 16  2  0  0  0  0
 12  1  1  0  0  0  0
 13  7  1  0  0  0  0
 14 11  1  0  0  0  0
 15 20  1  0  0  0  0
 16  3  1  0  0  0  0
 17  8  1  0  0  0  0
 18 14  2  0  0  0  0
 18  6  1  0  0  0  0
 20 19  1  0  0  0  0
 21 15  1  0  0  0  0
 21 17  1  0  0  0  0
 22 26  1  0  0  0  0
 23 24  1  6  0  0  0
 23 12  1  0  0  0  0
 23 27  1  0  0  0  0
 25 24  1  0  0  0  0
 25 22  1  0  0  0  0
 26 27  2  0  0  0  0
M  END
>  <MODEL>
6

>  <REMARK>
 VINA RESULT:      -7.5      3.941      8.282
  Name = 
  1 active torsions:
  status: ('A' for Active; 'I' for Inactive)
    1  A    between atoms: C_9  and  N_15
                            x       y       z     vdW  Elec       q    Type
                         _______ _______ _______ _____ _____    ______ ____

>  <TORSDO>
F 1

$$$$
=
 OpenBabel11052413393D

 27 31  0  0  1  0  0  0  0  0999 V2000
  184.5480  177.8780  142.5010 C   0  0  0  0  0  3  0  0  0  0  0  0
  187.0350  177.8720  142.4040 C   0  0  0  0  0  0  0  0  0  0  0  0
  186.3030  178.7770  140.1400 C   0  0  0  0  0  3  0  0  0  0  0  0
  190.5730  176.8140  140.5750 N   0  0  0  0  0  0  0  0  0  0  0  0
  191.1170  177.1280  138.2180 N   0  0  0  0  0  1  0  0  0  0  0  0
  188.0490  177.2770  143.1960 C   0  0  0  0  0  3  0  0  0  0  0  0
  188.9980  177.7750  139.2510 N   0  0  0  0  0  0  0  0  0  0  0  0
  182.8550  179.1310  138.9460 C   0  0  0  0  0  0  0  0  0  0  0  0
  188.3600  178.3010  138.0520 C   0  0  0  0  0  1  0  0  0  0  0  0
  182.3610  179.2070  137.8340 O   0  0  0  0  0  0  0  0  0  0  0  0
  188.5110  177.6880  140.5040 C   0  0  0  0  0  0  0  0  0  0  0  0
  185.8130  178.2870  143.0360 N   0  0  0  0  0  0  0  0  0  0  0  0
  190.2380  177.2400  139.3330 C   0  0  0  0  0  0  0  0  0  0  0  0
  189.4700  177.1070  141.2910 C   0  0  0  0  0  0  0  0  0  0  0  0
  184.1760  178.0550  141.2350 C   0  0  0  0  0  0  0  0  0  0  0  0
  187.2600  178.0790  141.0170 C   0  0  0  0  0  0  0  0  0  0  0  0
  184.2570  179.6120  139.1800 C   0  0  0  0  0  2  0  0  0  0  0  0
  189.2760  176.8830  142.6450 C   0  0  0  0  0  3  0  0  0  0  0  0
  182.0380  178.6310  140.0960 C   0  0  0  0  0  2  0  0  0  0  0  0
  182.8180  177.5580  140.8460 C   0  0  0  0  0  2  0  0  0  0  0  0
  184.9720  178.8010  140.2250 C   0  0  0  0  0  0  0  0  0  0  0  0
  185.1200  178.5160  147.1360 O   0  0  0  0  0  0  0  0  0  0  0  0
  185.8580  178.7550  144.4220 C   0  0  2  0  0  3  0  0  0  0  0  0
  186.5470  177.7380  145.3360 C   0  0  0  0  0  2  0  0  0  0  0  0
  186.4770  178.2490  146.7720 C   0  0  0  0  0  2  0  0  0  0  0  0
  184.1800  179.0030  146.2150 C   0  0  0  0  0  3  0  0  0  0  0  0
  184.4830  179.1110  144.9200 C   0  0  0  0  0  3  0  0  0  0  0  0
  1 12  1  0  0  0  0
  2 12  1  0  0  0  0
  2  6  1  0  0  0  0
  3 21  2  0  0  0  0
  3 16  1  0  0  0  0
  4 14  1  0  0  0  0
  5 13  1  0  0  0  0
  7 13  1  0  0  0  0
  7 11  1  0  0  0  0
  8 17  1  0  0  0  0
  8 19  1  0  0  0  0
  9  7  1  0  0  0  0
 10  8  2  0  0  0  0
 11 16  1  0  0  0  0
 11 14  2  0  0  0  0
 13  4  2  0  0  0  0
 14 18  1  0  0  0  0
 15  1  2  0  0  0  0
 16  2  2  0  0  0  0
 17 21  1  0  0  0  0
 18  6  2  0  0  0  0
 19 20  1  0  0  0  0
 20 15  1  0  0  0  0
 21 15  1  0  0  0  0
 23 12  1  6  0  0  0
 23 27  1  0  0  0  0
 23 24  1  0  0  0  0
 24 25  1  0  0  0  0
 25 22  1  0  0  0  0
 26 22  1  0  0  0  0
 27 26  2  0  0  0  0
M  END
>  <MODEL>
7

>  <REMARK>
 VINA RESULT:      -7.3      4.034      7.185
  Name = 
  1 active torsions:
  status: ('A' for Active; 'I' for Inactive)
    1  A    between atoms: C_9  and  N_15
                            x       y       z     vdW  Elec       q    Type
                         _______ _______ _______ _____ _____    ______ ____

>  <TORSDO>
F 1

$$$$
=
 OpenBabel11052413393D

 27 31  0  0  1  0  0  0  0  0999 V2000
  189.8030  176.4730  141.9400 C   0  0  0  0  0  3  0  0  0  0  0  0
  187.7060  177.8130  141.9490 C   0  0  0  0  0  0  0  0  0  0  0  0
  188.5650  177.9430  144.3410 C   0  0  0  0  0  3  0  0  0  0  0  0
  183.9820  178.6790  143.4860 N   0  0  0  0  0  0  0  0  0  0  0  0
  183.4450  179.0030  145.8430 N   0  0  0  0  0  1  0  0  0  0  0  0
  186.6220  177.9490  141.0460 C   0  0  0  0  0  3  0  0  0  0  0  0
  185.6760  178.4890  144.9860 N   0  0  0  0  0  0  0  0  0  0  0  0
  191.5170  176.2410  145.6930 C   0  0  0  0  0  0  0  0  0  0  0  0
  186.3660  178.4610  146.2680 C   0  0  0  0  0  1  0  0  0  0  0  0
  191.8540  175.9240  146.8210 O   0  0  0  0  0  0  0  0  0  0  0  0
  186.1700  178.2760  143.7510 C   0  0  0  0  0  0  0  0  0  0  0  0
  189.0190  177.5560  141.4240 N   0  0  0  0  0  0  0  0  0  0  0  0
  184.3600  178.7280  144.7860 C   0  0  0  0  0  0  0  0  0  0  0  0
  185.1390  178.3930  142.8570 C   0  0  0  0  0  0  0  0  0  0  0  0
  190.0750  176.2920  143.2310 C   0  0  0  0  0  0  0  0  0  0  0  0
  187.4820  177.9710  143.3430 C   0  0  0  0  0  0  0  0  0  0  0  0
  190.6250  177.4280  145.4800 C   0  0  0  0  0  2  0  0  0  0  0  0
  185.3250  178.2360  141.4930 C   0  0  0  0  0  3  0  0  0  0  0  0
  192.0550  175.4940  144.5140 C   0  0  0  0  0  2  0  0  0  0  0  0
  190.9070  175.0990  143.5930 C   0  0  0  0  0  2  0  0  0  0  0  0
  189.7020  177.2470  144.3070 C   0  0  0  0  0  0  0  0  0  0  0  0
  189.9100  177.7920  137.3630 O   0  0  0  0  0  0  0  0  0  0  0  0
  189.3790  178.1080  140.1170 C   0  0  2  0  0  3  0  0  0  0  0  0
  188.2350  177.9560  139.1100 C   0  0  0  0  0  2  0  0  0  0  0  0
  188.7120  178.4670  137.7540 C   0  0  0  0  0  2  0  0  0  0  0  0
  190.8790  177.3890  138.2940 C   0  0  0  0  0  3  0  0  0  0  0  0
  190.6580  177.5020  139.6050 C   0  0  0  0  0  3  0  0  0  0  0  0
  1 15  2  0  0  0  0
  2 16  1  0  0  0  0
  4 13  2  0  0  0  0
  6 18  1  0  0  0  0
  6  2  2  0  0  0  0
  7  9  1  0  0  0  0
  8 10  2  0  0  0  0
 11  7  1  0  0  0  0
 12  1  1  0  0  0  0
 12  2  1  0  0  0  0
 13  7  1  0  0  0  0
 13  5  1  0  0  0  0
 14  4  1  0  0  0  0
 14 11  1  0  0  0  0
 15 20  1  0  0  0  0
 15 21  1  0  0  0  0
 16 11  2  0  0  0  0
 16  3  1  0  0  0  0
 17  8  1  0  0  0  0
 18 14  2  0  0  0  0
 19  8  1  0  0  0  0
 20 19  1  0  0  0  0
 21  3  2  0  0  0  0
 21 17  1  0  0  0  0
 22 25  1  0  0  0  0
 22 26  1  0  0  0  0
 23 24  1  6  0  0  0
 23 12  1  0  0  0  0
 25 24  1  0  0  0  0
 26 27  2  0  0  0  0
 27 23  1  0  0  0  0
M  END
>  <MODEL>
8

>  <REMARK>
 VINA RESULT:      -7.2      2.058      5.785
  Name = 
  1 active torsions:
  status: ('A' for Active; 'I' for Inactive)
    1  A    between atoms: C_9  and  N_15
                            x       y       z     vdW  Elec       q    Type
                         _______ _______ _______ _____ _____    ______ ____

>  <TORSDO>
F 1

$$$$
=
 OpenBabel11052413393D

 27 31  0  0  1  0  0  0  0  0999 V2000
  190.5740  176.3600  141.3970 C   0  0  0  0  0  3  0  0  0  0  0  0
  189.0330  177.4740  139.7910 C   0  0  0  0  0  0  0  0  0  0  0  0
  188.4280  178.4620  142.0580 C   0  0  0  0  0  3  0  0  0  0  0  0
  185.2440  178.5430  138.5740 N   0  0  0  0  0  0  0  0  0  0  0  0
  183.5390  179.6030  139.9610 N   0  0  0  0  0  1  0  0  0  0  0  0
  188.6640  177.2220  138.4460 C   0  0  0  0  0  3  0  0  0  0  0  0
  185.7750  178.9890  140.7370 N   0  0  0  0  0  0  0  0  0  0  0  0
  189.8650  177.5240  145.2980 C   0  0  0  0  0  0  0  0  0  0  0  0
  185.6250  179.4420  142.1120 C   0  0  0  0  0  1  0  0  0  0  0  0
  189.4720  177.6300  146.4460 O   0  0  0  0  0  0  0  0  0  0  0  0
  186.8360  178.4080  140.1440 C   0  0  0  0  0  0  0  0  0  0  0  0
  190.3660  177.1480  140.2180 N   0  0  0  0  0  0  0  0  0  0  0  0
  184.8390  179.0530  139.7620 C   0  0  0  0  0  0  0  0  0  0  0  0
  186.5030  178.1440  138.8420 C   0  0  0  0  0  0  0  0  0  0  0  0
  190.0560  176.6430  142.5900 C   0  0  0  0  0  0  0  0  0  0  0  0
  188.0980  178.0760  140.6740 C   0  0  0  0  0  0  0  0  0  0  0  0
  189.4140  178.5060  144.2550 C   0  0  0  0  0  2  0  0  0  0  0  0
  187.3910  177.5510  137.9590 C   0  0  0  0  0  3  0  0  0  0  0  0
  190.8580  176.4640  144.9410 C   0  0  0  0  0  2  0  0  0  0  0  0
  190.3730  175.7030  143.7130 C   0  0  0  0  0  2  0  0  0  0  0  0
  189.2830  177.8760  142.8960 C   0  0  0  0  0  0  0  0  0  0  0  0
  193.9080  176.3340  138.1860 O   0  0  0  0  0  0  0  0  0  0  0  0
  191.4620  177.2520  139.2540 C   0  0  2  0  0  3  0  0  0  0  0  0
  191.5040  176.0400  138.3190 C   0  0  0  0  0  2  0  0  0  0  0  0
  192.7200  176.1730  137.4070 C   0  0  0  0  0  2  0  0  0  0  0  0
  193.9160  177.0330  139.4020 C   0  0  0  0  0  3  0  0  0  0  0  0
  192.7800  177.4660  139.9510 C   0  0  0  0  0  3  0  0  0  0  0  0
  1 15  2  0  0  0  0
  2 12  1  0  0  0  0
  2 16  1  0  0  0  0
  3 21  2  0  0  0  0
  4 14  1  0  0  0  0
  4 13  2  0  0  0  0
  6  2  2  0  0  0  0
  7  9  1  0  0  0  0
  8 10  2  0  0  0  0
 11 16  2  0  0  0  0
 11  7  1  0  0  0  0
 12  1  1  0  0  0  0
 13  5  1  0  0  0  0
 13  7  1  0  0  0  0
 14 11  1  0  0  0  0
 15 21  1  0  0  0  0
 15 20  1  0  0  0  0
 16  3  1  0  0  0  0
 17  8  1  0  0  0  0
 18  6  1  0  0  0  0
 18 14  2  0  0  0  0
 19  8  1  0  0  0  0
 20 19  1  0  0  0  0
 21 17  1  0  0  0  0
 22 26  1  0  0  0  0
 23 24  1  1  0  0  0
 23 27  1  0  0  0  0
 23 12  1  0  0  0  0
 25 22  1  0  0  0  0
 25 24  1  0  0  0  0
 26 27  2  0  0  0  0
M  END
>  <MODEL>
9

>  <REMARK>
 VINA RESULT:      -7.2      3.385      6.629
  Name = 
  1 active torsions:
  status: ('A' for Active; 'I' for Inactive)
    1  A    between atoms: C_9  and  N_15
                            x       y       z     vdW  Elec       q    Type
                         _______ _______ _______ _____ _____    ______ ____

>  <TORSDO>
F 1

$$$$
