=
 OpenBabel11052414353D

 32 38  0  0  1  0  0  0  0  0999 V2000
  184.2960  178.0990  142.7950 C   0  0  2  0  0  3  0  0  0  0  0  0
  186.5700  177.9230  141.6950 C   0  0  2  0  0  3  0  0  0  0  0  0
  183.4990  178.6100  144.0130 C   0  0  0  0  0  2  0  0  0  0  0  0
  185.7900  178.4310  142.9120 C   0  0  2  0  0  3  0  0  0  0  0  0
  188.0640  178.2580  141.8620 C   0  0  2  0  0  3  0  0  0  0  0  0
  187.2850  179.3600  137.1220 O   0  0  0  0  0  0  0  0  0  0  0  0
  186.0030  178.5660  140.4190 C   0  0  2  0  0  3  0  0  0  0  0  0
  189.1130  178.1490  138.1490 C   0  0  0  0  0  2  0  0  0  0  0  0
  188.2980  178.4960  139.3950 C   0  0  2  0  0  3  0  0  0  0  0  0
  186.3460  177.8210  144.2050 C   0  0  1  0  0  3  0  0  0  0  0  0
  188.8700  177.8280  140.6350 C   0  0  0  0  0  2  0  0  0  0  0  0
  187.8260  178.1620  144.3670 C   0  0  0  0  0  2  0  0  0  0  0  0
  185.5530  178.2410  145.4520 C   0  0  0  0  0  2  0  0  0  0  0  0
  184.5370  178.1650  140.2660 C   0  0  0  0  0  2  0  0  0  0  0  0
  183.7140  178.6320  141.4750 C   0  0  1  0  0  3  0  0  0  0  0  0
  186.8220  178.1210  139.2020 C   0  0  2  0  0  3  0  0  0  0  0  0
  188.6390  177.6710  143.1610 C   0  0  1  0  0  3  0  0  0  0  0  0
  184.3800  179.1740  145.1340 C   0  0  0  0  0  2  0  0  0  0  0  0
  188.2960  178.4120  136.8760 C   0  0  0  0  0  2  0  0  0  0  0  0
  186.2840  178.7140  137.8820 C   0  0  0  0  0  2  0  0  0  0  0  0
  180.3530  177.2090  140.0880 C   0  0  2  0  0  3  0  0  0  0  0  0
  179.6750  177.8280  142.6270 O   0  0  0  0  0  1  0  0  0  0  0  0
  179.9110  176.4660  138.8380 C   0  0  0  0  0  1  0  0  0  0  0  0
  179.9610  179.6370  141.0220 C   0  0  2  0  0  3  0  0  0  0  0  0
  182.2150  178.3140  141.3100 C   0  0  1  0  0  3  0  0  0  0  0  0
  179.4260  178.4200  140.2610 C   0  0  2  0  0  3  0  0  0  0  0  0
  181.4330  179.6130  141.4830 C   0  0  0  0  0  2  0  0  0  0  0  0
  181.8320  177.5900  140.0100 C   0  0  1  0  0  3  0  0  0  0  0  0
  182.6690  176.3270  139.8280 C   0  0  0  0  0  1  0  0  0  0  0  0
  179.0100  178.6650  141.7220 C   0  0  1  0  0  3  0  0  0  0  0  0
  188.7040  176.1430  143.1280 C   0  0  0  0  0  2  0  0  0  0  0  0
  190.1460  175.6740  143.0880 C   0  0  0  0  0  1  0  0  0  0  0  0
  1  4  1  0  0  0  0
  1  3  1  1  0  0  0
  2  5  1  0  0  0  0
  2  4  1  0  0  0  0
  3 18  1  0  0  0  0
  4 10  1  0  0  0  0
  5 17  1  0  0  0  0
  6 20  1  0  0  0  0
  7  2  1  0  0  0  0
  8  9  1  0  0  0  0
  9 11  1  0  0  0  0
 10 12  1  0  0  0  0
 10 13  1  0  0  0  0
 11  5  1  0  0  0  0
 14  7  1  0  0  0  0
 14 15  1  0  0  0  0
 15  1  1  0  0  0  0
 16  9  1  0  0  0  0
 16  7  1  0  0  0  0
 17 12  1  0  0  0  0
 18 13  1  0  0  0  0
 19  6  1  0  0  0  0
 19  8  1  0  0  0  0
 20 16  1  0  0  0  0
 21 26  1  0  0  0  0
 23 21  1  0  0  0  0
 24 27  1  0  0  0  0
 24 30  1  0  0  0  0
 25 15  1  0  0  0  0
 25 27  1  0  0  0  0
 26 24  1  0  0  0  0
 26 30  1  0  0  0  0
 28 21  1  0  0  0  0
 28 25  1  0  0  0  0
 29 28  1  0  0  0  0
 30 22  1  0  0  0  0
 31 17  1  0  0  0  0
 32 31  1  0  0  0  0
M  END
>  <MODEL>
1

>  <REMARK>
 VINA RESULT:      -9.2      0.000      0.000
  Name = 
  2 active torsions:
  status: ('A' for Active; 'I' for Inactive)
    1  A    between atoms: C_13  and  C_29
    2  A    between atoms: C_16  and  C_27
                            x       y       z     vdW  Elec       q    Type
                         _______ _______ _______ _____ _____    ______ ____

>  <TORSDO>
F 2

$$$$
=
 OpenBabel11052414353D

 32 38  0  0  1  0  0  0  0  0999 V2000
  190.3720  176.9950  140.6530 C   0  0  2  0  0  3  0  0  0  0  0  0
  188.5250  177.2230  138.9360 C   0  0  2  0  0  3  0  0  0  0  0  0
  191.8840  177.1250  140.9320 C   0  0  0  0  0  2  0  0  0  0  0  0
  190.0280  177.3510  139.2000 C   0  0  2  0  0  3  0  0  0  0  0  0
  188.2270  177.5690  137.4650 C   0  0  2  0  0  3  0  0  0  0  0  0
  184.5570  179.8600  139.8250 O   0  0  0  0  0  0  0  0  0  0  0  0
  187.7570  178.1570  139.8860 C   0  0  2  0  0  3  0  0  0  0  0  0
  184.4990  178.5040  137.8210 C   0  0  0  0  0  2  0  0  0  0  0  0
  185.9980  178.4680  138.1170 C   0  0  2  0  0  3  0  0  0  0  0  0
  190.8240  176.4440  138.2530 C   0  0  1  0  0  3  0  0  0  0  0  0
  186.7250  177.5200  137.1760 C   0  0  0  0  0  2  0  0  0  0  0  0
  190.5280  176.7970  136.7960 C   0  0  0  0  0  2  0  0  0  0  0  0
  192.3360  176.4790  138.5230 C   0  0  0  0  0  2  0  0  0  0  0  0
  188.0400  177.7450  141.3300 C   0  0  0  0  0  2  0  0  0  0  0  0
  189.5410  177.8340  141.6390 C   0  0  1  0  0  3  0  0  0  0  0  0
  186.2560  178.0910  139.5820 C   0  0  2  0  0  3  0  0  0  0  0  0
  189.0270  176.6820  136.4970 C   0  0  1  0  0  3  0  0  0  0  0  0
  192.7200  177.4090  139.6790 C   0  0  0  0  0  2  0  0  0  0  0  0
  183.7220  179.0600  139.0240 C   0  0  0  0  0  2  0  0  0  0  0  0
  185.4250  178.9910  140.5230 C   0  0  0  0  0  2  0  0  0  0  0  0
  189.0970  177.1250  145.4520 C   0  0  2  0  0  3  0  0  0  0  0  0
  191.5250  176.0440  144.9770 O   0  0  0  0  0  1  0  0  0  0  0  0
  187.9610  177.2160  146.4580 C   0  0  0  0  0  1  0  0  0  0  0  0
  191.3240  178.4700  145.0610 C   0  0  2  0  0  3  0  0  0  0  0  0
  189.8470  177.5030  143.1120 C   0  0  1  0  0  3  0  0  0  0  0  0
  190.2970  177.8840  146.0350 C   0  0  2  0  0  3  0  0  0  0  0  0
  191.0390  178.3500  143.5500 C   0  0  0  0  0  2  0  0  0  0  0  0
  188.6630  177.6460  144.0810 C   0  0  1  0  0  3  0  0  0  0  0  0
  187.4630  176.8410  143.5920 C   0  0  0  0  0  1  0  0  0  0  0  0
  191.6390  177.1700  145.8030 C   0  0  1  0  0  3  0  0  0  0  0  0
  188.5680  175.2240  136.5330 C   0  0  0  0  0  2  0  0  0  0  0  0
  189.2840  174.4160  135.4670 C   0  0  0  0  0  1  0  0  0  0  0  0
  1  3  1  1  0  0  0
  1 15  1  0  0  0  0
  2  4  1  0  0  0  0
  2  7  1  0  0  0  0
  4  1  1  0  0  0  0
  5  2  1  0  0  0  0
  6 20  1  0  0  0  0
  7 14  1  0  0  0  0
  8  9  1  0  0  0  0
  8 19  1  0  0  0  0
  9 16  1  0  0  0  0
 10 13  1  0  0  0  0
 10  4  1  0  0  0  0
 11  5  1  0  0  0  0
 11  9  1  0  0  0  0
 12 10  1  0  0  0  0
 13 18  1  0  0  0  0
 14 15  1  0  0  0  0
 15 25  1  0  0  0  0
 16  7  1  0  0  0  0
 16 20  1  0  0  0  0
 17 31  1  0  0  0  0
 17 12  1  0  0  0  0
 17  5  1  0  0  0  0
 18  3  1  0  0  0  0
 19  6  1  0  0  0  0
 21 26  1  0  0  0  0
 21 23  1  0  0  0  0
 22 30  1  0  0  0  0
 24 30  1  0  0  0  0
 24 26  1  0  0  0  0
 25 27  1  0  0  0  0
 25 28  1  0  0  0  0
 27 24  1  0  0  0  0
 28 21  1  0  0  0  0
 29 28  1  0  0  0  0
 30 26  1  0  0  0  0
 32 31  1  0  0  0  0
M  END
>  <MODEL>
2

>  <REMARK>
 VINA RESULT:      -8.6      2.908      7.756
  Name = 
  2 active torsions:
  status: ('A' for Active; 'I' for Inactive)
    1  A    between atoms: C_13  and  C_29
    2  A    between atoms: C_16  and  C_27
                            x       y       z     vdW  Elec       q    Type
                         _______ _______ _______ _____ _____    ______ ____

>  <TORSDO>
F 2

$$$$
=
 OpenBabel11052414353D

 32 38  0  0  1  0  0  0  0  0999 V2000
  183.7900  178.3440  141.7400 C   0  0  2  0  0  3  0  0  0  0  0  0
  186.2540  178.0690  141.2230 C   0  0  2  0  0  3  0  0  0  0  0  0
  182.7440  178.9400  142.7030 C   0  0  0  0  0  2  0  0  0  0  0  0
  185.2230  178.6600  142.1890 C   0  0  2  0  0  3  0  0  0  0  0  0
  187.6750  178.3910  141.7210 C   0  0  2  0  0  3  0  0  0  0  0  0
  188.0710  179.2130  136.8790 O   0  0  0  0  0  0  0  0  0  0  0  0
  186.0230  178.6410  139.8150 C   0  0  2  0  0  3  0  0  0  0  0  0
  189.5690  178.0410  138.3760 C   0  0  0  0  0  2  0  0  0  0  0  0
  188.4920  178.4750  139.3710 C   0  0  2  0  0  3  0  0  0  0  0  0
  185.4410  178.1220  143.6100 C   0  0  1  0  0  3  0  0  0  0  0  0
  188.7360  177.8750  140.7470 C   0  0  0  0  0  2  0  0  0  0  0  0
  186.8500  178.4510  144.0990 C   0  0  0  0  0  2  0  0  0  0  0  0
  184.3880  178.6290  144.6070 C   0  0  0  0  0  2  0  0  0  0  0  0
  184.6240  178.2520  139.3410 C   0  0  0  0  0  2  0  0  0  0  0  0
  183.5520  178.8040  140.2920 C   0  0  1  0  0  3  0  0  0  0  0  0
  187.0940  178.1100  138.8550 C   0  0  2  0  0  3  0  0  0  0  0  0
  187.9100  177.8750  143.1510 C   0  0  1  0  0  3  0  0  0  0  0  0
  183.3500  179.5580  143.9680 C   0  0  0  0  0  2  0  0  0  0  0  0
  189.0830  178.2380  136.9320 C   0  0  0  0  0  2  0  0  0  0  0  0
  186.9000  178.6300  137.4130 C   0  0  0  0  0  2  0  0  0  0  0  0
  179.8940  179.2560  139.0060 C   0  0  2  0  0  3  0  0  0  0  0  0
  180.4130  176.7080  138.2820 O   0  0  0  0  0  1  0  0  0  0  0  0
  178.9310  180.4190  138.8260 C   0  0  0  0  0  1  0  0  0  0  0  0
  180.0050  177.1920  140.6330 C   0  0  2  0  0  3  0  0  0  0  0  0
  182.1270  178.4980  139.7930 C   0  0  1  0  0  3  0  0  0  0  0  0
  179.1630  178.1670  139.8040 C   0  0  2  0  0  3  0  0  0  0  0  0
  181.5280  177.4240  140.6980 C   0  0  0  0  0  2  0  0  0  0  0  0
  181.1960  179.7140  139.6640 C   0  0  1  0  0  3  0  0  0  0  0  0
  181.8400  180.7990  138.8060 C   0  0  0  0  0  1  0  0  0  0  0  0
  179.4370  176.7450  139.2860 C   0  0  1  0  0  3  0  0  0  0  0  0
  187.9370  176.3480  143.2180 C   0  0  0  0  0  2  0  0  0  0  0  0
  189.3670  175.8420  143.2190 C   0  0  0  0  0  1  0  0  0  0  0  0
  1  4  1  0  0  0  0
  1  3  1  1  0  0  0
  2  5  1  0  0  0  0
  2  4  1  0  0  0  0
  3 18  1  0  0  0  0
  4 10  1  0  0  0  0
  5 17  1  0  0  0  0
  6 19  1  0  0  0  0
  6 20  1  0  0  0  0
  7  2  1  0  0  0  0
  8  9  1  0  0  0  0
  9 11  1  0  0  0  0
 10 12  1  0  0  0  0
 10 13  1  0  0  0  0
 11  5  1  0  0  0  0
 14  7  1  0  0  0  0
 14 15  1  0  0  0  0
 15  1  1  0  0  0  0
 16  9  1  0  0  0  0
 16  7  1  0  0  0  0
 17 31  1  0  0  0  0
 17 12  1  0  0  0  0
 18 13  1  0  0  0  0
 19  8  1  0  0  0  0
 20 16  1  0  0  0  0
 21 28  1  0  0  0  0
 21 26  1  0  0  0  0
 22 30  1  0  0  0  0
 23 21  1  0  0  0  0
 24 27  1  0  0  0  0
 25 15  1  0  0  0  0
 25 27  1  0  0  0  0
 26 24  1  0  0  0  0
 28 25  1  0  0  0  0
 29 28  1  0  0  0  0
 30 26  1  0  0  0  0
 30 24  1  0  0  0  0
 31 32  1  0  0  0  0
M  END
>  <MODEL>
3

>  <REMARK>
 VINA RESULT:      -8.5      1.347      1.880
  Name = 
  2 active torsions:
  status: ('A' for Active; 'I' for Inactive)
    1  A    between atoms: C_13  and  C_29
    2  A    between atoms: C_16  and  C_27
                            x       y       z     vdW  Elec       q    Type
                         _______ _______ _______ _____ _____    ______ ____

>  <TORSDO>
F 2

$$$$
=
 OpenBabel11052414353D

 32 38  0  0  1  0  0  0  0  0999 V2000
  187.9310  177.7170  140.7070 C   0  0  2  0  0  3  0  0  0  0  0  0
  185.4550  177.9960  140.2550 C   0  0  2  0  0  3  0  0  0  0  0  0
  189.3630  178.0050  140.2110 C   0  0  0  0  0  2  0  0  0  0  0  0
  186.8720  178.2820  139.7500 C   0  0  2  0  0  3  0  0  0  0  0  0
  184.4260  178.5600  139.2580 C   0  0  2  0  0  3  0  0  0  0  0  0
  182.4670  179.8420  143.5940 O   0  0  0  0  0  0  0  0  0  0  0  0
  185.2710  178.6220  141.6470 C   0  0  2  0  0  3  0  0  0  0  0  0
  181.4070  178.8820  141.6400 C   0  0  0  0  0  2  0  0  0  0  0  0
  182.8410  179.0030  141.1260 C   0  0  2  0  0  3  0  0  0  0  0  0
  187.0810  177.6850  138.3530 C   0  0  1  0  0  3  0  0  0  0  0  0
  182.9960  178.3550  139.7590 C   0  0  0  0  0  2  0  0  0  0  0  0
  186.0610  178.2540  137.3680 C   0  0  0  0  0  2  0  0  0  0  0  0
  188.5110  177.8820  137.8270 C   0  0  0  0  0  2  0  0  0  0  0  0
  186.2750  177.9960  142.6140 C   0  0  0  0  0  2  0  0  0  0  0  0
  187.7140  178.2360  142.1390 C   0  0  1  0  0  3  0  0  0  0  0  0
  183.8330  178.4030  142.1320 C   0  0  2  0  0  3  0  0  0  0  0  0
  184.6270  177.9880  137.8450 C   0  0  1  0  0  3  0  0  0  0  0  0
  189.4170  178.6280  138.8120 C   0  0  0  0  0  2  0  0  0  0  0  0
  181.3560  179.0930  143.1610 C   0  0  0  0  0  2  0  0  0  0  0  0
  183.5920  178.9890  143.5400 C   0  0  0  0  0  2  0  0  0  0  0  0
  189.4180  177.0700  145.4520 C   0  0  2  0  0  3  0  0  0  0  0  0
  190.9490  175.8490  143.5940 O   0  0  0  0  0  1  0  0  0  0  0  0
  189.0860  177.1280  146.9340 C   0  0  0  0  0  1  0  0  0  0  0  0
  191.1990  178.2500  143.9150 C   0  0  2  0  0  3  0  0  0  0  0  0
  188.7500  177.6870  143.1380 C   0  0  1  0  0  3  0  0  0  0  0  0
  190.8340  177.6340  145.2700 C   0  0  2  0  0  3  0  0  0  0  0  0
  190.0910  178.3580  142.8480 C   0  0  0  0  0  2  0  0  0  0  0  0
  188.3660  177.8050  144.6210 C   0  0  1  0  0  3  0  0  0  0  0  0
  186.9970  177.1830  144.8760 C   0  0  0  0  0  1  0  0  0  0  0  0
  191.6810  176.8400  144.2600 C   0  0  1  0  0  3  0  0  0  0  0  0
  184.2900  176.4980  137.7700 C   0  0  0  0  0  2  0  0  0  0  0  0
  184.3820  176.0040  136.3390 C   0  0  0  0  0  1  0  0  0  0  0  0
  1  3  1  6  0  0  0
  1 15  1  0  0  0  0
  2  7  1  0  0  0  0
  4  2  1  0  0  0  0
  4  1  1  0  0  0  0
  5 11  1  0  0  0  0
  5  2  1  0  0  0  0
  7 16  1  0  0  0  0
  7 14  1  0  0  0  0
  8 19  1  0  0  0  0
  9  8  1  0  0  0  0
  9 16  1  0  0  0  0
 10  4  1  0  0  0  0
 11  9  1  0  0  0  0
 12 17  1  0  0  0  0
 12 10  1  0  0  0  0
 13 10  1  0  0  0  0
 13 18  1  0  0  0  0
 15 14  1  0  0  0  0
 15 25  1  0  0  0  0
 16 20  1  0  0  0  0
 17  5  1  0  0  0  0
 18  3  1  0  0  0  0
 19  6  1  0  0  0  0
 20  6  1  0  0  0  0
 21 23  1  0  0  0  0
 22 30  1  0  0  0  0
 24 30  1  0  0  0  0
 24 26  1  0  0  0  0
 25 28  1  0  0  0  0
 26 21  1  0  0  0  0
 27 25  1  0  0  0  0
 27 24  1  0  0  0  0
 28 29  1  0  0  0  0
 28 21  1  0  0  0  0
 30 26  1  0  0  0  0
 31 17  1  0  0  0  0
 32 31  1  0  0  0  0
M  END
>  <MODEL>
4

>  <REMARK>
 VINA RESULT:      -8.4      2.240      7.828
  Name = 
  2 active torsions:
  status: ('A' for Active; 'I' for Inactive)
    1  A    between atoms: C_13  and  C_29
    2  A    between atoms: C_16  and  C_27
                            x       y       z     vdW  Elec       q    Type
                         _______ _______ _______ _____ _____    ______ ____

>  <TORSDO>
F 2

$$$$
=
 OpenBabel11052414353D

 32 38  0  0  1  0  0  0  0  0999 V2000
  190.1660  177.0240  143.5320 C   0  0  2  0  0  3  0  0  0  0  0  0
  188.2440  177.6640  145.0500 C   0  0  2  0  0  3  0  0  0  0  0  0
  191.3680  176.0810  143.3160 C   0  0  0  0  0  2  0  0  0  0  0  0
  189.4380  176.7260  144.8490 C   0  0  2  0  0  3  0  0  0  0  0  0
  187.5550  177.3450  146.3910 C   0  0  2  0  0  3  0  0  0  0  0  0
  183.7050  177.9920  143.3840 O   0  0  0  0  0  0  0  0  0  0  0  0
  187.2630  177.5030  143.8780 C   0  0  2  0  0  3  0  0  0  0  0  0
  184.0690  178.8170  145.6300 C   0  0  0  0  0  2  0  0  0  0  0  0
  185.3570  178.0170  145.4340 C   0  0  2  0  0  3  0  0  0  0  0  0
  190.4270  176.8500  146.0160 C   0  0  1  0  0  3  0  0  0  0  0  0
  186.3140  178.2150  146.5990 C   0  0  0  0  0  2  0  0  0  0  0  0
  189.7380  176.5260  147.3410 C   0  0  0  0  0  2  0  0  0  0  0  0
  191.6800  175.9820  145.8300 C   0  0  0  0  0  2  0  0  0  0  0  0
  187.9720  177.8790  142.5780 C   0  0  0  0  0  2  0  0  0  0  0  0
  189.1940  176.9810  142.3410 C   0  0  1  0  0  3  0  0  0  0  0  0
  186.0290  178.3840  144.1040 C   0  0  2  0  0  3  0  0  0  0  0  0
  188.5330  177.4470  147.5730 C   0  0  1  0  0  3  0  0  0  0  0  0
  191.6730  175.1850  144.5210 C   0  0  0  0  0  2  0  0  0  0  0  0
  183.3360  179.0010  144.2930 C   0  0  0  0  0  2  0  0  0  0  0  0
  185.0150  178.2850  142.9430 C   0  0  0  0  0  2  0  0  0  0  0  0
  189.8470  178.2800  138.7190 C   0  0  2  0  0  3  0  0  0  0  0  0
  192.3620  177.8780  139.6140 O   0  0  0  0  0  1  0  0  0  0  0  0
  189.0160  178.9160  137.6160 C   0  0  0  0  0  1  0  0  0  0  0  0
  191.0060  175.9400  139.0350 C   0  0  2  0  0  3  0  0  0  0  0  0
  189.8800  177.2830  140.9950 C   0  0  1  0  0  3  0  0  0  0  0  0
  190.5960  177.0880  138.1070 C   0  0  2  0  0  3  0  0  0  0  0  0
  190.5530  176.0020  140.5080 C   0  0  0  0  0  2  0  0  0  0  0  0
  188.9760  177.8950  139.9150 C   0  0  1  0  0  3  0  0  0  0  0  0
  188.2670  179.1390  140.4430 C   0  0  0  0  0  1  0  0  0  0  0  0
  192.0500  176.9670  138.5960 C   0  0  1  0  0  3  0  0  0  0  0  0
  188.9800  178.8860  147.8320 C   0  0  0  0  0  2  0  0  0  0  0  0
  190.1110  178.9160  148.8430 C   0  0  0  0  0  1  0  0  0  0  0  0
  1  3  1  6  0  0  0
  1  4  1  0  0  0  0
  2  5  1  0  0  0  0
  3 18  1  0  0  0  0
  4  2  1  0  0  0  0
  4 10  1  0  0  0  0
  5 11  1  0  0  0  0
  5 17  1  0  0  0  0
  6 19  1  0  0  0  0
  7 16  1  0  0  0  0
  7  2  1  0  0  0  0
  9  8  1  0  0  0  0
  9 11  1  0  0  0  0
 10 12  1  0  0  0  0
 12 17  1  0  0  0  0
 13 10  1  0  0  0  0
 14  7  1  0  0  0  0
 15 14  1  0  0  0  0
 15  1  1  0  0  0  0
 16  9  1  0  0  0  0
 17 31  1  0  0  0  0
 18 13  1  0  0  0  0
 19  8  1  0  0  0  0
 20  6  1  0  0  0  0
 20 16  1  0  0  0  0
 21 28  1  0  0  0  0
 23 21  1  0  0  0  0
 24 27  1  0  0  0  0
 25 15  1  0  0  0  0
 26 30  1  0  0  0  0
 26 21  1  0  0  0  0
 26 24  1  0  0  0  0
 27 25  1  0  0  0  0
 28 29  1  0  0  0  0
 28 25  1  0  0  0  0
 30 24  1  0  0  0  0
 30 22  1  0  0  0  0
 31 32  1  0  0  0  0
M  END
>  <MODEL>
5

>  <REMARK>
 VINA RESULT:      -7.7      3.119      7.660
  Name = 
  2 active torsions:
  status: ('A' for Active; 'I' for Inactive)
    1  A    between atoms: C_13  and  C_29
    2  A    between atoms: C_16  and  C_27
                            x       y       z     vdW  Elec       q    Type
                         _______ _______ _______ _____ _____    ______ ____

>  <TORSDO>
F 2

$$$$
=
 OpenBabel11052414353D

 32 38  0  0  1  0  0  0  0  0999 V2000
  187.4360  177.9820  142.0090 C   0  0  2  0  0  3  0  0  0  0  0  0
  185.4350  178.4820  143.4780 C   0  0  2  0  0  3  0  0  0  0  0  0
  188.7080  177.1280  141.8250 C   0  0  0  0  0  2  0  0  0  0  0  0
  186.6980  177.6320  143.3080 C   0  0  2  0  0  3  0  0  0  0  0  0
  184.7380  178.1140  144.8010 C   0  0  2  0  0  3  0  0  0  0  0  0
  180.9280  178.4850  141.6980 O   0  0  0  0  0  0  0  0  0  0  0  0
  184.4980  178.2510  142.2810 C   0  0  2  0  0  3  0  0  0  0  0  0
  181.1760  179.3330  143.9510 C   0  0  0  0  0  2  0  0  0  0  0  0
  182.5220  178.6280  143.7880 C   0  0  2  0  0  3  0  0  0  0  0  0
  187.6460  177.8260  144.4990 C   0  0  1  0  0  3  0  0  0  0  0  0
  183.4330  178.8940  144.9770 C   0  0  0  0  0  2  0  0  0  0  0  0
  186.9490  177.4540  145.8070 C   0  0  0  0  0  2  0  0  0  0  0  0
  188.9630  177.0510  144.3460 C   0  0  0  0  0  2  0  0  0  0  0  0
  185.2110  178.6780  140.9990 C   0  0  0  0  0  2  0  0  0  0  0  0
  186.4990  177.8690  140.7950 C   0  0  1  0  0  3  0  0  0  0  0  0
  183.2000  179.0420  142.4750 C   0  0  2  0  0  3  0  0  0  0  0  0
  185.6760  178.2860  146.0080 C   0  0  1  0  0  3  0  0  0  0  0  0
  189.0450  176.2550  143.0390 C   0  0  0  0  0  2  0  0  0  0  0  0
  180.4650  179.4640  142.5960 C   0  0  0  0  0  2  0  0  0  0  0  0
  182.2240  178.8710  141.2900 C   0  0  0  0  0  2  0  0  0  0  0  0
  187.1920  178.3580  136.9840 C   0  0  2  0  0  3  0  0  0  0  0  0
  189.0550  179.9710  138.0860 O   0  0  0  0  0  1  0  0  0  0  0  0
  186.4920  177.9870  135.6860 C   0  0  0  0  0  1  0  0  0  0  0  0
  189.3940  177.5610  138.1820 C   0  0  2  0  0  3  0  0  0  0  0  0
  187.1960  178.2210  139.4660 C   0  0  1  0  0  3  0  0  0  0  0  0
  188.6450  177.8740  136.8830 C   0  0  2  0  0  3  0  0  0  0  0  0
  188.6130  177.6530  139.5090 C   0  0  0  0  0  2  0  0  0  0  0  0
  186.4510  177.7890  138.1940 C   0  0  1  0  0  3  0  0  0  0  0  0
  185.0190  178.3160  138.2010 C   0  0  0  0  0  1  0  0  0  0  0  0
  189.6620  178.8780  137.4530 C   0  0  1  0  0  3  0  0  0  0  0  0
  186.0130  179.7530  146.2760 C   0  0  0  0  0  2  0  0  0  0  0  0
  186.4300  179.9460  147.7210 C   0  0  0  0  0  1  0  0  0  0  0  0
  1  3  1  6  0  0  0
  1  4  1  0  0  0  0
  2  5  1  0  0  0  0
  3 18  1  0  0  0  0
  4  2  1  0  0  0  0
  4 10  1  0  0  0  0
  5 11  1  0  0  0  0
  5 17  1  0  0  0  0
  6 19  1  0  0  0  0
  7 16  1  0  0  0  0
  7  2  1  0  0  0  0
  9  8  1  0  0  0  0
  9 11  1  0  0  0  0
 10 12  1  0  0  0  0
 12 17  1  0  0  0  0
 13 10  1  0  0  0  0
 14  7  1  0  0  0  0
 15 14  1  0  0  0  0
 15  1  1  0  0  0  0
 16  9  1  0  0  0  0
 17 31  1  0  0  0  0
 18 13  1  0  0  0  0
 19  8  1  0  0  0  0
 20  6  1  0  0  0  0
 20 16  1  0  0  0  0
 21 28  1  0  0  0  0
 23 21  1  0  0  0  0
 24 27  1  0  0  0  0
 25 27  1  0  0  0  0
 25 15  1  0  0  0  0
 26 21  1  0  0  0  0
 26 30  1  0  0  0  0
 26 24  1  0  0  0  0
 28 29  1  0  0  0  0
 28 25  1  0  0  0  0
 30 22  1  0  0  0  0
 30 24  1  0  0  0  0
 31 32  1  0  0  0  0
M  END
>  <MODEL>
6

>  <REMARK>
 VINA RESULT:      -7.7      1.548      6.453
  Name = 
  2 active torsions:
  status: ('A' for Active; 'I' for Inactive)
    1  A    between atoms: C_13  and  C_29
    2  A    between atoms: C_16  and  C_27
                            x       y       z     vdW  Elec       q    Type
                         _______ _______ _______ _____ _____    ______ ____

>  <TORSDO>
F 2

$$$$
=
 OpenBabel11052414353D

 32 38  0  0  1  0  0  0  0  0999 V2000
  189.5800  177.5010  143.0700 C   0  0  2  0  0  3  0  0  0  0  0  0
  188.7360  177.6090  140.6850 C   0  0  2  0  0  3  0  0  0  0  0  0
  190.7610  177.7760  144.0230 C   0  0  0  0  0  2  0  0  0  0  0  0
  189.9170  177.8810  141.6210 C   0  0  2  0  0  3  0  0  0  0  0  0
  189.1230  177.9830  139.2420 C   0  0  2  0  0  3  0  0  0  0  0  0
  184.5470  179.7790  139.5800 O   0  0  0  0  0  0  0  0  0  0  0  0
  187.5150  178.4170  141.1530 C   0  0  2  0  0  3  0  0  0  0  0  0
  185.5830  178.5100  137.7980 C   0  0  0  0  0  2  0  0  0  0  0  0
  186.7630  178.6180  138.7620 C   0  0  2  0  0  3  0  0  0  0  0  0
  191.1590  177.1020  141.1680 C   0  0  1  0  0  3  0  0  0  0  0  0
  187.9460  177.7900  138.2830 C   0  0  0  0  0  2  0  0  0  0  0  0
  191.5400  177.4830  139.7390 C   0  0  0  0  0  2  0  0  0  0  0  0
  192.3550  177.2820  142.1150 C   0  0  0  0  0  2  0  0  0  0  0  0
  187.1350  177.9760  142.5660 C   0  0  0  0  0  2  0  0  0  0  0  0
  188.2980  178.2070  143.5410 C   0  0  1  0  0  3  0  0  0  0  0  0
  186.3480  178.2080  140.1820 C   0  0  2  0  0  3  0  0  0  0  0  0
  190.3760  177.2260  138.7720 C   0  0  1  0  0  3  0  0  0  0  0  0
  192.0480  178.1970  143.3050 C   0  0  0  0  0  2  0  0  0  0  0  0
  184.2780  178.9310  138.4900 C   0  0  0  0  0  2  0  0  0  0  0  0
  185.0790  178.9760  140.6130 C   0  0  0  0  0  2  0  0  0  0  0  0
  186.2630  177.7920  146.8460 C   0  0  2  0  0  3  0  0  0  0  0  0
  188.2600  176.0120  147.2110 O   0  0  0  0  0  1  0  0  0  0  0  0
  184.9110  178.2550  147.3670 C   0  0  0  0  0  1  0  0  0  0  0  0
  188.7600  178.3860  147.4210 C   0  0  2  0  0  3  0  0  0  0  0  0
  187.9140  177.8480  144.9900 C   0  0  1  0  0  3  0  0  0  0  0  0
  187.3190  178.1710  147.8940 C   0  0  2  0  0  3  0  0  0  0  0  0
  189.0450  178.3090  145.9070 C   0  0  0  0  0  2  0  0  0  0  0  0
  186.5500  178.3740  145.4630 C   0  0  1  0  0  3  0  0  0  0  0  0
  185.4450  177.9540  144.4990 C   0  0  0  0  0  1  0  0  0  0  0  0
  188.3780  177.0770  148.1130 C   0  0  1  0  0  3  0  0  0  0  0  0
  190.1190  175.7280  138.6050 C   0  0  0  0  0  2  0  0  0  0  0  0
  191.1720  175.1050  137.7090 C   0  0  0  0  0  1  0  0  0  0  0  0
  1 15  1  0  0  0  0
  1  3  1  1  0  0  0
  2  7  1  0  0  0  0
  2  4  1  0  0  0  0
  4  1  1  0  0  0  0
  5  2  1  0  0  0  0
  6 20  1  0  0  0  0
  7 14  1  0  0  0  0
  8 19  1  0  0  0  0
  8  9  1  0  0  0  0
  9 16  1  0  0  0  0
 10  4  1  0  0  0  0
 10 13  1  0  0  0  0
 11  9  1  0  0  0  0
 11  5  1  0  0  0  0
 12 10  1  0  0  0  0
 13 18  1  0  0  0  0
 14 15  1  0  0  0  0
 15 25  1  0  0  0  0
 16 20  1  0  0  0  0
 16  7  1  0  0  0  0
 17  5  1  0  0  0  0
 17 12  1  0  0  0  0
 18  3  1  0  0  0  0
 19  6  1  0  0  0  0
 21 23  1  0  0  0  0
 21 26  1  0  0  0  0
 22 30  1  0  0  0  0
 24 26  1  0  0  0  0
 24 30  1  0  0  0  0
 25 28  1  0  0  0  0
 25 27  1  0  0  0  0
 26 30  1  0  0  0  0
 27 24  1  0  0  0  0
 28 21  1  0  0  0  0
 29 28  1  0  0  0  0
 31 17  1  0  0  0  0
 32 31  1  0  0  0  0
M  END
>  <MODEL>
7

>  <REMARK>
 VINA RESULT:      -7.2      2.889      6.488
  Name = 
  2 active torsions:
  status: ('A' for Active; 'I' for Inactive)
    1  A    between atoms: C_13  and  C_29
    2  A    between atoms: C_16  and  C_27
                            x       y       z     vdW  Elec       q    Type
                         _______ _______ _______ _____ _____    ______ ____

>  <TORSDO>
F 2

$$$$
=
 OpenBabel11052414353D

 32 38  0  0  1  0  0  0  0  0999 V2000
  184.4050  178.2530  142.5930 C   0  0  2  0  0  3  0  0  0  0  0  0
  186.8380  177.9290  143.2160 C   0  0  2  0  0  3  0  0  0  0  0  0
  183.0940  179.0030  142.9020 C   0  0  0  0  0  2  0  0  0  0  0  0
  185.5400  178.6760  143.5360 C   0  0  2  0  0  3  0  0  0  0  0  0
  187.9420  178.3680  144.1970 C   0  0  2  0  0  3  0  0  0  0  0  0
  190.3630  178.2530  139.9060 O   0  0  0  0  0  0  0  0  0  0  0  0
  187.2500  178.2160  141.7630 C   0  0  2  0  0  3  0  0  0  0  0  0
  191.0260  177.4180  142.0790 C   0  0  0  0  0  2  0  0  0  0  0  0
  189.6640  178.0140  142.4330 C   0  0  2  0  0  3  0  0  0  0  0  0
  185.1130  178.4240  144.9880 C   0  0  1  0  0  3  0  0  0  0  0  0
  189.2760  177.6940  143.8690 C   0  0  0  0  0  2  0  0  0  0  0  0
  186.2100  178.8670  145.9550 C   0  0  0  0  0  2  0  0  0  0  0  0
  183.7760  179.0940  145.3410 C   0  0  0  0  0  2  0  0  0  0  0  0
  186.1510  177.7180  140.8250 C   0  0  0  0  0  2  0  0  0  0  0  0
  184.8190  178.4220  141.1210 C   0  0  1  0  0  3  0  0  0  0  0  0
  188.5860  177.5310  141.4540 C   0  0  2  0  0  3  0  0  0  0  0  0
  187.5290  178.1400  145.6610 C   0  0  1  0  0  3  0  0  0  0  0  0
  183.1590  179.8630  144.1690 C   0  0  0  0  0  2  0  0  0  0  0  0
  191.1970  177.3250  140.5560 C   0  0  0  0  0  2  0  0  0  0  0  0
  189.0410  177.7620  139.9960 C   0  0  0  0  0  2  0  0  0  0  0  0
  182.0110  178.5620  138.4130 C   0  0  2  0  0  3  0  0  0  0  0  0
  182.7200  175.9580  138.3270 O   0  0  0  0  0  1  0  0  0  0  0  0
  181.2330  179.6540  137.6970 C   0  0  0  0  0  1  0  0  0  0  0  0
  181.4030  176.7470  140.2170 C   0  0  2  0  0  3  0  0  0  0  0  0
  183.7130  178.0000  140.1350 C   0  0  1  0  0  3  0  0  0  0  0  0
  180.9940  177.5680  138.9900 C   0  0  2  0  0  3  0  0  0  0  0  0
  182.7730  177.0390  140.8600 C   0  0  0  0  0  2  0  0  0  0  0  0
  182.9440  179.1520  139.4710 C   0  0  1  0  0  3  0  0  0  0  0  0
  183.9060  180.1310  138.8050 C   0  0  0  0  0  1  0  0  0  0  0  0
  181.4210  176.0990  138.8320 C   0  0  1  0  0  3  0  0  0  0  0  0
  187.4280  176.6540  146.0100 C   0  0  0  0  0  2  0  0  0  0  0  0
  188.0870  176.3780  147.3470 C   0  0  0  0  0  1  0  0  0  0  0  0
  1  3  1  1  0  0  0
  1  4  1  0  0  0  0
  2  4  1  0  0  0  0
  2  5  1  0  0  0  0
  3 18  1  0  0  0  0
  4 10  1  0  0  0  0
  5 17  1  0  0  0  0
  6 20  1  0  0  0  0
  6 19  1  0  0  0  0
  7  2  1  0  0  0  0
  8  9  1  0  0  0  0
  9 11  1  0  0  0  0
 10 13  1  0  0  0  0
 10 12  1  0  0  0  0
 11  5  1  0  0  0  0
 14 15  1  0  0  0  0
 14  7  1  0  0  0  0
 15  1  1  0  0  0  0
 16  7  1  0  0  0  0
 16  9  1  0  0  0  0
 17 12  1  0  0  0  0
 17 31  1  0  0  0  0
 18 13  1  0  0  0  0
 19  8  1  0  0  0  0
 20 16  1  0  0  0  0
 21 26  1  0  0  0  0
 21 28  1  0  0  0  0
 22 30  1  0  0  0  0
 23 21  1  0  0  0  0
 24 27  1  0  0  0  0
 25 27  1  0  0  0  0
 25 15  1  0  0  0  0
 26 24  1  0  0  0  0
 28 25  1  0  0  0  0
 29 28  1  0  0  0  0
 30 26  1  0  0  0  0
 30 24  1  0  0  0  0
 31 32  1  0  0  0  0
M  END
>  <MODEL>
8

>  <REMARK>
 VINA RESULT:      -7.2      2.052      3.064
  Name = 
  2 active torsions:
  status: ('A' for Active; 'I' for Inactive)
    1  A    between atoms: C_13  and  C_29
    2  A    between atoms: C_16  and  C_27
                            x       y       z     vdW  Elec       q    Type
                         _______ _______ _______ _____ _____    ______ ____

>  <TORSDO>
F 2

$$$$
=
 OpenBabel11052414353D

 32 38  0  0  1  0  0  0  0  0999 V2000
  190.3400  177.0700  141.7760 C   0  0  2  0  0  3  0  0  0  0  0  0
  188.4670  177.4370  140.1120 C   0  0  2  0  0  3  0  0  0  0  0  0
  191.8470  177.2350  142.0640 C   0  0  0  0  0  2  0  0  0  0  0  0
  189.9650  177.6010  140.3860 C   0  0  2  0  0  3  0  0  0  0  0  0
  188.1370  177.9630  138.7030 C   0  0  2  0  0  3  0  0  0  0  0  0
  184.3860  179.7310  141.3650 O   0  0  0  0  0  0  0  0  0  0  0  0
  187.6650  178.1950  141.1820 C   0  0  2  0  0  3  0  0  0  0  0  0
  184.3730  178.6570  139.1950 C   0  0  0  0  0  2  0  0  0  0  0  0
  185.8750  178.6550  139.4780 C   0  0  2  0  0  3  0  0  0  0  0  0
  190.7940  176.8710  139.3210 C   0  0  1  0  0  3  0  0  0  0  0  0
  186.6370  177.8790  138.4150 C   0  0  0  0  0  2  0  0  0  0  0  0
  190.4660  177.4020  137.9270 C   0  0  0  0  0  2  0  0  0  0  0  0
  192.3050  176.9440  139.5890 C   0  0  0  0  0  2  0  0  0  0  0  0
  187.9820  177.6060  142.5560 C   0  0  0  0  0  2  0  0  0  0  0  0
  189.4800  177.7260  142.8690 C   0  0  1  0  0  3  0  0  0  0  0  0
  186.1660  178.0960  140.8780 C   0  0  2  0  0  3  0  0  0  0  0  0
  188.9700  177.2560  137.6200 C   0  0  1  0  0  3  0  0  0  0  0  0
  192.6550  177.7260  140.8580 C   0  0  0  0  0  2  0  0  0  0  0  0
  183.5830  179.0060  140.4650 C   0  0  0  0  0  2  0  0  0  0  0  0
  185.3020  178.8190  141.9350 C   0  0  0  0  0  2  0  0  0  0  0  0
  189.2010  176.8590  146.6650 C   0  0  2  0  0  3  0  0  0  0  0  0
  191.2110  175.2350  145.8830 O   0  0  0  0  0  1  0  0  0  0  0  0
  188.2210  177.1580  147.7880 C   0  0  0  0  0  1  0  0  0  0  0  0
  191.6590  177.6180  146.1150 C   0  0  2  0  0  3  0  0  0  0  0  0
  189.8160  177.2150  144.2830 C   0  0  1  0  0  3  0  0  0  0  0  0
  190.6040  177.2390  147.1590 C   0  0  2  0  0  3  0  0  0  0  0  0
  191.2220  177.6920  144.6380 C   0  0  0  0  0  2  0  0  0  0  0  0
  188.8010  177.5790  145.3770 C   0  0  1  0  0  3  0  0  0  0  0  0
  187.3940  177.1470  144.9740 C   0  0  0  0  0  1  0  0  0  0  0  0
  191.6880  176.2270  146.7500 C   0  0  1  0  0  3  0  0  0  0  0  0
  188.5820  175.7850  137.4600 C   0  0  0  0  0  2  0  0  0  0  0  0
  189.3520  175.1550  136.3150 C   0  0  0  0  0  1  0  0  0  0  0  0
  1  3  1  1  0  0  0
  1 15  1  0  0  0  0
  2  4  1  0  0  0  0
  2  7  1  0  0  0  0
  4  1  1  0  0  0  0
  5  2  1  0  0  0  0
  6 20  1  0  0  0  0
  7 14  1  0  0  0  0
  8  9  1  0  0  0  0
  8 19  1  0  0  0  0
  9 16  1  0  0  0  0
 10 13  1  0  0  0  0
 10  4  1  0  0  0  0
 11  5  1  0  0  0  0
 11  9  1  0  0  0  0
 12 10  1  0  0  0  0
 13 18  1  0  0  0  0
 14 15  1  0  0  0  0
 15 25  1  0  0  0  0
 16  7  1  0  0  0  0
 16 20  1  0  0  0  0
 17 12  1  0  0  0  0
 17  5  1  0  0  0  0
 18  3  1  0  0  0  0
 19  6  1  0  0  0  0
 21 26  1  0  0  0  0
 21 23  1  0  0  0  0
 22 30  1  0  0  0  0
 24 30  1  0  0  0  0
 24 26  1  0  0  0  0
 25 27  1  0  0  0  0
 25 28  1  0  0  0  0
 27 24  1  0  0  0  0
 28 21  1  0  0  0  0
 29 28  1  0  0  0  0
 30 26  1  0  0  0  0
 31 17  1  0  0  0  0
 32 31  1  0  0  0  0
M  END
>  <MODEL>
9

>  <REMARK>
 VINA RESULT:      -7.1      3.043      7.840
  Name = 
  2 active torsions:
  status: ('A' for Active; 'I' for Inactive)
    1  A    between atoms: C_13  and  C_29
    2  A    between atoms: C_16  and  C_27
                            x       y       z     vdW  Elec       q    Type
                         _______ _______ _______ _____ _____    ______ ____

>  <TORSDO>
F 2

$$$$
