=
 OpenBabel11052412213D

 30 31  0  0  1  0  0  0  0  0999 V2000
  186.9450  177.4840  142.4360 C   0  0  2  0  0  3  0  0  0  0  0  0
  183.4600  178.7970  143.2330 C   0  0  0  0  0  3  0  0  0  0  0  0
  184.5310  178.2060  142.5430 C   0  0  0  0  0  0  0  0  0  0  0  0
  185.9580  178.6330  144.4610 C   0  0  0  0  0  3  0  0  0  0  0  0
  185.7920  178.1280  143.1630 C   0  0  0  0  0  0  0  0  0  0  0  0
  183.6370  179.3010  144.5220 C   0  0  0  0  0  3  0  0  0  0  0  0
  184.8860  179.2190  145.1370 C   0  0  0  0  0  3  0  0  0  0  0  0
  184.3580  177.6890  141.2130 N   0  0  0  0  0  2  0  0  0  0  0  0
  183.9210  179.5140  139.6400 C   0  0  0  0  0  1  0  0  0  0  0  0
  183.3620  177.1870  139.0660 C   0  0  0  0  0  1  0  0  0  0  0  0
  182.0420  178.3560  140.7820 C   0  0  0  0  0  1  0  0  0  0  0  0
  183.4330  178.1900  140.1980 C   0  0  0  0  0  0  0  0  0  0  0  0
  187.5850  176.4720  143.2200 O   0  0  0  0  0  0  0  0  0  0  0  0
  189.9140  176.2790  143.8320 C   0  0  0  0  0  0  0  0  0  0  0  0
  190.9590  176.4710  144.7400 C   0  0  0  0  0  3  0  0  0  0  0  0
  190.1690  175.6930  142.6350 F   0  0  0  0  0  0  0  0  0  0  0  0
  188.3730  177.2910  145.3980 C   0  0  0  0  0  3  0  0  0  0  0  0
  189.1510  178.1230  147.6200 C   0  0  0  0  0  1  0  0  0  0  0  0
  188.6110  176.6830  144.1550 C   0  0  0  0  0  0  0  0  0  0  0  0
  190.7110  177.0720  145.9770 C   0  0  0  0  0  3  0  0  0  0  0  0
  189.4170  177.4830  146.3050 C   0  0  0  0  0  0  0  0  0  0  0  0
  187.9380  178.4650  141.8110 C   0  0  0  0  0  2  0  0  0  0  0  0
  188.6770  177.8320  140.6350 C   0  0  2  0  0  3  0  0  0  0  0  0
  190.6940  176.0700  139.3170 O   0  0  0  0  0  0  0  0  0  0  0  0
  191.0920  177.1220  140.1340 C   0  0  0  0  0  0  0  0  0  0  0  0
  192.3180  177.3290  140.3240 O   0  0  0  0  0  1  0  0  0  0  0  0
  190.1270  177.9800  140.7510 N   0  0  0  0  0  2  0  0  0  0  0  0
  188.8810  179.3340  138.6360 O   0  0  0  0  0  1  0  0  0  0  0  0
  187.0590  177.8680  138.8130 C   0  0  0  0  0  2  0  0  0  0  0  0
  188.1790  178.3560  139.3270 C   0  0  0  0  0  0  0  0  0  0  0  0
  1 22  1  1  0  0  0
  1  5  1  0  0  0  0
  1 13  1  0  0  0  0
  2  6  1  0  0  0  0
  3  5  1  0  0  0  0
  3  2  2  0  0  0  0
  4  7  1  0  0  0  0
  5  4  2  0  0  0  0
  6  7  2  0  0  0  0
  8  3  1  0  0  0  0
  9 12  1  0  0  0  0
 10 12  1  0  0  0  0
 12 11  1  0  0  0  0
 12  8  1  0  0  0  0
 13 19  1  0  0  0  0
 14 19  2  0  0  0  0
 14 15  1  0  0  0  0
 15 20  2  0  0  0  0
 16 14  1  0  0  0  0
 17 21  2  0  0  0  0
 19 17  1  0  0  0  0
 20 21  1  0  0  0  0
 21 18  1  0  0  0  0
 23 27  1  0  0  0  0
 23 22  1  1  0  0  0
 24 25  2  0  0  0  0
 25 26  1  0  0  0  0
 25 27  1  0  0  0  0
 28 30  1  0  0  0  0
 29 30  2  0  0  0  0
 30 23  1  0  0  0  0
M  END
>  <MODEL>
1

>  <REMARK>
 VINA RESULT:      -8.0      0.000      0.000
  Name = 
  9 active torsions:
  status: ('A' for Active; 'I' for Inactive)
    1  A    between atoms: O_1  and  C_5
    2  A    between atoms: O_1  and  C_22
    3  A    between atoms: C_4  and  C_5
    4  A    between atoms: C_4  and  C_23
    5  A    between atoms: C_5  and  C_12
    6  A    between atoms: C_8  and  N_13
    7  A    between atoms: N_13  and  C_30
    8  A    between atoms: C_23  and  N_25
    9  A    between atoms: C_23  and  C_26
                            x       y       z     vdW  Elec       q    Type
                         _______ _______ _______ _____ _____    ______ ____

>  <TORSDO>
F 9

$$$$
=
 OpenBabel11052412213D

 30 31  0  0  1  0  0  0  0  0999 V2000
  185.2040  178.3710  139.0650 C   0  0  2  0  0  3  0  0  0  0  0  0
  181.4640  177.9480  138.4860 C   0  0  0  0  0  3  0  0  0  0  0  0
  182.8240  177.6430  138.6610 C   0  0  0  0  0  0  0  0  0  0  0  0
  183.2910  180.0150  138.8960 C   0  0  0  0  0  3  0  0  0  0  0  0
  183.7450  178.6880  138.8630 C   0  0  0  0  0  0  0  0  0  0  0  0
  181.0240  179.2730  138.5150 C   0  0  0  0  0  3  0  0  0  0  0  0
  181.9370  180.3060  138.7210 C   0  0  0  0  0  3  0  0  0  0  0  0
  183.2870  176.2830  138.6270 N   0  0  0  0  0  2  0  0  0  0  0  0
  184.4450  174.3960  137.5810 C   0  0  0  0  0  1  0  0  0  0  0  0
  182.0050  174.6490  137.3870 C   0  0  0  0  0  1  0  0  0  0  0  0
  183.4780  176.2130  136.1870 C   0  0  0  0  0  1  0  0  0  0  0  0
  183.3150  175.4020  137.4600 C   0  0  0  0  0  0  0  0  0  0  0  0
  185.7740  179.0990  140.1580 O   0  0  0  0  0  0  0  0  0  0  0  0
  186.7740  178.2140  142.1700 C   0  0  0  0  0  0  0  0  0  0  0  0
  186.6980  177.8670  143.5220 C   0  0  0  0  0  3  0  0  0  0  0  0
  187.9310  178.0100  141.4930 F   0  0  0  0  0  0  0  0  0  0  0  0
  184.4780  178.9710  142.2400 C   0  0  0  0  0  3  0  0  0  0  0  0
  183.1400  178.8410  144.3440 C   0  0  0  0  0  1  0  0  0  0  0  0
  185.6630  178.7640  141.5160 C   0  0  0  0  0  0  0  0  0  0  0  0
  185.5130  178.0700  144.2320 C   0  0  0  0  0  3  0  0  0  0  0  0
  184.4020  178.6230  143.5900 C   0  0  0  0  0  0  0  0  0  0  0  0
  186.0580  178.4420  137.7990 C   0  0  0  0  0  2  0  0  0  0  0  0
  186.8670  177.1620  137.6020 C   0  0  2  0  0  3  0  0  0  0  0  0
  188.9080  179.3380  137.6880 O   0  0  0  0  0  0  0  0  0  0  0  0
  189.0670  178.1820  138.4430 C   0  0  0  0  0  0  0  0  0  0  0  0
  190.0870  178.0500  139.1670 O   0  0  0  0  0  1  0  0  0  0  0  0
  188.0800  177.1460  138.4190 N   0  0  0  0  0  2  0  0  0  0  0  0
  187.8410  175.7730  135.7540 O   0  0  0  0  0  1  0  0  0  0  0  0
  186.8020  177.8160  135.2560 C   0  0  0  0  0  2  0  0  0  0  0  0
  187.1780  176.9240  136.1600 C   0  0  0  0  0  0  0  0  0  0  0  0
  1 22  1  6  0  0  0
  1 13  1  0  0  0  0
  2  6  2  0  0  0  0
  2  3  1  0  0  0  0
  3  5  2  0  0  0  0
  5  4  1  0  0  0  0
  5  1  1  0  0  0  0
  6  7  1  0  0  0  0
  7  4  2  0  0  0  0
  8  3  1  0  0  0  0
 10 12  1  0  0  0  0
 11 12  1  0  0  0  0
 12  9  1  0  0  0  0
 12  8  1  0  0  0  0
 13 19  1  0  0  0  0
 14 15  1  0  0  0  0
 15 20  2  0  0  0  0
 16 14  1  0  0  0  0
 17 21  2  0  0  0  0
 19 14  2  0  0  0  0
 19 17  1  0  0  0  0
 21 20  1  0  0  0  0
 21 18  1  0  0  0  0
 23 22  1  6  0  0  0
 23 27  1  0  0  0  0
 24 25  2  0  0  0  0
 25 26  1  0  0  0  0
 27 25  1  0  0  0  0
 28 30  1  0  0  0  0
 29 30  2  0  0  0  0
 30 23  1  0  0  0  0
M  END
>  <MODEL>
2

>  <REMARK>
 VINA RESULT:      -7.4      2.620      4.704
  Name = 
  9 active torsions:
  status: ('A' for Active; 'I' for Inactive)
    1  A    between atoms: O_1  and  C_5
    2  A    between atoms: O_1  and  C_22
    3  A    between atoms: C_4  and  C_5
    4  A    between atoms: C_4  and  C_23
    5  A    between atoms: C_5  and  C_12
    6  A    between atoms: C_8  and  N_13
    7  A    between atoms: N_13  and  C_30
    8  A    between atoms: C_23  and  N_25
    9  A    between atoms: C_23  and  C_26
                            x       y       z     vdW  Elec       q    Type
                         _______ _______ _______ _____ _____    ______ ____

>  <TORSDO>
F 9

$$$$
=
 OpenBabel11052412213D

 30 31  0  0  1  0  0  0  0  0999 V2000
  187.8140  177.5710  142.1420 C   0  0  2  0  0  3  0  0  0  0  0  0
  185.2230  178.9580  139.7200 C   0  0  0  0  0  3  0  0  0  0  0  0
  186.4420  178.4880  140.2350 C   0  0  0  0  0  0  0  0  0  0  0  0
  185.3670  178.1620  142.3880 C   0  0  0  0  0  3  0  0  0  0  0  0
  186.5140  178.0900  141.5830 C   0  0  0  0  0  0  0  0  0  0  0  0
  184.0900  179.0300  140.5310 C   0  0  0  0  0  3  0  0  0  0  0  0
  184.1610  178.6320  141.8650 C   0  0  0  0  0  3  0  0  0  0  0  0
  187.6150  178.4150  139.4080 N   0  0  0  0  0  2  0  0  0  0  0  0
  188.8720  178.6030  137.3150 C   0  0  0  0  0  1  0  0  0  0  0  0
  187.7970  176.4860  137.9590 C   0  0  0  0  0  1  0  0  0  0  0  0
  186.3960  178.3930  137.2840 C   0  0  0  0  0  1  0  0  0  0  0  0
  187.6690  177.9930  138.0090 C   0  0  0  0  0  0  0  0  0  0  0  0
  187.6170  176.7210  143.2770 O   0  0  0  0  0  0  0  0  0  0  0  0
  188.8210  176.8510  145.3670 C   0  0  0  0  0  0  0  0  0  0  0  0
  188.9010  177.2330  146.7100 C   0  0  0  0  0  3  0  0  0  0  0  0
  189.8690  176.2120  144.7910 F   0  0  0  0  0  0  0  0  0  0  0  0
  186.5940  177.7880  145.2390 C   0  0  0  0  0  3  0  0  0  0  0  0
  185.5330  178.8700  147.2230 C   0  0  0  0  0  1  0  0  0  0  0  0
  187.6650  177.1210  144.6220 C   0  0  0  0  0  0  0  0  0  0  0  0
  187.8280  177.8910  147.3160 C   0  0  0  0  0  3  0  0  0  0  0  0
  186.6750  178.1690  146.5800 C   0  0  0  0  0  0  0  0  0  0  0  0
  188.8820  178.6390  142.3820 C   0  0  0  0  0  2  0  0  0  0  0  0
  190.2370  178.2020  141.8310 C   0  0  2  0  0  3  0  0  0  0  0  0
  191.9820  177.5520  139.4980 O   0  0  0  0  0  1  0  0  0  0  0  0
  190.9610  176.6920  139.8870 C   0  0  0  0  0  0  0  0  0  0  0  0
  190.7690  175.6290  139.2430 O   0  0  0  0  0  0  0  0  0  0  0  0
  190.1360  176.9920  141.0160 N   0  0  0  0  0  2  0  0  0  0  0  0
  192.0670  176.9240  142.9760 O   0  0  0  0  0  1  0  0  0  0  0  0
  191.3750  178.9940  143.8350 C   0  0  0  0  0  2  0  0  0  0  0  0
  191.2480  178.0440  142.9200 C   0  0  0  0  0  0  0  0  0  0  0  0
  1 22  1  1  0  0  0
  1 13  1  0  0  0  0
  2  3  2  0  0  0  0
  2  6  1  0  0  0  0
  3  5  1  0  0  0  0
  5  1  1  0  0  0  0
  5  4  2  0  0  0  0
  6  7  2  0  0  0  0
  7  4  1  0  0  0  0
  8  3  1  0  0  0  0
  9 12  1  0  0  0  0
 10 12  1  0  0  0  0
 11 12  1  0  0  0  0
 12  8  1  0  0  0  0
 13 19  1  0  0  0  0
 14 15  1  0  0  0  0
 15 20  2  0  0  0  0
 16 14  1  0  0  0  0
 17 21  2  0  0  0  0
 19 17  1  0  0  0  0
 19 14  2  0  0  0  0
 21 18  1  0  0  0  0
 21 20  1  0  0  0  0
 23 22  1  1  0  0  0
 23 30  1  0  0  0  0
 24 25  1  0  0  0  0
 25 27  1  0  0  0  0
 26 25  2  0  0  0  0
 27 23  1  0  0  0  0
 30 28  1  0  0  0  0
 30 29  2  0  0  0  0
M  END
>  <MODEL>
3

>  <REMARK>
 VINA RESULT:      -7.3      1.746      3.444
  Name = 
  9 active torsions:
  status: ('A' for Active; 'I' for Inactive)
    1  A    between atoms: O_1  and  C_5
    2  A    between atoms: O_1  and  C_22
    3  A    between atoms: C_4  and  C_5
    4  A    between atoms: C_4  and  C_23
    5  A    between atoms: C_5  and  C_12
    6  A    between atoms: C_8  and  N_13
    7  A    between atoms: N_13  and  C_30
    8  A    between atoms: C_23  and  N_25
    9  A    between atoms: C_23  and  C_26
                            x       y       z     vdW  Elec       q    Type
                         _______ _______ _______ _____ _____    ______ ____

>  <TORSDO>
F 9

$$$$
=
 OpenBabel11052412213D

 30 31  0  0  1  0  0  0  0  0999 V2000
  187.3200  178.1200  139.4750 C   0  0  2  0  0  3  0  0  0  0  0  0
  186.3520  177.4460  135.8540 C   0  0  0  0  0  3  0  0  0  0  0  0
  186.2690  177.5640  137.2500 C   0  0  0  0  0  0  0  0  0  0  0  0
  188.5920  178.2730  137.2940 C   0  0  0  0  0  3  0  0  0  0  0  0
  187.4020  177.9770  137.9770 C   0  0  0  0  0  0  0  0  0  0  0  0
  187.5420  177.7380  135.1850 C   0  0  0  0  0  3  0  0  0  0  0  0
  188.6620  178.1520  135.9050 C   0  0  0  0  0  3  0  0  0  0  0  0
  185.0490  177.2610  137.9470 N   0  0  0  0  0  2  0  0  0  0  0  0
  184.7270  174.9500  137.2030 C   0  0  0  0  0  1  0  0  0  0  0  0
  183.1280  176.0200  138.7370 C   0  0  0  0  0  1  0  0  0  0  0  0
  183.2260  176.7570  136.3910 C   0  0  0  0  0  1  0  0  0  0  0  0
  184.0530  176.2610  137.5630 C   0  0  0  0  0  0  0  0  0  0  0  0
  186.2250  178.9460  139.8840 O   0  0  0  0  0  0  0  0  0  0  0  0
  184.0760  178.9050  140.9840 C   0  0  0  0  0  0  0  0  0  0  0  0
  183.2940  178.7570  142.1340 C   0  0  0  0  0  3  0  0  0  0  0  0
  183.4750  179.1650  139.7970 F   0  0  0  0  0  0  0  0  0  0  0  0
  186.0690  178.5140  142.2970 C   0  0  0  0  0  3  0  0  0  0  0  0
  185.9340  178.0820  144.7520 C   0  0  0  0  0  1  0  0  0  0  0  0
  185.4710  178.7900  141.0570 C   0  0  0  0  0  0  0  0  0  0  0  0
  183.8990  178.4890  143.3640 C   0  0  0  0  0  3  0  0  0  0  0  0
  185.2880  178.3670  143.4450 C   0  0  0  0  0  0  0  0  0  0  0  0
  188.6350  178.5000  140.1570 C   0  0  0  0  0  2  0  0  0  0  0  0
  189.2820  177.2910  140.8270 C   0  0  2  0  0  3  0  0  0  0  0  0
  188.2440  175.6860  143.1190 O   0  0  0  0  0  0  0  0  0  0  0  0
  189.0730  176.7810  143.3330 C   0  0  0  0  0  0  0  0  0  0  0  0
  189.3850  177.1010  144.5090 O   0  0  0  0  0  1  0  0  0  0  0  0
  189.5880  177.5390  142.2350 N   0  0  0  0  0  2  0  0  0  0  0  0
  190.3950  175.8440  139.1050 O   0  0  0  0  0  1  0  0  0  0  0  0
  191.6680  177.3810  140.3380 C   0  0  0  0  0  2  0  0  0  0  0  0
  190.4920  176.8300  140.0790 C   0  0  0  0  0  0  0  0  0  0  0  0
  1 13  1  0  0  0  0
  1 22  1  6  0  0  0
  2  3  1  0  0  0  0
  3  8  1  0  0  0  0
  3  5  2  0  0  0  0
  4  5  1  0  0  0  0
  5  1  1  0  0  0  0
  6  2  2  0  0  0  0
  6  7  1  0  0  0  0
  7  4  2  0  0  0  0
  9 12  1  0  0  0  0
 11 12  1  0  0  0  0
 12  8  1  0  0  0  0
 12 10  1  0  0  0  0
 13 19  1  0  0  0  0
 14 19  2  0  0  0  0
 14 15  1  0  0  0  0
 15 20  2  0  0  0  0
 16 14  1  0  0  0  0
 17 21  2  0  0  0  0
 19 17  1  0  0  0  0
 20 21  1  0  0  0  0
 21 18  1  0  0  0  0
 23 22  1  6  0  0  0
 23 27  1  0  0  0  0
 24 25  2  0  0  0  0
 25 26  1  0  0  0  0
 27 25  1  0  0  0  0
 28 30  1  0  0  0  0
 30 29  2  0  0  0  0
 30 23  1  0  0  0  0
M  END
>  <MODEL>
4

>  <REMARK>
 VINA RESULT:      -7.2      2.390      5.574
  Name = 
  9 active torsions:
  status: ('A' for Active; 'I' for Inactive)
    1  A    between atoms: O_1  and  C_5
    2  A    between atoms: O_1  and  C_22
    3  A    between atoms: C_4  and  C_5
    4  A    between atoms: C_4  and  C_23
    5  A    between atoms: C_5  and  C_12
    6  A    between atoms: C_8  and  N_13
    7  A    between atoms: N_13  and  C_30
    8  A    between atoms: C_23  and  N_25
    9  A    between atoms: C_23  and  C_26
                            x       y       z     vdW  Elec       q    Type
                         _______ _______ _______ _____ _____    ______ ____

>  <TORSDO>
F 9

$$$$
=
 OpenBabel11052412213D

 30 31  0  0  1  0  0  0  0  0999 V2000
  187.2230  177.5540  142.6060 C   0  0  2  0  0  3  0  0  0  0  0  0
  183.7370  178.7380  143.5800 C   0  0  0  0  0  3  0  0  0  0  0  0
  184.8160  178.2800  142.8070 C   0  0  0  0  0  0  0  0  0  0  0  0
  186.2040  178.2880  144.8010 C   0  0  0  0  0  3  0  0  0  0  0  0
  186.0620  178.0570  143.4240 C   0  0  0  0  0  0  0  0  0  0  0  0
  183.8900  178.9680  144.9480 C   0  0  0  0  0  3  0  0  0  0  0  0
  185.1230  178.7430  145.5590 C   0  0  0  0  0  3  0  0  0  0  0  0
  184.6690  178.0450  141.3970 N   0  0  0  0  0  2  0  0  0  0  0  0
  182.2940  178.6300  141.4980 C   0  0  0  0  0  1  0  0  0  0  0  0
  183.7010  179.3700  139.6200 C   0  0  0  0  0  1  0  0  0  0  0  0
  183.1170  176.9890  139.8240 C   0  0  0  0  0  1  0  0  0  0  0  0
  183.4570  178.2460  140.6030 C   0  0  0  0  0  0  0  0  0  0  0  0
  187.9060  176.4680  143.2420 O   0  0  0  0  0  0  0  0  0  0  0  0
  190.2010  176.1130  143.9080 C   0  0  0  0  0  0  0  0  0  0  0  0
  191.2290  176.2120  144.8500 C   0  0  0  0  0  3  0  0  0  0  0  0
  190.4540  175.5510  142.7000 F   0  0  0  0  0  0  0  0  0  0  0  0
  188.6800  177.1690  145.4650 C   0  0  0  0  0  3  0  0  0  0  0  0
  189.4440  177.8810  147.7330 C   0  0  0  0  0  1  0  0  0  0  0  0
  188.9160  176.5860  144.2100 C   0  0  0  0  0  0  0  0  0  0  0  0
  190.9830  176.7890  146.0980 C   0  0  0  0  0  3  0  0  0  0  0  0
  189.7080  177.2670  146.4050 C   0  0  0  0  0  0  0  0  0  0  0  0
  188.1760  178.6400  142.1070 C   0  0  0  0  0  2  0  0  0  0  0  0
  188.5260  178.4390  140.6350 C   0  0  2  0  0  3  0  0  0  0  0  0
  188.0780  179.0010  137.7380 O   0  0  0  0  0  0  0  0  0  0  0  0
  187.1580  178.2620  138.4710 C   0  0  0  0  0  0  0  0  0  0  0  0
  186.1200  177.8290  137.9070 O   0  0  0  0  0  1  0  0  0  0  0  0
  187.3800  177.9740  139.8550 N   0  0  0  0  0  2  0  0  0  0  0  0
  189.5920  176.3440  139.7570 O   0  0  0  0  0  1  0  0  0  0  0  0
  190.8690  177.8740  140.9940 C   0  0  0  0  0  2  0  0  0  0  0  0
  189.7020  177.5320  140.4690 C   0  0  0  0  0  0  0  0  0  0  0  0
  1 22  1  1  0  0  0
  1 13  1  0  0  0  0
  1  5  1  0  0  0  0
  2  6  1  0  0  0  0
  3  5  1  0  0  0  0
  3  2  2  0  0  0  0
  4  7  1  0  0  0  0
  5  4  2  0  0  0  0
  6  7  2  0  0  0  0
  8  3  1  0  0  0  0
 10 12  1  0  0  0  0
 11 12  1  0  0  0  0
 12  8  1  0  0  0  0
 12  9  1  0  0  0  0
 13 19  1  0  0  0  0
 14 19  2  0  0  0  0
 14 15  1  0  0  0  0
 15 20  2  0  0  0  0
 16 14  1  0  0  0  0
 17 21  2  0  0  0  0
 19 17  1  0  0  0  0
 20 21  1  0  0  0  0
 21 18  1  0  0  0  0
 23 22  1  1  0  0  0
 24 25  2  0  0  0  0
 25 27  1  0  0  0  0
 26 25  1  0  0  0  0
 27 23  1  0  0  0  0
 28 30  1  0  0  0  0
 30 23  1  0  0  0  0
 30 29  2  0  0  0  0
M  END
>  <MODEL>
5

>  <REMARK>
 VINA RESULT:      -7.1      0.998      2.195
  Name = 
  9 active torsions:
  status: ('A' for Active; 'I' for Inactive)
    1  A    between atoms: O_1  and  C_5
    2  A    between atoms: O_1  and  C_22
    3  A    between atoms: C_4  and  C_5
    4  A    between atoms: C_4  and  C_23
    5  A    between atoms: C_5  and  C_12
    6  A    between atoms: C_8  and  N_13
    7  A    between atoms: N_13  and  C_30
    8  A    between atoms: C_23  and  N_25
    9  A    between atoms: C_23  and  C_26
                            x       y       z     vdW  Elec       q    Type
                         _______ _______ _______ _____ _____    ______ ____

>  <TORSDO>
F 9

$$$$
=
 OpenBabel11052412213D

 30 31  0  0  1  0  0  0  0  0999 V2000
  183.7240  178.0950  139.9660 C   0  0  2  0  0  3  0  0  0  0  0  0
  180.0130  177.4470  139.4050 C   0  0  0  0  0  3  0  0  0  0  0  0
  181.2280  178.1230  139.6040 C   0  0  0  0  0  0  0  0  0  0  0  0
  182.3630  175.9780  139.7150 C   0  0  0  0  0  3  0  0  0  0  0  0
  182.4130  177.3800  139.7650 C   0  0  0  0  0  0  0  0  0  0  0  0
  179.9740  176.0530  139.3620 C   0  0  0  0  0  3  0  0  0  0  0  0
  181.1490  175.3180  139.5170 C   0  0  0  0  0  3  0  0  0  0  0  0
  181.2770  179.5580  139.6540 N   0  0  0  0  0  2  0  0  0  0  0  0
  179.6100  181.0660  138.6820 C   0  0  0  0  0  1  0  0  0  0  0  0
  182.0090  181.6060  138.5950 C   0  0  0  0  0  1  0  0  0  0  0  0
  181.1370  179.7630  137.2180 C   0  0  0  0  0  1  0  0  0  0  0  0
  181.0020  180.4770  138.5500 C   0  0  0  0  0  0  0  0  0  0  0  0
  183.6640  179.0520  141.0280 O   0  0  0  0  0  0  0  0  0  0  0  0
  183.1100  179.0750  143.3790 C   0  0  0  0  0  0  0  0  0  0  0  0
  183.4530  178.8630  144.7170 C   0  0  0  0  0  3  0  0  0  0  0  0
  181.8700  179.5290  143.0710 F   0  0  0  0  0  0  0  0  0  0  0  0
  185.3180  178.3520  142.7040 C   0  0  0  0  0  3  0  0  0  0  0  0
  187.0160  177.6440  144.3920 C   0  0  0  0  0  1  0  0  0  0  0  0
  184.0410  178.8260  142.3610 C   0  0  0  0  0  0  0  0  0  0  0  0
  184.7270  178.3960  145.0490 C   0  0  0  0  0  3  0  0  0  0  0  0
  185.6600  178.1400  144.0410 C   0  0  0  0  0  0  0  0  0  0  0  0
  184.3460  178.6650  138.6900 C   0  0  0  0  0  2  0  0  0  0  0  0
  185.5520  177.8410  138.2450 C   0  0  2  0  0  3  0  0  0  0  0  0
  188.3930  177.2030  138.9040 O   0  0  0  0  0  1  0  0  0  0  0  0
  188.0610  178.3830  138.2490 C   0  0  0  0  0  0  0  0  0  0  0  0
  188.9690  179.1940  137.9350 O   0  0  0  0  0  0  0  0  0  0  0  0
  186.7020  178.6820  137.9140 N   0  0  0  0  0  2  0  0  0  0  0  0
  186.0100  175.8340  136.8110 O   0  0  0  0  0  1  0  0  0  0  0  0
  184.1060  177.1440  136.4120 C   0  0  0  0  0  2  0  0  0  0  0  0
  185.2050  176.9240  137.1180 C   0  0  0  0  0  0  0  0  0  0  0  0
  1 22  1  6  0  0  0
  1 13  1  0  0  0  0
  2  3  1  0  0  0  0
  3  8  1  0  0  0  0
  3  5  2  0  0  0  0
  4  5  1  0  0  0  0
  5  1  1  0  0  0  0
  6  2  2  0  0  0  0
  6  7  1  0  0  0  0
  7  4  2  0  0  0  0
 11 12  1  0  0  0  0
 12 10  1  0  0  0  0
 12  9  1  0  0  0  0
 12  8  1  0  0  0  0
 13 19  1  0  0  0  0
 14 15  1  0  0  0  0
 15 20  2  0  0  0  0
 16 14  1  0  0  0  0
 17 21  2  0  0  0  0
 19 17  1  0  0  0  0
 19 14  2  0  0  0  0
 21 18  1  0  0  0  0
 21 20  1  0  0  0  0
 23 22  1  6  0  0  0
 25 24  1  0  0  0  0
 26 25  2  0  0  0  0
 27 23  1  0  0  0  0
 27 25  1  0  0  0  0
 28 30  1  0  0  0  0
 29 30  2  0  0  0  0
 30 23  1  0  0  0  0
M  END
>  <MODEL>
6

>  <REMARK>
 VINA RESULT:      -7.1      3.069      5.265
  Name = 
  9 active torsions:
  status: ('A' for Active; 'I' for Inactive)
    1  A    between atoms: O_1  and  C_5
    2  A    between atoms: O_1  and  C_22
    3  A    between atoms: C_4  and  C_5
    4  A    between atoms: C_4  and  C_23
    5  A    between atoms: C_5  and  C_12
    6  A    between atoms: C_8  and  N_13
    7  A    between atoms: N_13  and  C_30
    8  A    between atoms: C_23  and  N_25
    9  A    between atoms: C_23  and  C_26
                            x       y       z     vdW  Elec       q    Type
                         _______ _______ _______ _____ _____    ______ ____

>  <TORSDO>
F 9

$$$$
=
 OpenBabel11052412213D

 30 31  0  0  1  0  0  0  0  0999 V2000
  187.0240  178.0200  142.0540 C   0  0  2  0  0  3  0  0  0  0  0  0
  187.4460  177.5050  145.8040 C   0  0  0  0  0  3  0  0  0  0  0  0
  187.7260  177.5380  144.4280 C   0  0  0  0  0  0  0  0  0  0  0  0
  185.4770  178.3630  144.0250 C   0  0  0  0  0  3  0  0  0  0  0  0
  186.7290  177.9680  143.5310 C   0  0  0  0  0  0  0  0  0  0  0  0
  186.1950  177.8950  146.2840 C   0  0  0  0  0  3  0  0  0  0  0  0
  185.2100  178.3250  145.3950 C   0  0  0  0  0  3  0  0  0  0  0  0
  189.0100  177.1330  143.9250 N   0  0  0  0  0  2  0  0  0  0  0  0
  190.8230  178.7760  144.0270 C   0  0  0  0  0  1  0  0  0  0  0  0
  190.1560  177.5000  146.0230 C   0  0  0  0  0  1  0  0  0  0  0  0
  191.3130  176.3450  144.1840 C   0  0  0  0  0  1  0  0  0  0  0  0
  190.3110  177.4350  144.5190 C   0  0  0  0  0  0  0  0  0  0  0  0
  188.4270  178.0750  141.7810 O   0  0  0  0  0  0  0  0  0  0  0  0
  189.9500  176.7450  140.4590 C   0  0  0  0  0  0  0  0  0  0  0  0
  190.5750  176.4480  139.2450 C   0  0  0  0  0  3  0  0  0  0  0  0
  190.2380  176.0030  141.5570 F   0  0  0  0  0  0  0  0  0  0  0  0
  188.7500  178.5540  139.3930 C   0  0  0  0  0  3  0  0  0  0  0  0
  189.0690  179.0630  136.9700 C   0  0  0  0  0  1  0  0  0  0  0  0
  189.0350  177.8030  140.5450 C   0  0  0  0  0  0  0  0  0  0  0  0
  190.2890  177.2040  138.1050 C   0  0  0  0  0  3  0  0  0  0  0  0
  189.3750  178.2580  138.1800 C   0  0  0  0  0  0  0  0  0  0  0  0
  186.2280  179.0710  141.2780 C   0  0  0  0  0  2  0  0  0  0  0  0
  185.2680  178.4190  140.2860 C   0  0  2  0  0  3  0  0  0  0  0  0
  184.2410  176.7350  138.0460 O   0  0  0  0  0  1  0  0  0  0  0  0
  185.3230  177.5880  137.8590 C   0  0  0  0  0  0  0  0  0  0  0  0
  185.8780  177.6450  136.7320 O   0  0  0  0  0  0  0  0  0  0  0  0
  185.8040  178.4110  138.9250 N   0  0  0  0  0  2  0  0  0  0  0  0
  183.5970  180.1220  139.5100 O   0  0  0  0  0  1  0  0  0  0  0  0
  183.0010  178.5710  141.1650 C   0  0  0  0  0  2  0  0  0  0  0  0
  183.9150  179.0510  140.3350 C   0  0  0  0  0  0  0  0  0  0  0  0
  1 22  1  1  0  0  0
  1  5  1  0  0  0  0
  2  6  1  0  0  0  0
  3  2  2  0  0  0  0
  4  7  1  0  0  0  0
  5  4  2  0  0  0  0
  5  3  1  0  0  0  0
  7  6  2  0  0  0  0
  8  3  1  0  0  0  0
  8 12  1  0  0  0  0
  9 12  1  0  0  0  0
 11 12  1  0  0  0  0
 12 10  1  0  0  0  0
 13  1  1  0  0  0  0
 14 19  1  0  0  0  0
 14 16  1  0  0  0  0
 15 14  2  0  0  0  0
 17 19  2  0  0  0  0
 18 21  1  0  0  0  0
 19 13  1  0  0  0  0
 20 21  2  0  0  0  0
 20 15  1  0  0  0  0
 21 17  1  0  0  0  0
 23 30  1  0  0  0  0
 23 22  1  1  0  0  0
 25 24  1  0  0  0  0
 25 27  1  0  0  0  0
 26 25  2  0  0  0  0
 27 23  1  0  0  0  0
 28 30  1  0  0  0  0
 30 29  2  0  0  0  0
M  END
>  <MODEL>
7

>  <REMARK>
 VINA RESULT:      -7.0      2.223      5.781
  Name = 
  9 active torsions:
  status: ('A' for Active; 'I' for Inactive)
    1  A    between atoms: O_1  and  C_5
    2  A    between atoms: O_1  and  C_22
    3  A    between atoms: C_4  and  C_5
    4  A    between atoms: C_4  and  C_23
    5  A    between atoms: C_5  and  C_12
    6  A    between atoms: C_8  and  N_13
    7  A    between atoms: N_13  and  C_30
    8  A    between atoms: C_23  and  N_25
    9  A    between atoms: C_23  and  C_26
                            x       y       z     vdW  Elec       q    Type
                         _______ _______ _______ _____ _____    ______ ____

>  <TORSDO>
F 9

$$$$
=
 OpenBabel11052412213D

 30 31  0  0  1  0  0  0  0  0999 V2000
  187.6960  177.5920  141.8200 C   0  0  2  0  0  3  0  0  0  0  0  0
  186.9920  177.5040  145.5620 C   0  0  0  0  0  3  0  0  0  0  0  0
  187.6460  177.3430  144.3290 C   0  0  0  0  0  0  0  0  0  0  0  0
  185.7150  178.3120  143.2180 C   0  0  0  0  0  3  0  0  0  0  0  0
  186.9980  177.7480  143.1470 C   0  0  0  0  0  0  0  0  0  0  0  0
  185.7140  178.0610  145.6210 C   0  0  0  0  0  3  0  0  0  0  0  0
  185.0750  178.4660  144.4490 C   0  0  0  0  0  3  0  0  0  0  0  0
  188.9600  176.7660  144.2590 N   0  0  0  0  0  2  0  0  0  0  0  0
  191.3630  176.4210  144.5810 C   0  0  0  0  0  1  0  0  0  0  0  0
  190.3410  178.6300  144.9430 C   0  0  0  0  0  1  0  0  0  0  0  0
  189.8720  176.8100  146.5310 C   0  0  0  0  0  1  0  0  0  0  0  0
  190.1190  177.1380  145.0700 C   0  0  0  0  0  0  0  0  0  0  0  0
  189.0960  177.3320  141.9690 O   0  0  0  0  0  0  0  0  0  0  0  0
  191.3120  177.6150  141.0520 C   0  0  0  0  0  0  0  0  0  0  0  0
  192.2450  177.4230  140.0290 C   0  0  0  0  0  3  0  0  0  0  0  0
  191.6780  178.2900  142.1700 F   0  0  0  0  0  0  0  0  0  0  0  0
  189.6550  176.4190  139.7580 C   0  0  0  0  0  3  0  0  0  0  0  0
  190.2000  175.4900  137.5060 C   0  0  0  0  0  1  0  0  0  0  0  0
  190.0080  177.1190  140.9230 C   0  0  0  0  0  0  0  0  0  0  0  0
  191.8840  176.7290  138.8710 C   0  0  0  0  0  3  0  0  0  0  0  0
  190.5870  176.2270  138.7360 C   0  0  0  0  0  0  0  0  0  0  0  0
  187.4050  178.7010  140.8080 C   0  0  0  0  0  2  0  0  0  0  0  0
  186.5580  178.1850  139.6480 C   0  0  2  0  0  3  0  0  0  0  0  0
  185.8330  176.8950  137.0550 O   0  0  0  0  0  1  0  0  0  0  0  0
  186.8020  177.8900  137.1100 C   0  0  0  0  0  0  0  0  0  0  0  0
  187.3840  178.2470  136.0540 O   0  0  0  0  0  0  0  0  0  0  0  0
  187.1370  178.5240  138.3480 N   0  0  0  0  0  2  0  0  0  0  0  0
  184.8100  179.9810  139.5290 O   0  0  0  0  0  1  0  0  0  0  0  0
  184.1880  177.7800  140.0450 C   0  0  0  0  0  2  0  0  0  0  0  0
  185.1420  178.6510  139.7520 C   0  0  0  0  0  0  0  0  0  0  0  0
  1 22  1  6  0  0  0
  1 13  1  0  0  0  0
  1  5  1  0  0  0  0
  2  6  1  0  0  0  0
  3  2  2  0  0  0  0
  4  7  1  0  0  0  0
  5  4  2  0  0  0  0
  5  3  1  0  0  0  0
  7  6  2  0  0  0  0
  8  3  1  0  0  0  0
  8 12  1  0  0  0  0
  9 12  1  0  0  0  0
 10 12  1  0  0  0  0
 12 11  1  0  0  0  0
 14 16  1  0  0  0  0
 15 14  2  0  0  0  0
 17 19  2  0  0  0  0
 18 21  1  0  0  0  0
 19 14  1  0  0  0  0
 19 13  1  0  0  0  0
 20 15  1  0  0  0  0
 21 20  2  0  0  0  0
 21 17  1  0  0  0  0
 23 30  1  0  0  0  0
 23 22  1  1  0  0  0
 24 25  1  0  0  0  0
 25 27  1  0  0  0  0
 26 25  2  0  0  0  0
 27 23  1  0  0  0  0
 28 30  1  0  0  0  0
 30 29  2  0  0  0  0
M  END
>  <MODEL>
8

>  <REMARK>
 VINA RESULT:      -7.0      2.112      5.469
  Name = 
  9 active torsions:
  status: ('A' for Active; 'I' for Inactive)
    1  A    between atoms: O_1  and  C_5
    2  A    between atoms: O_1  and  C_22
    3  A    between atoms: C_4  and  C_5
    4  A    between atoms: C_4  and  C_23
    5  A    between atoms: C_5  and  C_12
    6  A    between atoms: C_8  and  N_13
    7  A    between atoms: N_13  and  C_30
    8  A    between atoms: C_23  and  N_25
    9  A    between atoms: C_23  and  C_26
                            x       y       z     vdW  Elec       q    Type
                         _______ _______ _______ _____ _____    ______ ____

>  <TORSDO>
F 9

$$$$
=
 OpenBabel11052412213D

 30 31  0  0  1  0  0  0  0  0999 V2000
  187.6370  177.2170  143.5410 C   0  0  2  0  0  3  0  0  0  0  0  0
  184.9340  178.8370  141.4040 C   0  0  0  0  0  3  0  0  0  0  0  0
  185.5870  178.2530  142.5020 C   0  0  0  0  0  0  0  0  0  0  0  0
  187.5840  178.0090  141.1400 C   0  0  0  0  0  3  0  0  0  0  0  0
  186.9230  177.8320  142.3660 C   0  0  0  0  0  0  0  0  0  0  0  0
  185.5990  179.0040  140.1880 C   0  0  0  0  0  3  0  0  0  0  0  0
  186.9240  178.5910  140.0560 C   0  0  0  0  0  3  0  0  0  0  0  0
  184.9080  178.0730  143.7560 N   0  0  0  0  0  2  0  0  0  0  0  0
  182.6340  178.9780  143.7040 C   0  0  0  0  0  1  0  0  0  0  0  0
  183.8040  178.6170  145.8380 C   0  0  0  0  0  1  0  0  0  0  0  0
  184.5510  180.4240  144.3440 C   0  0  0  0  0  1  0  0  0  0  0  0
  183.9870  179.0150  144.3890 C   0  0  0  0  0  0  0  0  0  0  0  0
  188.1210  178.2010  144.4610 O   0  0  0  0  0  0  0  0  0  0  0  0
  187.6600  178.2950  146.8300 C   0  0  0  0  0  0  0  0  0  0  0  0
  188.0360  178.0710  148.1580 C   0  0  0  0  0  3  0  0  0  0  0  0
  186.4480  178.8410  146.5620 F   0  0  0  0  0  0  0  0  0  0  0  0
  189.7770  177.3920  146.0850 C   0  0  0  0  0  3  0  0  0  0  0  0
  191.4770  176.5720  147.7190 C   0  0  0  0  0  1  0  0  0  0  0  0
  188.5290  177.9610  145.7820 C   0  0  0  0  0  0  0  0  0  0  0  0
  189.2810  177.5100  148.4490 C   0  0  0  0  0  3  0  0  0  0  0  0
  190.1520  177.1700  147.4110 C   0  0  0  0  0  0  0  0  0  0  0  0
  188.6990  176.1780  143.1760 C   0  0  0  0  0  2  0  0  0  0  0  0
  189.8060  176.7920  142.3230 C   0  0  2  0  0  3  0  0  0  0  0  0
  190.8190  177.8820  139.7360 O   0  0  0  0  0  1  0  0  0  0  0  0
  190.5530  176.5260  139.8830 C   0  0  0  0  0  0  0  0  0  0  0  0
  190.7370  175.7490  138.9100 O   0  0  0  0  0  0  0  0  0  0  0  0
  190.0870  175.9980  141.1280 N   0  0  0  0  0  2  0  0  0  0  0  0
  191.7110  175.9790  143.7390 O   0  0  0  0  0  1  0  0  0  0  0  0
  191.5260  178.2610  143.2310 C   0  0  0  0  0  2  0  0  0  0  0  0
  191.0460  177.0310  143.1230 C   0  0  0  0  0  0  0  0  0  0  0  0
  1 22  1  6  0  0  0
  1 13  1  0  0  0  0
  2  3  1  0  0  0  0
  3  8  1  0  0  0  0
  4  5  1  0  0  0  0
  5  3  2  0  0  0  0
  5  1  1  0  0  0  0
  6  2  2  0  0  0  0
  7  6  1  0  0  0  0
  7  4  2  0  0  0  0
  8 12  1  0  0  0  0
  9 12  1  0  0  0  0
 11 12  1  0  0  0  0
 12 10  1  0  0  0  0
 13 19  1  0  0  0  0
 14 15  1  0  0  0  0
 15 20  2  0  0  0  0
 16 14  1  0  0  0  0
 17 21  2  0  0  0  0
 19 17  1  0  0  0  0
 19 14  2  0  0  0  0
 21 18  1  0  0  0  0
 21 20  1  0  0  0  0
 23 30  1  0  0  0  0
 23 22  1  1  0  0  0
 24 25  1  0  0  0  0
 25 27  1  0  0  0  0
 26 25  2  0  0  0  0
 27 23  1  0  0  0  0
 30 29  2  0  0  0  0
 30 28  1  0  0  0  0
M  END
>  <MODEL>
9

>  <REMARK>
 VINA RESULT:      -7.0      1.965      3.830
  Name = 
  9 active torsions:
  status: ('A' for Active; 'I' for Inactive)
    1  A    between atoms: O_1  and  C_5
    2  A    between atoms: O_1  and  C_22
    3  A    between atoms: C_4  and  C_5
    4  A    between atoms: C_4  and  C_23
    5  A    between atoms: C_5  and  C_12
    6  A    between atoms: C_8  and  N_13
    7  A    between atoms: N_13  and  C_30
    8  A    between atoms: C_23  and  N_25
    9  A    between atoms: C_23  and  C_26
                            x       y       z     vdW  Elec       q    Type
                         _______ _______ _______ _____ _____    ______ ____

>  <TORSDO>
F 9

$$$$
