=
 OpenBabel11052414553D

 55 59  0  0  1  0  0  0  0  0999 V2000
  179.4770  177.1400  140.8950 C   0  0  0  0  0  2  0  0  0  0  0  0
  184.8250  179.8960  138.8320 O   0  0  0  0  0  0  0  0  0  0  0  0
  186.3320  177.4440  136.6070 N   0  0  0  0  0  2  0  0  0  0  0  0
  186.0560  174.6830  135.3760 C   0  0  0  0  0  3  0  0  0  0  0  0
  185.4030  173.7280  134.5940 C   0  0  0  0  0  3  0  0  0  0  0  0
  184.1720  174.7280  136.9110 C   0  0  0  0  0  0  0  0  0  0  0  0
  183.5250  173.7670  136.1170 C   0  0  0  0  0  3  0  0  0  0  0  0
  187.4900  175.6970  137.8730 C   0  0  0  0  0  1  0  0  0  0  0  0
  184.1370  173.2690  134.9650 C   0  0  0  0  0  3  0  0  0  0  0  0
  185.4510  175.1820  136.5410 C   0  0  0  0  0  0  0  0  0  0  0  0
  180.0850  179.4050  140.8710 C   0  0  1  0  0  3  0  0  0  0  0  0
  180.6460  174.9560  140.4130 C   0  0  0  0  0  2  0  0  0  0  0  0
  180.4090  180.4290  139.7840 C   0  0  0  0  0  2  0  0  0  0  0  0
  181.9760  175.4460  139.8520 C   0  0  0  0  0  2  0  0  0  0  0  0
  181.9030  180.6900  139.6120 C   0  0  0  0  0  2  0  0  0  0  0  0
  183.5620  175.2460  138.0620 O   0  0  0  0  0  0  0  0  0  0  0  0
  184.9110  179.1160  137.6670 C   0  0  0  0  0  2  0  0  0  0  0  0
  186.3150  178.5540  137.5480 C   0  0  0  0  0  2  0  0  0  0  0  0
  183.7300  179.4440  139.6020 C   0  0  1  0  0  3  0  0  0  0  0  0
  179.4980  175.8850  140.0360 C   0  0  0  0  0  2  0  0  0  0  0  0
  186.1500  176.2170  137.3720 C   0  0  2  0  0  3  0  0  0  0  0  0
  180.5090  178.0720  140.4650 N   0  0  0  0  0  2  0  0  0  0  0  0
  182.5140  179.6320  138.9350 O   0  0  0  0  0  0  0  0  0  0  0  0
  182.2000  175.0060  138.4080 C   0  0  2  0  0  3  0  0  0  0  0  0
  180.6970  177.8350  134.7550 C   0  0  0  0  0  2  0  0  0  0  0  0
  181.3040  175.7510  137.4680 C   0  0  0  0  0  0  0  0  0  0  0  0
  180.3560  179.8290  136.1940 C   0  0  0  0  0  1  0  0  0  0  0  0
  180.3170  177.3270  136.1250 C   0  0  2  0  0  0  0  0  0  0  0  0
  180.2420  175.2000  136.8890 C   0  0  0  0  0  3  0  0  0  0  0  0
  179.6030  176.1150  136.0670 O   0  0  0  0  0  0  0  0  0  0  0  0
  179.6860  178.6040  135.6020 C   0  0  2  0  0  3  0  0  0  0  0  0
  181.4960  177.1810  137.0670 C   0  0  0  0  0  2  0  0  0  0  0  0
  183.8830  177.9980  140.0670 C   0  0  0  0  0  2  0  0  0  0  0  0
  184.0070  177.9260  141.5800 C   0  0  0  0  0  2  0  0  0  0  0  0
  186.2730  176.6610  143.6050 C   0  0  0  0  0  1  0  0  0  0  0  0
  185.9320  179.3330  141.5260 C   0  0  0  0  0  2  0  0  0  0  0  0
  185.9970  179.0010  144.1760 C   0  0  2  0  0  3  0  0  0  0  0  0
  184.5900  179.1580  142.0980 N   0  0  0  0  0  0  0  0  0  0  0  0
  184.5910  179.1060  143.5710 C   0  0  0  0  0  2  0  0  0  0  0  0
  186.8370  178.0010  143.4890 N   0  0  0  0  0  0  0  0  0  0  0  0
  186.9520  178.2950  142.0520 C   0  0  2  0  0  3  0  0  0  0  0  0
  187.0690  177.9440  146.1970 C   0  0  0  0  0  1  0  0  0  0  0  0
  184.6540  178.5530  146.3070 C   0  0  0  0  0  1  0  0  0  0  0  0
  186.0060  178.9100  145.7090 C   0  0  0  0  0  3  0  0  0  0  0  0
  188.2490  178.7260  141.7660 O   0  0  0  0  0  0  0  0  0  0  0  0
  188.7480  177.7960  140.8480 C   0  0  0  0  0  2  0  0  0  0  0  0
  190.0130  177.1410  141.3840 C   0  0  2  0  0  3  0  0  0  0  0  0
  190.4730  176.1830  140.4770 O   0  0  0  0  0  1  0  0  0  0  0  0
  189.7610  176.5360  142.6180 O   0  0  0  0  0  0  0  0  0  0  0  0
  190.8600  178.0060  144.1300 C   0  0  0  0  0  1  0  0  0  0  0  0
  190.9380  176.7100  143.3490 C   0  0  0  0  0  2  0  0  0  0  0  0
  180.7080  179.7960  142.2110 C   0  0  0  0  0  2  0  0  0  0  0  0
  179.7120  179.9680  143.2090 O   0  0  0  0  0  0  0  0  0  0  0  0
  179.0970  178.0760  144.7670 N   0  0  0  0  0  0  0  0  0  0  0  0
  179.3800  178.9420  144.0520 C   0  0  0  0  0  0  0  0  0  0  0  0
  2 19  1  0  0  0  0
  3 21  1  0  0  0  0
  3 18  1  0  0  0  0
  4 10  1  0  0  0  0
  5  9  1  0  0  0  0
  5  4  2  0  0  0  0
  6 16  1  0  0  0  0
  7  6  1  0  0  0  0
  9  7  2  0  0  0  0
 10  6  2  0  0  0  0
 10 21  1  0  0  0  0
 11 52  1  1  0  0  0
 13 11  1  0  0  0  0
 14 12  1  0  0  0  0
 15 13  1  0  0  0  0
 16 24  1  0  0  0  0
 17  2  1  0  0  0  0
 18 17  1  0  0  0  0
 19 33  1  6  0  0  0
 20 12  1  0  0  0  0
 20  1  1  0  0  0  0
 21  8  1  6  0  0  0
 22 11  1  0  0  0  0
 22  1  1  0  0  0  0
 23 19  1  0  0  0  0
 23 15  1  0  0  0  0
 24 26  1  6  0  0  0
 24 14  1  0  0  0  0
 25 31  1  0  0  0  0
 28 25  1  6  0  0  0
 28 32  1  0  0  0  0
 29 26  2  0  0  0  0
 30 28  1  0  0  0  0
 30 29  1  0  0  0  0
 31 28  1  0  0  0  0
 31 27  1  1  0  0  0
 32 26  1  0  0  0  0
 33 34  1  0  0  0  0
 34 38  1  0  0  0  0
 36 41  1  0  0  0  0
 36 38  1  0  0  0  0
 37 44  1  1  0  0  0
 38 39  1  0  0  0  0
 39 37  1  0  0  0  0
 40 35  1  0  0  0  0
 40 37  1  0  0  0  0
 41 45  1  1  0  0  0
 41 40  1  0  0  0  0
 44 42  1  0  0  0  0
 44 43  1  0  0  0  0
 46 47  1  0  0  0  0
 46 45  1  0  0  0  0
 47 48  1  6  0  0  0
 47 49  1  0  0  0  0
 49 51  1  0  0  0  0
 51 50  1  0  0  0  0
 52 53  1  0  0  0  0
 53 55  1  0  0  0  0
 55 54  3  0  0  0  0
M  END
>  <MODEL>
1

>  <REMARK>
 VINA RESULT:      -5.4      0.000      0.000
  Name = 
  13 active torsions:
  status: ('A' for Active; 'I' for Inactive)
    1  A    between atoms: C_3  and  C_6
    2  A    between atoms: C_3  and  O_21
    3  A    between atoms: C_6  and  O_25
    4  A    between atoms: C_8  and  N_20
    5  A    between atoms: C_8  and  C_22
    6  A    between atoms: C_12  and  C_50
    7  A    between atoms: C_13  and  C_52
    8  A    between atoms: O_21  and  C_53
    9  A    between atoms: C_22  and  C_43
   10  A    between atoms: O_25  and  C_38
   11  A    between atoms: C_27  and  C_54
   12  A    between atoms: C_41  and  O_55
   13  A    between atoms: C_54  and  O_55
                            x       y       z     vdW  Elec       q    Type
                         _______ _______ _______ _____ _____    ______ ____

>  <TORSDO>
F 13

$$$$
