=
 OpenBabel11052415223D

 37 40  0  0  1  0  0  0  0  0999 V2000
  188.9440  177.0200  138.2670 C   0  0  2  0  0  3  0  0  0  0  0  0
  187.2590  178.5920  140.9730 C   0  0  0  0  0  2  0  0  0  0  0  0
  190.4130  176.6890  138.1820 C   0  0  1  0  0  3  0  0  0  0  0  0
  188.4740  177.1320  139.5640 O   0  0  0  0  0  0  0  0  0  0  0  0
  191.2610  177.0950  139.3260 N   0  0  0  0  0  0  0  0  0  0  0  0
  187.4580  178.0930  139.5370 C   0  0  1  0  0  3  0  0  0  0  0  0
  190.4050  175.2060  137.8790 C   0  0  0  0  0  2  0  0  0  0  0  0
  192.6940  176.9650  139.1960 C   0  0  0  0  0  0  0  0  0  0  0  0
  187.0540  176.0850  136.9030 C   0  0  0  0  0  2  0  0  0  0  0  0
  189.2430  174.9650  137.1240 O   0  0  0  0  0  0  0  0  0  0  0  0
  193.4580  177.6370  139.9370 O   0  0  0  0  0  0  0  0  0  0  0  0
  188.5840  178.8850  141.6970 C   0  0  0  0  0  2  0  0  0  0  0  0
  188.2840  175.7730  137.7490 C   0  0  1  0  0  3  0  0  0  0  0  0
  190.7840  177.9860  140.2480 O   0  0  0  0  0  0  0  0  0  0  0  0
  186.1550  177.4890  138.9280 C   0  0  2  0  0  3  0  0  0  0  0  0
  189.3370  177.6290  142.2080 C   0  0  2  0  0  3  0  0  0  0  0  0
  190.6540  177.2910  141.4670 C   0  0  2  0  0  3  0  0  0  0  0  0
  186.2610  177.3180  137.3940 C   0  0  0  0  0  2  0  0  0  0  0  0
  184.6330  179.4140  138.4420 C   0  0  0  0  0  3  0  0  0  0  0  0
  184.9360  178.3070  139.2430 C   0  0  0  0  0  0  0  0  0  0  0  0
  184.1000  177.9820  140.3230 C   0  0  0  0  0  3  0  0  0  0  0  0
  182.1640  178.4430  141.6360 F   0  0  0  0  0  0  0  0  0  0  0  0
  182.6720  179.8640  139.7890 C   0  0  0  0  0  3  0  0  0  0  0  0
  182.9690  178.7600  140.5930 C   0  0  0  0  0  0  0  0  0  0  0  0
  183.5030  180.1910  138.7140 C   0  0  0  0  0  3  0  0  0  0  0  0
  189.2140  175.3090  142.8920 O   0  0  0  0  0  1  0  0  0  0  0  0
  188.4480  176.4010  142.4760 C   0  0  1  0  0  3  0  0  0  0  0  0
  187.4150  176.7230  143.5440 C   0  0  0  0  0  2  0  0  0  0  0  0
  188.1030  177.1780  144.8150 C   0  0  0  0  0  1  0  0  0  0  0  0
  191.8300  177.6490  142.3700 C   0  0  0  0  0  2  0  0  0  0  0  0
  191.3640  178.1250  143.7340 C   0  0  2  0  0  3  0  0  0  0  0  0
  192.0180  179.2950  144.0740 F   0  0  0  0  0  0  0  0  0  0  0  0
  191.6820  177.0630  144.7670 C   0  0  0  0  0  1  0  0  0  0  0  0
  193.3130  176.0900  138.1530 C   0  0  0  0  0  2  0  0  0  0  0  0
  194.5530  175.6340  138.6000 O   0  0  0  0  0  0  0  0  0  0  0  0
  195.4120  173.5730  139.0540 O   0  0  0  0  0  1  0  0  0  0  0  0
  194.6080  174.3050  138.1810 C   0  0  0  0  0  2  0  0  0  0  0  0
  1  4  1  1  0  0  0
  2 12  1  0  0  0  0
  3  7  1  1  0  0  0
  3  1  1  0  0  0  0
  3  5  1  0  0  0  0
  5 14  1  0  0  0  0
  6  4  1  0  0  0  0
  6  2  1  1  0  0  0
  8  5  1  0  0  0  0
  8 11  2  0  0  0  0
  9 18  1  0  0  0  0
 10 13  1  0  0  0  0
 10  7  1  0  0  0  0
 12 16  1  0  0  0  0
 13  9  1  6  0  0  0
 13  1  1  0  0  0  0
 14 17  1  0  0  0  0
 15 20  1  6  0  0  0
 15  6  1  0  0  0  0
 16 27  1  6  0  0  0
 17 16  1  0  0  0  0
 17 30  1  1  0  0  0
 18 15  1  0  0  0  0
 19 25  2  0  0  0  0
 19 20  1  0  0  0  0
 20 21  2  0  0  0  0
 21 24  1  0  0  0  0
 23 24  2  0  0  0  0
 24 22  1  0  0  0  0
 25 23  1  0  0  0  0
 27 26  1  1  0  0  0
 27 28  1  0  0  0  0
 28 29  1  0  0  0  0
 30 31  1  0  0  0  0
 31 32  1  0  0  0  0
 31 33  1  1  0  0  0
 34 35  1  0  0  0  0
 34  8  1  0  0  0  0
 37 35  1  0  0  0  0
 37 36  1  0  0  0  0
M  END
>  <MODEL>
1

>  <REMARK>
 VINA RESULT:      -6.5      0.000      0.000
  Name = 
  8 active torsions:
  status: ('A' for Active; 'I' for Inactive)
    1  A    between atoms: C_1  and  C_5
    2  A    between atoms: C_1  and  C_36
    3  A    between atoms: O_3  and  C_30
    4  A    between atoms: O_3  and  C_32
    5  A    between atoms: C_6  and  C_31
    6  A    between atoms: C_11  and  C_26
    7  A    between atoms: C_20  and  C_30
    8  A    between atoms: C_26  and  C_33
                            x       y       z     vdW  Elec       q    Type
                         _______ _______ _______ _____ _____    ______ ____

>  <TORSDO>
F 8

$$$$
=
 OpenBabel11052415223D

 37 40  0  0  1  0  0  0  0  0999 V2000
  190.4120  177.1280  138.1230 C   0  0  2  0  0  3  0  0  0  0  0  0
  191.5870  175.3230  135.2960 C   0  0  0  0  0  2  0  0  0  0  0  0
  188.9930  177.5580  138.4000 C   0  0  1  0  0  3  0  0  0  0  0  0
  190.5070  176.0390  137.2740 O   0  0  0  0  0  0  0  0  0  0  0  0
  187.9790  177.2340  137.3710 N   0  0  0  0  0  0  0  0  0  0  0  0
  191.6900  176.2050  136.5460 C   0  0  1  0  0  3  0  0  0  0  0  0
  188.7290  176.9740  139.7720 C   0  0  0  0  0  2  0  0  0  0  0  0
  186.6550  177.7940  137.5150 C   0  0  0  0  0  0  0  0  0  0  0  0
  192.3280  176.9420  139.7370 C   0  0  0  0  0  2  0  0  0  0  0  0
  189.9640  176.9790  140.4470 O   0  0  0  0  0  0  0  0  0  0  0  0
  185.8980  177.8870  136.5130 O   0  0  0  0  0  0  0  0  0  0  0  0
  190.2220  175.4310  134.5940 C   0  0  0  0  0  2  0  0  0  0  0  0
  190.8700  176.5930  139.4510 C   0  0  1  0  0  3  0  0  0  0  0  0
  188.3760  176.8490  136.1200 O   0  0  0  0  0  0  0  0  0  0  0  0
  192.9260  175.8490  137.4290 C   0  0  2  0  0  3  0  0  0  0  0  0
  189.0760  174.6430  135.2780 C   0  0  2  0  0  3  0  0  0  0  0  0
  187.9820  175.5050  135.9560 C   0  0  2  0  0  3  0  0  0  0  0  0
  193.2220  176.9490  138.4760 C   0  0  0  0  0  2  0  0  0  0  0  0
  194.6110  176.6000  135.7390 C   0  0  0  0  0  3  0  0  0  0  0  0
  194.1650  175.6060  136.6160 C   0  0  0  0  0  0  0  0  0  0  0  0
  194.8800  174.4020  136.7230 C   0  0  0  0  0  3  0  0  0  0  0  0
  196.7210  173.0390  136.0620 F   0  0  0  0  0  0  0  0  0  0  0  0
  196.4730  175.1990  135.0820 C   0  0  0  0  0  3  0  0  0  0  0  0
  196.0330  174.2010  135.9560 C   0  0  0  0  0  0  0  0  0  0  0  0
  195.7630  176.3980  134.9720 C   0  0  0  0  0  3  0  0  0  0  0  0
  188.6950  173.2720  137.2380 O   0  0  0  0  0  1  0  0  0  0  0  0
  189.5270  173.4420  136.1290 C   0  0  1  0  0  3  0  0  0  0  0  0
  189.5150  172.1720  135.2930 C   0  0  0  0  0  2  0  0  0  0  0  0
  190.9310  171.7730  134.9310 C   0  0  0  0  0  1  0  0  0  0  0  0
  186.7210  175.4590  135.0990 C   0  0  0  0  0  2  0  0  0  0  0  0
  185.6480  174.5880  135.7280 C   0  0  2  0  0  3  0  0  0  0  0  0
  185.8350  174.5230  137.0970 F   0  0  0  0  0  0  0  0  0  0  0  0
  185.7380  173.1920  135.1500 C   0  0  0  0  0  1  0  0  0  0  0  0
  186.1660  178.3310  138.8210 C   0  0  0  0  0  2  0  0  0  0  0  0
  185.0870  179.1880  138.6010 O   0  0  0  0  0  0  0  0  0  0  0  0
  185.3640  179.5410  140.8340 O   0  0  0  0  0  1  0  0  0  0  0  0
  184.4370  179.2550  139.8330 C   0  0  0  0  0  2  0  0  0  0  0  0
  1  4  1  6  0  0  0
  1  3  1  0  0  0  0
  1 13  1  0  0  0  0
  3  7  1  1  0  0  0
  5  8  1  0  0  0  0
  5  3  1  0  0  0  0
  6  2  1  6  0  0  0
  6  4  1  0  0  0  0
  6 15  1  0  0  0  0
  7 10  1  0  0  0  0
  8 34  1  0  0  0  0
 11  8  2  0  0  0  0
 12 16  1  0  0  0  0
 12  2  1  0  0  0  0
 13  9  1  1  0  0  0
 13 10  1  0  0  0  0
 14  5  1  0  0  0  0
 15 20  1  6  0  0  0
 15 18  1  0  0  0  0
 16 17  1  0  0  0  0
 16 27  1  1  0  0  0
 17 30  1  6  0  0  0
 17 14  1  0  0  0  0
 18  9  1  0  0  0  0
 19 20  1  0  0  0  0
 20 21  2  0  0  0  0
 23 24  2  0  0  0  0
 24 22  1  0  0  0  0
 24 21  1  0  0  0  0
 25 23  1  0  0  0  0
 25 19  2  0  0  0  0
 27 26  1  1  0  0  0
 28 27  1  0  0  0  0
 29 28  1  0  0  0  0
 30 31  1  0  0  0  0
 31 33  1  6  0  0  0
 31 32  1  0  0  0  0
 35 34  1  0  0  0  0
 35 37  1  0  0  0  0
 37 36  1  0  0  0  0
M  END
>  <MODEL>
2

>  <REMARK>
 VINA RESULT:      -5.6      3.339      9.056
  Name = 
  8 active torsions:
  status: ('A' for Active; 'I' for Inactive)
    1  A    between atoms: C_1  and  C_5
    2  A    between atoms: C_1  and  C_36
    3  A    between atoms: O_3  and  C_30
    4  A    between atoms: O_3  and  C_32
    5  A    between atoms: C_6  and  C_31
    6  A    between atoms: C_11  and  C_26
    7  A    between atoms: C_20  and  C_30
    8  A    between atoms: C_26  and  C_33
                            x       y       z     vdW  Elec       q    Type
                         _______ _______ _______ _____ _____    ______ ____

>  <TORSDO>
F 8

$$$$
=
 OpenBabel11052415223D

 37 40  0  0  1  0  0  0  0  0999 V2000
  189.9410  177.4680  139.1280 C   0  0  2  0  0  3  0  0  0  0  0  0
  190.4300  176.0180  135.9210 C   0  0  0  0  0  2  0  0  0  0  0  0
  188.6460  177.9900  139.7010 C   0  0  1  0  0  3  0  0  0  0  0  0
  189.7660  176.5210  138.1340 O   0  0  0  0  0  0  0  0  0  0  0  0
  187.4540  177.9350  138.8260 N   0  0  0  0  0  0  0  0  0  0  0  0
  190.8340  176.6790  137.2430 C   0  0  1  0  0  3  0  0  0  0  0  0
  188.5270  177.2290  141.0040 C   0  0  0  0  0  2  0  0  0  0  0  0
  186.2480  178.5950  139.2700 C   0  0  0  0  0  0  0  0  0  0  0  0
  192.0450  176.8400  140.3490 C   0  0  0  0  0  2  0  0  0  0  0  0
  189.8420  177.0040  141.4510 O   0  0  0  0  0  0  0  0  0  0  0  0
  185.3630  178.9190  138.4350 O   0  0  0  0  0  0  0  0  0  0  0  0
  188.9970  176.3710  135.4840 C   0  0  0  0  0  2  0  0  0  0  0  0
  190.5290  176.6890  140.2710 C   0  0  1  0  0  3  0  0  0  0  0  0
  187.6010  177.7110  137.4840 O   0  0  0  0  0  0  0  0  0  0  0  0
  192.1380  176.0670  137.8440 C   0  0  2  0  0  3  0  0  0  0  0  0
  187.8810  175.6050  136.2400 C   0  0  2  0  0  3  0  0  0  0  0  0
  187.0210  176.4560  137.2070 C   0  0  2  0  0  3  0  0  0  0  0  0
  192.7270  176.9540  138.9660 C   0  0  0  0  0  2  0  0  0  0  0  0
  193.4580  174.5210  136.3870 C   0  0  0  0  0  3  0  0  0  0  0  0
  193.1960  175.8300  136.8050 C   0  0  0  0  0  0  0  0  0  0  0  0
  193.9220  176.8950  136.2490 C   0  0  0  0  0  3  0  0  0  0  0  0
  195.5990  177.6770  134.7460 F   0  0  0  0  0  0  0  0  0  0  0  0
  195.1580  175.3370  134.8670 C   0  0  0  0  0  3  0  0  0  0  0  0
  194.9000  176.6470  135.2810 C   0  0  0  0  0  0  0  0  0  0  0  0
  194.4380  174.2740  135.4200 C   0  0  0  0  0  3  0  0  0  0  0  0
  187.3620  173.7810  137.7470 O   0  0  0  0  0  1  0  0  0  0  0  0
  188.3050  174.2470  136.8270 C   0  0  1  0  0  3  0  0  0  0  0  0
  188.4700  173.2220  135.7160 C   0  0  0  0  0  2  0  0  0  0  0  0
  187.1230  172.8990  135.1020 C   0  0  0  0  0  1  0  0  0  0  0  0
  185.6480  176.6710  136.5810 C   0  0  0  0  0  2  0  0  0  0  0  0
  184.6100  175.7330  137.1710 C   0  0  2  0  0  3  0  0  0  0  0  0
  184.5850  174.5490  136.4580 F   0  0  0  0  0  0  0  0  0  0  0  0
  183.2460  176.3860  137.0920 C   0  0  0  0  0  1  0  0  0  0  0  0
  186.0370  178.9680  140.7020 C   0  0  0  0  0  2  0  0  0  0  0  0
  184.7150  179.3700  140.8920 O   0  0  0  0  0  0  0  0  0  0  0  0
  184.7310  178.1970  142.8450 O   0  0  0  0  0  1  0  0  0  0  0  0
  184.1280  178.3170  141.5940 C   0  0  0  0  0  2  0  0  0  0  0  0
  1  4  1  6  0  0  0
  1  3  1  0  0  0  0
  1 13  1  0  0  0  0
  3  7  1  1  0  0  0
  5  8  1  0  0  0  0
  5  3  1  0  0  0  0
  6  2  1  6  0  0  0
  6 15  1  0  0  0  0
  6  4  1  0  0  0  0
  7 10  1  0  0  0  0
  8 34  1  0  0  0  0
 11  8  2  0  0  0  0
 12  2  1  0  0  0  0
 12 16  1  0  0  0  0
 13  9  1  1  0  0  0
 13 10  1  0  0  0  0
 14  5  1  0  0  0  0
 15 20  1  6  0  0  0
 15 18  1  0  0  0  0
 16 27  1  1  0  0  0
 16 17  1  0  0  0  0
 17 30  1  6  0  0  0
 17 14  1  0  0  0  0
 18  9  1  0  0  0  0
 19 20  1  0  0  0  0
 21 20  2  0  0  0  0
 22 24  1  0  0  0  0
 23 24  2  0  0  0  0
 23 25  1  0  0  0  0
 24 21  1  0  0  0  0
 25 19  2  0  0  0  0
 27 26  1  1  0  0  0
 28 27  1  0  0  0  0
 29 28  1  0  0  0  0
 30 31  1  0  0  0  0
 31 33  1  6  0  0  0
 32 31  1  0  0  0  0
 34 35  1  0  0  0  0
 35 37  1  0  0  0  0
 37 36  1  0  0  0  0
M  END
>  <MODEL>
3

>  <REMARK>
 VINA RESULT:      -5.5      3.216      8.614
  Name = 
  8 active torsions:
  status: ('A' for Active; 'I' for Inactive)
    1  A    between atoms: C_1  and  C_5
    2  A    between atoms: C_1  and  C_36
    3  A    between atoms: O_3  and  C_30
    4  A    between atoms: O_3  and  C_32
    5  A    between atoms: C_6  and  C_31
    6  A    between atoms: C_11  and  C_26
    7  A    between atoms: C_20  and  C_30
    8  A    between atoms: C_26  and  C_33
                            x       y       z     vdW  Elec       q    Type
                         _______ _______ _______ _____ _____    ______ ____

>  <TORSDO>
F 8

$$$$
=
 OpenBabel11052415223D

 37 40  0  0  1  0  0  0  0  0999 V2000
  185.1440  178.6180  138.5910 C   0  0  2  0  0  3  0  0  0  0  0  0
  185.7130  176.1860  136.0620 C   0  0  0  0  0  2  0  0  0  0  0  0
  183.8280  179.2590  138.9550 C   0  0  1  0  0  3  0  0  0  0  0  0
  185.0100  177.3850  137.9760 O   0  0  0  0  0  0  0  0  0  0  0  0
  182.6470  178.8710  138.1520 N   0  0  0  0  0  0  0  0  0  0  0  0
  186.0810  177.2680  137.0830 C   0  0  1  0  0  3  0  0  0  0  0  0
  183.7200  178.9800  140.4390 C   0  0  0  0  0  2  0  0  0  0  0  0
  181.4170  179.6030  138.3470 C   0  0  0  0  0  0  0  0  0  0  0  0
  187.2550  178.5100  139.9500 C   0  0  0  0  0  2  0  0  0  0  0  0
  185.0370  178.9630  140.9340 O   0  0  0  0  0  0  0  0  0  0  0  0
  180.5300  179.5950  137.4530 O   0  0  0  0  0  0  0  0  0  0  0  0
  184.2740  176.3220  135.5340 C   0  0  0  0  0  2  0  0  0  0  0  0
  185.7450  178.2910  139.9300 C   0  0  1  0  0  3  0  0  0  0  0  0
  182.8150  178.2130  136.9640 O   0  0  0  0  0  0  0  0  0  0  0  0
  187.3980  176.9390  137.8540 C   0  0  2  0  0  3  0  0  0  0  0  0
  183.1750  175.8200  136.5050 C   0  0  2  0  0  3  0  0  0  0  0  0
  182.2790  176.9190  137.1290 C   0  0  2  0  0  3  0  0  0  0  0  0
  187.9470  178.1720  138.6090 C   0  0  0  0  0  2  0  0  0  0  0  0
  188.9810  177.2140  135.9370 C   0  0  0  0  0  3  0  0  0  0  0  0
  188.4730  176.4000  136.9560 C   0  0  0  0  0  0  0  0  0  0  0  0
  188.9760  175.0990  137.1210 C   0  0  0  0  0  3  0  0  0  0  0  0
  190.4630  173.3670  136.4340 F   0  0  0  0  0  0  0  0  0  0  0  0
  190.4840  175.4400  135.2570 C   0  0  0  0  0  3  0  0  0  0  0  0
  189.9800  174.6230  136.2720 C   0  0  0  0  0  0  0  0  0  0  0  0
  189.9840  176.7360  135.0880 C   0  0  0  0  0  3  0  0  0  0  0  0
  183.0580  174.9710  138.7700 O   0  0  0  0  0  1  0  0  0  0  0  0
  183.6360  174.7550  137.5170 C   0  0  1  0  0  3  0  0  0  0  0  0
  183.2620  173.3660  137.0250 C   0  0  0  0  0  2  0  0  0  0  0  0
  184.4270  172.4160  137.2130 C   0  0  0  0  0  1  0  0  0  0  0  0
  180.9050  176.8640  136.4680 C   0  0  0  0  0  2  0  0  0  0  0  0
  179.8650  176.2490  137.3880 C   0  0  2  0  0  3  0  0  0  0  0  0
  180.2450  176.4170  138.7070 F   0  0  0  0  0  0  0  0  0  0  0  0
  179.7510  174.7690  137.0910 C   0  0  0  0  0  1  0  0  0  0  0  0
  181.1800  180.4310  139.5690 C   0  0  0  0  0  2  0  0  0  0  0  0
  180.2430  179.8000  140.3880 O   0  0  0  0  0  0  0  0  0  0  0  0
  179.8640  180.8170  142.3910 O   0  0  0  0  0  1  0  0  0  0  0  0
  179.5770  180.8460  141.0270 C   0  0  0  0  0  2  0  0  0  0  0  0
  1  4  1  6  0  0  0
  1  3  1  0  0  0  0
  1 13  1  0  0  0  0
  3  7  1  1  0  0  0
  5  8  1  0  0  0  0
  5  3  1  0  0  0  0
  6  2  1  6  0  0  0
  6 15  1  0  0  0  0
  6  4  1  0  0  0  0
  7 10  1  0  0  0  0
  8 34  1  0  0  0  0
 11  8  2  0  0  0  0
 12  2  1  0  0  0  0
 12 16  1  0  0  0  0
 13  9  1  6  0  0  0
 13 10  1  0  0  0  0
 14 17  1  0  0  0  0
 14  5  1  0  0  0  0
 15 20  1  6  0  0  0
 15 18  1  0  0  0  0
 16 17  1  0  0  0  0
 16 27  1  1  0  0  0
 17 30  1  6  0  0  0
 18  9  1  0  0  0  0
 19 20  1  0  0  0  0
 20 21  2  0  0  0  0
 23 24  2  0  0  0  0
 24 22  1  0  0  0  0
 24 21  1  0  0  0  0
 25 23  1  0  0  0  0
 25 19  2  0  0  0  0
 27 26  1  1  0  0  0
 28 29  1  0  0  0  0
 28 27  1  0  0  0  0
 30 31  1  0  0  0  0
 31 33  1  6  0  0  0
 31 32  1  0  0  0  0
 34 35  1  0  0  0  0
 35 37  1  0  0  0  0
 37 36  1  0  0  0  0
M  END
>  <MODEL>
4

>  <REMARK>
 VINA RESULT:      -5.3      4.840      9.581
  Name = 
  8 active torsions:
  status: ('A' for Active; 'I' for Inactive)
    1  A    between atoms: C_1  and  C_5
    2  A    between atoms: C_1  and  C_36
    3  A    between atoms: O_3  and  C_30
    4  A    between atoms: O_3  and  C_32
    5  A    between atoms: C_6  and  C_31
    6  A    between atoms: C_11  and  C_26
    7  A    between atoms: C_20  and  C_30
    8  A    between atoms: C_26  and  C_33
                            x       y       z     vdW  Elec       q    Type
                         _______ _______ _______ _____ _____    ______ ____

>  <TORSDO>
F 8

$$$$
=
 OpenBabel11052415223D

 37 40  0  0  1  0  0  0  0  0999 V2000
  183.0760  175.8560  137.4930 C   0  0  2  0  0  3  0  0  0  0  0  0
  184.6030  178.6150  139.1330 C   0  0  0  0  0  2  0  0  0  0  0  0
  181.6870  175.3160  137.7280 C   0  0  1  0  0  3  0  0  0  0  0  0
  183.2220  177.1850  137.8510 O   0  0  0  0  0  0  0  0  0  0  0  0
  180.8800  175.9710  138.7820 N   0  0  0  0  0  0  0  0  0  0  0  0
  184.5420  177.3350  138.2920 C   0  0  1  0  0  3  0  0  0  0  0  0
  181.0800  175.3390  136.3410 C   0  0  0  0  0  2  0  0  0  0  0  0
  179.6260  175.3620  139.1610 C   0  0  0  0  0  0  0  0  0  0  0  0
  184.5820  175.4810  135.5180 C   0  0  0  0  0  2  0  0  0  0  0  0
  182.1410  175.1180  135.4430 O   0  0  0  0  0  0  0  0  0  0  0  0
  179.1090  175.6280  140.2780 O   0  0  0  0  0  0  0  0  0  0  0  0
  183.4350  178.7390  140.1270 C   0  0  0  0  0  2  0  0  0  0  0  0
  183.1860  175.8710  135.9940 C   0  0  1  0  0  3  0  0  0  0  0  0
  181.4820  176.8050  139.6830 O   0  0  0  0  0  0  0  0  0  0  0  0
  185.5200  177.3700  137.0770 C   0  0  2  0  0  3  0  0  0  0  0  0
  182.0900  179.1840  139.4960 C   0  0  2  0  0  3  0  0  0  0  0  0
  180.9830  178.1020  139.4460 C   0  0  2  0  0  3  0  0  0  0  0  0
  185.7130  175.9680  136.4520 C   0  0  0  0  0  2  0  0  0  0  0  0
  187.5450  178.7200  136.5000 C   0  0  0  0  0  3  0  0  0  0  0  0
  186.8650  177.9320  137.4350 C   0  0  0  0  0  0  0  0  0  0  0  0
  187.4490  177.6820  138.6870 C   0  0  0  0  0  3  0  0  0  0  0  0
  189.2630  177.9770  140.2050 F   0  0  0  0  0  0  0  0  0  0  0  0
  189.3760  179.0070  138.0580 C   0  0  0  0  0  3  0  0  0  0  0  0
  188.7030  178.2200  138.9960 C   0  0  0  0  0  0  0  0  0  0  0  0
  188.7980  179.2570  136.8090 C   0  0  0  0  0  3  0  0  0  0  0  0
  181.2800  179.5730  137.2460 O   0  0  0  0  0  1  0  0  0  0  0  0
  182.2180  179.9940  138.1930 C   0  0  1  0  0  3  0  0  0  0  0  0
  182.0170  181.4750  138.4730 C   0  0  0  0  0  2  0  0  0  0  0  0
  180.5580  181.7550  138.7720 C   0  0  0  0  0  1  0  0  0  0  0  0
  179.9310  178.4290  140.4990 C   0  0  0  0  0  2  0  0  0  0  0  0
  180.5050  179.2740  141.6230 C   0  0  2  0  0  3  0  0  0  0  0  0
  181.0210  178.4560  142.6110 F   0  0  0  0  0  0  0  0  0  0  0  0
  179.4060  180.1310  142.2140 C   0  0  0  0  0  1  0  0  0  0  0  0
  178.9390  174.3640  138.2850 C   0  0  0  0  0  2  0  0  0  0  0  0
  179.2490  173.0730  138.7140 O   0  0  0  0  0  0  0  0  0  0  0  0
  180.5790  172.0160  137.1970 O   0  0  0  0  0  1  0  0  0  0  0  0
  179.2620  172.3120  137.5460 C   0  0  0  0  0  2  0  0  0  0  0  0
  1  3  1  0  0  0  0
  1  4  1  6  0  0  0
  2 12  1  0  0  0  0
  3  7  1  6  0  0  0
  3  5  1  0  0  0  0
  4  6  1  0  0  0  0
  5  8  1  0  0  0  0
  5 14  1  0  0  0  0
  6  2  1  6  0  0  0
  8 11  2  0  0  0  0
  9 18  1  0  0  0  0
 10 13  1  0  0  0  0
 10  7  1  0  0  0  0
 13  9  1  1  0  0  0
 13  1  1  0  0  0  0
 15 20  1  1  0  0  0
 15  6  1  0  0  0  0
 16 27  1  6  0  0  0
 16 12  1  0  0  0  0
 17 16  1  0  0  0  0
 17 14  1  0  0  0  0
 17 30  1  1  0  0  0
 18 15  1  0  0  0  0
 19 25  2  0  0  0  0
 19 20  1  0  0  0  0
 20 21  2  0  0  0  0
 21 24  1  0  0  0  0
 23 24  2  0  0  0  0
 24 22  1  0  0  0  0
 25 23  1  0  0  0  0
 27 26  1  6  0  0  0
 27 28  1  0  0  0  0
 28 29  1  0  0  0  0
 30 31  1  0  0  0  0
 31 33  1  1  0  0  0
 31 32  1  0  0  0  0
 34 35  1  0  0  0  0
 34  8  1  0  0  0  0
 36 37  1  0  0  0  0
 37 35  1  0  0  0  0
M  END
>  <MODEL>
5

>  <REMARK>
 VINA RESULT:      -5.3      5.386      9.268
  Name = 
  8 active torsions:
  status: ('A' for Active; 'I' for Inactive)
    1  A    between atoms: C_1  and  C_5
    2  A    between atoms: C_1  and  C_36
    3  A    between atoms: O_3  and  C_30
    4  A    between atoms: O_3  and  C_32
    5  A    between atoms: C_6  and  C_31
    6  A    between atoms: C_11  and  C_26
    7  A    between atoms: C_20  and  C_30
    8  A    between atoms: C_26  and  C_33
                            x       y       z     vdW  Elec       q    Type
                         _______ _______ _______ _____ _____    ______ ____

>  <TORSDO>
F 8

$$$$
=
 OpenBabel11052415223D

 37 40  0  0  1  0  0  0  0  0999 V2000
  188.9200  177.7950  139.8550 C   0  0  2  0  0  3  0  0  0  0  0  0
  188.9990  176.8850  136.4210 C   0  0  0  0  0  2  0  0  0  0  0  0
  187.7390  178.3330  140.6250 C   0  0  1  0  0  3  0  0  0  0  0  0
  188.5660  177.0580  138.7390 O   0  0  0  0  0  0  0  0  0  0  0  0
  186.4850  178.5480  139.8690 N   0  0  0  0  0  0  0  0  0  0  0  0
  189.5730  177.2630  137.7910 C   0  0  1  0  0  3  0  0  0  0  0  0
  187.6340  177.3730  141.7900 C   0  0  0  0  0  2  0  0  0  0  0  0
  185.3990  179.2360  140.5270 C   0  0  0  0  0  0  0  0  0  0  0  0
  191.0270  176.7620  140.7530 C   0  0  0  0  0  2  0  0  0  0  0  0
  188.9460  176.9460  142.0690 O   0  0  0  0  0  0  0  0  0  0  0  0
  184.4940  179.7850  139.8430 O   0  0  0  0  0  0  0  0  0  0  0  0
  187.5860  177.4460  136.1850 C   0  0  0  0  0  2  0  0  0  0  0  0
  189.5010  176.7750  140.7940 C   0  0  1  0  0  3  0  0  0  0  0  0
  186.5040  178.5480  138.5010 O   0  0  0  0  0  0  0  0  0  0  0  0
  190.8420  176.4310  138.1570 C   0  0  2  0  0  3  0  0  0  0  0  0
  186.4510  176.6730  136.9050 C   0  0  2  0  0  3  0  0  0  0  0  0
  185.7680  177.4230  138.0760 C   0  0  2  0  0  3  0  0  0  0  0  0
  191.6100  177.0480  139.3500 C   0  0  0  0  0  2  0  0  0  0  0  0
  191.2640  176.0250  135.7250 C   0  0  0  0  0  3  0  0  0  0  0  0
  191.7850  176.2760  136.9990 C   0  0  0  0  0  0  0  0  0  0  0  0
  193.1750  176.3790  137.1730 C   0  0  0  0  0  3  0  0  0  0  0  0
  195.3710  176.3330  136.2480 F   0  0  0  0  0  0  0  0  0  0  0  0
  193.5040  175.9830  134.8070 C   0  0  0  0  0  3  0  0  0  0  0  0
  194.0310  176.2330  136.0770 C   0  0  0  0  0  0  0  0  0  0  0  0
  192.1210  175.8780  134.6300 C   0  0  0  0  0  3  0  0  0  0  0  0
  185.6080  174.5100  137.5940 O   0  0  0  0  0  1  0  0  0  0  0  0
  186.7640  175.1990  137.2180 C   0  0  1  0  0  3  0  0  0  0  0  0
  187.3780  174.5220  136.0030 C   0  0  0  0  0  2  0  0  0  0  0  0
  188.1110  173.2640  136.4220 C   0  0  0  0  0  1  0  0  0  0  0  0
  184.3840  177.8770  137.6260 C   0  0  0  0  0  2  0  0  0  0  0  0
  183.2840  177.1010  138.3270 C   0  0  2  0  0  3  0  0  0  0  0  0
  183.8060  176.4180  139.4110 F   0  0  0  0  0  0  0  0  0  0  0  0
  182.6830  176.1040  137.3580 C   0  0  0  0  0  1  0  0  0  0  0  0
  185.3400  179.3730  142.0140 C   0  0  0  0  0  2  0  0  0  0  0  0
  184.5170  178.3790  142.5440 O   0  0  0  0  0  0  0  0  0  0  0  0
  182.8970  179.0890  143.9800 O   0  0  0  0  0  1  0  0  0  0  0  0
  184.2550  178.8020  143.8470 C   0  0  0  0  0  2  0  0  0  0  0  0
  1  4  1  6  0  0  0
  1  3  1  0  0  0  0
  1 13  1  0  0  0  0
  3  7  1  1  0  0  0
  5  8  1  0  0  0  0
  5  3  1  0  0  0  0
  6  2  1  6  0  0  0
  6 15  1  0  0  0  0
  6  4  1  0  0  0  0
  7 10  1  0  0  0  0
  8 34  1  0  0  0  0
 11  8  2  0  0  0  0
 12  2  1  0  0  0  0
 12 16  1  0  0  0  0
 13  9  1  1  0  0  0
 13 10  1  0  0  0  0
 14  5  1  0  0  0  0
 15 20  1  6  0  0  0
 15 18  1  0  0  0  0
 16 27  1  1  0  0  0
 16 17  1  0  0  0  0
 17 30  1  6  0  0  0
 17 14  1  0  0  0  0
 18  9  1  0  0  0  0
 19 20  1  0  0  0  0
 20 21  2  0  0  0  0
 23 24  2  0  0  0  0
 24 22  1  0  0  0  0
 24 21  1  0  0  0  0
 25 23  1  0  0  0  0
 25 19  2  0  0  0  0
 27 26  1  6  0  0  0
 28 29  1  0  0  0  0
 28 27  1  0  0  0  0
 30 31  1  0  0  0  0
 31 33  1  6  0  0  0
 31 32  1  0  0  0  0
 34 35  1  0  0  0  0
 35 37  1  0  0  0  0
 37 36  1  0  0  0  0
M  END
>  <MODEL>
6

>  <REMARK>
 VINA RESULT:      -5.2      3.131      8.315
  Name = 
  8 active torsions:
  status: ('A' for Active; 'I' for Inactive)
    1  A    between atoms: C_1  and  C_5
    2  A    between atoms: C_1  and  C_36
    3  A    between atoms: O_3  and  C_30
    4  A    between atoms: O_3  and  C_32
    5  A    between atoms: C_6  and  C_31
    6  A    between atoms: C_11  and  C_26
    7  A    between atoms: C_20  and  C_30
    8  A    between atoms: C_26  and  C_33
                            x       y       z     vdW  Elec       q    Type
                         _______ _______ _______ _____ _____    ______ ____

>  <TORSDO>
F 8

$$$$
=
 OpenBabel11052415223D

 37 40  0  0  1  0  0  0  0  0999 V2000
  186.9200  177.9210  141.6650 C   0  0  2  0  0  3  0  0  0  0  0  0
  189.9890  176.1330  141.8140 C   0  0  0  0  0  2  0  0  0  0  0  0
  186.0040  178.2490  142.8170 C   0  0  1  0  0  3  0  0  0  0  0  0
  188.2330  177.7010  142.0440 O   0  0  0  0  0  0  0  0  0  0  0  0
  186.3940  177.7410  144.1520 N   0  0  0  0  0  0  0  0  0  0  0  0
  188.7500  176.7520  141.1560 C   0  0  1  0  0  3  0  0  0  0  0  0
  185.8630  179.7530  142.7140 C   0  0  0  0  0  2  0  0  0  0  0  0
  185.4490  177.8730  145.2370 C   0  0  0  0  0  0  0  0  0  0  0  0
  187.0050  178.9810  139.3890 C   0  0  0  0  0  2  0  0  0  0  0  0
  185.9600  180.0650  141.3450 O   0  0  0  0  0  0  0  0  0  0  0  0
  185.5490  177.1350  146.2520 O   0  0  0  0  0  0  0  0  0  0  0  0
  189.7670  175.7700  143.2930 C   0  0  0  0  0  2  0  0  0  0  0  0
  186.9770  179.2120  140.8970 C   0  0  1  0  0  3  0  0  0  0  0  0
  187.3590  176.7770  144.2600 O   0  0  0  0  0  0  0  0  0  0  0  0
  189.0720  177.4140  139.7800 C   0  0  2  0  0  3  0  0  0  0  0  0
  189.8140  176.9730  144.2700 C   0  0  2  0  0  3  0  0  0  0  0  0
  188.4610  177.3660  144.9140 C   0  0  2  0  0  3  0  0  0  0  0  0
  187.7890  177.7150  138.9710 C   0  0  0  0  0  2  0  0  0  0  0  0
  189.4470  175.6250  138.0720 C   0  0  0  0  0  3  0  0  0  0  0  0
  189.9930  176.5790  138.9380 C   0  0  0  0  0  0  0  0  0  0  0  0
  191.3870  176.7390  139.0050 C   0  0  0  0  0  3  0  0  0  0  0  0
  193.5660  176.1070  138.2750 F   0  0  0  0  0  0  0  0  0  0  0  0
  191.6710  174.9990  137.3450 C   0  0  0  0  0  3  0  0  0  0  0  0
  192.2220  175.9500  138.2090 C   0  0  0  0  0  0  0  0  0  0  0  0
  190.2830  174.8360  137.2770 C   0  0  0  0  0  3  0  0  0  0  0  0
  189.9620  179.3780  144.0270 O   0  0  0  0  0  1  0  0  0  0  0  0
  190.6360  178.1790  143.7810 C   0  0  1  0  0  3  0  0  0  0  0  0
  191.9870  178.2110  144.4770 C   0  0  0  0  0  2  0  0  0  0  0  0
  192.0550  177.1240  145.5310 C   0  0  0  0  0  1  0  0  0  0  0  0
  188.4660  176.9250  146.3730 C   0  0  0  0  0  2  0  0  0  0  0  0
  189.0110  178.0090  147.2850 C   0  0  2  0  0  3  0  0  0  0  0  0
  190.1390  177.5520  147.9410 F   0  0  0  0  0  0  0  0  0  0  0  0
  187.9570  178.3730  148.3100 C   0  0  0  0  0  1  0  0  0  0  0  0
  184.3030  178.8300  145.1700 C   0  0  0  0  0  2  0  0  0  0  0  0
  183.2280  178.2290  144.5140 O   0  0  0  0  0  0  0  0  0  0  0  0
  182.2200  179.0020  142.6230 O   0  0  0  0  0  1  0  0  0  0  0  0
  182.5230  179.2930  143.9530 C   0  0  0  0  0  2  0  0  0  0  0  0
  1  4  1  1  0  0  0
  1  3  1  0  0  0  0
  2 12  1  0  0  0  0
  3  7  1  1  0  0  0
  3  5  1  0  0  0  0
  5 14  1  0  0  0  0
  5  8  1  0  0  0  0
  6  2  1  1  0  0  0
  6  4  1  0  0  0  0
  8 11  2  0  0  0  0
 10  7  1  0  0  0  0
 12 16  1  0  0  0  0
 13  9  1  6  0  0  0
 13 10  1  0  0  0  0
 13  1  1  0  0  0  0
 14 17  1  0  0  0  0
 15 20  1  6  0  0  0
 15  6  1  0  0  0  0
 16 27  1  6  0  0  0
 16 17  1  0  0  0  0
 17 30  1  1  0  0  0
 18  9  1  0  0  0  0
 18 15  1  0  0  0  0
 19 20  1  0  0  0  0
 20 21  2  0  0  0  0
 23 24  2  0  0  0  0
 24 22  1  0  0  0  0
 24 21  1  0  0  0  0
 25 23  1  0  0  0  0
 25 19  2  0  0  0  0
 27 26  1  1  0  0  0
 27 28  1  0  0  0  0
 28 29  1  0  0  0  0
 30 31  1  0  0  0  0
 31 32  1  0  0  0  0
 31 33  1  1  0  0  0
 34  8  1  0  0  0  0
 35 34  1  0  0  0  0
 36 37  1  0  0  0  0
 37 35  1  0  0  0  0
M  END
>  <MODEL>
7

>  <REMARK>
 VINA RESULT:      -5.1      3.711      7.372
  Name = 
  8 active torsions:
  status: ('A' for Active; 'I' for Inactive)
    1  A    between atoms: C_1  and  C_5
    2  A    between atoms: C_1  and  C_36
    3  A    between atoms: O_3  and  C_30
    4  A    between atoms: O_3  and  C_32
    5  A    between atoms: C_6  and  C_31
    6  A    between atoms: C_11  and  C_26
    7  A    between atoms: C_20  and  C_30
    8  A    between atoms: C_26  and  C_33
                            x       y       z     vdW  Elec       q    Type
                         _______ _______ _______ _____ _____    ______ ____

>  <TORSDO>
F 8

$$$$
=
 OpenBabel11052415223D

 37 40  0  0  1  0  0  0  0  0999 V2000
  191.2870  176.3220  139.6660 C   0  0  2  0  0  3  0  0  0  0  0  0
  187.7910  176.8880  139.3680 C   0  0  0  0  0  2  0  0  0  0  0  0
  192.1970  175.7000  138.6370 C   0  0  1  0  0  3  0  0  0  0  0  0
  190.1440  176.8860  139.1280 O   0  0  0  0  0  0  0  0  0  0  0  0
  191.5700  175.2330  137.3800 N   0  0  0  0  0  0  0  0  0  0  0  0
  189.1360  176.7350  140.0870 C   0  0  1  0  0  3  0  0  0  0  0  0
  193.2780  176.7460  138.4700 C   0  0  0  0  0  2  0  0  0  0  0  0
  192.3750  174.4650  136.4580 C   0  0  0  0  0  0  0  0  0  0  0  0
  191.9100  177.7310  141.6510 C   0  0  0  0  0  2  0  0  0  0  0  0
  193.4070  177.3820  139.7180 O   0  0  0  0  0  0  0  0  0  0  0  0
  191.8200  173.7270  135.6010 O   0  0  0  0  0  0  0  0  0  0  0  0
  187.7240  176.1090  138.0430 C   0  0  0  0  0  2  0  0  0  0  0  0
  192.0800  177.5030  140.1520 C   0  0  1  0  0  3  0  0  0  0  0  0
  190.2110  175.0990  137.3030 O   0  0  0  0  0  0  0  0  0  0  0  0
  189.3200  177.7720  141.2380 C   0  0  2  0  0  3  0  0  0  0  0  0
  188.4660  176.7790  136.8570 C   0  0  2  0  0  3  0  0  0  0  0  0
  189.7510  176.0590  136.3790 C   0  0  2  0  0  3  0  0  0  0  0  0
  190.4940  177.3940  142.1720 C   0  0  0  0  0  2  0  0  0  0  0  0
  188.0300  177.3850  143.3460 C   0  0  0  0  0  3  0  0  0  0  0  0
  188.0790  177.9440  142.0640 C   0  0  0  0  0  0  0  0  0  0  0  0
  186.9710  178.6550  141.5740 C   0  0  0  0  0  3  0  0  0  0  0  0
  184.7610  179.4900  141.8890 F   0  0  0  0  0  0  0  0  0  0  0  0
  185.7850  178.2430  143.6440 C   0  0  0  0  0  3  0  0  0  0  0  0
  185.8270  178.8040  142.3640 C   0  0  0  0  0  0  0  0  0  0  0  0
  186.8850  177.5330  144.1350 C   0  0  0  0  0  3  0  0  0  0  0  0
  189.7930  178.7380  136.3400 O   0  0  0  0  0  1  0  0  0  0  0  0
  188.6210  178.3070  136.9650 C   0  0  1  0  0  3  0  0  0  0  0  0
  187.4280  179.0010  136.3270 C   0  0  0  0  0  2  0  0  0  0  0  0
  186.9910  178.2500  135.0850 C   0  0  0  0  0  1  0  0  0  0  0  0
  189.4600  175.3690  135.0500 C   0  0  0  0  0  2  0  0  0  0  0  0
  188.4990  174.2060  135.2210 C   0  0  2  0  0  3  0  0  0  0  0  0
  189.0030  173.0820  134.5940 F   0  0  0  0  0  0  0  0  0  0  0  0
  187.1670  174.5660  134.5970 C   0  0  0  0  0  1  0  0  0  0  0  0
  193.8680  174.4700  136.5240 C   0  0  0  0  0  2  0  0  0  0  0  0
  194.3290  173.1810  136.7940 O   0  0  0  0  0  0  0  0  0  0  0  0
  195.5090  172.1780  138.4650 O   0  0  0  0  0  1  0  0  0  0  0  0
  195.3290  173.3620  137.7500 C   0  0  0  0  0  2  0  0  0  0  0  0
  1  4  1  6  0  0  0
  1 13  1  0  0  0  0
  3  7  1  6  0  0  0
  3  1  1  0  0  0  0
  4  6  1  0  0  0  0
  5  3  1  0  0  0  0
  6  2  1  6  0  0  0
  6 15  1  0  0  0  0
  7 10  1  0  0  0  0
  8 34  1  0  0  0  0
  8  5  1  0  0  0  0
  9 18  1  0  0  0  0
 10 13  1  0  0  0  0
 11  8  2  0  0  0  0
 12  2  1  0  0  0  0
 13  9  1  1  0  0  0
 14  5  1  0  0  0  0
 15 20  1  1  0  0  0
 15 18  1  0  0  0  0
 16 27  1  1  0  0  0
 16 12  1  0  0  0  0
 17 30  1  6  0  0  0
 17 16  1  0  0  0  0
 17 14  1  0  0  0  0
 19 25  1  0  0  0  0
 20 19  2  0  0  0  0
 21 20  1  0  0  0  0
 21 24  2  0  0  0  0
 22 24  1  0  0  0  0
 23 25  2  0  0  0  0
 24 23  1  0  0  0  0
 27 26  1  6  0  0  0
 28 27  1  0  0  0  0
 29 28  1  0  0  0  0
 30 31  1  0  0  0  0
 31 33  1  6  0  0  0
 32 31  1  0  0  0  0
 34 35  1  0  0  0  0
 35 37  1  0  0  0  0
 37 36  1  0  0  0  0
M  END
>  <MODEL>
8

>  <REMARK>
 VINA RESULT:      -5.1      2.661      5.702
  Name = 
  8 active torsions:
  status: ('A' for Active; 'I' for Inactive)
    1  A    between atoms: C_1  and  C_5
    2  A    between atoms: C_1  and  C_36
    3  A    between atoms: O_3  and  C_30
    4  A    between atoms: O_3  and  C_32
    5  A    between atoms: C_6  and  C_31
    6  A    between atoms: C_11  and  C_26
    7  A    between atoms: C_20  and  C_30
    8  A    between atoms: C_26  and  C_33
                            x       y       z     vdW  Elec       q    Type
                         _______ _______ _______ _____ _____    ______ ____

>  <TORSDO>
F 8

$$$$
=
 OpenBabel11052415223D

 37 40  0  0  1  0  0  0  0  0999 V2000
  183.8540  178.9970  140.0540 C   0  0  2  0  0  3  0  0  0  0  0  0
  185.7200  177.4930  137.4300 C   0  0  0  0  0  2  0  0  0  0  0  0
  182.3760  179.2990  140.0590 C   0  0  1  0  0  3  0  0  0  0  0  0
  184.2090  177.9820  139.1830 O   0  0  0  0  0  0  0  0  0  0  0  0
  181.6190  178.9780  138.8280 N   0  0  0  0  0  0  0  0  0  0  0  0
  185.4950  178.2860  138.7220 C   0  0  1  0  0  3  0  0  0  0  0  0
  181.8960  178.6010  141.3130 C   0  0  0  0  0  2  0  0  0  0  0  0
  180.2500  179.4270  138.7300 C   0  0  0  0  0  0  0  0  0  0  0  0
  185.4190  178.8350  142.0120 C   0  0  0  0  0  2  0  0  0  0  0  0
  182.9670  178.6470  142.2250 O   0  0  0  0  0  0  0  0  0  0  0  0
  179.7020  179.5360  137.6010 O   0  0  0  0  0  0  0  0  0  0  0  0
  184.5180  177.5500  136.4710 C   0  0  0  0  0  2  0  0  0  0  0  0
  184.0830  178.4020  141.4160 C   0  0  1  0  0  3  0  0  0  0  0  0
  182.2890  178.7140  137.6650 O   0  0  0  0  0  0  0  0  0  0  0  0
  186.5570  177.9600  139.8170 C   0  0  2  0  0  3  0  0  0  0  0  0
  183.3310  176.6320  136.8610 C   0  0  2  0  0  3  0  0  0  0  0  0
  182.0530  177.3600  137.3490 C   0  0  2  0  0  3  0  0  0  0  0  0
  186.5420  178.9990  140.9620 C   0  0  0  0  0  2  0  0  0  0  0  0
  188.1760  178.2270  137.9300 C   0  0  0  0  0  3  0  0  0  0  0  0
  187.9490  177.8670  139.2620 C   0  0  0  0  0  0  0  0  0  0  0  0
  189.0210  177.4280  140.0560 C   0  0  0  0  0  3  0  0  0  0  0  0
  191.3410  176.9290  140.2830 F   0  0  0  0  0  0  0  0  0  0  0  0
  190.5300  177.7150  138.1830 C   0  0  0  0  0  3  0  0  0  0  0  0
  190.3090  177.3530  139.5150 C   0  0  0  0  0  0  0  0  0  0  0  0
  189.4640  178.1510  137.3900 C   0  0  0  0  0  3  0  0  0  0  0  0
  182.7120  175.1320  138.6600 O   0  0  0  0  0  1  0  0  0  0  0  0
  183.7060  175.4100  137.7180 C   0  0  1  0  0  3  0  0  0  0  0  0
  183.9120  174.1910  136.8320 C   0  0  0  0  0  2  0  0  0  0  0  0
  184.6010  173.0900  137.6130 C   0  0  0  0  0  1  0  0  0  0  0  0
  180.9970  177.2830  136.2520 C   0  0  0  0  0  2  0  0  0  0  0  0
  179.9080  176.2820  136.5910 C   0  0  2  0  0  3  0  0  0  0  0  0
  179.8170  176.1310  137.9630 F   0  0  0  0  0  0  0  0  0  0  0  0
  180.2510  174.9440  135.9690 C   0  0  0  0  0  1  0  0  0  0  0  0
  179.4660  179.8310  139.9360 C   0  0  0  0  0  2  0  0  0  0  0  0
  179.6070  181.2020  140.1500 O   0  0  0  0  0  0  0  0  0  0  0  0
  179.6520  180.8790  142.4040 O   0  0  0  0  0  1  0  0  0  0  0  0
  178.9340  181.4390  141.3480 C   0  0  0  0  0  2  0  0  0  0  0  0
  1  4  1  6  0  0  0
  1  3  1  0  0  0  0
  1 13  1  0  0  0  0
  3  7  1  1  0  0  0
  5  3  1  0  0  0  0
  6  2  1  6  0  0  0
  6  4  1  0  0  0  0
  6 15  1  0  0  0  0
  7 10  1  0  0  0  0
  8  5  1  0  0  0  0
  8 34  1  0  0  0  0
 11  8  2  0  0  0  0
 12 16  1  0  0  0  0
 12  2  1  0  0  0  0
 13  9  1  1  0  0  0
 13 10  1  0  0  0  0
 14  5  1  0  0  0  0
 15 20  1  6  0  0  0
 15 18  1  0  0  0  0
 16 17  1  0  0  0  0
 16 27  1  1  0  0  0
 17 30  1  6  0  0  0
 17 14  1  0  0  0  0
 18  9  1  0  0  0  0
 19 20  1  0  0  0  0
 20 21  2  0  0  0  0
 23 24  2  0  0  0  0
 24 21  1  0  0  0  0
 24 22  1  0  0  0  0
 25 19  2  0  0  0  0
 25 23  1  0  0  0  0
 27 26  1  1  0  0  0
 28 29  1  0  0  0  0
 28 27  1  0  0  0  0
 30 31  1  0  0  0  0
 31 33  1  6  0  0  0
 31 32  1  0  0  0  0
 34 35  1  0  0  0  0
 35 37  1  0  0  0  0
 37 36  1  0  0  0  0
M  END
>  <MODEL>
9

>  <REMARK>
 VINA RESULT:      -5.1      4.701      9.782
  Name = 
  8 active torsions:
  status: ('A' for Active; 'I' for Inactive)
    1  A    between atoms: C_1  and  C_5
    2  A    between atoms: C_1  and  C_36
    3  A    between atoms: O_3  and  C_30
    4  A    between atoms: O_3  and  C_32
    5  A    between atoms: C_6  and  C_31
    6  A    between atoms: C_11  and  C_26
    7  A    between atoms: C_20  and  C_30
    8  A    between atoms: C_26  and  C_33
                            x       y       z     vdW  Elec       q    Type
                         _______ _______ _______ _____ _____    ______ ____

>  <TORSDO>
F 8

$$$$
