=
 OpenBabel11052413493D

 27 31  0  0  1  0  0  0  0  0999 V2000
  190.8090  178.0310  142.6470 C   0  0  0  0  0  2  0  0  0  0  0  0
  188.6870  177.2900  143.6680 C   0  0  0  0  0  0  0  0  0  0  0  0
  188.2480  177.8840  141.2540 N   0  0  0  0  0  2  0  0  0  0  0  0
  184.6970  178.3040  144.5770 C   0  0  0  0  0  3  0  0  0  0  0  0
  182.5320  179.1100  143.8870 O   0  0  0  0  0  1  0  0  0  0  0  0
  188.1730  177.1560  144.9700 C   0  0  0  0  0  3  0  0  0  0  0  0
  185.6280  178.5800  141.9540 C   0  0  0  0  0  3  0  0  0  0  0  0
  189.9510  176.3870  138.5440 C   0  0  0  0  0  3  0  0  0  0  0  0
  184.3080  178.9130  142.2680 C   0  0  0  0  0  3  0  0  0  0  0  0
  191.2250  176.0300  138.6750 C   0  0  0  0  0  3  0  0  0  0  0  0
  186.5000  178.1040  142.9460 C   0  0  0  0  0  0  0  0  0  0  0  0
  190.1190  176.9100  143.3910 C   0  0  2  0  0  3  0  0  0  0  0  0
  183.8430  178.7770  143.5780 C   0  0  0  0  0  0  0  0  0  0  0  0
  186.0190  177.9680  144.2690 C   0  0  0  0  0  0  0  0  0  0  0  0
  190.7040  177.7620  141.1920 C   0  0  0  0  0  0  0  0  0  0  0  0
  187.8360  177.7660  142.6340 C   0  0  0  0  0  0  0  0  0  0  0  0
  189.4270  177.6770  139.0790 C   0  0  0  0  0  2  0  0  0  0  0  0
  186.8580  177.4920  145.2700 C   0  0  0  0  0  3  0  0  0  0  0  0
  192.2320  176.8050  139.4220 C   0  0  0  0  0  3  0  0  0  0  0  0
  192.0000  177.5610  140.5030 C   0  0  0  0  0  3  0  0  0  0  0  0
  189.5060  177.7280  140.5710 C   0  0  0  0  0  0  0  0  0  0  0  0
  192.3810  175.6750  146.8100 C   0  0  0  0  0  3  0  0  0  0  0  0
  190.9200  176.4870  144.5920 C   0  0  0  0  0  0  0  0  0  0  0  0
  190.9720  177.2680  145.7560 C   0  0  0  0  0  3  0  0  0  0  0  0
  191.6950  176.8490  146.8290 N   0  0  0  0  0  0  0  0  0  0  0  0
  192.3540  174.8650  145.6710 C   0  0  0  0  0  3  0  0  0  0  0  0
  191.6170  175.2780  144.5590 C   0  0  0  0  0  3  0  0  0  0  0  0
  1 12  1  0  0  0  0
  2  6  1  0  0  0  0
  3 16  1  0  0  0  0
  6 18  2  0  0  0  0
  7  9  2  0  0  0  0
  7 11  1  0  0  0  0
  8 10  2  0  0  0  0
  8 17  1  0  0  0  0
  9 13  1  0  0  0  0
 10 19  1  0  0  0  0
 11 14  2  0  0  0  0
 12  2  1  0  0  0  0
 12 23  1  1  0  0  0
 13  5  1  0  0  0  0
 13  4  2  0  0  0  0
 14  4  1  0  0  0  0
 14 18  1  0  0  0  0
 15  1  1  0  0  0  0
 16 11  1  0  0  0  0
 16  2  2  0  0  0  0
 17 21  1  0  0  0  0
 19 20  2  0  0  0  0
 20 15  1  0  0  0  0
 21 15  2  0  0  0  0
 21  3  1  0  0  0  0
 22 25  1  0  0  0  0
 23 24  1  0  0  0  0
 24 25  2  0  0  0  0
 26 22  2  0  0  0  0
 27 23  2  0  0  0  0
 27 26  1  0  0  0  0
M  END
>  <MODEL>
1

>  <REMARK>
 VINA RESULT:     -10.1      0.000      0.000
  Name = 
  1 active torsions:
  status: ('A' for Active; 'I' for Inactive)
    1  A    between atoms: C_9  and  C_15
                            x       y       z     vdW  Elec       q    Type
                         _______ _______ _______ _____ _____    ______ ____

>  <TORSDO>
F 1

$$$$
=
 OpenBabel11052413493D

 27 31  0  0  1  0  0  0  0  0999 V2000
  188.5730  176.5010  144.3480 C   0  0  0  0  0  2  0  0  0  0  0  0
  187.1130  178.0710  143.1250 C   0  0  0  0  0  0  0  0  0  0  0  0
  186.3500  177.9770  145.5300 N   0  0  0  0  0  2  0  0  0  0  0  0
  183.1690  179.0120  141.9760 C   0  0  0  0  0  3  0  0  0  0  0  0
  180.8580  179.4050  142.5440 O   0  0  0  0  0  1  0  0  0  0  0  0
  186.7790  178.3180  141.7820 C   0  0  0  0  0  3  0  0  0  0  0  0
  183.7490  178.5600  144.6740 C   0  0  0  0  0  3  0  0  0  0  0  0
  188.4580  178.7120  148.2680 C   0  0  0  0  0  3  0  0  0  0  0  0
  182.4450  178.8720  144.2800 C   0  0  0  0  0  3  0  0  0  0  0  0
  189.7510  178.4040  148.2140 C   0  0  0  0  0  3  0  0  0  0  0  0
  184.7800  178.4700  143.7240 C   0  0  0  0  0  0  0  0  0  0  0  0
  188.5390  177.7430  143.4880 C   0  0  2  0  0  3  0  0  0  0  0  0
  182.1550  179.0970  142.9330 C   0  0  0  0  0  0  0  0  0  0  0  0
  184.4750  178.7010  142.3630 C   0  0  0  0  0  0  0  0  0  0  0  0
  188.5550  176.9150  145.7720 C   0  0  0  0  0  0  0  0  0  0  0  0
  186.1000  178.1550  144.1170 C   0  0  0  0  0  0  0  0  0  0  0  0
  187.3980  177.7880  147.7720 C   0  0  0  0  0  2  0  0  0  0  0  0
  185.4780  178.6270  141.4020 C   0  0  0  0  0  3  0  0  0  0  0  0
  190.2870  177.1790  147.5940 C   0  0  0  0  0  3  0  0  0  0  0  0
  189.7600  176.5330  146.5450 C   0  0  0  0  0  3  0  0  0  0  0  0
  187.5000  177.5730  146.2960 C   0  0  0  0  0  0  0  0  0  0  0  0
  191.2350  177.3680  140.1830 C   0  0  0  0  0  3  0  0  0  0  0  0
  189.4910  177.6230  142.3290 C   0  0  0  0  0  0  0  0  0  0  0  0
  190.8720  177.8100  142.4870 C   0  0  0  0  0  3  0  0  0  0  0  0
  191.7060  177.6800  141.4210 N   0  0  0  0  0  0  0  0  0  0  0  0
  189.8660  177.1710  139.9830 C   0  0  0  0  0  3  0  0  0  0  0  0
  188.9940  177.2990  141.0650 C   0  0  0  0  0  3  0  0  0  0  0  0
  1 15  1  0  0  0  0
  2 12  1  0  0  0  0
  2 16  1  0  0  0  0
  3 21  1  0  0  0  0
  4 14  1  0  0  0  0
  4 13  2  0  0  0  0
  5 13  1  0  0  0  0
  6  2  2  0  0  0  0
  9  7  2  0  0  0  0
 10  8  2  0  0  0  0
 11 16  2  0  0  0  0
 11  7  1  0  0  0  0
 12 23  1  6  0  0  0
 12  1  1  0  0  0  0
 13  9  1  0  0  0  0
 14 11  1  0  0  0  0
 15 21  2  0  0  0  0
 15 20  1  0  0  0  0
 16  3  1  0  0  0  0
 17  8  1  0  0  0  0
 18  6  1  0  0  0  0
 18 14  2  0  0  0  0
 19 10  1  0  0  0  0
 20 19  2  0  0  0  0
 21 17  1  0  0  0  0
 22 25  1  0  0  0  0
 23 24  1  0  0  0  0
 25 24  2  0  0  0  0
 26 22  2  0  0  0  0
 26 27  1  0  0  0  0
 27 23  2  0  0  0  0
M  END
>  <MODEL>
2

>  <REMARK>
 VINA RESULT:      -9.9      1.943      5.248
  Name = 
  1 active torsions:
  status: ('A' for Active; 'I' for Inactive)
    1  A    between atoms: C_9  and  C_15
                            x       y       z     vdW  Elec       q    Type
                         _______ _______ _______ _____ _____    ______ ____

>  <TORSDO>
F 1

$$$$
=
 OpenBabel11052413493D

 27 31  0  0  1  0  0  0  0  0999 V2000
  187.5980  176.6910  143.9220 C   0  0  0  0  0  2  0  0  0  0  0  0
  186.0740  178.2000  142.6990 C   0  0  0  0  0  0  0  0  0  0  0  0
  185.3630  178.1370  145.1210 N   0  0  0  0  0  2  0  0  0  0  0  0
  182.0850  179.0210  141.6150 C   0  0  0  0  0  3  0  0  0  0  0  0
  179.7780  179.3700  142.2250 O   0  0  0  0  0  1  0  0  0  0  0  0
  185.7060  178.4110  141.3590 C   0  0  0  0  0  3  0  0  0  0  0  0
  182.7320  178.6390  144.3090 C   0  0  0  0  0  3  0  0  0  0  0  0
  187.5100  178.9790  147.7980 C   0  0  0  0  0  3  0  0  0  0  0  0
  181.4130  178.9100  143.9360 C   0  0  0  0  0  3  0  0  0  0  0  0
  188.8090  178.7010  147.7230 C   0  0  0  0  0  3  0  0  0  0  0  0
  183.7450  178.5540  143.3400 C   0  0  0  0  0  0  0  0  0  0  0  0
  187.5150  177.9140  143.0380 C   0  0  2  0  0  3  0  0  0  0  0  0
  181.0890  179.1000  142.5920 C   0  0  0  0  0  0  0  0  0  0  0  0
  183.4060  178.7500  141.9800 C   0  0  0  0  0  0  0  0  0  0  0  0
  187.5990  177.1340  145.3380 C   0  0  0  0  0  0  0  0  0  0  0  0
  185.0800  178.2790  143.7110 C   0  0  0  0  0  0  0  0  0  0  0  0
  186.4630  178.0200  147.3430 C   0  0  0  0  0  2  0  0  0  0  0  0
  184.3900  178.6810  141.0010 C   0  0  0  0  0  3  0  0  0  0  0  0
  189.3610  177.4770  147.1160 C   0  0  0  0  0  3  0  0  0  0  0  0
  188.8290  176.7970  146.0920 C   0  0  0  0  0  3  0  0  0  0  0  0
  186.5390  177.7760  145.8710 C   0  0  0  0  0  0  0  0  0  0  0  0
  190.1900  177.5770  139.7120 C   0  0  0  0  0  3  0  0  0  0  0  0
  188.4450  177.7930  141.8610 C   0  0  0  0  0  0  0  0  0  0  0  0
  188.2900  178.5870  140.7150 C   0  0  0  0  0  3  0  0  0  0  0  0
  189.1570  178.4610  139.6750 N   0  0  0  0  0  0  0  0  0  0  0  0
  190.3810  176.7690  140.8360 C   0  0  0  0  0  3  0  0  0  0  0  0
  189.5020  176.8830  141.9140 C   0  0  0  0  0  3  0  0  0  0  0  0
  1 15  1  0  0  0  0
  2 12  1  0  0  0  0
  2 16  1  0  0  0  0
  3 21  1  0  0  0  0
  4 14  1  0  0  0  0
  4 13  2  0  0  0  0
  5 13  1  0  0  0  0
  6  2  2  0  0  0  0
  9  7  2  0  0  0  0
 10  8  2  0  0  0  0
 11 16  2  0  0  0  0
 11  7  1  0  0  0  0
 12 23  1  6  0  0  0
 12  1  1  0  0  0  0
 13  9  1  0  0  0  0
 14 11  1  0  0  0  0
 15 21  2  0  0  0  0
 15 20  1  0  0  0  0
 16  3  1  0  0  0  0
 17  8  1  0  0  0  0
 18  6  1  0  0  0  0
 18 14  2  0  0  0  0
 19 10  1  0  0  0  0
 20 19  2  0  0  0  0
 21 17  1  0  0  0  0
 22 26  1  0  0  0  0
 23 27  1  0  0  0  0
 24 23  2  0  0  0  0
 25 22  2  0  0  0  0
 25 24  1  0  0  0  0
 26 27  2  0  0  0  0
M  END
>  <MODEL>
3

>  <REMARK>
 VINA RESULT:      -9.7      2.302      5.603
  Name = 
  1 active torsions:
  status: ('A' for Active; 'I' for Inactive)
    1  A    between atoms: C_9  and  C_15
                            x       y       z     vdW  Elec       q    Type
                         _______ _______ _______ _____ _____    ______ ____

>  <TORSDO>
F 1

$$$$
=
 OpenBabel11052413493D

 27 31  0  0  1  0  0  0  0  0999 V2000
  187.6040  176.6930  144.5250 C   0  0  0  0  0  2  0  0  0  0  0  0
  189.4170  177.3990  143.0060 C   0  0  0  0  0  0  0  0  0  0  0  0
  187.2040  177.8860  141.8910 N   0  0  0  0  0  2  0  0  0  0  0  0
  191.1660  176.9540  139.1970 C   0  0  0  0  0  3  0  0  0  0  0  0
  190.9760  176.9380  136.7930 O   0  0  0  0  0  1  0  0  0  0  0  0
  190.7870  177.1230  142.8550 C   0  0  0  0  0  3  0  0  0  0  0  0
  188.4370  177.5270  139.4030 C   0  0  0  0  0  3  0  0  0  0  0  0
  184.7100  179.9290  143.3340 C   0  0  0  0  0  3  0  0  0  0  0  0
  189.0280  177.3750  138.1470 C   0  0  0  0  0  3  0  0  0  0  0  0
  184.5390  179.9400  144.6540 C   0  0  0  0  0  3  0  0  0  0  0  0
  189.2010  177.3930  140.5730 C   0  0  0  0  0  0  0  0  0  0  0  0
  188.8380  177.5550  144.3890 C   0  0  2  0  0  3  0  0  0  0  0  0
  190.3910  177.0880  138.0430 C   0  0  0  0  0  0  0  0  0  0  0  0
  190.5810  177.1040  140.4580 C   0  0  0  0  0  0  0  0  0  0  0  0
  186.4160  177.5170  144.1920 C   0  0  0  0  0  0  0  0  0  0  0  0
  188.6080  177.5450  141.8470 C   0  0  0  0  0  0  0  0  0  0  0  0
  184.9500  178.6700  142.5730 C   0  0  0  0  0  2  0  0  0  0  0  0
  191.3640  176.9750  141.5990 C   0  0  0  0  0  3  0  0  0  0  0  0
  184.6490  178.7480  145.5140 C   0  0  0  0  0  3  0  0  0  0  0  0
  185.4550  177.6990  145.3040 C   0  0  0  0  0  3  0  0  0  0  0  0
  186.2460  178.0320  142.9560 C   0  0  0  0  0  0  0  0  0  0  0  0
  191.5580  176.8880  147.6270 C   0  0  0  0  0  3  0  0  0  0  0  0
  189.7950  177.3090  145.5230 C   0  0  0  0  0  0  0  0  0  0  0  0
  191.1090  176.8720  145.2960 C   0  0  0  0  0  3  0  0  0  0  0  0
  191.9530  176.6720  146.3440 N   0  0  0  0  0  0  0  0  0  0  0  0
  190.2580  177.3250  147.8970 C   0  0  0  0  0  3  0  0  0  0  0  0
  189.3770  177.5370  146.8350 C   0  0  0  0  0  3  0  0  0  0  0  0
  2 12  1  0  0  0  0
  3 21  1  0  0  0  0
  4 14  1  0  0  0  0
  5 13  1  0  0  0  0
  6  2  1  0  0  0  0
  7 11  1  0  0  0  0
  8 10  2  0  0  0  0
  9  7  2  0  0  0  0
 10 19  1  0  0  0  0
 11 16  1  0  0  0  0
 12  1  1  0  0  0  0
 12 23  1  1  0  0  0
 13  9  1  0  0  0  0
 13  4  2  0  0  0  0
 14 11  2  0  0  0  0
 14 18  1  0  0  0  0
 15  1  1  0  0  0  0
 15 20  1  0  0  0  0
 16  3  1  0  0  0  0
 16  2  2  0  0  0  0
 17 21  1  0  0  0  0
 17  8  1  0  0  0  0
 18  6  2  0  0  0  0
 20 19  2  0  0  0  0
 21 15  2  0  0  0  0
 22 26  1  0  0  0  0
 23 27  1  0  0  0  0
 24 23  2  0  0  0  0
 24 25  1  0  0  0  0
 25 22  2  0  0  0  0
 27 26  2  0  0  0  0
M  END
>  <MODEL>
4

>  <REMARK>
 VINA RESULT:      -9.5      2.442      5.731
  Name = 
  1 active torsions:
  status: ('A' for Active; 'I' for Inactive)
    1  A    between atoms: C_9  and  C_15
                            x       y       z     vdW  Elec       q    Type
                         _______ _______ _______ _____ _____    ______ ____

>  <TORSDO>
F 1

$$$$
=
 OpenBabel11052413493D

 27 31  0  0  1  0  0  0  0  0999 V2000
  188.7740  178.8490  140.9430 C   0  0  0  0  0  2  0  0  0  0  0  0
  187.0960  177.9670  142.5230 C   0  0  0  0  0  0  0  0  0  0  0  0
  185.9780  178.3250  140.2880 N   0  0  0  0  0  2  0  0  0  0  0  0
  183.3840  178.6150  144.4120 C   0  0  0  0  0  3  0  0  0  0  0  0
  181.0310  179.1310  144.2870 O   0  0  0  0  0  1  0  0  0  0  0  0
  186.9570  177.8780  143.9200 C   0  0  0  0  0  3  0  0  0  0  0  0
  183.5630  178.7890  141.6270 C   0  0  0  0  0  3  0  0  0  0  0  0
  187.0920  176.8170  137.2940 C   0  0  0  0  0  3  0  0  0  0  0  0
  182.3390  179.0030  142.2650 C   0  0  0  0  0  3  0  0  0  0  0  0
  188.3920  176.6080  137.0980 C   0  0  0  0  0  3  0  0  0  0  0  0
  184.7140  178.4860  142.3720 C   0  0  0  0  0  0  0  0  0  0  0  0
  188.4430  177.7220  141.8930 C   0  0  2  0  0  3  0  0  0  0  0  0
  182.2490  178.9170  143.6560 C   0  0  0  0  0  0  0  0  0  0  0  0
  184.6120  178.4000  143.7810 C   0  0  0  0  0  0  0  0  0  0  0  0
  188.3300  178.4620  139.5810 C   0  0  0  0  0  0  0  0  0  0  0  0
  185.9550  178.2690  141.7320 C   0  0  0  0  0  0  0  0  0  0  0  0
  186.5710  178.0800  137.8900 C   0  0  0  0  0  2  0  0  0  0  0  0
  185.7330  178.0930  144.5430 C   0  0  0  0  0  3  0  0  0  0  0  0
  189.4540  177.5400  137.5140 C   0  0  0  0  0  3  0  0  0  0  0  0
  189.4180  178.3470  138.5830 C   0  0  0  0  0  3  0  0  0  0  0  0
  187.0260  178.2530  139.3030 C   0  0  0  0  0  0  0  0  0  0  0  0
  191.6800  177.0510  144.6130 C   0  0  0  0  0  3  0  0  0  0  0  0
  189.5730  177.4780  142.8560 C   0  0  0  0  0  0  0  0  0  0  0  0
  190.0240  176.1830  143.1510 C   0  0  0  0  0  3  0  0  0  0  0  0
  191.0580  176.0000  144.0150 N   0  0  0  0  0  0  0  0  0  0  0  0
  191.2640  178.3580  144.3450 C   0  0  0  0  0  3  0  0  0  0  0  0
  190.2050  178.5670  143.4600 C   0  0  0  0  0  3  0  0  0  0  0  0
  1 12  1  0  0  0  0
  2  6  1  0  0  0  0
  3 16  1  0  0  0  0
  6 18  2  0  0  0  0
  7  9  2  0  0  0  0
  7 11  1  0  0  0  0
  8 17  1  0  0  0  0
  9 13  1  0  0  0  0
 10  8  2  0  0  0  0
 10 19  1  0  0  0  0
 11 14  2  0  0  0  0
 12  2  1  0  0  0  0
 12 23  1  1  0  0  0
 13  5  1  0  0  0  0
 13  4  2  0  0  0  0
 14  4  1  0  0  0  0
 14 18  1  0  0  0  0
 15  1  1  0  0  0  0
 16 11  1  0  0  0  0
 16  2  2  0  0  0  0
 17 21  1  0  0  0  0
 19 20  2  0  0  0  0
 20 15  1  0  0  0  0
 21 15  2  0  0  0  0
 21  3  1  0  0  0  0
 23 24  2  0  0  0  0
 23 27  1  0  0  0  0
 24 25  1  0  0  0  0
 25 22  2  0  0  0  0
 26 22  1  0  0  0  0
 27 26  2  0  0  0  0
M  END
>  <MODEL>
5

>  <REMARK>
 VINA RESULT:      -9.5      1.797      2.620
  Name = 
  1 active torsions:
  status: ('A' for Active; 'I' for Inactive)
    1  A    between atoms: C_9  and  C_15
                            x       y       z     vdW  Elec       q    Type
                         _______ _______ _______ _____ _____    ______ ____

>  <TORSDO>
F 1

$$$$
=
 OpenBabel11052413493D

 27 31  0  0  1  0  0  0  0  0999 V2000
  188.7860  176.8090  141.2410 C   0  0  0  0  0  2  0  0  0  0  0  0
  186.8350  178.3090  141.0490 C   0  0  0  0  0  0  0  0  0  0  0  0
  187.3940  178.0330  143.4960 N   0  0  0  0  0  2  0  0  0  0  0  0
  182.8090  178.9700  142.1100 C   0  0  0  0  0  3  0  0  0  0  0  0
  181.0850  179.1380  143.7880 O   0  0  0  0  0  1  0  0  0  0  0  0
  185.8570  178.5930  140.0800 C   0  0  0  0  0  3  0  0  0  0  0  0
  184.6920  178.4360  144.1070 C   0  0  0  0  0  3  0  0  0  0  0  0
  190.5580  178.8080  144.8650 C   0  0  0  0  0  3  0  0  0  0  0  0
  183.3550  178.6560  144.4460 C   0  0  0  0  0  3  0  0  0  0  0  0
  191.6600  178.6120  144.1460 C   0  0  0  0  0  3  0  0  0  0  0  0
  185.1060  178.4800  142.7660 C   0  0  0  0  0  0  0  0  0  0  0  0
  188.2630  178.0850  140.6220 C   0  0  2  0  0  3  0  0  0  0  0  0
  182.4140  178.9210  143.4490 C   0  0  0  0  0  0  0  0  0  0  0  0
  184.1460  178.7510  141.7640 C   0  0  0  0  0  0  0  0  0  0  0  0
  189.4690  177.1490  142.5130 C   0  0  0  0  0  0  0  0  0  0  0  0
  186.4580  178.2580  142.4180 C   0  0  0  0  0  0  0  0  0  0  0  0
  189.4380  177.8230  144.8890 C   0  0  0  0  0  2  0  0  0  0  0  0
  184.5290  178.8090  140.4290 C   0  0  0  0  0  3  0  0  0  0  0  0
  191.8680  177.4680  143.2400 C   0  0  0  0  0  3  0  0  0  0  0  0
  190.9160  176.8330  142.5450 C   0  0  0  0  0  3  0  0  0  0  0  0
  188.7920  177.6900  143.5480 C   0  0  0  0  0  0  0  0  0  0  0  0
  188.9740  178.1080  136.4000 C   0  0  0  0  0  3  0  0  0  0  0  0
  188.5040  178.1020  139.1370 C   0  0  0  0  0  0  0  0  0  0  0  0
  188.8820  179.2740  138.4660 C   0  0  0  0  0  3  0  0  0  0  0  0
  189.1060  179.2520  137.1250 N   0  0  0  0  0  0  0  0  0  0  0  0
  188.6020  176.9180  137.0310 C   0  0  0  0  0  3  0  0  0  0  0  0
  188.3680  176.9200  138.4070 C   0  0  0  0  0  3  0  0  0  0  0  0
  1 15  1  0  0  0  0
  2 16  1  0  0  0  0
  3 21  1  0  0  0  0
  4 13  2  0  0  0  0
  6 18  1  0  0  0  0
  6  2  2  0  0  0  0
  7  9  2  0  0  0  0
  8 17  1  0  0  0  0
 10  8  2  0  0  0  0
 11  7  1  0  0  0  0
 12 23  1  6  0  0  0
 12  2  1  0  0  0  0
 12  1  1  0  0  0  0
 13  5  1  0  0  0  0
 13  9  1  0  0  0  0
 14  4  1  0  0  0  0
 14 11  1  0  0  0  0
 15 20  1  0  0  0  0
 15 21  2  0  0  0  0
 16 11  2  0  0  0  0
 16  3  1  0  0  0  0
 18 14  2  0  0  0  0
 19 10  1  0  0  0  0
 20 19  2  0  0  0  0
 21 17  1  0  0  0  0
 22 26  2  0  0  0  0
 22 25  1  0  0  0  0
 24 23  1  0  0  0  0
 25 24  2  0  0  0  0
 26 27  1  0  0  0  0
 27 23  2  0  0  0  0
M  END
>  <MODEL>
6

>  <REMARK>
 VINA RESULT:      -9.4      2.232      5.328
  Name = 
  1 active torsions:
  status: ('A' for Active; 'I' for Inactive)
    1  A    between atoms: C_9  and  C_15
                            x       y       z     vdW  Elec       q    Type
                         _______ _______ _______ _____ _____    ______ ____

>  <TORSDO>
F 1

$$$$
=
 OpenBabel11052413493D

 27 31  0  0  1  0  0  0  0  0999 V2000
  187.6910  176.7800  144.1100 C   0  0  0  0  0  2  0  0  0  0  0  0
  186.8420  178.2160  142.2900 C   0  0  0  0  0  0  0  0  0  0  0  0
  185.1810  178.2680  144.1900 N   0  0  0  0  0  2  0  0  0  0  0  0
  183.6860  178.9530  139.5950 C   0  0  0  0  0  3  0  0  0  0  0  0
  181.3410  179.3150  139.1630 O   0  0  0  0  0  1  0  0  0  0  0  0
  187.0720  178.3570  140.9100 C   0  0  0  0  0  3  0  0  0  0  0  0
  183.1390  178.7100  142.3270 C   0  0  0  0  0  3  0  0  0  0  0  0
  186.0190  179.2580  147.4760 C   0  0  0  0  0  3  0  0  0  0  0  0
  182.1020  178.9530  141.4230 C   0  0  0  0  0  3  0  0  0  0  0  0
  187.2260  178.9860  147.9660 C   0  0  0  0  0  3  0  0  0  0  0  0
  184.4640  178.5850  141.8770 C   0  0  0  0  0  0  0  0  0  0  0  0
  188.0040  177.9580  143.2150 C   0  0  2  0  0  3  0  0  0  0  0  0
  182.3740  179.0740  140.0590 C   0  0  0  0  0  0  0  0  0  0  0  0
  184.7290  178.7100  140.4930 C   0  0  0  0  0  0  0  0  0  0  0  0
  187.1050  177.2930  145.3720 C   0  0  0  0  0  0  0  0  0  0  0  0
  185.5170  178.3380  142.7860 C   0  0  0  0  0  0  0  0  0  0  0  0
  185.2460  178.2700  146.6720 C   0  0  0  0  0  2  0  0  0  0  0  0
  186.0320  178.5990  140.0210 C   0  0  0  0  0  3  0  0  0  0  0  0
  187.9640  177.7370  147.7070 C   0  0  0  0  0  3  0  0  0  0  0  0
  187.9000  177.0030  146.5880 C   0  0  0  0  0  3  0  0  0  0  0  0
  185.9280  177.9540  145.3800 C   0  0  0  0  0  0  0  0  0  0  0  0
  191.7990  177.4310  141.3040 C   0  0  0  0  0  3  0  0  0  0  0  0
  189.3390  177.7850  142.5440 C   0  0  0  0  0  0  0  0  0  0  0  0
  190.5270  178.2300  143.1420 C   0  0  0  0  0  3  0  0  0  0  0  0
  191.7200  178.0460  142.5140 N   0  0  0  0  0  0  0  0  0  0  0  0
  190.6390  176.9700  140.6740 C   0  0  0  0  0  3  0  0  0  0  0  0
  189.4060  177.1490  141.3020 C   0  0  0  0  0  3  0  0  0  0  0  0
  1 15  1  0  0  0  0
  2 16  1  0  0  0  0
  2 12  1  0  0  0  0
  3 21  1  0  0  0  0
  4 13  2  0  0  0  0
  4 14  1  0  0  0  0
  5 13  1  0  0  0  0
  6  2  2  0  0  0  0
  8 10  2  0  0  0  0
  9  7  2  0  0  0  0
 11  7  1  0  0  0  0
 11 16  2  0  0  0  0
 12 23  1  6  0  0  0
 12  1  1  0  0  0  0
 13  9  1  0  0  0  0
 14 11  1  0  0  0  0
 15 21  2  0  0  0  0
 15 20  1  0  0  0  0
 16  3  1  0  0  0  0
 17  8  1  0  0  0  0
 18 14  2  0  0  0  0
 18  6  1  0  0  0  0
 19 10  1  0  0  0  0
 20 19  2  0  0  0  0
 21 17  1  0  0  0  0
 22 25  1  0  0  0  0
 23 24  1  0  0  0  0
 25 24  2  0  0  0  0
 26 27  1  0  0  0  0
 26 22  2  0  0  0  0
 27 23  2  0  0  0  0
M  END
>  <MODEL>
7

>  <REMARK>
 VINA RESULT:      -9.3      2.431      5.498
  Name = 
  1 active torsions:
  status: ('A' for Active; 'I' for Inactive)
    1  A    between atoms: C_9  and  C_15
                            x       y       z     vdW  Elec       q    Type
                         _______ _______ _______ _____ _____    ______ ____

>  <TORSDO>
F 1

$$$$
=
 OpenBabel11052413493D

 27 31  0  0  1  0  0  0  0  0999 V2000
  187.3580  178.9090  140.8610 C   0  0  0  0  0  2  0  0  0  0  0  0
  188.1600  177.5700  142.7730 C   0  0  0  0  0  0  0  0  0  0  0  0
  185.7670  178.2410  143.2160 N   0  0  0  0  0  2  0  0  0  0  0  0
  188.8320  177.4570  146.9330 C   0  0  0  0  0  3  0  0  0  0  0  0
  188.0380  177.7450  149.1920 O   0  0  0  0  0  1  0  0  0  0  0  0
  189.4070  177.1970  143.3060 C   0  0  0  0  0  3  0  0  0  0  0  0
  186.3130  178.1870  145.9610 C   0  0  0  0  0  3  0  0  0  0  0  0
  183.0970  177.4660  141.0370 C   0  0  0  0  0  3  0  0  0  0  0  0
  186.5490  178.1470  147.3380 C   0  0  0  0  0  3  0  0  0  0  0  0
  183.2990  177.4330  139.7220 C   0  0  0  0  0  3  0  0  0  0  0  0
  187.3330  177.8630  145.0520 C   0  0  0  0  0  0  0  0  0  0  0  0
  187.9670  177.5900  141.2790 C   0  0  2  0  0  3  0  0  0  0  0  0
  187.8060  177.7830  147.8240 C   0  0  0  0  0  0  0  0  0  0  0  0
  188.6030  177.4950  145.5550 C   0  0  0  0  0  0  0  0  0  0  0  0
  185.8830  178.7510  140.8130 C   0  0  0  0  0  0  0  0  0  0  0  0
  187.1000  177.9020  143.6590 C   0  0  0  0  0  0  0  0  0  0  0  0
  183.6790  178.5290  141.9050 C   0  0  0  0  0  2  0  0  0  0  0  0
  189.6290  177.1610  144.6780 C   0  0  0  0  0  3  0  0  0  0  0  0
  184.1720  178.3690  138.9930 C   0  0  0  0  0  3  0  0  0  0  0  0
  185.2820  178.9450  139.4730 C   0  0  0  0  0  3  0  0  0  0  0  0
  185.1730  178.4690  141.9250 C   0  0  0  0  0  0  0  0  0  0  0  0
  191.4430  176.6760  138.9530 C   0  0  0  0  0  3  0  0  0  0  0  0
  189.1930  177.2810  140.4630 C   0  0  0  0  0  0  0  0  0  0  0  0
  190.4850  177.4770  140.9720 C   0  0  0  0  0  3  0  0  0  0  0  0
  191.5720  177.1740  140.2130 N   0  0  0  0  0  0  0  0  0  0  0  0
  190.1740  176.4630  138.4100 C   0  0  0  0  0  3  0  0  0  0  0  0
  189.0460  176.7670  139.1730 C   0  0  0  0  0  3  0  0  0  0  0  0
  1 12  1  0  0  0  0
  2  6  2  0  0  0  0
  2 16  1  0  0  0  0
  3 16  1  0  0  0  0
  4 13  2  0  0  0  0
  6 18  1  0  0  0  0
  7  9  2  0  0  0  0
  8 17  1  0  0  0  0
  9 13  1  0  0  0  0
 10  8  2  0  0  0  0
 11 14  1  0  0  0  0
 11  7  1  0  0  0  0
 12 23  1  6  0  0  0
 12  2  1  0  0  0  0
 13  5  1  0  0  0  0
 14  4  1  0  0  0  0
 15  1  1  0  0  0  0
 15 21  2  0  0  0  0
 16 11  2  0  0  0  0
 17 21  1  0  0  0  0
 18 14  2  0  0  0  0
 19 20  2  0  0  0  0
 19 10  1  0  0  0  0
 20 15  1  0  0  0  0
 21  3  1  0  0  0  0
 22 25  1  0  0  0  0
 23 24  1  0  0  0  0
 25 24  2  0  0  0  0
 26 22  2  0  0  0  0
 26 27  1  0  0  0  0
 27 23  2  0  0  0  0
M  END
>  <MODEL>
8

>  <REMARK>
 VINA RESULT:      -9.3      2.559      5.455
  Name = 
  1 active torsions:
  status: ('A' for Active; 'I' for Inactive)
    1  A    between atoms: C_9  and  C_15
                            x       y       z     vdW  Elec       q    Type
                         _______ _______ _______ _____ _____    ______ ____

>  <TORSDO>
F 1

$$$$
=
 OpenBabel11052413493D

 27 31  0  0  1  0  0  0  0  0999 V2000
  188.0830  178.8230  140.9580 C   0  0  0  0  0  2  0  0  0  0  0  0
  189.3770  177.1610  142.2450 C   0  0  0  0  0  0  0  0  0  0  0  0
  187.5240  178.0440  143.7150 N   0  0  0  0  0  2  0  0  0  0  0  0
  191.6810  176.4280  145.6980 C   0  0  0  0  0  3  0  0  0  0  0  0
  191.9490  176.5090  148.0940 O   0  0  0  0  0  1  0  0  0  0  0  0
  190.6540  176.5780  142.1660 C   0  0  0  0  0  3  0  0  0  0  0  0
  189.1390  177.5680  145.9510 C   0  0  0  0  0  3  0  0  0  0  0  0
  184.1050  177.8780  142.8410 C   0  0  0  0  0  3  0  0  0  0  0  0
  189.9130  177.3210  147.0880 C   0  0  0  0  0  3  0  0  0  0  0  0
  183.7370  177.9930  141.5680 C   0  0  0  0  0  3  0  0  0  0  0  0
  189.6250  177.2480  144.6730 C   0  0  0  0  0  0  0  0  0  0  0  0
  188.5890  177.3990  140.9830 C   0  0  2  0  0  3  0  0  0  0  0  0
  191.1820  176.7530  146.9620 C   0  0  0  0  0  0  0  0  0  0  0  0
  190.9120  176.6720  144.5570 C   0  0  0  0  0  0  0  0  0  0  0  0
  186.7170  178.8460  141.5340 C   0  0  0  0  0  0  0  0  0  0  0  0
  188.8470  177.4960  143.5200 C   0  0  0  0  0  0  0  0  0  0  0  0
  185.1570  178.7430  143.4470 C   0  0  0  0  0  2  0  0  0  0  0  0
  191.4150  176.3370  143.3050 C   0  0  0  0  0  3  0  0  0  0  0  0
  184.3690  178.9080  140.6010 C   0  0  0  0  0  3  0  0  0  0  0  0
  185.6550  179.2820  140.5970 C   0  0  0  0  0  3  0  0  0  0  0  0
  186.4940  178.5060  142.8220 C   0  0  0  0  0  0  0  0  0  0  0  0
  190.6310  176.4580  137.3390 C   0  0  0  0  0  3  0  0  0  0  0  0
  189.3000  177.0570  139.7020 C   0  0  0  0  0  0  0  0  0  0  0  0
  188.5970  176.7530  138.5270 C   0  0  0  0  0  3  0  0  0  0  0  0
  189.2710  176.4620  137.3830 N   0  0  0  0  0  0  0  0  0  0  0  0
  191.3700  176.7580  138.4860 C   0  0  0  0  0  3  0  0  0  0  0  0
  190.6960  177.0600  139.6710 C   0  0  0  0  0  3  0  0  0  0  0  0
  1 12  1  0  0  0  0
  1 15  1  0  0  0  0
  2 16  1  0  0  0  0
  4 13  2  0  0  0  0
  6  2  2  0  0  0  0
  6 18  1  0  0  0  0
  7  9  2  0  0  0  0
  8 17  1  0  0  0  0
 10  8  2  0  0  0  0
 11  7  1  0  0  0  0
 12 23  1  6  0  0  0
 12  2  1  0  0  0  0
 13  9  1  0  0  0  0
 13  5  1  0  0  0  0
 14 11  1  0  0  0  0
 14  4  1  0  0  0  0
 15 21  2  0  0  0  0
 16  3  1  0  0  0  0
 16 11  2  0  0  0  0
 18 14  2  0  0  0  0
 19 10  1  0  0  0  0
 20 19  2  0  0  0  0
 20 15  1  0  0  0  0
 21 17  1  0  0  0  0
 21  3  1  0  0  0  0
 22 25  2  0  0  0  0
 22 26  1  0  0  0  0
 24 23  2  0  0  0  0
 25 24  1  0  0  0  0
 26 27  2  0  0  0  0
 27 23  1  0  0  0  0
M  END
>  <MODEL>
9

>  <REMARK>
 VINA RESULT:      -9.0      2.655      6.367
  Name = 
  1 active torsions:
  status: ('A' for Active; 'I' for Inactive)
    1  A    between atoms: C_9  and  C_15
                            x       y       z     vdW  Elec       q    Type
                         _______ _______ _______ _____ _____    ______ ____

>  <TORSDO>
F 1

$$$$
