=
 OpenBabel11052416453D

 43 47  0  0  1  0  0  0  0  0999 V2000
  184.4630  178.0340  137.3510 C   0  0  1  0  0  3  0  0  0  0  0  0
  183.9760  173.0440  136.1480 C   0  0  0  0  0  0  0  0  0  0  0  0
  183.3840  175.2940  135.5900 C   0  0  0  0  0  0  0  0  0  0  0  0
  184.1820  173.4460  137.4850 C   0  0  0  0  0  3  0  0  0  0  0  0
  184.2250  171.3740  135.6950 Cl  0  0  0  0  0  0  0  0  0  0  0  0
  183.6030  175.6910  136.8770 C   0  0  0  0  0  0  0  0  0  0  0  0
  183.5640  173.9760  135.1790 C   0  0  0  0  0  3  0  0  0  0  0  0
  183.9880  174.7860  137.8660 C   0  0  0  0  0  3  0  0  0  0  0  0
  183.2790  177.1450  136.9400 C   0  0  2  0  0  3  0  0  0  0  0  0
  182.8970  177.4240  135.5490 N   0  0  0  0  0  0  0  0  0  0  0  0
  182.9590  176.3900  134.8060 N   0  0  0  0  0  0  0  0  0  0  0  0
  183.8710  177.7500  139.7890 N   0  0  0  0  0  2  0  0  0  0  0  0
  184.4500  178.5570  138.7600 C   0  0  0  0  0  0  0  0  0  0  0  0
  184.9320  179.6930  139.0200 O   0  0  0  0  0  0  0  0  0  0  0  0
  182.1180  178.9240  142.8920 C   0  0  0  0  0  0  0  0  0  0  0  0
  183.1700  178.8820  143.8110 C   0  0  0  0  0  0  0  0  0  0  0  0
  182.9670  179.2520  145.1000 F   0  0  0  0  0  0  0  0  0  0  0  0
  184.6590  178.1010  142.0690 C   0  0  0  0  0  3  0  0  0  0  0  0
  182.3380  178.5560  141.5620 C   0  0  0  0  0  3  0  0  0  0  0  0
  183.6120  178.1460  141.1410 C   0  0  0  0  0  0  0  0  0  0  0  0
  180.8820  179.3190  143.2850 F   0  0  0  0  0  0  0  0  0  0  0  0
  184.4400  178.4710  143.4000 C   0  0  0  0  0  3  0  0  0  0  0  0
  185.7230  177.7100  136.7880 O   0  0  0  0  0  0  0  0  0  0  0  0
  186.6320  177.3540  137.8030 C   0  0  1  0  0  3  0  0  0  0  0  0
  187.1160  175.9300  137.5880 C   0  0  0  0  0  1  0  0  0  0  0  0
  187.8370  178.2970  137.8110 C   0  0  2  0  0  3  0  0  0  0  0  0
  189.0760  177.6110  137.2630 C   0  0  0  0  0  1  0  0  0  0  0  0
  188.0930  178.7940  139.1390 N   0  0  0  0  0  0  0  0  0  0  0  0
  187.9740  178.0430  140.1240 N   0  0  0  0  0  0  0  0  0  0  0  0
  188.2390  178.5380  141.4490 C   0  0  0  0  0  2  0  0  0  0  0  0
  189.3320  177.7480  142.0980 C   0  0  0  0  0  0  0  0  0  0  0  0
  190.1950  176.3430  143.8820 C   0  0  0  0  0  3  0  0  0  0  0  0
  190.6000  177.7590  141.5090 C   0  0  0  0  0  3  0  0  0  0  0  0
  191.6600  177.0670  142.1020 C   0  0  0  0  0  3  0  0  0  0  0  0
  189.1200  177.0190  143.2860 C   0  0  0  0  0  0  0  0  0  0  0  0
  191.4580  176.3640  143.2910 C   0  0  0  0  0  3  0  0  0  0  0  0
  187.7680  176.9820  143.9390 C   0  0  0  0  0  2  0  0  0  0  0  0
  187.8290  177.4120  145.3700 C   0  0  0  0  0  0  0  0  0  0  0  0
  187.9130  178.2350  148.0450 C   0  0  0  0  0  3  0  0  0  0  0  0
  189.0920  177.8750  147.3870 C   0  0  0  0  0  3  0  0  0  0  0  0
  186.6920  178.1830  147.3670 C   0  0  0  0  0  3  0  0  0  0  0  0
  189.0510  177.4610  146.0530 C   0  0  0  0  0  3  0  0  0  0  0  0
  186.6500  177.7730  146.0320 C   0  0  0  0  0  3  0  0  0  0  0  0
  1 23  1  1  0  0  0
  1 13  1  0  0  0  0
  2  4  1  0  0  0  0
  3  6  2  0  0  0  0
  4  8  2  0  0  0  0
  5  2  1  0  0  0  0
  6  9  1  0  0  0  0
  6  8  1  0  0  0  0
  7  3  1  0  0  0  0
  7  2  2  0  0  0  0
  9  1  1  6  0  0  0
 10  9  1  0  0  0  0
 11 10  2  0  0  0  0
 11  3  1  0  0  0  0
 12 20  1  0  0  0  0
 13 14  2  0  0  0  0
 13 12  1  0  0  0  0
 15 21  1  0  0  0  0
 15 16  1  0  0  0  0
 16 17  1  0  0  0  0
 18 22  1  0  0  0  0
 19 15  2  0  0  0  0
 20 19  1  0  0  0  0
 20 18  2  0  0  0  0
 22 16  2  0  0  0  0
 23 24  1  0  0  0  0
 24 25  1  6  0  0  0
 24 26  1  0  0  0  0
 26 27  1  1  0  0  0
 26 28  1  0  0  0  0
 28 29  2  0  0  0  0
 29 30  1  0  0  0  0
 30 31  1  0  0  0  0
 31 35  1  0  0  0  0
 33 31  2  0  0  0  0
 33 34  1  0  0  0  0
 34 36  2  0  0  0  0
 35 32  2  0  0  0  0
 35 37  1  0  0  0  0
 36 32  1  0  0  0  0
 37 38  1  0  0  0  0
 38 43  2  0  0  0  0
 38 42  1  0  0  0  0
 40 39  1  0  0  0  0
 41 39  2  0  0  0  0
 42 40  2  0  0  0  0
 43 41  1  0  0  0  0
M  END
>  <MODEL>
1

>  <REMARK>
 VINA RESULT:      -9.1      0.000      0.000
  Name = 
  11 active torsions:
  status: ('A' for Active; 'I' for Inactive)
    1  A    between atoms: N_1  and  C_35
    2  A    between atoms: C_2  and  N_6
    3  A    between atoms: C_2  and  C_13
    4  A    between atoms: C_3  and  C_4
    5  A    between atoms: C_3  and  N_12
    6  A    between atoms: C_8  and  O_27
    7  A    between atoms: C_8  and  C_30
    8  A    between atoms: C_8  and  C_34
    9  A    between atoms: C_11  and  C_14
   10  A    between atoms: C_13  and  O_27
   11  A    between atoms: C_14  and  C_41
                            x       y       z     vdW  Elec       q    Type
                         _______ _______ _______ _____ _____    ______ ____

>  <TORSDO>
F 11

$$$$
=
 OpenBabel11052416453D

 43 47  0  0  1  0  0  0  0  0999 V2000
  184.8850  177.9250  138.0450 C   0  0  1  0  0  3  0  0  0  0  0  0
  183.8480  178.8030  143.0180 C   0  0  0  0  0  0  0  0  0  0  0  0
  182.9830  178.7090  140.7890 C   0  0  0  0  0  0  0  0  0  0  0  0
  185.1320  179.0650  142.4930 C   0  0  0  0  0  3  0  0  0  0  0  0
  183.6220  178.7050  144.7490 Cl  0  0  0  0  0  0  0  0  0  0  0  0
  184.2260  178.9430  140.2770 C   0  0  0  0  0  0  0  0  0  0  0  0
  182.7490  178.6270  142.1600 C   0  0  0  0  0  3  0  0  0  0  0  0
  185.3310  179.1450  141.1020 C   0  0  0  0  0  3  0  0  0  0  0  0
  184.0770  178.9950  138.7940 C   0  0  2  0  0  3  0  0  0  0  0  0
  182.6390  178.7460  138.6320 N   0  0  0  0  0  0  0  0  0  0  0  0
  182.0380  178.5880  139.7460 N   0  0  0  0  0  0  0  0  0  0  0  0
  183.7950  175.6510  138.1550 N   0  0  0  0  0  2  0  0  0  0  0  0
  184.0960  176.8230  137.3940 C   0  0  0  0  0  0  0  0  0  0  0  0
  183.7230  176.9330  136.1940 O   0  0  0  0  0  0  0  0  0  0  0  0
  183.3950  172.1440  136.8780 C   0  0  0  0  0  0  0  0  0  0  0  0
  182.0060  172.0860  136.7220 C   0  0  0  0  0  0  0  0  0  0  0  0
  181.4190  170.9570  136.2540 F   0  0  0  0  0  0  0  0  0  0  0  0
  181.8240  174.3690  137.5070 C   0  0  0  0  0  3  0  0  0  0  0  0
  183.9950  173.3160  137.3460 C   0  0  0  0  0  3  0  0  0  0  0  0
  183.2140  174.4380  137.6600 C   0  0  0  0  0  0  0  0  0  0  0  0
  184.1620  171.0680  136.5780 F   0  0  0  0  0  0  0  0  0  0  0  0
  181.2220  173.1980  137.0360 C   0  0  0  0  0  3  0  0  0  0  0  0
  186.0570  178.3670  137.3810 O   0  0  0  0  0  0  0  0  0  0  0  0
  187.0810  177.4080  137.5110 C   0  0  1  0  0  3  0  0  0  0  0  0
  187.5110  176.9200  136.1380 C   0  0  0  0  0  1  0  0  0  0  0  0
  188.2920  177.9980  138.2360 C   0  0  2  0  0  3  0  0  0  0  0  0
  189.4470  178.2290  137.2780 C   0  0  0  0  0  1  0  0  0  0  0  0
  188.7110  177.1460  139.3200 N   0  0  0  0  0  0  0  0  0  0  0  0
  188.5400  177.5020  140.5000 N   0  0  0  0  0  0  0  0  0  0  0  0
  188.9490  176.6470  141.5820 C   0  0  0  0  0  2  0  0  0  0  0  0
  189.8790  177.3700  142.5040 C   0  0  0  0  0  0  0  0  0  0  0  0
  190.3550  178.5800  144.5570 C   0  0  0  0  0  3  0  0  0  0  0  0
  191.1980  177.5780  142.0900 C   0  0  0  0  0  3  0  0  0  0  0  0
  192.0910  178.2820  142.9020 C   0  0  0  0  0  3  0  0  0  0  0  0
  189.4560  177.8580  143.7570 C   0  0  0  0  0  0  0  0  0  0  0  0
  191.6680  178.7870  144.1330 C   0  0  0  0  0  3  0  0  0  0  0  0
  188.0470  177.6470  144.2330 C   0  0  0  0  0  2  0  0  0  0  0  0
  187.9470  177.7130  145.7240 C   0  0  0  0  0  0  0  0  0  0  0  0
  187.7780  177.8110  148.5170 C   0  0  0  0  0  3  0  0  0  0  0  0
  186.7890  178.4130  147.7360 C   0  0  0  0  0  3  0  0  0  0  0  0
  188.8530  177.1610  147.9030 C   0  0  0  0  0  3  0  0  0  0  0  0
  186.8730  178.3680  146.3420 C   0  0  0  0  0  3  0  0  0  0  0  0
  188.9360  177.1120  146.5090 C   0  0  0  0  0  3  0  0  0  0  0  0
  1 23  1  6  0  0  0
  2  5  1  0  0  0  0
  3  7  1  0  0  0  0
  4  2  1  0  0  0  0
  6  3  2  0  0  0  0
  6  8  1  0  0  0  0
  7  2  2  0  0  0  0
  8  4  2  0  0  0  0
  9  1  1  6  0  0  0
  9  6  1  0  0  0  0
 10  9  1  0  0  0  0
 10 11  2  0  0  0  0
 11  3  1  0  0  0  0
 13  1  1  0  0  0  0
 13 12  1  0  0  0  0
 14 13  2  0  0  0  0
 15 19  1  0  0  0  0
 16 15  2  0  0  0  0
 16 22  1  0  0  0  0
 17 16  1  0  0  0  0
 18 20  1  0  0  0  0
 19 20  2  0  0  0  0
 20 12  1  0  0  0  0
 21 15  1  0  0  0  0
 22 18  2  0  0  0  0
 23 24  1  0  0  0  0
 24 25  1  6  0  0  0
 24 26  1  0  0  0  0
 26 27  1  6  0  0  0
 26 28  1  0  0  0  0
 28 29  2  0  0  0  0
 29 30  1  0  0  0  0
 30 31  1  0  0  0  0
 31 35  1  0  0  0  0
 33 31  2  0  0  0  0
 33 34  1  0  0  0  0
 34 36  2  0  0  0  0
 35 37  1  0  0  0  0
 35 32  2  0  0  0  0
 36 32  1  0  0  0  0
 37 38  1  0  0  0  0
 38 42  2  0  0  0  0
 38 43  1  0  0  0  0
 40 39  2  0  0  0  0
 41 39  1  0  0  0  0
 42 40  1  0  0  0  0
 43 41  2  0  0  0  0
M  END
>  <MODEL>
2

>  <REMARK>
 VINA RESULT:      -9.1      3.326      5.330
  Name = 
  11 active torsions:
  status: ('A' for Active; 'I' for Inactive)
    1  A    between atoms: N_1  and  C_35
    2  A    between atoms: C_2  and  N_6
    3  A    between atoms: C_2  and  C_13
    4  A    between atoms: C_3  and  C_4
    5  A    between atoms: C_3  and  N_12
    6  A    between atoms: C_8  and  O_27
    7  A    between atoms: C_8  and  C_30
    8  A    between atoms: C_8  and  C_34
    9  A    between atoms: C_11  and  C_14
   10  A    between atoms: C_13  and  O_27
   11  A    between atoms: C_14  and  C_41
                            x       y       z     vdW  Elec       q    Type
                         _______ _______ _______ _____ _____    ______ ____

>  <TORSDO>
F 11

$$$$
=
 OpenBabel11052416453D

 43 47  0  0  1  0  0  0  0  0999 V2000
  186.4760  178.7480  142.3360 C   0  0  1  0  0  3  0  0  0  0  0  0
  187.6640  177.9720  147.2920 C   0  0  0  0  0  0  0  0  0  0  0  0
  187.9040  177.1960  145.0410 C   0  0  0  0  0  0  0  0  0  0  0  0
  186.4520  178.5970  146.9310 C   0  0  0  0  0  3  0  0  0  0  0  0
  188.2440  178.0850  148.9380 Cl  0  0  0  0  0  0  0  0  0  0  0  0
  186.7420  177.8160  144.6840 C   0  0  0  0  0  0  0  0  0  0  0  0
  188.4060  177.2510  146.3390 C   0  0  0  0  0  3  0  0  0  0  0  0
  185.9720  178.5170  145.6110 C   0  0  0  0  0  3  0  0  0  0  0  0
  186.5160  177.5090  143.2430 C   0  0  2  0  0  3  0  0  0  0  0  0
  187.6930  176.6900  142.9260 N   0  0  0  0  0  0  0  0  0  0  0  0
  188.4600  176.5210  143.9320 N   0  0  0  0  0  0  0  0  0  0  0  0
  186.7930  178.4300  139.8510 N   0  0  0  0  0  2  0  0  0  0  0  0
  187.3700  178.7220  141.1270 C   0  0  0  0  0  0  0  0  0  0  0  0
  188.6050  178.9420  141.2450 O   0  0  0  0  0  0  0  0  0  0  0  0
  189.5140  177.5920  137.4050 C   0  0  0  0  0  0  0  0  0  0  0  0
  188.8170  177.7080  136.1990 C   0  0  0  0  0  0  0  0  0  0  0  0
  189.4520  177.4920  135.0210 F   0  0  0  0  0  0  0  0  0  0  0  0
  186.8090  178.2980  137.4170 C   0  0  0  0  0  3  0  0  0  0  0  0
  188.8570  177.8310  138.6160 C   0  0  0  0  0  3  0  0  0  0  0  0
  187.5010  178.1900  138.6290 C   0  0  0  0  0  0  0  0  0  0  0  0
  190.8240  177.2460  137.4080 F   0  0  0  0  0  0  0  0  0  0  0  0
  187.4650  178.0610  136.2050 C   0  0  0  0  0  3  0  0  0  0  0  0
  185.2230  179.3970  142.2050 O   0  0  0  0  0  0  0  0  0  0  0  0
  184.1790  178.4510  142.2350 C   0  0  1  0  0  3  0  0  0  0  0  0
  183.2410  178.7520  143.3910 C   0  0  0  0  0  1  0  0  0  0  0  0
  183.3860  178.4720  140.9270 C   0  0  2  0  0  3  0  0  0  0  0  0
  181.9030  178.6700  141.1870 C   0  0  0  0  0  1  0  0  0  0  0  0
  183.6000  177.2610  140.1750 N   0  0  0  0  0  0  0  0  0  0  0  0
  182.6490  176.7120  139.5880 N   0  0  0  0  0  0  0  0  0  0  0  0
  182.8650  175.5090  138.8290 C   0  0  0  0  0  2  0  0  0  0  0  0
  183.3570  175.8340  137.4530 C   0  0  0  0  0  0  0  0  0  0  0  0
  184.8450  175.4760  135.5660 C   0  0  0  0  0  3  0  0  0  0  0  0
  182.7880  176.9210  136.7830 C   0  0  0  0  0  3  0  0  0  0  0  0
  183.2430  177.2850  135.5120 C   0  0  0  0  0  3  0  0  0  0  0  0
  184.3830  175.0920  136.8340 C   0  0  0  0  0  0  0  0  0  0  0  0
  184.2750  176.5650  134.9070 C   0  0  0  0  0  3  0  0  0  0  0  0
  185.0110  173.9150  137.5250 C   0  0  0  0  0  2  0  0  0  0  0  0
  184.6810  172.6260  136.8440 C   0  0  0  0  0  0  0  0  0  0  0  0
  184.0390  170.2060  135.5900 C   0  0  0  0  0  3  0  0  0  0  0  0
  185.3030  170.7710  135.4120 C   0  0  0  0  0  3  0  0  0  0  0  0
  183.0940  170.8500  136.3940 C   0  0  0  0  0  3  0  0  0  0  0  0
  185.6240  171.9810  136.0340 C   0  0  0  0  0  3  0  0  0  0  0  0
  183.4150  172.0570  137.0200 C   0  0  0  0  0  3  0  0  0  0  0  0
  1 13  1  6  0  0  0
  2  5  1  0  0  0  0
  3  7  1  0  0  0  0
  4  2  1  0  0  0  0
  6  3  2  0  0  0  0
  6  8  1  0  0  0  0
  7  2  2  0  0  0  0
  8  4  2  0  0  0  0
  9  1  1  6  0  0  0
  9  6  1  0  0  0  0
 10  9  1  0  0  0  0
 10 11  2  0  0  0  0
 11  3  1  0  0  0  0
 12 13  1  0  0  0  0
 13 14  2  0  0  0  0
 15 21  1  0  0  0  0
 15 19  1  0  0  0  0
 16 22  1  0  0  0  0
 16 15  2  0  0  0  0
 17 16  1  0  0  0  0
 18 20  1  0  0  0  0
 19 20  2  0  0  0  0
 20 12  1  0  0  0  0
 22 18  2  0  0  0  0
 23 24  1  0  0  0  0
 23  1  1  0  0  0  0
 24 25  1  1  0  0  0
 26 27  1  1  0  0  0
 26 24  1  0  0  0  0
 28 26  1  0  0  0  0
 29 28  2  0  0  0  0
 30 29  1  0  0  0  0
 31 30  1  0  0  0  0
 32 35  2  0  0  0  0
 33 31  2  0  0  0  0
 34 33  1  0  0  0  0
 35 31  1  0  0  0  0
 35 37  1  0  0  0  0
 36 34  2  0  0  0  0
 36 32  1  0  0  0  0
 38 43  1  0  0  0  0
 38 37  1  0  0  0  0
 39 41  1  0  0  0  0
 40 39  2  0  0  0  0
 40 42  1  0  0  0  0
 41 43  2  0  0  0  0
 42 38  2  0  0  0  0
M  END
>  <MODEL>
3

>  <REMARK>
 VINA RESULT:      -9.1      4.003      9.402
  Name = 
  11 active torsions:
  status: ('A' for Active; 'I' for Inactive)
    1  A    between atoms: N_1  and  C_35
    2  A    between atoms: C_2  and  N_6
    3  A    between atoms: C_2  and  C_13
    4  A    between atoms: C_3  and  C_4
    5  A    between atoms: C_3  and  N_12
    6  A    between atoms: C_8  and  O_27
    7  A    between atoms: C_8  and  C_30
    8  A    between atoms: C_8  and  C_34
    9  A    between atoms: C_11  and  C_14
   10  A    between atoms: C_13  and  O_27
   11  A    between atoms: C_14  and  C_41
                            x       y       z     vdW  Elec       q    Type
                         _______ _______ _______ _____ _____    ______ ____

>  <TORSDO>
F 11

$$$$
=
 OpenBabel11052416453D

 43 47  0  0  1  0  0  0  0  0999 V2000
  190.9530  176.3520  139.3910 C   0  0  1  0  0  3  0  0  0  0  0  0
  193.7820  173.2710  136.3770 C   0  0  0  0  0  0  0  0  0  0  0  0
  193.7920  175.0700  137.9560 C   0  0  0  0  0  0  0  0  0  0  0  0
  192.4600  173.6130  136.0200 C   0  0  0  0  0  3  0  0  0  0  0  0
  194.5740  171.9260  135.5910 Cl  0  0  0  0  0  0  0  0  0  0  0  0
  192.5070  175.3900  137.6270 C   0  0  0  0  0  0  0  0  0  0  0  0
  194.4690  174.0110  137.3560 C   0  0  0  0  0  3  0  0  0  0  0  0
  191.8070  174.6910  136.6440 C   0  0  0  0  0  3  0  0  0  0  0  0
  192.1390  176.5830  138.4430 C   0  0  2  0  0  3  0  0  0  0  0  0
  193.3680  176.8030  139.2170 N   0  0  0  0  0  0  0  0  0  0  0  0
  194.2810  175.9570  138.9400 N   0  0  0  0  0  0  0  0  0  0  0  0
  190.5360  176.0500  141.8630 N   0  0  0  0  0  2  0  0  0  0  0  0
  191.1300  176.8150  140.8110 C   0  0  0  0  0  0  0  0  0  0  0  0
  191.7790  177.8670  141.0590 O   0  0  0  0  0  0  0  0  0  0  0  0
  189.2160  177.2910  145.1500 C   0  0  0  0  0  0  0  0  0  0  0  0
  190.3380  177.1030  145.9630 C   0  0  0  0  0  0  0  0  0  0  0  0
  190.2950  177.4450  147.2740 F   0  0  0  0  0  0  0  0  0  0  0  0
  191.5650  176.2320  144.0660 C   0  0  0  0  0  3  0  0  0  0  0  0
  189.2710  176.9500  143.7960 C   0  0  0  0  0  3  0  0  0  0  0  0
  190.4480  176.4220  143.2440 C   0  0  0  0  0  0  0  0  0  0  0  0
  188.0720  177.8000  145.6690 F   0  0  0  0  0  0  0  0  0  0  0  0
  191.5120  176.5750  145.4210 C   0  0  0  0  0  3  0  0  0  0  0  0
  189.6580  176.4680  138.8260 O   0  0  0  0  0  0  0  0  0  0  0  0
  189.5600  177.6550  138.0720 C   0  0  1  0  0  3  0  0  0  0  0  0
  189.1020  177.3350  136.6600 C   0  0  0  0  0  1  0  0  0  0  0  0
  188.5690  178.6280  138.7130 C   0  0  2  0  0  3  0  0  0  0  0  0
  188.3290  178.2870  140.1730 C   0  0  0  0  0  1  0  0  0  0  0  0
  187.3190  178.6380  137.9950 N   0  0  0  0  0  0  0  0  0  0  0  0
  186.2410  178.5470  138.6110 N   0  0  0  0  0  0  0  0  0  0  0  0
  184.9940  178.5670  137.8940 C   0  0  0  0  0  2  0  0  0  0  0  0
  184.0590  177.5300  138.4330 C   0  0  0  0  0  0  0  0  0  0  0  0
  182.5090  176.7030  140.1110 C   0  0  0  0  0  3  0  0  0  0  0  0
  183.9320  176.3230  137.7380 C   0  0  0  0  0  3  0  0  0  0  0  0
  183.1000  175.3110  138.2250 C   0  0  0  0  0  3  0  0  0  0  0  0
  183.3280  177.7310  139.6210 C   0  0  0  0  0  0  0  0  0  0  0  0
  182.3930  175.5000  139.4140 C   0  0  0  0  0  3  0  0  0  0  0  0
  183.4370  179.0180  140.3880 C   0  0  0  0  0  2  0  0  0  0  0  0
  183.9240  178.7960  141.7840 C   0  0  0  0  0  0  0  0  0  0  0  0
  184.8590  178.3600  144.3870 C   0  0  0  0  0  3  0  0  0  0  0  0
  183.5270  178.7230  144.1750 C   0  0  0  0  0  3  0  0  0  0  0  0
  185.7250  178.2150  143.2990 C   0  0  0  0  0  3  0  0  0  0  0  0
  183.0600  178.9450  142.8770 C   0  0  0  0  0  3  0  0  0  0  0  0
  185.2570  178.4320  142.0000 C   0  0  0  0  0  3  0  0  0  0  0  0
  1 23  1  6  0  0  0
  1 13  1  0  0  0  0
  2  7  1  0  0  0  0
  3 11  1  0  0  0  0
  4  2  2  0  0  0  0
  4  8  1  0  0  0  0
  5  2  1  0  0  0  0
  6  3  1  0  0  0  0
  6  9  1  0  0  0  0
  7  3  2  0  0  0  0
  8  6  2  0  0  0  0
  9 10  1  0  0  0  0
  9  1  1  1  0  0  0
 11 10  2  0  0  0  0
 12 20  1  0  0  0  0
 13 14  2  0  0  0  0
 13 12  1  0  0  0  0
 15 21  1  0  0  0  0
 15 16  1  0  0  0  0
 16 17  1  0  0  0  0
 18 22  1  0  0  0  0
 19 15  2  0  0  0  0
 20 19  1  0  0  0  0
 20 18  2  0  0  0  0
 22 16  2  0  0  0  0
 24 25  1  6  0  0  0
 24 26  1  0  0  0  0
 24 23  1  0  0  0  0
 26 27  1  1  0  0  0
 28 29  2  0  0  0  0
 28 26  1  0  0  0  0
 30 31  1  0  0  0  0
 30 29  1  0  0  0  0
 31 35  1  0  0  0  0
 33 34  1  0  0  0  0
 33 31  2  0  0  0  0
 34 36  2  0  0  0  0
 35 32  2  0  0  0  0
 35 37  1  0  0  0  0
 36 32  1  0  0  0  0
 37 38  1  0  0  0  0
 38 43  2  0  0  0  0
 38 42  1  0  0  0  0
 40 39  1  0  0  0  0
 41 39  2  0  0  0  0
 42 40  2  0  0  0  0
 43 41  1  0  0  0  0
M  END
>  <MODEL>
4

>  <REMARK>
 VINA RESULT:      -9.1      3.721      7.437
  Name = 
  11 active torsions:
  status: ('A' for Active; 'I' for Inactive)
    1  A    between atoms: N_1  and  C_35
    2  A    between atoms: C_2  and  N_6
    3  A    between atoms: C_2  and  C_13
    4  A    between atoms: C_3  and  C_4
    5  A    between atoms: C_3  and  N_12
    6  A    between atoms: C_8  and  O_27
    7  A    between atoms: C_8  and  C_30
    8  A    between atoms: C_8  and  C_34
    9  A    between atoms: C_11  and  C_14
   10  A    between atoms: C_13  and  O_27
   11  A    between atoms: C_14  and  C_41
                            x       y       z     vdW  Elec       q    Type
                         _______ _______ _______ _____ _____    ______ ____

>  <TORSDO>
F 11

$$$$
=
 OpenBabel11052416453D

 43 47  0  0  1  0  0  0  0  0999 V2000
  189.8170  176.3580  142.0570 C   0  0  1  0  0  3  0  0  0  0  0  0
  192.0550  175.9490  146.6830 C   0  0  0  0  0  0  0  0  0  0  0  0
  191.1680  177.4260  145.0230 C   0  0  0  0  0  0  0  0  0  0  0  0
  192.3000  174.9900  145.6760 C   0  0  0  0  0  3  0  0  0  0  0  0
  192.4710  175.5910  148.3430 Cl  0  0  0  0  0  0  0  0  0  0  0  0
  191.3850  176.4940  144.0500 C   0  0  0  0  0  0  0  0  0  0  0  0
  191.4860  177.1930  146.3590 C   0  0  0  0  0  3  0  0  0  0  0  0
  191.9700  175.2610  144.3360 C   0  0  0  0  0  3  0  0  0  0  0  0
  190.9560  177.1090  142.7620 C   0  0  2  0  0  3  0  0  0  0  0  0
  190.4920  178.4310  143.2040 N   0  0  0  0  0  0  0  0  0  0  0  0
  190.6130  178.5980  144.4630 N   0  0  0  0  0  0  0  0  0  0  0  0
  187.7830  177.7250  142.6630 N   0  0  0  0  0  2  0  0  0  0  0  0
  188.4560  176.4630  142.6860 C   0  0  0  0  0  0  0  0  0  0  0  0
  187.9290  175.4570  143.2320 O   0  0  0  0  0  0  0  0  0  0  0  0
  184.1990  178.5740  143.3850 C   0  0  0  0  0  0  0  0  0  0  0  0
  184.2390  178.6860  144.7780 C   0  0  0  0  0  0  0  0  0  0  0  0
  183.1160  179.0040  145.4690 F   0  0  0  0  0  0  0  0  0  0  0  0
  186.6030  178.1680  144.7510 C   0  0  0  0  0  3  0  0  0  0  0  0
  185.3620  178.2610  142.6770 C   0  0  0  0  0  3  0  0  0  0  0  0
  186.5740  178.0600  143.3550 C   0  0  0  0  0  0  0  0  0  0  0  0
  183.0360  178.7650  142.7160 F   0  0  0  0  0  0  0  0  0  0  0  0
  185.4410  178.4840  145.4600 C   0  0  0  0  0  3  0  0  0  0  0  0
  189.8780  176.3000  140.6410 O   0  0  0  0  0  0  0  0  0  0  0  0
  190.4830  177.4660  140.1320 C   0  0  1  0  0  3  0  0  0  0  0  0
  191.8400  177.1270  139.5380 C   0  0  0  0  0  1  0  0  0  0  0  0
  189.6100  178.1070  139.0520 C   0  0  2  0  0  3  0  0  0  0  0  0
  188.3030  178.6160  139.6330 C   0  0  0  0  0  1  0  0  0  0  0  0
  189.3480  177.1790  137.9820 N   0  0  0  0  0  0  0  0  0  0  0  0
  188.1960  177.0590  137.5240 N   0  0  0  0  0  0  0  0  0  0  0  0
  187.9370  176.1390  136.4480 C   0  0  0  0  0  2  0  0  0  0  0  0
  186.8150  175.2150  136.8030 C   0  0  0  0  0  0  0  0  0  0  0  0
  184.4580  174.7350  137.1490 C   0  0  0  0  0  3  0  0  0  0  0  0
  187.1280  173.9160  137.2160 C   0  0  0  0  0  3  0  0  0  0  0  0
  186.1140  173.0310  137.5940 C   0  0  0  0  0  3  0  0  0  0  0  0
  185.4670  175.6250  136.7500 C   0  0  0  0  0  0  0  0  0  0  0  0
  184.7800  173.4430  137.5650 C   0  0  0  0  0  3  0  0  0  0  0  0
  185.0980  177.0110  136.3050 C   0  0  0  0  0  2  0  0  0  0  0  0
  184.2900  177.7310  137.3370 C   0  0  0  0  0  0  0  0  0  0  0  0
  182.8010  179.0730  139.2920 C   0  0  0  0  0  3  0  0  0  0  0  0
  182.1620  178.5440  138.1680 C   0  0  0  0  0  3  0  0  0  0  0  0
  184.1840  178.9330  139.4390 C   0  0  0  0  0  3  0  0  0  0  0  0
  182.9040  177.8770  137.1900 C   0  0  0  0  0  3  0  0  0  0  0  0
  184.9270  178.2630  138.4640 C   0  0  0  0  0  3  0  0  0  0  0  0
  1 23  1  6  0  0  0
  1 13  1  0  0  0  0
  2  5  1  0  0  0  0
  3  7  2  0  0  0  0
  4  2  2  0  0  0  0
  6  8  2  0  0  0  0
  6  3  1  0  0  0  0
  7  2  1  0  0  0  0
  8  4  1  0  0  0  0
  9  1  1  1  0  0  0
  9 10  1  0  0  0  0
  9  6  1  0  0  0  0
 10 11  2  0  0  0  0
 11  3  1  0  0  0  0
 12 13  1  0  0  0  0
 12 20  1  0  0  0  0
 13 14  2  0  0  0  0
 15 16  1  0  0  0  0
 16 22  2  0  0  0  0
 16 17  1  0  0  0  0
 18 22  1  0  0  0  0
 19 20  1  0  0  0  0
 19 15  2  0  0  0  0
 20 18  2  0  0  0  0
 21 15  1  0  0  0  0
 24 25  1  6  0  0  0
 24 23  1  0  0  0  0
 26 27  1  1  0  0  0
 26 24  1  0  0  0  0
 28 26  1  0  0  0  0
 29 28  2  0  0  0  0
 30 31  1  0  0  0  0
 30 29  1  0  0  0  0
 31 33  1  0  0  0  0
 32 36  2  0  0  0  0
 33 34  2  0  0  0  0
 35 31  2  0  0  0  0
 35 32  1  0  0  0  0
 36 34  1  0  0  0  0
 37 35  1  0  0  0  0
 37 38  1  0  0  0  0
 38 43  1  0  0  0  0
 39 41  1  0  0  0  0
 40 39  2  0  0  0  0
 42 38  2  0  0  0  0
 42 40  1  0  0  0  0
 43 41  2  0  0  0  0
M  END
>  <MODEL>
5

>  <REMARK>
 VINA RESULT:      -9.0      3.481      8.150
  Name = 
  11 active torsions:
  status: ('A' for Active; 'I' for Inactive)
    1  A    between atoms: N_1  and  C_35
    2  A    between atoms: C_2  and  N_6
    3  A    between atoms: C_2  and  C_13
    4  A    between atoms: C_3  and  C_4
    5  A    between atoms: C_3  and  N_12
    6  A    between atoms: C_8  and  O_27
    7  A    between atoms: C_8  and  C_30
    8  A    between atoms: C_8  and  C_34
    9  A    between atoms: C_11  and  C_14
   10  A    between atoms: C_13  and  O_27
   11  A    between atoms: C_14  and  C_41
                            x       y       z     vdW  Elec       q    Type
                         _______ _______ _______ _____ _____    ______ ____

>  <TORSDO>
F 11

$$$$
=
 OpenBabel11052416453D

 43 47  0  0  1  0  0  0  0  0999 V2000
  190.2360  176.3730  138.7540 C   0  0  1  0  0  3  0  0  0  0  0  0
  194.2610  173.5090  137.2800 C   0  0  0  0  0  0  0  0  0  0  0  0
  193.5340  175.5560  138.2840 C   0  0  0  0  0  0  0  0  0  0  0  0
  193.0270  173.4210  136.6010 C   0  0  0  0  0  3  0  0  0  0  0  0
  195.4680  172.2650  137.0530 Cl  0  0  0  0  0  0  0  0  0  0  0  0
  192.3320  175.4640  137.6440 C   0  0  0  0  0  0  0  0  0  0  0  0
  194.5300  174.5950  138.1320 C   0  0  0  0  0  3  0  0  0  0  0  0
  192.0450  174.4130  136.7740 C   0  0  0  0  0  3  0  0  0  0  0  0
  191.5500  176.6770  138.0210 C   0  0  2  0  0  3  0  0  0  0  0  0
  192.4850  177.3630  138.9230 N   0  0  0  0  0  0  0  0  0  0  0  0
  193.5850  176.7330  139.0630 N   0  0  0  0  0  0  0  0  0  0  0  0
  190.4660  176.1530  141.2590 N   0  0  0  0  0  2  0  0  0  0  0  0
  190.0900  176.9520  140.1340 C   0  0  0  0  0  0  0  0  0  0  0  0
  189.6300  178.1150  140.2900 O   0  0  0  0  0  0  0  0  0  0  0  0
  191.0310  176.8470  144.9040 C   0  0  0  0  0  0  0  0  0  0  0  0
  189.7200  177.0960  145.3220 C   0  0  0  0  0  0  0  0  0  0  0  0
  189.4620  177.3880  146.6210 F   0  0  0  0  0  0  0  0  0  0  0  0
  188.9300  176.7170  143.0660 C   0  0  0  0  0  3  0  0  0  0  0  0
  191.2880  176.5320  143.5670 C   0  0  0  0  0  3  0  0  0  0  0  0
  190.2380  176.4610  142.6400 C   0  0  0  0  0  0  0  0  0  0  0  0
  192.0550  176.9120  145.7890 F   0  0  0  0  0  0  0  0  0  0  0  0
  188.6700  177.0310  144.4030 C   0  0  0  0  0  3  0  0  0  0  0  0
  189.0680  176.2940  137.9550 O   0  0  0  0  0  0  0  0  0  0  0  0
  189.2670  176.9700  136.7350 C   0  0  1  0  0  3  0  0  0  0  0  0
  188.9720  176.0370  135.5730 C   0  0  0  0  0  1  0  0  0  0  0  0
  188.3570  178.1960  136.6360 C   0  0  2  0  0  3  0  0  0  0  0  0
  188.9220  179.3640  137.4240 C   0  0  0  0  0  1  0  0  0  0  0  0
  187.0260  177.8890  137.0920 N   0  0  0  0  0  0  0  0  0  0  0  0
  186.5070  178.5550  138.0070 N   0  0  0  0  0  0  0  0  0  0  0  0
  185.1730  178.2540  138.4560 C   0  0  0  0  0  2  0  0  0  0  0  0
  185.0580  178.4440  139.9360 C   0  0  0  0  0  0  0  0  0  0  0  0
  183.7610  178.6230  141.9820 C   0  0  0  0  0  3  0  0  0  0  0  0
  186.2220  178.7130  140.6640 C   0  0  0  0  0  3  0  0  0  0  0  0
  186.1570  178.9350  142.0420 C   0  0  0  0  0  3  0  0  0  0  0  0
  183.8180  178.3800  140.6010 C   0  0  0  0  0  0  0  0  0  0  0  0
  184.9260  178.8950  142.6990 C   0  0  0  0  0  3  0  0  0  0  0  0
  182.5510  178.0880  139.8480 C   0  0  0  0  0  2  0  0  0  0  0  0
  181.7570  179.3290  139.5900 C   0  0  0  0  0  0  0  0  0  0  0  0
  180.2450  181.6390  139.1230 C   0  0  0  0  0  3  0  0  0  0  0  0
  181.2910  181.3020  138.2600 C   0  0  0  0  0  3  0  0  0  0  0  0
  179.9550  180.8220  140.2200 C   0  0  0  0  0  3  0  0  0  0  0  0
  182.0480  180.1510  138.4940 C   0  0  0  0  0  3  0  0  0  0  0  0
  180.7090  179.6690  140.4520 C   0  0  0  0  0  3  0  0  0  0  0  0
  1 23  1  6  0  0  0
  1 13  1  0  0  0  0
  2  7  1  0  0  0  0
  3 11  1  0  0  0  0
  4  8  1  0  0  0  0
  4  2  2  0  0  0  0
  5  2  1  0  0  0  0
  6  9  1  0  0  0  0
  6  3  1  0  0  0  0
  7  3  2  0  0  0  0
  8  6  2  0  0  0  0
  9  1  1  1  0  0  0
  9 10  1  0  0  0  0
 10 11  2  0  0  0  0
 12 20  1  0  0  0  0
 13 14  2  0  0  0  0
 13 12  1  0  0  0  0
 15 16  1  0  0  0  0
 15 21  1  0  0  0  0
 16 17  1  0  0  0  0
 18 22  1  0  0  0  0
 19 15  2  0  0  0  0
 20 18  2  0  0  0  0
 20 19  1  0  0  0  0
 22 16  2  0  0  0  0
 24 25  1  6  0  0  0
 24 23  1  0  0  0  0
 26 24  1  0  0  0  0
 26 28  1  0  0  0  0
 26 27  1  1  0  0  0
 28 29  2  0  0  0  0
 29 30  1  0  0  0  0
 30 31  1  0  0  0  0
 31 35  2  0  0  0  0
 31 33  1  0  0  0  0
 32 36  2  0  0  0  0
 33 34  2  0  0  0  0
 34 36  1  0  0  0  0
 35 32  1  0  0  0  0
 37 35  1  0  0  0  0
 38 37  1  0  0  0  0
 38 43  1  0  0  0  0
 39 41  1  0  0  0  0
 40 42  1  0  0  0  0
 40 39  2  0  0  0  0
 41 43  2  0  0  0  0
 42 38  2  0  0  0  0
M  END
>  <MODEL>
6

>  <REMARK>
 VINA RESULT:      -8.7      3.916      7.843
  Name = 
  11 active torsions:
  status: ('A' for Active; 'I' for Inactive)
    1  A    between atoms: N_1  and  C_35
    2  A    between atoms: C_2  and  N_6
    3  A    between atoms: C_2  and  C_13
    4  A    between atoms: C_3  and  C_4
    5  A    between atoms: C_3  and  N_12
    6  A    between atoms: C_8  and  O_27
    7  A    between atoms: C_8  and  C_30
    8  A    between atoms: C_8  and  C_34
    9  A    between atoms: C_11  and  C_14
   10  A    between atoms: C_13  and  O_27
   11  A    between atoms: C_14  and  C_41
                            x       y       z     vdW  Elec       q    Type
                         _______ _______ _______ _____ _____    ______ ____

>  <TORSDO>
F 11

$$$$
=
 OpenBabel11052416453D

 43 47  0  0  1  0  0  0  0  0999 V2000
  189.4350  177.2000  138.6330 C   0  0  1  0  0  3  0  0  0  0  0  0
  193.6050  175.7770  135.9540 C   0  0  0  0  0  0  0  0  0  0  0  0
  191.3730  175.2180  136.6110 C   0  0  0  0  0  0  0  0  0  0  0  0
  193.7300  176.5740  137.1130 C   0  0  0  0  0  3  0  0  0  0  0  0
  194.9450  175.6490  134.8390 Cl  0  0  0  0  0  0  0  0  0  0  0  0
  191.4830  176.0030  137.7210 C   0  0  0  0  0  0  0  0  0  0  0  0
  192.4120  175.0790  135.6950 C   0  0  0  0  0  3  0  0  0  0  0  0
  192.6600  176.6890  138.0190 C   0  0  0  0  0  3  0  0  0  0  0  0
  190.1980  175.8770  138.4670 C   0  0  2  0  0  3  0  0  0  0  0  0
  189.4410  174.9630  137.6010 N   0  0  0  0  0  0  0  0  0  0  0  0
  190.1020  174.6020  136.5710 N   0  0  0  0  0  0  0  0  0  0  0  0
  189.6960  176.8740  141.1230 N   0  0  0  0  0  2  0  0  0  0  0  0
  189.2520  177.6960  140.0400 C   0  0  0  0  0  0  0  0  0  0  0  0
  188.7050  178.8110  140.2540 O   0  0  0  0  0  0  0  0  0  0  0  0
  188.0110  177.0240  144.4730 C   0  0  0  0  0  0  0  0  0  0  0  0
  189.0530  177.5230  145.2600 C   0  0  0  0  0  0  0  0  0  0  0  0
  188.8610  177.7480  146.5840 F   0  0  0  0  0  0  0  0  0  0  0  0
  190.4910  177.5870  143.3140 C   0  0  0  0  0  3  0  0  0  0  0  0
  188.2110  176.8100  143.1070 C   0  0  0  0  0  3  0  0  0  0  0  0
  189.4520  177.0940  142.5170 C   0  0  0  0  0  0  0  0  0  0  0  0
  186.8070  176.7460  145.0290 F   0  0  0  0  0  0  0  0  0  0  0  0
  190.2930  177.8050  144.6810 C   0  0  0  0  0  3  0  0  0  0  0  0
  189.6280  178.1720  137.6190 O   0  0  0  0  0  0  0  0  0  0  0  0
  188.4660  178.2910  136.8310 C   0  0  1  0  0  3  0  0  0  0  0  0
  188.6910  177.6410  135.4770 C   0  0  0  0  0  1  0  0  0  0  0  0
  187.2720  177.6220  137.5160 C   0  0  2  0  0  3  0  0  0  0  0  0
  186.5550  176.6760  136.5710 C   0  0  0  0  0  1  0  0  0  0  0  0
  186.3510  178.6070  138.0240 N   0  0  0  0  0  0  0  0  0  0  0  0
  185.4780  178.2820  138.8500 N   0  0  0  0  0  0  0  0  0  0  0  0
  184.5650  179.2680  139.3640 C   0  0  0  0  0  2  0  0  0  0  0  0
  184.2710  179.0130  140.8090 C   0  0  0  0  0  0  0  0  0  0  0  0
  182.7330  178.6430  142.6530 C   0  0  0  0  0  3  0  0  0  0  0  0
  185.3400  178.9860  141.7100 C   0  0  0  0  0  3  0  0  0  0  0  0
  185.1090  178.7890  143.0740 C   0  0  0  0  0  3  0  0  0  0  0  0
  182.9560  178.8220  141.2790 C   0  0  0  0  0  0  0  0  0  0  0  0
  183.8050  178.6230  143.5460 C   0  0  0  0  0  3  0  0  0  0  0  0
  181.7870  178.8400  140.3360 C   0  0  0  0  0  2  0  0  0  0  0  0
  181.1830  177.4820  140.1720 C   0  0  0  0  0  0  0  0  0  0  0  0
  180.0670  174.9360  139.8350 C   0  0  0  0  0  3  0  0  0  0  0  0
  179.4290  175.8770  140.6460 C   0  0  0  0  0  3  0  0  0  0  0  0
  181.2640  175.2660  139.1920 C   0  0  0  0  0  3  0  0  0  0  0  0
  179.9860  177.1470  140.8180 C   0  0  0  0  0  3  0  0  0  0  0  0
  181.8200  176.5370  139.3600 C   0  0  0  0  0  3  0  0  0  0  0  0
  1 23  1  6  0  0  0
  1 13  1  0  0  0  0
  2  4  1  0  0  0  0
  3  6  2  0  0  0  0
  4  8  2  0  0  0  0
  5  2  1  0  0  0  0
  6  8  1  0  0  0  0
  6  9  1  0  0  0  0
  7  2  2  0  0  0  0
  7  3  1  0  0  0  0
  9  1  1  6  0  0  0
 10  9  1  0  0  0  0
 11  3  1  0  0  0  0
 11 10  2  0  0  0  0
 12 20  1  0  0  0  0
 13 14  2  0  0  0  0
 13 12  1  0  0  0  0
 15 21  1  0  0  0  0
 15 16  1  0  0  0  0
 16 17  1  0  0  0  0
 18 22  1  0  0  0  0
 19 15  2  0  0  0  0
 20 19  1  0  0  0  0
 20 18  2  0  0  0  0
 22 16  2  0  0  0  0
 24 25  1  6  0  0  0
 24 26  1  0  0  0  0
 24 23  1  0  0  0  0
 26 27  1  6  0  0  0
 26 28  1  0  0  0  0
 28 29  2  0  0  0  0
 29 30  1  0  0  0  0
 30 31  1  0  0  0  0
 31 35  2  0  0  0  0
 31 33  1  0  0  0  0
 32 36  2  0  0  0  0
 33 34  2  0  0  0  0
 34 36  1  0  0  0  0
 35 32  1  0  0  0  0
 37 35  1  0  0  0  0
 38 37  1  0  0  0  0
 38 42  1  0  0  0  0
 39 40  1  0  0  0  0
 40 42  2  0  0  0  0
 41 43  1  0  0  0  0
 41 39  2  0  0  0  0
 43 38  2  0  0  0  0
M  END
>  <MODEL>
7

>  <REMARK>
 VINA RESULT:      -8.7      3.370      7.215
  Name = 
  11 active torsions:
  status: ('A' for Active; 'I' for Inactive)
    1  A    between atoms: N_1  and  C_35
    2  A    between atoms: C_2  and  N_6
    3  A    between atoms: C_2  and  C_13
    4  A    between atoms: C_3  and  C_4
    5  A    between atoms: C_3  and  N_12
    6  A    between atoms: C_8  and  O_27
    7  A    between atoms: C_8  and  C_30
    8  A    between atoms: C_8  and  C_34
    9  A    between atoms: C_11  and  C_14
   10  A    between atoms: C_13  and  O_27
   11  A    between atoms: C_14  and  C_41
                            x       y       z     vdW  Elec       q    Type
                         _______ _______ _______ _____ _____    ______ ____

>  <TORSDO>
F 11

$$$$
=
 OpenBabel11052416453D

 43 47  0  0  1  0  0  0  0  0999 V2000
  190.2540  176.8740  140.6360 C   0  0  1  0  0  3  0  0  0  0  0  0
  188.1350  177.6350  145.2750 C   0  0  0  0  0  0  0  0  0  0  0  0
  190.1560  177.5650  143.9950 C   0  0  0  0  0  0  0  0  0  0  0  0
  187.5320  176.7650  144.3410 C   0  0  0  0  0  3  0  0  0  0  0  0
  187.2190  178.2030  146.6510 Cl  0  0  0  0  0  0  0  0  0  0  0  0
  189.5700  176.7410  143.0790 C   0  0  0  0  0  0  0  0  0  0  0  0
  189.4710  178.0410  145.1100 C   0  0  0  0  0  3  0  0  0  0  0  0
  188.2550  176.3010  143.2270 C   0  0  0  0  0  3  0  0  0  0  0  0
  190.6100  176.4210  142.0600 C   0  0  2  0  0  3  0  0  0  0  0  0
  191.7600  177.1860  142.5600 N   0  0  0  0  0  0  0  0  0  0  0  0
  191.4990  177.8190  143.6360 N   0  0  0  0  0  0  0  0  0  0  0  0
  191.1820  175.8080  138.5440 N   0  0  0  0  0  2  0  0  0  0  0  0
  191.3400  176.7550  139.6040 C   0  0  0  0  0  0  0  0  0  0  0  0
  192.3750  177.4710  139.6860 O   0  0  0  0  0  0  0  0  0  0  0  0
  194.0250  174.0380  136.8500 C   0  0  0  0  0  0  0  0  0  0  0  0
  194.0690  174.7300  135.6360 C   0  0  0  0  0  0  0  0  0  0  0  0
  194.9930  174.4050  134.6990 F   0  0  0  0  0  0  0  0  0  0  0  0
  192.2190  176.1140  136.3590 C   0  0  0  0  0  3  0  0  0  0  0  0
  193.0790  174.3880  137.8180 C   0  0  0  0  0  3  0  0  0  0  0  0
  192.1720  175.4320  137.5800 C   0  0  0  0  0  0  0  0  0  0  0  0
  194.8950  173.0280  137.0940 F   0  0  0  0  0  0  0  0  0  0  0  0
  193.1660  175.7670  135.3910 C   0  0  0  0  0  3  0  0  0  0  0  0
  188.9230  176.6370  140.2110 O   0  0  0  0  0  0  0  0  0  0  0  0
  188.3010  177.8500  139.8570 C   0  0  1  0  0  3  0  0  0  0  0  0
  189.1790  179.0200  140.2670 C   0  0  0  0  0  1  0  0  0  0  0  0
  188.0500  177.9160  138.3490 C   0  0  2  0  0  3  0  0  0  0  0  0
  189.0300  178.8550  137.6690 C   0  0  0  0  0  1  0  0  0  0  0  0
  186.6970  178.3240  138.0690 N   0  0  0  0  0  0  0  0  0  0  0  0
  185.9020  178.5440  139.0020 N   0  0  0  0  0  0  0  0  0  0  0  0
  184.5540  178.9610  138.7210 C   0  0  0  0  0  2  0  0  0  0  0  0
  183.5920  177.8420  138.9750 C   0  0  0  0  0  0  0  0  0  0  0  0
  181.7550  176.8290  140.2010 C   0  0  0  0  0  3  0  0  0  0  0  0
  183.7130  176.6760  138.2140 C   0  0  0  0  0  3  0  0  0  0  0  0
  182.8610  175.5910  138.4430 C   0  0  0  0  0  3  0  0  0  0  0  0
  182.5940  177.9290  139.9660 C   0  0  0  0  0  0  0  0  0  0  0  0
  181.8860  175.6670  139.4400 C   0  0  0  0  0  3  0  0  0  0  0  0
  182.4340  179.1710  140.7970 C   0  0  0  0  0  2  0  0  0  0  0  0
  182.9930  178.9960  142.1730 C   0  0  0  0  0  0  0  0  0  0  0  0
  184.0110  178.6850  144.7620 C   0  0  0  0  0  3  0  0  0  0  0  0
  184.8800  178.7140  143.6690 C   0  0  0  0  0  3  0  0  0  0  0  0
  182.6330  178.8100  144.5630 C   0  0  0  0  0  3  0  0  0  0  0  0
  184.3730  178.8660  142.3750 C   0  0  0  0  0  3  0  0  0  0  0  0
  182.1260  178.9660  143.2700 C   0  0  0  0  0  3  0  0  0  0  0  0
  1 13  1  6  0  0  0
  2  5  1  0  0  0  0
  3  7  2  0  0  0  0
  4  2  2  0  0  0  0
  6  8  2  0  0  0  0
  6  3  1  0  0  0  0
  7  2  1  0  0  0  0
  8  4  1  0  0  0  0
  9  1  1  6  0  0  0
  9 10  1  0  0  0  0
  9  6  1  0  0  0  0
 10 11  2  0  0  0  0
 11  3  1  0  0  0  0
 12 13  1  0  0  0  0
 13 14  2  0  0  0  0
 15 21  1  0  0  0  0
 15 19  1  0  0  0  0
 16 15  2  0  0  0  0
 17 16  1  0  0  0  0
 18 20  1  0  0  0  0
 20 19  2  0  0  0  0
 20 12  1  0  0  0  0
 22 16  1  0  0  0  0
 22 18  2  0  0  0  0
 23  1  1  0  0  0  0
 24 23  1  0  0  0  0
 24 25  1  6  0  0  0
 26 27  1  6  0  0  0
 26 24  1  0  0  0  0
 28 26  1  0  0  0  0
 28 29  2  0  0  0  0
 30 31  1  0  0  0  0
 30 29  1  0  0  0  0
 31 35  1  0  0  0  0
 33 34  1  0  0  0  0
 33 31  2  0  0  0  0
 34 36  2  0  0  0  0
 35 32  2  0  0  0  0
 35 37  1  0  0  0  0
 36 32  1  0  0  0  0
 37 38  1  0  0  0  0
 38 42  2  0  0  0  0
 38 43  1  0  0  0  0
 40 39  2  0  0  0  0
 41 39  1  0  0  0  0
 42 40  1  0  0  0  0
 43 41  2  0  0  0  0
M  END
>  <MODEL>
8

>  <REMARK>
 VINA RESULT:      -8.7      4.926      9.064
  Name = 
  11 active torsions:
  status: ('A' for Active; 'I' for Inactive)
    1  A    between atoms: N_1  and  C_35
    2  A    between atoms: C_2  and  N_6
    3  A    between atoms: C_2  and  C_13
    4  A    between atoms: C_3  and  C_4
    5  A    between atoms: C_3  and  N_12
    6  A    between atoms: C_8  and  O_27
    7  A    between atoms: C_8  and  C_30
    8  A    between atoms: C_8  and  C_34
    9  A    between atoms: C_11  and  C_14
   10  A    between atoms: C_13  and  O_27
   11  A    between atoms: C_14  and  C_41
                            x       y       z     vdW  Elec       q    Type
                         _______ _______ _______ _____ _____    ______ ____

>  <TORSDO>
F 11

$$$$
=
 OpenBabel11052416453D

 43 47  0  0  1  0  0  0  0  0999 V2000
  186.9940  176.6080  137.2450 C   0  0  1  0  0  3  0  0  0  0  0  0
  182.2000  176.7950  139.1330 C   0  0  0  0  0  0  0  0  0  0  0  0
  183.8350  175.4870  137.9750 C   0  0  0  0  0  0  0  0  0  0  0  0
  182.8450  177.9690  138.6870 C   0  0  0  0  0  3  0  0  0  0  0  0
  180.7720  176.9160  140.1360 Cl  0  0  0  0  0  0  0  0  0  0  0  0
  184.4730  176.6190  137.5590 C   0  0  0  0  0  0  0  0  0  0  0  0
  182.6920  175.5290  138.7710 C   0  0  0  0  0  3  0  0  0  0  0  0
  183.9950  177.8890  137.8810 C   0  0  0  0  0  3  0  0  0  0  0  0
  185.6190  176.1800  136.7110 C   0  0  2  0  0  3  0  0  0  0  0  0
  185.4870  174.7180  136.7690 N   0  0  0  0  0  0  0  0  0  0  0  0
  184.4930  174.3420  137.4740 N   0  0  0  0  0  0  0  0  0  0  0  0
  189.0090  175.0980  137.4270 N   0  0  0  0  0  2  0  0  0  0  0  0
  188.1900  175.9480  136.6190 C   0  0  0  0  0  0  0  0  0  0  0  0
  188.4690  176.1560  135.4070 O   0  0  0  0  0  0  0  0  0  0  0  0
  192.6930  174.4110  137.2280 C   0  0  0  0  0  0  0  0  0  0  0  0
  192.7060  173.3500  136.3180 C   0  0  0  0  0  0  0  0  0  0  0  0
  193.8810  172.7860  135.9440 F   0  0  0  0  0  0  0  0  0  0  0  0
  190.2930  173.4620  136.1540 C   0  0  0  0  0  3  0  0  0  0  0  0
  191.4800  174.9970  137.5980 C   0  0  0  0  0  3  0  0  0  0  0  0
  190.2720  174.5290  137.0600 C   0  0  0  0  0  0  0  0  0  0  0  0
  193.8530  174.8740  137.7560 F   0  0  0  0  0  0  0  0  0  0  0  0
  191.5070  172.8760  135.7810 C   0  0  0  0  0  3  0  0  0  0  0  0
  187.1280  177.9650  137.6350 O   0  0  0  0  0  0  0  0  0  0  0  0
  188.4380  178.2130  138.0900 C   0  0  1  0  0  3  0  0  0  0  0  0
  189.0410  179.3760  137.3220 C   0  0  0  0  0  1  0  0  0  0  0  0
  188.4430  178.5430  139.5840 C   0  0  2  0  0  3  0  0  0  0  0  0
  189.5060  177.7470  140.3190 C   0  0  0  0  0  1  0  0  0  0  0  0
  187.1490  178.3010  140.1700 N   0  0  0  0  0  0  0  0  0  0  0  0
  186.9670  178.4890  141.3880 N   0  0  0  0  0  0  0  0  0  0  0  0
  185.6720  178.2560  141.9710 C   0  0  0  0  0  2  0  0  0  0  0  0
  185.7520  178.2950  143.4650 C   0  0  0  0  0  0  0  0  0  0  0  0
  186.6340  177.5090  145.5870 C   0  0  0  0  0  3  0  0  0  0  0  0
  184.8980  179.1610  144.1540 C   0  0  0  0  0  3  0  0  0  0  0  0
  184.9100  179.2020  145.5510 C   0  0  0  0  0  3  0  0  0  0  0  0
  186.6420  177.4730  144.1850 C   0  0  0  0  0  0  0  0  0  0  0  0
  185.7750  178.3720  146.2670 C   0  0  0  0  0  3  0  0  0  0  0  0
  187.5760  176.5360  143.4740 C   0  0  0  0  0  2  0  0  0  0  0  0
  189.0080  176.9170  143.6740 C   0  0  0  0  0  0  0  0  0  0  0  0
  191.6810  177.6630  144.0470 C   0  0  0  0  0  3  0  0  0  0  0  0
  191.3700  176.3770  143.5970 C   0  0  0  0  0  3  0  0  0  0  0  0
  190.6560  178.5760  144.3120 C   0  0  0  0  0  3  0  0  0  0  0  0
  190.0370  176.0020  143.4130 C   0  0  0  0  0  3  0  0  0  0  0  0
  189.3220  178.2030  144.1260 C   0  0  0  0  0  3  0  0  0  0  0  0
  1 13  1  6  0  0  0
  1 23  1  0  0  0  0
  2  5  1  0  0  0  0
  3  7  2  0  0  0  0
  4  2  2  0  0  0  0
  6  8  2  0  0  0  0
  6  3  1  0  0  0  0
  7  2  1  0  0  0  0
  8  4  1  0  0  0  0
  9 10  1  0  0  0  0
  9  1  1  1  0  0  0
  9  6  1  0  0  0  0
 10 11  2  0  0  0  0
 11  3  1  0  0  0  0
 13 12  1  0  0  0  0
 14 13  2  0  0  0  0
 15 19  1  0  0  0  0
 15 21  1  0  0  0  0
 16 15  2  0  0  0  0
 17 16  1  0  0  0  0
 18 20  1  0  0  0  0
 20 12  1  0  0  0  0
 20 19  2  0  0  0  0
 22 18  2  0  0  0  0
 22 16  1  0  0  0  0
 23 24  1  0  0  0  0
 24 25  1  6  0  0  0
 24 26  1  0  0  0  0
 26 28  1  0  0  0  0
 26 27  1  1  0  0  0
 28 29  2  0  0  0  0
 29 30  1  0  0  0  0
 30 31  1  0  0  0  0
 31 33  2  0  0  0  0
 31 35  1  0  0  0  0
 32 36  1  0  0  0  0
 33 34  1  0  0  0  0
 34 36  2  0  0  0  0
 35 32  2  0  0  0  0
 37 38  1  0  0  0  0
 37 35  1  0  0  0  0
 38 43  1  0  0  0  0
 39 41  1  0  0  0  0
 40 39  2  0  0  0  0
 42 40  1  0  0  0  0
 42 38  2  0  0  0  0
 43 41  2  0  0  0  0
M  END
>  <MODEL>
9

>  <REMARK>
 VINA RESULT:      -8.7      4.155      6.560
  Name = 
  11 active torsions:
  status: ('A' for Active; 'I' for Inactive)
    1  A    between atoms: N_1  and  C_35
    2  A    between atoms: C_2  and  N_6
    3  A    between atoms: C_2  and  C_13
    4  A    between atoms: C_3  and  C_4
    5  A    between atoms: C_3  and  N_12
    6  A    between atoms: C_8  and  O_27
    7  A    between atoms: C_8  and  C_30
    8  A    between atoms: C_8  and  C_34
    9  A    between atoms: C_11  and  C_14
   10  A    between atoms: C_13  and  O_27
   11  A    between atoms: C_14  and  C_41
                            x       y       z     vdW  Elec       q    Type
                         _______ _______ _______ _____ _____    ______ ____

>  <TORSDO>
F 11

$$$$
