=
 OpenBabel11052414453D

 32 33  0  0  1  0  0  0  0  0999 V2000
  187.1860  177.8780  141.8680 O   0  0  0  0  0  0  0  0  0  0  0  0
  188.4300  177.4170  141.3900 C   0  0  2  0  0  3  0  0  0  0  0  0
  189.3700  177.0700  142.5470 C   0  0  1  0  0  3  0  0  0  0  0  0
  191.0740  177.6220  142.1560 S   0  0  0  0  0  0  0  0  0  0  0  0
  189.4000  177.0400  147.3860 C   0  0  0  0  0  2  0  0  0  0  0  0
  188.9120  177.6630  143.8460 C   0  0  0  0  0  3  0  0  0  0  0  0
  191.6600  176.7120  146.2030 C   0  0  0  0  0  2  0  0  0  0  0  0
  190.9490  176.7230  144.8530 C   0  0  2  0  0  3  0  0  0  0  0  0
  191.8570  177.3630  143.8060 C   0  0  0  0  0  2  0  0  0  0  0  0
  189.6440  177.4750  144.9440 C   0  0  0  0  0  0  0  0  0  0  0  0
  190.7130  176.2380  147.3100 C   0  0  0  0  0  2  0  0  0  0  0  0
  189.2030  178.0540  146.2530 C   0  0  0  0  0  2  0  0  0  0  0  0
  189.0030  178.3510  140.5130 O   0  0  0  0  0  0  0  0  0  0  0  0
  188.8720  177.7830  139.2440 C   0  0  1  0  0  3  0  0  0  0  0  0
  188.5240  178.8180  138.2850 N   0  0  0  0  0  1  0  0  0  0  0  0
  189.9240  175.9230  137.9650 C   0  0  0  0  0  1  0  0  0  0  0  0
  190.1850  177.1330  138.8430 C   0  0  0  0  0  2  0  0  0  0  0  0
  187.0480  179.1220  141.4290 O   0  0  0  0  0  0  0  0  0  0  0  0
  185.7170  179.2610  140.9920 C   0  0  1  0  0  3  0  0  0  0  0  0
  185.5390  178.7010  139.7210 O   0  0  0  0  0  1  0  0  0  0  0  0
  184.7290  178.7180  141.9930 C   0  0  0  0  0  0  0  0  0  0  0  0
  184.1460  177.6670  141.7750 O   0  0  0  0  0  0  0  0  0  0  0  0
  184.4390  179.4630  143.2660 C   0  0  0  0  0  2  0  0  0  0  0  0
  183.3760  178.8030  144.1480 C   0  0  1  0  0  3  0  0  0  0  0  0
  183.8310  178.6730  145.5990 C   0  0  0  0  0  2  0  0  0  0  0  0
  185.3500  178.6750  145.6960 C   0  0  0  0  0  3  0  0  0  0  0  0
  185.8630  177.2610  145.5210 C   0  0  0  0  0  1  0  0  0  0  0  0
  185.8020  179.2000  147.0450 C   0  0  0  0  0  1  0  0  0  0  0  0
  182.0360  179.5240  144.0480 C   0  0  0  0  0  2  0  0  0  0  0  0
  181.0790  178.5560  142.0910 O   0  0  0  0  0  0  0  0  0  0  0  0
  180.0050  178.0260  144.0810 N   0  0  0  0  0  1  0  0  0  0  0  0
  181.0330  178.6760  143.3430 C   0  0  0  0  0  0  0  0  0  0  0  0
  2 13  1  6  0  0  0
  2  1  1  0  0  0  0
  3  2  1  6  0  0  0
  3  6  1  0  0  0  0
  4  3  1  0  0  0  0
  4  9  1  0  0  0  0
  6 10  2  0  0  0  0
  7 11  1  0  0  0  0
  8  9  1  6  0  0  0
  8 10  1  0  0  0  0
  8  7  1  0  0  0  0
 10 12  1  0  0  0  0
 11  5  1  0  0  0  0
 12  5  1  0  0  0  0
 14 15  1  6  0  0  0
 14 13  1  0  0  0  0
 16 17  1  0  0  0  0
 17 14  1  0  0  0  0
 18  1  1  0  0  0  0
 19 20  1  6  0  0  0
 19 18  1  0  0  0  0
 19 21  1  0  0  0  0
 21 23  1  0  0  0  0
 22 21  2  0  0  0  0
 24 23  1  6  0  0  0
 24 25  1  0  0  0  0
 25 26  1  0  0  0  0
 26 28  1  0  0  0  0
 27 26  1  0  0  0  0
 29 24  1  0  0  0  0
 30 32  2  0  0  0  0
 32 29  1  0  0  0  0
 32 31  1  0  0  0  0
M  END
>  <MODEL>
1

>  <REMARK>
 VINA RESULT:      -7.3      0.000      0.000
  Name = 
  14 active torsions:
  status: ('A' for Active; 'I' for Inactive)
    1  A    between atoms: O_1  and  C_5
    2  A    between atoms: O_1  and  O_30
    3  A    between atoms: C_2  and  C_5
    4  A    between atoms: C_3  and  C_8
    5  A    between atoms: C_3  and  C_20
    6  A    between atoms: C_4  and  C_24
    7  A    between atoms: C_4  and  O_30
    8  A    between atoms: C_5  and  O_14
    9  A    between atoms: C_13  and  O_14
   10  A    between atoms: C_13  and  C_29
   11  A    between atoms: C_15  and  C_20
   12  A    between atoms: C_15  and  C_26
   13  A    between atoms: C_16  and  C_20
   14  A    between atoms: C_16  and  C_24
                            x       y       z     vdW  Elec       q    Type
                         _______ _______ _______ _____ _____    ______ ____

>  <TORSDO>
F 14

$$$$
=
 OpenBabel11052414453D

 32 33  0  0  1  0  0  0  0  0999 V2000
  185.5810  178.2380  140.4220 O   0  0  0  0  0  0  0  0  0  0  0  0
  184.5480  179.0060  140.9980 C   0  0  2  0  0  3  0  0  0  0  0  0
  184.7210  179.1120  142.5150 C   0  0  1  0  0  3  0  0  0  0  0  0
  183.0900  178.9820  143.3430 S   0  0  0  0  0  0  0  0  0  0  0  0
  187.7440  177.6250  145.9890 C   0  0  0  0  0  2  0  0  0  0  0  0
  185.6660  178.0790  143.0500 C   0  0  0  0  0  3  0  0  0  0  0  0
  185.5120  178.6540  146.7460 C   0  0  0  0  0  2  0  0  0  0  0  0
  185.1640  178.9570  145.2910 C   0  0  2  0  0  3  0  0  0  0  0  0
  183.6560  178.8270  145.0920 C   0  0  0  0  0  2  0  0  0  0  0  0
  185.8980  178.0220  144.3620 C   0  0  0  0  0  0  0  0  0  0  0  0
  187.0290  178.6030  146.9410 C   0  0  0  0  0  2  0  0  0  0  0  0
  186.8410  177.0010  144.9180 C   0  0  0  0  0  2  0  0  0  0  0  0
  183.2900  178.4870  140.6520 O   0  0  0  0  0  0  0  0  0  0  0  0
  182.8930  179.2200  139.5310 C   0  0  1  0  0  3  0  0  0  0  0  0
  182.9270  178.3620  138.3570 N   0  0  0  0  0  1  0  0  0  0  0  0
  181.1690  180.8250  138.7250 C   0  0  0  0  0  1  0  0  0  0  0  0
  181.4840  179.7450  139.7430 C   0  0  0  0  0  2  0  0  0  0  0  0
  186.1040  178.9740  139.4510 O   0  0  0  0  0  0  0  0  0  0  0  0
  186.9740  178.1420  138.7230 C   0  0  1  0  0  3  0  0  0  0  0  0
  186.7500  178.2530  137.3460 O   0  0  0  0  0  1  0  0  0  0  0  0
  188.4200  178.3740  139.0810 C   0  0  0  0  0  0  0  0  0  0  0  0
  189.1030  179.1400  138.4190 O   0  0  0  0  0  0  0  0  0  0  0  0
  189.0440  177.6650  140.2490 C   0  0  0  0  0  2  0  0  0  0  0  0
  190.5550  177.4510  140.1170 C   0  0  1  0  0  3  0  0  0  0  0  0
  191.2530  177.4190  141.4740 C   0  0  0  0  0  2  0  0  0  0  0  0
  190.2400  177.3200  142.6060 C   0  0  0  0  0  3  0  0  0  0  0  0
  190.6350  178.2740  143.7140 C   0  0  0  0  0  1  0  0  0  0  0  0
  190.1930  175.9100  143.1630 C   0  0  0  0  0  1  0  0  0  0  0  0
  190.8780  176.2080  139.2960 C   0  0  0  0  0  2  0  0  0  0  0  0
  191.2080  176.6940  136.9860 O   0  0  0  0  0  0  0  0  0  0  0  0
  193.1350  176.7080  138.2830 N   0  0  0  0  0  1  0  0  0  0  0  0
  191.7290  176.5580  138.1230 C   0  0  0  0  0  0  0  0  0  0  0  0
  2  1  1  1  0  0  0
  3  2  1  6  0  0  0
  3  6  1  0  0  0  0
  3  4  1  0  0  0  0
  4  9  1  0  0  0  0
  5 11  1  0  0  0  0
  6 10  2  0  0  0  0
  7 11  1  0  0  0  0
  8  9  1  1  0  0  0
  8  7  1  0  0  0  0
 10 12  1  0  0  0  0
 10  8  1  0  0  0  0
 12  5  1  0  0  0  0
 13  2  1  0  0  0  0
 14 15  1  6  0  0  0
 14 17  1  0  0  0  0
 14 13  1  0  0  0  0
 16 17  1  0  0  0  0
 18  1  1  0  0  0  0
 19 20  1  6  0  0  0
 19 21  1  0  0  0  0
 19 18  1  0  0  0  0
 21 23  1  0  0  0  0
 22 21  2  0  0  0  0
 24 29  1  1  0  0  0
 24 23  1  0  0  0  0
 24 25  1  0  0  0  0
 25 26  1  0  0  0  0
 26 28  1  0  0  0  0
 26 27  1  0  0  0  0
 30 32  2  0  0  0  0
 32 31  1  0  0  0  0
 32 29  1  0  0  0  0
M  END
>  <MODEL>
2

>  <REMARK>
 VINA RESULT:      -7.2      2.771      7.015
  Name = 
  14 active torsions:
  status: ('A' for Active; 'I' for Inactive)
    1  A    between atoms: O_1  and  C_5
    2  A    between atoms: O_1  and  O_30
    3  A    between atoms: C_2  and  C_5
    4  A    between atoms: C_3  and  C_8
    5  A    between atoms: C_3  and  C_20
    6  A    between atoms: C_4  and  C_24
    7  A    between atoms: C_4  and  O_30
    8  A    between atoms: C_5  and  O_14
    9  A    between atoms: C_13  and  O_14
   10  A    between atoms: C_13  and  C_29
   11  A    between atoms: C_15  and  C_20
   12  A    between atoms: C_15  and  C_26
   13  A    between atoms: C_16  and  C_20
   14  A    between atoms: C_16  and  C_24
                            x       y       z     vdW  Elec       q    Type
                         _______ _______ _______ _____ _____    ______ ____

>  <TORSDO>
F 14

$$$$
=
 OpenBabel11052414453D

 32 33  0  0  1  0  0  0  0  0999 V2000
  188.4050  176.6520  143.3090 O   0  0  0  0  0  0  0  0  0  0  0  0
  187.8340  176.8710  144.5790 C   0  0  2  0  0  3  0  0  0  0  0  0
  186.3950  177.3770  144.4560 C   0  0  1  0  0  3  0  0  0  0  0  0
  186.0520  178.6170  145.7630 S   0  0  0  0  0  0  0  0  0  0  0  0
  183.2030  178.6040  141.0320 C   0  0  0  0  0  2  0  0  0  0  0  0
  186.1110  177.9510  143.1000 C   0  0  0  0  0  3  0  0  0  0  0  0
  182.6060  179.2180  143.4570 C   0  0  0  0  0  2  0  0  0  0  0  0
  183.8680  178.5100  143.9410 C   0  0  2  0  0  3  0  0  0  0  0  0
  184.4220  179.2380  145.1640 C   0  0  0  0  0  2  0  0  0  0  0  0
  184.9050  178.4620  142.8470 C   0  0  0  0  0  0  0  0  0  0  0  0
  182.1250  178.6200  142.1320 C   0  0  0  0  0  2  0  0  0  0  0  0
  184.5990  179.0360  141.4980 C   0  0  0  0  0  2  0  0  0  0  0  0
  188.6300  177.7430  145.3390 O   0  0  0  0  0  0  0  0  0  0  0  0
  189.3860  176.9110  146.1680 C   0  0  1  0  0  3  0  0  0  0  0  0
  190.7560  177.3960  146.2180 N   0  0  0  0  0  1  0  0  0  0  0  0
  189.0320  178.2500  148.2370 C   0  0  0  0  0  1  0  0  0  0  0  0
  188.7900  176.9120  147.5650 C   0  0  0  0  0  2  0  0  0  0  0  0
  189.2820  177.6280  143.1130 O   0  0  0  0  0  0  0  0  0  0  0  0
  189.9340  177.3600  141.8950 C   0  0  1  0  0  3  0  0  0  0  0  0
  190.3550  176.0260  141.8280 O   0  0  0  0  0  1  0  0  0  0  0  0
  189.0990  177.7510  140.7030 C   0  0  0  0  0  0  0  0  0  0  0  0
  188.4470  178.7830  140.7190 O   0  0  0  0  0  0  0  0  0  0  0  0
  189.0500  176.8760  139.4820 C   0  0  0  0  0  2  0  0  0  0  0  0
  190.1110  177.2090  138.4300 C   0  0  1  0  0  3  0  0  0  0  0  0
  191.1420  176.0930  138.2790 C   0  0  0  0  0  2  0  0  0  0  0  0
  192.5550  176.6560  138.2480 C   0  0  0  0  0  3  0  0  0  0  0  0
  193.5220  175.5580  137.8590 C   0  0  0  0  0  1  0  0  0  0  0  0
  192.9480  177.1980  139.6090 C   0  0  0  0  0  1  0  0  0  0  0  0
  189.4820  177.5700  137.0890 C   0  0  0  0  0  2  0  0  0  0  0  0
  189.1020  179.8740  137.5720 O   0  0  0  0  0  0  0  0  0  0  0  0
  187.2090  178.6620  136.9870 N   0  0  0  0  0  1  0  0  0  0  0  0
  188.6070  178.7700  137.2240 C   0  0  0  0  0  0  0  0  0  0  0  0
  2  1  1  6  0  0  0
  2 13  1  0  0  0  0
  3  2  1  6  0  0  0
  3  4  1  0  0  0  0
  5 12  1  0  0  0  0
  5 11  1  0  0  0  0
  6  3  1  0  0  0  0
  8  7  1  6  0  0  0
  8  9  1  0  0  0  0
  9  4  1  0  0  0  0
 10  6  2  0  0  0  0
 10  8  1  0  0  0  0
 11  7  1  0  0  0  0
 12 10  1  0  0  0  0
 13 14  1  0  0  0  0
 14 15  1  1  0  0  0
 14 17  1  0  0  0  0
 17 16  1  0  0  0  0
 18  1  1  0  0  0  0
 19 20  1  6  0  0  0
 19 18  1  0  0  0  0
 21 22  2  0  0  0  0
 21 19  1  0  0  0  0
 23 21  1  0  0  0  0
 24 29  1  6  0  0  0
 24 23  1  0  0  0  0
 25 24  1  0  0  0  0
 26 25  1  0  0  0  0
 26 28  1  0  0  0  0
 27 26  1  0  0  0  0
 29 32  1  0  0  0  0
 31 32  1  0  0  0  0
 32 30  2  0  0  0  0
M  END
>  <MODEL>
3

>  <REMARK>
 VINA RESULT:      -7.1      2.989      7.825
  Name = 
  14 active torsions:
  status: ('A' for Active; 'I' for Inactive)
    1  A    between atoms: O_1  and  C_5
    2  A    between atoms: O_1  and  O_30
    3  A    between atoms: C_2  and  C_5
    4  A    between atoms: C_3  and  C_8
    5  A    between atoms: C_3  and  C_20
    6  A    between atoms: C_4  and  C_24
    7  A    between atoms: C_4  and  O_30
    8  A    between atoms: C_5  and  O_14
    9  A    between atoms: C_13  and  O_14
   10  A    between atoms: C_13  and  C_29
   11  A    between atoms: C_15  and  C_20
   12  A    between atoms: C_15  and  C_26
   13  A    between atoms: C_16  and  C_20
   14  A    between atoms: C_16  and  C_24
                            x       y       z     vdW  Elec       q    Type
                         _______ _______ _______ _____ _____    ______ ____

>  <TORSDO>
F 14

$$$$
=
 OpenBabel11052414453D

 32 33  0  0  1  0  0  0  0  0999 V2000
  188.5700  177.3320  140.8570 O   0  0  0  0  0  0  0  0  0  0  0  0
  187.9410  178.5170  140.4230 C   0  0  2  0  0  3  0  0  0  0  0  0
  186.6890  178.8120  141.2540 C   0  0  1  0  0  3  0  0  0  0  0  0
  185.1850  178.4030  140.2880 S   0  0  0  0  0  0  0  0  0  0  0  0
  185.1120  178.3990  145.8100 C   0  0  0  0  0  2  0  0  0  0  0  0
  186.6910  178.0760  142.5600 C   0  0  0  0  0  3  0  0  0  0  0  0
  183.3600  178.9710  144.0170 C   0  0  0  0  0  2  0  0  0  0  0  0
  184.4660  179.0410  142.9670 C   0  0  2  0  0  3  0  0  0  0  0  0
  183.9230  178.5560  141.6240 C   0  0  0  0  0  2  0  0  0  0  0  0
  185.6500  178.2050  143.3840 C   0  0  0  0  0  0  0  0  0  0  0  0
  183.9150  179.2820  145.4090 C   0  0  0  0  0  2  0  0  0  0  0  0
  185.6330  177.4830  144.6960 C   0  0  0  0  0  2  0  0  0  0  0  0
  187.6530  178.4540  139.0510 O   0  0  0  0  0  0  0  0  0  0  0  0
  188.4050  177.3790  138.5730 C   0  0  1  0  0  3  0  0  0  0  0  0
  187.5320  176.4550  137.8680 N   0  0  0  0  0  1  0  0  0  0  0  0
  189.0680  179.2320  137.0480 C   0  0  0  0  0  1  0  0  0  0  0  0
  189.4780  177.8920  137.6280 C   0  0  0  0  0  2  0  0  0  0  0  0
  189.7790  177.6760  141.2770 O   0  0  0  0  0  0  0  0  0  0  0  0
  189.9690  177.0710  142.5330 C   0  0  1  0  0  3  0  0  0  0  0  0
  190.3520  175.7310  142.3980 O   0  0  0  0  0  1  0  0  0  0  0  0
  190.9250  177.8480  143.4020 C   0  0  0  0  0  0  0  0  0  0  0  0
  192.1090  177.9150  143.1090 O   0  0  0  0  0  0  0  0  0  0  0  0
  190.4410  178.5430  144.6430 C   0  0  0  0  0  2  0  0  0  0  0  0
  190.2130  177.6090  145.8350 C   0  0  1  0  0  3  0  0  0  0  0  0
  188.7700  177.1170  145.9120 C   0  0  0  0  0  2  0  0  0  0  0  0
  188.1730  177.3910  147.2840 C   0  0  0  0  0  3  0  0  0  0  0  0
  188.8420  178.6090  147.8860 C   0  0  0  0  0  1  0  0  0  0  0  0
  188.3840  176.2070  148.2090 C   0  0  0  0  0  1  0  0  0  0  0  0
  191.1980  176.4460  145.8340 C   0  0  0  0  0  2  0  0  0  0  0  0
  191.7760  177.2740  147.9940 O   0  0  0  0  0  0  0  0  0  0  0  0
  192.7680  175.2560  147.4120 N   0  0  0  0  0  1  0  0  0  0  0  0
  191.9110  176.3590  147.1410 C   0  0  0  0  0  0  0  0  0  0  0  0
  1 18  1  0  0  0  0
  2 13  1  6  0  0  0
  2  1  1  0  0  0  0
  3  2  1  6  0  0  0
  3  6  1  0  0  0  0
  4  3  1  0  0  0  0
  4  9  1  0  0  0  0
  6 10  2  0  0  0  0
  7 11  1  0  0  0  0
  8  9  1  6  0  0  0
  8 10  1  0  0  0  0
  8  7  1  0  0  0  0
 10 12  1  0  0  0  0
 11  5  1  0  0  0  0
 12  5  1  0  0  0  0
 14 15  1  6  0  0  0
 14 13  1  0  0  0  0
 16 17  1  0  0  0  0
 17 14  1  0  0  0  0
 18 19  1  0  0  0  0
 19 20  1  6  0  0  0
 19 21  1  0  0  0  0
 21 23  1  0  0  0  0
 22 21  2  0  0  0  0
 24 23  1  6  0  0  0
 24 25  1  0  0  0  0
 25 26  1  0  0  0  0
 26 27  1  0  0  0  0
 26 28  1  0  0  0  0
 29 24  1  0  0  0  0
 29 32  1  0  0  0  0
 32 31  1  0  0  0  0
 32 30  2  0  0  0  0
M  END
>  <MODEL>
4

>  <REMARK>
 VINA RESULT:      -7.1      3.024      6.409
  Name = 
  14 active torsions:
  status: ('A' for Active; 'I' for Inactive)
    1  A    between atoms: O_1  and  C_5
    2  A    between atoms: O_1  and  O_30
    3  A    between atoms: C_2  and  C_5
    4  A    between atoms: C_3  and  C_8
    5  A    between atoms: C_3  and  C_20
    6  A    between atoms: C_4  and  C_24
    7  A    between atoms: C_4  and  O_30
    8  A    between atoms: C_5  and  O_14
    9  A    between atoms: C_13  and  O_14
   10  A    between atoms: C_13  and  C_29
   11  A    between atoms: C_15  and  C_20
   12  A    between atoms: C_15  and  C_26
   13  A    between atoms: C_16  and  C_20
   14  A    between atoms: C_16  and  C_24
                            x       y       z     vdW  Elec       q    Type
                         _______ _______ _______ _____ _____    ______ ____

>  <TORSDO>
F 14

$$$$
=
 OpenBabel11052414453D

 32 33  0  0  1  0  0  0  0  0999 V2000
  188.7500  176.3650  142.5070 O   0  0  0  0  0  0  0  0  0  0  0  0
  188.7700  176.4610  143.9140 C   0  0  2  0  0  3  0  0  0  0  0  0
  187.4380  176.9940  144.4480 C   0  0  1  0  0  3  0  0  0  0  0  0
  187.7210  177.9700  145.9740 S   0  0  0  0  0  0  0  0  0  0  0  0
  183.2940  178.8690  142.7970 C   0  0  0  0  0  2  0  0  0  0  0  0
  186.7070  177.8140  143.4280 C   0  0  0  0  0  3  0  0  0  0  0  0
  183.7170  179.0220  145.3290 C   0  0  0  0  0  2  0  0  0  0  0  0
  185.0070  178.2250  145.1560 C   0  0  2  0  0  3  0  0  0  0  0  0
  186.0410  178.7070  146.1710 C   0  0  0  0  0  2  0  0  0  0  0  0
  185.5410  178.3740  143.7540 C   0  0  0  0  0  0  0  0  0  0  0  0
  182.7200  178.6880  144.2150 C   0  0  0  0  0  2  0  0  0  0  0  0
  184.7920  179.1940  142.7490 C   0  0  0  0  0  2  0  0  0  0  0  0
  189.8540  177.2420  144.3440 O   0  0  0  0  0  0  0  0  0  0  0  0
  190.7710  176.3290  144.8710 C   0  0  1  0  0  3  0  0  0  0  0  0
  191.7580  175.9960  143.8570 N   0  0  0  0  0  1  0  0  0  0  0  0
  192.0900  175.8580  146.9290 C   0  0  0  0  0  1  0  0  0  0  0  0
  191.4600  176.9430  146.0770 C   0  0  0  0  0  2  0  0  0  0  0  0
  189.4420  177.3980  142.0460 O   0  0  0  0  0  0  0  0  0  0  0  0
  189.2960  177.4020  140.6460 C   0  0  1  0  0  3  0  0  0  0  0  0
  188.7410  178.6060  140.1970 O   0  0  0  0  0  1  0  0  0  0  0  0
  190.5860  177.0740  139.9380 C   0  0  0  0  0  0  0  0  0  0  0  0
  191.6350  177.5830  140.3000 O   0  0  0  0  0  0  0  0  0  0  0  0
  190.6010  176.1240  138.7730 C   0  0  0  0  0  2  0  0  0  0  0  0
  190.3350  176.7900  137.4200 C   0  0  1  0  0  3  0  0  0  0  0  0
  191.1670  176.1700  136.3010 C   0  0  0  0  0  2  0  0  0  0  0  0
  192.3640  175.4180  136.8630 C   0  0  0  0  0  3  0  0  0  0  0  0
  193.6210  176.2270  136.6210 C   0  0  0  0  0  1  0  0  0  0  0  0
  192.5120  174.0650  136.1940 C   0  0  0  0  0  1  0  0  0  0  0  0
  188.8500  176.7890  137.0750 C   0  0  0  0  0  2  0  0  0  0  0  0
  187.7840  178.1390  135.4240 O   0  0  0  0  0  0  0  0  0  0  0  0
  188.8240  179.3120  137.1380 N   0  0  0  0  0  1  0  0  0  0  0  0
  188.4430  178.1010  136.4950 C   0  0  0  0  0  0  0  0  0  0  0  0
  2  1  1  6  0  0  0
  2 13  1  0  0  0  0
  3  2  1  6  0  0  0
  3  4  1  0  0  0  0
  4  9  1  0  0  0  0
  5 11  1  0  0  0  0
  6 10  2  0  0  0  0
  6  3  1  0  0  0  0
  8  7  1  6  0  0  0
  8  9  1  0  0  0  0
 10  8  1  0  0  0  0
 11  7  1  0  0  0  0
 12  5  1  0  0  0  0
 12 10  1  0  0  0  0
 13 14  1  0  0  0  0
 14 15  1  6  0  0  0
 14 17  1  0  0  0  0
 17 16  1  0  0  0  0
 18  1  1  0  0  0  0
 19 20  1  6  0  0  0
 19 18  1  0  0  0  0
 21 22  2  0  0  0  0
 21 19  1  0  0  0  0
 23 21  1  0  0  0  0
 24 25  1  6  0  0  0
 24 23  1  0  0  0  0
 25 26  1  0  0  0  0
 27 26  1  0  0  0  0
 28 26  1  0  0  0  0
 29 24  1  0  0  0  0
 30 32  2  0  0  0  0
 32 29  1  0  0  0  0
 32 31  1  0  0  0  0
M  END
>  <MODEL>
5

>  <REMARK>
 VINA RESULT:      -6.8      3.094      7.852
  Name = 
  14 active torsions:
  status: ('A' for Active; 'I' for Inactive)
    1  A    between atoms: O_1  and  C_5
    2  A    between atoms: O_1  and  O_30
    3  A    between atoms: C_2  and  C_5
    4  A    between atoms: C_3  and  C_8
    5  A    between atoms: C_3  and  C_20
    6  A    between atoms: C_4  and  C_24
    7  A    between atoms: C_4  and  O_30
    8  A    between atoms: C_5  and  O_14
    9  A    between atoms: C_13  and  O_14
   10  A    between atoms: C_13  and  C_29
   11  A    between atoms: C_15  and  C_20
   12  A    between atoms: C_15  and  C_26
   13  A    between atoms: C_16  and  C_20
   14  A    between atoms: C_16  and  C_24
                            x       y       z     vdW  Elec       q    Type
                         _______ _______ _______ _____ _____    ______ ____

>  <TORSDO>
F 14

$$$$
=
 OpenBabel11052414453D

 32 33  0  0  1  0  0  0  0  0999 V2000
  185.8410  179.2850  140.6060 O   0  0  0  0  0  0  0  0  0  0  0  0
  186.9180  178.3770  140.5540 C   0  0  2  0  0  3  0  0  0  0  0  0
  187.6020  178.2530  141.9180 C   0  0  1  0  0  3  0  0  0  0  0  0
  186.3460  177.9780  143.2250 S   0  0  0  0  0  0  0  0  0  0  0  0
  191.5630  176.2910  143.8880 C   0  0  0  0  0  2  0  0  0  0  0  0
  188.6290  177.1610  141.9390 C   0  0  0  0  0  3  0  0  0  0  0  0
  189.7650  177.1650  145.5060 C   0  0  0  0  0  2  0  0  0  0  0  0
  188.9560  177.6820  144.3200 C   0  0  2  0  0  3  0  0  0  0  0  0
  187.4660  177.5660  144.6320 C   0  0  0  0  0  2  0  0  0  0  0  0
  189.2910  176.9090  143.0690 C   0  0  0  0  0  0  0  0  0  0  0  0
  191.2560  177.1040  145.1600 C   0  0  0  0  0  2  0  0  0  0  0  0
  190.3250  175.8260  143.1110 C   0  0  0  0  0  2  0  0  0  0  0  0
  187.8260  178.7380  139.5460 O   0  0  0  0  0  0  0  0  0  0  0  0
  187.4700  177.9600  138.4420 C   0  0  1  0  0  3  0  0  0  0  0  0
  187.3410  178.8140  137.2720 N   0  0  0  0  0  1  0  0  0  0  0  0
  189.7860  177.5570  137.6230 C   0  0  0  0  0  1  0  0  0  0  0  0
  188.5390  176.9100  138.1960 C   0  0  0  0  0  2  0  0  0  0  0  0
  184.7320  178.5650  140.5040 O   0  0  0  0  0  0  0  0  0  0  0  0
  183.7600  179.3850  139.9030 C   0  0  1  0  0  3  0  0  0  0  0  0
  184.3410  180.2810  138.9980 O   0  0  0  0  0  1  0  0  0  0  0  0
  182.6480  178.5850  139.2730 C   0  0  0  0  0  0  0  0  0  0  0  0
  182.9060  177.6590  138.5200 O   0  0  0  0  0  0  0  0  0  0  0  0
  181.2100  178.9170  139.5550 C   0  0  0  0  0  2  0  0  0  0  0  0
  180.6430  178.2310  140.8010 C   0  0  1  0  0  3  0  0  0  0  0  0
  180.5360  179.1880  141.9860 C   0  0  0  0  0  2  0  0  0  0  0  0
  180.7930  178.4620  143.2980 C   0  0  0  0  0  3  0  0  0  0  0  0
  179.6630  178.7560  144.2620 C   0  0  0  0  0  1  0  0  0  0  0  0
  182.1000  178.9170  143.9180 C   0  0  0  0  0  1  0  0  0  0  0  0
  179.3080  177.5540  140.5130 C   0  0  0  0  0  2  0  0  0  0  0  0
  180.0160  175.5310  139.4690 O   0  0  0  0  0  0  0  0  0  0  0  0
  178.9770  175.2680  141.5300 N   0  0  0  0  0  1  0  0  0  0  0  0
  179.4690  176.0720  140.4640 C   0  0  0  0  0  0  0  0  0  0  0  0
  2 13  1  6  0  0  0
  2  1  1  0  0  0  0
  3  2  1  6  0  0  0
  3  6  1  0  0  0  0
  3  4  1  0  0  0  0
  4  9  1  0  0  0  0
  5 11  1  0  0  0  0
  6 10  2  0  0  0  0
  8  9  1  1  0  0  0
  8  7  1  0  0  0  0
 10 12  1  0  0  0  0
 10  8  1  0  0  0  0
 11  7  1  0  0  0  0
 12  5  1  0  0  0  0
 14 15  1  6  0  0  0
 14 13  1  0  0  0  0
 16 17  1  0  0  0  0
 17 14  1  0  0  0  0
 18  1  1  0  0  0  0
 19 20  1  6  0  0  0
 19 18  1  0  0  0  0
 21 23  1  0  0  0  0
 21 19  1  0  0  0  0
 22 21  2  0  0  0  0
 24 23  1  6  0  0  0
 24 25  1  0  0  0  0
 25 26  1  0  0  0  0
 26 28  1  0  0  0  0
 26 27  1  0  0  0  0
 29 24  1  0  0  0  0
 30 32  2  0  0  0  0
 32 29  1  0  0  0  0
 32 31  1  0  0  0  0
M  END
>  <MODEL>
6

>  <REMARK>
 VINA RESULT:      -6.6      2.302      3.542
  Name = 
  14 active torsions:
  status: ('A' for Active; 'I' for Inactive)
    1  A    between atoms: O_1  and  C_5
    2  A    between atoms: O_1  and  O_30
    3  A    between atoms: C_2  and  C_5
    4  A    between atoms: C_3  and  C_8
    5  A    between atoms: C_3  and  C_20
    6  A    between atoms: C_4  and  C_24
    7  A    between atoms: C_4  and  O_30
    8  A    between atoms: C_5  and  O_14
    9  A    between atoms: C_13  and  O_14
   10  A    between atoms: C_13  and  C_29
   11  A    between atoms: C_15  and  C_20
   12  A    between atoms: C_15  and  C_26
   13  A    between atoms: C_16  and  C_20
   14  A    between atoms: C_16  and  C_24
                            x       y       z     vdW  Elec       q    Type
                         _______ _______ _______ _____ _____    ______ ____

>  <TORSDO>
F 14

$$$$
=
 OpenBabel11052414453D

 32 33  0  0  1  0  0  0  0  0999 V2000
  188.2080  177.5080  140.7390 O   0  0  0  0  0  0  0  0  0  0  0  0
  187.3870  178.5410  140.2420 C   0  0  2  0  0  3  0  0  0  0  0  0
  185.9380  178.3610  140.6980 C   0  0  1  0  0  3  0  0  0  0  0  0
  185.7260  179.0310  142.3920 S   0  0  0  0  0  0  0  0  0  0  0  0
  181.4500  178.6760  138.9150 C   0  0  0  0  0  2  0  0  0  0  0  0
  184.9640  179.0010  139.7550 C   0  0  0  0  0  3  0  0  0  0  0  0
  181.6780  178.4650  141.4670 C   0  0  0  0  0  2  0  0  0  0  0  0
  183.1900  178.3180  141.3140 C   0  0  2  0  0  3  0  0  0  0  0  0
  183.8860  178.9600  142.5120 C   0  0  0  0  0  2  0  0  0  0  0  0
  183.6600  178.9570  140.0320 C   0  0  0  0  0  0  0  0  0  0  0  0
  180.9580  177.9900  140.2030 C   0  0  0  0  0  2  0  0  0  0  0  0
  182.6700  179.5870  139.1010 C   0  0  0  0  0  2  0  0  0  0  0  0
  187.4870  178.6270  138.8450 O   0  0  0  0  0  0  0  0  0  0  0  0
  188.2240  177.5030  138.4650 C   0  0  1  0  0  3  0  0  0  0  0  0
  187.3920  176.6350  137.6480 N   0  0  0  0  0  1  0  0  0  0  0  0
  189.7730  176.9100  136.6080 C   0  0  0  0  0  1  0  0  0  0  0  0
  189.4430  177.9410  137.6710 C   0  0  0  0  0  2  0  0  0  0  0  0
  188.8160  177.9900  141.8140 O   0  0  0  0  0  0  0  0  0  0  0  0
  189.7940  177.0520  142.1930 C   0  0  1  0  0  3  0  0  0  0  0  0
  190.3060  176.3760  141.0790 O   0  0  0  0  0  1  0  0  0  0  0  0
  190.8850  177.6710  143.0290 C   0  0  0  0  0  0  0  0  0  0  0  0
  192.0540  177.5630  142.6940 O   0  0  0  0  0  0  0  0  0  0  0  0
  190.5530  178.4220  144.2880 C   0  0  0  0  0  2  0  0  0  0  0  0
  190.3230  177.5260  145.5080 C   0  0  1  0  0  3  0  0  0  0  0  0
  188.9040  176.9630  145.5490 C   0  0  0  0  0  2  0  0  0  0  0  0
  187.9770  177.8790  146.3330 C   0  0  0  0  0  3  0  0  0  0  0  0
  188.0640  177.5370  147.8060 C   0  0  0  0  0  1  0  0  0  0  0  0
  186.5410  177.7130  145.8730 C   0  0  0  0  0  1  0  0  0  0  0  0
  191.3630  176.4150  145.5960 C   0  0  0  0  0  2  0  0  0  0  0  0
  191.5560  177.1360  147.8600 O   0  0  0  0  0  0  0  0  0  0  0  0
  192.8010  175.2530  147.3140 N   0  0  0  0  0  1  0  0  0  0  0  0
  191.8920  176.2970  146.9850 C   0  0  0  0  0  0  0  0  0  0  0  0
  1 18  1  0  0  0  0
  2 13  1  6  0  0  0
  2  1  1  0  0  0  0
  3  2  1  6  0  0  0
  3  4  1  0  0  0  0
  4  9  1  0  0  0  0
  5 12  1  0  0  0  0
  5 11  1  0  0  0  0
  6 10  2  0  0  0  0
  6  3  1  0  0  0  0
  8  7  1  1  0  0  0
  8  9  1  0  0  0  0
 10  8  1  0  0  0  0
 11  7  1  0  0  0  0
 12 10  1  0  0  0  0
 14 15  1  6  0  0  0
 14 13  1  0  0  0  0
 16 17  1  0  0  0  0
 17 14  1  0  0  0  0
 18 19  1  0  0  0  0
 19 20  1  6  0  0  0
 19 21  1  0  0  0  0
 21 23  1  0  0  0  0
 22 21  2  0  0  0  0
 24 23  1  6  0  0  0
 24 25  1  0  0  0  0
 24 29  1  0  0  0  0
 25 26  1  0  0  0  0
 26 27  1  0  0  0  0
 28 26  1  0  0  0  0
 29 32  1  0  0  0  0
 32 31  1  0  0  0  0
 32 30  2  0  0  0  0
M  END
>  <MODEL>
7

>  <REMARK>
 VINA RESULT:      -6.6      3.137      7.256
  Name = 
  14 active torsions:
  status: ('A' for Active; 'I' for Inactive)
    1  A    between atoms: O_1  and  C_5
    2  A    between atoms: O_1  and  O_30
    3  A    between atoms: C_2  and  C_5
    4  A    between atoms: C_3  and  C_8
    5  A    between atoms: C_3  and  C_20
    6  A    between atoms: C_4  and  C_24
    7  A    between atoms: C_4  and  O_30
    8  A    between atoms: C_5  and  O_14
    9  A    between atoms: C_13  and  O_14
   10  A    between atoms: C_13  and  C_29
   11  A    between atoms: C_15  and  C_20
   12  A    between atoms: C_15  and  C_26
   13  A    between atoms: C_16  and  C_20
   14  A    between atoms: C_16  and  C_24
                            x       y       z     vdW  Elec       q    Type
                         _______ _______ _______ _____ _____    ______ ____

>  <TORSDO>
F 14

$$$$
=
 OpenBabel11052414453D

 32 33  0  0  1  0  0  0  0  0999 V2000
  190.1960  177.4860  139.0040 O   0  0  0  0  0  0  0  0  0  0  0  0
  189.7700  177.4410  137.6610 C   0  0  2  0  0  3  0  0  0  0  0  0
  188.2840  177.0870  137.5660 C   0  0  1  0  0  3  0  0  0  0  0  0
  187.4380  178.2350  136.4140 S   0  0  0  0  0  0  0  0  0  0  0  0
  185.4350  173.1790  137.3750 C   0  0  0  0  0  2  0  0  0  0  0  0
  188.0680  175.6650  137.1430 C   0  0  0  0  0  3  0  0  0  0  0  0
  184.3410  175.4470  136.8520 C   0  0  0  0  0  2  0  0  0  0  0  0
  185.6570  176.1500  137.1750 C   0  0  2  0  0  3  0  0  0  0  0  0
  185.8110  177.3760  136.2780 C   0  0  0  0  0  2  0  0  0  0  0  0
  186.8230  175.2120  136.9840 C   0  0  0  0  0  0  0  0  0  0  0  0
  184.2370  174.1190  137.6070 C   0  0  0  0  0  2  0  0  0  0  0  0
  186.5840  173.7940  136.5660 C   0  0  0  0  0  2  0  0  0  0  0  0
  190.5650  176.5570  136.9150 O   0  0  0  0  0  0  0  0  0  0  0  0
  191.5180  176.0790  137.8180 C   0  0  1  0  0  3  0  0  0  0  0  0
  191.3640  174.6410  137.9650 N   0  0  0  0  0  1  0  0  0  0  0  0
  193.7180  175.1210  137.1560 C   0  0  0  0  0  1  0  0  0  0  0  0
  192.9100  176.3960  137.3010 C   0  0  0  0  0  2  0  0  0  0  0  0
  189.0990  177.4990  139.7500 O   0  0  0  0  0  0  0  0  0  0  0  0
  189.4790  177.1220  141.0510 C   0  0  1  0  0  3  0  0  0  0  0  0
  190.7310  177.6500  141.3870 O   0  0  0  0  0  1  0  0  0  0  0  0
  188.4270  177.4640  142.0750 C   0  0  0  0  0  0  0  0  0  0  0  0
  187.6780  178.4120  141.8950 O   0  0  0  0  0  0  0  0  0  0  0  0
  188.2880  176.6530  143.3320 C   0  0  0  0  0  2  0  0  0  0  0  0
  188.0910  177.4910  144.5980 C   0  0  1  0  0  3  0  0  0  0  0  0
  186.7280  177.2510  145.2410 C   0  0  0  0  0  2  0  0  0  0  0  0
  186.0100  178.5660  145.5060 C   0  0  0  0  0  3  0  0  0  0  0  0
  185.6550  178.6540  146.9760 C   0  0  0  0  0  1  0  0  0  0  0  0
  184.7380  178.6600  144.6850 C   0  0  0  0  0  1  0  0  0  0  0  0
  189.2220  177.2750  145.5970 C   0  0  0  0  0  2  0  0  0  0  0  0
  190.8510  178.6660  144.5490 O   0  0  0  0  0  0  0  0  0  0  0  0
  191.4530  176.4340  144.7700 N   0  0  0  0  0  1  0  0  0  0  0  0
  190.5460  177.5140  144.9540 C   0  0  0  0  0  0  0  0  0  0  0  0
  1 18  1  0  0  0  0
  2 13  1  6  0  0  0
  2  1  1  0  0  0  0
  3  2  1  6  0  0  0
  4  3  1  0  0  0  0
  5 11  1  0  0  0  0
  6  3  1  0  0  0  0
  7  8  1  0  0  0  0
  7 11  1  0  0  0  0
  8  9  1  6  0  0  0
  9  4  1  0  0  0  0
 10  6  2  0  0  0  0
 10  8  1  0  0  0  0
 12 10  1  0  0  0  0
 12  5  1  0  0  0  0
 13 14  1  0  0  0  0
 14 15  1  6  0  0  0
 16 17  1  0  0  0  0
 17 14  1  0  0  0  0
 18 19  1  0  0  0  0
 19 20  1  1  0  0  0
 19 21  1  0  0  0  0
 21 23  1  0  0  0  0
 22 21  2  0  0  0  0
 24 23  1  6  0  0  0
 24 25  1  0  0  0  0
 24 29  1  0  0  0  0
 25 26  1  0  0  0  0
 26 27  1  0  0  0  0
 28 26  1  0  0  0  0
 30 32  2  0  0  0  0
 31 32  1  0  0  0  0
 32 29  1  0  0  0  0
M  END
>  <MODEL>
8

>  <REMARK>
 VINA RESULT:      -6.5      3.463      7.011
  Name = 
  14 active torsions:
  status: ('A' for Active; 'I' for Inactive)
    1  A    between atoms: O_1  and  C_5
    2  A    between atoms: O_1  and  O_30
    3  A    between atoms: C_2  and  C_5
    4  A    between atoms: C_3  and  C_8
    5  A    between atoms: C_3  and  C_20
    6  A    between atoms: C_4  and  C_24
    7  A    between atoms: C_4  and  O_30
    8  A    between atoms: C_5  and  O_14
    9  A    between atoms: C_13  and  O_14
   10  A    between atoms: C_13  and  C_29
   11  A    between atoms: C_15  and  C_20
   12  A    between atoms: C_15  and  C_26
   13  A    between atoms: C_16  and  C_20
   14  A    between atoms: C_16  and  C_24
                            x       y       z     vdW  Elec       q    Type
                         _______ _______ _______ _____ _____    ______ ____

>  <TORSDO>
F 14

$$$$
=
 OpenBabel11052414453D

 32 33  0  0  1  0  0  0  0  0999 V2000
  188.4520  178.3400  140.3380 O   0  0  0  0  0  0  0  0  0  0  0  0
  188.4410  177.7090  139.0770 C   0  0  2  0  0  3  0  0  0  0  0  0
  189.8600  177.3540  138.6250 C   0  0  1  0  0  3  0  0  0  0  0  0
  191.0150  177.4670  140.0450 S   0  0  0  0  0  0  0  0  0  0  0  0
  192.1230  174.2110  135.7230 C   0  0  0  0  0  2  0  0  0  0  0  0
  189.9300  175.9940  137.9980 C   0  0  0  0  0  3  0  0  0  0  0  0
  193.5910  175.5800  137.3310 C   0  0  0  0  0  2  0  0  0  0  0  0
  192.3560  176.3460  137.7980 C   0  0  2  0  0  3  0  0  0  0  0  0
  192.5060  176.6990  139.2760 C   0  0  0  0  0  2  0  0  0  0  0  0
  191.1070  175.5270  137.5810 C   0  0  0  0  0  0  0  0  0  0  0  0
  193.3960  175.0580  135.9050 C   0  0  0  0  0  2  0  0  0  0  0  0
  191.2000  174.1730  136.9470 C   0  0  0  0  0  2  0  0  0  0  0  0
  187.7750  178.5020  138.1290 O   0  0  0  0  0  0  0  0  0  0  0  0
  186.5330  177.8880  137.9530 C   0  0  1  0  0  3  0  0  0  0  0  0
  185.4790  178.8100  138.3420 N   0  0  0  0  0  1  0  0  0  0  0  0
  187.4580  178.1290  135.6540 C   0  0  0  0  0  1  0  0  0  0  0  0
  186.3630  177.5010  136.4940 C   0  0  0  0  0  2  0  0  0  0  0  0
  187.7080  177.5930  141.1420 O   0  0  0  0  0  0  0  0  0  0  0  0
  187.0950  178.4620  142.0640 C   0  0  1  0  0  3  0  0  0  0  0  0
  186.0380  179.1650  141.4730 O   0  0  0  0  0  1  0  0  0  0  0  0
  186.6680  177.7500  143.3220 C   0  0  0  0  0  0  0  0  0  0  0  0
  185.5520  177.9310  143.7840 O   0  0  0  0  0  0  0  0  0  0  0  0
  187.6080  176.8160  144.0310 C   0  0  0  0  0  2  0  0  0  0  0  0
  188.8590  177.4960  144.5940 C   0  0  1  0  0  3  0  0  0  0  0  0
  188.5570  178.3100  145.8500 C   0  0  0  0  0  2  0  0  0  0  0  0
  187.6500  177.5370  146.7950 C   0  0  0  0  0  3  0  0  0  0  0  0
  186.4420  178.3860  147.1350 C   0  0  0  0  0  1  0  0  0  0  0  0
  188.3810  177.1870  148.0760 C   0  0  0  0  0  1  0  0  0  0  0  0
  189.9820  176.4950  144.8380 C   0  0  0  0  0  2  0  0  0  0  0  0
  191.7190  178.0930  144.5020 O   0  0  0  0  0  0  0  0  0  0  0  0
  191.9010  176.8310  146.4440 N   0  0  0  0  0  1  0  0  0  0  0  0
  191.2350  177.1960  145.2400 C   0  0  0  0  0  0  0  0  0  0  0  0
  1 18  1  0  0  0  0
  2 13  1  6  0  0  0
  2  1  1  0  0  0  0
  3  2  1  1  0  0  0
  3  4  1  0  0  0  0
  5 11  1  0  0  0  0
  5 12  1  0  0  0  0
  6  3  1  0  0  0  0
  8  7  1  1  0  0  0
  8  9  1  0  0  0  0
  9  4  1  0  0  0  0
 10  8  1  0  0  0  0
 10  6  2  0  0  0  0
 11  7  1  0  0  0  0
 12 10  1  0  0  0  0
 14 13  1  0  0  0  0
 14 15  1  6  0  0  0
 16 17  1  0  0  0  0
 17 14  1  0  0  0  0
 18 19  1  0  0  0  0
 19 20  1  6  0  0  0
 19 21  1  0  0  0  0
 21 22  2  0  0  0  0
 21 23  1  0  0  0  0
 24 23  1  1  0  0  0
 24 29  1  0  0  0  0
 24 25  1  0  0  0  0
 25 26  1  0  0  0  0
 26 27  1  0  0  0  0
 26 28  1  0  0  0  0
 29 32  1  0  0  0  0
 30 32  2  0  0  0  0
 32 31  1  0  0  0  0
M  END
>  <MODEL>
9

>  <REMARK>
 VINA RESULT:      -6.5      2.815      6.398
  Name = 
  14 active torsions:
  status: ('A' for Active; 'I' for Inactive)
    1  A    between atoms: O_1  and  C_5
    2  A    between atoms: O_1  and  O_30
    3  A    between atoms: C_2  and  C_5
    4  A    between atoms: C_3  and  C_8
    5  A    between atoms: C_3  and  C_20
    6  A    between atoms: C_4  and  C_24
    7  A    between atoms: C_4  and  O_30
    8  A    between atoms: C_5  and  O_14
    9  A    between atoms: C_13  and  O_14
   10  A    between atoms: C_13  and  C_29
   11  A    between atoms: C_15  and  C_20
   12  A    between atoms: C_15  and  C_26
   13  A    between atoms: C_16  and  C_20
   14  A    between atoms: C_16  and  C_24
                            x       y       z     vdW  Elec       q    Type
                         _______ _______ _______ _____ _____    ______ ____

>  <TORSDO>
F 14

$$$$
