=
 OpenBabel11052413073D

 31 34  0  0  1  0  0  0  0  0999 V2000
  185.1600  178.3770  145.9960 C   0  0  0  0  0  0  0  0  0  0  0  0
  188.4490  177.8160  144.1150 C   0  0  0  0  0  0  0  0  0  0  0  0
  189.3950  177.3570  145.0780 C   0  0  0  0  0  0  0  0  0  0  0  0
  189.9960  176.6490  147.3360 C   0  0  0  0  0  3  0  0  0  0  0  0
  187.0080  178.1010  144.4280 C   0  0  0  0  0  0  0  0  0  0  0  0
  184.2700  178.5450  144.9340 C   0  0  0  0  0  3  0  0  0  0  0  0
  189.0480  177.1020  146.4160 C   0  0  0  0  0  3  0  0  0  0  0  0
  187.9720  178.5060  141.6930 C   0  0  1  0  0  3  0  0  0  0  0  0
  184.7060  178.4180  147.2720 F   0  0  0  0  0  0  0  0  0  0  0  0
  191.1170  177.3570  143.3730 C   0  0  0  0  0  3  0  0  0  0  0  0
  191.3150  176.4380  146.9320 C   0  0  0  0  0  0  0  0  0  0  0  0
  186.5700  178.2980  142.0240 N   0  0  0  0  0  2  0  0  0  0  0  0
  188.8970  177.9830  142.7760 C   0  0  0  0  0  0  0  0  0  0  0  0
  186.5150  178.1540  145.7430 C   0  0  0  0  0  3  0  0  0  0  0  0
  192.5040  175.8710  148.0830 Cl  0  0  0  0  0  0  0  0  0  0  0  0
  186.1030  178.3060  143.3700 C   0  0  0  0  0  0  0  0  0  0  0  0
  184.7430  178.5090  143.6220 C   0  0  0  0  0  3  0  0  0  0  0  0
  190.2060  177.7750  142.4640 N   0  0  0  0  0  0  0  0  0  0  0  0
  190.7360  177.1310  144.6870 C   0  0  0  0  0  0  0  0  0  0  0  0
  191.6840  176.6790  145.6080 C   0  0  0  0  0  3  0  0  0  0  0  0
  187.6340  178.2680  139.3140 N   0  0  0  0  0  0  0  0  0  0  0  0
  188.2520  177.8730  140.3670 C   0  0  0  0  0  3  0  0  0  0  0  0
  186.6240  178.1390  136.8400 S   0  0  0  0  0  1  0  0  0  0  0  0
  187.9320  177.6990  138.0240 C   0  0  1  0  0  3  0  0  0  0  0  0
  189.3000  178.1650  137.5190 C   0  0  0  0  0  2  0  0  0  0  0  0
  190.1990  176.9920  137.1480 C   0  0  0  0  0  2  0  0  0  0  0  0
  190.7900  175.6590  139.0410 O   0  0  0  0  0  1  0  0  0  0  0  0
  191.2080  176.7330  138.2520 C   0  0  1  0  0  3  0  0  0  0  0  0
  192.5460  176.4440  137.6620 C   0  0  0  0  0  0  0  0  0  0  0  0
  192.6460  175.9840  136.4940 O   0  0  0  0  0  0  0  0  0  0  0  0
  193.6940  176.7130  138.3960 O   0  0  0  0  0  1  0  0  0  0  0  0
  1  9  1  0  0  0  0
  2  5  1  0  0  0  0
  2  3  1  0  0  0  0
  3  7  1  0  0  0  0
  5 14  2  0  0  0  0
  6  1  2  0  0  0  0
  7  4  2  0  0  0  0
  8 22  1  6  0  0  0
  8 12  1  0  0  0  0
  8 13  1  0  0  0  0
 10 19  1  0  0  0  0
 11  4  1  0  0  0  0
 11 15  1  0  0  0  0
 12 16  1  0  0  0  0
 13  2  2  0  0  0  0
 14  1  1  0  0  0  0
 16 17  2  0  0  0  0
 16  5  1  0  0  0  0
 17  6  1  0  0  0  0
 18 13  1  0  0  0  0
 18 10  2  0  0  0  0
 19  3  2  0  0  0  0
 19 20  1  0  0  0  0
 20 11  2  0  0  0  0
 21 22  2  0  0  0  0
 24 23  1  6  0  0  0
 24 21  1  0  0  0  0
 25 24  1  0  0  0  0
 26 25  1  0  0  0  0
 26 28  1  0  0  0  0
 28 27  1  6  0  0  0
 29 28  1  0  0  0  0
 29 31  1  0  0  0  0
 30 29  2  0  0  0  0
M  END
>  <MODEL>
1

>  <REMARK>
 VINA RESULT:     -10.5      0.000      0.000
  Name = 
  6 active torsions:
  status: ('A' for Active; 'I' for Inactive)
    1  A    between atoms: C_1  and  C_24
    2  A    between atoms: C_3  and  C_19
    3  A    between atoms: C_3  and  C_22
    4  A    between atoms: N_9  and  C_22
    5  A    between atoms: C_15  and  C_23
    6  A    between atoms: C_19  and  C_24
                            x       y       z     vdW  Elec       q    Type
                         _______ _______ _______ _____ _____    ______ ____

>  <TORSDO>
F 6

$$$$
=
 OpenBabel11052413073D

 31 34  0  0  1  0  0  0  0  0999 V2000
  185.1560  178.3610  146.0660 C   0  0  0  0  0  0  0  0  0  0  0  0
  188.4210  177.7930  144.1450 C   0  0  0  0  0  0  0  0  0  0  0  0
  189.3790  177.3380  145.0990 C   0  0  0  0  0  0  0  0  0  0  0  0
  190.0100  176.6380  147.3510 C   0  0  0  0  0  3  0  0  0  0  0  0
  186.9850  178.0790  144.4760 C   0  0  0  0  0  0  0  0  0  0  0  0
  184.2540  178.5250  145.0150 C   0  0  0  0  0  3  0  0  0  0  0  0
  189.0500  177.0880  146.4420 C   0  0  0  0  0  3  0  0  0  0  0  0
  187.9140  178.4740  141.7280 C   0  0  1  0  0  3  0  0  0  0  0  0
  184.7190  178.4070  147.3480 F   0  0  0  0  0  0  0  0  0  0  0  0
  191.0800  177.3310  143.3720 C   0  0  0  0  0  3  0  0  0  0  0  0
  191.3230  176.4260  146.9310 C   0  0  0  0  0  0  0  0  0  0  0  0
  186.5160  178.2670  142.0770 N   0  0  0  0  0  2  0  0  0  0  0  0
  188.8520  177.9550  142.8010 C   0  0  0  0  0  0  0  0  0  0  0  0
  186.5080  178.1370  145.7970 C   0  0  0  0  0  3  0  0  0  0  0  0
  192.5270  175.8630  148.0690 Cl  0  0  0  0  0  0  0  0  0  0  0  0
  186.0670  178.2810  143.4280 C   0  0  0  0  0  0  0  0  0  0  0  0
  184.7100  178.4840  143.6970 C   0  0  0  0  0  3  0  0  0  0  0  0
  190.1570  177.7470  142.4730 N   0  0  0  0  0  0  0  0  0  0  0  0
  190.7160  177.1100  144.6910 C   0  0  0  0  0  0  0  0  0  0  0  0
  191.6750  176.6610  145.6020 C   0  0  0  0  0  3  0  0  0  0  0  0
  188.1960  178.5450  139.3300 N   0  0  0  0  0  0  0  0  0  0  0  0
  188.1770  177.8370  140.4010 C   0  0  0  0  0  3  0  0  0  0  0  0
  189.9310  176.8430  138.2140 S   0  0  0  0  0  1  0  0  0  0  0  0
  188.4970  177.9480  138.0540 C   0  0  1  0  0  3  0  0  0  0  0  0
  187.2870  177.1900  137.5010 C   0  0  0  0  0  2  0  0  0  0  0  0
  186.2100  178.1350  136.9830 C   0  0  0  0  0  2  0  0  0  0  0  0
  184.8080  176.3150  137.6380 O   0  0  0  0  0  1  0  0  0  0  0  0
  184.8450  177.7020  137.4840 C   0  0  1  0  0  3  0  0  0  0  0  0
  184.5440  178.3700  138.7830 C   0  0  0  0  0  0  0  0  0  0  0  0
  183.8980  177.7660  139.6790 O   0  0  0  0  0  1  0  0  0  0  0  0
  185.0050  179.6580  139.0160 O   0  0  0  0  0  0  0  0  0  0  0  0
  1  9  1  0  0  0  0
  2  5  1  0  0  0  0
  2  3  1  0  0  0  0
  3  7  1  0  0  0  0
  5 14  2  0  0  0  0
  6  1  2  0  0  0  0
  7  4  2  0  0  0  0
  8 22  1  6  0  0  0
  8 12  1  0  0  0  0
  8 13  1  0  0  0  0
 10 19  1  0  0  0  0
 11  4  1  0  0  0  0
 11 15  1  0  0  0  0
 12 16  1  0  0  0  0
 13  2  2  0  0  0  0
 14  1  1  0  0  0  0
 16 17  2  0  0  0  0
 16  5  1  0  0  0  0
 17  6  1  0  0  0  0
 18 13  1  0  0  0  0
 18 10  2  0  0  0  0
 19  3  2  0  0  0  0
 19 20  1  0  0  0  0
 20 11  2  0  0  0  0
 21 22  2  0  0  0  0
 24 23  1  1  0  0  0
 24 21  1  0  0  0  0
 25 24  1  0  0  0  0
 26 28  1  0  0  0  0
 26 25  1  0  0  0  0
 28 27  1  1  0  0  0
 28 29  1  0  0  0  0
 29 31  2  0  0  0  0
 29 30  1  0  0  0  0
M  END
>  <MODEL>
2

>  <REMARK>
 VINA RESULT:     -10.2      2.720      3.414
  Name = 
  6 active torsions:
  status: ('A' for Active; 'I' for Inactive)
    1  A    between atoms: C_1  and  C_24
    2  A    between atoms: C_3  and  C_19
    3  A    between atoms: C_3  and  C_22
    4  A    between atoms: N_9  and  C_22
    5  A    between atoms: C_15  and  C_23
    6  A    between atoms: C_19  and  C_24
                            x       y       z     vdW  Elec       q    Type
                         _______ _______ _______ _____ _____    ______ ____

>  <TORSDO>
F 6

$$$$
=
 OpenBabel11052413073D

 31 34  0  0  1  0  0  0  0  0999 V2000
  188.1740  177.6300  148.0370 C   0  0  0  0  0  0  0  0  0  0  0  0
  187.2070  177.7970  144.3340 C   0  0  0  0  0  0  0  0  0  0  0  0
  185.8410  178.2030  144.2900 C   0  0  0  0  0  0  0  0  0  0  0  0
  183.7780  178.9430  145.3670 C   0  0  0  0  0  3  0  0  0  0  0  0
  187.9980  177.6650  145.6040 C   0  0  0  0  0  0  0  0  0  0  0  0
  189.5610  177.5050  147.9450 C   0  0  0  0  0  3  0  0  0  0  0  0
  185.1150  178.5450  145.4440 C   0  0  0  0  0  3  0  0  0  0  0  0
  189.2990  177.0580  143.0520 C   0  0  1  0  0  3  0  0  0  0  0  0
  187.5780  177.6850  149.2520 F   0  0  0  0  0  0  0  0  0  0  0  0
  185.8610  177.9690  141.8770 C   0  0  0  0  0  3  0  0  0  0  0  0
  183.1410  179.0100  144.1280 C   0  0  0  0  0  0  0  0  0  0  0  0
  190.0320  177.4120  144.2600 N   0  0  0  0  0  2  0  0  0  0  0  0
  187.8590  177.5340  143.1000 C   0  0  0  0  0  0  0  0  0  0  0  0
  187.4020  177.7130  146.8760 C   0  0  0  0  0  3  0  0  0  0  0  0
  181.4660  179.5080  144.0300 Cl  0  0  0  0  0  0  0  0  0  0  0  0
  189.3940  177.5030  145.5290 C   0  0  0  0  0  0  0  0  0  0  0  0
  190.1690  177.4420  146.6920 C   0  0  0  0  0  3  0  0  0  0  0  0
  187.1620  177.6030  141.9320 N   0  0  0  0  0  0  0  0  0  0  0  0
  185.1770  178.2840  143.0420 C   0  0  0  0  0  0  0  0  0  0  0  0
  183.8400  178.6810  142.9660 C   0  0  0  0  0  3  0  0  0  0  0  0
  190.4470  176.8220  140.9420 N   0  0  0  0  0  0  0  0  0  0  0  0
  190.0290  177.6060  141.8680 C   0  0  0  0  0  3  0  0  0  0  0  0
  192.9110  177.2990  140.0130 S   0  0  0  0  0  1  0  0  0  0  0  0
  191.1090  177.3450  139.7730 C   0  0  1  0  0  3  0  0  0  0  0  0
  190.7100  176.5650  138.5180 C   0  0  0  0  0  2  0  0  0  0  0  0
  189.9990  177.4490  137.5000 C   0  0  0  0  0  2  0  0  0  0  0  0
  189.0300  179.6290  137.6470 O   0  0  0  0  0  1  0  0  0  0  0  0
  188.9900  178.3450  138.1950 C   0  0  1  0  0  3  0  0  0  0  0  0
  187.6210  177.7720  138.0570 C   0  0  0  0  0  0  0  0  0  0  0  0
  187.4540  176.6200  137.5760 O   0  0  0  0  0  0  0  0  0  0  0  0
  186.5230  178.5030  138.4890 O   0  0  0  0  0  1  0  0  0  0  0  0
  1  9  1  0  0  0  0
  2  5  1  0  0  0  0
  3  2  1  0  0  0  0
  3  7  1  0  0  0  0
  4  7  2  0  0  0  0
  5 14  1  0  0  0  0
  6  1  1  0  0  0  0
  8 22  1  6  0  0  0
  8 13  1  0  0  0  0
  8 12  1  0  0  0  0
 10 18  2  0  0  0  0
 10 19  1  0  0  0  0
 11  4  1  0  0  0  0
 12 16  1  0  0  0  0
 13  2  2  0  0  0  0
 14  1  2  0  0  0  0
 15 11  1  0  0  0  0
 16  5  2  0  0  0  0
 16 17  1  0  0  0  0
 17  6  2  0  0  0  0
 18 13  1  0  0  0  0
 19  3  2  0  0  0  0
 20 19  1  0  0  0  0
 20 11  2  0  0  0  0
 21 22  2  0  0  0  0
 24 23  1  1  0  0  0
 24 21  1  0  0  0  0
 25 24  1  0  0  0  0
 26 28  1  0  0  0  0
 26 25  1  0  0  0  0
 28 27  1  6  0  0  0
 29 28  1  0  0  0  0
 29 31  1  0  0  0  0
 30 29  2  0  0  0  0
M  END
>  <MODEL>
3

>  <REMARK>
 VINA RESULT:      -9.7      3.288      5.198
  Name = 
  6 active torsions:
  status: ('A' for Active; 'I' for Inactive)
    1  A    between atoms: C_1  and  C_24
    2  A    between atoms: C_3  and  C_19
    3  A    between atoms: C_3  and  C_22
    4  A    between atoms: N_9  and  C_22
    5  A    between atoms: C_15  and  C_23
    6  A    between atoms: C_19  and  C_24
                            x       y       z     vdW  Elec       q    Type
                         _______ _______ _______ _____ _____    ______ ____

>  <TORSDO>
F 6

$$$$
=
 OpenBabel11052413073D

 31 34  0  0  1  0  0  0  0  0999 V2000
  189.3070  177.4520  146.9860 C   0  0  0  0  0  0  0  0  0  0  0  0
  188.2290  177.9320  143.3420 C   0  0  0  0  0  0  0  0  0  0  0  0
  189.3930  177.7280  142.5440 C   0  0  0  0  0  0  0  0  0  0  0  0
  191.7470  177.1370  142.2830 C   0  0  0  0  0  3  0  0  0  0  0  0
  188.2030  177.7790  144.8360 C   0  0  0  0  0  0  0  0  0  0  0  0
  188.0680  177.3970  147.6260 C   0  0  0  0  0  3  0  0  0  0  0  0
  190.6260  177.3330  143.0910 C   0  0  0  0  0  3  0  0  0  0  0  0
  185.7430  178.5480  143.4450 C   0  0  1  0  0  3  0  0  0  0  0  0
  190.4470  177.3120  147.7050 F   0  0  0  0  0  0  0  0  0  0  0  0
  188.1190  178.2880  140.5590 C   0  0  0  0  0  3  0  0  0  0  0  0
  191.6560  177.3300  140.9050 C   0  0  0  0  0  0  0  0  0  0  0  0
  185.7570  177.9330  144.7650 N   0  0  0  0  0  2  0  0  0  0  0  0
  187.0210  178.2720  142.6750 C   0  0  0  0  0  0  0  0  0  0  0  0
  189.3710  177.6370  145.6040 C   0  0  0  0  0  3  0  0  0  0  0  0
  193.0600  177.0850  139.8900 Cl  0  0  0  0  0  0  0  0  0  0  0  0
  186.9620  177.7560  145.5010 C   0  0  0  0  0  0  0  0  0  0  0  0
  186.8970  177.5490  146.8830 C   0  0  0  0  0  3  0  0  0  0  0  0
  187.0170  178.4610  141.3260 N   0  0  0  0  0  0  0  0  0  0  0  0
  189.3190  177.9120  141.1420 C   0  0  0  0  0  0  0  0  0  0  0  0
  190.4420  177.7160  140.3350 C   0  0  0  0  0  3  0  0  0  0  0  0
  183.5400  178.8630  142.5080 N   0  0  0  0  0  0  0  0  0  0  0  0
  184.5330  178.0740  142.7060 C   0  0  0  0  0  3  0  0  0  0  0  0
  180.8690  178.8850  142.6400 S   0  0  0  0  0  1  0  0  0  0  0  0
  182.3900  178.4310  141.7550 C   0  0  1  0  0  3  0  0  0  0  0  0
  182.3970  179.0300  140.3460 C   0  0  0  0  0  2  0  0  0  0  0  0
  183.1290  178.1380  139.3510 C   0  0  0  0  0  2  0  0  0  0  0  0
  184.6030  180.0160  139.2410 O   0  0  0  0  0  1  0  0  0  0  0  0
  184.0660  178.9680  138.4920 C   0  0  1  0  0  3  0  0  0  0  0  0
  185.1600  178.1080  137.9550 C   0  0  0  0  0  0  0  0  0  0  0  0
  184.9410  176.9040  137.6570 O   0  0  0  0  0  0  0  0  0  0  0  0
  186.4240  178.6480  137.7570 O   0  0  0  0  0  1  0  0  0  0  0  0
  1  6  1  0  0  0  0
  1  9  1  0  0  0  0
  2  5  1  0  0  0  0
  3  7  1  0  0  0  0
  3  2  2  0  0  0  0
  4  7  2  0  0  0  0
  5 16  2  0  0  0  0
  5 14  1  0  0  0  0
  8 22  1  6  0  0  0
  8 12  1  0  0  0  0
 10 19  2  0  0  0  0
 10 18  1  0  0  0  0
 11  4  1  0  0  0  0
 12 16  1  0  0  0  0
 13  2  1  0  0  0  0
 13  8  1  0  0  0  0
 14  1  2  0  0  0  0
 15 11  1  0  0  0  0
 16 17  1  0  0  0  0
 17  6  2  0  0  0  0
 18 13  2  0  0  0  0
 19  3  1  0  0  0  0
 20 11  2  0  0  0  0
 20 19  1  0  0  0  0
 21 22  2  0  0  0  0
 24 21  1  0  0  0  0
 24 23  1  1  0  0  0
 25 24  1  0  0  0  0
 26 25  1  0  0  0  0
 28 27  1  1  0  0  0
 28 26  1  0  0  0  0
 29 28  1  0  0  0  0
 30 29  2  0  0  0  0
 31 29  1  0  0  0  0
M  END
>  <MODEL>
4

>  <REMARK>
 VINA RESULT:      -8.8      3.637      5.449
  Name = 
  6 active torsions:
  status: ('A' for Active; 'I' for Inactive)
    1  A    between atoms: C_1  and  C_24
    2  A    between atoms: C_3  and  C_19
    3  A    between atoms: C_3  and  C_22
    4  A    between atoms: N_9  and  C_22
    5  A    between atoms: C_15  and  C_23
    6  A    between atoms: C_19  and  C_24
                            x       y       z     vdW  Elec       q    Type
                         _______ _______ _______ _____ _____    ______ ____

>  <TORSDO>
F 6

$$$$
=
 OpenBabel11052413073D

 31 34  0  0  1  0  0  0  0  0999 V2000
  188.1700  177.6590  148.1110 C   0  0  0  0  0  0  0  0  0  0  0  0
  187.3140  177.7400  144.3780 C   0  0  0  0  0  0  0  0  0  0  0  0
  185.9550  178.1620  144.2820 C   0  0  0  0  0  0  0  0  0  0  0  0
  183.8720  178.9570  145.2780 C   0  0  0  0  0  3  0  0  0  0  0  0
  188.0650  177.6310  145.6740 C   0  0  0  0  0  0  0  0  0  0  0  0
  189.5570  177.5130  148.0640 C   0  0  0  0  0  3  0  0  0  0  0  0
  185.2000  178.5440  145.4050 C   0  0  0  0  0  3  0  0  0  0  0  0
  189.4320  176.9390  143.1790 C   0  0  1  0  0  3  0  0  0  0  0  0
  187.5390  177.7540  149.3070 F   0  0  0  0  0  0  0  0  0  0  0  0
  186.0420  177.8630  141.8790 C   0  0  0  0  0  3  0  0  0  0  0  0
  183.2720  178.9990  144.0200 C   0  0  0  0  0  0  0  0  0  0  0  0
  190.1340  177.3160  144.3970 N   0  0  0  0  0  2  0  0  0  0  0  0
  187.9980  177.4350  143.1710 C   0  0  0  0  0  0  0  0  0  0  0  0
  187.4330  177.7210  146.9260 C   0  0  0  0  0  3  0  0  0  0  0  0
  181.6080  179.5160  143.8600 Cl  0  0  0  0  0  0  0  0  0  0  0  0
  189.4600  177.4490  145.6450 C   0  0  0  0  0  0  0  0  0  0  0  0
  190.2000  177.4090  146.8310 C   0  0  0  0  0  3  0  0  0  0  0  0
  187.3370  177.4820  141.9820 N   0  0  0  0  0  0  0  0  0  0  0  0
  185.3290  178.2190  143.0140 C   0  0  0  0  0  0  0  0  0  0  0  0
  184.0010  178.6310  142.8880 C   0  0  0  0  0  3  0  0  0  0  0  0
  190.4380  176.6800  140.9990 N   0  0  0  0  0  0  0  0  0  0  0  0
  190.2040  177.4460  142.0030 C   0  0  0  0  0  3  0  0  0  0  0  0
  192.8720  177.5180  140.2700 S   0  0  0  0  0  1  0  0  0  0  0  0
  191.1390  177.1740  139.8400 C   0  0  1  0  0  3  0  0  0  0  0  0
  191.0560  176.1780  138.6800 C   0  0  0  0  0  2  0  0  0  0  0  0
  192.0370  176.5200  137.5650 C   0  0  0  0  0  2  0  0  0  0  0  0
  192.6320  175.4830  135.4960 O   0  0  0  0  0  1  0  0  0  0  0  0
  192.5010  175.2540  136.8680 C   0  0  1  0  0  3  0  0  0  0  0  0
  193.8040  174.8070  137.4390 C   0  0  0  0  0  0  0  0  0  0  0  0
  194.6890  175.6460  137.7510 O   0  0  0  0  0  1  0  0  0  0  0  0
  194.0310  173.4540  137.6550 O   0  0  0  0  0  0  0  0  0  0  0  0
  1  9  1  0  0  0  0
  2  5  1  0  0  0  0
  3  2  1  0  0  0  0
  3  7  1  0  0  0  0
  4  7  2  0  0  0  0
  5 14  1  0  0  0  0
  6  1  1  0  0  0  0
  8 22  1  6  0  0  0
  8 12  1  0  0  0  0
 10 18  2  0  0  0  0
 10 19  1  0  0  0  0
 11  4  1  0  0  0  0
 12 16  1  0  0  0  0
 13  8  1  0  0  0  0
 13  2  2  0  0  0  0
 14  1  2  0  0  0  0
 15 11  1  0  0  0  0
 16  5  2  0  0  0  0
 16 17  1  0  0  0  0
 17  6  2  0  0  0  0
 18 13  1  0  0  0  0
 19  3  2  0  0  0  0
 20 19  1  0  0  0  0
 20 11  2  0  0  0  0
 21 22  2  0  0  0  0
 24 23  1  1  0  0  0
 24 21  1  0  0  0  0
 25 24  1  0  0  0  0
 26 25  1  0  0  0  0
 28 27  1  6  0  0  0
 28 29  1  0  0  0  0
 28 26  1  0  0  0  0
 29 31  2  0  0  0  0
 29 30  1  0  0  0  0
M  END
>  <MODEL>
5

>  <REMARK>
 VINA RESULT:      -8.7      3.123      4.906
  Name = 
  6 active torsions:
  status: ('A' for Active; 'I' for Inactive)
    1  A    between atoms: C_1  and  C_24
    2  A    between atoms: C_3  and  C_19
    3  A    between atoms: C_3  and  C_22
    4  A    between atoms: N_9  and  C_22
    5  A    between atoms: C_15  and  C_23
    6  A    between atoms: C_19  and  C_24
                            x       y       z     vdW  Elec       q    Type
                         _______ _______ _______ _____ _____    ______ ____

>  <TORSDO>
F 6

$$$$
=
 OpenBabel11052413073D

 31 34  0  0  1  0  0  0  0  0999 V2000
  188.7760  177.4010  146.1730 C   0  0  0  0  0  0  0  0  0  0  0  0
  187.5680  178.0190  142.5910 C   0  0  0  0  0  0  0  0  0  0  0  0
  188.6570  177.6860  141.7320 C   0  0  0  0  0  0  0  0  0  0  0  0
  190.9110  176.8310  141.3460 C   0  0  0  0  0  3  0  0  0  0  0  0
  187.6040  177.8620  144.0840 C   0  0  0  0  0  0  0  0  0  0  0  0
  187.5750  177.4860  146.8780 C   0  0  0  0  0  3  0  0  0  0  0  0
  189.8630  177.1510  142.2140 C   0  0  0  0  0  3  0  0  0  0  0  0
  185.1780  178.9140  142.8250 C   0  0  1  0  0  3  0  0  0  0  0  0
  189.9290  177.1290  146.8300 F   0  0  0  0  0  0  0  0  0  0  0  0
  187.3510  178.3970  139.8180 C   0  0  0  0  0  3  0  0  0  0  0  0
  190.7680  177.0390  139.9750 C   0  0  0  0  0  0  0  0  0  0  0  0
  185.1920  178.2960  144.1430 N   0  0  0  0  0  2  0  0  0  0  0  0
  186.3730  178.4970  141.9890 C   0  0  0  0  0  0  0  0  0  0  0  0
  188.7880  177.5840  144.7890 C   0  0  0  0  0  3  0  0  0  0  0  0
  192.0800  176.6400  138.8870 Cl  0  0  0  0  0  0  0  0  0  0  0  0
  186.4060  177.9780  144.8150 C   0  0  0  0  0  0  0  0  0  0  0  0
  186.3920  177.7740  146.1980 C   0  0  0  0  0  3  0  0  0  0  0  0
  186.3190  178.6920  140.6420 N   0  0  0  0  0  0  0  0  0  0  0  0
  188.5300  177.8830  140.3360 C   0  0  0  0  0  0  0  0  0  0  0  0
  189.5790  177.5640  139.4700 C   0  0  0  0  0  3  0  0  0  0  0  0
  182.7670  178.8980  142.7020 N   0  0  0  0  0  0  0  0  0  0  0  0
  183.8840  178.5850  142.1530 C   0  0  0  0  0  3  0  0  0  0  0  0
  180.1640  178.6190  143.2560 S   0  0  0  0  0  1  0  0  0  0  0  0
  181.5160  178.6290  142.0400 C   0  0  1  0  0  3  0  0  0  0  0  0
  181.2440  179.6550  140.9360 C   0  0  0  0  0  2  0  0  0  0  0  0
  181.1450  179.0020  139.5630 C   0  0  0  0  0  2  0  0  0  0  0  0
  181.6330  181.1700  138.6840 O   0  0  0  0  0  1  0  0  0  0  0  0
  181.9190  179.8110  138.5390 C   0  0  1  0  0  3  0  0  0  0  0  0
  183.3820  179.5750  138.7040 C   0  0  0  0  0  0  0  0  0  0  0  0
  184.1400  180.5020  139.0940 O   0  0  0  0  0  1  0  0  0  0  0  0
  183.9080  178.3160  138.4520 O   0  0  0  0  0  0  0  0  0  0  0  0
  1  9  1  0  0  0  0
  1  6  1  0  0  0  0
  2  5  1  0  0  0  0
  3  7  1  0  0  0  0
  3  2  2  0  0  0  0
  4  7  2  0  0  0  0
  5 14  1  0  0  0  0
  5 16  2  0  0  0  0
  8 22  1  6  0  0  0
  8 12  1  0  0  0  0
 10 19  2  0  0  0  0
 10 18  1  0  0  0  0
 11  4  1  0  0  0  0
 12 16  1  0  0  0  0
 13  2  1  0  0  0  0
 13  8  1  0  0  0  0
 14  1  2  0  0  0  0
 15 11  1  0  0  0  0
 16 17  1  0  0  0  0
 17  6  2  0  0  0  0
 18 13  2  0  0  0  0
 19  3  1  0  0  0  0
 20 11  2  0  0  0  0
 20 19  1  0  0  0  0
 22 21  2  0  0  0  0
 24 21  1  0  0  0  0
 24 23  1  1  0  0  0
 25 24  1  0  0  0  0
 26 25  1  0  0  0  0
 28 27  1  1  0  0  0
 28 29  1  0  0  0  0
 28 26  1  0  0  0  0
 29 30  1  0  0  0  0
 31 29  2  0  0  0  0
M  END
>  <MODEL>
6

>  <REMARK>
 VINA RESULT:      -8.7      4.430      6.459
  Name = 
  6 active torsions:
  status: ('A' for Active; 'I' for Inactive)
    1  A    between atoms: C_1  and  C_24
    2  A    between atoms: C_3  and  C_19
    3  A    between atoms: C_3  and  C_22
    4  A    between atoms: N_9  and  C_22
    5  A    between atoms: C_15  and  C_23
    6  A    between atoms: C_19  and  C_24
                            x       y       z     vdW  Elec       q    Type
                         _______ _______ _______ _____ _____    ______ ____

>  <TORSDO>
F 6

$$$$
=
 OpenBabel11052413073D

 31 34  0  0  1  0  0  0  0  0999 V2000
  188.2790  177.5310  147.9430 C   0  0  0  0  0  0  0  0  0  0  0  0
  187.3810  177.7610  144.2260 C   0  0  0  0  0  0  0  0  0  0  0  0
  186.0130  178.1580  144.1620 C   0  0  0  0  0  0  0  0  0  0  0  0
  183.9250  178.8620  145.2130 C   0  0  0  0  0  3  0  0  0  0  0  0
  188.1480  177.6100  145.5080 C   0  0  0  0  0  0  0  0  0  0  0  0
  189.6680  177.4170  147.8750 C   0  0  0  0  0  3  0  0  0  0  0  0
  185.2630  178.4720  145.3080 C   0  0  0  0  0  3  0  0  0  0  0  0
  189.5020  177.0600  142.9700 C   0  0  1  0  0  3  0  0  0  0  0  0
  187.6590  177.5580  149.1470 F   0  0  0  0  0  0  0  0  0  0  0  0
  186.0800  177.9690  141.7470 C   0  0  0  0  0  3  0  0  0  0  0  0
  183.3110  178.9480  143.9640 C   0  0  0  0  0  0  0  0  0  0  0  0
  190.2100  177.3970  144.1980 N   0  0  0  0  0  2  0  0  0  0  0  0
  188.0590  177.5250  142.9990 C   0  0  0  0  0  0  0  0  0  0  0  0
  187.5280  177.6300  146.7690 C   0  0  0  0  0  3  0  0  0  0  0  0
  181.6340  179.4360  143.8440 Cl  0  0  0  0  0  0  0  0  0  0  0  0
  189.5470  177.4590  145.4570 C   0  0  0  0  0  0  0  0  0  0  0  0
  190.3000  177.3820  146.6320 C   0  0  0  0  0  3  0  0  0  0  0  0
  187.3830  177.6110  141.8200 N   0  0  0  0  0  0  0  0  0  0  0  0
  185.3730  178.2580  142.9030 C   0  0  0  0  0  0  0  0  0  0  0  0
  184.0340  178.6460  142.8100 C   0  0  0  0  0  3  0  0  0  0  0  0
  190.6780  176.8740  140.8700 N   0  0  0  0  0  0  0  0  0  0  0  0
  190.2510  177.6350  141.8110 C   0  0  0  0  0  3  0  0  0  0  0  0
  193.1460  177.1250  139.8670 S   0  0  0  0  0  1  0  0  0  0  0  0
  191.3580  177.4250  139.7240 C   0  0  1  0  0  3  0  0  0  0  0  0
  190.8110  176.8340  138.4220 C   0  0  0  0  0  2  0  0  0  0  0  0
  191.6060  175.6140  137.9730 C   0  0  0  0  0  2  0  0  0  0  0  0
  192.3650  175.2950  135.7290 O   0  0  0  0  0  1  0  0  0  0  0  0
  191.2360  175.2400  136.5490 C   0  0  1  0  0  3  0  0  0  0  0  0
  190.6480  173.8700  136.5190 C   0  0  0  0  0  0  0  0  0  0  0  0
  190.0430  173.4100  137.5240 O   0  0  0  0  0  1  0  0  0  0  0  0
  190.7420  173.1060  135.3640 O   0  0  0  0  0  0  0  0  0  0  0  0
  1  9  1  0  0  0  0
  2  5  1  0  0  0  0
  3  2  1  0  0  0  0
  3  7  1  0  0  0  0
  4  7  2  0  0  0  0
  5 14  1  0  0  0  0
  6  1  1  0  0  0  0
  8 22  1  6  0  0  0
  8 13  1  0  0  0  0
  8 12  1  0  0  0  0
 10 18  2  0  0  0  0
 10 19  1  0  0  0  0
 11  4  1  0  0  0  0
 12 16  1  0  0  0  0
 13  2  2  0  0  0  0
 14  1  2  0  0  0  0
 15 11  1  0  0  0  0
 16  5  2  0  0  0  0
 16 17  1  0  0  0  0
 17  6  2  0  0  0  0
 18 13  1  0  0  0  0
 19  3  2  0  0  0  0
 20 19  1  0  0  0  0
 20 11  2  0  0  0  0
 21 22  2  0  0  0  0
 24 23  1  1  0  0  0
 24 21  1  0  0  0  0
 25 24  1  0  0  0  0
 26 25  1  0  0  0  0
 28 27  1  6  0  0  0
 28 26  1  0  0  0  0
 29 28  1  0  0  0  0
 29 30  1  0  0  0  0
 31 29  2  0  0  0  0
M  END
>  <MODEL>
7

>  <REMARK>
 VINA RESULT:      -8.6      3.069      4.995
  Name = 
  6 active torsions:
  status: ('A' for Active; 'I' for Inactive)
    1  A    between atoms: C_1  and  C_24
    2  A    between atoms: C_3  and  C_19
    3  A    between atoms: C_3  and  C_22
    4  A    between atoms: N_9  and  C_22
    5  A    between atoms: C_15  and  C_23
    6  A    between atoms: C_19  and  C_24
                            x       y       z     vdW  Elec       q    Type
                         _______ _______ _______ _____ _____    ______ ____

>  <TORSDO>
F 6

$$$$
=
 OpenBabel11052413073D

 31 34  0  0  1  0  0  0  0  0999 V2000
  190.3320  177.4240  140.6770 C   0  0  0  0  0  0  0  0  0  0  0  0
  186.9170  178.0590  142.2930 C   0  0  0  0  0  0  0  0  0  0  0  0
  187.1170  177.9900  143.7040 C   0  0  0  0  0  0  0  0  0  0  0  0
  188.5500  177.7560  145.6660 C   0  0  0  0  0  3  0  0  0  0  0  0
  188.0230  177.9230  141.2860 C   0  0  0  0  0  0  0  0  0  0  0  0
  190.0720  177.7860  139.3550 C   0  0  0  0  0  3  0  0  0  0  0  0
  188.3860  177.8150  144.2810 C   0  0  0  0  0  3  0  0  0  0  0  0
  185.2840  178.3470  140.3400 C   0  0  1  0  0  3  0  0  0  0  0  0
  191.5720  177.0140  141.0360 F   0  0  0  0  0  0  0  0  0  0  0  0
  184.7370  178.3040  144.0460 C   0  0  0  0  0  3  0  0  0  0  0  0
  187.4420  177.8750  146.5050 C   0  0  0  0  0  0  0  0  0  0  0  0
  186.4630  178.6530  139.5420 N   0  0  0  0  0  2  0  0  0  0  0  0
  185.5980  178.2990  141.8230 C   0  0  0  0  0  0  0  0  0  0  0  0
  189.3160  177.4960  141.6330 C   0  0  0  0  0  3  0  0  0  0  0  0
  187.6450  177.8010  148.2420 Cl  0  0  0  0  0  0  0  0  0  0  0  0
  187.7690  178.2520  139.9410 C   0  0  0  0  0  0  0  0  0  0  0  0
  188.7920  178.2000  138.9890 C   0  0  0  0  0  3  0  0  0  0  0  0
  184.5650  178.3850  142.7060 N   0  0  0  0  0  0  0  0  0  0  0  0
  186.0060  178.1160  144.5730 C   0  0  0  0  0  0  0  0  0  0  0  0
  186.1710  178.0560  145.9590 C   0  0  0  0  0  3  0  0  0  0  0  0
  183.0240  178.9630  139.7540 N   0  0  0  0  0  0  0  0  0  0  0  0
  184.2180  179.3480  140.0270 C   0  0  0  0  0  3  0  0  0  0  0  0
  181.5830  179.9440  137.7250 S   0  0  0  0  0  1  0  0  0  0  0  0
  181.9790  179.9220  139.4990 C   0  0  1  0  0  3  0  0  0  0  0  0
  180.7300  179.6090  140.3280 C   0  0  0  0  0  2  0  0  0  0  0  0
  181.0550  178.7540  141.5470 C   0  0  0  0  0  2  0  0  0  0  0  0
  179.3730  177.1040  141.9500 O   0  0  0  0  0  1  0  0  0  0  0  0
  179.7820  178.3950  142.2920 C   0  0  1  0  0  3  0  0  0  0  0  0
  180.0100  178.4860  143.7630 C   0  0  0  0  0  0  0  0  0  0  0  0
  181.1710  178.6540  144.2220 O   0  0  0  0  0  0  0  0  0  0  0  0
  178.9310  178.4140  144.6320 O   0  0  0  0  0  1  0  0  0  0  0  0
  1  9  1  0  0  0  0
  1 14  1  0  0  0  0
  2  3  1  0  0  0  0
  3  7  2  0  0  0  0
  3 19  1  0  0  0  0
  4 11  2  0  0  0  0
  5 14  2  0  0  0  0
  5  2  1  0  0  0  0
  6  1  2  0  0  0  0
  7  4  1  0  0  0  0
  8 22  1  1  0  0  0
  8 13  1  0  0  0  0
 10 19  1  0  0  0  0
 11 15  1  0  0  0  0
 12 16  1  0  0  0  0
 12  8  1  0  0  0  0
 13  2  2  0  0  0  0
 13 18  1  0  0  0  0
 16  5  1  0  0  0  0
 17  6  1  0  0  0  0
 17 16  2  0  0  0  0
 18 10  2  0  0  0  0
 19 20  2  0  0  0  0
 20 11  1  0  0  0  0
 21 22  2  0  0  0  0
 24 23  1  6  0  0  0
 24 21  1  0  0  0  0
 24 25  1  0  0  0  0
 25 26  1  0  0  0  0
 26 28  1  0  0  0  0
 28 27  1  1  0  0  0
 28 29  1  0  0  0  0
 29 30  2  0  0  0  0
 29 31  1  0  0  0  0
M  END
>  <MODEL>
8

>  <REMARK>
 VINA RESULT:      -8.5      5.021      7.565
  Name = 
  6 active torsions:
  status: ('A' for Active; 'I' for Inactive)
    1  A    between atoms: C_1  and  C_24
    2  A    between atoms: C_3  and  C_19
    3  A    between atoms: C_3  and  C_22
    4  A    between atoms: N_9  and  C_22
    5  A    between atoms: C_15  and  C_23
    6  A    between atoms: C_19  and  C_24
                            x       y       z     vdW  Elec       q    Type
                         _______ _______ _______ _____ _____    ______ ____

>  <TORSDO>
F 6

$$$$
=
 OpenBabel11052413073D

 31 34  0  0  1  0  0  0  0  0999 V2000
  190.1380  177.0930  137.0200 C   0  0  0  0  0  0  0  0  0  0  0  0
  188.0870  177.9330  140.1450 C   0  0  0  0  0  0  0  0  0  0  0  0
  186.7760  178.2650  139.6930 C   0  0  0  0  0  0  0  0  0  0  0  0
  185.1010  178.4990  137.9320 C   0  0  0  0  0  3  0  0  0  0  0  0
  189.1950  177.4840  139.2360 C   0  0  0  0  0  0  0  0  0  0  0  0
  191.2780  176.5300  137.5930 C   0  0  0  0  0  3  0  0  0  0  0  0
  186.3950  178.1720  138.3430 C   0  0  0  0  0  3  0  0  0  0  0  0
  189.7200  177.7120  142.1070 C   0  0  1  0  0  3  0  0  0  0  0  0
  190.0260  177.1750  135.6720 F   0  0  0  0  0  0  0  0  0  0  0  0
  186.1330  178.7850  141.9710 C   0  0  0  0  0  3  0  0  0  0  0  0
  184.1590  178.9260  138.8680 C   0  0  0  0  0  0  0  0  0  0  0  0
  190.5130  176.8810  141.2130 N   0  0  0  0  0  2  0  0  0  0  0  0
  188.3440  178.0060  141.5400 C   0  0  0  0  0  0  0  0  0  0  0  0
  189.1060  177.5620  137.8350 C   0  0  0  0  0  3  0  0  0  0  0  0
  182.5380  179.3380  138.3540 Cl  0  0  0  0  0  0  0  0  0  0  0  0
  190.3670  176.9440  139.7980 C   0  0  0  0  0  0  0  0  0  0  0  0
  191.3910  176.4550  138.9810 C   0  0  0  0  0  3  0  0  0  0  0  0
  187.3760  178.4500  142.3890 N   0  0  0  0  0  0  0  0  0  0  0  0
  185.8030  178.6930  140.6280 C   0  0  0  0  0  0  0  0  0  0  0  0
  184.5100  179.0210  140.2150 C   0  0  0  0  0  3  0  0  0  0  0  0
  189.9550  177.6810  144.5100 N   0  0  0  0  0  0  0  0  0  0  0  0
  189.6410  177.0420  143.4420 C   0  0  0  0  0  3  0  0  0  0  0  0
  191.4860  176.6240  146.4330 S   0  0  0  0  0  1  0  0  0  0  0  0
  189.8360  177.0600  145.8060 C   0  0  1  0  0  3  0  0  0  0  0  0
  189.1070  177.9770  146.7910 C   0  0  0  0  0  2  0  0  0  0  0  0
  187.6710  177.5280  147.0310 C   0  0  0  0  0  2  0  0  0  0  0  0
  186.2420  177.1090  145.1620 O   0  0  0  0  0  1  0  0  0  0  0  0
  186.7520  178.1210  145.9770 C   0  0  1  0  0  3  0  0  0  0  0  0
  185.6370  178.8620  146.6330 C   0  0  0  0  0  0  0  0  0  0  0  0
  184.4410  178.6360  146.3100 O   0  0  0  0  0  0  0  0  0  0  0  0
  185.9180  179.7880  147.6270 O   0  0  0  0  0  1  0  0  0  0  0  0
  1  6  2  0  0  0  0
  1 14  1  0  0  0  0
  2 13  1  0  0  0  0
  3  2  2  0  0  0  0
  3 19  1  0  0  0  0
  4  7  2  0  0  0  0
  4 11  1  0  0  0  0
  5 16  1  0  0  0  0
  5  2  1  0  0  0  0
  6 17  1  0  0  0  0
  7  3  1  0  0  0  0
  8 22  1  1  0  0  0
  9  1  1  0  0  0  0
 10 18  1  0  0  0  0
 11 20  2  0  0  0  0
 12  8  1  0  0  0  0
 13  8  1  0  0  0  0
 13 18  2  0  0  0  0
 14  5  2  0  0  0  0
 15 11  1  0  0  0  0
 16 12  1  0  0  0  0
 17 16  2  0  0  0  0
 19 10  2  0  0  0  0
 20 19  1  0  0  0  0
 21 24  1  0  0  0  0
 22 21  2  0  0  0  0
 24 23  1  1  0  0  0
 24 25  1  0  0  0  0
 25 26  1  0  0  0  0
 28 27  1  1  0  0  0
 28 29  1  0  0  0  0
 28 26  1  0  0  0  0
 29 31  1  0  0  0  0
 30 29  2  0  0  0  0
M  END
>  <MODEL>
9

>  <REMARK>
 VINA RESULT:      -8.4      5.203      8.731
  Name = 
  6 active torsions:
  status: ('A' for Active; 'I' for Inactive)
    1  A    between atoms: C_1  and  C_24
    2  A    between atoms: C_3  and  C_19
    3  A    between atoms: C_3  and  C_22
    4  A    between atoms: N_9  and  C_22
    5  A    between atoms: C_15  and  C_23
    6  A    between atoms: C_19  and  C_24
                            x       y       z     vdW  Elec       q    Type
                         _______ _______ _______ _____ _____    ______ ____

>  <TORSDO>
F 6

$$$$
