=
 OpenBabel11052412483D

 25 28  0  0  0  0  0  0  0  0999 V2000
  187.4710  177.8670  145.7240 C   0  0  0  0  0  0  0  0  0  0  0  0
  188.7430  177.4390  145.2870 C   0  0  0  0  0  0  0  0  0  0  0  0
  188.2290  177.9030  148.0440 C   0  0  0  0  0  3  0  0  0  0  0  0
  186.3200  178.1240  144.9540 C   0  0  0  0  0  0  0  0  0  0  0  0
  183.8570  178.7250  143.7720 C   0  0  0  0  0  3  0  0  0  0  0  0
  189.4920  177.4790  147.6200 C   0  0  0  0  0  3  0  0  0  0  0  0
  185.2340  178.5350  145.7250 C   0  0  0  0  0  0  0  0  0  0  0  0
  183.9970  178.8410  145.1620 C   0  0  0  0  0  3  0  0  0  0  0  0
  191.0810  176.7990  145.8160 C   0  0  0  0  0  0  0  0  0  0  0  0
  192.0080  176.6180  146.6510 O   0  0  0  0  0  0  0  0  0  0  0  0
  189.0240  177.1910  143.8250 C   0  0  0  0  0  2  0  0  0  0  0  0
  184.9420  178.3120  142.9780 C   0  0  0  0  0  3  0  0  0  0  0  0
  187.2420  178.0900  147.0830 C   0  0  0  0  0  0  0  0  0  0  0  0
  185.6560  178.5940  147.3540 S   0  0  0  0  0  0  0  0  0  0  0  0
  191.3280  176.5650  144.4300 N   0  0  0  0  0  0  0  0  0  0  0  0
  186.1800  178.0080  143.5660 C   0  0  0  0  0  3  0  0  0  0  0  0
  190.4240  176.7310  143.5060 C   0  0  0  0  0  0  0  0  0  0  0  0
  189.7530  177.2470  146.2550 C   0  0  0  0  0  0  0  0  0  0  0  0
  190.7470  176.4710  142.0990 C   0  0  0  0  0  3  0  0  0  0  0  0
  191.3030  177.3880  141.3140 C   0  0  0  0  0  3  0  0  0  0  0  0
  191.6730  177.0030  139.6100 S   0  0  0  0  0  0  0  0  0  0  0  0
  189.9100  176.9080  139.1710 C   0  0  0  0  0  2  0  0  0  0  0  0
  189.2940  178.2940  139.1520 C   0  0  0  0  0  3  0  0  0  0  0  0
  188.9240  178.6560  137.7300 C   0  0  0  0  0  1  0  0  0  0  0  0
  188.0450  178.3220  140.0120 C   0  0  0  0  0  1  0  0  0  0  0  0
  1 13  1  0  0  0  0
  2  1  2  0  0  0  0
  2 18  1  0  0  0  0
  4  1  1  0  0  0  0
  4  7  1  0  0  0  0
  5  8  1  0  0  0  0
  6  3  1  0  0  0  0
  7 14  1  0  0  0  0
  8  7  2  0  0  0  0
  9 18  1  0  0  0  0
  9 10  2  0  0  0  0
 11  2  1  0  0  0  0
 12 16  1  0  0  0  0
 12  5  2  0  0  0  0
 13 14  1  0  0  0  0
 13  3  2  0  0  0  0
 15  9  1  0  0  0  0
 16  4  2  0  0  0  0
 17 11  1  0  0  0  0
 17 15  2  0  0  0  0
 18  6  2  0  0  0  0
 19 17  1  0  0  0  0
 20 19  2  0  0  0  0
 21 20  1  0  0  0  0
 22 21  1  0  0  0  0
 23 22  1  0  0  0  0
 23 25  1  0  0  0  0
 24 23  1  0  0  0  0
M  END
>  <MODEL>
1

>  <REMARK>
 VINA RESULT:     -10.2      0.000      0.000
  Name = 
  4 active torsions:
  status: ('A' for Active; 'I' for Inactive)
    1  A    between atoms: C_2  and  C_25
    2  A    between atoms: C_6  and  C_23
    3  A    between atoms: C_15  and  S_21
    4  A    between atoms: S_21  and  C_25
                            x       y       z     vdW  Elec       q    Type
                         _______ _______ _______ _____ _____    ______ ____

>  <TORSDO>
F 4

$$$$
=
 OpenBabel11052412483D

 25 28  0  0  0  0  0  0  0  0999 V2000
  187.0430  177.8930  144.9830 C   0  0  0  0  0  0  0  0  0  0  0  0
  188.2120  177.4880  144.3030 C   0  0  0  0  0  0  0  0  0  0  0  0
  188.1730  177.7030  147.1380 C   0  0  0  0  0  3  0  0  0  0  0  0
  185.7890  178.2380  144.4410 C   0  0  0  0  0  0  0  0  0  0  0  0
  183.1840  178.9820  143.7440 C   0  0  0  0  0  3  0  0  0  0  0  0
  189.3360  177.3000  146.4730 C   0  0  0  0  0  3  0  0  0  0  0  0
  184.8580  178.5920  145.4160 C   0  0  0  0  0  0  0  0  0  0  0  0
  183.5550  178.9670  145.0960 C   0  0  0  0  0  3  0  0  0  0  0  0
  190.5850  176.7660  144.3780 C   0  0  0  0  0  0  0  0  0  0  0  0
  191.6300  176.4950  145.0270 O   0  0  0  0  0  0  0  0  0  0  0  0
  188.2410  177.3720  142.7990 C   0  0  0  0  0  2  0  0  0  0  0  0
  184.1120  178.6270  142.7470 C   0  0  0  0  0  3  0  0  0  0  0  0
  187.0480  177.9930  146.3750 C   0  0  0  0  0  0  0  0  0  0  0  0
  185.5440  178.4930  146.9500 S   0  0  0  0  0  0  0  0  0  0  0  0
  190.5930  176.6580  142.9540 N   0  0  0  0  0  0  0  0  0  0  0  0
  185.4190  178.2520  143.0910 C   0  0  0  0  0  3  0  0  0  0  0  0
  189.5550  176.9220  142.2120 C   0  0  0  0  0  0  0  0  0  0  0  0
  189.3610  177.1910  145.0690 C   0  0  0  0  0  0  0  0  0  0  0  0
  189.6350  176.7880  140.7530 C   0  0  0  0  0  3  0  0  0  0  0  0
  190.7630  176.9880  140.0800 C   0  0  0  0  0  3  0  0  0  0  0  0
  190.7890  176.8060  138.3030 S   0  0  0  0  0  0  0  0  0  0  0  0
  188.9840  176.5970  138.2220 C   0  0  0  0  0  2  0  0  0  0  0  0
  188.3790  177.5940  137.2520 C   0  0  0  0  0  3  0  0  0  0  0  0
  186.9080  177.7620  137.5620 C   0  0  0  0  0  1  0  0  0  0  0  0
  189.0720  178.9370  137.3840 C   0  0  0  0  0  1  0  0  0  0  0  0
  1 13  1  0  0  0  0
  2  1  2  0  0  0  0
  2 18  1  0  0  0  0
  4  1  1  0  0  0  0
  4  7  1  0  0  0  0
  5  8  1  0  0  0  0
  6  3  1  0  0  0  0
  7 14  1  0  0  0  0
  8  7  2  0  0  0  0
  9 10  2  0  0  0  0
  9 18  1  0  0  0  0
 11  2  1  0  0  0  0
 12 16  1  0  0  0  0
 12  5  2  0  0  0  0
 13 14  1  0  0  0  0
 13  3  2  0  0  0  0
 15  9  1  0  0  0  0
 16  4  2  0  0  0  0
 17 11  1  0  0  0  0
 17 15  2  0  0  0  0
 18  6  2  0  0  0  0
 19 17  1  0  0  0  0
 20 19  2  0  0  0  0
 21 20  1  0  0  0  0
 22 21  1  0  0  0  0
 23 25  1  0  0  0  0
 23 24  1  0  0  0  0
 23 22  1  0  0  0  0
M  END
>  <MODEL>
2

>  <REMARK>
 VINA RESULT:      -9.6      1.157      1.406
  Name = 
  4 active torsions:
  status: ('A' for Active; 'I' for Inactive)
    1  A    between atoms: C_2  and  C_25
    2  A    between atoms: C_6  and  C_23
    3  A    between atoms: C_15  and  S_21
    4  A    between atoms: S_21  and  C_25
                            x       y       z     vdW  Elec       q    Type
                         _______ _______ _______ _____ _____    ______ ____

>  <TORSDO>
F 4

$$$$
=
 OpenBabel11052412483D

 25 28  0  0  0  0  0  0  0  0999 V2000
  185.9460  178.3780  144.6350 C   0  0  0  0  0  0  0  0  0  0  0  0
  186.0470  178.4730  143.2300 C   0  0  0  0  0  0  0  0  0  0  0  0
  183.5660  178.9110  144.5460 C   0  0  0  0  0  3  0  0  0  0  0  0
  186.9570  178.0750  145.5690 C   0  0  0  0  0  0  0  0  0  0  0  0
  188.6800  177.5160  147.7000 C   0  0  0  0  0  3  0  0  0  0  0  0
  183.6570  179.0070  143.1540 C   0  0  0  0  0  3  0  0  0  0  0  0
  186.4940  178.0670  146.8830 C   0  0  0  0  0  0  0  0  0  0  0  0
  187.3300  177.7920  147.9620 C   0  0  0  0  0  3  0  0  0  0  0  0
  184.9730  178.8970  141.0340 C   0  0  0  0  0  0  0  0  0  0  0  0
  183.9560  179.1780  140.3460 O   0  0  0  0  0  0  0  0  0  0  0  0
  187.3610  178.2410  142.5240 C   0  0  0  0  0  2  0  0  0  0  0  0
  189.1640  177.5210  146.3790 C   0  0  0  0  0  3  0  0  0  0  0  0
  184.7160  178.5960  145.2590 C   0  0  0  0  0  0  0  0  0  0  0  0
  184.8500  178.4250  146.9310 S   0  0  0  0  0  0  0  0  0  0  0  0
  186.2250  178.6790  140.3830 N   0  0  0  0  0  0  0  0  0  0  0  0
  188.3040  177.8010  145.3060 C   0  0  0  0  0  3  0  0  0  0  0  0
  187.3200  178.3820  141.0230 C   0  0  0  0  0  0  0  0  0  0  0  0
  184.8830  178.7920  142.4960 C   0  0  0  0  0  0  0  0  0  0  0  0
  188.5730  178.1720  140.2900 C   0  0  0  0  0  3  0  0  0  0  0  0
  189.5010  177.3120  140.6960 C   0  0  0  0  0  3  0  0  0  0  0  0
  191.0030  177.1040  139.7530 S   0  0  0  0  0  0  0  0  0  0  0  0
  192.0490  177.4300  141.2050 C   0  0  0  0  0  2  0  0  0  0  0  0
  191.2230  177.3720  142.4760 C   0  0  0  0  0  3  0  0  0  0  0  0
  191.6130  176.1450  143.2700 C   0  0  0  0  0  1  0  0  0  0  0  0
  191.4720  178.6090  143.3180 C   0  0  0  0  0  1  0  0  0  0  0  0
  1 13  2  0  0  0  0
  1  4  1  0  0  0  0
  2  1  1  0  0  0  0
  3 13  1  0  0  0  0
  4  7  1  0  0  0  0
  5  8  1  0  0  0  0
  6  3  2  0  0  0  0
  7 14  1  0  0  0  0
  7  8  2  0  0  0  0
  9 18  1  0  0  0  0
 10  9  2  0  0  0  0
 11  2  1  0  0  0  0
 12  5  2  0  0  0  0
 13 14  1  0  0  0  0
 15 17  2  0  0  0  0
 15  9  1  0  0  0  0
 16  4  2  0  0  0  0
 16 12  1  0  0  0  0
 17 11  1  0  0  0  0
 18  6  1  0  0  0  0
 18  2  2  0  0  0  0
 19 20  2  0  0  0  0
 19 17  1  0  0  0  0
 21 20  1  0  0  0  0
 21 22  1  0  0  0  0
 22 23  1  0  0  0  0
 23 24  1  0  0  0  0
 23 25  1  0  0  0  0
M  END
>  <MODEL>
3

>  <REMARK>
 VINA RESULT:      -9.5      2.741      4.955
  Name = 
  4 active torsions:
  status: ('A' for Active; 'I' for Inactive)
    1  A    between atoms: C_2  and  C_25
    2  A    between atoms: C_6  and  C_23
    3  A    between atoms: C_15  and  S_21
    4  A    between atoms: S_21  and  C_25
                            x       y       z     vdW  Elec       q    Type
                         _______ _______ _______ _____ _____    ______ ____

>  <TORSDO>
F 4

$$$$
=
 OpenBabel11052412483D

 25 28  0  0  0  0  0  0  0  0999 V2000
  187.1290  177.9080  145.1180 C   0  0  0  0  0  0  0  0  0  0  0  0
  188.3530  177.5240  144.5290 C   0  0  0  0  0  0  0  0  0  0  0  0
  188.0980  177.7410  147.3520 C   0  0  0  0  0  3  0  0  0  0  0  0
  185.9130  178.2290  144.4830 C   0  0  0  0  0  0  0  0  0  0  0  0
  183.3550  178.9250  143.5910 C   0  0  0  0  0  3  0  0  0  0  0  0
  189.3140  177.3590  146.7770 C   0  0  0  0  0  3  0  0  0  0  0  0
  184.9050  178.5670  145.3850 C   0  0  0  0  0  0  0  0  0  0  0  0
  183.6240  178.9180  144.9670 C   0  0  0  0  0  3  0  0  0  0  0  0
  190.7270  176.8460  144.7820 C   0  0  0  0  0  0  0  0  0  0  0  0
  191.7250  176.5950  145.5090 O   0  0  0  0  0  0  0  0  0  0  0  0
  188.4970  177.4070  143.0310 C   0  0  0  0  0  2  0  0  0  0  0  0
  184.3600  178.5860  142.6670 C   0  0  0  0  0  3  0  0  0  0  0  0
  187.0280  178.0090  146.5070 C   0  0  0  0  0  0  0  0  0  0  0  0
  185.4760  178.4830  146.9660 S   0  0  0  0  0  0  0  0  0  0  0  0
  190.8430  176.7370  143.3630 N   0  0  0  0  0  0  0  0  0  0  0  0
  185.6450  178.2360  143.1090 C   0  0  0  0  0  3  0  0  0  0  0  0
  189.8590  176.9810  142.5450 C   0  0  0  0  0  0  0  0  0  0  0  0
  189.4470  177.2490  145.3790 C   0  0  0  0  0  0  0  0  0  0  0  0
  190.0500  176.8470  141.0970 C   0  0  0  0  0  3  0  0  0  0  0  0
  189.4570  177.6530  140.2230 C   0  0  0  0  0  3  0  0  0  0  0  0
  189.7340  177.4350  138.4720 S   0  0  0  0  0  0  0  0  0  0  0  0
  190.9560  176.1180  138.7530 C   0  0  0  0  0  2  0  0  0  0  0  0
  191.7580  175.8620  137.4910 C   0  0  0  0  0  3  0  0  0  0  0  0
  193.1300  176.4840  137.6360 C   0  0  0  0  0  1  0  0  0  0  0  0
  191.9110  174.3700  137.2640 C   0  0  0  0  0  1  0  0  0  0  0  0
  1 13  1  0  0  0  0
  2  1  2  0  0  0  0
  2 18  1  0  0  0  0
  4  1  1  0  0  0  0
  4  7  1  0  0  0  0
  5  8  1  0  0  0  0
  6  3  1  0  0  0  0
  7 14  1  0  0  0  0
  8  7  2  0  0  0  0
  9 18  1  0  0  0  0
  9 10  2  0  0  0  0
 11  2  1  0  0  0  0
 12 16  1  0  0  0  0
 12  5  2  0  0  0  0
 13 14  1  0  0  0  0
 13  3  2  0  0  0  0
 15  9  1  0  0  0  0
 16  4  2  0  0  0  0
 17 11  1  0  0  0  0
 17 15  2  0  0  0  0
 18  6  2  0  0  0  0
 19 17  1  0  0  0  0
 20 19  2  0  0  0  0
 21 22  1  0  0  0  0
 21 20  1  0  0  0  0
 23 24  1  0  0  0  0
 23 22  1  0  0  0  0
 25 23  1  0  0  0  0
M  END
>  <MODEL>
4

>  <REMARK>
 VINA RESULT:      -9.5      1.501      2.011
  Name = 
  4 active torsions:
  status: ('A' for Active; 'I' for Inactive)
    1  A    between atoms: C_2  and  C_25
    2  A    between atoms: C_6  and  C_23
    3  A    between atoms: C_15  and  S_21
    4  A    between atoms: S_21  and  C_25
                            x       y       z     vdW  Elec       q    Type
                         _______ _______ _______ _____ _____    ______ ____

>  <TORSDO>
F 4

$$$$
=
 OpenBabel11052412483D

 25 28  0  0  0  0  0  0  0  0999 V2000
  187.9770  177.6540  145.4920 C   0  0  0  0  0  0  0  0  0  0  0  0
  187.3560  177.9540  144.2600 C   0  0  0  0  0  0  0  0  0  0  0  0
  185.9320  178.2000  146.7080 C   0  0  0  0  0  3  0  0  0  0  0  0
  189.2950  177.2160  145.7260 C   0  0  0  0  0  0  0  0  0  0  0  0
  191.8140  176.3470  146.5770 C   0  0  0  0  0  3  0  0  0  0  0  0
  185.3090  178.4990  145.4930 C   0  0  0  0  0  3  0  0  0  0  0  0
  189.5670  177.0160  147.0780 C   0  0  0  0  0  0  0  0  0  0  0  0
  190.8110  176.5840  147.5290 C   0  0  0  0  0  3  0  0  0  0  0  0
  185.3500  178.6970  143.0030 C   0  0  0  0  0  0  0  0  0  0  0  0
  184.1490  179.0790  142.9780 O   0  0  0  0  0  0  0  0  0  0  0  0
  188.1040  177.8250  142.9560 C   0  0  0  0  0  2  0  0  0  0  0  0
  191.5570  176.5430  145.2080 C   0  0  0  0  0  3  0  0  0  0  0  0
  187.2570  177.7810  146.6820 C   0  0  0  0  0  0  0  0  0  0  0  0
  188.2100  177.3680  148.0100 S   0  0  0  0  0  0  0  0  0  0  0  0
  186.0750  178.5740  141.7800 N   0  0  0  0  0  0  0  0  0  0  0  0
  190.2950  176.9800  144.7760 C   0  0  0  0  0  3  0  0  0  0  0  0
  187.3160  178.1840  141.7220 C   0  0  0  0  0  0  0  0  0  0  0  0
  186.0090  178.3790  144.2770 C   0  0  0  0  0  0  0  0  0  0  0  0
  188.0010  178.0810  140.4280 C   0  0  0  0  0  3  0  0  0  0  0  0
  189.1420  177.4170  140.2770 C   0  0  0  0  0  3  0  0  0  0  0  0
  189.9210  177.3300  138.6720 S   0  0  0  0  0  0  0  0  0  0  0  0
  189.1120  178.8590  138.1120 C   0  0  0  0  0  2  0  0  0  0  0  0
  188.5300  178.6730  136.7240 C   0  0  0  0  0  3  0  0  0  0  0  0
  189.2450  177.5330  136.0320 C   0  0  0  0  0  1  0  0  0  0  0  0
  187.0510  178.3480  136.8170 C   0  0  0  0  0  1  0  0  0  0  0  0
  1  4  1  0  0  0  0
  1 13  2  0  0  0  0
  2 18  2  0  0  0  0
  2  1  1  0  0  0  0
  4  7  1  0  0  0  0
  5  8  1  0  0  0  0
  6  3  2  0  0  0  0
  7  8  2  0  0  0  0
  7 14  1  0  0  0  0
  9 18  1  0  0  0  0
 10  9  2  0  0  0  0
 11  2  1  0  0  0  0
 12  5  2  0  0  0  0
 13  3  1  0  0  0  0
 13 14  1  0  0  0  0
 15  9  1  0  0  0  0
 16 12  1  0  0  0  0
 16  4  2  0  0  0  0
 17 15  2  0  0  0  0
 17 11  1  0  0  0  0
 18  6  1  0  0  0  0
 19 17  1  0  0  0  0
 20 19  2  0  0  0  0
 21 20  1  0  0  0  0
 22 21  1  0  0  0  0
 23 25  1  0  0  0  0
 23 22  1  0  0  0  0
 24 23  1  0  0  0  0
M  END
>  <MODEL>
5

>  <REMARK>
 VINA RESULT:      -9.4      2.567      4.612
  Name = 
  4 active torsions:
  status: ('A' for Active; 'I' for Inactive)
    1  A    between atoms: C_2  and  C_25
    2  A    between atoms: C_6  and  C_23
    3  A    between atoms: C_15  and  S_21
    4  A    between atoms: S_21  and  C_25
                            x       y       z     vdW  Elec       q    Type
                         _______ _______ _______ _____ _____    ______ ____

>  <TORSDO>
F 4

$$$$
=
 OpenBabel11052412483D

 25 28  0  0  0  0  0  0  0  0999 V2000
  187.9050  177.6500  145.2610 C   0  0  0  0  0  0  0  0  0  0  0  0
  186.6720  177.9970  144.6670 C   0  0  0  0  0  0  0  0  0  0  0  0
  187.0330  178.1660  147.4820 C   0  0  0  0  0  3  0  0  0  0  0  0
  189.0830  177.1960  144.6350 C   0  0  0  0  0  0  0  0  0  0  0  0
  191.5770  176.2810  143.7600 C   0  0  0  0  0  3  0  0  0  0  0  0
  185.8090  178.5120  146.9030 C   0  0  0  0  0  3  0  0  0  0  0  0
  190.1140  176.9470  145.5390 C   0  0  0  0  0  0  0  0  0  0  0  0
  191.3650  176.4910  145.1310 C   0  0  0  0  0  3  0  0  0  0  0  0
  184.3350  178.7970  144.9060 C   0  0  0  0  0  0  0  0  0  0  0  0
  183.3760  179.1870  145.6250 O   0  0  0  0  0  0  0  0  0  0  0  0
  186.4720  177.9090  143.1740 C   0  0  0  0  0  2  0  0  0  0  0  0
  190.5470  176.5270  142.8340 C   0  0  0  0  0  3  0  0  0  0  0  0
  188.0590  177.7400  146.6460 C   0  0  0  0  0  0  0  0  0  0  0  0
  189.6110  177.2740  147.1120 S   0  0  0  0  0  0  0  0  0  0  0  0
  184.1660  178.7120  143.4910 N   0  0  0  0  0  0  0  0  0  0  0  0
  189.2940  176.9870  143.2680 C   0  0  0  0  0  3  0  0  0  0  0  0
  185.1060  178.3170  142.6810 C   0  0  0  0  0  0  0  0  0  0  0  0
  185.6240  178.4300  145.5090 C   0  0  0  0  0  0  0  0  0  0  0  0
  184.8620  178.2550  141.2360 C   0  0  0  0  0  3  0  0  0  0  0  0
  185.7610  178.6570  140.3440 C   0  0  0  0  0  3  0  0  0  0  0  0
  185.3990  178.5520  138.5980 S   0  0  0  0  0  0  0  0  0  0  0  0
  186.8940  177.5690  138.2710 C   0  0  0  0  0  2  0  0  0  0  0  0
  188.1260  178.2960  138.7730 C   0  0  0  0  0  3  0  0  0  0  0  0
  189.0110  177.3220  139.5210 C   0  0  0  0  0  1  0  0  0  0  0  0
  188.9020  178.8750  137.6050 C   0  0  0  0  0  1  0  0  0  0  0  0
  1 13  1  0  0  0  0
  2  1  2  0  0  0  0
  2 18  1  0  0  0  0
  4  1  1  0  0  0  0
  4  7  1  0  0  0  0
  5  8  1  0  0  0  0
  6  3  1  0  0  0  0
  7 14  1  0  0  0  0
  8  7  2  0  0  0  0
  9 18  1  0  0  0  0
  9 10  2  0  0  0  0
 11  2  1  0  0  0  0
 12 16  1  0  0  0  0
 12  5  2  0  0  0  0
 13 14  1  0  0  0  0
 13  3  2  0  0  0  0
 15  9  1  0  0  0  0
 16  4  2  0  0  0  0
 17 11  1  0  0  0  0
 17 15  2  0  0  0  0
 18  6  2  0  0  0  0
 19 17  1  0  0  0  0
 20 19  2  0  0  0  0
 21 20  1  0  0  0  0
 22 21  1  0  0  0  0
 22 23  1  0  0  0  0
 23 24  1  0  0  0  0
 25 23  1  0  0  0  0
M  END
>  <MODEL>
6

>  <REMARK>
 VINA RESULT:      -9.4      2.994      5.028
  Name = 
  4 active torsions:
  status: ('A' for Active; 'I' for Inactive)
    1  A    between atoms: C_2  and  C_25
    2  A    between atoms: C_6  and  C_23
    3  A    between atoms: C_15  and  S_21
    4  A    between atoms: S_21  and  C_25
                            x       y       z     vdW  Elec       q    Type
                         _______ _______ _______ _____ _____    ______ ____

>  <TORSDO>
F 4

$$$$
=
 OpenBabel11052412483D

 25 28  0  0  0  0  0  0  0  0999 V2000
  187.7670  177.7500  145.5670 C   0  0  0  0  0  0  0  0  0  0  0  0
  187.0510  178.0780  144.3950 C   0  0  0  0  0  0  0  0  0  0  0  0
  185.8110  178.2170  146.9490 C   0  0  0  0  0  3  0  0  0  0  0  0
  189.1070  177.3300  145.6870 C   0  0  0  0  0  0  0  0  0  0  0  0
  191.6960  176.4810  146.3190 C   0  0  0  0  0  3  0  0  0  0  0  0
  185.0930  178.5440  145.7940 C   0  0  0  0  0  3  0  0  0  0  0  0
  189.4820  177.0910  147.0080 C   0  0  0  0  0  0  0  0  0  0  0  0
  190.7640  176.6680  147.3500 C   0  0  0  0  0  3  0  0  0  0  0  0
  184.9440  178.8230  143.3170 C   0  0  0  0  0  0  0  0  0  0  0  0
  183.7390  179.1830  143.3940 O   0  0  0  0  0  0  0  0  0  0  0  0
  187.7020  178.0060  143.0360 C   0  0  0  0  0  2  0  0  0  0  0  0
  191.3340  176.7170  144.9810 C   0  0  0  0  0  3  0  0  0  0  0  0
  187.1360  177.8250  146.8100 C   0  0  0  0  0  0  0  0  0  0  0  0
  188.1920  177.3860  148.0490 S   0  0  0  0  0  0  0  0  0  0  0  0
  185.5780  178.7540  142.0390 N   0  0  0  0  0  0  0  0  0  0  0  0
  190.0360  177.1440  144.6580 C   0  0  0  0  0  3  0  0  0  0  0  0
  186.8180  178.3900  141.8760 C   0  0  0  0  0  0  0  0  0  0  0  0
  185.7020  178.4770  144.5260 C   0  0  0  0  0  0  0  0  0  0  0  0
  187.4050  178.3420  140.5330 C   0  0  0  0  0  3  0  0  0  0  0  0
  188.6400  177.9060  140.3100 C   0  0  0  0  0  3  0  0  0  0  0  0
  189.2930  177.8720  138.6480 S   0  0  0  0  0  0  0  0  0  0  0  0
  190.8090  177.0210  139.1790 C   0  0  0  0  0  2  0  0  0  0  0  0
  191.5640  176.4840  137.9780 C   0  0  0  0  0  3  0  0  0  0  0  0
  193.0460  176.4760  138.2820 C   0  0  0  0  0  1  0  0  0  0  0  0
  191.1130  175.0690  137.6680 C   0  0  0  0  0  1  0  0  0  0  0  0
  1  4  1  0  0  0  0
  1 13  2  0  0  0  0
  2 18  2  0  0  0  0
  2  1  1  0  0  0  0
  4  7  1  0  0  0  0
  5  8  1  0  0  0  0
  6  3  2  0  0  0  0
  7  8  2  0  0  0  0
  7 14  1  0  0  0  0
  9 10  2  0  0  0  0
  9 18  1  0  0  0  0
 11  2  1  0  0  0  0
 12  5  2  0  0  0  0
 13  3  1  0  0  0  0
 13 14  1  0  0  0  0
 15  9  1  0  0  0  0
 16 12  1  0  0  0  0
 16  4  2  0  0  0  0
 17 15  2  0  0  0  0
 17 11  1  0  0  0  0
 18  6  1  0  0  0  0
 19 17  1  0  0  0  0
 20 19  2  0  0  0  0
 21 22  1  0  0  0  0
 21 20  1  0  0  0  0
 23 24  1  0  0  0  0
 23 22  1  0  0  0  0
 25 23  1  0  0  0  0
M  END
>  <MODEL>
7

>  <REMARK>
 VINA RESULT:      -9.3      2.725      4.806
  Name = 
  4 active torsions:
  status: ('A' for Active; 'I' for Inactive)
    1  A    between atoms: C_2  and  C_25
    2  A    between atoms: C_6  and  C_23
    3  A    between atoms: C_15  and  S_21
    4  A    between atoms: S_21  and  C_25
                            x       y       z     vdW  Elec       q    Type
                         _______ _______ _______ _____ _____    ______ ____

>  <TORSDO>
F 4

$$$$
=
 OpenBabel11052412483D

 25 28  0  0  0  0  0  0  0  0999 V2000
  187.9470  177.5890  145.2920 C   0  0  0  0  0  0  0  0  0  0  0  0
  186.6730  177.9260  144.7870 C   0  0  0  0  0  0  0  0  0  0  0  0
  187.2180  178.0600  147.5740 C   0  0  0  0  0  3  0  0  0  0  0  0
  189.0860  177.1610  144.5830 C   0  0  0  0  0  0  0  0  0  0  0  0
  191.5290  176.2960  143.5310 C   0  0  0  0  0  3  0  0  0  0  0  0
  185.9530  178.3960  147.0820 C   0  0  0  0  0  3  0  0  0  0  0  0
  190.1790  176.9150  145.4120 C   0  0  0  0  0  0  0  0  0  0  0  0
  191.4060  176.4830  144.9150 C   0  0  0  0  0  3  0  0  0  0  0  0
  184.3460  178.6870  145.1930 C   0  0  0  0  0  0  0  0  0  0  0  0
  183.4320  179.0530  145.9790 O   0  0  0  0  0  0  0  0  0  0  0  0
  186.3750  177.8560  143.3090 C   0  0  0  0  0  2  0  0  0  0  0  0
  190.4370  176.5400  142.6790 C   0  0  0  0  0  3  0  0  0  0  0  0
  188.1910  177.6610  146.6650 C   0  0  0  0  0  0  0  0  0  0  0  0
  189.7770  177.2120  147.0200 S   0  0  0  0  0  0  0  0  0  0  0  0
  184.0830  178.6200  143.7910 N   0  0  0  0  0  0  0  0  0  0  0  0
  189.2090  176.9750  143.2010 C   0  0  0  0  0  3  0  0  0  0  0  0
  184.9740  178.2510  142.9150 C   0  0  0  0  0  0  0  0  0  0  0  0
  185.6760  178.3320  145.7030 C   0  0  0  0  0  0  0  0  0  0  0  0
  184.6340  178.2060  141.4880 C   0  0  0  0  0  3  0  0  0  0  0  0
  185.4090  178.7490  140.5540 C   0  0  0  0  0  3  0  0  0  0  0  0
  184.9370  178.6560  138.8340 S   0  0  0  0  0  0  0  0  0  0  0  0
  183.5070  179.7510  139.0900 C   0  0  0  0  0  2  0  0  0  0  0  0
  182.3100  179.2500  138.3050 C   0  0  0  0  0  3  0  0  0  0  0  0
  181.7300  178.0370  138.9990 C   0  0  0  0  0  1  0  0  0  0  0  0
  181.2490  180.3310  138.2250 C   0  0  0  0  0  1  0  0  0  0  0  0
  1 13  1  0  0  0  0
  2  1  2  0  0  0  0
  2 18  1  0  0  0  0
  4  1  1  0  0  0  0
  4  7  1  0  0  0  0
  5  8  1  0  0  0  0
  6  3  1  0  0  0  0
  7 14  1  0  0  0  0
  8  7  2  0  0  0  0
  9 18  1  0  0  0  0
  9 10  2  0  0  0  0
 11  2  1  0  0  0  0
 12 16  1  0  0  0  0
 12  5  2  0  0  0  0
 13 14  1  0  0  0  0
 13  3  2  0  0  0  0
 15  9  1  0  0  0  0
 16  4  2  0  0  0  0
 17 11  1  0  0  0  0
 17 15  2  0  0  0  0
 18  6  2  0  0  0  0
 19 17  1  0  0  0  0
 20 19  2  0  0  0  0
 21 22  1  0  0  0  0
 21 20  1  0  0  0  0
 23 24  1  0  0  0  0
 23 22  1  0  0  0  0
 25 23  1  0  0  0  0
M  END
>  <MODEL>
8

>  <REMARK>
 VINA RESULT:      -9.1      3.677      5.739
  Name = 
  4 active torsions:
  status: ('A' for Active; 'I' for Inactive)
    1  A    between atoms: C_2  and  C_25
    2  A    between atoms: C_6  and  C_23
    3  A    between atoms: C_15  and  S_21
    4  A    between atoms: S_21  and  C_25
                            x       y       z     vdW  Elec       q    Type
                         _______ _______ _______ _____ _____    ______ ____

>  <TORSDO>
F 4

$$$$
=
 OpenBabel11052412483D

 25 28  0  0  0  0  0  0  0  0999 V2000
  186.3750  178.2440  144.5830 C   0  0  0  0  0  0  0  0  0  0  0  0
  186.4560  178.3660  143.1800 C   0  0  0  0  0  0  0  0  0  0  0  0
  184.0260  178.9080  144.5510 C   0  0  0  0  0  3  0  0  0  0  0  0
  187.3840  177.8650  145.4910 C   0  0  0  0  0  0  0  0  0  0  0  0
  189.1110  177.1640  147.5770 C   0  0  0  0  0  3  0  0  0  0  0  0
  184.0980  179.0320  143.1600 C   0  0  0  0  0  3  0  0  0  0  0  0
  186.9450  177.8520  146.8140 C   0  0  0  0  0  0  0  0  0  0  0  0
  187.7830  177.5070  147.8700 C   0  0  0  0  0  3  0  0  0  0  0  0
  185.3680  178.8980  141.0140 C   0  0  0  0  0  0  0  0  0  0  0  0
  184.3560  179.2500  140.3510 O   0  0  0  0  0  0  0  0  0  0  0  0
  187.7420  178.0790  142.4440 C   0  0  0  0  0  2  0  0  0  0  0  0
  189.5710  177.1720  146.2470 C   0  0  0  0  0  3  0  0  0  0  0  0
  185.1700  178.5140  145.2360 C   0  0  0  0  0  0  0  0  0  0  0  0
  185.3240  178.2990  146.9000 S   0  0  0  0  0  0  0  0  0  0  0  0
  186.5940  178.6270  140.3350 N   0  0  0  0  0  0  0  0  0  0  0  0
  188.7090  177.5240  145.1970 C   0  0  0  0  0  3  0  0  0  0  0  0
  187.6830  178.2560  140.9470 C   0  0  0  0  0  0  0  0  0  0  0  0
  185.2990  178.7650  142.4750 C   0  0  0  0  0  0  0  0  0  0  0  0
  188.9090  177.9950  140.1850 C   0  0  0  0  0  3  0  0  0  0  0  0
  189.9230  177.2980  140.6860 C   0  0  0  0  0  3  0  0  0  0  0  0
  191.3870  177.0150  139.7020 S   0  0  0  0  0  0  0  0  0  0  0  0
  190.4310  176.2290  138.3700 C   0  0  0  0  0  2  0  0  0  0  0  0
  191.3570  175.7390  137.2720 C   0  0  0  0  0  3  0  0  0  0  0  0
  192.7670  176.2020  137.5640 C   0  0  0  0  0  1  0  0  0  0  0  0
  191.3350  174.2240  137.2090 C   0  0  0  0  0  1  0  0  0  0  0  0
  1 13  2  0  0  0  0
  1  4  1  0  0  0  0
  2  1  1  0  0  0  0
  3 13  1  0  0  0  0
  4  7  1  0  0  0  0
  5  8  1  0  0  0  0
  6  3  2  0  0  0  0
  7 14  1  0  0  0  0
  7  8  2  0  0  0  0
  9 18  1  0  0  0  0
 10  9  2  0  0  0  0
 11  2  1  0  0  0  0
 12  5  2  0  0  0  0
 13 14  1  0  0  0  0
 15 17  2  0  0  0  0
 15  9  1  0  0  0  0
 16  4  2  0  0  0  0
 16 12  1  0  0  0  0
 17 11  1  0  0  0  0
 18  6  1  0  0  0  0
 18  2  2  0  0  0  0
 19 20  2  0  0  0  0
 19 17  1  0  0  0  0
 21 20  1  0  0  0  0
 22 21  1  0  0  0  0
 23 24  1  0  0  0  0
 23 22  1  0  0  0  0
 25 23  1  0  0  0  0
M  END
>  <MODEL>
9

>  <REMARK>
 VINA RESULT:      -9.0      2.810      4.775
  Name = 
  4 active torsions:
  status: ('A' for Active; 'I' for Inactive)
    1  A    between atoms: C_2  and  C_25
    2  A    between atoms: C_6  and  C_23
    3  A    between atoms: C_15  and  S_21
    4  A    between atoms: S_21  and  C_25
                            x       y       z     vdW  Elec       q    Type
                         _______ _______ _______ _____ _____    ______ ____

>  <TORSDO>
F 4

$$$$
