=
 OpenBabel11052414373D

 32 37  0  0  0  0  0  0  0  0999 V2000
  185.6590  178.1880  144.5700 C   0  0  0  0  0  0  0  0  0  0  0  0
  187.9010  177.6920  144.0690 N   0  0  0  0  0  0  0  0  0  0  0  0
  184.7660  178.5030  145.6140 C   0  0  0  0  0  3  0  0  0  0  0  0
  186.9490  177.9040  144.9430 C   0  0  0  0  0  0  0  0  0  0  0  0
  189.0550  177.5750  144.7120 C   0  0  0  0  0  0  0  0  0  0  0  0
  190.0120  177.4860  139.8260 C   0  0  0  0  0  3  0  0  0  0  0  0
  187.7230  177.7470  142.7440 C   0  0  0  0  0  0  0  0  0  0  0  0
  191.3020  177.3150  141.8770 C   0  0  0  0  0  3  0  0  0  0  0  0
  190.1360  177.4490  142.6340 C   0  0  0  0  0  0  0  0  0  0  0  0
  187.4470  177.9370  146.2110 C   0  0  0  0  0  0  0  0  0  0  0  0
  190.2110  177.4550  144.0090 N   0  0  0  0  0  0  0  0  0  0  0  0
  186.5960  178.2510  147.2730 C   0  0  0  0  0  3  0  0  0  0  0  0
  186.4560  177.9940  142.2790 N   0  0  0  0  0  0  0  0  0  0  0  0
  185.4070  178.1950  143.1640 C   0  0  0  0  0  0  0  0  0  0  0  0
  188.8750  177.6040  141.9570 C   0  0  0  0  0  0  0  0  0  0  0  0
  188.8330  177.7050  146.0940 C   0  0  0  0  0  0  0  0  0  0  0  0
  185.2360  178.5240  146.9600 C   0  0  0  0  0  3  0  0  0  0  0  0
  191.2390  177.3310  140.4800 C   0  0  0  0  0  3  0  0  0  0  0  0
  188.8300  177.6240  140.5610 C   0  0  0  0  0  3  0  0  0  0  0  0
  182.5430  178.9920  140.7970 C   0  0  0  0  0  0  0  0  0  0  0  0
  182.3050  179.2120  139.4790 F   0  0  0  0  0  0  0  0  0  0  0  0
  184.0670  178.4910  142.6260 C   0  0  0  0  0  0  0  0  0  0  0  0
  181.4790  179.0470  141.7010 C   0  0  0  0  0  3  0  0  0  0  0  0
  182.9930  178.5650  143.5210 C   0  0  0  0  0  3  0  0  0  0  0  0
  183.8430  178.7230  141.2510 C   0  0  0  0  0  0  0  0  0  0  0  0
  185.1710  178.7510  140.0920 Cl  0  0  0  0  0  0  0  0  0  0  0  0
  181.7050  178.8460  143.0630 C   0  0  0  0  0  0  0  0  0  0  0  0
  179.7580  177.7680  143.8430 O   0  0  0  0  0  1  0  0  0  0  0  0
  180.5670  178.8900  144.0210 C   0  0  0  0  0  2  0  0  0  0  0  0
  189.8580  177.7730  147.1730 C   0  0  0  0  0  2  0  0  0  0  0  0
  190.6480  176.4790  147.2180 C   0  0  0  0  0  2  0  0  0  0  0  0
  191.9980  176.7520  147.0100 O   0  0  0  0  0  1  0  0  0  0  0  0
  1  4  1  0  0  0  0
  1  3  2  0  0  0  0
  2  5  1  0  0  0  0
  2  4  1  0  0  0  0
  3 17  1  0  0  0  0
  4 10  2  0  0  0  0
  5 16  2  0  0  0  0
  6 18  1  0  0  0  0
  6 19  2  0  0  0  0
  7  2  1  0  0  0  0
  8  9  1  0  0  0  0
  9 11  2  0  0  0  0
 10 12  1  0  0  0  0
 11  5  1  0  0  0  0
 13  7  1  0  0  0  0
 13 14  2  0  0  0  0
 14  1  1  0  0  0  0
 15  9  1  0  0  0  0
 15  7  2  0  0  0  0
 16 10  1  0  0  0  0
 16 30  1  0  0  0  0
 17 12  2  0  0  0  0
 18  8  2  0  0  0  0
 19 15  1  0  0  0  0
 20 25  2  0  0  0  0
 20 23  1  0  0  0  0
 21 20  1  0  0  0  0
 22 14  1  0  0  0  0
 22 24  2  0  0  0  0
 23 27  2  0  0  0  0
 25 22  1  0  0  0  0
 26 25  1  0  0  0  0
 27 24  1  0  0  0  0
 27 29  1  0  0  0  0
 28 29  1  0  0  0  0
 30 31  1  0  0  0  0
 32 31  1  0  0  0  0
M  END
>  <MODEL>
1

>  <REMARK>
 VINA RESULT:     -11.2      0.000      0.000
  Name = 
  4 active torsions:
  status: ('A' for Active; 'I' for Inactive)
    1  A    between atoms: C_13  and  C_18
    2  A    between atoms: C_15  and  C_26
    3  A    between atoms: C_16  and  C_27
    4  A    between atoms: C_18  and  C_29
                            x       y       z     vdW  Elec       q    Type
                         _______ _______ _______ _____ _____    ______ ____

>  <TORSDO>
F 4

$$$$
=
 OpenBabel11052414373D

 32 37  0  0  0  0  0  0  0  0999 V2000
  189.6200  177.2140  142.5630 C   0  0  0  0  0  0  0  0  0  0  0  0
  187.9680  177.7780  144.1350 N   0  0  0  0  0  0  0  0  0  0  0  0
  190.9180  176.6830  142.4120 C   0  0  0  0  0  3  0  0  0  0  0  0
  189.1850  177.3870  143.8530 C   0  0  0  0  0  0  0  0  0  0  0  0
  187.7960  177.7300  145.4500 C   0  0  0  0  0  0  0  0  0  0  0  0
  183.4240  178.9110  143.3790 C   0  0  0  0  0  3  0  0  0  0  0  0
  187.0320  178.0270  143.2130 C   0  0  0  0  0  0  0  0  0  0  0  0
  184.2770  178.5930  145.6300 C   0  0  0  0  0  3  0  0  0  0  0  0
  185.5460  178.3080  145.1200 C   0  0  0  0  0  0  0  0  0  0  0  0
  189.8690  177.0600  144.9850 C   0  0  0  0  0  0  0  0  0  0  0  0
  186.5730  177.9890  145.9810 N   0  0  0  0  0  0  0  0  0  0  0  0
  191.1550  176.5260  144.8780 C   0  0  0  0  0  3  0  0  0  0  0  0
  187.3880  177.9110  141.8930 N   0  0  0  0  0  0  0  0  0  0  0  0
  188.6740  177.5290  141.5410 C   0  0  0  0  0  0  0  0  0  0  0  0
  185.7490  178.3290  143.6960 C   0  0  0  0  0  0  0  0  0  0  0  0
  188.9850  177.2920  146.0590 C   0  0  0  0  0  0  0  0  0  0  0  0
  191.6810  176.3510  143.5690 C   0  0  0  0  0  3  0  0  0  0  0  0
  183.2220  178.8950  144.7640 C   0  0  0  0  0  3  0  0  0  0  0  0
  184.6830  178.6260  142.8430 C   0  0  0  0  0  3  0  0  0  0  0  0
  188.5180  177.6590  137.7460 C   0  0  0  0  0  0  0  0  0  0  0  0
  187.7000  178.0750  136.7470 F   0  0  0  0  0  0  0  0  0  0  0  0
  189.0080  177.3820  140.1130 C   0  0  0  0  0  0  0  0  0  0  0  0
  189.7370  177.0570  137.4250 C   0  0  0  0  0  3  0  0  0  0  0  0
  190.2200  176.7670  139.7750 C   0  0  0  0  0  3  0  0  0  0  0  0
  188.1400  177.8180  139.0880 C   0  0  0  0  0  0  0  0  0  0  0  0
  186.5550  178.4990  139.4500 Cl  0  0  0  0  0  0  0  0  0  0  0  0
  190.5820  176.6010  138.4370 C   0  0  0  0  0  0  0  0  0  0  0  0
  191.7280  174.5950  137.9640 O   0  0  0  0  0  1  0  0  0  0  0  0
  191.8870  175.9740  138.0920 C   0  0  0  0  0  2  0  0  0  0  0  0
  189.1980  176.9670  147.4970 C   0  0  0  0  0  2  0  0  0  0  0  0
  189.1040  178.2290  148.3320 C   0  0  0  0  0  2  0  0  0  0  0  0
  187.9650  178.1720  149.1330 O   0  0  0  0  0  1  0  0  0  0  0  0
  1  4  1  0  0  0  0
  2  5  1  0  0  0  0
  3  1  2  0  0  0  0
  3 17  1  0  0  0  0
  4  2  1  0  0  0  0
  4 10  2  0  0  0  0
  5 11  1  0  0  0  0
  5 16  2  0  0  0  0
  6 18  1  0  0  0  0
  7 15  2  0  0  0  0
  7  2  1  0  0  0  0
  9  8  1  0  0  0  0
  9 11  2  0  0  0  0
 10 16  1  0  0  0  0
 12 10  1  0  0  0  0
 13  7  1  0  0  0  0
 14 13  2  0  0  0  0
 14  1  1  0  0  0  0
 15  9  1  0  0  0  0
 16 30  1  0  0  0  0
 17 12  2  0  0  0  0
 18  8  2  0  0  0  0
 19  6  2  0  0  0  0
 19 15  1  0  0  0  0
 20 25  1  0  0  0  0
 21 20  1  0  0  0  0
 22 14  1  0  0  0  0
 23 20  2  0  0  0  0
 23 27  1  0  0  0  0
 24 22  1  0  0  0  0
 25 26  1  0  0  0  0
 25 22  2  0  0  0  0
 27 24  2  0  0  0  0
 28 29  1  0  0  0  0
 29 27  1  0  0  0  0
 30 31  1  0  0  0  0
 31 32  1  0  0  0  0
M  END
>  <MODEL>
2

>  <REMARK>
 VINA RESULT:     -11.2      2.582      6.326
  Name = 
  4 active torsions:
  status: ('A' for Active; 'I' for Inactive)
    1  A    between atoms: C_13  and  C_18
    2  A    between atoms: C_15  and  C_26
    3  A    between atoms: C_16  and  C_27
    4  A    between atoms: C_18  and  C_29
                            x       y       z     vdW  Elec       q    Type
                         _______ _______ _______ _____ _____    ______ ____

>  <TORSDO>
F 4

$$$$
=
 OpenBabel11052414373D

 32 37  0  0  0  0  0  0  0  0999 V2000
  186.8560  178.1390  143.7230 C   0  0  0  0  0  0  0  0  0  0  0  0
  186.7610  178.4200  141.3920 N   0  0  0  0  0  0  0  0  0  0  0  0
  186.0800  178.0940  144.8990 C   0  0  0  0  0  3  0  0  0  0  0  0
  186.1820  178.4410  142.5650 C   0  0  0  0  0  0  0  0  0  0  0  0
  185.8420  178.6230  140.4570 C   0  0  0  0  0  0  0  0  0  0  0  0
  190.1520  177.6210  138.1720 C   0  0  0  0  0  3  0  0  0  0  0  0
  188.0430  178.0900  141.1980 C   0  0  0  0  0  0  0  0  0  0  0  0
  187.8860  178.1720  137.4940 C   0  0  0  0  0  3  0  0  0  0  0  0
  187.4940  178.2540  138.8330 C   0  0  0  0  0  0  0  0  0  0  0  0
  184.8420  178.6600  142.4470 C   0  0  0  0  0  0  0  0  0  0  0  0
  186.1840  178.5400  139.1450 N   0  0  0  0  0  0  0  0  0  0  0  0
  184.0380  178.6180  143.5880 C   0  0  0  0  0  3  0  0  0  0  0  0
  188.8030  177.8030  142.3040 N   0  0  0  0  0  0  0  0  0  0  0  0
  188.2440  177.8420  143.5720 C   0  0  0  0  0  0  0  0  0  0  0  0
  188.4690  178.0120  139.8640 C   0  0  0  0  0  0  0  0  0  0  0  0
  184.5890  178.8010  141.0670 C   0  0  0  0  0  0  0  0  0  0  0  0
  184.6780  178.3420  144.8280 C   0  0  0  0  0  3  0  0  0  0  0  0
  189.2090  177.8600  137.1660 C   0  0  0  0  0  3  0  0  0  0  0  0
  189.7850  177.6940  139.5190 C   0  0  0  0  0  3  0  0  0  0  0  0
  191.0170  176.4180  145.7470 C   0  0  0  0  0  0  0  0  0  0  0  0
  192.1430  175.6680  145.6480 F   0  0  0  0  0  0  0  0  0  0  0  0
  189.0850  177.4940  144.7320 C   0  0  0  0  0  0  0  0  0  0  0  0
  190.6180  176.8880  147.0000 C   0  0  0  0  0  3  0  0  0  0  0  0
  188.6900  177.9460  145.9970 C   0  0  0  0  0  3  0  0  0  0  0  0
  190.2520  176.7080  144.6070 C   0  0  0  0  0  0  0  0  0  0  0  0
  190.7390  176.0200  143.0590 Cl  0  0  0  0  0  0  0  0  0  0  0  0
  189.4500  177.6420  147.1280 C   0  0  0  0  0  0  0  0  0  0  0  0
  187.8140  177.5920  148.8260 O   0  0  0  0  0  1  0  0  0  0  0  0
  189.0370  178.1550  148.4630 C   0  0  0  0  0  2  0  0  0  0  0  0
  183.2640  178.9230  140.3960 C   0  0  0  0  0  2  0  0  0  0  0  0
  182.6390  177.5520  140.2330 C   0  0  0  0  0  2  0  0  0  0  0  0
  183.0470  176.9970  139.0210 O   0  0  0  0  0  1  0  0  0  0  0  0
  1  3  2  0  0  0  0
  2  4  1  0  0  0  0
  4  1  1  0  0  0  0
  5 16  2  0  0  0  0
  5  2  1  0  0  0  0
  6 19  2  0  0  0  0
  7  2  1  0  0  0  0
  7 13  1  0  0  0  0
  8  9  1  0  0  0  0
  9 11  2  0  0  0  0
  9 15  1  0  0  0  0
 10  4  2  0  0  0  0
 10 12  1  0  0  0  0
 11  5  1  0  0  0  0
 12 17  2  0  0  0  0
 13 14  2  0  0  0  0
 14  1  1  0  0  0  0
 14 22  1  0  0  0  0
 15  7  2  0  0  0  0
 16 10  1  0  0  0  0
 17  3  1  0  0  0  0
 18  8  2  0  0  0  0
 18  6  1  0  0  0  0
 19 15  1  0  0  0  0
 20 23  1  0  0  0  0
 21 20  1  0  0  0  0
 22 24  2  0  0  0  0
 23 27  2  0  0  0  0
 24 27  1  0  0  0  0
 25 22  1  0  0  0  0
 25 20  2  0  0  0  0
 26 25  1  0  0  0  0
 27 29  1  0  0  0  0
 29 28  1  0  0  0  0
 30 16  1  0  0  0  0
 31 30  1  0  0  0  0
 32 31  1  0  0  0  0
M  END
>  <MODEL>
3

>  <REMARK>
 VINA RESULT:     -11.0      3.170      6.674
  Name = 
  4 active torsions:
  status: ('A' for Active; 'I' for Inactive)
    1  A    between atoms: C_13  and  C_18
    2  A    between atoms: C_15  and  C_26
    3  A    between atoms: C_16  and  C_27
    4  A    between atoms: C_18  and  C_29
                            x       y       z     vdW  Elec       q    Type
                         _______ _______ _______ _____ _____    ______ ____

>  <TORSDO>
F 4

$$$$
=
 OpenBabel11052414373D

 32 37  0  0  0  0  0  0  0  0999 V2000
  187.2050  178.0330  141.6210 C   0  0  0  0  0  0  0  0  0  0  0  0
  186.7160  178.0400  143.9190 N   0  0  0  0  0  0  0  0  0  0  0  0
  186.7030  178.3670  140.3470 C   0  0  0  0  0  3  0  0  0  0  0  0
  186.3460  178.2170  142.6760 C   0  0  0  0  0  0  0  0  0  0  0  0
  185.7250  178.4150  144.7180 C   0  0  0  0  0  0  0  0  0  0  0  0
  189.6420  177.2670  147.5720 C   0  0  0  0  0  3  0  0  0  0  0  0
  187.9520  177.6840  144.2860 C   0  0  0  0  0  0  0  0  0  0  0  0
  187.3580  178.0100  147.9320 C   0  0  0  0  0  3  0  0  0  0  0  0
  187.1350  178.0260  146.5530 C   0  0  0  0  0  0  0  0  0  0  0  0
  185.0830  178.7240  142.6080 C   0  0  0  0  0  0  0  0  0  0  0  0
  185.9100  178.4230  146.0640 N   0  0  0  0  0  0  0  0  0  0  0  0
  184.5510  179.0730  141.3640 C   0  0  0  0  0  3  0  0  0  0  0  0
  188.8700  177.4480  143.2950 N   0  0  0  0  0  0  0  0  0  0  0  0
  188.5200  177.5920  141.9610 C   0  0  0  0  0  0  0  0  0  0  0  0
  188.2030  177.6480  145.6660 C   0  0  0  0  0  0  0  0  0  0  0  0
  184.6390  178.8490  143.9400 C   0  0  0  0  0  0  0  0  0  0  0  0
  185.3770  178.8770  140.2240 C   0  0  0  0  0  3  0  0  0  0  0  0
  188.6050  177.6300  148.4380 C   0  0  0  0  0  3  0  0  0  0  0  0
  189.4450  177.2770  146.1880 C   0  0  0  0  0  3  0  0  0  0  0  0
  191.8530  177.2380  140.1700 C   0  0  0  0  0  0  0  0  0  0  0  0
  193.1840  177.3400  140.4090 F   0  0  0  0  0  0  0  0  0  0  0  0
  189.5440  177.3610  140.9260 C   0  0  0  0  0  0  0  0  0  0  0  0
  191.4130  176.9020  138.8880 C   0  0  0  0  0  3  0  0  0  0  0  0
  189.1180  177.0380  139.6310 C   0  0  0  0  0  3  0  0  0  0  0  0
  190.9250  177.4780  141.1950 C   0  0  0  0  0  0  0  0  0  0  0  0
  191.5170  177.9880  142.7750 Cl  0  0  0  0  0  0  0  0  0  0  0  0
  190.0480  176.8140  138.6150 C   0  0  0  0  0  0  0  0  0  0  0  0
  189.4910  177.5820  136.4560 O   0  0  0  0  0  1  0  0  0  0  0  0
  189.5840  176.4400  137.2510 C   0  0  0  0  0  2  0  0  0  0  0  0
  183.3760  179.4780  144.4200 C   0  0  0  0  0  2  0  0  0  0  0  0
  182.1880  178.6330  144.0070 C   0  0  0  0  0  2  0  0  0  0  0  0
  181.3670  179.3710  143.1560 O   0  0  0  0  0  1  0  0  0  0  0  0
  1 14  1  0  0  0  0
  1  4  2  0  0  0  0
  2  7  1  0  0  0  0
  2  5  1  0  0  0  0
  3  1  1  0  0  0  0
  4  2  1  0  0  0  0
  5 11  1  0  0  0  0
  6 18  1  0  0  0  0
  7 15  2  0  0  0  0
  8 18  2  0  0  0  0
  9  8  1  0  0  0  0
 10  4  1  0  0  0  0
 10 16  1  0  0  0  0
 11  9  2  0  0  0  0
 12 10  2  0  0  0  0
 13  7  1  0  0  0  0
 14 13  2  0  0  0  0
 15 19  1  0  0  0  0
 15  9  1  0  0  0  0
 16 30  1  0  0  0  0
 16  5  2  0  0  0  0
 17  3  2  0  0  0  0
 17 12  1  0  0  0  0
 19  6  2  0  0  0  0
 20 21  1  0  0  0  0
 20 25  1  0  0  0  0
 22 25  2  0  0  0  0
 22 14  1  0  0  0  0
 23 20  2  0  0  0  0
 24 22  1  0  0  0  0
 25 26  1  0  0  0  0
 27 23  1  0  0  0  0
 27 24  2  0  0  0  0
 28 29  1  0  0  0  0
 29 27  1  0  0  0  0
 31 30  1  0  0  0  0
 32 31  1  0  0  0  0
M  END
>  <MODEL>
4

>  <REMARK>
 VINA RESULT:     -10.7      3.290      7.184
  Name = 
  4 active torsions:
  status: ('A' for Active; 'I' for Inactive)
    1  A    between atoms: C_13  and  C_18
    2  A    between atoms: C_15  and  C_26
    3  A    between atoms: C_16  and  C_27
    4  A    between atoms: C_18  and  C_29
                            x       y       z     vdW  Elec       q    Type
                         _______ _______ _______ _____ _____    ______ ____

>  <TORSDO>
F 4

$$$$
=
 OpenBabel11052414373D

 32 37  0  0  0  0  0  0  0  0999 V2000
  189.4760  177.5430  142.5940 C   0  0  0  0  0  0  0  0  0  0  0  0
  187.7530  177.9290  141.0440 N   0  0  0  0  0  0  0  0  0  0  0  0
  190.8720  177.4110  142.7400 C   0  0  0  0  0  3  0  0  0  0  0  0
  189.0140  177.7000  141.3110 C   0  0  0  0  0  0  0  0  0  0  0  0
  187.6270  178.1660  139.7450 C   0  0  0  0  0  0  0  0  0  0  0  0
  183.1890  178.9190  141.8740 C   0  0  0  0  0  3  0  0  0  0  0  0
  186.8030  178.0510  141.9770 C   0  0  0  0  0  0  0  0  0  0  0  0
  184.1020  179.0110  139.6250 C   0  0  0  0  0  3  0  0  0  0  0  0
  185.3590  178.6440  140.1100 C   0  0  0  0  0  0  0  0  0  0  0  0
  189.7760  177.7780  140.1850 C   0  0  0  0  0  0  0  0  0  0  0  0
  186.4220  178.5370  139.2400 N   0  0  0  0  0  0  0  0  0  0  0  0
  191.1640  177.6600  140.2870 C   0  0  0  0  0  3  0  0  0  0  0  0
  187.1690  177.8780  143.2880 N   0  0  0  0  0  0  0  0  0  0  0  0
  188.4860  177.6020  143.6220 C   0  0  0  0  0  0  0  0  0  0  0  0
  185.5260  178.4080  141.5200 C   0  0  0  0  0  0  0  0  0  0  0  0
  188.8870  178.0680  139.1290 C   0  0  0  0  0  0  0  0  0  0  0  0
  191.7080  177.4610  141.5860 C   0  0  0  0  0  3  0  0  0  0  0  0
  183.0220  179.1460  140.5040 C   0  0  0  0  0  3  0  0  0  0  0  0
  184.4380  178.5530  142.3850 C   0  0  0  0  0  3  0  0  0  0  0  0
  188.3550  177.6380  147.4200 C   0  0  0  0  0  0  0  0  0  0  0  0
  187.5160  177.9660  148.4340 F   0  0  0  0  0  0  0  0  0  0  0  0
  188.8460  177.4550  145.0440 C   0  0  0  0  0  0  0  0  0  0  0  0
  189.6250  177.1380  147.7190 C   0  0  0  0  0  3  0  0  0  0  0  0
  190.1210  176.9700  145.3590 C   0  0  0  0  0  3  0  0  0  0  0  0
  187.9590  177.8080  146.0850 C   0  0  0  0  0  0  0  0  0  0  0  0
  186.3840  178.5250  145.7500 Cl  0  0  0  0  0  0  0  0  0  0  0  0
  190.5120  176.8160  146.6900 C   0  0  0  0  0  0  0  0  0  0  0  0
  192.2730  176.7430  148.2570 O   0  0  0  0  0  1  0  0  0  0  0  0
  191.8580  176.2690  147.0130 C   0  0  0  0  0  2  0  0  0  0  0  0
  189.2300  178.3860  137.7140 C   0  0  0  0  0  2  0  0  0  0  0  0
  189.4860  177.1050  136.9440 C   0  0  0  0  0  2  0  0  0  0  0  0
  188.2730  176.4700  136.6830 O   0  0  0  0  0  1  0  0  0  0  0  0
  1  3  1  0  0  0  0
  1 14  1  0  0  0  0
  2  4  1  0  0  0  0
  2  7  1  0  0  0  0
  4  1  2  0  0  0  0
  5  2  1  0  0  0  0
  6 19  2  0  0  0  0
  7 13  1  0  0  0  0
  8  9  1  0  0  0  0
  8 18  2  0  0  0  0
  9 15  1  0  0  0  0
 10 12  2  0  0  0  0
 10  4  1  0  0  0  0
 11  5  1  0  0  0  0
 11  9  2  0  0  0  0
 12 17  1  0  0  0  0
 13 14  2  0  0  0  0
 14 22  1  0  0  0  0
 15  7  2  0  0  0  0
 15 19  1  0  0  0  0
 16  5  2  0  0  0  0
 16 10  1  0  0  0  0
 17  3  2  0  0  0  0
 18  6  1  0  0  0  0
 20 23  1  0  0  0  0
 20 21  1  0  0  0  0
 22 24  2  0  0  0  0
 22 25  1  0  0  0  0
 24 27  1  0  0  0  0
 25 20  2  0  0  0  0
 26 25  1  0  0  0  0
 27 29  1  0  0  0  0
 27 23  2  0  0  0  0
 29 28  1  0  0  0  0
 30 16  1  0  0  0  0
 31 30  1  0  0  0  0
 32 31  1  0  0  0  0
M  END
>  <MODEL>
5

>  <REMARK>
 VINA RESULT:     -10.5      3.277      7.587
  Name = 
  4 active torsions:
  status: ('A' for Active; 'I' for Inactive)
    1  A    between atoms: C_13  and  C_18
    2  A    between atoms: C_15  and  C_26
    3  A    between atoms: C_16  and  C_27
    4  A    between atoms: C_18  and  C_29
                            x       y       z     vdW  Elec       q    Type
                         _______ _______ _______ _____ _____    ______ ____

>  <TORSDO>
F 4

$$$$
=
 OpenBabel11052414373D

 32 37  0  0  0  0  0  0  0  0999 V2000
  187.7170  177.8790  141.6710 C   0  0  0  0  0  0  0  0  0  0  0  0
  188.0930  177.5540  143.9670 N   0  0  0  0  0  0  0  0  0  0  0  0
  186.8240  178.4260  140.7260 C   0  0  0  0  0  3  0  0  0  0  0  0
  187.3180  177.9350  142.9830 C   0  0  0  0  0  0  0  0  0  0  0  0
  187.4980  177.8430  145.1170 C   0  0  0  0  0  0  0  0  0  0  0  0
  192.0510  176.1080  146.1460 C   0  0  0  0  0  3  0  0  0  0  0  0
  189.3380  177.0950  143.8020 C   0  0  0  0  0  0  0  0  0  0  0  0
  190.1320  176.8830  147.4180 C   0  0  0  0  0  3  0  0  0  0  0  0
  189.4290  177.1190  146.2340 C   0  0  0  0  0  0  0  0  0  0  0  0
  186.1700  178.4990  143.4520 C   0  0  0  0  0  0  0  0  0  0  0  0
  188.1550  177.6380  146.2880 N   0  0  0  0  0  0  0  0  0  0  0  0
  185.2620  179.0570  142.5500 C   0  0  0  0  0  3  0  0  0  0  0  0
  189.8100  176.9750  142.5190 N   0  0  0  0  0  0  0  0  0  0  0  0
  189.0180  177.3360  141.4400 C   0  0  0  0  0  0  0  0  0  0  0  0
  190.0650  176.8370  144.9740 C   0  0  0  0  0  0  0  0  0  0  0  0
  186.2500  178.4370  144.8590 C   0  0  0  0  0  0  0  0  0  0  0  0
  185.5980  179.0030  141.1690 C   0  0  0  0  0  3  0  0  0  0  0  0
  191.4350  176.3780  147.3730 C   0  0  0  0  0  3  0  0  0  0  0  0
  191.3700  176.3390  144.9460 C   0  0  0  0  0  3  0  0  0  0  0  0
  191.4310  177.1200  138.5120 C   0  0  0  0  0  0  0  0  0  0  0  0
  192.7630  177.1280  138.2520 F   0  0  0  0  0  0  0  0  0  0  0  0
  189.5730  177.2240  140.0790 C   0  0  0  0  0  0  0  0  0  0  0  0
  190.5290  177.0040  137.4530 C   0  0  0  0  0  3  0  0  0  0  0  0
  188.6800  177.1230  139.0050 C   0  0  0  0  0  3  0  0  0  0  0  0
  190.9630  177.2390  139.8300 C   0  0  0  0  0  0  0  0  0  0  0  0
  192.1300  177.4750  141.1290 Cl  0  0  0  0  0  0  0  0  0  0  0  0
  189.1550  177.0170  137.6960 C   0  0  0  0  0  0  0  0  0  0  0  0
  187.1360  177.7670  136.7350 O   0  0  0  0  0  1  0  0  0  0  0  0
  188.1970  176.8780  136.5660 C   0  0  0  0  0  2  0  0  0  0  0  0
  185.3120  179.0380  145.8490 C   0  0  0  0  0  2  0  0  0  0  0  0
  183.9300  178.4370  145.6820 C   0  0  0  0  0  2  0  0  0  0  0  0
  183.0810  179.3780  145.1030 O   0  0  0  0  0  1  0  0  0  0  0  0
  1  4  2  0  0  0  0
  2  5  1  0  0  0  0
  3 17  2  0  0  0  0
  3  1  1  0  0  0  0
  4 10  1  0  0  0  0
  4  2  1  0  0  0  0
  5 11  1  0  0  0  0
  6 18  1  0  0  0  0
  7  2  1  0  0  0  0
  7 15  2  0  0  0  0
  9 11  2  0  0  0  0
  9  8  1  0  0  0  0
 10 16  1  0  0  0  0
 12 10  2  0  0  0  0
 13  7  1  0  0  0  0
 14  1  1  0  0  0  0
 14 13  2  0  0  0  0
 15  9  1  0  0  0  0
 16  5  2  0  0  0  0
 16 30  1  0  0  0  0
 17 12  1  0  0  0  0
 18  8  2  0  0  0  0
 19 15  1  0  0  0  0
 19  6  2  0  0  0  0
 20 25  1  0  0  0  0
 21 20  1  0  0  0  0
 22 14  1  0  0  0  0
 23 27  1  0  0  0  0
 23 20  2  0  0  0  0
 24 22  1  0  0  0  0
 25 22  2  0  0  0  0
 25 26  1  0  0  0  0
 27 24  2  0  0  0  0
 29 28  1  0  0  0  0
 29 27  1  0  0  0  0
 31 30  1  0  0  0  0
 32 31  1  0  0  0  0
M  END
>  <MODEL>
6

>  <REMARK>
 VINA RESULT:     -10.2      3.366      6.442
  Name = 
  4 active torsions:
  status: ('A' for Active; 'I' for Inactive)
    1  A    between atoms: C_13  and  C_18
    2  A    between atoms: C_15  and  C_26
    3  A    between atoms: C_16  and  C_27
    4  A    between atoms: C_18  and  C_29
                            x       y       z     vdW  Elec       q    Type
                         _______ _______ _______ _____ _____    ______ ____

>  <TORSDO>
F 4

$$$$
=
 OpenBabel11052414373D

 32 37  0  0  0  0  0  0  0  0999 V2000
  187.1300  178.2540  141.4640 C   0  0  0  0  0  0  0  0  0  0  0  0
  189.1610  177.7490  142.5310 N   0  0  0  0  0  0  0  0  0  0  0  0
  186.5090  178.4120  140.2090 C   0  0  0  0  0  3  0  0  0  0  0  0
  188.4800  178.0110  141.4440 C   0  0  0  0  0  0  0  0  0  0  0  0
  190.4040  177.4300  142.1920 C   0  0  0  0  0  0  0  0  0  0  0  0
  189.9380  176.7520  147.1040 C   0  0  0  0  0  3  0  0  0  0  0  0
  188.6180  177.6720  143.7510 C   0  0  0  0  0  0  0  0  0  0  0  0
  191.7080  176.5320  145.4550 C   0  0  0  0  0  3  0  0  0  0  0  0
  190.8350  176.9460  144.4470 C   0  0  0  0  0  0  0  0  0  0  0  0
  189.2580  177.8730  140.3340 C   0  0  0  0  0  0  0  0  0  0  0  0
  191.2780  177.0130  143.1440 N   0  0  0  0  0  0  0  0  0  0  0  0
  188.6790  178.0160  139.0710 C   0  0  0  0  0  3  0  0  0  0  0  0
  187.2770  177.9320  143.8710 N   0  0  0  0  0  0  0  0  0  0  0  0
  186.5170  178.2460  142.7540 C   0  0  0  0  0  0  0  0  0  0  0  0
  189.4750  177.2710  144.7870 C   0  0  0  0  0  0  0  0  0  0  0  0
  190.5390  177.5070  140.7950 C   0  0  0  0  0  0  0  0  0  0  0  0
  187.2870  178.3020  139.0200 C   0  0  0  0  0  3  0  0  0  0  0  0
  191.2620  176.4380  146.7770 C   0  0  0  0  0  3  0  0  0  0  0  0
  189.0430  177.1660  146.1120 C   0  0  0  0  0  3  0  0  0  0  0  0
  183.1130  178.9970  144.2690 C   0  0  0  0  0  0  0  0  0  0  0  0
  182.5410  179.2770  145.4670 F   0  0  0  0  0  0  0  0  0  0  0  0
  185.0720  178.4850  142.9190 C   0  0  0  0  0  0  0  0  0  0  0  0
  182.3110  178.9260  143.1290 C   0  0  0  0  0  3  0  0  0  0  0  0
  184.2520  178.4020  141.7880 C   0  0  0  0  0  3  0  0  0  0  0  0
  184.4950  178.7700  144.1770 C   0  0  0  0  0  0  0  0  0  0  0  0
  185.4590  178.7800  145.6520 Cl  0  0  0  0  0  0  0  0  0  0  0  0
  182.8760  178.6170  141.8910 C   0  0  0  0  0  0  0  0  0  0  0  0
  180.9110  179.3860  140.8390 O   0  0  0  0  0  1  0  0  0  0  0  0
  182.0200  178.5570  140.6750 C   0  0  0  0  0  2  0  0  0  0  0  0
  191.7180  177.1060  139.9770 C   0  0  0  0  0  2  0  0  0  0  0  0
  191.2600  176.6010  138.6230 C   0  0  0  0  0  2  0  0  0  0  0  0
  190.9290  175.2500  138.7190 O   0  0  0  0  0  1  0  0  0  0  0  0
  1 14  1  0  0  0  0
  2  7  1  0  0  0  0
  3  1  1  0  0  0  0
  4  1  2  0  0  0  0
  4  2  1  0  0  0  0
  5  2  1  0  0  0  0
  5 11  1  0  0  0  0
  7 13  1  0  0  0  0
  7 15  2  0  0  0  0
  8 18  2  0  0  0  0
  9 15  1  0  0  0  0
  9  8  1  0  0  0  0
 10 16  1  0  0  0  0
 10  4  1  0  0  0  0
 11  9  2  0  0  0  0
 12 10  2  0  0  0  0
 14 22  1  0  0  0  0
 14 13  2  0  0  0  0
 15 19  1  0  0  0  0
 16  5  2  0  0  0  0
 17 12  1  0  0  0  0
 17  3  2  0  0  0  0
 18  6  1  0  0  0  0
 19  6  2  0  0  0  0
 20 21  1  0  0  0  0
 22 25  2  0  0  0  0
 23 20  2  0  0  0  0
 24 27  2  0  0  0  0
 24 22  1  0  0  0  0
 25 20  1  0  0  0  0
 25 26  1  0  0  0  0
 27 23  1  0  0  0  0
 29 28  1  0  0  0  0
 29 27  1  0  0  0  0
 30 16  1  0  0  0  0
 31 32  1  0  0  0  0
 31 30  1  0  0  0  0
M  END
>  <MODEL>
7

>  <REMARK>
 VINA RESULT:     -10.1      2.514      4.894
  Name = 
  4 active torsions:
  status: ('A' for Active; 'I' for Inactive)
    1  A    between atoms: C_13  and  C_18
    2  A    between atoms: C_15  and  C_26
    3  A    between atoms: C_16  and  C_27
    4  A    between atoms: C_18  and  C_29
                            x       y       z     vdW  Elec       q    Type
                         _______ _______ _______ _____ _____    ______ ____

>  <TORSDO>
F 4

$$$$
=
 OpenBabel11052414373D

 32 37  0  0  0  0  0  0  0  0999 V2000
  185.6950  178.5460  139.6160 C   0  0  0  0  0  0  0  0  0  0  0  0
  186.5820  178.4430  141.7900 N   0  0  0  0  0  0  0  0  0  0  0  0
  185.9960  178.3640  138.2510 C   0  0  0  0  0  3  0  0  0  0  0  0
  186.7420  178.3970  140.4910 C   0  0  0  0  0  0  0  0  0  0  0  0
  187.7340  178.1380  142.3740 C   0  0  0  0  0  0  0  0  0  0  0  0
  184.2850  178.5980  145.9370 C   0  0  0  0  0  3  0  0  0  0  0  0
  185.4000  178.6170  142.3900 C   0  0  0  0  0  0  0  0  0  0  0  0
  186.6640  178.1180  145.8400 C   0  0  0  0  0  3  0  0  0  0  0  0
  186.6390  178.2240  144.4470 C   0  0  0  0  0  0  0  0  0  0  0  0
  188.0210  178.0550  140.1660 C   0  0  0  0  0  0  0  0  0  0  0  0
  187.7930  178.0150  143.7250 N   0  0  0  0  0  0  0  0  0  0  0  0
  188.3580  177.8590  138.8250 C   0  0  0  0  0  3  0  0  0  0  0  0
  184.3000  178.8070  141.5920 N   0  0  0  0  0  0  0  0  0  0  0  0
  184.4210  178.7990  140.2110 C   0  0  0  0  0  0  0  0  0  0  0  0
  185.3950  178.5280  143.7900 C   0  0  0  0  0  0  0  0  0  0  0  0
  188.7060  177.8940  141.3890 C   0  0  0  0  0  0  0  0  0  0  0  0
  187.3260  178.0310  137.8620 C   0  0  0  0  0  3  0  0  0  0  0  0
  185.4930  178.3070  146.5810 C   0  0  0  0  0  3  0  0  0  0  0  0
  184.2330  178.7070  144.5440 C   0  0  0  0  0  3  0  0  0  0  0  0
  181.2760  178.1070  138.1920 C   0  0  0  0  0  0  0  0  0  0  0  0
  180.5040  177.0700  137.7820 F   0  0  0  0  0  0  0  0  0  0  0  0
  183.2110  178.9720  139.3870 C   0  0  0  0  0  0  0  0  0  0  0  0
  180.9250  179.4080  137.8230 C   0  0  0  0  0  3  0  0  0  0  0  0
  182.8540  180.2690  138.9970 C   0  0  0  0  0  3  0  0  0  0  0  0
  182.4230  177.8780  138.9670 C   0  0  0  0  0  0  0  0  0  0  0  0
  182.8830  176.2170  139.3350 Cl  0  0  0  0  0  0  0  0  0  0  0  0
  181.7180  180.4870  138.2150 C   0  0  0  0  0  0  0  0  0  0  0  0
  180.6980  181.8590  136.5910 O   0  0  0  0  0  1  0  0  0  0  0  0
  181.3320  181.8720  137.8330 C   0  0  0  0  0  2  0  0  0  0  0  0
  190.0940  177.3930  141.5910 C   0  0  0  0  0  2  0  0  0  0  0  0
  190.0650  176.0750  142.3390 C   0  0  0  0  0  2  0  0  0  0  0  0
  190.8620  176.1700  143.4790 O   0  0  0  0  0  1  0  0  0  0  0  0
  1 14  1  0  0  0  0
  1  4  2  0  0  0  0
  2  5  1  0  0  0  0
  2  7  1  0  0  0  0
  3  1  1  0  0  0  0
  4  2  1  0  0  0  0
  5 11  1  0  0  0  0
  6 18  1  0  0  0  0
  7 15  2  0  0  0  0
  8 18  2  0  0  0  0
  9  8  1  0  0  0  0
 10  4  1  0  0  0  0
 10 16  1  0  0  0  0
 11  9  2  0  0  0  0
 12 10  2  0  0  0  0
 13  7  1  0  0  0  0
 14 13  2  0  0  0  0
 15  9  1  0  0  0  0
 15 19  1  0  0  0  0
 16 30  1  0  0  0  0
 16  5  2  0  0  0  0
 17  3  2  0  0  0  0
 17 12  1  0  0  0  0
 19  6  2  0  0  0  0
 20 25  1  0  0  0  0
 21 20  1  0  0  0  0
 22 14  1  0  0  0  0
 23 20  2  0  0  0  0
 23 27  1  0  0  0  0
 24 22  1  0  0  0  0
 25 26  1  0  0  0  0
 25 22  2  0  0  0  0
 27 24  2  0  0  0  0
 28 29  1  0  0  0  0
 29 27  1  0  0  0  0
 30 31  1  0  0  0  0
 31 32  1  0  0  0  0
M  END
>  <MODEL>
8

>  <REMARK>
 VINA RESULT:      -9.9      2.642      5.363
  Name = 
  4 active torsions:
  status: ('A' for Active; 'I' for Inactive)
    1  A    between atoms: C_13  and  C_18
    2  A    between atoms: C_15  and  C_26
    3  A    between atoms: C_16  and  C_27
    4  A    between atoms: C_18  and  C_29
                            x       y       z     vdW  Elec       q    Type
                         _______ _______ _______ _____ _____    ______ ____

>  <TORSDO>
F 4

$$$$
=
 OpenBabel11052414373D

 32 37  0  0  0  0  0  0  0  0999 V2000
  186.4230  178.1810  144.5950 C   0  0  0  0  0  0  0  0  0  0  0  0
  185.1940  178.6920  142.6590 N   0  0  0  0  0  0  0  0  0  0  0  0
  186.3340  178.0110  145.9910 C   0  0  0  0  0  3  0  0  0  0  0  0
  185.2770  178.5900  143.9610 C   0  0  0  0  0  0  0  0  0  0  0  0
  183.9410  178.9770  142.3290 C   0  0  0  0  0  0  0  0  0  0  0  0
  186.5000  178.2530  138.1190 C   0  0  0  0  0  3  0  0  0  0  0  0
  186.1950  178.3960  141.8220 C   0  0  0  0  0  0  0  0  0  0  0  0
  184.2210  178.8450  138.7160 C   0  0  0  0  0  3  0  0  0  0  0  0
  184.5510  178.7890  140.0720 C   0  0  0  0  0  0  0  0  0  0  0  0
  184.0650  178.8050  144.5470 C   0  0  0  0  0  0  0  0  0  0  0  0
  183.5810  179.0290  141.0210 N   0  0  0  0  0  0  0  0  0  0  0  0
  183.9340  178.6410  145.9280 C   0  0  0  0  0  3  0  0  0  0  0  0
  187.3920  178.0080  142.3700 N   0  0  0  0  0  0  0  0  0  0  0  0
  187.5400  177.9140  143.7450 C   0  0  0  0  0  0  0  0  0  0  0  0
  185.8980  178.4550  140.4530 C   0  0  0  0  0  0  0  0  0  0  0  0
  183.1660  179.0810  143.4970 C   0  0  0  0  0  0  0  0  0  0  0  0
  185.0940  178.2500  146.6520 C   0  0  0  0  0  3  0  0  0  0  0  0
  185.1920  178.5810  137.7450 C   0  0  0  0  0  3  0  0  0  0  0  0
  186.8550  178.1870  139.4700 C   0  0  0  0  0  3  0  0  0  0  0  0
  191.0630  176.5230  144.0550 C   0  0  0  0  0  0  0  0  0  0  0  0
  192.0580  176.0130  143.2860 F   0  0  0  0  0  0  0  0  0  0  0  0
  188.8310  177.4620  144.2940 C   0  0  0  0  0  0  0  0  0  0  0  0
  191.2530  176.6290  145.4350 C   0  0  0  0  0  3  0  0  0  0  0  0
  189.0310  177.5470  145.6770 C   0  0  0  0  0  3  0  0  0  0  0  0
  189.8520  176.9290  143.4760 C   0  0  0  0  0  0  0  0  0  0  0  0
  189.6170  176.6960  141.7450 Cl  0  0  0  0  0  0  0  0  0  0  0  0
  190.2350  177.1290  146.2470 C   0  0  0  0  0  0  0  0  0  0  0  0
  191.7990  177.0830  148.0120 O   0  0  0  0  0  1  0  0  0  0  0  0
  190.4470  177.2550  147.7150 C   0  0  0  0  0  2  0  0  0  0  0  0
  181.6880  179.2550  143.5900 C   0  0  0  0  0  2  0  0  0  0  0  0
  181.0180  177.9070  143.7640 C   0  0  0  0  0  2  0  0  0  0  0  0
  179.6970  178.0930  144.1650 O   0  0  0  0  0  1  0  0  0  0  0  0
  1  3  2  0  0  0  0
  2  4  1  0  0  0  0
  3 17  1  0  0  0  0
  4 10  2  0  0  0  0
  4  1  1  0  0  0  0
  5  2  1  0  0  0  0
  5 16  2  0  0  0  0
  6 19  2  0  0  0  0
  7 13  1  0  0  0  0
  7  2  1  0  0  0  0
  8  9  1  0  0  0  0
  9 15  1  0  0  0  0
  9 11  2  0  0  0  0
 10 12  1  0  0  0  0
 11  5  1  0  0  0  0
 12 17  2  0  0  0  0
 13 14  2  0  0  0  0
 14 22  1  0  0  0  0
 14  1  1  0  0  0  0
 15  7  2  0  0  0  0
 16 30  1  0  0  0  0
 16 10  1  0  0  0  0
 18  6  1  0  0  0  0
 18  8  2  0  0  0  0
 19 15  1  0  0  0  0
 20 23  1  0  0  0  0
 21 20  1  0  0  0  0
 22 24  2  0  0  0  0
 23 27  2  0  0  0  0
 24 27  1  0  0  0  0
 25 20  2  0  0  0  0
 25 22  1  0  0  0  0
 26 25  1  0  0  0  0
 27 29  1  0  0  0  0
 29 28  1  0  0  0  0
 30 31  1  0  0  0  0
 31 32  1  0  0  0  0
M  END
>  <MODEL>
9

>  <REMARK>
 VINA RESULT:      -9.9      2.674      6.934
  Name = 
  4 active torsions:
  status: ('A' for Active; 'I' for Inactive)
    1  A    between atoms: C_13  and  C_18
    2  A    between atoms: C_15  and  C_26
    3  A    between atoms: C_16  and  C_27
    4  A    between atoms: C_18  and  C_29
                            x       y       z     vdW  Elec       q    Type
                         _______ _______ _______ _____ _____    ______ ____

>  <TORSDO>
F 4

$$$$
