=
 OpenBabel11052414543D

 55 62  0  0  1  0  0  0  0  0999 V2000
  190.8210  176.8680  139.9250 C   0  0  0  0  0  2  0  0  0  0  0  0
  187.4480  177.0040  139.0530 C   0  0  0  0  0  2  0  0  0  0  0  0
  186.4660  178.3470  137.3070 C   0  0  0  0  0  2  0  0  0  0  0  0
  186.6820  175.7860  134.8130 C   0  0  0  0  0  3  0  0  0  0  0  0
  186.6450  174.3940  134.5940 C   0  0  0  0  0  3  0  0  0  0  0  0
  189.0640  175.6610  135.2670 C   0  0  0  0  0  0  0  0  0  0  0  0
  189.0200  174.2760  135.0200 C   0  0  0  0  0  3  0  0  0  0  0  0
  186.7820  178.6620  135.8380 C   0  0  0  0  0  2  0  0  0  0  0  0
  187.8240  173.6600  134.6740 C   0  0  0  0  0  3  0  0  0  0  0  0
  191.7250  177.5310  142.1370 C   0  0  0  0  0  2  0  0  0  0  0  0
  187.8860  176.4470  135.1330 C   0  0  0  0  0  0  0  0  0  0  0  0
  188.8800  178.2340  142.3150 C   0  0  1  0  0  3  0  0  0  0  0  0
  190.3240  175.6660  139.1300 C   0  0  0  0  0  2  0  0  0  0  0  0
  189.2830  176.7900  141.9900 C   0  0  0  0  0  2  0  0  0  0  0  0
  190.4840  176.7650  136.8950 O   0  0  0  0  0  0  0  0  0  0  0  0
  186.2700  178.8750  139.9960 O   0  0  0  0  0  0  0  0  0  0  0  0
  190.3970  176.2850  135.5640 C   0  0  0  0  0  2  0  0  0  0  0  0
  187.5420  178.3880  139.6690 C   0  0  2  0  0  3  0  0  0  0  0  0
  187.7320  178.1910  138.1520 C   0  0  1  0  0  3  0  0  0  0  0  0
  191.1840  178.1920  143.3860 C   0  0  0  0  0  2  0  0  0  0  0  0
  185.9310  178.4570  141.2940 C   0  0  1  0  0  3  0  0  0  0  0  0
  190.7040  176.6300  141.4180 C   0  0  1  0  0  3  0  0  0  0  0  0
  187.9980  177.9370  135.2270 C   0  0  0  0  0  2  0  0  0  0  0  0
  190.8210  175.6720  137.6810 C   0  0  1  0  0  3  0  0  0  0  0  0
  186.8000  179.1730  142.3610 C   0  0  0  0  0  2  0  0  0  0  0  0
  187.6400  178.2760  143.0230 O   0  0  0  0  0  0  0  0  0  0  0  0
  189.9480  179.0430  143.0820 C   0  0  0  0  0  2  0  0  0  0  0  0
  193.1910  176.4470  137.5630 C   0  0  0  0  0  2  0  0  0  0  0  0
  195.0150  174.8260  137.6140 C   0  0  2  0  0  3  0  0  0  0  0  0
  192.6840  173.9570  137.4970 C   0  0  0  0  0  3  0  0  0  0  0  0
  194.0100  173.6450  137.5020 C   0  0  0  0  0  3  0  0  0  0  0  0
  194.5080  176.0720  136.9020 C   0  0  0  0  0  2  0  0  0  0  0  0
  192.3040  175.2600  137.5000 N   0  0  0  0  0  0  0  0  0  0  0  0
  196.4350  174.4740  137.1150 C   0  0  0  0  0  0  0  0  0  0  0  0
  197.4050  174.9820  137.7070 O   0  0  0  0  0  1  0  0  0  0  0  0
  196.5930  173.8460  135.9240 O   0  0  0  0  0  0  0  0  0  0  0  0
  184.5570  178.5600  141.5610 O   0  0  0  0  0  0  0  0  0  0  0  0
  183.9980  177.6500  140.6460 C   0  0  0  0  0  2  0  0  0  0  0  0
  183.2700  179.3760  138.9940 C   0  0  0  0  0  1  0  0  0  0  0  0
  182.7520  178.1870  139.8820 C   0  0  2  0  0  0  0  0  0  0  0  0
  181.2570  180.1120  140.3370 O   0  0  0  0  0  1  0  0  0  0  0  0
  181.7880  178.9160  140.8670 C   0  0  2  0  0  0  0  0  0  0  0  0
  181.3910  179.1160  142.1570 O   0  0  0  0  0  0  0  0  0  0  0  0
  180.7510  177.9980  141.5960 C   0  0  2  0  0  3  0  0  0  0  0  0
  180.4510  176.9340  140.4010 C   0  0  0  0  0  2  0  0  0  0  0  0
  179.1530  176.5390  140.1270 O   0  0  0  0  0  0  0  0  0  0  0  0
  178.9330  177.0640  138.9070 O   0  0  0  0  0  1  0  0  0  0  0  0
  182.3740  177.2450  138.7300 C   0  0  0  0  0  2  0  0  0  0  0  0
  182.8810  175.0620  135.0270 C   0  0  0  0  0  2  0  0  0  0  0  0
  183.2470  176.6190  137.6070 C   0  0  2  0  0  3  0  0  0  0  0  0
  183.8020  174.0670  137.5910 C   0  0  0  0  0  2  0  0  0  0  0  0
  183.8920  174.8250  136.2470 C   0  0  2  0  0  3  0  0  0  0  0  0
  182.8310  177.2990  136.2190 C   0  0  0  0  0  2  0  0  0  0  0  0
  182.8870  175.2240  137.3770 C   0  0  2  0  0  3  0  0  0  0  0  0
  182.8450  176.5260  134.8430 C   0  0  0  0  0  2  0  0  0  0  0  0
  4 11  1  0  0  0  0
  5  9  1  0  0  0  0
  5  4  2  0  0  0  0
  6 17  1  0  0  0  0
  7  6  1  0  0  0  0
  8  3  1  0  0  0  0
  9  7  2  0  0  0  0
 10 20  1  0  0  0  0
 11 23  1  0  0  0  0
 11  6  2  0  0  0  0
 12 14  1  1  0  0  0
 12 26  1  0  0  0  0
 12 27  1  0  0  0  0
 13  1  1  0  0  0  0
 15 24  1  0  0  0  0
 16 21  1  0  0  0  0
 17 15  1  0  0  0  0
 18  2  1  1  0  0  0
 18 16  1  0  0  0  0
 19  3  1  6  0  0  0
 19  2  1  0  0  0  0
 19 18  1  0  0  0  0
 21 37  1  1  0  0  0
 21 25  1  0  0  0  0
 22  1  1  6  0  0  0
 22 14  1  0  0  0  0
 22 10  1  0  0  0  0
 23  8  1  0  0  0  0
 24 33  1  1  0  0  0
 24 13  1  0  0  0  0
 25 26  1  0  0  0  0
 27 20  1  0  0  0  0
 29 34  1  6  0  0  0
 30 33  1  0  0  0  0
 30 31  2  0  0  0  0
 31 29  1  0  0  0  0
 32 28  1  0  0  0  0
 32 29  1  0  0  0  0
 33 28  1  0  0  0  0
 34 35  1  0  0  0  0
 36 34  2  0  0  0  0
 38 37  1  0  0  0  0
 40 39  1  6  0  0  0
 40 38  1  0  0  0  0
 40 42  1  0  0  0  0
 42 41  1  6  0  0  0
 42 44  1  0  0  0  0
 42 43  1  0  0  0  0
 44 45  1  1  0  0  0
 44 43  1  0  0  0  0
 46 45  1  0  0  0  0
 47 46  1  0  0  0  0
 48 40  1  0  0  0  0
 50 48  1  1  0  0  0
 52 49  1  6  0  0  0
 52 54  1  0  0  0  0
 52 51  1  0  0  0  0
 53 50  1  0  0  0  0
 54 51  1  1  0  0  0
 54 50  1  0  0  0  0
 55 49  1  0  0  0  0
 55 53  1  0  0  0  0
M  END
>  <MODEL>
1

>  <REMARK>
 VINA RESULT:      -5.6      0.000      0.000
  Name = 
  10 active torsions:
  status: ('A' for Active; 'I' for Inactive)
    1  A    between atoms: O_1  and  C_53
    2  A    between atoms: C_6  and  C_20
    3  A    between atoms: O_8  and  C_22
    4  A    between atoms: O_8  and  C_43
    5  A    between atoms: C_10  and  C_32
    6  A    between atoms: C_12  and  C_42
    7  A    between atoms: C_20  and  C_22
    8  A    between atoms: C_20  and  C_42
    9  A    between atoms: C_46  and  C_53
   10  A    between atoms: C_49  and  N_52
                            x       y       z     vdW  Elec       q    Type
                         _______ _______ _______ _____ _____    ______ ____

>  <TORSDO>
F 10

$$$$
=
 OpenBabel11052414543D

 55 62  0  0  1  0  0  0  0  0999 V2000
  185.9270  178.3270  142.1990 C   0  0  0  0  0  2  0  0  0  0  0  0
  185.5190  177.6770  138.7980 C   0  0  0  0  0  2  0  0  0  0  0  0
  186.4380  178.9530  136.9690 C   0  0  0  0  0  2  0  0  0  0  0  0
  189.3950  176.9520  136.6750 C   0  0  0  0  0  3  0  0  0  0  0  0
  189.9180  175.6520  136.8240 C   0  0  0  0  0  3  0  0  0  0  0  0
  189.8360  177.4090  139.0190 C   0  0  0  0  0  0  0  0  0  0  0  0
  190.3800  176.1170  139.1490 C   0  0  0  0  0  3  0  0  0  0  0  0
  187.8030  179.5600  136.6140 C   0  0  0  0  0  2  0  0  0  0  0  0
  190.4300  175.2600  138.0560 C   0  0  0  0  0  3  0  0  0  0  0  0
  184.0720  178.8670  143.7550 C   0  0  0  0  0  2  0  0  0  0  0  0
  189.3610  177.8580  137.7560 C   0  0  0  0  0  0  0  0  0  0  0  0
  182.7580  178.7410  141.1330 C   0  0  1  0  0  3  0  0  0  0  0  0
  186.7670  177.1690  141.6710 C   0  0  0  0  0  2  0  0  0  0  0  0
  183.5420  177.5250  141.6450 C   0  0  0  0  0  2  0  0  0  0  0  0
  188.5820  178.5960  140.7240 O   0  0  0  0  0  0  0  0  0  0  0  0
  183.8050  178.9950  137.7500 O   0  0  0  0  0  0  0  0  0  0  0  0
  189.8750  178.3170  140.2140 C   0  0  0  0  0  2  0  0  0  0  0  0
  184.6580  178.9250  138.8590 C   0  0  2  0  0  3  0  0  0  0  0  0
  186.1470  179.0190  138.4700 C   0  0  1  0  0  3  0  0  0  0  0  0
  182.5930  179.1600  143.6330 C   0  0  0  0  0  2  0  0  0  0  0  0
  182.6120  178.3100  138.0370 C   0  0  1  0  0  3  0  0  0  0  0  0
  184.5900  177.8430  142.7280 C   0  0  1  0  0  3  0  0  0  0  0  0
  188.9530  179.2910  137.6070 C   0  0  0  0  0  2  0  0  0  0  0  0
  188.2510  177.5290  141.5460 C   0  0  1  0  0  3  0  0  0  0  0  0
  181.7710  179.0640  139.1000 C   0  0  0  0  0  2  0  0  0  0  0  0
  181.6780  178.3390  140.2880 O   0  0  0  0  0  0  0  0  0  0  0  0
  182.2350  179.6820  142.2390 C   0  0  0  0  0  2  0  0  0  0  0  0
  188.3970  176.6620  143.8830 C   0  0  0  0  0  2  0  0  0  0  0  0
  190.3860  177.0940  145.2290 C   0  0  2  0  0  3  0  0  0  0  0  0
  190.2240  178.1930  142.9990 C   0  0  0  0  0  3  0  0  0  0  0  0
  190.9480  178.0580  144.1460 C   0  0  0  0  0  3  0  0  0  0  0  0
  188.8650  177.1010  145.2610 C   0  0  0  0  0  2  0  0  0  0  0  0
  189.0270  177.5640  142.8870 N   0  0  0  0  0  0  0  0  0  0  0  0
  190.9460  177.3670  146.6430 C   0  0  0  0  0  0  0  0  0  0  0  0
  192.0880  176.9450  146.9100 O   0  0  0  0  0  0  0  0  0  0  0  0
  190.1210  177.8160  147.6190 O   0  0  0  0  0  1  0  0  0  0  0  0
  181.8710  177.9970  136.8870 O   0  0  0  0  0  0  0  0  0  0  0  0
  181.1610  176.8490  137.2820 C   0  0  0  0  0  2  0  0  0  0  0  0
  182.2010  176.0220  135.1680 C   0  0  0  0  0  1  0  0  0  0  0  0
  181.5590  175.5500  136.5230 C   0  0  2  0  0  0  0  0  0  0  0  0
  180.5660  173.7930  135.0830 O   0  0  0  0  0  1  0  0  0  0  0  0
  180.2840  174.7990  136.0310 C   0  0  2  0  0  0  0  0  0  0  0  0
  178.9310  174.8160  135.8580 O   0  0  0  0  0  0  0  0  0  0  0  0
  179.2720  174.3880  137.1520 C   0  0  2  0  0  3  0  0  0  0  0  0
  180.3240  174.0360  138.3440 C   0  0  0  0  0  2  0  0  0  0  0  0
  179.8910  173.9490  139.6550 O   0  0  0  0  0  0  0  0  0  0  0  0
  180.4210  175.0500  140.2180 O   0  0  0  0  0  1  0  0  0  0  0  0
  182.8310  174.9370  137.1270 C   0  0  0  0  0  2  0  0  0  0  0  0
  187.0010  173.7810  137.0530 C   0  0  0  0  0  2  0  0  0  0  0  0
  184.0740  174.3060  136.4420 C   0  0  2  0  0  3  0  0  0  0  0  0
  185.8830  175.7960  135.2900 C   0  0  0  0  0  2  0  0  0  0  0  0
  186.3060  174.3790  135.7380 C   0  0  2  0  0  3  0  0  0  0  0  0
  184.5800  173.0920  137.3540 C   0  0  0  0  0  2  0  0  0  0  0  0
  185.2170  175.2120  136.4890 C   0  0  2  0  0  3  0  0  0  0  0  0
  186.1020  172.6990  137.4990 C   0  0  0  0  0  2  0  0  0  0  0  0
  1 22  1  0  0  0  0
  4  5  2  0  0  0  0
  4 11  1  0  0  0  0
  5  9  1  0  0  0  0
  6  7  1  0  0  0  0
  6 17  1  0  0  0  0
  8  3  1  0  0  0  0
  8 23  1  0  0  0  0
  9  7  2  0  0  0  0
 11  6  2  0  0  0  0
 12 14  1  1  0  0  0
 12 27  1  0  0  0  0
 13  1  1  0  0  0  0
 15 24  1  0  0  0  0
 16 21  1  0  0  0  0
 16 18  1  0  0  0  0
 17 15  1  0  0  0  0
 18  2  1  6  0  0  0
 19  3  1  6  0  0  0
 19  2  1  0  0  0  0
 19 18  1  0  0  0  0
 20 10  1  0  0  0  0
 21 37  1  6  0  0  0
 21 25  1  0  0  0  0
 22 14  1  6  0  0  0
 22 10  1  0  0  0  0
 23 11  1  0  0  0  0
 24 13  1  1  0  0  0
 24 33  1  0  0  0  0
 25 26  1  0  0  0  0
 26 12  1  0  0  0  0
 27 20  1  0  0  0  0
 28 32  1  0  0  0  0
 29 32  1  0  0  0  0
 29 34  1  1  0  0  0
 30 31  2  0  0  0  0
 31 29  1  0  0  0  0
 33 30  1  0  0  0  0
 33 28  1  0  0  0  0
 34 35  2  0  0  0  0
 34 36  1  0  0  0  0
 37 38  1  0  0  0  0
 40 39  1  6  0  0  0
 40 48  1  0  0  0  0
 40 38  1  0  0  0  0
 42 41  1  6  0  0  0
 42 40  1  0  0  0  0
 42 44  1  0  0  0  0
 43 42  1  0  0  0  0
 43 44  1  0  0  0  0
 44 45  1  1  0  0  0
 45 46  1  0  0  0  0
 46 47  1  0  0  0  0
 49 55  1  0  0  0  0
 50 54  1  0  0  0  0
 50 48  1  1  0  0  0
 50 53  1  0  0  0  0
 52 51  1  1  0  0  0
 52 54  1  0  0  0  0
 52 49  1  0  0  0  0
 53 55  1  0  0  0  0
 54 51  1  6  0  0  0
M  END
>  <MODEL>
2

>  <REMARK>
 VINA RESULT:      -5.0      3.063      6.020
  Name = 
  10 active torsions:
  status: ('A' for Active; 'I' for Inactive)
    1  A    between atoms: O_1  and  C_53
    2  A    between atoms: C_6  and  C_20
    3  A    between atoms: O_8  and  C_22
    4  A    between atoms: O_8  and  C_43
    5  A    between atoms: C_10  and  C_32
    6  A    between atoms: C_12  and  C_42
    7  A    between atoms: C_20  and  C_22
    8  A    between atoms: C_20  and  C_42
    9  A    between atoms: C_46  and  C_53
   10  A    between atoms: C_49  and  N_52
                            x       y       z     vdW  Elec       q    Type
                         _______ _______ _______ _____ _____    ______ ____

>  <TORSDO>
F 10

$$$$
=
 OpenBabel11052414543D

 55 62  0  0  1  0  0  0  0  0999 V2000
  184.9370  179.1120  138.5770 C   0  0  0  0  0  2  0  0  0  0  0  0
  185.2350  177.5730  141.6910 C   0  0  0  0  0  2  0  0  0  0  0  0
  185.0280  178.6350  143.8460 C   0  0  0  0  0  2  0  0  0  0  0  0
  181.5320  177.9310  144.1840 C   0  0  0  0  0  3  0  0  0  0  0  0
  180.5130  177.0110  143.8670 C   0  0  0  0  0  3  0  0  0  0  0  0
  181.1860  179.0620  142.0630 C   0  0  0  0  0  0  0  0  0  0  0  0
  180.1510  178.1530  141.7700 C   0  0  0  0  0  3  0  0  0  0  0  0
  184.0570  179.6220  144.5090 C   0  0  0  0  0  2  0  0  0  0  0  0
  179.8160  177.1510  142.6720 C   0  0  0  0  0  3  0  0  0  0  0  0
  186.7570  179.2400  136.8970 C   0  0  0  0  0  2  0  0  0  0  0  0
  181.8750  178.9800  143.3050 C   0  0  0  0  0  0  0  0  0  0  0  0
  188.0500  177.9990  139.2220 C   0  0  1  0  0  3  0  0  0  0  0  0
  183.7260  178.2820  138.9900 C   0  0  0  0  0  2  0  0  0  0  0  0
  186.8080  177.3410  138.6070 C   0  0  0  0  0  2  0  0  0  0  0  0
  182.7170  180.0350  140.4530 O   0  0  0  0  0  0  0  0  0  0  0  0
  187.3970  177.8340  142.7070 O   0  0  0  0  0  0  0  0  0  0  0  0
  181.4550  180.1680  141.0850 C   0  0  0  0  0  2  0  0  0  0  0  0
  186.5280  178.3640  141.7440 C   0  0  2  0  0  3  0  0  0  0  0  0
  185.2350  178.9350  142.3600 C   0  0  1  0  0  3  0  0  0  0  0  0
  188.2300  178.8980  136.8520 C   0  0  0  0  0  2  0  0  0  0  0  0
  188.1830  176.8280  142.1200 C   0  0  1  0  0  3  0  0  0  0  0  0
  185.9240  178.2870  137.7730 C   0  0  1  0  0  3  0  0  0  0  0  0
  182.8440  180.0630  143.6650 C   0  0  0  0  0  2  0  0  0  0  0  0
  182.5320  179.1490  139.4000 C   0  0  1  0  0  3  0  0  0  0  0  0
  189.1970  177.4240  141.1090 C   0  0  0  0  0  2  0  0  0  0  0  0
  188.9160  177.0220  139.8030 O   0  0  0  0  0  0  0  0  0  0  0  0
  188.8500  178.8950  138.2520 C   0  0  0  0  0  2  0  0  0  0  0  0
  181.8810  181.2770  138.2680 C   0  0  0  0  0  2  0  0  0  0  0  0
  180.8540  181.2240  136.0540 C   0  0  2  0  0  3  0  0  0  0  0  0
  181.2540  179.0530  137.2080 C   0  0  0  0  0  3  0  0  0  0  0  0
  180.7340  179.6750  136.1140 C   0  0  0  0  0  3  0  0  0  0  0  0
  180.7470  181.8540  137.4360 C   0  0  0  0  0  2  0  0  0  0  0  0
  181.7640  179.7980  138.2210 N   0  0  0  0  0  0  0  0  0  0  0  0
  179.8390  181.8820  135.0930 C   0  0  0  0  0  0  0  0  0  0  0  0
  178.9540  181.1600  134.5960 O   0  0  0  0  0  0  0  0  0  0  0  0
  180.0720  183.1300  134.6200 O   0  0  0  0  0  1  0  0  0  0  0  0
  188.7930  175.9900  143.0660 O   0  0  0  0  0  0  0  0  0  0  0  0
  188.7540  176.7680  144.2370 C   0  0  0  0  0  2  0  0  0  0  0  0
  190.5340  178.4150  144.8360 C   0  0  0  0  0  1  0  0  0  0  0  0
  190.1220  176.9040  144.9680 C   0  0  2  0  0  0  0  0  0  0  0  0
  192.0230  177.0860  143.3860 O   0  0  0  0  0  1  0  0  0  0  0  0
  191.2440  176.1910  144.1500 C   0  0  2  0  0  0  0  0  0  0  0  0
  191.6970  175.0410  143.5740 O   0  0  0  0  0  0  0  0  0  0  0  0
  192.0560  175.1050  144.9300 C   0  0  2  0  0  3  0  0  0  0  0  0
  192.0870  175.8010  146.4020 C   0  0  0  0  0  2  0  0  0  0  0  0
  193.1640  175.6000  147.2480 O   0  0  0  0  0  0  0  0  0  0  0  0
  192.6480  175.8800  148.4590 O   0  0  0  0  0  1  0  0  0  0  0  0
  189.9260  176.8950  146.4910 C   0  0  0  0  0  2  0  0  0  0  0  0
  186.2620  178.8560  147.6980 C   0  0  0  0  0  2  0  0  0  0  0  0
  188.6330  176.9930  147.3450 C   0  0  2  0  0  3  0  0  0  0  0  0
  188.5300  178.5050  149.4720 C   0  0  0  0  0  2  0  0  0  0  0  0
  187.1920  178.1420  148.7900 C   0  0  2  0  0  3  0  0  0  0  0  0
  187.3820  177.0260  146.3480 C   0  0  0  0  0  2  0  0  0  0  0  0
  188.5300  178.2950  147.9960 C   0  0  2  0  0  3  0  0  0  0  0  0
  186.0630  177.8400  146.6460 C   0  0  0  0  0  2  0  0  0  0  0  0
  1 13  1  0  0  0  0
  3  8  1  0  0  0  0
  5  4  1  0  0  0  0
  6 11  1  0  0  0  0
  7  6  2  0  0  0  0
  7  9  1  0  0  0  0
  9  5  2  0  0  0  0
 11 23  1  0  0  0  0
 11  4  2  0  0  0  0
 12 27  1  6  0  0  0
 12 26  1  0  0  0  0
 13 24  1  0  0  0  0
 14 12  1  0  0  0  0
 15 17  1  0  0  0  0
 17  6  1  0  0  0  0
 18  2  1  6  0  0  0
 18 19  1  0  0  0  0
 18 16  1  0  0  0  0
 19  2  1  6  0  0  0
 19  3  1  0  0  0  0
 20 10  1  0  0  0  0
 20 27  1  0  0  0  0
 21 16  1  0  0  0  0
 21 37  1  1  0  0  0
 22 10  1  1  0  0  0
 22  1  1  0  0  0  0
 22 14  1  0  0  0  0
 23  8  1  0  0  0  0
 24 33  1  6  0  0  0
 24 15  1  0  0  0  0
 25 21  1  0  0  0  0
 26 25  1  0  0  0  0
 29 34  1  6  0  0  0
 29 31  1  0  0  0  0
 29 32  1  0  0  0  0
 30 33  1  0  0  0  0
 31 30  2  0  0  0  0
 32 28  1  0  0  0  0
 33 28  1  0  0  0  0
 35 34  2  0  0  0  0
 36 34  1  0  0  0  0
 37 38  1  0  0  0  0
 38 40  1  0  0  0  0
 40 39  1  6  0  0  0
 40 48  1  0  0  0  0
 42 41  1  6  0  0  0
 42 44  1  0  0  0  0
 42 40  1  0  0  0  0
 43 42  1  0  0  0  0
 43 44  1  0  0  0  0
 44 45  1  1  0  0  0
 45 46  1  0  0  0  0
 46 47  1  0  0  0  0
 50 48  1  6  0  0  0
 50 54  1  0  0  0  0
 52 49  1  6  0  0  0
 52 51  1  0  0  0  0
 53 55  1  0  0  0  0
 53 50  1  0  0  0  0
 54 52  1  0  0  0  0
 54 51  1  1  0  0  0
 55 49  1  0  0  0  0
M  END
>  <MODEL>
3

>  <REMARK>
 VINA RESULT:      -4.2      4.164     10.895
  Name = 
  10 active torsions:
  status: ('A' for Active; 'I' for Inactive)
    1  A    between atoms: O_1  and  C_53
    2  A    between atoms: C_6  and  C_20
    3  A    between atoms: O_8  and  C_22
    4  A    between atoms: O_8  and  C_43
    5  A    between atoms: C_10  and  C_32
    6  A    between atoms: C_12  and  C_42
    7  A    between atoms: C_20  and  C_22
    8  A    between atoms: C_20  and  C_42
    9  A    between atoms: C_46  and  C_53
   10  A    between atoms: C_49  and  N_52
                            x       y       z     vdW  Elec       q    Type
                         _______ _______ _______ _____ _____    ______ ____

>  <TORSDO>
F 10

$$$$
=
 OpenBabel11052414543D

 55 62  0  0  1  0  0  0  0  0999 V2000
  190.9380  176.8830  139.8790 C   0  0  0  0  0  2  0  0  0  0  0  0
  187.5890  176.8350  138.9100 C   0  0  0  0  0  2  0  0  0  0  0  0
  186.6090  178.0320  137.0610 C   0  0  0  0  0  2  0  0  0  0  0  0
  186.9950  175.3380  134.7310 C   0  0  0  0  0  3  0  0  0  0  0  0
  187.0170  173.9360  134.5960 C   0  0  0  0  0  3  0  0  0  0  0  0
  189.3650  175.3350  135.2570 C   0  0  0  0  0  0  0  0  0  0  0  0
  189.3810  173.9370  135.0920 C   0  0  0  0  0  3  0  0  0  0  0  0
  186.9560  178.2730  135.5840 C   0  0  0  0  0  2  0  0  0  0  0  0
  188.2190  173.2550  134.7510 C   0  0  0  0  0  3  0  0  0  0  0  0
  191.7510  177.7100  142.0710 C   0  0  0  0  0  2  0  0  0  0  0  0
  188.1630  176.0640  135.0430 C   0  0  0  0  0  0  0  0  0  0  0  0
  188.8780  178.3100  142.1300 C   0  0  1  0  0  3  0  0  0  0  0  0
  190.5100  175.6170  139.1440 C   0  0  0  0  0  2  0  0  0  0  0  0
  189.3440  176.8660  141.9030 C   0  0  0  0  0  2  0  0  0  0  0  0
  190.6940  176.5880  136.8530 O   0  0  0  0  0  0  0  0  0  0  0  0
  186.3150  178.7090  139.7070 O   0  0  0  0  0  0  0  0  0  0  0  0
  190.6640  176.0270  135.5520 C   0  0  0  0  0  2  0  0  0  0  0  0
  187.6130  178.2540  139.4440 C   0  0  2  0  0  3  0  0  0  0  0  0
  187.8550  177.9770  137.9470 C   0  0  1  0  0  3  0  0  0  0  0  0
  191.1490  178.4210  143.2630 C   0  0  0  0  0  2  0  0  0  0  0  0
  185.9540  178.3550  141.0180 C   0  0  1  0  0  3  0  0  0  0  0  0
  190.7870  176.7290  141.3800 C   0  0  1  0  0  3  0  0  0  0  0  0
  188.2160  177.5610  135.0510 C   0  0  0  0  0  2  0  0  0  0  0  0
  191.0490  175.5580  137.7120 C   0  0  1  0  0  3  0  0  0  0  0  0
  186.7640  179.1670  142.0630 C   0  0  0  0  0  2  0  0  0  0  0  0
  187.6170  178.3450  142.8000 O   0  0  0  0  0  0  0  0  0  0  0  0
  189.8920  179.2040  142.8760 C   0  0  0  0  0  2  0  0  0  0  0  0
  193.3850  176.4190  137.5250 C   0  0  0  0  0  2  0  0  0  0  0  0
  195.2770  174.9000  137.7880 C   0  0  2  0  0  3  0  0  0  0  0  0
  192.9870  173.9190  137.7530 C   0  0  0  0  0  3  0  0  0  0  0  0
  194.3260  173.6700  137.8080 C   0  0  0  0  0  3  0  0  0  0  0  0
  194.7260  176.0280  136.9270 C   0  0  0  0  0  2  0  0  0  0  0  0
  192.5510  175.1940  137.5960 N   0  0  0  0  0  0  0  0  0  0  0  0
  196.7170  174.5550  137.3480 C   0  0  0  0  0  0  0  0  0  0  0  0
  196.9240  174.3450  136.1380 O   0  0  0  0  0  0  0  0  0  0  0  0
  197.6490  174.2410  138.2810 O   0  0  0  0  0  1  0  0  0  0  0  0
  184.5700  178.4200  141.2400 O   0  0  0  0  0  0  0  0  0  0  0  0
  184.0620  177.5230  140.2830 C   0  0  0  0  0  2  0  0  0  0  0  0
  181.7910  176.5550  139.9050 C   0  0  0  0  0  1  0  0  0  0  0  0
  182.6370  177.8720  139.7640 C   0  0  2  0  0  0  0  0  0  0  0  0
  182.6950  176.8600  137.5010 O   0  0  0  0  0  1  0  0  0  0  0  0
  182.6610  178.0760  138.2170 C   0  0  2  0  0  0  0  0  0  0  0  0
  182.9490  178.8970  137.1660 O   0  0  0  0  0  0  0  0  0  0  0  0
  181.6590  179.1430  137.6640 C   0  0  2  0  0  3  0  0  0  0  0  0
  180.4180  178.8980  138.6890 C   0  0  0  0  0  2  0  0  0  0  0  0
  179.2270  178.3620  138.2290 O   0  0  0  0  0  0  0  0  0  0  0  0
  179.2350  178.6940  136.9250 O   0  0  0  0  0  1  0  0  0  0  0  0
  181.8680  178.7000  140.8040 C   0  0  0  0  0  2  0  0  0  0  0  0
  179.8610  179.5980  144.5310 C   0  0  0  0  0  2  0  0  0  0  0  0
  181.2980  178.3020  142.1920 C   0  0  2  0  0  3  0  0  0  0  0  0
  182.6360  178.7670  144.3870 C   0  0  0  0  0  2  0  0  0  0  0  0
  181.1060  178.5900  144.5080 C   0  0  2  0  0  3  0  0  0  0  0  0
  179.7300  178.6220  142.1950 C   0  0  0  0  0  2  0  0  0  0  0  0
  181.7870  179.1940  143.2380 C   0  0  2  0  0  3  0  0  0  0  0  0
  178.9500  179.1010  143.4810 C   0  0  0  0  0  2  0  0  0  0  0  0
  4 11  1  0  0  0  0
  5  4  2  0  0  0  0
  5  9  1  0  0  0  0
  6 17  1  0  0  0  0
  7  6  1  0  0  0  0
  8  3  1  0  0  0  0
  9  7  2  0  0  0  0
 10 20  1  0  0  0  0
 11 23  1  0  0  0  0
 11  6  2  0  0  0  0
 12 14  1  1  0  0  0
 12 26  1  0  0  0  0
 12 27  1  0  0  0  0
 13  1  1  0  0  0  0
 15 24  1  0  0  0  0
 16 21  1  0  0  0  0
 17 15  1  0  0  0  0
 18  2  1  1  0  0  0
 18 16  1  0  0  0  0
 19  3  1  6  0  0  0
 19  2  1  0  0  0  0
 19 18  1  0  0  0  0
 21 37  1  6  0  0  0
 21 25  1  0  0  0  0
 22  1  1  6  0  0  0
 22 14  1  0  0  0  0
 22 10  1  0  0  0  0
 23  8  1  0  0  0  0
 24 33  1  1  0  0  0
 24 13  1  0  0  0  0
 25 26  1  0  0  0  0
 27 20  1  0  0  0  0
 28 33  1  0  0  0  0
 29 34  1  6  0  0  0
 29 31  1  0  0  0  0
 30 31  2  0  0  0  0
 32 28  1  0  0  0  0
 32 29  1  0  0  0  0
 33 30  1  0  0  0  0
 34 36  1  0  0  0  0
 35 34  2  0  0  0  0
 38 37  1  0  0  0  0
 40 39  1  1  0  0  0
 40 38  1  0  0  0  0
 40 48  1  0  0  0  0
 42 41  1  6  0  0  0
 42 40  1  0  0  0  0
 43 44  1  0  0  0  0
 43 42  1  0  0  0  0
 44 42  1  0  0  0  0
 44 45  1  1  0  0  0
 46 45  1  0  0  0  0
 47 46  1  0  0  0  0
 50 48  1  6  0  0  0
 50 53  1  0  0  0  0
 50 54  1  0  0  0  0
 52 51  1  1  0  0  0
 52 49  1  0  0  0  0
 53 55  1  0  0  0  0
 54 51  1  1  0  0  0
 54 52  1  0  0  0  0
 55 49  1  0  0  0  0
M  END
>  <MODEL>
4

>  <REMARK>
 VINA RESULT:      -4.1      1.477      3.382
  Name = 
  10 active torsions:
  status: ('A' for Active; 'I' for Inactive)
    1  A    between atoms: O_1  and  C_53
    2  A    between atoms: C_6  and  C_20
    3  A    between atoms: O_8  and  C_22
    4  A    between atoms: O_8  and  C_43
    5  A    between atoms: C_10  and  C_32
    6  A    between atoms: C_12  and  C_42
    7  A    between atoms: C_20  and  C_22
    8  A    between atoms: C_20  and  C_42
    9  A    between atoms: C_46  and  C_53
   10  A    between atoms: C_49  and  N_52
                            x       y       z     vdW  Elec       q    Type
                         _______ _______ _______ _____ _____    ______ ____

>  <TORSDO>
F 10

$$$$
=
 OpenBabel11052414543D

 55 62  0  0  1  0  0  0  0  0999 V2000
  191.0160  176.8420  139.8570 C   0  0  0  0  0  2  0  0  0  0  0  0
  187.6300  176.9160  139.0310 C   0  0  0  0  0  2  0  0  0  0  0  0
  186.6010  178.2350  137.2940 C   0  0  0  0  0  2  0  0  0  0  0  0
  186.8280  175.6670  134.8060 C   0  0  0  0  0  3  0  0  0  0  0  0
  186.8120  174.2740  134.5930 C   0  0  0  0  0  3  0  0  0  0  0  0
  189.2170  175.5860  135.2280 C   0  0  0  0  0  0  0  0  0  0  0  0
  189.1940  174.2000  134.9870 C   0  0  0  0  0  3  0  0  0  0  0  0
  186.8910  178.5500  135.8190 C   0  0  0  0  0  2  0  0  0  0  0  0
  188.0040  173.5610  134.6600 C   0  0  0  0  0  3  0  0  0  0  0  0
  191.9390  177.5290  142.0540 C   0  0  0  0  0  2  0  0  0  0  0  0
  188.0240  176.3510  135.1070 C   0  0  0  0  0  0  0  0  0  0  0  0
  189.0860  178.1840  142.2680 C   0  0  1  0  0  3  0  0  0  0  0  0
  190.5300  175.6280  139.0730 C   0  0  0  0  0  2  0  0  0  0  0  0
  189.5090  176.7450  141.9440 C   0  0  0  0  0  2  0  0  0  0  0  0
  190.6400  176.7210  136.8320 O   0  0  0  0  0  0  0  0  0  0  0  0
  186.4330  178.7700  139.9830 O   0  0  0  0  0  0  0  0  0  0  0  0
  190.5430  176.2340  135.5050 C   0  0  0  0  0  2  0  0  0  0  0  0
  187.7090  178.3040  139.6410 C   0  0  2  0  0  3  0  0  0  0  0  0
  187.8810  178.1050  138.1220 C   0  0  1  0  0  3  0  0  0  0  0  0
  191.4040  178.1850  143.3080 C   0  0  0  0  0  2  0  0  0  0  0  0
  186.1190  178.3510  141.2870 C   0  0  1  0  0  3  0  0  0  0  0  0
  190.9250  176.6080  141.3520 C   0  0  1  0  0  3  0  0  0  0  0  0
  188.1120  177.8430  135.1940 C   0  0  0  0  0  2  0  0  0  0  0  0
  191.0070  175.6370  137.6180 C   0  0  1  0  0  3  0  0  0  0  0  0
  186.9900  179.0860  142.3400 C   0  0  0  0  0  2  0  0  0  0  0  0
  187.8550  178.2070  142.9930 O   0  0  0  0  0  0  0  0  0  0  0  0
  190.1500  179.0140  143.0180 C   0  0  0  0  0  2  0  0  0  0  0  0
  193.3320  176.4600  137.2320 C   0  0  0  0  0  2  0  0  0  0  0  0
  195.2240  174.9310  137.4380 C   0  0  2  0  0  3  0  0  0  0  0  0
  192.9280  173.9780  137.6050 C   0  0  0  0  0  3  0  0  0  0  0  0
  194.2650  173.7160  137.5810 C   0  0  0  0  0  3  0  0  0  0  0  0
  194.6260  176.0240  136.5630 C   0  0  0  0  0  2  0  0  0  0  0  0
  192.4940  175.2500  137.4180 N   0  0  0  0  0  0  0  0  0  0  0  0
  196.6280  174.5480  136.9190 C   0  0  0  0  0  0  0  0  0  0  0  0
  196.8940  173.3370  136.7970 O   0  0  0  0  0  0  0  0  0  0  0  0
  197.6010  175.4880  136.8530 O   0  0  0  0  0  1  0  0  0  0  0  0
  184.7480  178.4310  141.5720 O   0  0  0  0  0  0  0  0  0  0  0  0
  184.1600  178.2620  140.3060 C   0  0  0  0  0  2  0  0  0  0  0  0
  182.1760  178.5640  141.7920 C   0  0  0  0  0  1  0  0  0  0  0  0
  182.6090  178.3940  140.2910 C   0  0  2  0  0  0  0  0  0  0  0  0
  180.5470  177.0430  140.0220 O   0  0  0  0  0  1  0  0  0  0  0  0
  181.9550  177.0270  139.9200 C   0  0  2  0  0  0  0  0  0  0  0  0
  182.0980  175.6760  139.7950 O   0  0  0  0  0  0  0  0  0  0  0  0
  182.5190  176.3410  138.6310 C   0  0  2  0  0  3  0  0  0  0  0  0
  182.8080  177.6650  137.7290 C   0  0  0  0  0  2  0  0  0  0  0  0
  182.6600  177.6200  136.3540 O   0  0  0  0  0  0  0  0  0  0  0  0
  183.7240  176.8960  135.9630 O   0  0  0  0  0  1  0  0  0  0  0  0
  182.1880  179.7920  139.8160 C   0  0  0  0  0  2  0  0  0  0  0  0
  179.5650  182.2630  137.4190 C   0  0  0  0  0  2  0  0  0  0  0  0
  181.6000  180.2640  138.4580 C   0  0  2  0  0  3  0  0  0  0  0  0
  179.2950  179.3800  137.6030 C   0  0  0  0  0  2  0  0  0  0  0  0
  179.7990  180.7250  137.0330 C   0  0  2  0  0  3  0  0  0  0  0  0
  181.9000  181.8280  138.3050 C   0  0  0  0  0  2  0  0  0  0  0  0
  180.1410  180.2400  138.4790 C   0  0  2  0  0  3  0  0  0  0  0  0
  180.9200  182.8260  137.5730 C   0  0  0  0  0  2  0  0  0  0  0  0
  4 11  1  0  0  0  0
  5  9  1  0  0  0  0
  5  4  2  0  0  0  0
  6 17  1  0  0  0  0
  7  6  1  0  0  0  0
  8  3  1  0  0  0  0
  9  7  2  0  0  0  0
 10 20  1  0  0  0  0
 11 23  1  0  0  0  0
 11  6  2  0  0  0  0
 12 14  1  1  0  0  0
 12 26  1  0  0  0  0
 12 27  1  0  0  0  0
 13  1  1  0  0  0  0
 15 24  1  0  0  0  0
 16 21  1  0  0  0  0
 17 15  1  0  0  0  0
 18  2  1  1  0  0  0
 18 16  1  0  0  0  0
 19  3  1  6  0  0  0
 19  2  1  0  0  0  0
 19 18  1  0  0  0  0
 21 37  1  1  0  0  0
 21 25  1  0  0  0  0
 22  1  1  6  0  0  0
 22 14  1  0  0  0  0
 22 10  1  0  0  0  0
 23  8  1  0  0  0  0
 24 33  1  1  0  0  0
 24 13  1  0  0  0  0
 25 26  1  0  0  0  0
 27 20  1  0  0  0  0
 28 33  1  0  0  0  0
 29 34  1  6  0  0  0
 29 31  1  0  0  0  0
 31 30  2  0  0  0  0
 32 28  1  0  0  0  0
 32 29  1  0  0  0  0
 33 30  1  0  0  0  0
 35 34  2  0  0  0  0
 36 34  1  0  0  0  0
 38 37  1  0  0  0  0
 40 38  1  0  0  0  0
 40 39  1  1  0  0  0
 42 41  1  6  0  0  0
 42 40  1  0  0  0  0
 43 42  1  0  0  0  0
 44 45  1  1  0  0  0
 44 43  1  0  0  0  0
 44 42  1  0  0  0  0
 46 45  1  0  0  0  0
 47 46  1  0  0  0  0
 48 40  1  0  0  0  0
 49 55  1  0  0  0  0
 50 54  1  0  0  0  0
 50 48  1  1  0  0  0
 52 49  1  1  0  0  0
 52 51  1  0  0  0  0
 52 54  1  0  0  0  0
 53 50  1  0  0  0  0
 54 51  1  6  0  0  0
 55 53  1  0  0  0  0
M  END
>  <MODEL>
5

>  <REMARK>
 VINA RESULT:      -2.8      1.758      2.843
  Name = 
  10 active torsions:
  status: ('A' for Active; 'I' for Inactive)
    1  A    between atoms: O_1  and  C_53
    2  A    between atoms: C_6  and  C_20
    3  A    between atoms: O_8  and  C_22
    4  A    between atoms: O_8  and  C_43
    5  A    between atoms: C_10  and  C_32
    6  A    between atoms: C_12  and  C_42
    7  A    between atoms: C_20  and  C_22
    8  A    between atoms: C_20  and  C_42
    9  A    between atoms: C_46  and  C_53
   10  A    between atoms: C_49  and  N_52
                            x       y       z     vdW  Elec       q    Type
                         _______ _______ _______ _____ _____    ______ ____

>  <TORSDO>
F 10

$$$$
