=
 OpenBabel11052413293D

 28 31  0  0  1  0  0  0  0  0999 V2000
  190.5170  176.7330  144.3150 C   0  0  1  0  0  3  0  0  0  0  0  0
  185.6360  177.9580  142.8650 C   0  0  0  0  0  3  0  0  0  0  0  0
  187.9810  177.4530  148.5360 O   0  0  0  0  0  1  0  0  0  0  0  0
  184.5630  178.6170  144.9420 C   0  0  0  0  0  0  0  0  0  0  0  0
  186.9350  177.8240  145.0060 C   0  0  0  0  0  0  0  0  0  0  0  0
  183.3350  178.7030  142.8530 C   0  0  0  0  0  0  0  0  0  0  0  0
  185.7030  178.1490  144.2540 C   0  0  0  0  0  0  0  0  0  0  0  0
  185.6980  178.2160  147.0840 N   0  0  0  0  0  2  0  0  0  0  0  0
  183.3900  178.9020  144.2350 C   0  0  0  0  0  3  0  0  0  0  0  0
  189.2190  177.1030  146.4820 C   0  0  0  0  0  0  0  0  0  0  0  0
  188.1120  177.4480  144.3480 C   0  0  0  0  0  3  0  0  0  0  0  0
  184.6130  178.9260  146.4110 C   0  0  0  0  0  2  0  0  0  0  0  0
  191.7090  176.8190  146.5480 C   0  0  0  0  0  2  0  0  0  0  0  0
  188.0360  177.4670  147.1450 C   0  0  0  0  0  0  0  0  0  0  0  0
  190.3940  176.6140  147.2860 C   0  0  0  0  0  2  0  0  0  0  0  0
  182.1370  178.9890  142.1420 N   0  0  0  0  0  1  0  0  0  0  0  0
  184.4580  178.2350  142.1680 C   0  0  0  0  0  3  0  0  0  0  0  0
  186.9060  177.8480  146.4090 C   0  0  0  0  0  0  0  0  0  0  0  0
  191.6440  176.1530  145.1840 C   0  0  0  0  0  2  0  0  0  0  0  0
  189.2590  177.0990  145.0700 C   0  0  0  0  0  0  0  0  0  0  0  0
  190.9770  177.7930  143.2950 C   0  0  2  0  0  3  0  0  0  0  0  0
  191.0810  179.0600  143.8750 O   0  0  0  0  0  1  0  0  0  0  0  0
  190.2340  177.8360  141.9540 C   0  0  0  0  0  2  0  0  0  0  0  0
  190.4120  176.9290  139.5670 N   0  0  0  0  0  0  0  0  0  0  0  0
  192.2970  177.3720  140.8750 O   0  0  0  0  0  0  0  0  0  0  0  0
  191.0410  177.3580  140.7850 C   0  0  0  0  0  0  0  0  0  0  0  0
  189.0040  177.1860  139.3120 C   0  0  0  0  0  1  0  0  0  0  0  0
  191.1970  176.3090  138.5130 C   0  0  0  0  0  1  0  0  0  0  0  0
  1 21  1  1  0  0  0
  1 20  1  0  0  0  0
  1 19  1  0  0  0  0
  2  7  1  0  0  0  0
  4 12  1  0  0  0  0
  5 18  1  0  0  0  0
  6  9  2  0  0  0  0
  7  4  2  0  0  0  0
  7  5  1  0  0  0  0
  9  4  1  0  0  0  0
 10 14  1  0  0  0  0
 10 15  1  0  0  0  0
 11  5  2  0  0  0  0
 11 20  1  0  0  0  0
 12  8  1  0  0  0  0
 13 15  1  0  0  0  0
 14  3  1  0  0  0  0
 16  6  1  0  0  0  0
 17  6  1  0  0  0  0
 17  2  2  0  0  0  0
 18  8  1  0  0  0  0
 18 14  2  0  0  0  0
 19 13  1  0  0  0  0
 20 10  2  0  0  0  0
 21 22  1  1  0  0  0
 23 21  1  0  0  0  0
 24 26  1  0  0  0  0
 26 25  2  0  0  0  0
 26 23  1  0  0  0  0
 27 24  1  0  0  0  0
 28 24  1  0  0  0  0
M  END
>  <MODEL>
1

>  <REMARK>
 VINA RESULT:     -11.1      0.000      0.000
  Name = 
  3 active torsions:
  status: ('A' for Active; 'I' for Inactive)
    1  A    between atoms: C_1  and  C_2
    2  A    between atoms: C_2  and  C_3
    3  A    between atoms: C_3  and  C_11
                            x       y       z     vdW  Elec       q    Type
                         _______ _______ _______ _____ _____    ______ ____

>  <TORSDO>
F 3

$$$$
=
 OpenBabel11052413293D

 28 31  0  0  1  0  0  0  0  0999 V2000
  189.1490  177.0590  141.2930 C   0  0  1  0  0  3  0  0  0  0  0  0
  184.1650  178.2870  142.3350 C   0  0  0  0  0  3  0  0  0  0  0  0
  188.8220  177.3420  146.2510 O   0  0  0  0  0  1  0  0  0  0  0  0
  184.1660  178.7340  144.7230 C   0  0  0  0  0  0  0  0  0  0  0  0
  186.2940  177.9970  143.6310 C   0  0  0  0  0  0  0  0  0  0  0  0
  182.1250  178.9740  143.4380 C   0  0  0  0  0  0  0  0  0  0  0  0
  184.8600  178.3560  143.5540 C   0  0  0  0  0  0  0  0  0  0  0  0
  186.1440  178.1740  146.0700 N   0  0  0  0  0  2  0  0  0  0  0  0
  182.8060  179.0520  144.6550 C   0  0  0  0  0  3  0  0  0  0  0  0
  188.9850  177.2040  143.8370 C   0  0  0  0  0  0  0  0  0  0  0  0
  187.0340  177.7090  142.4790 C   0  0  0  0  0  3  0  0  0  0  0  0
  184.8840  178.9140  146.0300 C   0  0  0  0  0  2  0  0  0  0  0  0
  191.2270  176.9770  142.7390 C   0  0  0  0  0  2  0  0  0  0  0  0
  188.2400  177.4800  144.9950 C   0  0  0  0  0  0  0  0  0  0  0  0
  190.3880  176.6760  143.9720 C   0  0  0  0  0  2  0  0  0  0  0  0
  180.7400  179.2920  143.3770 N   0  0  0  0  0  1  0  0  0  0  0  0
  182.8040  178.5950  142.2780 C   0  0  0  0  0  3  0  0  0  0  0  0
  186.9060  177.8970  144.8900 C   0  0  0  0  0  0  0  0  0  0  0  0
  190.5360  176.4320  141.4990 C   0  0  0  0  0  2  0  0  0  0  0  0
  188.3780  177.3260  142.5680 C   0  0  0  0  0  0  0  0  0  0  0  0
  189.1140  178.2150  140.2750 C   0  0  2  0  0  3  0  0  0  0  0  0
  187.8150  178.6840  140.0660 O   0  0  0  0  0  1  0  0  0  0  0  0
  189.8660  178.0010  138.9540 C   0  0  0  0  0  2  0  0  0  0  0  0
  188.3640  177.4520  136.9560 N   0  0  0  0  0  0  0  0  0  0  0  0
  189.0770  179.6280  137.4160 O   0  0  0  0  0  0  0  0  0  0  0  0
  189.0980  178.4100  137.7340 C   0  0  0  0  0  0  0  0  0  0  0  0
  188.1090  176.1100  137.4540 C   0  0  0  0  0  1  0  0  0  0  0  0
  187.7720  177.8340  135.6860 C   0  0  0  0  0  1  0  0  0  0  0  0
  1 21  1  1  0  0  0
  1 19  1  0  0  0  0
  1 20  1  0  0  0  0
  2  7  1  0  0  0  0
  4 12  1  0  0  0  0
  5 18  1  0  0  0  0
  6  9  2  0  0  0  0
  7  5  1  0  0  0  0
  7  4  2  0  0  0  0
  9  4  1  0  0  0  0
 10 15  1  0  0  0  0
 10 14  1  0  0  0  0
 11 20  1  0  0  0  0
 11  5  2  0  0  0  0
 12  8  1  0  0  0  0
 13 15  1  0  0  0  0
 14  3  1  0  0  0  0
 16  6  1  0  0  0  0
 17  2  2  0  0  0  0
 17  6  1  0  0  0  0
 18 14  2  0  0  0  0
 18  8  1  0  0  0  0
 19 13  1  0  0  0  0
 20 10  2  0  0  0  0
 21 22  1  6  0  0  0
 23 21  1  0  0  0  0
 24 27  1  0  0  0  0
 24 26  1  0  0  0  0
 25 26  2  0  0  0  0
 26 23  1  0  0  0  0
 28 24  1  0  0  0  0
M  END
>  <MODEL>
2

>  <REMARK>
 VINA RESULT:      -9.5      2.049      2.852
  Name = 
  3 active torsions:
  status: ('A' for Active; 'I' for Inactive)
    1  A    between atoms: C_1  and  C_2
    2  A    between atoms: C_2  and  C_3
    3  A    between atoms: C_3  and  C_11
                            x       y       z     vdW  Elec       q    Type
                         _______ _______ _______ _____ _____    ______ ____

>  <TORSDO>
F 3

$$$$
=
 OpenBabel11052413293D

 28 31  0  0  1  0  0  0  0  0999 V2000
  188.6890  176.9110  142.7040 C   0  0  1  0  0  3  0  0  0  0  0  0
  183.7280  177.9040  141.3500 C   0  0  0  0  0  3  0  0  0  0  0  0
  186.3750  178.2650  146.8980 O   0  0  0  0  0  1  0  0  0  0  0  0
  182.7620  178.8720  143.3580 C   0  0  0  0  0  0  0  0  0  0  0  0
  185.1410  178.0970  143.4140 C   0  0  0  0  0  0  0  0  0  0  0  0
  181.4240  178.6400  141.3490 C   0  0  0  0  0  0  0  0  0  0  0  0
  183.8680  178.3040  142.6890 C   0  0  0  0  0  0  0  0  0  0  0  0
  184.0130  178.8000  145.4720 N   0  0  0  0  0  2  0  0  0  0  0  0
  181.5510  179.0470  142.6800 C   0  0  0  0  0  3  0  0  0  0  0  0
  187.5050  177.6070  144.8570 C   0  0  0  0  0  0  0  0  0  0  0  0
  186.2830  177.6240  142.7580 C   0  0  0  0  0  3  0  0  0  0  0  0
  182.8880  179.4000  144.7580 C   0  0  0  0  0  2  0  0  0  0  0  0
  189.9970  177.3360  144.8320 C   0  0  0  0  0  2  0  0  0  0  0  0
  186.3570  178.0680  145.5200 C   0  0  0  0  0  0  0  0  0  0  0  0
  188.7250  177.2450  145.6620 C   0  0  0  0  0  2  0  0  0  0  0  0
  180.1870  178.8150  140.6680 N   0  0  0  0  0  1  0  0  0  0  0  0
  182.5120  178.0720  140.6840 C   0  0  0  0  0  3  0  0  0  0  0  0
  185.1860  178.3340  144.7970 C   0  0  0  0  0  0  0  0  0  0  0  0
  189.8640  176.4700  143.5890 C   0  0  0  0  0  2  0  0  0  0  0  0
  187.4690  177.3890  143.4620 C   0  0  0  0  0  0  0  0  0  0  0  0
  189.0860  177.8040  141.5130 C   0  0  2  0  0  3  0  0  0  0  0  0
  188.4920  179.0660  141.5890 O   0  0  0  0  0  1  0  0  0  0  0  0
  188.9530  177.1920  140.1120 C   0  0  0  0  0  2  0  0  0  0  0  0
  190.3340  176.2390  138.1790 N   0  0  0  0  0  0  0  0  0  0  0  0
  191.2900  177.5360  139.8710 O   0  0  0  0  0  0  0  0  0  0  0  0
  190.2560  176.9940  139.3980 C   0  0  0  0  0  0  0  0  0  0  0  0
  189.1370  175.8650  137.4440 C   0  0  0  0  0  1  0  0  0  0  0  0
  191.6250  175.9130  137.5980 C   0  0  0  0  0  1  0  0  0  0  0  0
  1 21  1  6  0  0  0
  1 20  1  0  0  0  0
  1 19  1  0  0  0  0
  2  7  1  0  0  0  0
  4 12  1  0  0  0  0
  5 18  1  0  0  0  0
  6  9  2  0  0  0  0
  7  4  2  0  0  0  0
  7  5  1  0  0  0  0
  9  4  1  0  0  0  0
 10 14  1  0  0  0  0
 10 15  1  0  0  0  0
 11  5  2  0  0  0  0
 11 20  1  0  0  0  0
 12  8  1  0  0  0  0
 13 15  1  0  0  0  0
 14  3  1  0  0  0  0
 16  6  1  0  0  0  0
 17  6  1  0  0  0  0
 17  2  2  0  0  0  0
 18  8  1  0  0  0  0
 18 14  2  0  0  0  0
 19 13  1  0  0  0  0
 20 10  2  0  0  0  0
 21 22  1  6  0  0  0
 23 21  1  0  0  0  0
 24 26  1  0  0  0  0
 26 25  2  0  0  0  0
 26 23  1  0  0  0  0
 27 24  1  0  0  0  0
 28 24  1  0  0  0  0
M  END
>  <MODEL>
3

>  <REMARK>
 VINA RESULT:      -9.2      1.621      2.356
  Name = 
  3 active torsions:
  status: ('A' for Active; 'I' for Inactive)
    1  A    between atoms: C_1  and  C_2
    2  A    between atoms: C_2  and  C_3
    3  A    between atoms: C_3  and  C_11
                            x       y       z     vdW  Elec       q    Type
                         _______ _______ _______ _____ _____    ______ ____

>  <TORSDO>
F 3

$$$$
=
 OpenBabel11052413293D

 28 31  0  0  1  0  0  0  0  0999 V2000
  188.8620  178.0070  142.7400 C   0  0  1  0  0  3  0  0  0  0  0  0
  183.7560  178.7490  143.6360 C   0  0  0  0  0  3  0  0  0  0  0  0
  186.7530  178.5280  138.2620 O   0  0  0  0  0  1  0  0  0  0  0  0
  182.7600  178.6560  141.4230 C   0  0  0  0  0  0  0  0  0  0  0  0
  185.2440  178.4490  141.6390 C   0  0  0  0  0  0  0  0  0  0  0  0
  181.3610  178.9740  143.3780 C   0  0  0  0  0  0  0  0  0  0  0  0
  183.9040  178.6070  142.2470 C   0  0  0  0  0  0  0  0  0  0  0  0
  184.2020  178.6670  139.4320 N   0  0  0  0  0  2  0  0  0  0  0  0
  181.4950  178.8280  141.9950 C   0  0  0  0  0  3  0  0  0  0  0  0
  187.7830  178.2720  140.4410 C   0  0  0  0  0  0  0  0  0  0  0  0
  186.3890  178.3030  142.4300 C   0  0  0  0  0  3  0  0  0  0  0  0
  182.8560  178.4160  139.9430 C   0  0  0  0  0  2  0  0  0  0  0  0
  190.1770  177.5520  140.6230 C   0  0  0  0  0  2  0  0  0  0  0  0
  186.6370  178.4330  139.6450 C   0  0  0  0  0  0  0  0  0  0  0  0
  189.1400  178.2910  139.7900 C   0  0  0  0  0  2  0  0  0  0  0  0
  180.0720  179.1540  143.9510 N   0  0  0  0  0  1  0  0  0  0  0  0
  182.4900  178.9310  144.1980 C   0  0  0  0  0  3  0  0  0  0  0  0
  185.3710  178.4990  140.2420 C   0  0  0  0  0  0  0  0  0  0  0  0
  190.2180  178.1310  142.0280 C   0  0  0  0  0  2  0  0  0  0  0  0
  187.6570  178.2000  141.8460 C   0  0  0  0  0  0  0  0  0  0  0  0
  188.7530  176.8090  143.7030 C   0  0  2  0  0  3  0  0  0  0  0  0
  188.4010  175.6350  143.0330 O   0  0  0  0  0  1  0  0  0  0  0  0
  187.9200  177.0140  144.9760 C   0  0  0  0  0  2  0  0  0  0  0  0
  188.1930  177.9500  147.3420 N   0  0  0  0  0  0  0  0  0  0  0  0
  189.8970  176.7670  146.2670 O   0  0  0  0  0  0  0  0  0  0  0  0
  188.7310  177.2420  146.2150 C   0  0  0  0  0  0  0  0  0  0  0  0
  186.7720  178.2400  147.4440 C   0  0  0  0  0  1  0  0  0  0  0  0
  189.0470  178.3110  148.4600 C   0  0  0  0  0  1  0  0  0  0  0  0
  1 21  1  6  0  0  0
  2 17  1  0  0  0  0
  3 14  1  0  0  0  0
  4  9  2  0  0  0  0
  4  7  1  0  0  0  0
  5  7  1  0  0  0  0
  5 11  1  0  0  0  0
  6 16  1  0  0  0  0
  6 17  2  0  0  0  0
  7  2  2  0  0  0  0
  8 12  1  0  0  0  0
  8 18  1  0  0  0  0
  9  6  1  0  0  0  0
 10 20  1  0  0  0  0
 12  4  1  0  0  0  0
 13 19  1  0  0  0  0
 14 18  1  0  0  0  0
 14 10  2  0  0  0  0
 15 10  1  0  0  0  0
 15 13  1  0  0  0  0
 18  5  2  0  0  0  0
 19  1  1  0  0  0  0
 20 11  2  0  0  0  0
 20  1  1  0  0  0  0
 21 22  1  6  0  0  0
 21 23  1  0  0  0  0
 23 26  1  0  0  0  0
 24 27  1  0  0  0  0
 24 28  1  0  0  0  0
 26 25  2  0  0  0  0
 26 24  1  0  0  0  0
M  END
>  <MODEL>
4

>  <REMARK>
 VINA RESULT:      -8.9      2.399      5.750
  Name = 
  3 active torsions:
  status: ('A' for Active; 'I' for Inactive)
    1  A    between atoms: C_1  and  C_2
    2  A    between atoms: C_2  and  C_3
    3  A    between atoms: C_3  and  C_11
                            x       y       z     vdW  Elec       q    Type
                         _______ _______ _______ _____ _____    ______ ____

>  <TORSDO>
F 3

$$$$
=
 OpenBabel11052413293D

 28 31  0  0  1  0  0  0  0  0999 V2000
  187.0430  178.5670  146.5090 C   0  0  1  0  0  3  0  0  0  0  0  0
  188.4690  178.3550  141.4740 C   0  0  0  0  0  3  0  0  0  0  0  0
  191.6970  176.8020  146.4820 O   0  0  0  0  0  1  0  0  0  0  0  0
  190.5950  177.1810  141.5230 C   0  0  0  0  0  0  0  0  0  0  0  0
  189.4370  177.6730  143.6860 C   0  0  0  0  0  0  0  0  0  0  0  0
  189.6380  177.8840  139.4090 C   0  0  0  0  0  0  0  0  0  0  0  0
  189.4890  177.7280  142.2080 C   0  0  0  0  0  0  0  0  0  0  0  0
  191.7130  176.7680  143.6720 N   0  0  0  0  0  2  0  0  0  0  0  0
  190.6560  177.2530  140.1270 C   0  0  0  0  0  3  0  0  0  0  0  0
  189.4300  177.6600  146.4990 C   0  0  0  0  0  0  0  0  0  0  0  0
  188.3140  178.1210  144.3910 C   0  0  0  0  0  3  0  0  0  0  0  0
  191.6630  176.4190  142.2540 C   0  0  0  0  0  2  0  0  0  0  0  0
  188.1010  177.6590  148.6240 C   0  0  0  0  0  2  0  0  0  0  0  0
  190.5630  177.2230  145.7940 C   0  0  0  0  0  0  0  0  0  0  0  0
  189.4860  177.7500  148.0000 C   0  0  0  0  0  2  0  0  0  0  0  0
  189.7100  177.9580  137.9910 N   0  0  0  0  0  1  0  0  0  0  0  0
  188.5430  178.4320  140.0810 C   0  0  0  0  0  3  0  0  0  0  0  0
  190.5570  177.2090  144.3920 C   0  0  0  0  0  0  0  0  0  0  0  0
  187.1970  178.7270  148.0290 C   0  0  0  0  0  2  0  0  0  0  0  0
  188.2930  178.1070  145.7900 C   0  0  0  0  0  0  0  0  0  0  0  0
  185.7550  177.8450  146.0690 C   0  0  2  0  0  3  0  0  0  0  0  0
  186.0230  176.8020  145.1790 O   0  0  0  0  0  1  0  0  0  0  0  0
  184.5940  178.7250  145.5870 C   0  0  0  0  0  2  0  0  0  0  0  0
  183.2380  178.6910  143.4170 N   0  0  0  0  0  0  0  0  0  0  0  0
  185.5310  179.1370  143.4450 O   0  0  0  0  0  0  0  0  0  0  0  0
  184.4930  178.8510  144.0980 C   0  0  0  0  0  0  0  0  0  0  0  0
  181.9800  178.6690  144.1460 C   0  0  0  0  0  1  0  0  0  0  0  0
  183.1890  178.6450  141.9660 C   0  0  0  0  0  1  0  0  0  0  0  0
  1 21  1  1  0  0  0
  1 19  1  0  0  0  0
  2  7  1  0  0  0  0
  4  7  2  0  0  0  0
  4 12  1  0  0  0  0
  5 11  2  0  0  0  0
  5 18  1  0  0  0  0
  6 17  1  0  0  0  0
  6  9  2  0  0  0  0
  7  5  1  0  0  0  0
  8 18  1  0  0  0  0
  9  4  1  0  0  0  0
 10 15  1  0  0  0  0
 11 20  1  0  0  0  0
 12  8  1  0  0  0  0
 14  3  1  0  0  0  0
 14 10  1  0  0  0  0
 15 13  1  0  0  0  0
 16  6  1  0  0  0  0
 17  2  2  0  0  0  0
 18 14  2  0  0  0  0
 19 13  1  0  0  0  0
 20 10  2  0  0  0  0
 20  1  1  0  0  0  0
 21 22  1  6  0  0  0
 23 21  1  0  0  0  0
 24 26  1  0  0  0  0
 24 27  1  0  0  0  0
 25 26  2  0  0  0  0
 26 23  1  0  0  0  0
 28 24  1  0  0  0  0
M  END
>  <MODEL>
5

>  <REMARK>
 VINA RESULT:      -8.9      2.075      5.992
  Name = 
  3 active torsions:
  status: ('A' for Active; 'I' for Inactive)
    1  A    between atoms: C_1  and  C_2
    2  A    between atoms: C_2  and  C_3
    3  A    between atoms: C_3  and  C_11
                            x       y       z     vdW  Elec       q    Type
                         _______ _______ _______ _____ _____    ______ ____

>  <TORSDO>
F 3

$$$$
=
 OpenBabel11052413293D

 28 31  0  0  1  0  0  0  0  0999 V2000
  184.3760  179.2170  143.0860 C   0  0  1  0  0  3  0  0  0  0  0  0
  188.4930  178.0180  140.0800 C   0  0  0  0  0  3  0  0  0  0  0  0
  187.7980  177.3110  146.1570 O   0  0  0  0  0  1  0  0  0  0  0  0
  189.9680  176.7980  141.5760 C   0  0  0  0  0  0  0  0  0  0  0  0
  187.8280  177.7270  142.4810 C   0  0  0  0  0  0  0  0  0  0  0  0
  190.5860  177.1280  139.2550 C   0  0  0  0  0  0  0  0  0  0  0  0
  188.7640  177.5030  141.3580 C   0  0  0  0  0  0  0  0  0  0  0  0
  189.4960  176.7530  143.9880 N   0  0  0  0  0  2  0  0  0  0  0  0
  190.8650  176.6060  140.5210 C   0  0  0  0  0  3  0  0  0  0  0  0
  186.1290  178.2380  144.6650 C   0  0  0  0  0  0  0  0  0  0  0  0
  186.5850  178.3380  142.2800 C   0  0  0  0  0  3  0  0  0  0  0  0
  190.2600  176.1480  142.8990 C   0  0  0  0  0  2  0  0  0  0  0  0
  183.8060  178.6820  145.4960 C   0  0  0  0  0  2  0  0  0  0  0  0
  187.3810  177.6370  144.8700 C   0  0  0  0  0  0  0  0  0  0  0  0
  185.2830  178.6050  145.8540 C   0  0  0  0  0  2  0  0  0  0  0  0
  191.5070  176.9340  138.1890 N   0  0  0  0  0  1  0  0  0  0  0  0
  189.4000  177.8310  139.0340 C   0  0  0  0  0  3  0  0  0  0  0  0
  188.2170  177.3620  143.7790 C   0  0  0  0  0  0  0  0  0  0  0  0
  183.6060  179.6520  144.3420 C   0  0  0  0  0  2  0  0  0  0  0  0
  185.7250  178.5860  143.3570 C   0  0  0  0  0  0  0  0  0  0  0  0
  183.5250  178.4720  142.0410 C   0  0  2  0  0  3  0  0  0  0  0  0
  183.6940  179.0030  140.7590 O   0  0  0  0  0  1  0  0  0  0  0  0
  182.0440  178.2530  142.3780 C   0  0  0  0  0  2  0  0  0  0  0  0
  180.5680  178.4160  140.2940 N   0  0  0  0  0  0  0  0  0  0  0  0
  180.7270  180.1550  141.8460 O   0  0  0  0  0  0  0  0  0  0  0  0
  181.0920  179.0020  141.4950 C   0  0  0  0  0  0  0  0  0  0  0  0
  180.7160  176.9970  140.0170 C   0  0  0  0  0  1  0  0  0  0  0  0
  179.7870  179.2170  139.3650 C   0  0  0  0  0  1  0  0  0  0  0  0
  1 21  1  1  0  0  0
  1 20  1  0  0  0  0
  1 19  1  0  0  0  0
  2  7  1  0  0  0  0
  4 12  1  0  0  0  0
  5 18  1  0  0  0  0
  6  9  2  0  0  0  0
  7  4  2  0  0  0  0
  7  5  1  0  0  0  0
  9  4  1  0  0  0  0
 10 14  1  0  0  0  0
 10 15  1  0  0  0  0
 11  5  2  0  0  0  0
 11 20  1  0  0  0  0
 12  8  1  0  0  0  0
 13 15  1  0  0  0  0
 14  3  1  0  0  0  0
 16  6  1  0  0  0  0
 17  6  1  0  0  0  0
 17  2  2  0  0  0  0
 18  8  1  0  0  0  0
 18 14  2  0  0  0  0
 19 13  1  0  0  0  0
 20 10  2  0  0  0  0
 21 22  1  6  0  0  0
 21 23  1  0  0  0  0
 24 26  1  0  0  0  0
 26 25  2  0  0  0  0
 26 23  1  0  0  0  0
 27 24  1  0  0  0  0
 28 24  1  0  0  0  0
M  END
>  <MODEL>
6

>  <REMARK>
 VINA RESULT:      -8.8      3.152      7.251
  Name = 
  3 active torsions:
  status: ('A' for Active; 'I' for Inactive)
    1  A    between atoms: C_1  and  C_2
    2  A    between atoms: C_2  and  C_3
    3  A    between atoms: C_3  and  C_11
                            x       y       z     vdW  Elec       q    Type
                         _______ _______ _______ _____ _____    ______ ____

>  <TORSDO>
F 3

$$$$
=
 OpenBabel11052413293D

 28 31  0  0  1  0  0  0  0  0999 V2000
  183.0130  178.6260  141.1830 C   0  0  1  0  0  3  0  0  0  0  0  0
  188.1540  177.8770  141.8400 C   0  0  0  0  0  3  0  0  0  0  0  0
  183.8060  178.8400  146.0920 O   0  0  0  0  0  1  0  0  0  0  0  0
  188.4050  177.6600  144.2460 C   0  0  0  0  0  0  0  0  0  0  0  0
  186.1340  178.1290  143.3060 C   0  0  0  0  0  0  0  0  0  0  0  0
  190.3360  177.4530  142.7950 C   0  0  0  0  0  0  0  0  0  0  0  0
  187.5800  177.8720  143.1220 C   0  0  0  0  0  0  0  0  0  0  0  0
  186.5170  178.1970  145.7250 N   0  0  0  0  0  2  0  0  0  0  0  0
  189.7760  177.4400  144.0750 C   0  0  0  0  0  3  0  0  0  0  0  0
  183.4160  178.7350  143.7020 C   0  0  0  0  0  0  0  0  0  0  0  0
  185.2720  178.2510  142.2110 C   0  0  0  0  0  3  0  0  0  0  0  0
  187.8250  177.5530  145.6280 C   0  0  0  0  0  2  0  0  0  0  0  0
  181.0730  178.6890  142.8120 C   0  0  0  0  0  2  0  0  0  0  0  0
  184.2820  178.6270  144.8020 C   0  0  0  0  0  0  0  0  0  0  0  0
  181.9920  179.1680  143.9260 C   0  0  0  0  0  2  0  0  0  0  0  0
  191.7310  177.2340  142.6280 N   0  0  0  0  0  1  0  0  0  0  0  0
  189.5260  177.6680  141.6780 C   0  0  0  0  0  3  0  0  0  0  0  0
  185.6310  178.3030  144.6050 C   0  0  0  0  0  0  0  0  0  0  0  0
  181.6020  179.1640  141.4680 C   0  0  0  0  0  2  0  0  0  0  0  0
  183.9140  178.5390  142.3960 C   0  0  0  0  0  0  0  0  0  0  0  0
  183.0510  177.3840  140.2720 C   0  0  2  0  0  3  0  0  0  0  0  0
  183.9100  177.5640  139.1850 O   0  0  0  0  0  1  0  0  0  0  0  0
  181.7010  176.7930  139.8450 C   0  0  0  0  0  2  0  0  0  0  0  0
  181.4870  176.1020  137.3900 N   0  0  0  0  0  0  0  0  0  0  0  0
  180.8170  178.2060  138.1540 O   0  0  0  0  0  0  0  0  0  0  0  0
  181.3220  177.0840  138.4250 C   0  0  0  0  0  0  0  0  0  0  0  0
  181.7700  174.7110  137.7060 C   0  0  0  0  0  1  0  0  0  0  0  0
  181.2780  176.4590  135.9970 C   0  0  0  0  0  1  0  0  0  0  0  0
  1 21  1  1  0  0  0
  1 19  1  0  0  0  0
  1 20  1  0  0  0  0
  2  7  1  0  0  0  0
  4 12  1  0  0  0  0
  5 18  1  0  0  0  0
  6  9  2  0  0  0  0
  7  5  1  0  0  0  0
  7  4  2  0  0  0  0
  9  4  1  0  0  0  0
 10 15  1  0  0  0  0
 10 14  1  0  0  0  0
 11 20  1  0  0  0  0
 11  5  2  0  0  0  0
 12  8  1  0  0  0  0
 13 15  1  0  0  0  0
 14  3  1  0  0  0  0
 16  6  1  0  0  0  0
 17  2  2  0  0  0  0
 17  6  1  0  0  0  0
 18 14  2  0  0  0  0
 18  8  1  0  0  0  0
 19 13  1  0  0  0  0
 20 10  2  0  0  0  0
 21 22  1  6  0  0  0
 23 21  1  0  0  0  0
 24 27  1  0  0  0  0
 24 26  1  0  0  0  0
 25 26  2  0  0  0  0
 26 23  1  0  0  0  0
 28 24  1  0  0  0  0
M  END
>  <MODEL>
7

>  <REMARK>
 VINA RESULT:      -8.7      3.998      7.412
  Name = 
  3 active torsions:
  status: ('A' for Active; 'I' for Inactive)
    1  A    between atoms: C_1  and  C_2
    2  A    between atoms: C_2  and  C_3
    3  A    between atoms: C_3  and  C_11
                            x       y       z     vdW  Elec       q    Type
                         _______ _______ _______ _____ _____    ______ ____

>  <TORSDO>
F 3

$$$$
=
 OpenBabel11052413293D

 28 31  0  0  1  0  0  0  0  0999 V2000
  189.3990  177.9300  139.0340 C   0  0  1  0  0  3  0  0  0  0  0  0
  190.9260  177.3120  144.0050 C   0  0  0  0  0  3  0  0  0  0  0  0
  185.3010  178.5020  141.8000 O   0  0  0  0  0  1  0  0  0  0  0  0
  188.8410  177.2690  145.2500 C   0  0  0  0  0  0  0  0  0  0  0  0
  188.7620  177.6340  142.7760 C   0  0  0  0  0  0  0  0  0  0  0  0
  190.9560  176.9910  146.4020 C   0  0  0  0  0  0  0  0  0  0  0  0
  189.5240  177.3880  144.0210 C   0  0  0  0  0  0  0  0  0  0  0  0
  186.7380  177.8780  144.1340 N   0  0  0  0  0  2  0  0  0  0  0  0
  189.5610  177.0600  146.4310 C   0  0  0  0  0  3  0  0  0  0  0  0
  187.2940  178.2220  140.4500 C   0  0  0  0  0  0  0  0  0  0  0  0
  189.3980  177.6640  141.5290 C   0  0  0  0  0  3  0  0  0  0  0  0
  187.3400  177.2500  145.3080 C   0  0  0  0  0  2  0  0  0  0  0  0
  187.1110  178.0760  137.9540 C   0  0  0  0  0  2  0  0  0  0  0  0
  186.6570  178.2060  141.7010 C   0  0  0  0  0  0  0  0  0  0  0  0
  186.5170  178.6470  139.2330 C   0  0  0  0  0  2  0  0  0  0  0  0
  191.6820  176.7840  147.6080 N   0  0  0  0  0  1  0  0  0  0  0  0
  191.6380  177.1140  145.1900 C   0  0  0  0  0  3  0  0  0  0  0  0
  187.3850  177.8910  142.8570 C   0  0  0  0  0  0  0  0  0  0  0  0
  188.5780  178.4630  137.8500 C   0  0  0  0  0  2  0  0  0  0  0  0
  188.6760  177.9420  140.3630 C   0  0  0  0  0  0  0  0  0  0  0  0
  190.1680  176.6270  138.7420 C   0  0  2  0  0  3  0  0  0  0  0  0
  191.4850  176.6880  139.2070 O   0  0  0  0  0  1  0  0  0  0  0  0
  190.0920  176.0800  137.3100 C   0  0  0  0  0  2  0  0  0  0  0  0
  188.5050  174.1670  136.6980 N   0  0  0  0  0  0  0  0  0  0  0  0
  190.6290  173.7850  137.5930 O   0  0  0  0  0  0  0  0  0  0  0  0
  189.7620  174.6210  137.2240 C   0  0  0  0  0  0  0  0  0  0  0  0
  187.6150  175.0680  135.9850 C   0  0  0  0  0  1  0  0  0  0  0  0
  188.1350  172.7650  136.7830 C   0  0  0  0  0  1  0  0  0  0  0  0
  1 21  1  6  0  0  0
  1 20  1  0  0  0  0
  2  7  2  0  0  0  0
  2 17  1  0  0  0  0
  4 12  1  0  0  0  0
  4  9  2  0  0  0  0
  5 18  1  0  0  0  0
  5  7  1  0  0  0  0
  6  9  1  0  0  0  0
  6 16  1  0  0  0  0
  7  4  1  0  0  0  0
  8 12  1  0  0  0  0
 10 14  1  0  0  0  0
 11  5  2  0  0  0  0
 13 15  1  0  0  0  0
 14  3  1  0  0  0  0
 14 18  2  0  0  0  0
 15 10  1  0  0  0  0
 17  6  2  0  0  0  0
 18  8  1  0  0  0  0
 19 13  1  0  0  0  0
 19  1  1  0  0  0  0
 20 10  2  0  0  0  0
 20 11  1  0  0  0  0
 21 22  1  6  0  0  0
 23 21  1  0  0  0  0
 24 28  1  0  0  0  0
 24 26  1  0  0  0  0
 26 23  1  0  0  0  0
 26 25  2  0  0  0  0
 27 24  1  0  0  0  0
M  END
>  <MODEL>
8

>  <REMARK>
 VINA RESULT:      -8.6      2.858      6.095
  Name = 
  3 active torsions:
  status: ('A' for Active; 'I' for Inactive)
    1  A    between atoms: C_1  and  C_2
    2  A    between atoms: C_2  and  C_3
    3  A    between atoms: C_3  and  C_11
                            x       y       z     vdW  Elec       q    Type
                         _______ _______ _______ _____ _____    ______ ____

>  <TORSDO>
F 3

$$$$
=
 OpenBabel11052413293D

 28 31  0  0  1  0  0  0  0  0999 V2000
  189.5610  177.8530  143.0530 C   0  0  1  0  0  3  0  0  0  0  0  0
  184.7950  178.8970  141.1510 C   0  0  0  0  0  3  0  0  0  0  0  0
  190.0260  177.7880  138.0980 O   0  0  0  0  0  1  0  0  0  0  0  0
  185.0280  178.5170  138.7630 C   0  0  0  0  0  0  0  0  0  0  0  0
  187.0380  178.2570  140.2300 C   0  0  0  0  0  0  0  0  0  0  0  0
  182.8840  179.1650  139.6920 C   0  0  0  0  0  0  0  0  0  0  0  0
  185.5980  178.5480  140.0540 C   0  0  0  0  0  0  0  0  0  0  0  0
  187.2610  178.1860  137.7910 N   0  0  0  0  0  2  0  0  0  0  0  0
  183.6720  178.8140  138.5930 C   0  0  0  0  0  3  0  0  0  0  0  0
  189.8030  177.8180  140.5120 C   0  0  0  0  0  0  0  0  0  0  0  0
  187.6160  178.1870  141.5030 C   0  0  0  0  0  3  0  0  0  0  0  0
  185.8210  178.0590  137.5730 C   0  0  0  0  0  2  0  0  0  0  0  0
  191.6990  177.0480  141.9590 C   0  0  0  0  0  2  0  0  0  0  0  0
  189.2280  177.9010  139.2330 C   0  0  0  0  0  0  0  0  0  0  0  0
  191.2970  177.6930  140.6410 C   0  0  0  0  0  2  0  0  0  0  0  0
  181.5080  179.4730  139.5100 N   0  0  0  0  0  1  0  0  0  0  0  0
  183.4440  179.2040  140.9710 C   0  0  0  0  0  3  0  0  0  0  0  0
  187.8470  178.0970  139.0940 C   0  0  0  0  0  0  0  0  0  0  0  0
  191.0960  177.8250  143.1180 C   0  0  0  0  0  2  0  0  0  0  0  0
  188.9880  177.9560  141.6570 C   0  0  0  0  0  0  0  0  0  0  0  0
  188.8640  176.8140  143.9520 C   0  0  2  0  0  3  0  0  0  0  0  0
  188.3800  175.7310  143.2130 O   0  0  0  0  0  1  0  0  0  0  0  0
  187.8200  177.3420  144.9450 C   0  0  0  0  0  2  0  0  0  0  0  0
  187.5350  178.0560  147.3860 N   0  0  0  0  0  0  0  0  0  0  0  0
  189.3350  176.7470  146.6740 O   0  0  0  0  0  0  0  0  0  0  0  0
  188.2830  177.3710  146.3700 C   0  0  0  0  0  0  0  0  0  0  0  0
  186.1780  178.5180  147.1440 C   0  0  0  0  0  1  0  0  0  0  0  0
  188.0850  178.2200  148.7210 C   0  0  0  0  0  1  0  0  0  0  0  0
  1 19  1  0  0  0  0
  1 21  1  6  0  0  0
  3 14  1  0  0  0  0
  4  7  1  0  0  0  0
  5 11  1  0  0  0  0
  6 17  2  0  0  0  0
  7  5  1  0  0  0  0
  7  2  2  0  0  0  0
  8 18  1  0  0  0  0
  9  4  2  0  0  0  0
  9  6  1  0  0  0  0
 10 15  1  0  0  0  0
 10 20  1  0  0  0  0
 11 20  2  0  0  0  0
 12  8  1  0  0  0  0
 12  4  1  0  0  0  0
 13 19  1  0  0  0  0
 14 10  2  0  0  0  0
 15 13  1  0  0  0  0
 16  6  1  0  0  0  0
 17  2  1  0  0  0  0
 18 14  1  0  0  0  0
 18  5  2  0  0  0  0
 20  1  1  0  0  0  0
 21 22  1  6  0  0  0
 21 23  1  0  0  0  0
 23 26  1  0  0  0  0
 24 28  1  0  0  0  0
 26 25  2  0  0  0  0
 26 24  1  0  0  0  0
 27 24  1  0  0  0  0
M  END
>  <MODEL>
9

>  <REMARK>
 VINA RESULT:      -8.3      2.329      6.138
  Name = 
  3 active torsions:
  status: ('A' for Active; 'I' for Inactive)
    1  A    between atoms: C_1  and  C_2
    2  A    between atoms: C_2  and  C_3
    3  A    between atoms: C_3  and  C_11
                            x       y       z     vdW  Elec       q    Type
                         _______ _______ _______ _____ _____    ______ ____

>  <TORSDO>
F 3

$$$$
