=
 OpenBabel11052415313D

 37 39  0  0  1  0  0  0  0  0999 V2000
  183.6650  176.3650  137.1050 C   0  0  0  0  0  0  0  0  0  0  0  0
  181.8300  178.4590  135.7950 C   0  0  0  0  0  2  0  0  0  0  0  0
  182.2600  176.6120  137.5730 C   0  0  2  0  0  3  0  0  0  0  0  0
  181.4010  181.0550  137.9970 C   0  0  0  0  0  0  0  0  0  0  0  0
  184.5240  177.0780  137.8210 C   0  0  0  0  0  0  0  0  0  0  0  0
  181.3570  177.1570  136.4450 C   0  0  2  0  0  3  0  0  0  0  0  0
  183.7930  177.9010  138.7840 C   0  0  0  0  0  0  0  0  0  0  0  0
  183.2040  175.3990  134.8400 C   0  0  0  0  0  2  0  0  0  0  0  0
  180.4830  178.9540  138.5000 O   0  0  0  0  0  0  0  0  0  0  0  0
  180.8730  179.6030  136.1280 C   0  0  0  0  0  2  0  0  0  0  0  0
  184.0660  175.3360  136.0930 C   0  0  0  0  0  2  0  0  0  0  0  0
  182.4900  177.6400  138.6490 C   0  0  0  0  0  0  0  0  0  0  0  0
  180.8540  176.1360  135.4110 C   0  0  1  0  0  3  0  0  0  0  0  0
  180.9140  179.9170  137.5870 C   0  0  0  0  0  0  0  0  0  0  0  0
  181.8710  182.1310  138.3840 O   0  0  0  0  0  0  0  0  0  0  0  0
  181.3890  178.3290  139.4050 C   0  0  2  0  0  3  0  0  0  0  0  0
  181.7860  174.9520  135.1650 C   0  0  0  0  0  2  0  0  0  0  0  0
  184.4110  178.8710  139.7200 C   0  0  0  0  0  0  0  0  0  0  0  0
  184.5590  180.0710  139.3650 O   0  0  0  0  0  0  0  0  0  0  0  0
  184.8240  178.4640  141.0290 N   0  0  0  0  0  2  0  0  0  0  0  0
  185.3740  179.3900  142.0100 C   0  0  0  0  0  2  0  0  0  0  0  0
  185.0670  178.9020  143.4140 C   0  0  0  0  0  1  0  0  0  0  0  0
  180.4940  177.1290  140.4380 S   0  0  0  0  0  0  0  0  0  0  0  0
  180.1170  178.3680  141.7140 C   0  0  2  0  0  3  0  0  0  0  0  0
  181.4090  178.9900  142.2160 C   0  0  0  0  0  1  0  0  0  0  0  0
  180.0400  178.2950  143.9210 C   0  0  0  0  0  1  0  0  0  0  0  0
  179.4520  177.7550  142.7760 O   0  0  0  0  0  0  0  0  0  0  0  0
  179.4860  175.6140  135.8270 C   0  0  0  0  0  2  0  0  0  0  0  0
  178.9940  174.9230  138.0550 O   0  0  0  0  0  1  0  0  0  0  0  0
  179.6230  174.5230  136.8750 C   0  0  1  0  0  3  0  0  0  0  0  0
  178.9920  173.2630  136.3680 C   0  0  0  0  0  3  0  0  0  0  0  0
  179.5470  172.0540  136.5200 C   0  0  0  0  0  3  0  0  0  0  0  0
  181.8690  171.7170  136.2480 F   0  0  0  0  0  0  0  0  0  0  0  0
  180.8650  171.8300  137.1940 C   0  0  0  0  0  2  0  0  0  0  0  0
  186.0060  177.0870  137.6110 C   0  0  0  0  0  2  0  0  0  0  0  0
  186.3680  178.1060  136.5470 C   0  0  0  0  0  2  0  0  0  0  0  0
  187.6130  177.7900  136.0080 O   0  0  0  0  0  1  0  0  0  0  0  0
  1  5  2  0  0  0  0
  2 10  1  0  0  0  0
  3  1  1  6  0  0  0
  3 12  1  0  0  0  0
  4 15  2  0  0  0  0
  5  7  1  0  0  0  0
  6  2  1  6  0  0  0
  6  3  1  0  0  0  0
  7 18  1  0  0  0  0
  8 17  1  0  0  0  0
  8 11  1  0  0  0  0
  9 16  1  0  0  0  0
 10 14  1  0  0  0  0
 11  1  1  0  0  0  0
 12  7  2  0  0  0  0
 12 16  1  0  0  0  0
 13 28  1  1  0  0  0
 13  6  1  0  0  0  0
 14  4  2  0  0  0  0
 14  9  1  0  0  0  0
 16 23  1  6  0  0  0
 17 13  1  0  0  0  0
 18 20  1  0  0  0  0
 19 18  2  0  0  0  0
 20 21  1  0  0  0  0
 21 22  1  0  0  0  0
 23 24  1  0  0  0  0
 24 25  1  1  0  0  0
 24 27  1  0  0  0  0
 27 26  1  0  0  0  0
 28 30  1  0  0  0  0
 30 29  1  1  0  0  0
 31 32  2  0  0  0  0
 31 30  1  0  0  0  0
 32 34  1  0  0  0  0
 33 34  1  0  0  0  0
 35  5  1  0  0  0  0
 36 35  1  0  0  0  0
 37 36  1  0  0  0  0
M  END
>  <MODEL>
1

>  <REMARK>
 VINA RESULT:      -4.7      0.000      0.000
  Name = 
  11 active torsions:
  status: ('A' for Active; 'I' for Inactive)
    1  A    between atoms: S_1  and  C_5
    2  A    between atoms: S_1  and  C_36
    3  A    between atoms: C_2  and  C_35
    4  A    between atoms: C_3  and  N_32
    5  A    between atoms: C_5  and  O_23
    6  A    between atoms: C_6  and  C_31
    7  A    between atoms: C_6  and  C_35
    8  A    between atoms: C_9  and  C_13
    9  A    between atoms: C_9  and  C_16
   10  A    between atoms: C_18  and  C_19
   11  A    between atoms: C_20  and  C_21
                            x       y       z     vdW  Elec       q    Type
                         _______ _______ _______ _____ _____    ______ ____

>  <TORSDO>
F 11

$$$$
=
 OpenBabel11052415313D

 37 39  0  0  1  0  0  0  0  0999 V2000
  184.2040  178.4050  141.6950 C   0  0  0  0  0  0  0  0  0  0  0  0
  183.5910  180.0310  139.1560 C   0  0  0  0  0  2  0  0  0  0  0  0
  183.6680  177.7740  140.4420 C   0  0  2  0  0  3  0  0  0  0  0  0
  180.1880  180.1500  138.7400 C   0  0  0  0  0  0  0  0  0  0  0  0
  183.2150  178.7010  142.5260 C   0  0  0  0  0  0  0  0  0  0  0  0
  184.0500  178.5710  139.1770 C   0  0  2  0  0  3  0  0  0  0  0  0
  181.9360  178.3580  141.9040 C   0  0  0  0  0  0  0  0  0  0  0  0
  186.4710  179.1030  140.8890 C   0  0  0  0  0  2  0  0  0  0  0  0
  181.3080  178.1040  138.4860 O   0  0  0  0  0  0  0  0  0  0  0  0
  182.5210  180.2410  138.0850 C   0  0  0  0  0  2  0  0  0  0  0  0
  185.6570  178.5290  142.0400 C   0  0  0  0  0  2  0  0  0  0  0  0
  182.1860  177.8240  140.7060 C   0  0  0  0  0  0  0  0  0  0  0  0
  185.4910  178.4040  138.6660 C   0  0  1  0  0  3  0  0  0  0  0  0
  181.2740  179.4980  138.4330 C   0  0  0  0  0  0  0  0  0  0  0  0
  179.1610  180.7720  139.0380 O   0  0  0  0  0  0  0  0  0  0  0  0
  181.1380  177.4010  139.7140 C   0  0  2  0  0  3  0  0  0  0  0  0
  186.5290  178.1020  139.7460 C   0  0  0  0  0  2  0  0  0  0  0  0
  180.6030  178.5960  142.5090 C   0  0  0  0  0  0  0  0  0  0  0  0
  179.8210  177.6260  142.6970 O   0  0  0  0  0  0  0  0  0  0  0  0
  180.2000  179.9140  142.8980 N   0  0  0  0  0  2  0  0  0  0  0  0
  178.9310  180.1930  143.5560 C   0  0  0  0  0  2  0  0  0  0  0  0
  178.9700  179.6990  144.9900 C   0  0  0  0  0  1  0  0  0  0  0  0
  181.2470  175.6100  139.4170 S   0  0  0  0  0  0  0  0  0  0  0  0
  179.4670  175.3640  139.6930 C   0  0  2  0  0  3  0  0  0  0  0  0
  179.2510  174.6690  141.0270 C   0  0  0  0  0  1  0  0  0  0  0  0
  179.0620  175.3620  137.5200 C   0  0  0  0  0  1  0  0  0  0  0  0
  178.9420  174.5760  138.6680 O   0  0  0  0  0  0  0  0  0  0  0  0
  185.5390  177.3100  137.6100 C   0  0  0  0  0  2  0  0  0  0  0  0
  186.9390  175.4660  137.0400 O   0  0  0  0  0  1  0  0  0  0  0  0
  186.9600  176.8100  137.4170 C   0  0  1  0  0  3  0  0  0  0  0  0
  187.6340  177.6230  136.3550 C   0  0  0  0  0  3  0  0  0  0  0  0
  188.9190  177.9940  136.4210 C   0  0  0  0  0  3  0  0  0  0  0  0
  190.7430  176.7030  137.1850 F   0  0  0  0  0  0  0  0  0  0  0  0
  189.8160  177.6560  137.5710 C   0  0  0  0  0  2  0  0  0  0  0  0
  183.3910  179.3580  143.8590 C   0  0  0  0  0  2  0  0  0  0  0  0
  184.2040  178.4590  144.7710 C   0  0  0  0  0  2  0  0  0  0  0  0
  184.1760  178.9670  146.0670 O   0  0  0  0  0  1  0  0  0  0  0  0
  1 11  1  0  0  0  0
  1  5  2  0  0  0  0
  3 12  1  1  0  0  0
  3  1  1  0  0  0  0
  4 15  2  0  0  0  0
  5 35  1  0  0  0  0
  6  2  1  1  0  0  0
  6  3  1  0  0  0  0
  7 18  1  0  0  0  0
  7  5  1  0  0  0  0
  8 11  1  0  0  0  0
  9 16  1  0  0  0  0
 10 14  1  0  0  0  0
 10  2  1  0  0  0  0
 12  7  2  0  0  0  0
 13 28  1  6  0  0  0
 13  6  1  0  0  0  0
 13 17  1  0  0  0  0
 14  9  1  0  0  0  0
 14  4  2  0  0  0  0
 16 23  1  6  0  0  0
 16 12  1  0  0  0  0
 17  8  1  0  0  0  0
 18 19  2  0  0  0  0
 18 20  1  0  0  0  0
 20 21  1  0  0  0  0
 21 22  1  0  0  0  0
 23 24  1  0  0  0  0
 24 25  1  1  0  0  0
 26 27  1  0  0  0  0
 27 24  1  0  0  0  0
 30 29  1  6  0  0  0
 30 28  1  0  0  0  0
 31 32  2  0  0  0  0
 31 30  1  0  0  0  0
 32 34  1  0  0  0  0
 33 34  1  0  0  0  0
 35 36  1  0  0  0  0
 36 37  1  0  0  0  0
M  END
>  <MODEL>
2

>  <REMARK>
 VINA RESULT:      -4.6      2.881      6.305
  Name = 
  11 active torsions:
  status: ('A' for Active; 'I' for Inactive)
    1  A    between atoms: S_1  and  C_5
    2  A    between atoms: S_1  and  C_36
    3  A    between atoms: C_2  and  C_35
    4  A    between atoms: C_3  and  N_32
    5  A    between atoms: C_5  and  O_23
    6  A    between atoms: C_6  and  C_31
    7  A    between atoms: C_6  and  C_35
    8  A    between atoms: C_9  and  C_13
    9  A    between atoms: C_9  and  C_16
   10  A    between atoms: C_18  and  C_19
   11  A    between atoms: C_20  and  C_21
                            x       y       z     vdW  Elec       q    Type
                         _______ _______ _______ _____ _____    ______ ____

>  <TORSDO>
F 11

$$$$
=
 OpenBabel11052415313D

 37 39  0  0  1  0  0  0  0  0999 V2000
  184.9250  176.4750  136.9240 C   0  0  0  0  0  0  0  0  0  0  0  0
  182.5800  177.9580  135.5950 C   0  0  0  0  0  2  0  0  0  0  0  0
  183.4950  176.2360  137.3130 C   0  0  2  0  0  3  0  0  0  0  0  0
  181.2450  180.1430  137.8780 C   0  0  0  0  0  0  0  0  0  0  0  0
  185.4780  177.3780  137.7230 C   0  0  0  0  0  0  0  0  0  0  0  0
  182.5180  176.5350  136.1560 C   0  0  2  0  0  3  0  0  0  0  0  0
  184.4790  177.8660  138.6730 C   0  0  0  0  0  0  0  0  0  0  0  0
  184.9000  175.5550  134.5950 C   0  0  0  0  0  2  0  0  0  0  0  0
  181.0230  177.8330  138.2280 O   0  0  0  0  0  0  0  0  0  0  0  0
  181.2930  178.7170  135.9170 C   0  0  0  0  0  2  0  0  0  0  0  0
  185.6800  175.6900  135.8950 C   0  0  0  0  0  2  0  0  0  0  0  0
  183.3360  177.2150  138.4460 C   0  0  0  0  0  0  0  0  0  0  0  0
  182.4150  175.4740  135.0480 C   0  0  1  0  0  3  0  0  0  0  0  0
  181.1650  178.9370  137.3880 C   0  0  0  0  0  0  0  0  0  0  0  0
  181.3290  181.2860  138.3410 O   0  0  0  0  0  0  0  0  0  0  0  0
  182.0390  177.4720  139.1610 C   0  0  2  0  0  3  0  0  0  0  0  0
  183.6870  174.6630  134.8090 C   0  0  0  0  0  2  0  0  0  0  0  0
  184.7120  178.9210  139.6880 C   0  0  0  0  0  0  0  0  0  0  0  0
  184.5450  180.1310  139.3790 O   0  0  0  0  0  0  0  0  0  0  0  0
  185.1050  178.5810  141.0220 N   0  0  0  0  0  2  0  0  0  0  0  0
  185.2820  179.5730  142.0740 C   0  0  0  0  0  2  0  0  0  0  0  0
  184.6480  179.0820  143.3630 C   0  0  0  0  0  1  0  0  0  0  0  0
  181.5280  175.9890  140.0820 S   0  0  0  0  0  0  0  0  0  0  0  0
  179.9570  176.7410  140.6020 C   0  0  2  0  0  3  0  0  0  0  0  0
  180.2360  177.9250  141.5110 C   0  0  0  0  0  1  0  0  0  0  0  0
  178.9460  174.7910  140.3550 C   0  0  0  0  0  1  0  0  0  0  0  0
  179.1950  175.7960  141.2910 O   0  0  0  0  0  0  0  0  0  0  0  0
  181.2680  174.5220  135.3540 C   0  0  0  0  0  2  0  0  0  0  0  0
  181.0770  173.4880  137.4940 O   0  0  0  0  0  1  0  0  0  0  0  0
  181.7300  173.3960  136.2640 C   0  0  1  0  0  3  0  0  0  0  0  0
  181.4210  172.0780  135.6240 C   0  0  0  0  0  3  0  0  0  0  0  0
  182.1700  170.9830  135.8050 C   0  0  0  0  0  3  0  0  0  0  0  0
  184.4620  171.5320  135.9600 F   0  0  0  0  0  0  0  0  0  0  0  0
  183.4070  170.9600  136.6490 C   0  0  0  0  0  2  0  0  0  0  0  0
  186.8880  177.8670  137.6070 C   0  0  0  0  0  2  0  0  0  0  0  0
  187.7700  177.1340  138.5990 C   0  0  0  0  0  2  0  0  0  0  0  0
  188.5780  176.2270  137.9190 O   0  0  0  0  0  1  0  0  0  0  0  0
  1  5  2  0  0  0  0
  2 10  1  0  0  0  0
  3  1  1  6  0  0  0
  3 12  1  0  0  0  0
  4 15  2  0  0  0  0
  5  7  1  0  0  0  0
  6  2  1  6  0  0  0
  6  3  1  0  0  0  0
  7 18  1  0  0  0  0
  8 17  1  0  0  0  0
  8 11  1  0  0  0  0
  9 16  1  0  0  0  0
 10 14  1  0  0  0  0
 11  1  1  0  0  0  0
 12  7  2  0  0  0  0
 12 16  1  0  0  0  0
 13 28  1  1  0  0  0
 13  6  1  0  0  0  0
 14  4  2  0  0  0  0
 14  9  1  0  0  0  0
 16 23  1  6  0  0  0
 17 13  1  0  0  0  0
 18 20  1  0  0  0  0
 19 18  2  0  0  0  0
 20 21  1  0  0  0  0
 21 22  1  0  0  0  0
 23 24  1  0  0  0  0
 24 27  1  0  0  0  0
 24 25  1  1  0  0  0
 26 27  1  0  0  0  0
 28 30  1  0  0  0  0
 30 29  1  1  0  0  0
 31 32  2  0  0  0  0
 31 30  1  0  0  0  0
 32 34  1  0  0  0  0
 33 34  1  0  0  0  0
 35  5  1  0  0  0  0
 35 36  1  0  0  0  0
 37 36  1  0  0  0  0
M  END
>  <MODEL>
3

>  <REMARK>
 VINA RESULT:      -4.5      1.546      1.900
  Name = 
  11 active torsions:
  status: ('A' for Active; 'I' for Inactive)
    1  A    between atoms: S_1  and  C_5
    2  A    between atoms: S_1  and  C_36
    3  A    between atoms: C_2  and  C_35
    4  A    between atoms: C_3  and  N_32
    5  A    between atoms: C_5  and  O_23
    6  A    between atoms: C_6  and  C_31
    7  A    between atoms: C_6  and  C_35
    8  A    between atoms: C_9  and  C_13
    9  A    between atoms: C_9  and  C_16
   10  A    between atoms: C_18  and  C_19
   11  A    between atoms: C_20  and  C_21
                            x       y       z     vdW  Elec       q    Type
                         _______ _______ _______ _____ _____    ______ ____

>  <TORSDO>
F 11

$$$$
=
 OpenBabel11052415313D

 37 39  0  0  1  0  0  0  0  0999 V2000
  180.7950  179.9820  137.0560 C   0  0  0  0  0  0  0  0  0  0  0  0
  180.2760  176.9560  137.2700 C   0  0  0  0  0  2  0  0  0  0  0  0
  181.8200  179.0220  137.5890 C   0  0  2  0  0  3  0  0  0  0  0  0
  179.9990  176.1350  140.5900 C   0  0  0  0  0  0  0  0  0  0  0  0
  180.0930  180.5100  138.0490 C   0  0  0  0  0  0  0  0  0  0  0  0
  181.6410  177.6000  137.0170 C   0  0  2  0  0  3  0  0  0  0  0  0
  180.5300  179.9280  139.3190 C   0  0  0  0  0  0  0  0  0  0  0  0
  180.7070  179.2360  134.6660 C   0  0  0  0  0  2  0  0  0  0  0  0
  182.0750  176.8330  139.7450 O   0  0  0  0  0  0  0  0  0  0  0  0
  180.4100  175.7730  138.2270 C   0  0  0  0  0  2  0  0  0  0  0  0
  180.6860  180.4160  135.6270 C   0  0  0  0  0  2  0  0  0  0  0  0
  181.5230  179.0720  139.0650 C   0  0  0  0  0  0  0  0  0  0  0  0
  182.1410  177.3660  135.5820 C   0  0  1  0  0  3  0  0  0  0  0  0
  180.8240  176.2370  139.5840 C   0  0  0  0  0  0  0  0  0  0  0  0
  179.2130  176.0460  141.5390 O   0  0  0  0  0  0  0  0  0  0  0  0
  182.2030  178.2100  140.0910 C   0  0  2  0  0  3  0  0  0  0  0  0
  182.0840  178.5900  134.6700 C   0  0  0  0  0  2  0  0  0  0  0  0
  179.9390  180.2320  140.6440 C   0  0  0  0  0  0  0  0  0  0  0  0
  179.7390  181.4310  140.9780 O   0  0  0  0  0  0  0  0  0  0  0  0
  179.5750  179.1780  141.5430 N   0  0  0  0  0  2  0  0  0  0  0  0
  178.9310  179.4190  142.8270 C   0  0  0  0  0  2  0  0  0  0  0  0
  179.6720  178.6810  143.9260 C   0  0  0  0  0  1  0  0  0  0  0  0
  183.9640  178.6520  140.2080 S   0  0  0  0  0  0  0  0  0  0  0  0
  184.0860  178.0840  141.9320 C   0  0  2  0  0  3  0  0  0  0  0  0
  183.2260  178.9670  142.8200 C   0  0  0  0  0  1  0  0  0  0  0  0
  186.0250  179.0290  141.4500 C   0  0  0  0  0  1  0  0  0  0  0  0
  185.4150  178.1550  142.3520 O   0  0  0  0  0  0  0  0  0  0  0  0
  183.5660  176.8350  135.6140 C   0  0  0  0  0  2  0  0  0  0  0  0
  184.7100  175.0080  134.5940 O   0  0  0  0  0  1  0  0  0  0  0  0
  183.5890  175.3380  135.3570 C   0  0  1  0  0  3  0  0  0  0  0  0
  183.6330  174.6080  136.6630 C   0  0  0  0  0  3  0  0  0  0  0  0
  182.9460  173.4830  136.8970 C   0  0  0  0  0  3  0  0  0  0  0  0
  182.3770  171.5090  135.7320 F   0  0  0  0  0  0  0  0  0  0  0  0
  182.0430  172.8430  135.8890 C   0  0  0  0  0  2  0  0  0  0  0  0
  178.9770  181.4910  137.8750 C   0  0  0  0  0  2  0  0  0  0  0  0
  179.5000  182.9020  138.0570 C   0  0  0  0  0  2  0  0  0  0  0  0
  179.5220  183.5510  136.8250 O   0  0  0  0  0  1  0  0  0  0  0  0
  1  5  2  0  0  0  0
  2 10  1  0  0  0  0
  3  1  1  6  0  0  0
  3 12  1  0  0  0  0
  4 15  2  0  0  0  0
  5  7  1  0  0  0  0
  6  2  1  6  0  0  0
  6  3  1  0  0  0  0
  7 18  1  0  0  0  0
  8 17  1  0  0  0  0
  8 11  1  0  0  0  0
  9 16  1  0  0  0  0
 10 14  1  0  0  0  0
 11  1  1  0  0  0  0
 12  7  2  0  0  0  0
 12 16  1  0  0  0  0
 13 28  1  1  0  0  0
 13  6  1  0  0  0  0
 14  9  1  0  0  0  0
 14  4  2  0  0  0  0
 16 23  1  6  0  0  0
 17 13  1  0  0  0  0
 18 19  2  0  0  0  0
 18 20  1  0  0  0  0
 20 21  1  0  0  0  0
 21 22  1  0  0  0  0
 23 24  1  0  0  0  0
 24 27  1  0  0  0  0
 24 25  1  1  0  0  0
 26 27  1  0  0  0  0
 30 29  1  6  0  0  0
 30 28  1  0  0  0  0
 30 31  1  0  0  0  0
 31 32  2  0  0  0  0
 33 34  1  0  0  0  0
 34 32  1  0  0  0  0
 35  5  1  0  0  0  0
 35 36  1  0  0  0  0
 37 36  1  0  0  0  0
M  END
>  <MODEL>
4

>  <REMARK>
 VINA RESULT:      -4.3      2.379      4.986
  Name = 
  11 active torsions:
  status: ('A' for Active; 'I' for Inactive)
    1  A    between atoms: S_1  and  C_5
    2  A    between atoms: S_1  and  C_36
    3  A    between atoms: C_2  and  C_35
    4  A    between atoms: C_3  and  N_32
    5  A    between atoms: C_5  and  O_23
    6  A    between atoms: C_6  and  C_31
    7  A    between atoms: C_6  and  C_35
    8  A    between atoms: C_9  and  C_13
    9  A    between atoms: C_9  and  C_16
   10  A    between atoms: C_18  and  C_19
   11  A    between atoms: C_20  and  C_21
                            x       y       z     vdW  Elec       q    Type
                         _______ _______ _______ _____ _____    ______ ____

>  <TORSDO>
F 11

$$$$
=
 OpenBabel11052415313D

 37 39  0  0  1  0  0  0  0  0999 V2000
  183.5830  177.1950  138.9990 C   0  0  0  0  0  0  0  0  0  0  0  0
  183.0050  177.6910  136.0180 C   0  0  0  0  0  2  0  0  0  0  0  0
  183.9420  176.2030  137.9320 C   0  0  2  0  0  3  0  0  0  0  0  0
  180.5050  175.5590  135.0290 C   0  0  0  0  0  0  0  0  0  0  0  0
  182.3990  176.9060  139.5230 C   0  0  0  0  0  0  0  0  0  0  0  0
  184.1810  176.8770  136.5640 C   0  0  2  0  0  3  0  0  0  0  0  0
  181.8320  175.7460  138.8350 C   0  0  0  0  0  0  0  0  0  0  0  0
  185.1500  179.0560  138.4040 C   0  0  0  0  0  2  0  0  0  0  0  0
  182.6040  174.6830  135.6070 O   0  0  0  0  0  0  0  0  0  0  0  0
  182.4220  177.0220  134.7730 C   0  0  0  0  0  2  0  0  0  0  0  0
  184.4950  178.2610  139.5240 C   0  0  0  0  0  2  0  0  0  0  0  0
  182.7120  175.3340  137.9190 C   0  0  0  0  0  0  0  0  0  0  0  0
  185.5270  177.5960  136.3750 C   0  0  1  0  0  3  0  0  0  0  0  0
  181.7960  175.7130  135.1230 C   0  0  0  0  0  0  0  0  0  0  0  0
  179.2790  175.4190  134.9470 O   0  0  0  0  0  0  0  0  0  0  0  0
  182.4830  174.2110  136.9470 C   0  0  2  0  0  3  0  0  0  0  0  0
  186.1350  178.1750  137.6510 C   0  0  0  0  0  2  0  0  0  0  0  0
  180.4960  175.1620  139.1070 C   0  0  0  0  0  0  0  0  0  0  0  0
  179.5660  175.3170  138.2720 O   0  0  0  0  0  0  0  0  0  0  0  0
  180.2560  174.4080  140.3010 N   0  0  0  0  0  2  0  0  0  0  0  0
  178.9840  173.7580  140.5840 C   0  0  0  0  0  2  0  0  0  0  0  0
  178.9320  173.3310  142.0400 C   0  0  0  0  0  1  0  0  0  0  0  0
  183.6870  172.8780  137.2380 S   0  0  0  0  0  0  0  0  0  0  0  0
  182.4330  171.5770  137.0410 C   0  0  2  0  0  3  0  0  0  0  0  0
  182.9620  170.4970  136.1130 C   0  0  0  0  0  1  0  0  0  0  0  0
  180.2280  171.5000  137.1800 C   0  0  0  0  0  1  0  0  0  0  0  0
  181.2720  172.1290  136.4990 O   0  0  0  0  0  0  0  0  0  0  0  0
  186.5290  176.6500  135.7310 C   0  0  0  0  0  2  0  0  0  0  0  0
  187.0470  174.7690  137.1020 O   0  0  0  0  0  1  0  0  0  0  0  0
  187.4620  176.0610  136.7760 C   0  0  1  0  0  3  0  0  0  0  0  0
  188.8570  176.0230  136.2340 C   0  0  0  0  0  3  0  0  0  0  0  0
  189.8260  176.8480  136.6480 C   0  0  0  0  0  3  0  0  0  0  0  0
  189.4170  179.1370  137.0690 F   0  0  0  0  0  0  0  0  0  0  0  0
  189.6190  177.9120  137.6820 C   0  0  0  0  0  2  0  0  0  0  0  0
  181.7270  177.6990  140.5990 C   0  0  0  0  0  2  0  0  0  0  0  0
  180.6520  178.5800  139.9920 C   0  0  0  0  0  2  0  0  0  0  0  0
  181.1810  179.8410  139.7290 O   0  0  0  0  0  1  0  0  0  0  0  0
  1  5  2  0  0  0  0
  1 11  1  0  0  0  0
  3 12  1  6  0  0  0
  3  1  1  0  0  0  0
  4 14  2  0  0  0  0
  5 35  1  0  0  0  0
  6  2  1  1  0  0  0
  6  3  1  0  0  0  0
  7 18  1  0  0  0  0
  7  5  1  0  0  0  0
  8 11  1  0  0  0  0
  9 16  1  0  0  0  0
 10 14  1  0  0  0  0
 10  2  1  0  0  0  0
 12  7  2  0  0  0  0
 13 28  1  1  0  0  0
 13  6  1  0  0  0  0
 13 17  1  0  0  0  0
 14  9  1  0  0  0  0
 15  4  2  0  0  0  0
 16 23  1  1  0  0  0
 16 12  1  0  0  0  0
 17  8  1  0  0  0  0
 18 20  1  0  0  0  0
 19 18  2  0  0  0  0
 20 21  1  0  0  0  0
 21 22  1  0  0  0  0
 24 25  1  6  0  0  0
 24 23  1  0  0  0  0
 27 24  1  0  0  0  0
 27 26  1  0  0  0  0
 28 30  1  0  0  0  0
 30 29  1  6  0  0  0
 31 32  2  0  0  0  0
 31 30  1  0  0  0  0
 32 34  1  0  0  0  0
 33 34  1  0  0  0  0
 36 35  1  0  0  0  0
 37 36  1  0  0  0  0
M  END
>  <MODEL>
5

>  <REMARK>
 VINA RESULT:      -4.1      3.183      6.911
  Name = 
  11 active torsions:
  status: ('A' for Active; 'I' for Inactive)
    1  A    between atoms: S_1  and  C_5
    2  A    between atoms: S_1  and  C_36
    3  A    between atoms: C_2  and  C_35
    4  A    between atoms: C_3  and  N_32
    5  A    between atoms: C_5  and  O_23
    6  A    between atoms: C_6  and  C_31
    7  A    between atoms: C_6  and  C_35
    8  A    between atoms: C_9  and  C_13
    9  A    between atoms: C_9  and  C_16
   10  A    between atoms: C_18  and  C_19
   11  A    between atoms: C_20  and  C_21
                            x       y       z     vdW  Elec       q    Type
                         _______ _______ _______ _____ _____    ______ ____

>  <TORSDO>
F 11

$$$$
=
 OpenBabel11052415313D

 37 39  0  0  1  0  0  0  0  0999 V2000
  189.8030  176.8840  139.0560 C   0  0  0  0  0  0  0  0  0  0  0  0
  190.0880  177.4550  136.0460 C   0  0  0  0  0  2  0  0  0  0  0  0
  189.2670  175.9570  138.0040 C   0  0  2  0  0  3  0  0  0  0  0  0
  186.9890  178.2210  134.7890 C   0  0  0  0  0  0  0  0  0  0  0  0
  188.8580  177.7190  139.4640 C   0  0  0  0  0  0  0  0  0  0  0  0
  190.0510  176.0620  136.6780 C   0  0  2  0  0  3  0  0  0  0  0  0
  187.6320  177.4780  138.7030 C   0  0  0  0  0  0  0  0  0  0  0  0
  192.2610  176.6290  138.6450 C   0  0  0  0  0  2  0  0  0  0  0  0
  187.4220  176.0390  135.5350 O   0  0  0  0  0  0  0  0  0  0  0  0
  189.2950  177.4730  134.7390 C   0  0  0  0  0  2  0  0  0  0  0  0
  191.1590  176.7800  139.6840 C   0  0  0  0  0  2  0  0  0  0  0  0
  187.8570  176.4660  137.8610 C   0  0  0  0  0  0  0  0  0  0  0  0
  191.4180  175.3600  136.6270 C   0  0  1  0  0  3  0  0  0  0  0  0
  187.8420  177.2580  135.0030 C   0  0  0  0  0  0  0  0  0  0  0  0
  186.1840  179.1390  134.5940 O   0  0  0  0  0  0  0  0  0  0  0  0
  186.8730  175.9500  136.8480 C   0  0  2  0  0  3  0  0  0  0  0  0
  192.1500  175.2720  137.9650 C   0  0  0  0  0  2  0  0  0  0  0  0
  186.3760  178.2540  138.8400 C   0  0  0  0  0  0  0  0  0  0  0  0
  185.9210  178.8860  137.8490 O   0  0  0  0  0  0  0  0  0  0  0  0
  185.6630  178.2790  140.0820 N   0  0  0  0  0  2  0  0  0  0  0  0
  184.3920  178.9690  140.2520 C   0  0  0  0  0  2  0  0  0  0  0  0
  183.6080  178.3420  141.3900 C   0  0  0  0  0  1  0  0  0  0  0  0
  186.4440  174.2220  137.2180 S   0  0  0  0  0  0  0  0  0  0  0  0
  186.3310  173.7770  135.4590 C   0  0  2  0  0  3  0  0  0  0  0  0
  184.8800  173.5230  135.0910 C   0  0  0  0  0  1  0  0  0  0  0  0
  187.6640  172.3210  136.4540 C   0  0  0  0  0  1  0  0  0  0  0  0
  187.0800  172.6230  135.2230 O   0  0  0  0  0  0  0  0  0  0  0  0
  191.2560  173.9600  136.0560 C   0  0  0  0  0  2  0  0  0  0  0  0
  192.4160  171.9280  135.5930 O   0  0  0  0  0  1  0  0  0  0  0  0
  192.6030  173.2690  135.9350 C   0  0  1  0  0  3  0  0  0  0  0  0
  193.4200  173.9500  134.8810 C   0  0  0  0  0  3  0  0  0  0  0  0
  194.7190  174.2360  135.0320 C   0  0  0  0  0  3  0  0  0  0  0  0
  195.8620  175.1000  136.9100 F   0  0  0  0  0  0  0  0  0  0  0  0
  195.4930  173.9260  136.2760 C   0  0  0  0  0  2  0  0  0  0  0  0
  189.0520  178.7900  140.4910 C   0  0  0  0  0  2  0  0  0  0  0  0
  188.6730  178.2620  141.8610 C   0  0  0  0  0  2  0  0  0  0  0  0
  189.8080  178.2010  142.6650 O   0  0  0  0  0  1  0  0  0  0  0  0
  1  5  2  0  0  0  0
  1 11  1  0  0  0  0
  3 12  1  6  0  0  0
  3  1  1  0  0  0  0
  4 14  2  0  0  0  0
  5 35  1  0  0  0  0
  6  2  1  1  0  0  0
  6  3  1  0  0  0  0
  7 18  1  0  0  0  0
  7  5  1  0  0  0  0
  8 11  1  0  0  0  0
  9 16  1  0  0  0  0
 10 14  1  0  0  0  0
 10  2  1  0  0  0  0
 12  7  2  0  0  0  0
 13 28  1  1  0  0  0
 13  6  1  0  0  0  0
 13 17  1  0  0  0  0
 14  9  1  0  0  0  0
 15  4  2  0  0  0  0
 16 23  1  1  0  0  0
 16 12  1  0  0  0  0
 17  8  1  0  0  0  0
 18 20  1  0  0  0  0
 19 18  2  0  0  0  0
 20 21  1  0  0  0  0
 21 22  1  0  0  0  0
 24 25  1  1  0  0  0
 24 23  1  0  0  0  0
 27 24  1  0  0  0  0
 27 26  1  0  0  0  0
 30 29  1  6  0  0  0
 30 28  1  0  0  0  0
 31 32  2  0  0  0  0
 31 30  1  0  0  0  0
 32 34  1  0  0  0  0
 34 33  1  0  0  0  0
 35 36  1  0  0  0  0
 36 37  1  0  0  0  0
M  END
>  <MODEL>
6

>  <REMARK>
 VINA RESULT:      -3.9      5.413      9.126
  Name = 
  11 active torsions:
  status: ('A' for Active; 'I' for Inactive)
    1  A    between atoms: S_1  and  C_5
    2  A    between atoms: S_1  and  C_36
    3  A    between atoms: C_2  and  C_35
    4  A    between atoms: C_3  and  N_32
    5  A    between atoms: C_5  and  O_23
    6  A    between atoms: C_6  and  C_31
    7  A    between atoms: C_6  and  C_35
    8  A    between atoms: C_9  and  C_13
    9  A    between atoms: C_9  and  C_16
   10  A    between atoms: C_18  and  C_19
   11  A    between atoms: C_20  and  C_21
                            x       y       z     vdW  Elec       q    Type
                         _______ _______ _______ _____ _____    ______ ____

>  <TORSDO>
F 11

$$$$
=
 OpenBabel11052415313D

 37 39  0  0  1  0  0  0  0  0999 V2000
  184.5830  177.2320  137.8680 C   0  0  0  0  0  0  0  0  0  0  0  0
  182.9970  177.5180  135.2460 C   0  0  0  0  0  2  0  0  0  0  0  0
  183.5170  176.2570  137.4590 C   0  0  2  0  0  3  0  0  0  0  0  0
  179.7700  178.3890  136.0200 C   0  0  0  0  0  0  0  0  0  0  0  0
  184.0780  178.1650  138.6640 C   0  0  0  0  0  0  0  0  0  0  0  0
  183.3430  176.1910  135.9260 C   0  0  2  0  0  3  0  0  0  0  0  0
  182.6400  177.9450  138.8220 C   0  0  0  0  0  0  0  0  0  0  0  0
  186.2950  176.7690  136.0980 C   0  0  0  0  0  2  0  0  0  0  0  0
  180.5570  176.2540  136.5970 O   0  0  0  0  0  0  0  0  0  0  0  0
  181.5770  177.4770  134.6830 C   0  0  0  0  0  2  0  0  0  0  0  0
  186.0430  177.0870  137.5650 C   0  0  0  0  0  2  0  0  0  0  0  0
  182.3090  176.8510  138.1330 C   0  0  0  0  0  0  0  0  0  0  0  0
  184.4000  175.3920  135.1460 C   0  0  1  0  0  3  0  0  0  0  0  0
  180.5750  177.3900  135.7870 C   0  0  0  0  0  0  0  0  0  0  0  0
  179.0140  179.3400  136.2440 O   0  0  0  0  0  0  0  0  0  0  0  0
  180.9110  176.3200  137.9770 C   0  0  2  0  0  3  0  0  0  0  0  0
  185.7910  175.3700  135.7780 C   0  0  0  0  0  2  0  0  0  0  0  0
  181.7250  178.8170  139.5960 C   0  0  0  0  0  0  0  0  0  0  0  0
  181.5130  178.5740  140.8140 O   0  0  0  0  0  0  0  0  0  0  0  0
  181.0920  179.9450  138.9810 N   0  0  0  0  0  2  0  0  0  0  0  0
  180.2380  180.8710  139.7110 C   0  0  0  0  0  2  0  0  0  0  0  0
  179.6860  181.9240  138.7680 C   0  0  0  0  0  1  0  0  0  0  0  0
  180.7850  174.6650  138.7220 S   0  0  0  0  0  0  0  0  0  0  0  0
  179.3390  175.1250  139.7240 C   0  0  2  0  0  3  0  0  0  0  0  0
  178.9350  176.5540  139.4050 C   0  0  0  0  0  1  0  0  0  0  0  0
  179.2280  173.7500  141.4500 C   0  0  0  0  0  1  0  0  0  0  0  0
  179.6610  175.0240  141.0780 O   0  0  0  0  0  0  0  0  0  0  0  0
  183.9210  173.9620  134.9480 C   0  0  0  0  0  2  0  0  0  0  0  0
  183.6260  172.7660  136.9890 O   0  0  0  0  0  1  0  0  0  0  0  0
  184.5480  173.0370  135.9770 C   0  0  1  0  0  3  0  0  0  0  0  0
  184.9600  171.7590  135.3130 C   0  0  0  0  0  3  0  0  0  0  0  0
  186.2340  171.3580  135.2250 C   0  0  0  0  0  3  0  0  0  0  0  0
  187.9240  171.5160  136.8670 F   0  0  0  0  0  0  0  0  0  0  0  0
  187.3870  172.1490  135.7600 C   0  0  0  0  0  2  0  0  0  0  0  0
  184.8570  179.3040  139.2420 C   0  0  0  0  0  2  0  0  0  0  0  0
  185.2230  178.9980  140.6810 C   0  0  0  0  0  2  0  0  0  0  0  0
  186.6090  178.9940  140.8160 O   0  0  0  0  0  1  0  0  0  0  0  0
  1  5  2  0  0  0  0
  3  1  1  6  0  0  0
  3 12  1  0  0  0  0
  4 15  2  0  0  0  0
  5  7  1  0  0  0  0
  5 35  1  0  0  0  0
  6  2  1  6  0  0  0
  6  3  1  0  0  0  0
  7 18  1  0  0  0  0
  8 11  1  0  0  0  0
  9 16  1  0  0  0  0
 10  2  1  0  0  0  0
 10 14  1  0  0  0  0
 11  1  1  0  0  0  0
 12  7  2  0  0  0  0
 13 28  1  1  0  0  0
 13 17  1  0  0  0  0
 13  6  1  0  0  0  0
 14  4  2  0  0  0  0
 14  9  1  0  0  0  0
 16 12  1  0  0  0  0
 16 23  1  6  0  0  0
 17  8  1  0  0  0  0
 18 19  2  0  0  0  0
 20 18  1  0  0  0  0
 20 21  1  0  0  0  0
 22 21  1  0  0  0  0
 23 24  1  0  0  0  0
 24 25  1  6  0  0  0
 24 27  1  0  0  0  0
 27 26  1  0  0  0  0
 28 30  1  0  0  0  0
 30 29  1  1  0  0  0
 31 30  1  0  0  0  0
 32 31  2  0  0  0  0
 32 34  1  0  0  0  0
 34 33  1  0  0  0  0
 35 36  1  0  0  0  0
 36 37  1  0  0  0  0
M  END
>  <MODEL>
7

>  <REMARK>
 VINA RESULT:      -3.8      2.731      4.197
  Name = 
  11 active torsions:
  status: ('A' for Active; 'I' for Inactive)
    1  A    between atoms: S_1  and  C_5
    2  A    between atoms: S_1  and  C_36
    3  A    between atoms: C_2  and  C_35
    4  A    between atoms: C_3  and  N_32
    5  A    between atoms: C_5  and  O_23
    6  A    between atoms: C_6  and  C_31
    7  A    between atoms: C_6  and  C_35
    8  A    between atoms: C_9  and  C_13
    9  A    between atoms: C_9  and  C_16
   10  A    between atoms: C_18  and  C_19
   11  A    between atoms: C_20  and  C_21
                            x       y       z     vdW  Elec       q    Type
                         _______ _______ _______ _____ _____    ______ ____

>  <TORSDO>
F 11

$$$$
=
 OpenBabel11052415313D

 37 39  0  0  1  0  0  0  0  0999 V2000
  182.5420  176.7040  139.7030 C   0  0  0  0  0  0  0  0  0  0  0  0
  182.0950  178.7670  137.4650 C   0  0  0  0  0  2  0  0  0  0  0  0
  183.1990  176.5910  138.3580 C   0  0  2  0  0  3  0  0  0  0  0  0
  180.2320  177.2940  134.9890 C   0  0  0  0  0  0  0  0  0  0  0  0
  181.4200  175.9980  139.7320 C   0  0  0  0  0  0  0  0  0  0  0  0
  183.3810  177.9660  137.6790 C   0  0  2  0  0  3  0  0  0  0  0  0
  181.1870  175.3970  138.4190 C   0  0  0  0  0  0  0  0  0  0  0  0
  183.6820  178.7600  140.5690 C   0  0  0  0  0  2  0  0  0  0  0  0
  182.4250  176.5550  135.3740 O   0  0  0  0  0  0  0  0  0  0  0  0
  181.7770  178.8820  135.9740 C   0  0  0  0  0  2  0  0  0  0  0  0
  183.1430  177.3750  140.9000 C   0  0  0  0  0  2  0  0  0  0  0  0
  182.2050  175.7320  137.6220 C   0  0  0  0  0  0  0  0  0  0  0  0
  184.5360  178.8400  138.1920 C   0  0  1  0  0  3  0  0  0  0  0  0
  181.4430  177.5450  135.4020 C   0  0  0  0  0  0  0  0  0  0  0  0
  179.0810  177.0570  134.6050 O   0  0  0  0  0  0  0  0  0  0  0  0
  182.3150  175.3750  136.1660 C   0  0  2  0  0  3  0  0  0  0  0  0
  184.8970  178.6390  139.6620 C   0  0  0  0  0  2  0  0  0  0  0  0
  180.0040  174.5820  138.0520 C   0  0  0  0  0  0  0  0  0  0  0  0
  178.9590  175.1520  137.6370 O   0  0  0  0  0  0  0  0  0  0  0  0
  180.0410  173.1540  138.1460 N   0  0  0  0  0  2  0  0  0  0  0  0
  178.9320  172.3040  137.7350 C   0  0  0  0  0  2  0  0  0  0  0  0
  179.3670  171.3940  136.6010 C   0  0  0  0  0  1  0  0  0  0  0  0
  183.7660  174.3130  135.8910 S   0  0  0  0  0  0  0  0  0  0  0  0
  182.7650  172.9730  135.1780 C   0  0  2  0  0  3  0  0  0  0  0  0
  181.3970  173.5100  134.7930 C   0  0  0  0  0  1  0  0  0  0  0  0
  183.8610  171.8650  136.7440 C   0  0  0  0  0  1  0  0  0  0  0  0
  182.6160  171.9520  136.1170 O   0  0  0  0  0  0  0  0  0  0  0  0
  185.7750  178.6070  137.3390 C   0  0  0  0  0  2  0  0  0  0  0  0
  186.4660  176.3260  137.2790 O   0  0  0  0  0  1  0  0  0  0  0  0
  186.6560  177.5330  137.9540 C   0  0  1  0  0  3  0  0  0  0  0  0
  188.0920  177.9480  137.8540 C   0  0  0  0  0  3  0  0  0  0  0  0
  188.9040  178.0360  138.9140 C   0  0  0  0  0  3  0  0  0  0  0  0
  188.0630  178.9190  140.9370 F   0  0  0  0  0  0  0  0  0  0  0  0
  188.4640  177.7490  140.3160 C   0  0  0  0  0  2  0  0  0  0  0  0
  180.5040  175.9030  140.9120 C   0  0  0  0  0  2  0  0  0  0  0  0
  179.2770  176.7630  140.6800 C   0  0  0  0  0  2  0  0  0  0  0  0
  179.5770  178.0900  140.9780 O   0  0  0  0  0  1  0  0  0  0  0  0
  1  5  2  0  0  0  0
  1 11  1  0  0  0  0
  3 12  1  6  0  0  0
  3  1  1  0  0  0  0
  4 14  2  0  0  0  0
  5 35  1  0  0  0  0
  6  2  1  1  0  0  0
  6 13  1  0  0  0  0
  6  3  1  0  0  0  0
  7  5  1  0  0  0  0
  8 11  1  0  0  0  0
  9 14  1  0  0  0  0
  9 16  1  0  0  0  0
 10  2  1  0  0  0  0
 12  7  2  0  0  0  0
 13 28  1  6  0  0  0
 13 17  1  0  0  0  0
 14 10  1  0  0  0  0
 15  4  2  0  0  0  0
 16 23  1  1  0  0  0
 16 12  1  0  0  0  0
 17  8  1  0  0  0  0
 18 20  1  0  0  0  0
 18  7  1  0  0  0  0
 19 18  2  0  0  0  0
 21 20  1  0  0  0  0
 22 21  1  0  0  0  0
 24 25  1  1  0  0  0
 24 23  1  0  0  0  0
 24 27  1  0  0  0  0
 27 26  1  0  0  0  0
 28 30  1  0  0  0  0
 30 29  1  6  0  0  0
 31 30  1  0  0  0  0
 31 32  2  0  0  0  0
 32 34  1  0  0  0  0
 34 33  1  0  0  0  0
 36 35  1  0  0  0  0
 36 37  1  0  0  0  0
M  END
>  <MODEL>
8

>  <REMARK>
 VINA RESULT:      -3.7      3.180      7.247
  Name = 
  11 active torsions:
  status: ('A' for Active; 'I' for Inactive)
    1  A    between atoms: S_1  and  C_5
    2  A    between atoms: S_1  and  C_36
    3  A    between atoms: C_2  and  C_35
    4  A    between atoms: C_3  and  N_32
    5  A    between atoms: C_5  and  O_23
    6  A    between atoms: C_6  and  C_31
    7  A    between atoms: C_6  and  C_35
    8  A    between atoms: C_9  and  C_13
    9  A    between atoms: C_9  and  C_16
   10  A    between atoms: C_18  and  C_19
   11  A    between atoms: C_20  and  C_21
                            x       y       z     vdW  Elec       q    Type
                         _______ _______ _______ _____ _____    ______ ____

>  <TORSDO>
F 11

$$$$
=
 OpenBabel11052415313D

 37 39  0  0  1  0  0  0  0  0999 V2000
  180.4240  176.8660  140.4930 C   0  0  0  0  0  0  0  0  0  0  0  0
  179.9410  179.8960  140.2610 C   0  0  0  0  0  2  0  0  0  0  0  0
  181.5400  177.8680  140.5530 C   0  0  2  0  0  3  0  0  0  0  0  0
  181.1800  180.9630  137.2450 C   0  0  0  0  0  0  0  0  0  0  0  0
  180.2750  176.4110  139.2570 C   0  0  0  0  0  0  0  0  0  0  0  0
  181.0640  179.2430  141.0700 C   0  0  2  0  0  3  0  0  0  0  0  0
  181.2200  177.0880  138.3700 C   0  0  0  0  0  0  0  0  0  0  0  0
  179.2240  177.4290  142.6190 C   0  0  0  0  0  2  0  0  0  0  0  0
  182.6650  180.2150  138.9010 O   0  0  0  0  0  0  0  0  0  0  0  0
  180.4510  181.1490  139.5500 C   0  0  0  0  0  2  0  0  0  0  0  0
  179.6910  176.3240  141.6820 C   0  0  0  0  0  2  0  0  0  0  0  0
  181.9520  177.9280  139.1060 C   0  0  0  0  0  0  0  0  0  0  0  0
  180.8430  179.3700  142.5860 C   0  0  1  0  0  3  0  0  0  0  0  0
  181.4570  180.7910  138.5080 C   0  0  0  0  0  0  0  0  0  0  0  0
  180.9120  181.1200  136.0490 O   0  0  0  0  0  0  0  0  0  0  0  0
  182.9920  178.8690  138.5640 C   0  0  2  0  0  3  0  0  0  0  0  0
  180.4240  178.0800  143.2900 C   0  0  0  0  0  2  0  0  0  0  0  0
  181.3130  176.8820  136.9040 C   0  0  0  0  0  0  0  0  0  0  0  0
  180.5670  177.5430  136.1330 O   0  0  0  0  0  0  0  0  0  0  0  0
  182.2540  175.9540  136.3530 N   0  0  0  0  0  2  0  0  0  0  0  0
  182.4320  175.7620  134.9210 C   0  0  0  0  0  2  0  0  0  0  0  0
  183.3130  174.5540  134.6640 C   0  0  0  0  0  1  0  0  0  0  0  0
  184.6280  178.4470  139.2390 S   0  0  0  0  0  0  0  0  0  0  0  0
  185.3800  178.3250  137.5880 C   0  0  2  0  0  3  0  0  0  0  0  0
  185.5440  176.8630  137.2110 C   0  0  0  0  0  1  0  0  0  0  0  0
  187.4420  178.1190  136.8210 C   0  0  0  0  0  1  0  0  0  0  0  0
  186.6290  178.9460  137.5990 O   0  0  0  0  0  0  0  0  0  0  0  0
  182.1030  179.9100  143.2460 C   0  0  0  0  0  2  0  0  0  0  0  0
  184.1090  178.6850  142.8410 O   0  0  0  0  0  1  0  0  0  0  0  0
  183.0060  178.7720  143.6920 C   0  0  1  0  0  3  0  0  0  0  0  0
  183.4680  179.0230  145.0950 C   0  0  0  0  0  3  0  0  0  0  0  0
  184.6580  178.6200  145.5560 C   0  0  0  0  0  3  0  0  0  0  0  0
  186.8060  178.6020  144.5730 F   0  0  0  0  0  0  0  0  0  0  0  0
  185.6490  177.8580  144.7310 C   0  0  0  0  0  2  0  0  0  0  0  0
  179.2420  175.4130  138.8360 C   0  0  0  0  0  2  0  0  0  0  0  0
  179.8650  174.0330  138.7520 C   0  0  0  0  0  2  0  0  0  0  0  0
  179.7040  173.3760  139.9690 O   0  0  0  0  0  1  0  0  0  0  0  0
  1  3  1  0  0  0  0
  1 11  1  0  0  0  0
  3 12  1  6  0  0  0
  3  6  1  0  0  0  0
  4 14  2  0  0  0  0
  5  1  2  0  0  0  0
  6  2  1  6  0  0  0
  6 13  1  0  0  0  0
  7 12  2  0  0  0  0
  7  5  1  0  0  0  0
  8 17  1  0  0  0  0
 10  2  1  0  0  0  0
 11  8  1  0  0  0  0
 13 28  1  1  0  0  0
 13 17  1  0  0  0  0
 14  9  1  0  0  0  0
 14 10  1  0  0  0  0
 15  4  2  0  0  0  0
 16  9  1  0  0  0  0
 16 12  1  0  0  0  0
 16 23  1  1  0  0  0
 18  7  1  0  0  0  0
 19 18  2  0  0  0  0
 20 18  1  0  0  0  0
 21 20  1  0  0  0  0
 22 21  1  0  0  0  0
 24 25  1  1  0  0  0
 24 27  1  0  0  0  0
 24 23  1  0  0  0  0
 26 27  1  0  0  0  0
 28 30  1  0  0  0  0
 30 29  1  6  0  0  0
 30 31  1  0  0  0  0
 31 32  2  0  0  0  0
 33 34  1  0  0  0  0
 34 32  1  0  0  0  0
 35  5  1  0  0  0  0
 36 35  1  0  0  0  0
 36 37  1  0  0  0  0
M  END
>  <MODEL>
9

>  <REMARK>
 VINA RESULT:      -3.5      2.968      7.248
  Name = 
  11 active torsions:
  status: ('A' for Active; 'I' for Inactive)
    1  A    between atoms: S_1  and  C_5
    2  A    between atoms: S_1  and  C_36
    3  A    between atoms: C_2  and  C_35
    4  A    between atoms: C_3  and  N_32
    5  A    between atoms: C_5  and  O_23
    6  A    between atoms: C_6  and  C_31
    7  A    between atoms: C_6  and  C_35
    8  A    between atoms: C_9  and  C_13
    9  A    between atoms: C_9  and  C_16
   10  A    between atoms: C_18  and  C_19
   11  A    between atoms: C_20  and  C_21
                            x       y       z     vdW  Elec       q    Type
                         _______ _______ _______ _____ _____    ______ ____

>  <TORSDO>
F 11

$$$$
