=
 OpenBabel11052416543D

 32 36  0  0  1  0  0  0  0  0999 V2000
  187.5200  177.3300  136.3640 C   0  0  1  0  0  3  0  0  0  0  0  0
  189.0870  178.0140  141.2180 C   0  0  0  0  0  0  0  0  0  0  0  0
  185.0370  178.2520  143.8950 C   0  0  0  0  0  3  0  0  0  0  0  0
  185.8190  178.3340  145.0490 C   0  0  0  0  0  3  0  0  0  0  0  0
  189.0040  177.8470  138.7990 C   0  0  0  0  0  0  0  0  0  0  0  0
  186.9420  177.9420  140.0800 C   0  0  0  0  0  3  0  0  0  0  0  0
  186.7580  177.8220  137.5980 C   0  0  0  0  0  2  0  0  0  0  0  0
  185.6450  178.1490  142.6430 C   0  0  0  0  0  3  0  0  0  0  0  0
  187.6760  178.0270  141.2750 C   0  0  0  0  0  0  0  0  0  0  0  0
  187.0460  178.1270  142.5290 C   0  0  0  0  0  0  0  0  0  0  0  0
  189.2410  178.1890  143.5860 C   0  0  0  0  0  0  0  0  0  0  0  0
  188.8930  177.9970  136.2850 C   0  0  0  0  0  2  0  0  0  0  0  0
  187.5930  177.8370  138.8480 C   0  0  0  0  0  0  0  0  0  0  0  0
  189.7490  177.6640  137.5080 C   0  0  0  0  0  2  0  0  0  0  0  0
  187.2110  178.3140  144.9530 C   0  0  0  0  0  3  0  0  0  0  0  0
  187.8380  178.2110  143.7000 C   0  0  0  0  0  0  0  0  0  0  0  0
  189.7380  177.9200  139.9860 C   0  0  0  0  0  3  0  0  0  0  0  0
  189.8170  178.0960  142.3590 N   0  0  0  0  0  0  0  0  0  0  0  0
  186.6160  175.0640  136.7160 C   0  0  0  0  0  3  0  0  0  0  0  0
  187.6360  175.8350  136.3400 C   0  0  0  0  0  3  0  0  0  0  0  0
  186.7380  173.5770  136.6950 C   0  0  0  0  0  3  0  0  0  0  0  0
  188.1330  173.1930  136.8350 N   0  0  0  0  0  1  0  0  0  0  0  0
  185.9730  173.0150  137.7920 N   0  0  0  0  0  1  0  0  0  0  0  0
  190.1290  178.3110  144.7860 C   0  0  0  0  0  2  0  0  0  0  0  0
  190.2780  177.0860  146.9750 C   0  0  1  0  0  3  0  0  0  0  0  0
  191.6890  176.4080  145.1340 C   0  0  1  0  0  3  0  0  0  0  0  0
  192.1050  175.6020  146.3430 C   0  0  0  0  0  2  0  0  0  0  0  0
  191.4180  176.2450  147.5330 C   0  0  0  0  0  2  0  0  0  0  0  0
  191.6180  175.5810  144.0130 O   0  0  0  0  0  1  0  0  0  0  0  0
  190.3190  176.9580  145.4590 C   0  0  2  0  0  3  0  0  0  0  0  0
  188.9250  176.6730  147.5550 C   0  0  0  0  0  2  0  0  0  0  0  0
  188.3480  177.7150  148.5020 C   0  0  0  0  0  1  0  0  0  0  0  0
  1 20  1  1  0  0  0
  1  7  1  0  0  0  0
  2  9  1  0  0  0  0
  2 18  1  0  0  0  0
  3  4  1  0  0  0  0
  5 13  2  0  0  0  0
  5 17  1  0  0  0  0
  6  9  2  0  0  0  0
  7 13  1  0  0  0  0
  8  3  2  0  0  0  0
  9 10  1  0  0  0  0
 10  8  1  0  0  0  0
 10 16  2  0  0  0  0
 11 16  1  0  0  0  0
 11 24  1  0  0  0  0
 12  1  1  0  0  0  0
 12 14  1  0  0  0  0
 13  6  1  0  0  0  0
 14  5  1  0  0  0  0
 15  4  2  0  0  0  0
 16 15  1  0  0  0  0
 17  2  2  0  0  0  0
 18 11  2  0  0  0  0
 20 19  2  0  0  0  0
 21 19  1  0  0  0  0
 21 22  1  0  0  0  0
 21 23  1  0  0  0  0
 25 28  1  0  0  0  0
 25 31  1  1  0  0  0
 26 29  1  6  0  0  0
 26 30  1  0  0  0  0
 26 27  1  0  0  0  0
 27 28  1  0  0  0  0
 30 24  1  6  0  0  0
 30 25  1  0  0  0  0
 31 32  1  0  0  0  0
M  END
>  <MODEL>
1

>  <REMARK>
 VINA RESULT:      -9.3      0.000      0.000
  Name = 
  5 active torsions:
  status: ('A' for Active; 'I' for Inactive)
    1  A    between atoms: C_1  and  C_10
    2  A    between atoms: C_2  and  C_24
    3  A    between atoms: C_6  and  C_7
    4  A    between atoms: C_16  and  C_27
    5  A    between atoms: C_27  and  C_32
                            x       y       z     vdW  Elec       q    Type
                         _______ _______ _______ _____ _____    ______ ____

>  <TORSDO>
F 5

$$$$
=
 OpenBabel11052416543D

 32 36  0  0  1  0  0  0  0  0999 V2000
  180.6320  179.1000  141.6300 C   0  0  1  0  0  3  0  0  0  0  0  0
  185.4990  177.9410  142.8340 C   0  0  0  0  0  0  0  0  0  0  0  0
  185.8580  178.5670  147.6410 C   0  0  0  0  0  3  0  0  0  0  0  0
  187.1730  178.1010  147.5910 C   0  0  0  0  0  3  0  0  0  0  0  0
  183.4630  178.4800  141.6300 C   0  0  0  0  0  0  0  0  0  0  0  0
  183.5700  178.7970  144.0370 C   0  0  0  0  0  3  0  0  0  0  0  0
  181.4540  179.4260  142.8800 C   0  0  0  0  0  2  0  0  0  0  0  0
  185.0990  178.6460  146.4730 C   0  0  0  0  0  3  0  0  0  0  0  0
  184.8960  178.3370  144.0490 C   0  0  0  0  0  0  0  0  0  0  0  0
  185.6460  178.2600  145.2370 C   0  0  0  0  0  0  0  0  0  0  0  0
  187.5300  177.4020  143.9510 C   0  0  0  0  0  0  0  0  0  0  0  0
  181.4590  179.3450  140.3690 C   0  0  0  0  0  2  0  0  0  0  0  0
  182.8460  178.8580  142.8430 C   0  0  0  0  0  0  0  0  0  0  0  0
  182.7050  178.4580  140.3350 C   0  0  0  0  0  2  0  0  0  0  0  0
  187.7320  177.7150  146.3730 C   0  0  0  0  0  3  0  0  0  0  0  0
  186.9810  177.7890  145.1880 C   0  0  0  0  0  0  0  0  0  0  0  0
  184.7790  178.0110  141.6400 C   0  0  0  0  0  3  0  0  0  0  0  0
  186.7800  177.4930  142.8210 N   0  0  0  0  0  0  0  0  0  0  0  0
  179.5640  177.1420  140.5790 C   0  0  0  0  0  3  0  0  0  0  0  0
  180.0920  177.7010  141.6670 C   0  0  0  0  0  3  0  0  0  0  0  0
  179.0240  175.7510  140.6250 C   0  0  0  0  0  3  0  0  0  0  0  0
  179.7050  174.9250  139.6420 N   0  0  0  0  0  1  0  0  0  0  0  0
  179.2350  175.1950  141.9490 N   0  0  0  0  0  1  0  0  0  0  0  0
  188.9470  176.9310  143.8330 C   0  0  0  0  0  2  0  0  0  0  0  0
  190.0230  176.8890  141.5620 C   0  0  1  0  0  3  0  0  0  0  0  0
  191.0350  178.1830  143.3340 C   0  0  1  0  0  3  0  0  0  0  0  0
  191.9740  178.2250  142.1500 C   0  0  0  0  0  2  0  0  0  0  0  0
  191.4650  177.1810  141.1730 C   0  0  0  0  0  2  0  0  0  0  0  0
  190.9220  179.4540  143.8950 O   0  0  0  0  0  1  0  0  0  0  0  0
  189.7000  177.7380  142.7830 C   0  0  2  0  0  3  0  0  0  0  0  0
  189.0550  177.1440  140.4060 C   0  0  0  0  0  2  0  0  0  0  0  0
  188.9140  178.6220  140.0720 C   0  0  0  0  0  1  0  0  0  0  0  0
  1 20  1  1  0  0  0
  1  7  1  0  0  0  0
  2  9  1  0  0  0  0
  4  3  1  0  0  0  0
  5 17  2  0  0  0  0
  5 13  1  0  0  0  0
  6  9  1  0  0  0  0
  8  3  2  0  0  0  0
  9 10  2  0  0  0  0
 10  8  1  0  0  0  0
 11 16  2  0  0  0  0
 12  1  1  0  0  0  0
 13  7  1  0  0  0  0
 13  6  2  0  0  0  0
 14 12  1  0  0  0  0
 14  5  1  0  0  0  0
 15  4  2  0  0  0  0
 16 10  1  0  0  0  0
 16 15  1  0  0  0  0
 17  2  1  0  0  0  0
 18  2  2  0  0  0  0
 18 11  1  0  0  0  0
 19 21  1  0  0  0  0
 19 20  2  0  0  0  0
 21 23  1  0  0  0  0
 22 21  1  0  0  0  0
 24 11  1  0  0  0  0
 25 31  1  6  0  0  0
 25 30  1  0  0  0  0
 26 29  1  6  0  0  0
 27 26  1  0  0  0  0
 28 25  1  0  0  0  0
 28 27  1  0  0  0  0
 30 26  1  0  0  0  0
 30 24  1  1  0  0  0
 32 31  1  0  0  0  0
M  END
>  <MODEL>
2

>  <REMARK>
 VINA RESULT:      -9.1      3.534      5.971
  Name = 
  5 active torsions:
  status: ('A' for Active; 'I' for Inactive)
    1  A    between atoms: C_1  and  C_10
    2  A    between atoms: C_2  and  C_24
    3  A    between atoms: C_6  and  C_7
    4  A    between atoms: C_16  and  C_27
    5  A    between atoms: C_27  and  C_32
                            x       y       z     vdW  Elec       q    Type
                         _______ _______ _______ _____ _____    ______ ____

>  <TORSDO>
F 5

$$$$
=
 OpenBabel11052416543D

 32 36  0  0  1  0  0  0  0  0999 V2000
  190.2620  177.2670  137.1290 C   0  0  1  0  0  3  0  0  0  0  0  0
  188.5300  177.1060  141.9720 C   0  0  0  0  0  0  0  0  0  0  0  0
  184.2300  179.3720  141.9160 C   0  0  0  0  0  3  0  0  0  0  0  0
  184.0610  179.0580  143.2660 C   0  0  0  0  0  3  0  0  0  0  0  0
  189.9290  176.9850  139.9940 C   0  0  0  0  0  0  0  0  0  0  0  0
  187.7810  178.1150  139.8930 C   0  0  0  0  0  3  0  0  0  0  0  0
  189.1700  178.0850  137.8250 C   0  0  0  0  0  2  0  0  0  0  0  0
  185.3830  178.9670  141.2420 C   0  0  0  0  0  3  0  0  0  0  0  0
  187.5550  177.8280  141.2490 C   0  0  0  0  0  0  0  0  0  0  0  0
  186.3840  178.2410  141.9120 C   0  0  0  0  0  0  0  0  0  0  0  0
  187.2130  177.1970  143.9520 C   0  0  0  0  0  0  0  0  0  0  0  0
  191.4940  177.1510  138.0250 C   0  0  0  0  0  2  0  0  0  0  0  0
  188.9500  177.6880  139.2580 C   0  0  0  0  0  0  0  0  0  0  0  0
  191.1660  176.4420  139.3400 C   0  0  0  0  0  2  0  0  0  0  0  0
  185.0450  178.3380  143.9450 C   0  0  0  0  0  3  0  0  0  0  0  0
  186.2110  177.9240  143.2810 C   0  0  0  0  0  0  0  0  0  0  0  0
  189.7030  176.6870  141.3400 C   0  0  0  0  0  3  0  0  0  0  0  0
  188.3340  176.8180  143.2830 N   0  0  0  0  0  0  0  0  0  0  0  0
  188.4650  175.7050  136.4890 C   0  0  0  0  0  3  0  0  0  0  0  0
  189.7630  175.9170  136.7070 C   0  0  0  0  0  3  0  0  0  0  0  0
  187.9740  174.3590  136.0750 C   0  0  0  0  0  3  0  0  0  0  0  0
  189.0670  173.4020  136.1060 N   0  0  0  0  0  1  0  0  0  0  0  0
  186.9290  173.9260  136.9850 N   0  0  0  0  0  1  0  0  0  0  0  0
  187.1010  176.8650  145.4080 C   0  0  0  0  0  2  0  0  0  0  0  0
  189.2620  177.3080  146.6120 C   0  0  1  0  0  3  0  0  0  0  0  0
  187.1860  178.0900  147.5690 C   0  0  1  0  0  3  0  0  0  0  0  0
  188.2790  178.3640  148.5760 C   0  0  0  0  0  2  0  0  0  0  0  0
  189.5010  177.6100  148.0850 C   0  0  0  0  0  2  0  0  0  0  0  0
  186.3420  179.1970  147.4710 O   0  0  0  0  0  1  0  0  0  0  0  0
  187.8890  177.8580  146.2510 C   0  0  2  0  0  3  0  0  0  0  0  0
  190.3680  177.8800  145.7240 C   0  0  0  0  0  2  0  0  0  0  0  0
  191.4210  176.8460  145.3560 C   0  0  0  0  0  1  0  0  0  0  0  0
  1 20  1  1  0  0  0
  1  7  1  0  0  0  0
  1 12  1  0  0  0  0
  2 18  1  0  0  0  0
  3  4  1  0  0  0  0
  4 15  2  0  0  0  0
  5 17  1  0  0  0  0
  6  9  2  0  0  0  0
  7 13  1  0  0  0  0
  8 10  1  0  0  0  0
  8  3  2  0  0  0  0
  9 10  1  0  0  0  0
  9  2  1  0  0  0  0
 10 16  2  0  0  0  0
 11 24  1  0  0  0  0
 12 14  1  0  0  0  0
 13  6  1  0  0  0  0
 13  5  2  0  0  0  0
 14  5  1  0  0  0  0
 16 15  1  0  0  0  0
 16 11  1  0  0  0  0
 17  2  2  0  0  0  0
 18 11  2  0  0  0  0
 19 20  2  0  0  0  0
 21 22  1  0  0  0  0
 21 19  1  0  0  0  0
 21 23  1  0  0  0  0
 25 31  1  6  0  0  0
 25 28  1  0  0  0  0
 26 29  1  6  0  0  0
 26 27  1  0  0  0  0
 28 27  1  0  0  0  0
 30 24  1  6  0  0  0
 30 25  1  0  0  0  0
 30 26  1  0  0  0  0
 32 31  1  0  0  0  0
M  END
>  <MODEL>
3

>  <REMARK>
 VINA RESULT:      -8.7      1.852      2.818
  Name = 
  5 active torsions:
  status: ('A' for Active; 'I' for Inactive)
    1  A    between atoms: C_1  and  C_10
    2  A    between atoms: C_2  and  C_24
    3  A    between atoms: C_6  and  C_7
    4  A    between atoms: C_16  and  C_27
    5  A    between atoms: C_27  and  C_32
                            x       y       z     vdW  Elec       q    Type
                         _______ _______ _______ _____ _____    ______ ____

>  <TORSDO>
F 5

$$$$
=
 OpenBabel11052416543D

 32 36  0  0  1  0  0  0  0  0999 V2000
  181.9490  178.3690  139.5730 C   0  0  1  0  0  3  0  0  0  0  0  0
  186.3210  178.4380  142.2850 C   0  0  0  0  0  0  0  0  0  0  0  0
  184.9810  178.3480  146.9570 C   0  0  0  0  0  3  0  0  0  0  0  0
  186.3260  178.2840  147.3290 C   0  0  0  0  0  3  0  0  0  0  0  0
  184.6870  178.5740  140.4970 C   0  0  0  0  0  0  0  0  0  0  0  0
  183.9510  178.5130  142.8110 C   0  0  0  0  0  3  0  0  0  0  0  0
  182.2030  178.7040  141.0460 C   0  0  0  0  0  2  0  0  0  0  0  0
  184.6300  178.4010  145.6080 C   0  0  0  0  0  3  0  0  0  0  0  0
  185.2840  178.4460  143.2450 C   0  0  0  0  0  0  0  0  0  0  0  0
  185.6210  178.3900  144.6100 C   0  0  0  0  0  0  0  0  0  0  0  0
  187.9760  178.3150  143.9910 C   0  0  0  0  0  0  0  0  0  0  0  0
  182.9970  179.0370  138.6850 C   0  0  0  0  0  2  0  0  0  0  0  0
  183.6440  178.5610  141.4490 C   0  0  0  0  0  0  0  0  0  0  0  0
  184.4080  178.5520  139.0220 C   0  0  0  0  0  2  0  0  0  0  0  0
  187.3210  178.2730  146.3510 C   0  0  0  0  0  3  0  0  0  0  0  0
  186.9830  178.3260  144.9890 C   0  0  0  0  0  0  0  0  0  0  0  0
  186.0150  178.4970  140.9240 C   0  0  0  0  0  3  0  0  0  0  0  0
  187.6180  178.3750  142.6810 N   0  0  0  0  0  0  0  0  0  0  0  0
  181.1670  176.3760  138.3490 C   0  0  0  0  0  3  0  0  0  0  0  0
  181.8970  176.8880  139.3400 C   0  0  0  0  0  3  0  0  0  0  0  0
  181.1160  174.9020  138.1260 C   0  0  0  0  0  3  0  0  0  0  0  0
  179.8270  174.3820  138.5470 N   0  0  0  0  0  1  0  0  0  0  0  0
  181.3090  174.6220  136.7150 N   0  0  0  0  0  1  0  0  0  0  0  0
  189.4340  178.2850  144.3320 C   0  0  0  0  0  2  0  0  0  0  0  0
  190.8810  176.8530  145.8070 C   0  0  1  0  0  3  0  0  0  0  0  0
  190.6210  176.2770  143.4750 C   0  0  1  0  0  3  0  0  0  0  0  0
  191.6530  175.3400  144.0600 C   0  0  0  0  0  2  0  0  0  0  0  0
  192.0070  175.9040  145.4240 C   0  0  0  0  0  2  0  0  0  0  0  0
  189.7360  175.5630  142.6670 O   0  0  0  0  0  1  0  0  0  0  0  0
  189.8850  176.8670  144.6560 C   0  0  2  0  0  3  0  0  0  0  0  0
  190.2280  176.4610  147.1330 C   0  0  0  0  0  2  0  0  0  0  0  0
  189.9970  177.6530  148.0510 C   0  0  0  0  0  1  0  0  0  0  0  0
  1 20  1  1  0  0  0
  1  7  1  0  0  0  0
  2 18  2  0  0  0  0
  2  9  1  0  0  0  0
  3  4  1  0  0  0  0
  5 17  2  0  0  0  0
  5 13  1  0  0  0  0
  6  9  1  0  0  0  0
  7 13  1  0  0  0  0
  8  3  2  0  0  0  0
  9 10  2  0  0  0  0
 10 16  1  0  0  0  0
 10  8  1  0  0  0  0
 11 24  1  0  0  0  0
 11 16  2  0  0  0  0
 12 14  1  0  0  0  0
 12  1  1  0  0  0  0
 13  6  2  0  0  0  0
 14  5  1  0  0  0  0
 15  4  2  0  0  0  0
 16 15  1  0  0  0  0
 17  2  1  0  0  0  0
 18 11  1  0  0  0  0
 19 20  2  0  0  0  0
 21 19  1  0  0  0  0
 21 22  1  0  0  0  0
 23 21  1  0  0  0  0
 25 31  1  1  0  0  0
 26 29  1  6  0  0  0
 26 27  1  0  0  0  0
 26 30  1  0  0  0  0
 27 28  1  0  0  0  0
 28 25  1  0  0  0  0
 30 24  1  6  0  0  0
 30 25  1  0  0  0  0
 31 32  1  0  0  0  0
M  END
>  <MODEL>
4

>  <REMARK>
 VINA RESULT:      -8.4      3.113      4.054
  Name = 
  5 active torsions:
  status: ('A' for Active; 'I' for Inactive)
    1  A    between atoms: C_1  and  C_10
    2  A    between atoms: C_2  and  C_24
    3  A    between atoms: C_6  and  C_7
    4  A    between atoms: C_16  and  C_27
    5  A    between atoms: C_27  and  C_32
                            x       y       z     vdW  Elec       q    Type
                         _______ _______ _______ _____ _____    ______ ____

>  <TORSDO>
F 5

$$$$
=
 OpenBabel11052416543D

 32 36  0  0  1  0  0  0  0  0999 V2000
  179.3520  178.2400  138.6610 C   0  0  1  0  0  3  0  0  0  0  0  0
  184.1820  178.8170  140.3380 C   0  0  0  0  0  0  0  0  0  0  0  0
  183.9150  178.7470  145.1920 C   0  0  0  0  0  3  0  0  0  0  0  0
  185.3080  178.8240  145.2570 C   0  0  0  0  0  3  0  0  0  0  0  0
  182.1910  178.7390  138.9540 C   0  0  0  0  0  0  0  0  0  0  0  0
  181.9900  178.6800  141.3750 C   0  0  0  0  0  3  0  0  0  0  0  0
  179.8880  178.6450  140.0380 C   0  0  0  0  0  2  0  0  0  0  0  0
  183.2730  178.7230  143.9530 C   0  0  0  0  0  3  0  0  0  0  0  0
  183.3860  178.7560  141.5030 C   0  0  0  0  0  0  0  0  0  0  0  0
  184.0170  178.7760  142.7610 C   0  0  0  0  0  0  0  0  0  0  0  0
  186.1750  178.9090  141.6360 C   0  0  0  0  0  0  0  0  0  0  0  0
  180.1070  178.9780  137.5570 C   0  0  0  0  0  2  0  0  0  0  0  0
  181.3890  178.6550  140.1130 C   0  0  0  0  0  0  0  0  0  0  0  0
  181.5990  178.6430  137.5780 C   0  0  0  0  0  2  0  0  0  0  0  0
  186.0610  178.8780  144.0830 C   0  0  0  0  0  3  0  0  0  0  0  0
  185.4290  178.8550  142.8290 C   0  0  0  0  0  0  0  0  0  0  0  0
  183.5820  178.8030  139.0780 C   0  0  0  0  0  3  0  0  0  0  0  0
  185.5340  178.8930  140.4380 N   0  0  0  0  0  0  0  0  0  0  0  0
  179.1900  175.9190  139.4760 C   0  0  0  0  0  3  0  0  0  0  0  0
  179.4010  176.7550  138.4590 C   0  0  0  0  0  3  0  0  0  0  0  0
  179.2450  174.4420  139.2700 C   0  0  0  0  0  3  0  0  0  0  0  0
  180.2750  174.1160  138.2980 N   0  0  0  0  0  1  0  0  0  0  0  0
  179.5510  173.7910  140.5300 N   0  0  0  0  0  1  0  0  0  0  0  0
  187.6680  179.0310  141.6470 C   0  0  0  0  0  2  0  0  0  0  0  0
  189.3460  177.3660  142.5030 C   0  0  1  0  0  3  0  0  0  0  0  0
  189.0970  177.6880  140.1200 C   0  0  1  0  0  3  0  0  0  0  0  0
  190.2680  176.7550  140.3310 C   0  0  0  0  0  2  0  0  0  0  0  0
  190.5820  176.8040  141.8150 C   0  0  0  0  0  2  0  0  0  0  0  0
  188.2960  177.2170  139.0810 O   0  0  0  0  0  1  0  0  0  0  0  0
  188.3230  177.6750  141.4180 C   0  0  2  0  0  3  0  0  0  0  0  0
  188.7960  176.4120  143.5630 C   0  0  0  0  0  2  0  0  0  0  0  0
  188.9600  176.9480  144.9780 C   0  0  0  0  0  1  0  0  0  0  0  0
  1 20  1  6  0  0  0
  1  7  1  0  0  0  0
  2 18  2  0  0  0  0
  2  9  1  0  0  0  0
  3  4  1  0  0  0  0
  5 17  2  0  0  0  0
  5 13  1  0  0  0  0
  6  9  1  0  0  0  0
  7 13  1  0  0  0  0
  8  3  2  0  0  0  0
  9 10  2  0  0  0  0
 10 16  1  0  0  0  0
 10  8  1  0  0  0  0
 11 24  1  0  0  0  0
 11 16  2  0  0  0  0
 12 14  1  0  0  0  0
 12  1  1  0  0  0  0
 13  6  2  0  0  0  0
 14  5  1  0  0  0  0
 15  4  2  0  0  0  0
 16 15  1  0  0  0  0
 17  2  1  0  0  0  0
 18 11  1  0  0  0  0
 20 19  2  0  0  0  0
 21 19  1  0  0  0  0
 21 23  1  0  0  0  0
 22 21  1  0  0  0  0
 25 31  1  1  0  0  0
 26 29  1  6  0  0  0
 26 27  1  0  0  0  0
 26 30  1  0  0  0  0
 27 28  1  0  0  0  0
 28 25  1  0  0  0  0
 30 24  1  1  0  0  0
 30 25  1  0  0  0  0
 31 32  1  0  0  0  0
M  END
>  <MODEL>
5

>  <REMARK>
 VINA RESULT:      -8.3      4.353      5.829
  Name = 
  5 active torsions:
  status: ('A' for Active; 'I' for Inactive)
    1  A    between atoms: C_1  and  C_10
    2  A    between atoms: C_2  and  C_24
    3  A    between atoms: C_6  and  C_7
    4  A    between atoms: C_16  and  C_27
    5  A    between atoms: C_27  and  C_32
                            x       y       z     vdW  Elec       q    Type
                         _______ _______ _______ _____ _____    ______ ____

>  <TORSDO>
F 5

$$$$
=
 OpenBabel11052416543D

 32 36  0  0  1  0  0  0  0  0999 V2000
  192.6710  175.1890  135.6790 C   0  0  1  0  0  3  0  0  0  0  0  0
  191.3140  177.1990  140.2180 C   0  0  0  0  0  0  0  0  0  0  0  0
  186.5840  178.2530  139.8370 C   0  0  0  0  0  3  0  0  0  0  0  0
  186.5770  178.6470  141.1770 C   0  0  0  0  0  3  0  0  0  0  0  0
  192.5840  176.3530  138.3320 C   0  0  0  0  0  0  0  0  0  0  0  0
  190.2170  176.8410  138.0810 C   0  0  0  0  0  3  0  0  0  0  0  0
  191.4490  176.0230  136.0750 C   0  0  0  0  0  2  0  0  0  0  0  0
  187.7620  177.7890  139.2510 C   0  0  0  0  0  3  0  0  0  0  0  0
  190.1480  177.2500  139.4220 C   0  0  0  0  0  0  0  0  0  0  0  0
  188.9510  177.7120  139.9980 C   0  0  0  0  0  0  0  0  0  0  0  0
  190.1320  178.0370  142.1060 C   0  0  0  0  0  0  0  0  0  0  0  0
  193.9410  175.7840  136.2860 C   0  0  0  0  0  2  0  0  0  0  0  0
  191.4180  176.3800  137.5350 C   0  0  0  0  0  0  0  0  0  0  0  0
  193.8790  175.7980  137.8140 C   0  0  0  0  0  2  0  0  0  0  0  0
  187.7480  178.5780  141.9330 C   0  0  0  0  0  3  0  0  0  0  0  0
  188.9420  178.1130  141.3560 C   0  0  0  0  0  0  0  0  0  0  0  0
  192.5170  176.7480  139.6710 C   0  0  0  0  0  3  0  0  0  0  0  0
  191.2720  177.5900  141.5170 N   0  0  0  0  0  0  0  0  0  0  0  0
  193.3430  172.8190  135.5940 C   0  0  0  0  0  3  0  0  0  0  0  0
  192.5070  173.7470  136.0570 C   0  0  0  0  0  3  0  0  0  0  0  0
  193.1720  171.3850  135.9700 C   0  0  0  0  0  3  0  0  0  0  0  0
  193.0580  170.5700  134.7720 N   0  0  0  0  0  1  0  0  0  0  0  0
  194.3210  170.9480  136.7410 N   0  0  0  0  0  1  0  0  0  0  0  0
  190.1900  178.4810  143.5350 C   0  0  0  0  0  2  0  0  0  0  0  0
  188.9210  177.6730  145.5480 C   0  0  1  0  0  3  0  0  0  0  0  0
  191.2080  176.9640  145.2200 C   0  0  1  0  0  3  0  0  0  0  0  0
  190.7650  176.4510  146.5720 C   0  0  0  0  0  2  0  0  0  0  0  0
  189.4520  177.1480  146.8750 C   0  0  0  0  0  2  0  0  0  0  0  0
  191.9050  175.9670  144.5390 O   0  0  0  0  0  1  0  0  0  0  0  0
  189.9390  177.3100  144.4760 C   0  0  2  0  0  3  0  0  0  0  0  0
  187.5280  177.1280  145.2330 C   0  0  0  0  0  2  0  0  0  0  0  0
  186.4240  178.1370  145.5150 C   0  0  0  0  0  1  0  0  0  0  0  0
  1 20  1  1  0  0  0
  1  7  1  0  0  0  0
  1 12  1  0  0  0  0
  2 18  1  0  0  0  0
  3  4  1  0  0  0  0
  4 15  2  0  0  0  0
  5 17  1  0  0  0  0
  6  9  2  0  0  0  0
  7 13  1  0  0  0  0
  8  3  2  0  0  0  0
  8 10  1  0  0  0  0
  9 10  1  0  0  0  0
  9  2  1  0  0  0  0
 10 16  2  0  0  0  0
 11 24  1  0  0  0  0
 12 14  1  0  0  0  0
 13  6  1  0  0  0  0
 13  5  2  0  0  0  0
 14  5  1  0  0  0  0
 16 15  1  0  0  0  0
 16 11  1  0  0  0  0
 17  2  2  0  0  0  0
 18 11  2  0  0  0  0
 19 21  1  0  0  0  0
 19 20  2  0  0  0  0
 21 23  1  0  0  0  0
 22 21  1  0  0  0  0
 25 31  1  6  0  0  0
 25 28  1  0  0  0  0
 26 29  1  6  0  0  0
 26 27  1  0  0  0  0
 27 28  1  0  0  0  0
 30 24  1  6  0  0  0
 30 26  1  0  0  0  0
 30 25  1  0  0  0  0
 31 32  1  0  0  0  0
M  END
>  <MODEL>
6

>  <REMARK>
 VINA RESULT:      -8.0      3.095      4.116
  Name = 
  5 active torsions:
  status: ('A' for Active; 'I' for Inactive)
    1  A    between atoms: C_1  and  C_10
    2  A    between atoms: C_2  and  C_24
    3  A    between atoms: C_6  and  C_7
    4  A    between atoms: C_16  and  C_27
    5  A    between atoms: C_27  and  C_32
                            x       y       z     vdW  Elec       q    Type
                         _______ _______ _______ _____ _____    ______ ____

>  <TORSDO>
F 5

$$$$
=
 OpenBabel11052416543D

 32 36  0  0  1  0  0  0  0  0999 V2000
  180.6170  178.7960  138.6820 C   0  0  1  0  0  3  0  0  0  0  0  0
  185.3760  178.6300  140.6320 C   0  0  0  0  0  0  0  0  0  0  0  0
  188.3320  177.8750  136.8480 C   0  0  0  0  0  3  0  0  0  0  0  0
  189.4320  177.9820  137.7010 C   0  0  0  0  0  3  0  0  0  0  0  0
  182.9640  178.6550  140.3770 C   0  0  0  0  0  0  0  0  0  0  0  0
  184.3860  178.2930  138.4400 C   0  0  0  0  0  3  0  0  0  0  0  0
  181.9200  178.2520  138.0880 C   0  0  0  0  0  2  0  0  0  0  0  0
  187.0380  178.0110  137.3530 C   0  0  0  0  0  3  0  0  0  0  0  0
  185.5300  178.3910  139.2490 C   0  0  0  0  0  0  0  0  0  0  0  0
  186.8280  178.2550  138.7220 C   0  0  0  0  0  0  0  0  0  0  0  0
  187.7340  178.6060  140.9570 C   0  0  0  0  0  0  0  0  0  0  0  0
  180.4720  178.3590  140.1390 C   0  0  0  0  0  2  0  0  0  0  0  0
  183.1090  178.4380  138.9890 C   0  0  0  0  0  0  0  0  0  0  0  0
  181.6190  178.8900  141.0010 C   0  0  0  0  0  2  0  0  0  0  0  0
  189.2400  178.2230  139.0620 C   0  0  0  0  0  3  0  0  0  0  0  0
  187.9440  178.3620  139.5860 C   0  0  0  0  0  0  0  0  0  0  0  0
  184.1000  178.7650  141.1830 C   0  0  0  0  0  3  0  0  0  0  0  0
  186.4670  178.7270  141.4340 N   0  0  0  0  0  0  0  0  0  0  0  0
  180.8630  180.8930  137.4090 C   0  0  0  0  0  3  0  0  0  0  0  0
  180.5240  180.2870  138.5460 C   0  0  0  0  0  3  0  0  0  0  0  0
  180.7730  182.3770  137.2820 C   0  0  0  0  0  3  0  0  0  0  0  0
  180.5310  182.7400  135.8960 N   0  0  0  0  0  1  0  0  0  0  0  0
  179.6810  182.8650  138.1040 N   0  0  0  0  0  1  0  0  0  0  0  0
  188.8750  178.6920  141.9230 C   0  0  0  0  0  2  0  0  0  0  0  0
  188.8160  177.5780  144.1760 C   0  0  1  0  0  3  0  0  0  0  0  0
  190.4600  176.8830  142.5470 C   0  0  1  0  0  3  0  0  0  0  0  0
  190.7640  176.1540  143.8360 C   0  0  0  0  0  2  0  0  0  0  0  0
  189.9160  176.8190  144.9040 C   0  0  0  0  0  2  0  0  0  0  0  0
  190.5560  176.0020  141.4700 O   0  0  0  0  0  1  0  0  0  0  0  0
  189.0400  177.3830  142.6820 C   0  0  2  0  0  3  0  0  0  0  0  0
  187.4220  177.1300  144.6160 C   0  0  0  0  0  2  0  0  0  0  0  0
  186.9240  177.8770  145.8440 C   0  0  0  0  0  1  0  0  0  0  0  0
  1 20  1  1  0  0  0
  1 12  1  0  0  0  0
  2 17  2  0  0  0  0
  2 18  1  0  0  0  0
  3  8  2  0  0  0  0
  3  4  1  0  0  0  0
  4 15  2  0  0  0  0
  5 14  1  0  0  0  0
  5 17  1  0  0  0  0
  6 13  1  0  0  0  0
  6  9  2  0  0  0  0
  7  1  1  0  0  0  0
  7 13  1  0  0  0  0
  8 10  1  0  0  0  0
  9  2  1  0  0  0  0
 10  9  1  0  0  0  0
 10 16  2  0  0  0  0
 11 18  2  0  0  0  0
 11 24  1  0  0  0  0
 12 14  1  0  0  0  0
 13  5  2  0  0  0  0
 15 16  1  0  0  0  0
 16 11  1  0  0  0  0
 19 20  2  0  0  0  0
 21 19  1  0  0  0  0
 21 23  1  0  0  0  0
 22 21  1  0  0  0  0
 25 31  1  1  0  0  0
 25 28  1  0  0  0  0
 26 29  1  6  0  0  0
 26 30  1  0  0  0  0
 26 27  1  0  0  0  0
 27 28  1  0  0  0  0
 30 24  1  6  0  0  0
 30 25  1  0  0  0  0
 31 32  1  0  0  0  0
M  END
>  <MODEL>
7

>  <REMARK>
 VINA RESULT:      -7.9      4.367      6.245
  Name = 
  5 active torsions:
  status: ('A' for Active; 'I' for Inactive)
    1  A    between atoms: C_1  and  C_10
    2  A    between atoms: C_2  and  C_24
    3  A    between atoms: C_6  and  C_7
    4  A    between atoms: C_16  and  C_27
    5  A    between atoms: C_27  and  C_32
                            x       y       z     vdW  Elec       q    Type
                         _______ _______ _______ _____ _____    ______ ____

>  <TORSDO>
F 5

$$$$
=
 OpenBabel11052416543D

 32 36  0  0  1  0  0  0  0  0999 V2000
  189.2940  175.4960  134.5940 C   0  0  1  0  0  3  0  0  0  0  0  0
  189.2580  177.4820  139.3400 C   0  0  0  0  0  0  0  0  0  0  0  0
  184.6920  178.9550  140.1240 C   0  0  0  0  0  3  0  0  0  0  0  0
  185.0430  179.3090  141.4290 C   0  0  0  0  0  3  0  0  0  0  0  0
  189.9540  176.5850  137.1970 C   0  0  0  0  0  0  0  0  0  0  0  0
  187.6510  177.2840  137.5300 C   0  0  0  0  0  3  0  0  0  0  0  0
  188.2840  176.4210  135.2800 C   0  0  0  0  0  2  0  0  0  0  0  0
  185.6470  178.4080  139.2670 C   0  0  0  0  0  3  0  0  0  0  0  0
  187.9450  177.6580  138.8510 C   0  0  0  0  0  0  0  0  0  0  0  0
  186.9680  178.2060  139.7030 C   0  0  0  0  0  0  0  0  0  0  0  0
  188.6460  178.3640  141.4640 C   0  0  0  0  0  0  0  0  0  0  0  0
  190.7220  175.9600  134.8790 C   0  0  0  0  0  2  0  0  0  0  0  0
  188.6390  176.7370  136.7060 C   0  0  0  0  0  0  0  0  0  0  0  0
  191.0300  175.9350  136.3770 C   0  0  0  0  0  2  0  0  0  0  0  0
  186.3500  179.1160  141.8780 C   0  0  0  0  0  3  0  0  0  0  0  0
  187.3230  178.5660  141.0260 C   0  0  0  0  0  0  0  0  0  0  0  0
  190.2470  176.9450  138.5150 C   0  0  0  0  0  3  0  0  0  0  0  0
  189.5650  177.8370  140.6140 N   0  0  0  0  0  0  0  0  0  0  0  0
  187.9280  173.4530  134.7840 C   0  0  0  0  0  3  0  0  0  0  0  0
  189.0940  174.0630  134.9900 C   0  0  0  0  0  3  0  0  0  0  0  0
  187.7330  172.0290  135.1840 C   0  0  0  0  0  3  0  0  0  0  0  0
  187.9730  171.8790  136.6100 N   0  0  0  0  0  1  0  0  0  0  0  0
  186.3730  171.6240  134.8810 N   0  0  0  0  0  1  0  0  0  0  0  0
  189.0870  178.7600  142.8400 C   0  0  0  0  0  2  0  0  0  0  0  0
  188.6480  177.7900  145.1170 C   0  0  1  0  0  3  0  0  0  0  0  0
  190.6950  177.2320  143.9600 C   0  0  1  0  0  3  0  0  0  0  0  0
  190.7810  176.6340  145.3460 C   0  0  0  0  0  2  0  0  0  0  0  0
  189.6360  177.2390  146.1360 C   0  0  0  0  0  2  0  0  0  0  0  0
  191.1430  176.3080  143.0160 O   0  0  0  0  0  1  0  0  0  0  0  0
  189.2320  177.5360  143.7340 C   0  0  2  0  0  3  0  0  0  0  0  0
  187.2560  177.1800  145.2800 C   0  0  0  0  0  2  0  0  0  0  0  0
  186.1450  178.2140  145.1800 C   0  0  0  0  0  1  0  0  0  0  0  0
  1 12  1  0  0  0  0
  1 20  1  1  0  0  0
  1  7  1  0  0  0  0
  2 18  1  0  0  0  0
  3  4  1  0  0  0  0
  4 15  2  0  0  0  0
  5 17  1  0  0  0  0
  6  9  2  0  0  0  0
  7 13  1  0  0  0  0
  8 10  1  0  0  0  0
  8  3  2  0  0  0  0
  9  2  1  0  0  0  0
  9 10  1  0  0  0  0
 10 16  2  0  0  0  0
 11 24  1  0  0  0  0
 12 14  1  0  0  0  0
 13  5  2  0  0  0  0
 13  6  1  0  0  0  0
 14  5  1  0  0  0  0
 16 11  1  0  0  0  0
 16 15  1  0  0  0  0
 17  2  2  0  0  0  0
 18 11  2  0  0  0  0
 19 20  2  0  0  0  0
 19 21  1  0  0  0  0
 21 22  1  0  0  0  0
 23 21  1  0  0  0  0
 25 31  1  6  0  0  0
 25 28  1  0  0  0  0
 26 29  1  6  0  0  0
 26 27  1  0  0  0  0
 27 28  1  0  0  0  0
 30 24  1  6  0  0  0
 30 26  1  0  0  0  0
 30 25  1  0  0  0  0
 32 31  1  0  0  0  0
M  END
>  <MODEL>
8

>  <REMARK>
 VINA RESULT:      -7.2      1.651      2.688
  Name = 
  5 active torsions:
  status: ('A' for Active; 'I' for Inactive)
    1  A    between atoms: C_1  and  C_10
    2  A    between atoms: C_2  and  C_24
    3  A    between atoms: C_6  and  C_7
    4  A    between atoms: C_16  and  C_27
    5  A    between atoms: C_27  and  C_32
                            x       y       z     vdW  Elec       q    Type
                         _______ _______ _______ _____ _____    ______ ____

>  <TORSDO>
F 5

$$$$
=
 OpenBabel11052416543D

 32 36  0  0  1  0  0  0  0  0999 V2000
  181.6930  180.1030  137.9630 C   0  0  1  0  0  3  0  0  0  0  0  0
  184.4890  178.2270  141.8550 C   0  0  0  0  0  0  0  0  0  0  0  0
  189.0590  178.0010  140.2130 C   0  0  0  0  0  3  0  0  0  0  0  0
  189.4780  177.5770  141.4760 C   0  0  0  0  0  3  0  0  0  0  0  0
  182.6530  178.8980  140.4170 C   0  0  0  0  0  0  0  0  0  0  0  0
  184.9180  178.8250  139.5400 C   0  0  0  0  0  3  0  0  0  0  0  0
  183.0910  179.4770  137.9760 C   0  0  0  0  0  2  0  0  0  0  0  0
  187.7110  178.2750  139.9790 C   0  0  0  0  0  3  0  0  0  0  0  0
  185.3980  178.3970  140.7880 C   0  0  0  0  0  0  0  0  0  0  0  0
  186.7620  178.1280  141.0070 C   0  0  0  0  0  0  0  0  0  0  0  0
  186.2400  177.5500  143.3170 C   0  0  0  0  0  0  0  0  0  0  0  0
  180.7360  179.2850  138.8280 C   0  0  0  0  0  2  0  0  0  0  0  0
  183.5590  179.0910  139.3510 C   0  0  0  0  0  0  0  0  0  0  0  0
  181.1970  179.2390  140.2850 C   0  0  0  0  0  2  0  0  0  0  0  0
  188.5500  177.4260  142.5070 C   0  0  0  0  0  3  0  0  0  0  0  0
  187.1890  177.6980  142.2870 C   0  0  0  0  0  0  0  0  0  0  0  0
  183.1290  178.4830  141.6640 C   0  0  0  0  0  3  0  0  0  0  0  0
  184.9300  177.8130  143.0700 N   0  0  0  0  0  0  0  0  0  0  0  0
  181.1200  182.4820  137.6620 C   0  0  0  0  0  3  0  0  0  0  0  0
  181.7230  181.5410  138.3880 C   0  0  0  0  0  3  0  0  0  0  0  0
  181.1570  183.9110  138.0870 C   0  0  0  0  0  3  0  0  0  0  0  0
  182.3850  184.5340  137.6220 N   0  0  0  0  0  1  0  0  0  0  0  0
  180.0190  184.6120  137.5220 N   0  0  0  0  0  1  0  0  0  0  0  0
  186.6280  177.0630  144.6790 C   0  0  0  0  0  2  0  0  0  0  0  0
  187.8110  177.7480  146.7880 C   0  0  1  0  0  3  0  0  0  0  0  0
  185.7840  178.8910  146.1360 C   0  0  1  0  0  3  0  0  0  0  0  0
  186.1750  179.4070  147.5020 C   0  0  0  0  0  2  0  0  0  0  0  0
  187.2630  178.4770  148.0070 C   0  0  0  0  0  2  0  0  0  0  0  0
  185.4010  179.9540  145.3190 O   0  0  0  0  0  1  0  0  0  0  0  0
  187.0220  178.2280  145.5780 C   0  0  2  0  0  3  0  0  0  0  0  0
  189.3150  177.9610  146.6210 C   0  0  0  0  0  2  0  0  0  0  0  0
  189.7180  178.2060  145.1740 C   0  0  0  0  0  1  0  0  0  0  0  0
  1  7  1  0  0  0  0
  1 20  1  1  0  0  0
  1 12  1  0  0  0  0
  2 18  1  0  0  0  0
  3  4  1  0  0  0  0
  4 15  2  0  0  0  0
  5 17  1  0  0  0  0
  6  9  2  0  0  0  0
  7 13  1  0  0  0  0
  8  3  2  0  0  0  0
  8 10  1  0  0  0  0
  9 10  1  0  0  0  0
  9  2  1  0  0  0  0
 10 16  2  0  0  0  0
 11 24  1  0  0  0  0
 12 14  1  0  0  0  0
 13  6  1  0  0  0  0
 13  5  2  0  0  0  0
 14  5  1  0  0  0  0
 16 15  1  0  0  0  0
 16 11  1  0  0  0  0
 17  2  2  0  0  0  0
 18 11  2  0  0  0  0
 19 21  1  0  0  0  0
 19 20  2  0  0  0  0
 22 21  1  0  0  0  0
 23 21  1  0  0  0  0
 25 31  1  6  0  0  0
 25 28  1  0  0  0  0
 26 29  1  6  0  0  0
 26 27  1  0  0  0  0
 27 28  1  0  0  0  0
 30 24  1  6  0  0  0
 30 26  1  0  0  0  0
 30 25  1  0  0  0  0
 32 31  1  0  0  0  0
M  END
>  <MODEL>
9

>  <REMARK>
 VINA RESULT:      -7.0      4.712      6.445
  Name = 
  5 active torsions:
  status: ('A' for Active; 'I' for Inactive)
    1  A    between atoms: C_1  and  C_10
    2  A    between atoms: C_2  and  C_24
    3  A    between atoms: C_6  and  C_7
    4  A    between atoms: C_16  and  C_27
    5  A    between atoms: C_27  and  C_32
                            x       y       z     vdW  Elec       q    Type
                         _______ _______ _______ _____ _____    ______ ____

>  <TORSDO>
F 5

$$$$
