=
 OpenBabel11052415023D

 55 59  0  0  1  0  0  0  0  0999 V2000
  186.1670  175.1230  136.3780 C   0  0  0  0  0  2  0  0  0  0  0  0
  189.8510  174.0320  136.2840 C   0  0  0  0  0  2  0  0  0  0  0  0
  188.2370  176.0000  137.5420 C   0  0  1  0  0  3  0  0  0  0  0  0
  189.6400  176.1050  137.4700 O   0  0  0  0  0  0  0  0  0  0  0  0
  186.2860  177.6150  137.0420 C   0  0  2  0  0  3  0  0  0  0  0  0
  185.4580  176.3220  137.0210 C   0  0  1  0  0  3  0  0  0  0  0  0
  186.5160  178.0830  135.7470 O   0  0  0  0  0  1  0  0  0  0  0  0
  188.3370  173.9340  136.1130 C   0  0  0  0  0  2  0  0  0  0  0  0
  190.1530  174.8000  137.5680 C   0  0  0  0  0  2  0  0  0  0  0  0
  187.6290  177.4000  137.7490 C   0  0  1  0  0  3  0  0  0  0  0  0
  187.6820  175.3030  136.2830 C   0  0  1  0  0  3  0  0  0  0  0  0
  183.8750  176.9410  135.3630 O   0  0  0  0  0  0  0  0  0  0  0  0
  184.0490  176.5220  136.5390 C   0  0  0  0  0  0  0  0  0  0  0  0
  182.4960  175.5900  139.5670 O   0  0  0  0  0  0  0  0  0  0  0  0
  182.9060  176.1620  137.3370 N   0  0  0  0  0  0  0  0  0  0  0  0
  182.8340  176.4810  138.7410 C   0  0  0  0  0  0  0  0  0  0  0  0
  180.4770  175.9180  137.0510 C   0  0  0  0  0  3  0  0  0  0  0  0
  179.4030  175.1300  136.9460 C   0  0  0  0  0  3  0  0  0  0  0  0
  181.9730  173.8910  137.0110 C   0  0  0  0  0  2  0  0  0  0  0  0
  180.7580  173.1370  136.5450 C   0  0  0  0  0  3  0  0  0  0  0  0
  179.5520  173.7140  136.5550 C   0  0  0  0  0  3  0  0  0  0  0  0
  181.8430  175.3880  136.6940 C   0  0  2  0  0  3  0  0  0  0  0  0
  183.0630  177.8630  139.2100 C   0  0  0  0  0  0  0  0  0  0  0  0
  183.2450  178.7720  138.3550 O   0  0  0  0  0  0  0  0  0  0  0  0
  180.3510  178.6330  140.6440 Cl  0  0  0  0  0  0  0  0  0  0  0  0
  184.3350  178.1450  141.3250 C   0  0  0  0  0  3  0  0  0  0  0  0
  184.4290  178.4920  142.6720 C   0  0  0  0  0  3  0  0  0  0  0  0
  181.9510  178.5940  141.3690 C   0  0  0  0  0  0  0  0  0  0  0  0
  182.0530  178.9340  142.7200 C   0  0  0  0  0  3  0  0  0  0  0  0
  183.2920  178.9040  143.3740 C   0  0  0  0  0  0  0  0  0  0  0  0
  183.1040  178.1950  140.6530 C   0  0  0  0  0  0  0  0  0  0  0  0
  183.3920  179.2370  144.8300 C   0  0  1  0  0  3  0  0  0  0  0  0
  184.3930  178.3920  145.4820 C   0  0  0  0  0  2  0  0  0  0  0  0
  184.7290  179.7790  145.1360 N   0  0  0  0  0  2  0  0  0  0  0  0
  187.4890  177.6580  139.1380 O   0  0  0  0  0  0  0  0  0  0  0  0
  188.3640  178.5070  139.8150 C   0  0  0  0  0  0  0  0  0  0  0  0
  189.2420  179.1330  139.1670 O   0  0  0  0  0  0  0  0  0  0  0  0
  188.2730  178.6470  141.2030 O   0  0  0  0  0  0  0  0  0  0  0  0
  188.7870  177.6730  142.0990 C   0  0  1  0  0  3  0  0  0  0  0  0
  191.1520  178.1530  141.9860 O   0  0  0  0  0  1  0  0  0  0  0  0
  190.1720  177.2220  141.6190 C   0  0  1  0  0  3  0  0  0  0  0  0
  190.5180  175.8450  142.1590 C   0  0  0  0  0  2  0  0  0  0  0  0
  191.3970  175.9670  143.2350 O   0  0  0  0  0  1  0  0  0  0  0  0
  188.8180  178.2610  143.5060 C   0  0  0  0  0  2  0  0  0  0  0  0
  187.1180  176.5460  144.0690 C   0  0  0  0  0  1  0  0  0  0  0  0
  188.3830  177.2400  144.5480 C   0  0  2  0  0  3  0  0  0  0  0  0
  188.1380  177.9290  145.8930 C   0  0  1  0  0  3  0  0  0  0  0  0
  187.2230  177.2010  146.6680 O   0  0  0  0  0  1  0  0  0  0  0  0
  189.1070  178.1190  147.9460 O   0  0  0  0  0  1  0  0  0  0  0  0
  189.3960  178.1440  146.6220 N   0  0  0  0  0  0  0  0  0  0  0  0
  190.3300  177.0550  146.3630 C   0  0  0  0  0  2  0  0  0  0  0  0
  190.4360  176.2490  147.4980 O   0  0  0  0  0  0  0  0  0  0  0  0
  191.5850  175.4890  147.2780 C   0  0  0  0  0  2  0  0  0  0  0  0
  193.0620  175.9710  148.8420 C   0  0  0  0  0  1  0  0  0  0  0  0
  192.7140  176.2680  147.5250 O   0  0  0  0  0  0  0  0  0  0  0  0
  1  6  1  0  0  0  0
  2  9  1  0  0  0  0
  3  4  1  6  0  0  0
  3 10  1  0  0  0  0
  4  9  1  0  0  0  0
  5  7  1  6  0  0  0
  5 10  1  0  0  0  0
  6 13  1  6  0  0  0
  6  5  1  0  0  0  0
  8  2  1  0  0  0  0
 10 35  1  1  0  0  0
 11  8  1  1  0  0  0
 11  1  1  0  0  0  0
 11  3  1  0  0  0  0
 12 13  2  0  0  0  0
 13 15  1  0  0  0  0
 15 16  1  0  0  0  0
 16 23  1  0  0  0  0
 16 14  2  0  0  0  0
 18 17  2  0  0  0  0
 20 21  2  0  0  0  0
 20 19  1  0  0  0  0
 21 18  1  0  0  0  0
 22 19  1  0  0  0  0
 22 17  1  0  0  0  0
 22 15  1  1  0  0  0
 23 31  1  0  0  0  0
 24 23  2  0  0  0  0
 25 28  1  0  0  0  0
 26 27  1  0  0  0  0
 27 30  2  0  0  0  0
 28 29  2  0  0  0  0
 29 30  1  0  0  0  0
 31 26  2  0  0  0  0
 31 28  1  0  0  0  0
 32 30  1  6  0  0  0
 32 34  1  0  0  0  0
 32 33  1  0  0  0  0
 34 33  1  0  0  0  0
 35 36  1  0  0  0  0
 36 38  1  0  0  0  0
 37 36  2  0  0  0  0
 38 39  1  0  0  0  0
 39 44  1  1  0  0  0
 41 40  1  1  0  0  0
 41 39  1  0  0  0  0
 41 42  1  0  0  0  0
 42 43  1  0  0  0  0
 44 46  1  0  0  0  0
 46 45  1  6  0  0  0
 46 47  1  0  0  0  0
 47 50  1  0  0  0  0
 47 48  1  1  0  0  0
 50 49  1  0  0  0  0
 51 50  1  0  0  0  0
 51 52  1  0  0  0  0
 53 52  1  0  0  0  0
 53 55  1  0  0  0  0
 55 54  1  0  0  0  0
M  END
>  <MODEL>
1

>  <REMARK>
 VINA RESULT:      -7.0      0.000      0.000
  Name = 
  19 active torsions:
  status: ('A' for Active; 'I' for Inactive)
    1  A    between atoms: C_1  and  C_21
    2  A    between atoms: C_1  and  N_53
    3  A    between atoms: C_3  and  O_25
    4  A    between atoms: C_3  and  O_38
    5  A    between atoms: C_6  and  C_14
    6  A    between atoms: C_6  and  O_22
    7  A    between atoms: C_6  and  C_46
    8  A    between atoms: C_8  and  O_22
    9  A    between atoms: C_8  and  O_54
   10  A    between atoms: C_10  and  C_48
   11  A    between atoms: C_14  and  C_20
   12  A    between atoms: C_19  and  C_37
   13  A    between atoms: C_21  and  C_46
   14  A    between atoms: C_26  and  N_45
   15  A    between atoms: C_29  and  O_38
   16  A    between atoms: C_29  and  N_53
   17  A    between atoms: C_33  and  C_49
   18  A    between atoms: C_33  and  C_52
   19  A    between atoms: C_51  and  O_54
                            x       y       z     vdW  Elec       q    Type
                         _______ _______ _______ _____ _____    ______ ____

>  <TORSDO>
F 19

$$$$
=
 OpenBabel11052415023D

 55 59  0  0  1  0  0  0  0  0999 V2000
  189.0980  176.6700  141.2220 C   0  0  0  0  0  2  0  0  0  0  0  0
  187.8080  178.5170  138.1070 C   0  0  0  0  0  2  0  0  0  0  0  0
  190.2510  177.4810  139.1190 C   0  0  1  0  0  3  0  0  0  0  0  0
  190.2040  178.4210  138.0710 O   0  0  0  0  0  0  0  0  0  0  0  0
  191.5990  177.3010  141.3130 C   0  0  2  0  0  3  0  0  0  0  0  0
  190.5080  176.2890  141.6900 C   0  0  1  0  0  3  0  0  0  0  0  0
  191.4010  178.5170  141.9690 O   0  0  0  0  0  1  0  0  0  0  0  0
  187.7580  177.6780  139.3820 C   0  0  0  0  0  2  0  0  0  0  0  0
  189.0550  178.1330  137.3140 C   0  0  0  0  0  2  0  0  0  0  0  0
  191.6310  177.5420  139.7990 C   0  0  1  0  0  3  0  0  0  0  0  0
  189.0980  177.7240  140.1140 C   0  0  1  0  0  3  0  0  0  0  0  0
  191.0820  174.7260  143.3830 O   0  0  0  0  0  0  0  0  0  0  0  0
  190.5710  175.8480  143.1250 C   0  0  0  0  0  0  0  0  0  0  0  0
  188.9600  178.6970  144.4460 O   0  0  0  0  0  0  0  0  0  0  0  0
  190.1580  176.7020  144.2080 N   0  0  0  0  0  0  0  0  0  0  0  0
  188.9410  177.4720  144.1410 C   0  0  0  0  0  0  0  0  0  0  0  0
  191.9540  175.6220  145.4920 C   0  0  0  0  0  3  0  0  0  0  0  0
  192.5110  175.3270  146.6700 C   0  0  0  0  0  3  0  0  0  0  0  0
  190.2690  177.0930  146.6510 C   0  0  0  0  0  2  0  0  0  0  0  0
  191.1660  176.9880  147.8550 C   0  0  0  0  0  3  0  0  0  0  0  0
  192.1900  176.1290  147.8680 C   0  0  0  0  0  3  0  0  0  0  0  0
  191.0540  176.8250  145.3590 C   0  0  2  0  0  3  0  0  0  0  0  0
  187.6570  176.8220  143.8080 C   0  0  0  0  0  0  0  0  0  0  0  0
  187.6640  175.6100  143.4590 O   0  0  0  0  0  0  0  0  0  0  0  0
  186.5420  177.7000  146.6350 Cl  0  0  0  0  0  0  0  0  0  0  0  0
  185.7180  177.8580  142.6510 C   0  0  0  0  0  3  0  0  0  0  0  0
  184.4890  178.5160  142.6490 C   0  0  0  0  0  3  0  0  0  0  0  0
  185.7770  177.9600  145.0750 C   0  0  0  0  0  0  0  0  0  0  0  0
  184.5490  178.6250  145.0640 C   0  0  0  0  0  3  0  0  0  0  0  0
  183.8890  178.8890  143.8560 C   0  0  0  0  0  0  0  0  0  0  0  0
  186.3760  177.5650  143.8550 C   0  0  0  0  0  0  0  0  0  0  0  0
  182.5880  179.6310  143.8460 C   0  0  1  0  0  3  0  0  0  0  0  0
  181.7410  179.1670  142.7470 C   0  0  0  0  0  2  0  0  0  0  0  0
  181.4740  178.7050  144.1160 N   0  0  0  0  0  2  0  0  0  0  0  0
  192.5080  176.6110  139.1820 O   0  0  0  0  0  0  0  0  0  0  0  0
  192.1960  176.0110  137.9640 C   0  0  0  0  0  0  0  0  0  0  0  0
  192.4850  176.6030  136.8910 O   0  0  0  0  0  0  0  0  0  0  0  0
  191.5530  174.7710  137.9360 O   0  0  0  0  0  0  0  0  0  0  0  0
  192.0050  173.6990  137.1230 C   0  0  1  0  0  3  0  0  0  0  0  0
  189.6300  173.4320  136.7660 O   0  0  0  0  0  1  0  0  0  0  0  0
  190.8850  173.2860  136.1600 C   0  0  1  0  0  3  0  0  0  0  0  0
  190.9480  174.0840  134.8690 C   0  0  0  0  0  2  0  0  0  0  0  0
  190.1130  175.1980  134.9610 O   0  0  0  0  0  1  0  0  0  0  0  0
  193.2730  174.1280  136.3950 C   0  0  0  0  0  2  0  0  0  0  0  0
  194.0980  171.7990  136.6020 C   0  0  0  0  0  1  0  0  0  0  0  0
  194.4630  173.2630  136.7870 C   0  0  2  0  0  3  0  0  0  0  0  0
  194.8580  173.5350  138.2410 C   0  0  1  0  0  3  0  0  0  0  0  0
  195.4390  172.3990  138.8230 O   0  0  0  0  0  1  0  0  0  0  0  0
  195.6050  175.2100  139.5940 O   0  0  0  0  0  1  0  0  0  0  0  0
  195.7500  174.6980  138.3470 N   0  0  0  0  0  0  0  0  0  0  0  0
  197.1430  174.2880  138.2070 C   0  0  0  0  0  2  0  0  0  0  0  0
  197.8800  175.3240  137.6330 O   0  0  0  0  0  0  0  0  0  0  0  0
  197.5530  175.2730  136.2770 C   0  0  0  0  0  2  0  0  0  0  0  0
  196.0580  176.3600  135.0780 C   0  0  0  0  0  1  0  0  0  0  0  0
  197.2160  176.5490  135.8290 O   0  0  0  0  0  0  0  0  0  0  0  0
  1  6  1  0  0  0  0
  2  8  1  0  0  0  0
  3  4  1  6  0  0  0
  3 10  1  0  0  0  0
  3 11  1  0  0  0  0
  5  6  1  0  0  0  0
  5  7  1  1  0  0  0
  6 13  1  1  0  0  0
  9  4  1  0  0  0  0
  9  2  1  0  0  0  0
 10 35  1  6  0  0  0
 10  5  1  0  0  0  0
 11  8  1  6  0  0  0
 11  1  1  0  0  0  0
 13 12  2  0  0  0  0
 13 15  1  0  0  0  0
 16 15  1  0  0  0  0
 16 14  2  0  0  0  0
 17 18  2  0  0  0  0
 18 21  1  0  0  0  0
 19 20  1  0  0  0  0
 20 21  2  0  0  0  0
 22 15  1  6  0  0  0
 22 17  1  0  0  0  0
 22 19  1  0  0  0  0
 23 31  1  0  0  0  0
 23 16  1  0  0  0  0
 24 23  2  0  0  0  0
 26 31  1  0  0  0  0
 27 26  2  0  0  0  0
 27 30  1  0  0  0  0
 28 25  1  0  0  0  0
 29 28  1  0  0  0  0
 30 29  2  0  0  0  0
 31 28  2  0  0  0  0
 32 30  1  6  0  0  0
 32 34  1  0  0  0  0
 33 32  1  0  0  0  0
 33 34  1  0  0  0  0
 36 35  1  0  0  0  0
 37 36  2  0  0  0  0
 38 36  1  0  0  0  0
 39 44  1  6  0  0  0
 39 38  1  0  0  0  0
 41 40  1  1  0  0  0
 41 39  1  0  0  0  0
 42 43  1  0  0  0  0
 42 41  1  0  0  0  0
 44 46  1  0  0  0  0
 46 45  1  1  0  0  0
 46 47  1  0  0  0  0
 47 50  1  0  0  0  0
 47 48  1  6  0  0  0
 50 49  1  0  0  0  0
 51 50  1  0  0  0  0
 52 51  1  0  0  0  0
 53 52  1  0  0  0  0
 54 55  1  0  0  0  0
 55 53  1  0  0  0  0
M  END
>  <MODEL>
2

>  <REMARK>
 VINA RESULT:      -6.5      4.025      8.942
  Name = 
  19 active torsions:
  status: ('A' for Active; 'I' for Inactive)
    1  A    between atoms: C_1  and  C_21
    2  A    between atoms: C_1  and  N_53
    3  A    between atoms: C_3  and  O_25
    4  A    between atoms: C_3  and  O_38
    5  A    between atoms: C_6  and  C_14
    6  A    between atoms: C_6  and  O_22
    7  A    between atoms: C_6  and  C_46
    8  A    between atoms: C_8  and  O_22
    9  A    between atoms: C_8  and  O_54
   10  A    between atoms: C_10  and  C_48
   11  A    between atoms: C_14  and  C_20
   12  A    between atoms: C_19  and  C_37
   13  A    between atoms: C_21  and  C_46
   14  A    between atoms: C_26  and  N_45
   15  A    between atoms: C_29  and  O_38
   16  A    between atoms: C_29  and  N_53
   17  A    between atoms: C_33  and  C_49
   18  A    between atoms: C_33  and  C_52
   19  A    between atoms: C_51  and  O_54
                            x       y       z     vdW  Elec       q    Type
                         _______ _______ _______ _____ _____    ______ ____

>  <TORSDO>
F 19

$$$$
=
 OpenBabel11052415023D

 55 59  0  0  1  0  0  0  0  0999 V2000
  181.2940  179.5480  140.5000 C   0  0  0  0  0  2  0  0  0  0  0  0
  179.0430  178.8920  143.5460 C   0  0  0  0  0  2  0  0  0  0  0  0
  181.8060  178.8980  142.8930 C   0  0  1  0  0  3  0  0  0  0  0  0
  181.3030  178.2650  144.0450 O   0  0  0  0  0  0  0  0  0  0  0  0
  183.4260  178.1850  141.0120 C   0  0  2  0  0  3  0  0  0  0  0  0
  182.8010  179.3750  140.2690 C   0  0  1  0  0  3  0  0  0  0  0  0
  182.9240  176.9750  140.5310 O   0  0  0  0  0  1  0  0  0  0  0  0
  179.4540  179.4120  142.1700 C   0  0  0  0  0  2  0  0  0  0  0  0
  180.2250  179.0420  144.5010 C   0  0  0  0  0  2  0  0  0  0  0  0
  183.1660  178.2780  142.5210 C   0  0  1  0  0  3  0  0  0  0  0  0
  180.7880  178.8070  141.7380 C   0  0  1  0  0  3  0  0  0  0  0  0
  183.9520  180.4050  138.4660 O   0  0  0  0  0  0  0  0  0  0  0  0
  183.2050  179.4560  138.8240 C   0  0  0  0  0  0  0  0  0  0  0  0
  181.3670  176.6320  137.7770 O   0  0  0  0  0  0  0  0  0  0  0  0
  182.8470  178.4400  137.8690 N   0  0  0  0  0  0  0  0  0  0  0  0
  181.5180  177.8830  137.8200 C   0  0  0  0  0  0  0  0  0  0  0  0
  183.3270  177.2580  135.7680 C   0  0  0  0  0  3  0  0  0  0  0  0
  184.0550  176.3670  135.0880 C   0  0  0  0  0  3  0  0  0  0  0  0
  184.8590  177.0010  137.7510 C   0  0  0  0  0  2  0  0  0  0  0  0
  185.7940  176.3020  136.8020 C   0  0  0  0  0  3  0  0  0  0  0  0
  185.3940  175.9740  135.5700 C   0  0  0  0  0  3  0  0  0  0  0  0
  183.9010  177.9290  136.9910 C   0  0  2  0  0  3  0  0  0  0  0  0
  180.3360  178.7660  137.7280 C   0  0  0  0  0  0  0  0  0  0  0  0
  179.2350  178.3550  138.1840 O   0  0  0  0  0  0  0  0  0  0  0  0
  180.7340  178.9160  134.5940 Cl  0  0  0  0  0  0  0  0  0  0  0  0
  180.3010  181.2430  137.9050 C   0  0  0  0  0  3  0  0  0  0  0  0
  180.4140  182.5220  137.3610 C   0  0  0  0  0  3  0  0  0  0  0  0
  180.6370  180.2700  135.7080 C   0  0  0  0  0  0  0  0  0  0  0  0
  180.7420  181.5550  135.1700 C   0  0  0  0  0  3  0  0  0  0  0  0
  180.6520  182.6860  135.9930 C   0  0  0  0  0  0  0  0  0  0  0  0
  180.4160  180.1030  137.0960 C   0  0  0  0  0  0  0  0  0  0  0  0
  180.7320  184.0610  135.4070 C   0  0  1  0  0  3  0  0  0  0  0  0
  179.9960  185.0160  136.2370 C   0  0  0  0  0  2  0  0  0  0  0  0
  181.4620  184.9590  136.3210 N   0  0  0  0  0  2  0  0  0  0  0  0
  184.2110  179.0100  143.1450 O   0  0  0  0  0  0  0  0  0  0  0  0
  185.5390  178.5940  143.0730 C   0  0  0  0  0  0  0  0  0  0  0  0
  186.3080  179.1260  142.2300 O   0  0  0  0  0  0  0  0  0  0  0  0
  186.0050  177.5830  143.9180 O   0  0  0  0  0  0  0  0  0  0  0  0
  187.2160  177.7030  144.6500 C   0  0  1  0  0  3  0  0  0  0  0  0
  187.9460  178.0570  146.9250 O   0  0  0  0  0  1  0  0  0  0  0  0
  186.9290  177.4970  146.1420 C   0  0  1  0  0  3  0  0  0  0  0  0
  185.5790  178.0800  146.5270 C   0  0  0  0  0  2  0  0  0  0  0  0
  185.7090  179.4460  146.7790 O   0  0  0  0  0  1  0  0  0  0  0  0
  188.2270  176.7010  144.1040 C   0  0  0  0  0  2  0  0  0  0  0  0
  189.6310  178.7380  143.9350 C   0  0  0  0  0  1  0  0  0  0  0  0
  189.6490  177.2400  144.1890 C   0  0  2  0  0  3  0  0  0  0  0  0
  190.5430  176.5340  143.1670 C   0  0  1  0  0  3  0  0  0  0  0  0
  190.0580  175.2490  142.8800 O   0  0  0  0  0  1  0  0  0  0  0  0
  192.0140  177.4400  141.6810 O   0  0  0  0  0  1  0  0  0  0  0  0
  190.6880  177.3300  141.9400 N   0  0  0  0  0  0  0  0  0  0  0  0
  190.0830  176.6390  140.8070 C   0  0  0  0  0  2  0  0  0  0  0  0
  188.8310  177.1920  140.5370 O   0  0  0  0  0  0  0  0  0  0  0  0
  189.1160  178.4380  139.9750 C   0  0  0  0  0  2  0  0  0  0  0  0
  188.6350  178.3210  137.8270 C   0  0  0  0  0  1  0  0  0  0  0  0
  188.1300  178.7670  139.0460 O   0  0  0  0  0  0  0  0  0  0  0  0
  2  9  1  0  0  0  0
  3  4  1  1  0  0  0
  4  9  1  0  0  0  0
  5  7  1  6  0  0  0
  5 10  1  0  0  0  0
  6 13  1  6  0  0  0
  6  1  1  0  0  0  0
  6  5  1  0  0  0  0
  8  2  1  0  0  0  0
 10  3  1  0  0  0  0
 10 35  1  1  0  0  0
 11  1  1  6  0  0  0
 11  8  1  0  0  0  0
 11  3  1  0  0  0  0
 12 13  2  0  0  0  0
 14 16  2  0  0  0  0
 15 13  1  0  0  0  0
 16 15  1  0  0  0  0
 17 22  1  0  0  0  0
 18 21  1  0  0  0  0
 18 17  2  0  0  0  0
 20 19  1  0  0  0  0
 21 20  2  0  0  0  0
 22 19  1  0  0  0  0
 22 15  1  1  0  0  0
 23 16  1  0  0  0  0
 23 24  2  0  0  0  0
 25 28  1  0  0  0  0
 27 26  1  0  0  0  0
 28 31  1  0  0  0  0
 29 28  2  0  0  0  0
 29 30  1  0  0  0  0
 30 27  2  0  0  0  0
 31 23  1  0  0  0  0
 31 26  2  0  0  0  0
 32 30  1  1  0  0  0
 32 33  1  0  0  0  0
 32 34  1  0  0  0  0
 33 34  1  0  0  0  0
 36 35  1  0  0  0  0
 36 38  1  0  0  0  0
 37 36  2  0  0  0  0
 38 39  1  0  0  0  0
 39 44  1  6  0  0  0
 39 41  1  0  0  0  0
 41 42  1  0  0  0  0
 41 40  1  1  0  0  0
 42 43  1  0  0  0  0
 44 46  1  0  0  0  0
 46 45  1  6  0  0  0
 47 48  1  6  0  0  0
 47 46  1  0  0  0  0
 49 50  1  0  0  0  0
 50 47  1  0  0  0  0
 51 50  1  0  0  0  0
 52 51  1  0  0  0  0
 53 52  1  0  0  0  0
 54 55  1  0  0  0  0
 55 53  1  0  0  0  0
M  END
>  <MODEL>
3

>  <REMARK>
 VINA RESULT:      -6.5      3.354      7.016
  Name = 
  19 active torsions:
  status: ('A' for Active; 'I' for Inactive)
    1  A    between atoms: C_1  and  C_21
    2  A    between atoms: C_1  and  N_53
    3  A    between atoms: C_3  and  O_25
    4  A    between atoms: C_3  and  O_38
    5  A    between atoms: C_6  and  C_14
    6  A    between atoms: C_6  and  O_22
    7  A    between atoms: C_6  and  C_46
    8  A    between atoms: C_8  and  O_22
    9  A    between atoms: C_8  and  O_54
   10  A    between atoms: C_10  and  C_48
   11  A    between atoms: C_14  and  C_20
   12  A    between atoms: C_19  and  C_37
   13  A    between atoms: C_21  and  C_46
   14  A    between atoms: C_26  and  N_45
   15  A    between atoms: C_29  and  O_38
   16  A    between atoms: C_29  and  N_53
   17  A    between atoms: C_33  and  C_49
   18  A    between atoms: C_33  and  C_52
   19  A    between atoms: C_51  and  O_54
                            x       y       z     vdW  Elec       q    Type
                         _______ _______ _______ _____ _____    ______ ____

>  <TORSDO>
F 19

$$$$
=
 OpenBabel11052415023D

 55 59  0  0  1  0  0  0  0  0999 V2000
  189.3590  176.7480  139.2690 C   0  0  0  0  0  2  0  0  0  0  0  0
  188.6530  177.7830  142.9020 C   0  0  0  0  0  2  0  0  0  0  0  0
  187.4100  177.9450  140.3550 C   0  0  1  0  0  3  0  0  0  0  0  0
  187.0160  178.7490  141.4410 O   0  0  0  0  0  0  0  0  0  0  0  0
  187.9640  178.4160  137.8770 C   0  0  2  0  0  3  0  0  0  0  0  0
  188.6290  177.0340  137.9500 C   0  0  1  0  0  3  0  0  0  0  0  0
  188.9200  179.4330  137.8990 O   0  0  0  0  0  1  0  0  0  0  0  0
  189.2980  177.0310  141.7410 C   0  0  0  0  0  2  0  0  0  0  0  0
  187.1680  177.9720  142.6020 C   0  0  0  0  0  2  0  0  0  0  0  0
  186.9820  178.6190  139.0370 C   0  0  1  0  0  3  0  0  0  0  0  0
  188.9280  177.6750  140.4060 C   0  0  1  0  0  3  0  0  0  0  0  0
  189.9270  177.6370  136.0550 O   0  0  0  0  0  0  0  0  0  0  0  0
  189.4330  176.6920  136.7270 C   0  0  0  0  0  0  0  0  0  0  0  0
  188.9910  173.2000  136.9710 O   0  0  0  0  0  0  0  0  0  0  0  0
  189.7320  175.3320  136.3610 N   0  0  0  0  0  0  0  0  0  0  0  0
  188.7280  174.2980  136.4090 C   0  0  0  0  0  0  0  0  0  0  0  0
  192.0330  175.1230  137.2000 C   0  0  0  0  0  3  0  0  0  0  0  0
  193.3440  175.3060  137.0230 C   0  0  0  0  0  3  0  0  0  0  0  0
  191.6050  175.8690  134.8330 C   0  0  0  0  0  2  0  0  0  0  0  0
  193.0860  175.7020  134.6270 C   0  0  0  0  0  3  0  0  0  0  0  0
  193.8970  175.4770  135.6650 C   0  0  0  0  0  3  0  0  0  0  0  0
  191.1160  175.0110  136.0080 C   0  0  2  0  0  3  0  0  0  0  0  0
  187.4300  174.4790  135.7270 C   0  0  0  0  0  0  0  0  0  0  0  0
  187.2810  175.4680  134.9590 O   0  0  0  0  0  0  0  0  0  0  0  0
  184.9130  175.5170  137.3370 Cl  0  0  0  0  0  0  0  0  0  0  0  0
  186.3920  172.2440  135.4210 C   0  0  0  0  0  3  0  0  0  0  0  0
  185.3760  171.3140  135.6380 C   0  0  0  0  0  3  0  0  0  0  0  0
  185.1560  173.9020  136.6900 C   0  0  0  0  0  0  0  0  0  0  0  0
  184.1400  172.9660  136.8980 C   0  0  0  0  0  3  0  0  0  0  0  0
  184.2510  171.6640  136.3920 C   0  0  0  0  0  0  0  0  0  0  0  0
  186.3030  173.5420  135.9450 C   0  0  0  0  0  0  0  0  0  0  0  0
  183.1450  170.6740  136.5880 C   0  0  1  0  0  3  0  0  0  0  0  0
  181.8650  171.3610  136.7590 C   0  0  0  0  0  2  0  0  0  0  0  0
  182.1930  170.7480  135.4650 N   0  0  0  0  0  2  0  0  0  0  0  0
  185.6920  178.1570  138.6630 O   0  0  0  0  0  0  0  0  0  0  0  0
  184.5550  178.9420  138.8430 C   0  0  0  0  0  0  0  0  0  0  0  0
  184.6200  179.9650  139.5740 O   0  0  0  0  0  0  0  0  0  0  0  0
  183.3510  178.5850  138.2310 O   0  0  0  0  0  0  0  0  0  0  0  0
  182.0960  179.0800  138.6750 C   0  0  1  0  0  3  0  0  0  0  0  0
  180.3280  179.8350  137.2130 O   0  0  0  0  0  1  0  0  0  0  0  0
  181.6020  180.1550  137.7000 C   0  0  1  0  0  3  0  0  0  0  0  0
  181.5940  181.5270  138.3520 C   0  0  0  0  0  2  0  0  0  0  0  0
  180.5100  181.6290  139.2240 O   0  0  0  0  0  1  0  0  0  0  0  0
  181.1210  177.9150  138.8070 C   0  0  0  0  0  2  0  0  0  0  0  0
  180.4080  176.0220  140.2410 C   0  0  0  0  0  1  0  0  0  0  0  0
  181.0650  177.3930  140.2360 C   0  0  2  0  0  3  0  0  0  0  0  0
  180.2820  178.3640  141.1230 C   0  0  1  0  0  3  0  0  0  0  0  0
  179.5570  177.6720  142.1040 O   0  0  0  0  0  1  0  0  0  0  0  0
  180.4210  180.0950  142.5980 O   0  0  0  0  0  1  0  0  0  0  0  0
  181.1660  179.3700  141.7290 N   0  0  0  0  0  0  0  0  0  0  0  0
  182.2220  178.7230  142.5000 C   0  0  0  0  0  2  0  0  0  0  0  0
  182.2590  179.2630  143.7860 O   0  0  0  0  0  0  0  0  0  0  0  0
  183.5790  179.0820  144.2010 C   0  0  0  0  0  2  0  0  0  0  0  0
  184.9360  178.6720  145.8890 C   0  0  0  0  0  1  0  0  0  0  0  0
  183.6320  179.0650  145.5940 O   0  0  0  0  0  0  0  0  0  0  0  0
  3 11  1  0  0  0  0
  3  4  1  1  0  0  0
  4  9  1  0  0  0  0
  5  7  1  1  0  0  0
  5  6  1  0  0  0  0
  5 10  1  0  0  0  0
  6 13  1  6  0  0  0
  6  1  1  0  0  0  0
  8  2  1  0  0  0  0
  9  2  1  0  0  0  0
 10 35  1  6  0  0  0
 10  3  1  0  0  0  0
 11  1  1  6  0  0  0
 11  8  1  0  0  0  0
 12 13  2  0  0  0  0
 15 16  1  0  0  0  0
 15 13  1  0  0  0  0
 16 14  2  0  0  0  0
 18 17  2  0  0  0  0
 19 22  1  0  0  0  0
 20 19  1  0  0  0  0
 20 21  2  0  0  0  0
 21 18  1  0  0  0  0
 22 15  1  1  0  0  0
 22 17  1  0  0  0  0
 23 31  1  0  0  0  0
 23 16  1  0  0  0  0
 24 23  2  0  0  0  0
 26 27  2  0  0  0  0
 26 31  1  0  0  0  0
 27 30  1  0  0  0  0
 28 29  1  0  0  0  0
 28 25  1  0  0  0  0
 30 29  2  0  0  0  0
 31 28  2  0  0  0  0
 32 30  1  6  0  0  0
 32 33  1  0  0  0  0
 34 32  1  0  0  0  0
 34 33  1  0  0  0  0
 35 36  1  0  0  0  0
 36 37  2  0  0  0  0
 38 39  1  0  0  0  0
 38 36  1  0  0  0  0
 39 44  1  6  0  0  0
 41 40  1  1  0  0  0
 41 42  1  0  0  0  0
 41 39  1  0  0  0  0
 42 43  1  0  0  0  0
 44 46  1  0  0  0  0
 46 45  1  6  0  0  0
 46 47  1  0  0  0  0
 47 50  1  0  0  0  0
 47 48  1  1  0  0  0
 50 51  1  0  0  0  0
 50 49  1  0  0  0  0
 51 52  1  0  0  0  0
 52 53  1  0  0  0  0
 53 55  1  0  0  0  0
 55 54  1  0  0  0  0
M  END
>  <MODEL>
4

>  <REMARK>
 VINA RESULT:      -6.3      3.574      8.620
  Name = 
  19 active torsions:
  status: ('A' for Active; 'I' for Inactive)
    1  A    between atoms: C_1  and  C_21
    2  A    between atoms: C_1  and  N_53
    3  A    between atoms: C_3  and  O_25
    4  A    between atoms: C_3  and  O_38
    5  A    between atoms: C_6  and  C_14
    6  A    between atoms: C_6  and  O_22
    7  A    between atoms: C_6  and  C_46
    8  A    between atoms: C_8  and  O_22
    9  A    between atoms: C_8  and  O_54
   10  A    between atoms: C_10  and  C_48
   11  A    between atoms: C_14  and  C_20
   12  A    between atoms: C_19  and  C_37
   13  A    between atoms: C_21  and  C_46
   14  A    between atoms: C_26  and  N_45
   15  A    between atoms: C_29  and  O_38
   16  A    between atoms: C_29  and  N_53
   17  A    between atoms: C_33  and  C_49
   18  A    between atoms: C_33  and  C_52
   19  A    between atoms: C_51  and  O_54
                            x       y       z     vdW  Elec       q    Type
                         _______ _______ _______ _____ _____    ______ ____

>  <TORSDO>
F 19

$$$$
=
 OpenBabel11052415023D

 55 59  0  0  1  0  0  0  0  0999 V2000
  182.4860  176.2600  136.8920 C   0  0  0  0  0  2  0  0  0  0  0  0
  182.0970  173.1920  134.6110 C   0  0  0  0  0  2  0  0  0  0  0  0
  184.1480  174.5630  136.0160 C   0  0  1  0  0  3  0  0  0  0  0  0
  184.4220  173.6520  134.9780 O   0  0  0  0  0  0  0  0  0  0  0  0
  184.9510  176.9550  136.5650 C   0  0  2  0  0  3  0  0  0  0  0  0
  183.7160  176.9670  137.4780 C   0  0  1  0  0  3  0  0  0  0  0  0
  184.7230  177.6970  135.4050 O   0  0  0  0  0  1  0  0  0  0  0  0
  181.6880  174.3160  135.5590 C   0  0  0  0  0  2  0  0  0  0  0  0
  183.4500  172.6400  135.0550 C   0  0  0  0  0  2  0  0  0  0  0  0
  185.3420  175.5230  136.1820 C   0  0  1  0  0  3  0  0  0  0  0  0
  182.8290  175.3150  135.7410 C   0  0  1  0  0  3  0  0  0  0  0  0
  184.3850  179.0780  138.3330 O   0  0  0  0  0  0  0  0  0  0  0  0
  183.4170  178.3190  138.0620 C   0  0  0  0  0  0  0  0  0  0  0  0
  179.9150  177.8970  138.1670 O   0  0  0  0  0  0  0  0  0  0  0  0
  182.0710  178.8010  138.2280 N   0  0  0  0  0  0  0  0  0  0  0  0
  181.0270  177.9610  138.7600 C   0  0  0  0  0  0  0  0  0  0  0  0
  181.0120  180.9430  138.8050 C   0  0  0  0  0  3  0  0  0  0  0  0
  180.2780  181.9990  138.4440 C   0  0  0  0  0  3  0  0  0  0  0  0
  181.0370  180.1380  136.4180 C   0  0  0  0  0  2  0  0  0  0  0  0
  180.5310  181.5110  136.0640 C   0  0  0  0  0  3  0  0  0  0  0  0
  180.1410  182.3600  137.0190 C   0  0  0  0  0  3  0  0  0  0  0  0
  181.7720  180.1580  137.7660 C   0  0  2  0  0  3  0  0  0  0  0  0
  181.2150  177.2490  140.0400 C   0  0  0  0  0  0  0  0  0  0  0  0
  180.7250  176.0940  140.1690 O   0  0  0  0  0  0  0  0  0  0  0  0
  179.5790  179.0430  142.0670 Cl  0  0  0  0  0  0  0  0  0  0  0  0
  183.3190  177.6260  141.3060 C   0  0  0  0  0  3  0  0  0  0  0  0
  184.0540  178.2230  142.3290 C   0  0  0  0  0  3  0  0  0  0  0  0
  181.3060  178.7210  142.1030 C   0  0  0  0  0  0  0  0  0  0  0  0
  182.0480  179.3100  143.1300 C   0  0  0  0  0  3  0  0  0  0  0  0
  183.4270  179.0820  143.2380 C   0  0  0  0  0  0  0  0  0  0  0  0
  181.9430  177.8680  141.1720 C   0  0  0  0  0  0  0  0  0  0  0  0
  184.2130  179.6880  144.3580 C   0  0  1  0  0  3  0  0  0  0  0  0
  184.1760  178.8240  145.5380 C   0  0  0  0  0  2  0  0  0  0  0  0
  185.3710  178.8360  144.6840 N   0  0  0  0  0  2  0  0  0  0  0  0
  186.2460  174.9960  137.1420 O   0  0  0  0  0  0  0  0  0  0  0  0
  187.5320  174.5920  136.7890 C   0  0  0  0  0  0  0  0  0  0  0  0
  187.7490  173.3790  136.5290 O   0  0  0  0  0  0  0  0  0  0  0  0
  188.5730  175.5230  136.7420 O   0  0  0  0  0  0  0  0  0  0  0  0
  189.6820  175.4680  137.6260 C   0  0  1  0  0  3  0  0  0  0  0  0
  190.9160  175.5810  135.5530 O   0  0  0  0  0  1  0  0  0  0  0  0
  190.9320  175.0450  136.8470 C   0  0  1  0  0  3  0  0  0  0  0  0
  192.2000  175.4550  137.5760 C   0  0  0  0  0  2  0  0  0  0  0  0
  193.0510  174.3570  137.7000 O   0  0  0  0  0  1  0  0  0  0  0  0
  189.8450  176.8260  138.3020 C   0  0  0  0  0  2  0  0  0  0  0  0
  187.7810  178.0940  138.8320 C   0  0  0  0  0  1  0  0  0  0  0  0
  188.7670  177.0600  139.3510 C   0  0  2  0  0  3  0  0  0  0  0  0
  189.4000  177.5360  140.6610 C   0  0  1  0  0  3  0  0  0  0  0  0
  188.4320  177.6560  141.6700 O   0  0  0  0  0  1  0  0  0  0  0  0
  191.6220  177.4020  141.1500 O   0  0  0  0  0  1  0  0  0  0  0  0
  190.4950  176.6510  141.0820 N   0  0  0  0  0  0  0  0  0  0  0  0
  190.2440  176.1270  142.4200 C   0  0  0  0  0  2  0  0  0  0  0  0
  191.1900  176.6400  143.3080 O   0  0  0  0  0  0  0  0  0  0  0  0
  190.4960  176.7800  144.5110 C   0  0  0  0  0  2  0  0  0  0  0  0
  188.9070  177.9600  145.4800 C   0  0  0  0  0  1  0  0  0  0  0  0
  189.9880  178.0740  144.6080 O   0  0  0  0  0  0  0  0  0  0  0  0
  1  6  1  0  0  0  0
  2  9  1  0  0  0  0
  2  8  1  0  0  0  0
  3  4  1  6  0  0  0
  3 10  1  0  0  0  0
  4  9  1  0  0  0  0
  5  7  1  6  0  0  0
  5  6  1  0  0  0  0
  6 13  1  6  0  0  0
 10  5  1  0  0  0  0
 10 35  1  1  0  0  0
 11  8  1  1  0  0  0
 11  3  1  0  0  0  0
 11  1  1  0  0  0  0
 13 15  1  0  0  0  0
 13 12  2  0  0  0  0
 14 16  2  0  0  0  0
 15 16  1  0  0  0  0
 16 23  1  0  0  0  0
 18 17  2  0  0  0  0
 19 22  1  0  0  0  0
 20 19  1  0  0  0  0
 20 21  2  0  0  0  0
 21 18  1  0  0  0  0
 22 15  1  1  0  0  0
 22 17  1  0  0  0  0
 23 24  2  0  0  0  0
 23 31  1  0  0  0  0
 25 28  1  0  0  0  0
 26 27  1  0  0  0  0
 27 30  2  0  0  0  0
 28 29  2  0  0  0  0
 29 30  1  0  0  0  0
 31 26  2  0  0  0  0
 31 28  1  0  0  0  0
 32 30  1  6  0  0  0
 32 34  1  0  0  0  0
 32 33  1  0  0  0  0
 34 33  1  0  0  0  0
 36 35  1  0  0  0  0
 37 36  2  0  0  0  0
 38 36  1  0  0  0  0
 38 39  1  0  0  0  0
 39 44  1  6  0  0  0
 41 40  1  6  0  0  0
 41 42  1  0  0  0  0
 41 39  1  0  0  0  0
 42 43  1  0  0  0  0
 44 46  1  0  0  0  0
 46 45  1  6  0  0  0
 46 47  1  0  0  0  0
 47 50  1  0  0  0  0
 47 48  1  1  0  0  0
 50 49  1  0  0  0  0
 50 51  1  0  0  0  0
 51 52  1  0  0  0  0
 52 53  1  0  0  0  0
 53 55  1  0  0  0  0
 55 54  1  0  0  0  0
M  END
>  <MODEL>
5

>  <REMARK>
 VINA RESULT:      -6.1      2.413      4.770
  Name = 
  19 active torsions:
  status: ('A' for Active; 'I' for Inactive)
    1  A    between atoms: C_1  and  C_21
    2  A    between atoms: C_1  and  N_53
    3  A    between atoms: C_3  and  O_25
    4  A    between atoms: C_3  and  O_38
    5  A    between atoms: C_6  and  C_14
    6  A    between atoms: C_6  and  O_22
    7  A    between atoms: C_6  and  C_46
    8  A    between atoms: C_8  and  O_22
    9  A    between atoms: C_8  and  O_54
   10  A    between atoms: C_10  and  C_48
   11  A    between atoms: C_14  and  C_20
   12  A    between atoms: C_19  and  C_37
   13  A    between atoms: C_21  and  C_46
   14  A    between atoms: C_26  and  N_45
   15  A    between atoms: C_29  and  O_38
   16  A    between atoms: C_29  and  N_53
   17  A    between atoms: C_33  and  C_49
   18  A    between atoms: C_33  and  C_52
   19  A    between atoms: C_51  and  O_54
                            x       y       z     vdW  Elec       q    Type
                         _______ _______ _______ _____ _____    ______ ____

>  <TORSDO>
F 19

$$$$
=
 OpenBabel11052415023D

 55 59  0  0  1  0  0  0  0  0999 V2000
  189.7200  176.7960  139.7600 C   0  0  0  0  0  2  0  0  0  0  0  0
  188.7940  177.9650  143.3020 C   0  0  0  0  0  2  0  0  0  0  0  0
  187.6240  177.8450  140.7180 C   0  0  1  0  0  3  0  0  0  0  0  0
  187.1140  178.6660  141.7420 O   0  0  0  0  0  0  0  0  0  0  0  0
  188.2060  178.2240  138.2310 C   0  0  2  0  0  3  0  0  0  0  0  0
  189.0080  176.9260  138.4070 C   0  0  1  0  0  3  0  0  0  0  0  0
  189.0510  179.3350  138.2150 O   0  0  0  0  0  1  0  0  0  0  0  0
  189.5510  177.2180  142.2070 C   0  0  0  0  0  2  0  0  0  0  0  0
  187.3080  177.9790  142.9520 C   0  0  0  0  0  2  0  0  0  0  0  0
  187.1720  178.3910  139.3510 C   0  0  1  0  0  3  0  0  0  0  0  0
  189.1590  177.7380  140.8250 C   0  0  1  0  0  3  0  0  0  0  0  0
  190.4120  177.5520  136.5970 O   0  0  0  0  0  0  0  0  0  0  0  0
  189.8820  176.5990  137.2290 C   0  0  0  0  0  0  0  0  0  0  0  0
  189.4330  173.1030  137.4080 O   0  0  0  0  0  0  0  0  0  0  0  0
  190.2040  175.2440  136.8660 N   0  0  0  0  0  0  0  0  0  0  0  0
  189.2020  174.2080  136.8440 C   0  0  0  0  0  0  0  0  0  0  0  0
  191.7600  173.5490  136.0000 C   0  0  0  0  0  3  0  0  0  0  0  0
  192.9290  172.9080  136.0850 C   0  0  0  0  0  3  0  0  0  0  0  0
  192.4750  175.1080  137.8440 C   0  0  0  0  0  2  0  0  0  0  0  0
  193.8600  174.5650  137.6190 C   0  0  0  0  0  3  0  0  0  0  0  0
  194.0570  173.5100  136.8240 C   0  0  0  0  0  3  0  0  0  0  0  0
  191.6070  174.9280  136.5900 C   0  0  2  0  0  3  0  0  0  0  0  0
  187.9440  174.3950  136.0910 C   0  0  0  0  0  0  0  0  0  0  0  0
  187.8750  175.3310  135.2490 O   0  0  0  0  0  0  0  0  0  0  0  0
  187.8380  171.6060  134.6040 Cl  0  0  0  0  0  0  0  0  0  0  0  0
  185.7590  173.9640  137.1890 C   0  0  0  0  0  3  0  0  0  0  0  0
  184.6120  173.1990  137.4000 C   0  0  0  0  0  3  0  0  0  0  0  0
  186.6100  172.2800  135.6640 C   0  0  0  0  0  0  0  0  0  0  0  0
  185.4620  171.5170  135.8860 C   0  0  0  0  0  3  0  0  0  0  0  0
  184.4490  171.9790  136.7370 C   0  0  0  0  0  0  0  0  0  0  0  0
  186.7670  173.5250  136.3190 C   0  0  0  0  0  0  0  0  0  0  0  0
  183.2340  171.1430  136.9980 C   0  0  1  0  0  3  0  0  0  0  0  0
  182.0170  171.9260  136.7860 C   0  0  0  0  0  2  0  0  0  0  0  0
  182.4570  170.9750  135.7560 N   0  0  0  0  0  2  0  0  0  0  0  0
  185.9490  177.7750  138.9720 O   0  0  0  0  0  0  0  0  0  0  0  0
  184.7370  178.4590  139.0350 C   0  0  0  0  0  0  0  0  0  0  0  0
  184.7390  179.7180  139.0740 O   0  0  0  0  0  0  0  0  0  0  0  0
  183.5320  177.7520  139.0690 O   0  0  0  0  0  0  0  0  0  0  0  0
  182.3060  178.3190  138.6330 C   0  0  1  0  0  3  0  0  0  0  0  0
  180.6790  176.9280  137.5140 O   0  0  0  0  0  1  0  0  0  0  0  0
  181.8690  177.6420  137.3290 C   0  0  1  0  0  3  0  0  0  0  0  0
  181.7110  178.6570  136.2090 C   0  0  0  0  0  2  0  0  0  0  0  0
  182.2160  178.1320  135.0200 O   0  0  0  0  0  1  0  0  0  0  0  0
  181.2700  178.1750  139.7430 C   0  0  0  0  0  2  0  0  0  0  0  0
  180.9710  179.1920  141.9850 C   0  0  0  0  0  1  0  0  0  0  0  0
  181.0720  179.4830  140.4960 C   0  0  2  0  0  3  0  0  0  0  0  0
  179.8070  180.1900  140.0030 C   0  0  1  0  0  3  0  0  0  0  0  0
  178.9310  180.4490  141.0680 O   0  0  0  0  0  1  0  0  0  0  0  0
  181.4480  181.3740  138.9550 O   0  0  0  0  0  1  0  0  0  0  0  0
  180.1310  181.4240  139.2740 N   0  0  0  0  0  0  0  0  0  0  0  0
  179.3870  181.4880  138.0210 C   0  0  0  0  0  2  0  0  0  0  0  0
  180.2360  181.8940  136.9920 O   0  0  0  0  0  0  0  0  0  0  0  0
  179.7530  183.1480  136.6160 C   0  0  0  0  0  2  0  0  0  0  0  0
  181.3460  184.5770  137.1400 C   0  0  0  0  0  1  0  0  0  0  0  0
  180.7870  183.8990  136.0590 O   0  0  0  0  0  0  0  0  0  0  0  0
  3 11  1  0  0  0  0
  3  4  1  1  0  0  0
  4  9  1  0  0  0  0
  5  7  1  1  0  0  0
  5  6  1  0  0  0  0
  5 10  1  0  0  0  0
  6 13  1  6  0  0  0
  6  1  1  0  0  0  0
  8  2  1  0  0  0  0
  9  2  1  0  0  0  0
 10 35  1  6  0  0  0
 10  3  1  0  0  0  0
 11  1  1  6  0  0  0
 11  8  1  0  0  0  0
 12 13  2  0  0  0  0
 15 13  1  0  0  0  0
 16 15  1  0  0  0  0
 16 14  2  0  0  0  0
 17 18  2  0  0  0  0
 17 22  1  0  0  0  0
 18 21  1  0  0  0  0
 20 19  1  0  0  0  0
 21 20  2  0  0  0  0
 22 15  1  1  0  0  0
 22 19  1  0  0  0  0
 23 31  1  0  0  0  0
 23 16  1  0  0  0  0
 24 23  2  0  0  0  0
 25 28  1  0  0  0  0
 26 27  1  0  0  0  0
 28 29  2  0  0  0  0
 28 31  1  0  0  0  0
 29 30  1  0  0  0  0
 30 27  2  0  0  0  0
 31 26  2  0  0  0  0
 32 30  1  6  0  0  0
 33 32  1  0  0  0  0
 34 33  1  0  0  0  0
 34 32  1  0  0  0  0
 35 36  1  0  0  0  0
 36 38  1  0  0  0  0
 36 37  2  0  0  0  0
 39 38  1  0  0  0  0
 39 44  1  1  0  0  0
 41 40  1  1  0  0  0
 41 39  1  0  0  0  0
 42 41  1  0  0  0  0
 43 42  1  0  0  0  0
 44 46  1  0  0  0  0
 46 45  1  1  0  0  0
 47 46  1  0  0  0  0
 47 48  1  1  0  0  0
 49 50  1  0  0  0  0
 50 47  1  0  0  0  0
 51 50  1  0  0  0  0
 52 51  1  0  0  0  0
 53 52  1  0  0  0  0
 55 53  1  0  0  0  0
 55 54  1  0  0  0  0
M  END
>  <MODEL>
6

>  <REMARK>
 VINA RESULT:      -5.7      3.912      9.850
  Name = 
  19 active torsions:
  status: ('A' for Active; 'I' for Inactive)
    1  A    between atoms: C_1  and  C_21
    2  A    between atoms: C_1  and  N_53
    3  A    between atoms: C_3  and  O_25
    4  A    between atoms: C_3  and  O_38
    5  A    between atoms: C_6  and  C_14
    6  A    between atoms: C_6  and  O_22
    7  A    between atoms: C_6  and  C_46
    8  A    between atoms: C_8  and  O_22
    9  A    between atoms: C_8  and  O_54
   10  A    between atoms: C_10  and  C_48
   11  A    between atoms: C_14  and  C_20
   12  A    between atoms: C_19  and  C_37
   13  A    between atoms: C_21  and  C_46
   14  A    between atoms: C_26  and  N_45
   15  A    between atoms: C_29  and  O_38
   16  A    between atoms: C_29  and  N_53
   17  A    between atoms: C_33  and  C_49
   18  A    between atoms: C_33  and  C_52
   19  A    between atoms: C_51  and  O_54
                            x       y       z     vdW  Elec       q    Type
                         _______ _______ _______ _____ _____    ______ ____

>  <TORSDO>
F 19

$$$$
=
 OpenBabel11052415023D

 55 59  0  0  1  0  0  0  0  0999 V2000
  188.3580  178.5170  141.7960 C   0  0  0  0  0  2  0  0  0  0  0  0
  185.9760  178.4590  138.7800 C   0  0  0  0  0  2  0  0  0  0  0  0
  185.8350  178.6180  141.6110 C   0  0  1  0  0  3  0  0  0  0  0  0
  184.7250  178.2710  140.8170 O   0  0  0  0  0  0  0  0  0  0  0  0
  186.9100  177.6160  143.7340 C   0  0  2  0  0  3  0  0  0  0  0  0
  188.1140  178.4700  143.3100 C   0  0  1  0  0  3  0  0  0  0  0  0
  187.1240  176.2680  143.4390 O   0  0  0  0  0  1  0  0  0  0  0  0
  187.2810  178.6250  139.5550 C   0  0  0  0  0  2  0  0  0  0  0  0
  184.8290  179.0080  139.6250 C   0  0  0  0  0  2  0  0  0  0  0  0
  185.6260  178.0880  143.0430 C   0  0  1  0  0  3  0  0  0  0  0  0
  187.1390  178.0900  140.9780 C   0  0  1  0  0  3  0  0  0  0  0  0
  189.6890  179.0350  144.9940 O   0  0  0  0  0  0  0  0  0  0  0  0
  189.3540  178.1980  144.1150 C   0  0  0  0  0  0  0  0  0  0  0  0
  190.1980  175.1930  142.4690 O   0  0  0  0  0  0  0  0  0  0  0  0
  190.1040  176.9770  143.9780 N   0  0  0  0  0  0  0  0  0  0  0  0
  190.4090  176.4180  142.6840 C   0  0  0  0  0  0  0  0  0  0  0  0
  189.7040  176.7630  146.3940 C   0  0  0  0  0  3  0  0  0  0  0  0
  190.1820  176.5900  147.6290 C   0  0  0  0  0  3  0  0  0  0  0  0
  192.0030  176.3630  145.4440 C   0  0  0  0  0  2  0  0  0  0  0  0
  192.3590  175.8430  146.8110 C   0  0  0  0  0  3  0  0  0  0  0  0
  191.5150  175.9900  147.8360 C   0  0  0  0  0  3  0  0  0  0  0  0
  190.4890  176.2740  145.2030 C   0  0  2  0  0  3  0  0  0  0  0  0
  191.0480  177.2440  141.6400 C   0  0  0  0  0  0  0  0  0  0  0  0
  191.5630  178.3470  141.9700 O   0  0  0  0  0  0  0  0  0  0  0  0
  193.8460  177.1280  140.1690 Cl  0  0  0  0  0  0  0  0  0  0  0  0
  189.8700  176.4700  139.5950 C   0  0  0  0  0  3  0  0  0  0  0  0
  189.8420  176.1040  138.2500 C   0  0  0  0  0  3  0  0  0  0  0  0
  192.2740  176.7760  139.4690 C   0  0  0  0  0  0  0  0  0  0  0  0
  192.2380  176.4020  138.1240 C   0  0  0  0  0  3  0  0  0  0  0  0
  191.0230  176.0840  137.5010 C   0  0  0  0  0  0  0  0  0  0  0  0
  191.0760  176.8160  140.2220 C   0  0  0  0  0  0  0  0  0  0  0  0
  190.9930  175.6510  136.0690 C   0  0  1  0  0  3  0  0  0  0  0  0
  191.9640  174.5820  135.8340 C   0  0  0  0  0  2  0  0  0  0  0  0
  190.5390  174.2510  135.9710 N   0  0  0  0  0  2  0  0  0  0  0  0
  184.9920  179.0850  143.8320 O   0  0  0  0  0  0  0  0  0  0  0  0
  183.6090  179.1130  143.9990 C   0  0  0  0  0  0  0  0  0  0  0  0
  183.1000  178.6000  145.0290 O   0  0  0  0  0  0  0  0  0  0  0  0
  182.7960  179.6930  143.0210 O   0  0  0  0  0  0  0  0  0  0  0  0
  181.5330  179.1510  142.6640 C   0  0  1  0  0  3  0  0  0  0  0  0
  179.8290  180.8580  142.5400 O   0  0  0  0  0  1  0  0  0  0  0  0
  180.4260  179.9210  143.3930 C   0  0  1  0  0  3  0  0  0  0  0  0
  179.3800  178.9740  143.9580 C   0  0  0  0  0  2  0  0  0  0  0  0
  179.8870  177.6760  143.9930 O   0  0  0  0  0  1  0  0  0  0  0  0
  181.3830  179.2040  141.1470 C   0  0  0  0  0  2  0  0  0  0  0  0
  181.5540  176.9080  140.2260 C   0  0  0  0  0  1  0  0  0  0  0  0
  180.5900  178.0140  140.6230 C   0  0  2  0  0  3  0  0  0  0  0  0
  179.7350  178.4350  139.4250 C   0  0  1  0  0  3  0  0  0  0  0  0
  178.9490  179.5530  139.7390 O   0  0  0  0  0  1  0  0  0  0  0  0
  180.1900  177.7970  137.2850 O   0  0  0  0  0  1  0  0  0  0  0  0
  180.5630  178.6870  138.2370 N   0  0  0  0  0  0  0  0  0  0  0  0
  180.3030  180.0210  137.7070 C   0  0  0  0  0  2  0  0  0  0  0  0
  181.4720  180.7810  137.7580 O   0  0  0  0  0  0  0  0  0  0  0  0
  181.1060  181.9350  138.4510 C   0  0  0  0  0  2  0  0  0  0  0  0
  180.3850  183.6080  137.2100 C   0  0  0  0  0  1  0  0  0  0  0  0
  181.5460  183.0580  137.7510 O   0  0  0  0  0  0  0  0  0  0  0  0
  1  6  1  0  0  0  0
  2  8  1  0  0  0  0
  2  9  1  0  0  0  0
  3  4  1  6  0  0  0
  3 10  1  0  0  0  0
  5  7  1  6  0  0  0
  6  5  1  0  0  0  0
  6 13  1  1  0  0  0
  9  4  1  0  0  0  0
 10  5  1  0  0  0  0
 10 35  1  1  0  0  0
 11  8  1  6  0  0  0
 11  3  1  0  0  0  0
 11  1  1  0  0  0  0
 13 12  2  0  0  0  0
 14 16  2  0  0  0  0
 15 13  1  0  0  0  0
 16 15  1  0  0  0  0
 17 18  2  0  0  0  0
 18 21  1  0  0  0  0
 19 20  1  0  0  0  0
 20 21  2  0  0  0  0
 22 15  1  6  0  0  0
 22 19  1  0  0  0  0
 22 17  1  0  0  0  0
 23 24  2  0  0  0  0
 23 16  1  0  0  0  0
 26 31  1  0  0  0  0
 27 26  2  0  0  0  0
 28 25  1  0  0  0  0
 28 31  2  0  0  0  0
 29 28  1  0  0  0  0
 30 29  2  0  0  0  0
 30 27  1  0  0  0  0
 31 23  1  0  0  0  0
 32 30  1  1  0  0  0
 33 34  1  0  0  0  0
 33 32  1  0  0  0  0
 34 32  1  0  0  0  0
 35 36  1  0  0  0  0
 36 37  2  0  0  0  0
 38 36  1  0  0  0  0
 39 44  1  6  0  0  0
 39 38  1  0  0  0  0
 39 41  1  0  0  0  0
 41 40  1  6  0  0  0
 41 42  1  0  0  0  0
 42 43  1  0  0  0  0
 46 45  1  6  0  0  0
 46 44  1  0  0  0  0
 47 48  1  1  0  0  0
 47 46  1  0  0  0  0
 49 50  1  0  0  0  0
 50 47  1  0  0  0  0
 51 52  1  0  0  0  0
 51 50  1  0  0  0  0
 52 53  1  0  0  0  0
 54 55  1  0  0  0  0
 55 53  1  0  0  0  0
M  END
>  <MODEL>
7

>  <REMARK>
 VINA RESULT:      -5.3      3.489     10.628
  Name = 
  19 active torsions:
  status: ('A' for Active; 'I' for Inactive)
    1  A    between atoms: C_1  and  C_21
    2  A    between atoms: C_1  and  N_53
    3  A    between atoms: C_3  and  O_25
    4  A    between atoms: C_3  and  O_38
    5  A    between atoms: C_6  and  C_14
    6  A    between atoms: C_6  and  O_22
    7  A    between atoms: C_6  and  C_46
    8  A    between atoms: C_8  and  O_22
    9  A    between atoms: C_8  and  O_54
   10  A    between atoms: C_10  and  C_48
   11  A    between atoms: C_14  and  C_20
   12  A    between atoms: C_19  and  C_37
   13  A    between atoms: C_21  and  C_46
   14  A    between atoms: C_26  and  N_45
   15  A    between atoms: C_29  and  O_38
   16  A    between atoms: C_29  and  N_53
   17  A    between atoms: C_33  and  C_49
   18  A    between atoms: C_33  and  C_52
   19  A    between atoms: C_51  and  O_54
                            x       y       z     vdW  Elec       q    Type
                         _______ _______ _______ _____ _____    ______ ____

>  <TORSDO>
F 19

$$$$
=
 OpenBabel11052415023D

 55 59  0  0  1  0  0  0  0  0999 V2000
  181.9850  179.5050  140.6830 C   0  0  0  0  0  2  0  0  0  0  0  0
  180.1750  178.9060  144.0210 C   0  0  0  0  0  2  0  0  0  0  0  0
  182.8060  178.7700  142.9630 C   0  0  1  0  0  3  0  0  0  0  0  0
  182.4420  178.1390  144.1680 O   0  0  0  0  0  0  0  0  0  0  0  0
  184.0840  178.0110  140.8520 C   0  0  2  0  0  3  0  0  0  0  0  0
  183.4280  179.2510  140.2280 C   0  0  1  0  0  3  0  0  0  0  0  0
  183.4440  176.8430  140.4330 O   0  0  0  0  0  1  0  0  0  0  0  0
  180.4070  179.4340  142.6070 C   0  0  0  0  0  2  0  0  0  0  0  0
  181.4910  178.9650  144.7920 C   0  0  0  0  0  2  0  0  0  0  0  0
  184.0560  178.0820  142.3830 C   0  0  1  0  0  3  0  0  0  0  0  0
  181.6240  178.7640  141.9720 C   0  0  1  0  0  3  0  0  0  0  0  0
  184.3460  180.2670  138.2880 O   0  0  0  0  0  0  0  0  0  0  0  0
  183.6180  179.3440  138.7400 C   0  0  0  0  0  0  0  0  0  0  0  0
  181.5190  176.6220  137.9400 O   0  0  0  0  0  0  0  0  0  0  0  0
  183.0770  178.3630  137.8350 N   0  0  0  0  0  0  0  0  0  0  0  0
  181.7310  177.8650  137.9770 C   0  0  0  0  0  0  0  0  0  0  0  0
  183.2000  177.4120  135.5730 C   0  0  0  0  0  3  0  0  0  0  0  0
  183.7230  176.5220  134.7240 C   0  0  0  0  0  3  0  0  0  0  0  0
  184.8240  176.6760  137.3520 C   0  0  0  0  0  2  0  0  0  0  0  0
  185.5600  175.9790  136.2400 C   0  0  0  0  0  3  0  0  0  0  0  0
  185.0180  175.8790  135.0220 C   0  0  0  0  0  3  0  0  0  0  0  0
  183.9650  177.8250  136.8040 C   0  0  2  0  0  3  0  0  0  0  0  0
  180.5910  178.7990  138.0720 C   0  0  0  0  0  0  0  0  0  0  0  0
  179.5710  178.4460  138.7250 O   0  0  0  0  0  0  0  0  0  0  0  0
  180.1690  178.8980  134.9390 Cl  0  0  0  0  0  0  0  0  0  0  0  0
  180.8090  181.2710  138.1850 C   0  0  0  0  0  3  0  0  0  0  0  0
  180.8820  182.5320  137.5950 C   0  0  0  0  0  3  0  0  0  0  0  0
  180.4790  180.2610  136.0030 C   0  0  0  0  0  0  0  0  0  0  0  0
  180.5460  181.5290  135.4200 C   0  0  0  0  0  3  0  0  0  0  0  0
  180.7680  182.6680  136.2070 C   0  0  0  0  0  0  0  0  0  0  0  0
  180.6130  180.1210  137.4050 C   0  0  0  0  0  0  0  0  0  0  0  0
  180.8070  184.0280  135.5840 C   0  0  1  0  0  3  0  0  0  0  0  0
  180.0740  184.9910  136.4050 C   0  0  0  0  0  2  0  0  0  0  0  0
  181.5420  184.9640  136.4540 N   0  0  0  0  0  2  0  0  0  0  0  0
  185.2240  178.7380  142.8560 O   0  0  0  0  0  0  0  0  0  0  0  0
  186.2440  178.0400  143.4990 C   0  0  0  0  0  0  0  0  0  0  0  0
  186.4450  178.2310  144.7270 O   0  0  0  0  0  0  0  0  0  0  0  0
  187.0450  177.1480  142.7800 O   0  0  0  0  0  0  0  0  0  0  0  0
  188.1570  177.5780  142.0090 C   0  0  1  0  0  3  0  0  0  0  0  0
  188.0810  179.7600  140.9760 O   0  0  0  0  0  1  0  0  0  0  0  0
  187.6600  178.4320  140.8370 C   0  0  1  0  0  3  0  0  0  0  0  0
  188.1260  177.8640  139.5060 C   0  0  0  0  0  2  0  0  0  0  0  0
  188.9490  178.7860  138.8610 O   0  0  0  0  0  1  0  0  0  0  0  0
  189.1270  178.3310  142.9120 C   0  0  0  0  0  2  0  0  0  0  0  0
  190.9070  177.1440  141.6570 C   0  0  0  0  0  1  0  0  0  0  0  0
  190.4570  177.5990  143.0360 C   0  0  2  0  0  3  0  0  0  0  0  0
  190.3140  176.3990  143.9750 C   0  0  1  0  0  3  0  0  0  0  0  0
  190.9550  175.2690  143.4440 O   0  0  0  0  0  1  0  0  0  0  0  0
  191.6830  177.7410  145.2050 O   0  0  0  0  0  1  0  0  0  0  0  0
  190.8150  176.7070  145.3220 N   0  0  0  0  0  0  0  0  0  0  0  0
  189.7260  177.1520  146.1830 C   0  0  0  0  0  2  0  0  0  0  0  0
  190.1110  177.0410  147.5190 O   0  0  0  0  0  0  0  0  0  0  0  0
  189.3410  177.9980  148.1830 C   0  0  0  0  0  2  0  0  0  0  0  0
  187.1760  178.4030  148.1240 C   0  0  0  0  0  1  0  0  0  0  0  0
  188.1070  177.4470  148.5250 O   0  0  0  0  0  0  0  0  0  0  0  0
  2  9  1  0  0  0  0
  3  4  1  1  0  0  0
  4  9  1  0  0  0  0
  5  7  1  1  0  0  0
  5 10  1  0  0  0  0
  6 13  1  6  0  0  0
  6  1  1  0  0  0  0
  6  5  1  0  0  0  0
  8  2  1  0  0  0  0
 10 35  1  6  0  0  0
 10  3  1  0  0  0  0
 11  1  1  6  0  0  0
 11  8  1  0  0  0  0
 11  3  1  0  0  0  0
 12 13  2  0  0  0  0
 14 16  2  0  0  0  0
 15 16  1  0  0  0  0
 15 13  1  0  0  0  0
 16 23  1  0  0  0  0
 17 22  1  0  0  0  0
 18 21  1  0  0  0  0
 18 17  2  0  0  0  0
 20 19  1  0  0  0  0
 21 20  2  0  0  0  0
 22 19  1  0  0  0  0
 22 15  1  1  0  0  0
 23 24  2  0  0  0  0
 25 28  1  0  0  0  0
 27 26  1  0  0  0  0
 28 31  1  0  0  0  0
 29 28  2  0  0  0  0
 29 30  1  0  0  0  0
 30 27  2  0  0  0  0
 31 23  1  0  0  0  0
 31 26  2  0  0  0  0
 32 30  1  1  0  0  0
 32 33  1  0  0  0  0
 32 34  1  0  0  0  0
 33 34  1  0  0  0  0
 35 36  1  0  0  0  0
 36 37  2  0  0  0  0
 38 36  1  0  0  0  0
 39 38  1  0  0  0  0
 39 44  1  1  0  0  0
 41 40  1  1  0  0  0
 41 39  1  0  0  0  0
 42 41  1  0  0  0  0
 43 42  1  0  0  0  0
 44 46  1  0  0  0  0
 46 45  1  6  0  0  0
 46 47  1  0  0  0  0
 47 48  1  6  0  0  0
 47 50  1  0  0  0  0
 49 50  1  0  0  0  0
 50 51  1  0  0  0  0
 51 52  1  0  0  0  0
 52 53  1  0  0  0  0
 53 55  1  0  0  0  0
 54 55  1  0  0  0  0
M  END
>  <MODEL>
8

>  <REMARK>
 VINA RESULT:      -5.2      3.180      6.137
  Name = 
  19 active torsions:
  status: ('A' for Active; 'I' for Inactive)
    1  A    between atoms: C_1  and  C_21
    2  A    between atoms: C_1  and  N_53
    3  A    between atoms: C_3  and  O_25
    4  A    between atoms: C_3  and  O_38
    5  A    between atoms: C_6  and  C_14
    6  A    between atoms: C_6  and  O_22
    7  A    between atoms: C_6  and  C_46
    8  A    between atoms: C_8  and  O_22
    9  A    between atoms: C_8  and  O_54
   10  A    between atoms: C_10  and  C_48
   11  A    between atoms: C_14  and  C_20
   12  A    between atoms: C_19  and  C_37
   13  A    between atoms: C_21  and  C_46
   14  A    between atoms: C_26  and  N_45
   15  A    between atoms: C_29  and  O_38
   16  A    between atoms: C_29  and  N_53
   17  A    between atoms: C_33  and  C_49
   18  A    between atoms: C_33  and  C_52
   19  A    between atoms: C_51  and  O_54
                            x       y       z     vdW  Elec       q    Type
                         _______ _______ _______ _____ _____    ______ ____

>  <TORSDO>
F 19

$$$$
=
 OpenBabel11052415023D

 55 59  0  0  1  0  0  0  0  0999 V2000
  190.0780  176.7280  139.3870 C   0  0  0  0  0  2  0  0  0  0  0  0
  189.3450  178.2390  142.8450 C   0  0  0  0  0  2  0  0  0  0  0  0
  188.0450  177.8940  140.3440 C   0  0  1  0  0  3  0  0  0  0  0  0
  187.5960  178.8160  141.3090 O   0  0  0  0  0  0  0  0  0  0  0  0
  188.5050  178.0290  137.8070 C   0  0  2  0  0  3  0  0  0  0  0  0
  189.3000  176.7410  138.0650 C   0  0  1  0  0  3  0  0  0  0  0  0
  189.3600  179.1200  137.6440 O   0  0  0  0  0  1  0  0  0  0  0  0
  190.0370  177.3800  141.7890 C   0  0  0  0  0  2  0  0  0  0  0  0
  187.8430  178.2430  142.5680 C   0  0  0  0  0  2  0  0  0  0  0  0
  187.5300  178.3170  138.9550 C   0  0  1  0  0  3  0  0  0  0  0  0
  189.5820  177.7750  140.3850 C   0  0  1  0  0  3  0  0  0  0  0  0
  190.6930  177.1670  136.1910 O   0  0  0  0  0  0  0  0  0  0  0  0
  190.1100  176.2900  136.8820 C   0  0  0  0  0  0  0  0  0  0  0  0
  189.3940  172.8540  137.2430 O   0  0  0  0  0  0  0  0  0  0  0  0
  190.3140  174.8980  136.5770 N   0  0  0  0  0  0  0  0  0  0  0  0
  189.2330  173.9460  136.6320 C   0  0  0  0  0  0  0  0  0  0  0  0
  192.6500  174.9120  137.3410 C   0  0  0  0  0  3  0  0  0  0  0  0
  193.9530  175.0080  137.0610 C   0  0  0  0  0  3  0  0  0  0  0  0
  192.1160  174.9110  134.8800 C   0  0  0  0  0  2  0  0  0  0  0  0
  193.5850  174.6610  134.6710 C   0  0  0  0  0  3  0  0  0  0  0  0
  194.4430  174.7480  135.6930 C   0  0  0  0  0  3  0  0  0  0  0  0
  191.6780  174.4590  136.2810 C   0  0  2  0  0  3  0  0  0  0  0  0
  187.9720  174.1970  135.9040 C   0  0  0  0  0  0  0  0  0  0  0  0
  187.9600  175.0740  134.9980 O   0  0  0  0  0  0  0  0  0  0  0  0
  187.5320  171.3520  134.5950 Cl  0  0  0  0  0  0  0  0  0  0  0  0
  185.8060  174.0470  137.1110 C   0  0  0  0  0  3  0  0  0  0  0  0
  184.6020  173.4110  137.4130 C   0  0  0  0  0  3  0  0  0  0  0  0
  186.4240  172.2040  135.6590 C   0  0  0  0  0  0  0  0  0  0  0  0
  185.2190  171.5700  135.9710 C   0  0  0  0  0  3  0  0  0  0  0  0
  184.2930  172.1770  136.8320 C   0  0  0  0  0  0  0  0  0  0  0  0
  186.7280  173.4610  136.2310 C   0  0  0  0  0  0  0  0  0  0  0  0
  183.0170  171.4810  137.1910 C   0  0  1  0  0  3  0  0  0  0  0  0
  181.8630  172.2550  136.7330 C   0  0  0  0  0  2  0  0  0  0  0  0
  182.2980  171.0790  135.9680 N   0  0  0  0  0  2  0  0  0  0  0  0
  186.2830  177.6870  138.6970 O   0  0  0  0  0  0  0  0  0  0  0  0
  185.0740  178.3380  138.9350 C   0  0  0  0  0  0  0  0  0  0  0  0
  184.8270  179.4200  138.3400 O   0  0  0  0  0  0  0  0  0  0  0  0
  184.1530  177.8010  139.8380 O   0  0  0  0  0  0  0  0  0  0  0  0
  182.7830  177.6260  139.5120 C   0  0  1  0  0  3  0  0  0  0  0  0
  182.1580  175.4520  138.6660 O   0  0  0  0  0  1  0  0  0  0  0  0
  182.6650  176.7030  138.2940 C   0  0  1  0  0  3  0  0  0  0  0  0
  181.8000  177.3270  137.2120 C   0  0  0  0  0  2  0  0  0  0  0  0
  182.6090  177.8990  136.2310 O   0  0  0  0  0  1  0  0  0  0  0  0
  182.0480  177.0820  140.7320 C   0  0  0  0  0  2  0  0  0  0  0  0
  181.0880  179.3650  140.8630 C   0  0  0  0  0  1  0  0  0  0  0  0
  181.6290  178.2000  141.6770 C   0  0  2  0  0  3  0  0  0  0  0  0
  182.8210  178.6490  142.5260 C   0  0  1  0  0  3  0  0  0  0  0  0
  183.5130  179.6970  141.9020 O   0  0  0  0  0  1  0  0  0  0  0  0
  181.2740  178.3300  144.1680 O   0  0  0  0  0  1  0  0  0  0  0  0
  182.4020  179.0250  143.8840 N   0  0  0  0  0  0  0  0  0  0  0  0
  183.4120  178.6280  144.8580 C   0  0  0  0  0  2  0  0  0  0  0  0
  184.5380  179.4400  144.7210 O   0  0  0  0  0  0  0  0  0  0  0  0
  185.4230  178.9740  145.6950 C   0  0  0  0  0  2  0  0  0  0  0  0
  187.1580  177.6290  145.8860 C   0  0  0  0  0  1  0  0  0  0  0  0
  185.8770  177.7040  145.3430 O   0  0  0  0  0  0  0  0  0  0  0  0
  3 11  1  0  0  0  0
  3  4  1  1  0  0  0
  4  9  1  0  0  0  0
  5  7  1  1  0  0  0
  5  6  1  0  0  0  0
  5 10  1  0  0  0  0
  6 13  1  6  0  0  0
  6  1  1  0  0  0  0
  8  2  1  0  0  0  0
  9  2  1  0  0  0  0
 10 35  1  6  0  0  0
 10  3  1  0  0  0  0
 11  1  1  6  0  0  0
 11  8  1  0  0  0  0
 12 13  2  0  0  0  0
 15 16  1  0  0  0  0
 15 13  1  0  0  0  0
 16 14  2  0  0  0  0
 18 17  2  0  0  0  0
 19 22  1  0  0  0  0
 20 19  1  0  0  0  0
 20 21  2  0  0  0  0
 21 18  1  0  0  0  0
 22 15  1  1  0  0  0
 22 17  1  0  0  0  0
 23 31  1  0  0  0  0
 23 16  1  0  0  0  0
 24 23  2  0  0  0  0
 25 28  1  0  0  0  0
 26 27  1  0  0  0  0
 28 29  2  0  0  0  0
 28 31  1  0  0  0  0
 29 30  1  0  0  0  0
 30 27  2  0  0  0  0
 31 26  2  0  0  0  0
 32 30  1  6  0  0  0
 33 32  1  0  0  0  0
 34 33  1  0  0  0  0
 34 32  1  0  0  0  0
 35 36  1  0  0  0  0
 36 38  1  0  0  0  0
 37 36  2  0  0  0  0
 39 38  1  0  0  0  0
 39 44  1  1  0  0  0
 41 40  1  1  0  0  0
 41 39  1  0  0  0  0
 42 41  1  0  0  0  0
 43 42  1  0  0  0  0
 44 46  1  0  0  0  0
 46 45  1  6  0  0  0
 46 47  1  0  0  0  0
 47 48  1  6  0  0  0
 47 50  1  0  0  0  0
 50 49  1  0  0  0  0
 50 51  1  0  0  0  0
 52 51  1  0  0  0  0
 52 53  1  0  0  0  0
 55 53  1  0  0  0  0
 55 54  1  0  0  0  0
M  END
>  <MODEL>
9

>  <REMARK>
 VINA RESULT:      -5.2      3.211      8.208
  Name = 
  19 active torsions:
  status: ('A' for Active; 'I' for Inactive)
    1  A    between atoms: C_1  and  C_21
    2  A    between atoms: C_1  and  N_53
    3  A    between atoms: C_3  and  O_25
    4  A    between atoms: C_3  and  O_38
    5  A    between atoms: C_6  and  C_14
    6  A    between atoms: C_6  and  O_22
    7  A    between atoms: C_6  and  C_46
    8  A    between atoms: C_8  and  O_22
    9  A    between atoms: C_8  and  O_54
   10  A    between atoms: C_10  and  C_48
   11  A    between atoms: C_14  and  C_20
   12  A    between atoms: C_19  and  C_37
   13  A    between atoms: C_21  and  C_46
   14  A    between atoms: C_26  and  N_45
   15  A    between atoms: C_29  and  O_38
   16  A    between atoms: C_29  and  N_53
   17  A    between atoms: C_33  and  C_49
   18  A    between atoms: C_33  and  C_52
   19  A    between atoms: C_51  and  O_54
                            x       y       z     vdW  Elec       q    Type
                         _______ _______ _______ _____ _____    ______ ____

>  <TORSDO>
F 19

$$$$
