=
 OpenBabel11052415473D

 34 39  0  0  1  0  0  0  0  0999 V2000
  187.7180  177.7890  144.9940 C   0  0  0  0  0  0  0  0  0  0  0  0
  191.2350  176.6510  143.8200 C   0  0  0  0  0  2  0  0  0  0  0  0
  191.3510  177.2270  140.3450 C   0  0  0  0  0  0  0  0  0  0  0  0
  190.2670  177.0520  146.0050 C   0  0  0  0  0  3  0  0  0  0  0  0
  185.4780  178.5300  145.6700 C   0  0  0  0  0  0  0  0  0  0  0  0
  186.4090  178.1870  144.6430 C   0  0  0  0  0  3  0  0  0  0  0  0
  187.1640  178.0860  147.3170 C   0  0  0  0  0  0  0  0  0  0  0  0
  187.8330  177.9430  148.4860 N   0  0  0  0  0  0  0  0  0  0  0  0
  192.7330  177.3680  140.2820 O   0  0  0  0  0  1  0  0  0  0  0  0
  185.8570  178.4850  147.0420 C   0  0  0  0  0  3  0  0  0  0  0  0
  189.1660  177.4300  146.8330 N   0  0  0  0  0  0  0  0  0  0  0  0
  188.0050  177.7680  146.3260 C   0  0  0  0  0  0  0  0  0  0  0  0
  189.0690  177.5390  148.1550 N   0  0  0  0  0  0  0  0  0  0  0  0
  191.4410  177.7150  142.7740 C   0  0  0  0  0  2  0  0  0  0  0  0
  190.7130  176.9610  139.2910 O   0  0  0  0  0  0  0  0  0  0  0  0
  190.6630  177.3810  141.5940 N   0  0  0  0  0  0  0  0  0  0  0  0
  189.2310  177.2490  141.6180 C   0  0  0  0  0  3  0  0  0  0  0  0
  190.0790  177.0420  144.6620 C   0  0  0  0  0  0  0  0  0  0  0  0
  188.4250  177.2850  142.6890 C   0  0  0  0  0  3  0  0  0  0  0  0
  188.7780  177.4130  144.0820 N   0  0  0  0  0  0  0  0  0  0  0  0
  184.1010  178.9660  145.2980 C   0  0  0  0  0  2  0  0  0  0  0  0
  184.3880  178.7430  141.4740 C   0  0  0  0  0  2  0  0  0  0  0  0
  182.3140  178.9140  143.5440 C   0  0  0  0  0  2  0  0  0  0  0  0
  181.4260  179.2880  139.4670 C   0  0  2  0  0  3  0  0  0  0  0  0
  182.6600  178.7050  139.8170 O   0  0  0  0  0  0  0  0  0  0  0  0
  182.9550  179.1290  141.1250 C   0  0  1  0  0  3  0  0  0  0  0  0
  180.5560  178.8990  141.7720 C   0  0  0  0  0  2  0  0  0  0  0  0
  181.9790  178.4790  142.1220 C   0  0  2  0  0  3  0  0  0  0  0  0
  180.2880  178.6630  140.2880 C   0  0  0  0  0  2  0  0  0  0  0  0
  183.7520  178.5240  143.8860 C   0  0  1  0  0  3  0  0  0  0  0  0
  184.7180  179.1740  142.9000 C   0  0  0  0  0  2  0  0  0  0  0  0
  181.1930  179.1640  137.9610 C   0  0  1  0  0  3  0  0  0  0  0  0
  181.0240  180.5180  137.2900 C   0  0  0  0  0  1  0  0  0  0  0  0
  182.2840  178.4370  137.3380 N   0  0  0  0  0  1  0  0  0  0  0  0
  1 12  1  0  0  0  0
  2 18  1  0  0  0  0
  3 16  1  0  0  0  0
  4 11  1  0  0  0  0
  5 10  2  0  0  0  0
  6  1  2  0  0  0  0
  6  5  1  0  0  0  0
  7  8  1  0  0  0  0
  9  3  1  0  0  0  0
 10  7  1  0  0  0  0
 11 13  1  0  0  0  0
 12 11  1  0  0  0  0
 12  7  2  0  0  0  0
 13  8  2  0  0  0  0
 14  2  1  0  0  0  0
 15  3  2  0  0  0  0
 16 17  1  0  0  0  0
 16 14  1  0  0  0  0
 17 19  2  0  0  0  0
 18  4  2  0  0  0  0
 19 20  1  0  0  0  0
 20 18  1  0  0  0  0
 20  1  1  0  0  0  0
 21  5  1  0  0  0  0
 22 31  1  0  0  0  0
 23 30  1  0  0  0  0
 24 32  1  6  0  0  0
 24 25  1  0  0  0  0
 24 29  1  0  0  0  0
 25 26  1  0  0  0  0
 26 22  1  1  0  0  0
 26 28  1  0  0  0  0
 28 27  1  6  0  0  0
 28 23  1  0  0  0  0
 29 27  1  0  0  0  0
 30 21  1  1  0  0  0
 31 30  1  0  0  0  0
 32 33  1  6  0  0  0
 34 32  1  0  0  0  0
M  END
>  <MODEL>
1

>  <REMARK>
 VINA RESULT:     -11.4      0.000      0.000
  Name = 
  3 active torsions:
  status: ('A' for Active; 'I' for Inactive)
    1  A    between atoms: C_7  and  C_11
    2  A    between atoms: C_8  and  C_18
    3  A    between atoms: C_18  and  C_30
                            x       y       z     vdW  Elec       q    Type
                         _______ _______ _______ _____ _____    ______ ____

>  <TORSDO>
F 3

$$$$
=
 OpenBabel11052415473D

 34 39  0  0  1  0  0  0  0  0999 V2000
  184.1260  178.7340  141.4900 C   0  0  0  0  0  0  0  0  0  0  0  0
  185.0320  178.5310  137.7250 C   0  0  0  0  0  2  0  0  0  0  0  0
  188.4070  177.5290  137.5730 C   0  0  0  0  0  0  0  0  0  0  0  0
  182.9300  178.7310  138.9150 C   0  0  0  0  0  3  0  0  0  0  0  0
  183.6180  178.8400  143.8890 C   0  0  0  0  0  0  0  0  0  0  0  0
  184.5720  178.7380  142.8310 C   0  0  0  0  0  3  0  0  0  0  0  0
  181.8550  178.9160  142.2660 C   0  0  0  0  0  0  0  0  0  0  0  0
  180.6420  178.9780  141.6670 N   0  0  0  0  0  0  0  0  0  0  0  0
  188.3130  176.9450  136.3140 O   0  0  0  0  0  0  0  0  0  0  0  0
  182.2250  178.9280  143.6100 C   0  0  0  0  0  3  0  0  0  0  0  0
  182.1880  178.8300  140.1310 N   0  0  0  0  0  0  0  0  0  0  0  0
  182.7790  178.8250  141.3020 C   0  0  0  0  0  0  0  0  0  0  0  0
  180.8800  178.9210  140.3480 N   0  0  0  0  0  0  0  0  0  0  0  0
  185.9470  177.3380  137.8130 C   0  0  0  0  0  2  0  0  0  0  0  0
  189.5410  177.8550  138.0150 O   0  0  0  0  0  1  0  0  0  0  0  0
  187.2270  177.7580  138.3550 N   0  0  0  0  0  0  0  0  0  0  0  0
  187.3630  178.3440  139.6610 C   0  0  0  0  0  3  0  0  0  0  0  0
  184.2810  178.6380  138.9980 C   0  0  0  0  0  0  0  0  0  0  0  0
  186.3830  178.7000  140.5040 C   0  0  0  0  0  3  0  0  0  0  0  0
  184.9550  178.6350  140.3070 N   0  0  0  0  0  0  0  0  0  0  0  0
  184.0880  178.8290  145.3050 C   0  0  0  0  0  2  0  0  0  0  0  0
  187.5870  177.4040  144.6060 C   0  0  0  0  0  2  0  0  0  0  0  0
  186.0610  178.5710  146.8260 C   0  0  0  0  0  2  0  0  0  0  0  0
  189.8090  176.7860  147.3970 C   0  0  2  0  0  3  0  0  0  0  0  0
  189.4540  177.1610  146.0850 O   0  0  0  0  0  0  0  0  0  0  0  0
  188.0520  177.2500  146.0500 C   0  0  1  0  0  3  0  0  0  0  0  0
  188.0310  178.2690  148.3290 C   0  0  0  0  0  2  0  0  0  0  0  0
  187.5800  178.4550  146.8840 C   0  0  2  0  0  3  0  0  0  0  0  0
  189.5200  177.9350  148.3760 C   0  0  0  0  0  2  0  0  0  0  0  0
  185.6030  178.7250  145.3760 C   0  0  1  0  0  3  0  0  0  0  0  0
  186.0660  177.5270  144.5520 C   0  0  0  0  0  2  0  0  0  0  0  0
  191.2680  176.3370  147.4410 C   0  0  1  0  0  3  0  0  0  0  0  0
  191.8980  176.2850  146.0580 C   0  0  0  0  0  1  0  0  0  0  0  0
  192.0430  177.2110  148.3030 N   0  0  0  0  0  1  0  0  0  0  0  0
  1  6  1  0  0  0  0
  2 14  1  0  0  0  0
  2 18  1  0  0  0  0
  3 15  1  0  0  0  0
  3 16  1  0  0  0  0
  4 18  2  0  0  0  0
  4 11  1  0  0  0  0
  5 21  1  0  0  0  0
  6  5  2  0  0  0  0
  7 10  2  0  0  0  0
  8  7  1  0  0  0  0
  9  3  2  0  0  0  0
 10  5  1  0  0  0  0
 11 13  1  0  0  0  0
 11 12  1  0  0  0  0
 12  1  2  0  0  0  0
 12  7  1  0  0  0  0
 13  8  2  0  0  0  0
 14 16  1  0  0  0  0
 16 17  1  0  0  0  0
 17 19  2  0  0  0  0
 18 20  1  0  0  0  0
 20 19  1  0  0  0  0
 20  1  1  0  0  0  0
 24 32  1  6  0  0  0
 24 29  1  0  0  0  0
 25 24  1  0  0  0  0
 26 22  1  6  0  0  0
 26 25  1  0  0  0  0
 26 28  1  0  0  0  0
 27 29  1  0  0  0  0
 28 23  1  1  0  0  0
 28 27  1  0  0  0  0
 30 21  1  1  0  0  0
 30 23  1  0  0  0  0
 31 22  1  0  0  0  0
 31 30  1  0  0  0  0
 32 33  1  6  0  0  0
 32 34  1  0  0  0  0
M  END
>  <MODEL>
2

>  <REMARK>
 VINA RESULT:     -11.2      2.695      8.062
  Name = 
  3 active torsions:
  status: ('A' for Active; 'I' for Inactive)
    1  A    between atoms: C_7  and  C_11
    2  A    between atoms: C_8  and  C_18
    3  A    between atoms: C_18  and  C_30
                            x       y       z     vdW  Elec       q    Type
                         _______ _______ _______ _____ _____    ______ ____

>  <TORSDO>
F 3

$$$$
=
 OpenBabel11052415473D

 34 39  0  0  1  0  0  0  0  0999 V2000
  188.4340  177.4290  145.2070 C   0  0  0  0  0  0  0  0  0  0  0  0
  191.6470  176.5010  143.2420 C   0  0  0  0  0  2  0  0  0  0  0  0
  190.8330  176.7860  139.8250 C   0  0  0  0  0  0  0  0  0  0  0  0
  191.2180  177.0020  145.5730 C   0  0  0  0  0  3  0  0  0  0  0  0
  186.3690  178.0290  146.3880 C   0  0  0  0  0  0  0  0  0  0  0  0
  187.0450  177.6810  145.1790 C   0  0  0  0  0  3  0  0  0  0  0  0
  188.4490  177.8740  147.5720 C   0  0  0  0  0  0  0  0  0  0  0  0
  189.3990  177.8890  148.5370 N   0  0  0  0  0  0  0  0  0  0  0  0
  192.1330  177.0400  139.4020 O   0  0  0  0  0  1  0  0  0  0  0  0
  187.0800  178.1340  147.6180 C   0  0  0  0  0  3  0  0  0  0  0  0
  190.3250  177.3530  146.6320 N   0  0  0  0  0  0  0  0  0  0  0  0
  189.0450  177.5450  146.4200 C   0  0  0  0  0  0  0  0  0  0  0  0
  190.5490  177.5650  147.9250 N   0  0  0  0  0  0  0  0  0  0  0  0
  191.4730  177.4850  142.1160 C   0  0  0  0  0  2  0  0  0  0  0  0
  189.9840  176.3790  138.9880 O   0  0  0  0  0  0  0  0  0  0  0  0
  190.4650  176.9870  141.1970 N   0  0  0  0  0  0  0  0  0  0  0  0
  189.1070  176.7350  141.5950 C   0  0  0  0  0  3  0  0  0  0  0  0
  190.7030  176.8610  144.3270 C   0  0  0  0  0  0  0  0  0  0  0  0
  188.5930  176.7930  142.8330 C   0  0  0  0  0  3  0  0  0  0  0  0
  189.2680  177.0690  144.0780 N   0  0  0  0  0  0  0  0  0  0  0  0
  184.9040  178.3120  146.3560 C   0  0  0  0  0  2  0  0  0  0  0  0
  182.5870  179.2980  143.4550 C   0  0  0  0  0  2  0  0  0  0  0  0
  185.3360  178.3650  143.8900 C   0  0  0  0  0  2  0  0  0  0  0  0
  183.6470  178.6080  140.0630 C   0  0  2  0  0  3  0  0  0  0  0  0
  183.0240  179.3300  141.1010 O   0  0  0  0  0  0  0  0  0  0  0  0
  183.4170  178.7290  142.3100 C   0  0  1  0  0  3  0  0  0  0  0  0
  185.7270  178.3930  141.4250 C   0  0  0  0  0  2  0  0  0  0  0  0
  184.9120  178.9920  142.5660 C   0  0  2  0  0  3  0  0  0  0  0  0
  185.1640  178.8500  140.0810 C   0  0  0  0  0  2  0  0  0  0  0  0
  184.4990  178.9400  145.0330 C   0  0  1  0  0  3  0  0  0  0  0  0
  183.0180  178.6730  144.7800 C   0  0  0  0  0  2  0  0  0  0  0  0
  183.0150  178.9680  138.7190 C   0  0  1  0  0  3  0  0  0  0  0  0
  181.8280  178.0800  138.3830 C   0  0  0  0  0  1  0  0  0  0  0  0
  182.6090  180.3610  138.7060 N   0  0  0  0  0  1  0  0  0  0  0  0
  1 12  1  0  0  0  0
  2 18  1  0  0  0  0
  3 16  1  0  0  0  0
  4 11  1  0  0  0  0
  5 10  2  0  0  0  0
  6  1  2  0  0  0  0
  6  5  1  0  0  0  0
  7 10  1  0  0  0  0
  7  8  1  0  0  0  0
  9  3  1  0  0  0  0
 11 13  1  0  0  0  0
 12 11  1  0  0  0  0
 12  7  2  0  0  0  0
 13  8  2  0  0  0  0
 14  2  1  0  0  0  0
 15  3  2  0  0  0  0
 16 17  1  0  0  0  0
 16 14  1  0  0  0  0
 17 19  2  0  0  0  0
 18  4  2  0  0  0  0
 19 20  1  0  0  0  0
 20 18  1  0  0  0  0
 20  1  1  0  0  0  0
 21  5  1  0  0  0  0
 22 31  1  0  0  0  0
 23 30  1  0  0  0  0
 24 32  1  6  0  0  0
 24 29  1  0  0  0  0
 24 25  1  0  0  0  0
 25 26  1  0  0  0  0
 26 28  1  0  0  0  0
 26 22  1  1  0  0  0
 28 27  1  6  0  0  0
 28 23  1  0  0  0  0
 29 27  1  0  0  0  0
 30 21  1  1  0  0  0
 31 30  1  0  0  0  0
 32 33  1  1  0  0  0
 34 32  1  0  0  0  0
M  END
>  <MODEL>
3

>  <REMARK>
 VINA RESULT:     -11.1      1.291      2.001
  Name = 
  3 active torsions:
  status: ('A' for Active; 'I' for Inactive)
    1  A    between atoms: C_7  and  C_11
    2  A    between atoms: C_8  and  C_18
    3  A    between atoms: C_18  and  C_30
                            x       y       z     vdW  Elec       q    Type
                         _______ _______ _______ _____ _____    ______ ____

>  <TORSDO>
F 3

$$$$
=
 OpenBabel11052415473D

 34 39  0  0  1  0  0  0  0  0999 V2000
  183.0030  178.6200  141.7790 C   0  0  0  0  0  0  0  0  0  0  0  0
  182.9940  178.2560  137.9170 C   0  0  0  0  0  2  0  0  0  0  0  0
  186.3600  177.8570  136.9540 C   0  0  0  0  0  0  0  0  0  0  0  0
  181.2440  178.1840  139.5920 C   0  0  0  0  0  3  0  0  0  0  0  0
  183.0790  178.8410  144.2210 C   0  0  0  0  0  0  0  0  0  0  0  0
  183.7500  178.8190  142.9610 C   0  0  0  0  0  3  0  0  0  0  0  0
  180.9950  178.4640  143.0960 C   0  0  0  0  0  0  0  0  0  0  0  0
  179.6850  178.2590  142.8230 N   0  0  0  0  0  0  0  0  0  0  0  0
  186.0800  177.1590  135.7850 O   0  0  0  0  0  0  0  0  0  0  0  0
  181.6700  178.6570  144.3010 C   0  0  0  0  0  3  0  0  0  0  0  0
  180.8130  178.2550  140.9520 N   0  0  0  0  0  0  0  0  0  0  0  0
  181.6590  178.4540  141.9340 C   0  0  0  0  0  0  0  0  0  0  0  0
  179.6040  178.1310  141.4900 N   0  0  0  0  0  0  0  0  0  0  0  0
  184.1150  177.2560  137.8170 C   0  0  0  0  0  2  0  0  0  0  0  0
  187.4830  178.4150  137.0810 O   0  0  0  0  0  1  0  0  0  0  0  0
  185.3830  177.9400  138.0010 N   0  0  0  0  0  0  0  0  0  0  0  0
  185.7150  178.6520  139.2050 C   0  0  0  0  0  3  0  0  0  0  0  0
  182.5660  178.3380  139.3340 C   0  0  0  0  0  0  0  0  0  0  0  0
  184.9170  178.9000  140.2540 C   0  0  0  0  0  3  0  0  0  0  0  0
  183.5240  178.5680  140.4280 N   0  0  0  0  0  0  0  0  0  0  0  0
  183.8700  179.0350  145.4710 C   0  0  0  0  0  2  0  0  0  0  0  0
  187.2030  177.5970  146.7310 C   0  0  0  0  0  2  0  0  0  0  0  0
  185.9270  178.3730  144.2040 C   0  0  0  0  0  2  0  0  0  0  0  0
  189.9920  177.3870  144.4340 C   0  0  2  0  0  3  0  0  0  0  0  0
  189.1590  176.9810  145.4950 O   0  0  0  0  0  0  0  0  0  0  0  0
  188.0250  177.8120  145.4660 C   0  0  1  0  0  3  0  0  0  0  0  0
  188.0020  177.7400  142.9710 C   0  0  0  0  0  2  0  0  0  0  0  0
  187.1710  177.4930  144.2250 C   0  0  2  0  0  3  0  0  0  0  0  0
  189.3490  177.0300  143.0850 C   0  0  0  0  0  2  0  0  0  0  0  0
  185.1080  178.1520  145.4760 C   0  0  1  0  0  3  0  0  0  0  0  0
  185.9540  178.4750  146.7040 C   0  0  0  0  0  2  0  0  0  0  0  0
  191.3840  176.7780  144.5940 C   0  0  1  0  0  3  0  0  0  0  0  0
  191.6770  176.3780  146.0310 C   0  0  0  0  0  1  0  0  0  0  0  0
  191.5390  175.6290  143.7200 N   0  0  0  0  0  1  0  0  0  0  0  0
  1 12  2  0  0  0  0
  1  6  1  0  0  0  0
  2 18  1  0  0  0  0
  3 15  1  0  0  0  0
  3 16  1  0  0  0  0
  4 11  1  0  0  0  0
  5 10  1  0  0  0  0
  5 21  1  0  0  0  0
  6  5  2  0  0  0  0
  7 10  2  0  0  0  0
  8  7  1  0  0  0  0
  9  3  2  0  0  0  0
 11 13  1  0  0  0  0
 11 12  1  0  0  0  0
 12  7  1  0  0  0  0
 13  8  2  0  0  0  0
 14  2  1  0  0  0  0
 14 16  1  0  0  0  0
 16 17  1  0  0  0  0
 17 19  2  0  0  0  0
 18  4  2  0  0  0  0
 18 20  1  0  0  0  0
 19 20  1  0  0  0  0
 20  1  1  0  0  0  0
 23 28  1  0  0  0  0
 23 30  1  0  0  0  0
 24 32  1  1  0  0  0
 24 25  1  0  0  0  0
 26 25  1  0  0  0  0
 26 22  1  1  0  0  0
 27 29  1  0  0  0  0
 28 27  1  6  0  0  0
 28 26  1  0  0  0  0
 29 24  1  0  0  0  0
 30 21  1  6  0  0  0
 30 31  1  0  0  0  0
 31 22  1  0  0  0  0
 32 33  1  1  0  0  0
 34 32  1  0  0  0  0
M  END
>  <MODEL>
4

>  <REMARK>
 VINA RESULT:     -10.8      2.770      7.939
  Name = 
  3 active torsions:
  status: ('A' for Active; 'I' for Inactive)
    1  A    between atoms: C_7  and  C_11
    2  A    between atoms: C_8  and  C_18
    3  A    between atoms: C_18  and  C_30
                            x       y       z     vdW  Elec       q    Type
                         _______ _______ _______ _____ _____    ______ ____

>  <TORSDO>
F 3

$$$$
=
 OpenBabel11052415473D

 34 39  0  0  1  0  0  0  0  0999 V2000
  187.8490  177.5970  143.5810 C   0  0  0  0  0  0  0  0  0  0  0  0
  191.5670  176.5720  143.1700 C   0  0  0  0  0  2  0  0  0  0  0  0
  192.3610  177.0720  139.7730 C   0  0  0  0  0  0  0  0  0  0  0  0
  190.1660  176.9850  145.1040 C   0  0  0  0  0  3  0  0  0  0  0  0
  185.4950  178.2640  143.7720 C   0  0  0  0  0  0  0  0  0  0  0  0
  186.6250  177.9340  142.9620 C   0  0  0  0  0  3  0  0  0  0  0  0
  186.8290  177.9250  145.7360 C   0  0  0  0  0  0  0  0  0  0  0  0
  187.2530  177.8360  147.0180 N   0  0  0  0  0  0  0  0  0  0  0  0
  193.7220  177.2670  139.9840 O   0  0  0  0  0  1  0  0  0  0  0  0
  185.5910  178.2650  145.1920 C   0  0  0  0  0  3  0  0  0  0  0  0
  188.9090  177.3380  145.6830 N   0  0  0  0  0  0  0  0  0  0  0  0
  187.8630  177.6180  144.9440 C   0  0  0  0  0  0  0  0  0  0  0  0
  188.5440  177.4730  146.9540 N   0  0  0  0  0  0  0  0  0  0  0  0
  191.9430  177.6190  142.1550 C   0  0  0  0  0  2  0  0  0  0  0  0
  191.9580  176.7570  138.6210 O   0  0  0  0  0  0  0  0  0  0  0  0
  191.4300  177.2270  140.8540 N   0  0  0  0  0  0  0  0  0  0  0  0
  190.0290  177.0400  140.5940 C   0  0  0  0  0  3  0  0  0  0  0  0
  190.2530  176.9360  143.7520 C   0  0  0  0  0  0  0  0  0  0  0  0
  189.0220  177.0680  141.4810 C   0  0  0  0  0  3  0  0  0  0  0  0
  189.0840  177.2420  142.9120 N   0  0  0  0  0  0  0  0  0  0  0  0
  184.2060  178.6350  143.1180 C   0  0  0  0  0  2  0  0  0  0  0  0
  184.7190  178.7170  139.3120 C   0  0  0  0  0  2  0  0  0  0  0  0
  182.7190  177.8310  141.2700 C   0  0  0  0  0  2  0  0  0  0  0  0
  181.9240  177.9090  137.1570 C   0  0  2  0  0  3  0  0  0  0  0  0
  183.2730  177.9490  137.5640 O   0  0  0  0  0  0  0  0  0  0  0  0
  183.2850  178.4110  138.8920 C   0  0  1  0  0  3  0  0  0  0  0  0
  181.2410  177.0740  139.4070 C   0  0  0  0  0  2  0  0  0  0  0  0
  182.6820  177.3460  139.8260 C   0  0  2  0  0  3  0  0  0  0  0  0
  181.1740  176.7980  137.9070 C   0  0  0  0  0  2  0  0  0  0  0  0
  184.1590  178.1360  141.6830 C   0  0  1  0  0  3  0  0  0  0  0  0
  184.7530  179.1970  140.7600 C   0  0  0  0  0  2  0  0  0  0  0  0
  181.8370  177.7500  135.6400 C   0  0  1  0  0  3  0  0  0  0  0  0
  181.3000  178.9980  134.9580 C   0  0  0  0  0  1  0  0  0  0  0  0
  183.1360  177.4070  135.0900 N   0  0  0  0  0  1  0  0  0  0  0  0
  1 12  1  0  0  0  0
  2 18  1  0  0  0  0
  3  9  1  0  0  0  0
  3 16  1  0  0  0  0
  4 11  1  0  0  0  0
  5 10  2  0  0  0  0
  6  1  2  0  0  0  0
  6  5  1  0  0  0  0
  7  8  1  0  0  0  0
 10  7  1  0  0  0  0
 11 13  1  0  0  0  0
 12 11  1  0  0  0  0
 12  7  2  0  0  0  0
 13  8  2  0  0  0  0
 14  2  1  0  0  0  0
 15  3  2  0  0  0  0
 16 14  1  0  0  0  0
 17 16  1  0  0  0  0
 17 19  2  0  0  0  0
 18  4  2  0  0  0  0
 19 20  1  0  0  0  0
 20  1  1  0  0  0  0
 20 18  1  0  0  0  0
 21  5  1  0  0  0  0
 22 31  1  0  0  0  0
 23 30  1  0  0  0  0
 24 32  1  6  0  0  0
 24 25  1  0  0  0  0
 24 29  1  0  0  0  0
 25 26  1  0  0  0  0
 26 22  1  1  0  0  0
 26 28  1  0  0  0  0
 28 27  1  6  0  0  0
 28 23  1  0  0  0  0
 29 27  1  0  0  0  0
 30 21  1  1  0  0  0
 31 30  1  0  0  0  0
 32 33  1  6  0  0  0
 34 32  1  0  0  0  0
M  END
>  <MODEL>
5

>  <REMARK>
 VINA RESULT:     -10.5      1.553      1.955
  Name = 
  3 active torsions:
  status: ('A' for Active; 'I' for Inactive)
    1  A    between atoms: C_7  and  C_11
    2  A    between atoms: C_8  and  C_18
    3  A    between atoms: C_18  and  C_30
                            x       y       z     vdW  Elec       q    Type
                         _______ _______ _______ _____ _____    ______ ____

>  <TORSDO>
F 3

$$$$
=
 OpenBabel11052415473D

 34 39  0  0  1  0  0  0  0  0999 V2000
  186.6570  178.0590  143.7750 C   0  0  0  0  0  0  0  0  0  0  0  0
  188.0000  177.1780  147.3060 C   0  0  0  0  0  2  0  0  0  0  0  0
  191.4690  176.6720  146.9460 C   0  0  0  0  0  0  0  0  0  0  0  0
  185.8930  178.0740  146.5100 C   0  0  0  0  0  3  0  0  0  0  0  0
  185.8740  178.6120  141.5160 C   0  0  0  0  0  0  0  0  0  0  0  0
  186.8950  178.1200  142.3840 C   0  0  0  0  0  3  0  0  0  0  0  0
  184.4550  178.9630  143.4170 C   0  0  0  0  0  0  0  0  0  0  0  0
  183.4140  179.2910  144.2190 N   0  0  0  0  0  0  0  0  0  0  0  0
  191.7850  177.0010  148.2590 O   0  0  0  0  0  1  0  0  0  0  0  0
  184.6220  179.0490  142.0360 C   0  0  0  0  0  3  0  0  0  0  0  0
  185.0430  178.5110  145.4480 N   0  0  0  0  0  0  0  0  0  0  0  0
  185.4350  178.4910  144.1970 C   0  0  0  0  0  0  0  0  0  0  0  0
  183.8080  179.0030  145.4690 N   0  0  0  0  0  0  0  0  0  0  0  0
  189.3220  177.8890  147.1890 C   0  0  0  0  0  2  0  0  0  0  0  0
  192.2910  176.0000  146.2660 O   0  0  0  0  0  0  0  0  0  0  0  0
  190.2220  177.0920  146.3740 N   0  0  0  0  0  0  0  0  0  0  0  0
  189.9370  176.7530  145.0060 C   0  0  0  0  0  3  0  0  0  0  0  0
  187.1310  177.6230  146.1890 C   0  0  0  0  0  0  0  0  0  0  0  0
  188.8060  176.9890  144.3240 C   0  0  0  0  0  3  0  0  0  0  0  0
  187.5800  177.5910  144.7880 N   0  0  0  0  0  0  0  0  0  0  0  0
  186.1320  178.6920  140.0480 C   0  0  0  0  0  2  0  0  0  0  0  0
  189.8220  177.7840  139.4850 C   0  0  0  0  0  2  0  0  0  0  0  0
  187.2130  177.3990  138.1950 C   0  0  0  0  0  2  0  0  0  0  0  0
  190.8060  176.3780  136.2970 C   0  0  2  0  0  3  0  0  0  0  0  0
  190.8300  176.5530  137.6950 O   0  0  0  0  0  0  0  0  0  0  0  0
  189.7190  177.3470  138.0280 C   0  0  1  0  0  3  0  0  0  0  0  0
  188.3220  176.1470  136.3430 C   0  0  0  0  0  2  0  0  0  0  0  0
  188.4190  176.5510  137.8100 C   0  0  2  0  0  3  0  0  0  0  0  0
  189.6220  175.4860  135.8930 C   0  0  0  0  0  2  0  0  0  0  0  0
  187.3240  177.8330  139.6570 C   0  0  1  0  0  3  0  0  0  0  0  0
  188.6090  178.6280  139.8690 C   0  0  0  0  0  2  0  0  0  0  0  0
  192.1450  175.8250  135.8120 C   0  0  1  0  0  3  0  0  0  0  0  0
  193.2700  176.0860  136.8000 C   0  0  0  0  0  1  0  0  0  0  0  0
  192.0400  174.4010  135.5490 N   0  0  0  0  0  1  0  0  0  0  0  0
  1 12  1  0  0  0  0
  1 20  1  0  0  0  0
  3  9  1  0  0  0  0
  5 10  2  0  0  0  0
  5  6  1  0  0  0  0
  6  1  2  0  0  0  0
  7 12  2  0  0  0  0
  7  8  1  0  0  0  0
  8 13  2  0  0  0  0
 10  7  1  0  0  0  0
 11 13  1  0  0  0  0
 11  4  1  0  0  0  0
 12 11  1  0  0  0  0
 14  2  1  0  0  0  0
 15  3  2  0  0  0  0
 16  3  1  0  0  0  0
 16 14  1  0  0  0  0
 17 16  1  0  0  0  0
 18  4  2  0  0  0  0
 18  2  1  0  0  0  0
 19 20  1  0  0  0  0
 19 17  2  0  0  0  0
 20 18  1  0  0  0  0
 21  5  1  0  0  0  0
 22 31  1  0  0  0  0
 23 30  1  0  0  0  0
 24 32  1  1  0  0  0
 24 25  1  0  0  0  0
 25 26  1  0  0  0  0
 26 22  1  1  0  0  0
 28 27  1  6  0  0  0
 28 26  1  0  0  0  0
 28 23  1  0  0  0  0
 29 24  1  0  0  0  0
 29 27  1  0  0  0  0
 30 31  1  0  0  0  0
 30 21  1  6  0  0  0
 32 33  1  1  0  0  0
 34 32  1  0  0  0  0
M  END
>  <MODEL>
6

>  <REMARK>
 VINA RESULT:     -10.4      3.518      6.815
  Name = 
  3 active torsions:
  status: ('A' for Active; 'I' for Inactive)
    1  A    between atoms: C_7  and  C_11
    2  A    between atoms: C_8  and  C_18
    3  A    between atoms: C_18  and  C_30
                            x       y       z     vdW  Elec       q    Type
                         _______ _______ _______ _____ _____    ______ ____

>  <TORSDO>
F 3

$$$$
=
 OpenBabel11052415473D

 34 39  0  0  1  0  0  0  0  0999 V2000
  185.6760  178.5390  140.6040 C   0  0  0  0  0  0  0  0  0  0  0  0
  187.7960  177.7800  137.4450 C   0  0  0  0  0  2  0  0  0  0  0  0
  190.9580  176.7390  138.6040 C   0  0  0  0  0  0  0  0  0  0  0  0
  185.4300  178.1690  137.7990 C   0  0  0  0  0  3  0  0  0  0  0  0
  184.3890  178.9980  142.6420 C   0  0  0  0  0  0  0  0  0  0  0  0
  185.6380  178.7350  142.0020 C   0  0  0  0  0  3  0  0  0  0  0  0
  183.2910  178.8510  140.5150 C   0  0  0  0  0  0  0  0  0  0  0  0
  182.3600  178.8340  139.5330 N   0  0  0  0  0  0  0  0  0  0  0  0
  191.2640  175.9780  137.4810 O   0  0  0  0  0  0  0  0  0  0  0  0
  183.1820  179.0560  141.8900 C   0  0  0  0  0  3  0  0  0  0  0  0
  184.3260  178.4510  138.6600 N   0  0  0  0  0  0  0  0  0  0  0  0
  184.4810  178.6120  139.9520 C   0  0  0  0  0  0  0  0  0  0  0  0
  183.0290  178.5830  138.3970 N   0  0  0  0  0  0  0  0  0  0  0  0
  188.5560  176.6050  138.0030 C   0  0  0  0  0  2  0  0  0  0  0  0
  191.8900  177.1170  139.3620 O   0  0  0  0  0  1  0  0  0  0  0  0
  189.5970  177.0890  138.8930 N   0  0  0  0  0  0  0  0  0  0  0  0
  189.3140  177.8590  140.0740 C   0  0  0  0  0  3  0  0  0  0  0  0
  186.6640  178.0780  138.3550 C   0  0  0  0  0  0  0  0  0  0  0  0
  188.1280  178.3420  140.4710 C   0  0  0  0  0  3  0  0  0  0  0  0
  186.8510  178.2610  139.8030 N   0  0  0  0  0  0  0  0  0  0  0  0
  184.3480  179.1900  144.1210 C   0  0  0  0  0  2  0  0  0  0  0  0
  186.4400  177.7490  147.0040 C   0  0  0  0  0  2  0  0  0  0  0  0
  186.6880  178.2950  144.1300 C   0  0  0  0  0  2  0  0  0  0  0  0
  189.9710  177.1550  146.4690 C   0  0  2  0  0  3  0  0  0  0  0  0
  188.6820  176.9090  146.9850 O   0  0  0  0  0  0  0  0  0  0  0  0
  187.8030  177.7830  146.3210 C   0  0  1  0  0  3  0  0  0  0  0  0
  189.0290  177.4330  144.1760 C   0  0  0  0  0  2  0  0  0  0  0  0
  187.6610  177.3670  144.8460 C   0  0  2  0  0  3  0  0  0  0  0  0
  190.0610  176.6800  145.0110 C   0  0  0  0  0  2  0  0  0  0  0  0
  185.3240  178.2570  144.8200 C   0  0  1  0  0  3  0  0  0  0  0  0
  185.4650  178.6750  146.2800 C   0  0  0  0  0  2  0  0  0  0  0  0
  191.0270  176.5040  147.3600 C   0  0  1  0  0  3  0  0  0  0  0  0
  192.0720  175.7450  146.5580 C   0  0  0  0  0  1  0  0  0  0  0  0
  191.6740  177.5030  148.1920 N   0  0  0  0  0  1  0  0  0  0  0  0
  1  6  1  0  0  0  0
  2 14  1  0  0  0  0
  2 18  1  0  0  0  0
  3 16  1  0  0  0  0
  3 15  1  0  0  0  0
  4 18  2  0  0  0  0
  4 11  1  0  0  0  0
  5 21  1  0  0  0  0
  6  5  2  0  0  0  0
  7 10  2  0  0  0  0
  8  7  1  0  0  0  0
  9  3  2  0  0  0  0
 10  5  1  0  0  0  0
 11 12  1  0  0  0  0
 12  7  1  0  0  0  0
 12  1  2  0  0  0  0
 13 11  1  0  0  0  0
 13  8  2  0  0  0  0
 14 16  1  0  0  0  0
 16 17  1  0  0  0  0
 17 19  2  0  0  0  0
 18 20  1  0  0  0  0
 20 19  1  0  0  0  0
 20  1  1  0  0  0  0
 23 30  1  0  0  0  0
 24 25  1  0  0  0  0
 24 32  1  1  0  0  0
 26 25  1  0  0  0  0
 26 22  1  1  0  0  0
 27 28  1  0  0  0  0
 27 29  1  0  0  0  0
 28 23  1  6  0  0  0
 28 26  1  0  0  0  0
 29 24  1  0  0  0  0
 30 21  1  6  0  0  0
 30 31  1  0  0  0  0
 31 22  1  0  0  0  0
 32 33  1  6  0  0  0
 32 34  1  0  0  0  0
M  END
>  <MODEL>
7

>  <REMARK>
 VINA RESULT:     -10.4      2.632      7.725
  Name = 
  3 active torsions:
  status: ('A' for Active; 'I' for Inactive)
    1  A    between atoms: C_7  and  C_11
    2  A    between atoms: C_8  and  C_18
    3  A    between atoms: C_18  and  C_30
                            x       y       z     vdW  Elec       q    Type
                         _______ _______ _______ _____ _____    ______ ____

>  <TORSDO>
F 3

$$$$
=
 OpenBabel11052415473D

 34 39  0  0  1  0  0  0  0  0999 V2000
  183.8080  177.6640  139.1640 C   0  0  0  0  0  0  0  0  0  0  0  0
  185.0730  176.2730  135.7720 C   0  0  0  0  0  2  0  0  0  0  0  0
  188.5600  176.7840  135.7320 C   0  0  0  0  0  0  0  0  0  0  0  0
  182.9720  176.0780  136.9630 C   0  0  0  0  0  3  0  0  0  0  0  0
  183.0760  178.5600  141.3280 C   0  0  0  0  0  0  0  0  0  0  0  0
  184.0830  178.4190  140.3260 C   0  0  0  0  0  3  0  0  0  0  0  0
  181.6000  177.2090  140.0060 C   0  0  0  0  0  0  0  0  0  0  0  0
  180.5320  176.5070  139.5590 N   0  0  0  0  0  0  0  0  0  0  0  0
  188.8340  175.7400  134.8560 O   0  0  0  0  0  0  0  0  0  0  0  0
  181.8030  177.9410  141.1750 C   0  0  0  0  0  3  0  0  0  0  0  0
  182.1420  176.3700  138.0880 N   0  0  0  0  0  0  0  0  0  0  0  0
  182.5680  177.1050  139.0880 C   0  0  0  0  0  0  0  0  0  0  0  0
  180.8970  175.9980  138.3720 N   0  0  0  0  0  0  0  0  0  0  0  0
  186.3840  175.7230  136.2680 C   0  0  0  0  0  2  0  0  0  0  0  0
  189.4120  177.7000  135.8810 O   0  0  0  0  0  1  0  0  0  0  0  0
  187.3210  176.8170  136.4540 N   0  0  0  0  0  0  0  0  0  0  0  0
  187.0790  177.9000  137.3680 C   0  0  0  0  0  3  0  0  0  0  0  0
  184.2260  176.5920  136.9470 C   0  0  0  0  0  0  0  0  0  0  0  0
  185.9630  178.1430  138.0710 C   0  0  0  0  0  3  0  0  0  0  0  0
  184.7130  177.4220  138.0600 N   0  0  0  0  0  0  0  0  0  0  0  0
  183.3710  179.3440  142.5630 C   0  0  0  0  0  2  0  0  0  0  0  0
  184.6850  178.2300  145.9970 C   0  0  0  0  0  2  0  0  0  0  0  0
  185.6440  178.5380  143.2390 C   0  0  0  0  0  2  0  0  0  0  0  0
  188.2440  177.7190  146.4210 C   0  0  2  0  0  3  0  0  0  0  0  0
  186.8700  177.4720  146.6180 O   0  0  0  0  0  0  0  0  0  0  0  0
  186.1760  178.2540  145.6780 C   0  0  1  0  0  3  0  0  0  0  0  0
  187.9090  177.7670  143.9490 C   0  0  0  0  0  2  0  0  0  0  0  0
  186.4170  177.7090  144.2590 C   0  0  2  0  0  3  0  0  0  0  0  0
  188.7060  177.1240  145.0820 C   0  0  0  0  0  2  0  0  0  0  0  0
  184.1510  178.5090  143.5660 C   0  0  1  0  0  3  0  0  0  0  0  0
  183.9130  179.0560  144.9710 C   0  0  0  0  0  2  0  0  0  0  0  0
  189.0490  177.1840  147.6050 C   0  0  1  0  0  3  0  0  0  0  0  0
  190.4110  176.6570  147.1850 C   0  0  0  0  0  1  0  0  0  0  0  0
  189.2090  178.2140  148.6160 N   0  0  0  0  0  1  0  0  0  0  0  0
  1  6  1  0  0  0  0
  2 14  1  0  0  0  0
  2 18  1  0  0  0  0
  3 15  1  0  0  0  0
  3 16  1  0  0  0  0
  4 11  1  0  0  0  0
  5 21  1  0  0  0  0
  6  5  2  0  0  0  0
  7 10  2  0  0  0  0
  8  7  1  0  0  0  0
  9  3  2  0  0  0  0
 10  5  1  0  0  0  0
 11 13  1  0  0  0  0
 11 12  1  0  0  0  0
 12  1  2  0  0  0  0
 12  7  1  0  0  0  0
 13  8  2  0  0  0  0
 14 16  1  0  0  0  0
 16 17  1  0  0  0  0
 17 19  2  0  0  0  0
 18  4  2  0  0  0  0
 18 20  1  0  0  0  0
 20 19  1  0  0  0  0
 20  1  1  0  0  0  0
 23 30  1  0  0  0  0
 24 25  1  0  0  0  0
 24 32  1  1  0  0  0
 26 22  1  1  0  0  0
 26 25  1  0  0  0  0
 27 28  1  0  0  0  0
 27 29  1  0  0  0  0
 28 23  1  6  0  0  0
 28 26  1  0  0  0  0
 29 24  1  0  0  0  0
 30 21  1  6  0  0  0
 30 31  1  0  0  0  0
 31 22  1  0  0  0  0
 32 33  1  6  0  0  0
 32 34  1  0  0  0  0
M  END
>  <MODEL>
8

>  <REMARK>
 VINA RESULT:     -10.0      3.271      8.290
  Name = 
  3 active torsions:
  status: ('A' for Active; 'I' for Inactive)
    1  A    between atoms: C_7  and  C_11
    2  A    between atoms: C_8  and  C_18
    3  A    between atoms: C_18  and  C_30
                            x       y       z     vdW  Elec       q    Type
                         _______ _______ _______ _____ _____    ______ ____

>  <TORSDO>
F 3

$$$$
=
 OpenBabel11052415473D

 34 39  0  0  1  0  0  0  0  0999 V2000
  186.9910  177.8750  138.5620 C   0  0  0  0  0  0  0  0  0  0  0  0
  189.8980  176.7410  136.2580 C   0  0  0  0  0  2  0  0  0  0  0  0
  192.7250  176.3900  138.3330 C   0  0  0  0  0  0  0  0  0  0  0  0
  187.4990  176.8860  135.9490 C   0  0  0  0  0  3  0  0  0  0  0  0
  185.1960  178.5880  140.0750 C   0  0  0  0  0  0  0  0  0  0  0  0
  186.5830  178.3590  139.8250 C   0  0  0  0  0  3  0  0  0  0  0  0
  184.6920  177.8490  137.8510 C   0  0  0  0  0  0  0  0  0  0  0  0
  184.0470  177.5030  136.7110 N   0  0  0  0  0  0  0  0  0  0  0  0
  193.3620  175.4530  137.5280 O   0  0  0  0  0  0  0  0  0  0  0  0
  184.2200  178.3270  139.0720 C   0  0  0  0  0  3  0  0  0  0  0  0
  186.1930  177.2000  136.4360 N   0  0  0  0  0  0  0  0  0  0  0  0
  186.0010  177.6510  137.6520 C   0  0  0  0  0  0  0  0  0  0  0  0
  185.0010  177.1030  135.8560 N   0  0  0  0  0  0  0  0  0  0  0  0
  190.5730  175.8210  137.2410 C   0  0  0  0  0  2  0  0  0  0  0  0
  193.4030  177.0390  139.1750 O   0  0  0  0  0  1  0  0  0  0  0  0
  191.3130  176.6150  138.2060 N   0  0  0  0  0  0  0  0  0  0  0  0
  190.6830  177.5750  139.0700 C   0  0  0  0  0  3  0  0  0  0  0  0
  188.5520  177.0770  136.7820 C   0  0  0  0  0  0  0  0  0  0  0  0
  189.4030  177.9740  139.0530 C   0  0  0  0  0  3  0  0  0  0  0  0
  188.3490  177.5880  138.1470 N   0  0  0  0  0  0  0  0  0  0  0  0
  184.7630  179.0840  141.4150 C   0  0  0  0  0  2  0  0  0  0  0  0
  185.4700  177.9320  145.0110 C   0  0  0  0  0  2  0  0  0  0  0  0
  186.9080  178.3620  142.4880 C   0  0  0  0  0  2  0  0  0  0  0  0
  188.9080  177.5690  146.0830 C   0  0  2  0  0  3  0  0  0  0  0  0
  187.5360  177.2560  146.0140 O   0  0  0  0  0  0  0  0  0  0  0  0
  186.9910  178.0330  144.9770 C   0  0  1  0  0  3  0  0  0  0  0  0
  189.0370  177.6740  143.5940 C   0  0  0  0  0  2  0  0  0  0  0  0
  187.5180  177.5400  143.6170 C   0  0  2  0  0  3  0  0  0  0  0  0
  189.6400  177.0360  144.8420 C   0  0  0  0  0  2  0  0  0  0  0  0
  185.3830  178.2570  142.5290 C   0  0  1  0  0  3  0  0  0  0  0  0
  184.8620  178.7510  143.8750 C   0  0  0  0  0  2  0  0  0  0  0  0
  189.5050  177.0380  147.3850 C   0  0  1  0  0  3  0  0  0  0  0  0
  190.9930  176.7530  147.2640 C   0  0  0  0  0  1  0  0  0  0  0  0
  189.2690  177.9730  148.4710 N   0  0  0  0  0  1  0  0  0  0  0  0
  1  6  1  0  0  0  0
  2 18  1  0  0  0  0
  2 14  1  0  0  0  0
  3 15  1  0  0  0  0
  4 11  1  0  0  0  0
  4 18  2  0  0  0  0
  5 21  1  0  0  0  0
  6  5  2  0  0  0  0
  7 10  2  0  0  0  0
  8  7  1  0  0  0  0
  9  3  2  0  0  0  0
 10  5  1  0  0  0  0
 11 12  1  0  0  0  0
 12  7  1  0  0  0  0
 12  1  2  0  0  0  0
 13 11  1  0  0  0  0
 13  8  2  0  0  0  0
 14 16  1  0  0  0  0
 16  3  1  0  0  0  0
 16 17  1  0  0  0  0
 18 20  1  0  0  0  0
 19 17  2  0  0  0  0
 20  1  1  0  0  0  0
 20 19  1  0  0  0  0
 23 30  1  0  0  0  0
 24 32  1  1  0  0  0
 25 24  1  0  0  0  0
 26 22  1  6  0  0  0
 26 25  1  0  0  0  0
 27 28  1  0  0  0  0
 27 29  1  0  0  0  0
 28 23  1  6  0  0  0
 28 26  1  0  0  0  0
 29 24  1  0  0  0  0
 30 21  1  6  0  0  0
 30 31  1  0  0  0  0
 31 22  1  0  0  0  0
 32 33  1  6  0  0  0
 32 34  1  0  0  0  0
M  END
>  <MODEL>
9

>  <REMARK>
 VINA RESULT:     -10.0      3.035      7.984
  Name = 
  3 active torsions:
  status: ('A' for Active; 'I' for Inactive)
    1  A    between atoms: C_7  and  C_11
    2  A    between atoms: C_8  and  C_18
    3  A    between atoms: C_18  and  C_30
                            x       y       z     vdW  Elec       q    Type
                         _______ _______ _______ _____ _____    ______ ____

>  <TORSDO>
F 3

$$$$
