=
 OpenBabel11052416493D

 32 36  0  0  1  0  0  0  0  0999 V2000
  185.3590  178.3450  141.0210 C   0  0  2  0  0  3  0  0  0  0  0  0
  181.2730  178.8450  143.9150 C   0  0  0  0  0  2  0  0  0  0  0  0
  180.6090  179.6420  142.7970 C   0  0  0  0  0  2  0  0  0  0  0  0
  185.0590  178.5600  138.5460 C   0  0  0  0  0  0  0  0  0  0  0  0
  184.4240  177.3460  138.0380 C   0  0  0  0  0  0  0  0  0  0  0  0
  187.5750  177.9620  142.0800 C   0  0  0  0  0  0  0  0  0  0  0  0
  185.5660  177.9650  143.4750 C   0  0  0  0  0  3  0  0  0  0  0  0
  183.0370  175.6560  138.0570 C   0  0  0  0  0  0  0  0  0  0  0  0
  182.7870  179.0130  143.8420 C   0  0  0  0  0  2  0  0  0  0  0  0
  184.8270  178.7310  142.4080 C   0  0  2  0  0  3  0  0  0  0  0  0
  183.3190  178.5060  142.4990 C   0  0  2  0  0  3  0  0  0  0  0  0
  183.1120  178.8420  140.0320 N   0  0  2  0  0  0  0  0  0  0  0  0
  183.8780  175.4760  137.0560 O   0  0  0  0  0  0  0  0  0  0  0  0
  188.8430  177.6840  141.9310 C   0  0  0  0  0  0  0  0  0  0  0  0
  186.8570  177.6420  143.3410 C   0  0  0  0  0  0  0  0  0  0  0  0
  184.7450  176.4790  137.0080 C   0  0  0  0  0  3  0  0  0  0  0  0
  190.1130  177.4080  141.7830 C   0  0  0  0  0  3  0  0  0  0  0  0
  181.1040  179.1560  141.4390 C   0  0  0  0  0  2  0  0  0  0  0  0
  182.6290  179.2690  141.3520 C   0  0  1  0  0  3  0  0  0  0  0  0
  182.7730  177.4810  139.8070 N   0  0  0  0  0  2  0  0  0  0  0  0
  186.8550  178.6640  140.9650 C   0  0  0  0  0  2  0  0  0  0  0  0
  185.9940  179.1270  137.9230 O   0  0  0  0  0  0  0  0  0  0  0  0
  181.9310  174.7280  138.4160 C   0  0  0  0  0  1  0  0  0  0  0  0
  184.5830  179.0600  139.8980 C   0  0  1  0  0  3  0  0  0  0  0  0
  183.3580  176.8290  138.6830 C   0  0  0  0  0  0  0  0  0  0  0  0
  191.1900  177.9790  142.6610 C   0  0  0  0  0  2  0  0  0  0  0  0
  190.6770  178.4380  143.9450 N   0  0  0  0  0  0  0  0  0  0  0  0
  191.0870  179.7180  144.1020 O   0  0  0  0  0  1  0  0  0  0  0  0
  191.3530  177.6580  144.9650 C   0  0  0  0  0  1  0  0  0  0  0  0
  187.5350  176.9300  144.4660 C   0  0  0  0  0  2  0  0  0  0  0  0
  187.9300  177.5920  146.5330 C   0  0  0  0  0  1  0  0  0  0  0  0
  186.8960  177.2330  145.6680 O   0  0  0  0  0  0  0  0  0  0  0  0
  1 21  1  1  0  0  0
  1 10  1  0  0  0  0
  3  2  1  0  0  0  0
  5  4  1  0  0  0  0
  5 25  1  0  0  0  0
  6 15  1  0  0  0  0
  8 23  1  0  0  0  0
  8 25  2  0  0  0  0
  9  2  1  0  0  0  0
 10 11  1  0  0  0  0
 10  7  1  1  0  0  0
 11  9  1  1  0  0  0
 12 20  1  1  0  0  0
 12 19  1  0  0  0  0
 13  8  1  0  0  0  0
 14  6  2  0  0  0  0
 15  7  2  0  0  0  0
 15 30  1  0  0  0  0
 16 13  1  0  0  0  0
 16  5  2  0  0  0  0
 17 14  2  0  0  0  0
 17 26  1  0  0  0  0
 18  3  1  0  0  0  0
 19 18  1  6  0  0  0
 19 11  1  0  0  0  0
 21  6  1  0  0  0  0
 22  4  2  0  0  0  0
 24  4  1  6  0  0  0
 24 12  1  0  0  0  0
 24  1  1  0  0  0  0
 25 20  1  0  0  0  0
 26 27  1  0  0  0  0
 27 28  1  0  0  0  0
 27 29  1  0  0  0  0
 30 32  1  0  0  0  0
 32 31  1  0  0  0  0
M  END
>  <MODEL>
1

>  <REMARK>
 VINA RESULT:      -8.4      0.000      0.000
  Name = 
  4 active torsions:
  status: ('A' for Active; 'I' for Inactive)
    1  A    between atoms: N_1  and  C_10
    2  A    between atoms: C_10  and  C_23
    3  A    between atoms: C_12  and  C_21
    4  A    between atoms: C_12  and  O_24
                            x       y       z     vdW  Elec       q    Type
                         _______ _______ _______ _____ _____    ______ ____

>  <TORSDO>
F 4

$$$$
=
 OpenBabel11052416493D

 32 36  0  0  1  0  0  0  0  0999 V2000
  186.4770  178.0990  140.9870 C   0  0  2  0  0  3  0  0  0  0  0  0
  184.4500  178.2700  145.5890 C   0  0  0  0  0  2  0  0  0  0  0  0
  183.4590  179.3160  145.0870 C   0  0  0  0  0  2  0  0  0  0  0  0
  185.0480  178.8230  139.0640 C   0  0  0  0  0  0  0  0  0  0  0  0
  184.0670  177.7780  138.7830 C   0  0  0  0  0  0  0  0  0  0  0  0
  188.8380  177.3720  140.7100 C   0  0  0  0  0  0  0  0  0  0  0  0
  187.7910  177.2240  142.9150 C   0  0  0  0  0  3  0  0  0  0  0  0
  182.6210  176.2100  139.2650 C   0  0  0  0  0  0  0  0  0  0  0  0
  185.7420  178.3530  144.7840 C   0  0  0  0  0  2  0  0  0  0  0  0
  186.7540  178.2340  142.4900 C   0  0  2  0  0  3  0  0  0  0  0  0
  185.4670  178.0910  143.3010 C   0  0  2  0  0  3  0  0  0  0  0  0
  184.1420  178.9260  141.3540 N   0  0  2  0  0  0  0  0  0  0  0  0
  182.8290  176.1810  137.9610 O   0  0  0  0  0  0  0  0  0  0  0  0
  189.8130  177.0500  139.9020 C   0  0  0  0  0  0  0  0  0  0  0  0
  188.7840  176.8530  142.1020 C   0  0  0  0  0  0  0  0  0  0  0  0
  183.7070  177.1160  137.6230 C   0  0  0  0  0  3  0  0  0  0  0  0
  190.7900  176.7280  139.0940 C   0  0  0  0  0  3  0  0  0  0  0  0
  183.1480  179.0800  143.6130 C   0  0  0  0  0  2  0  0  0  0  0  0
  184.4350  179.1100  142.7820 C   0  0  1  0  0  3  0  0  0  0  0  0
  183.5290  177.6620  141.1440 N   0  0  0  0  0  2  0  0  0  0  0  0
  187.7860  178.3280  140.2260 C   0  0  0  0  0  2  0  0  0  0  0  0
  185.6370  179.4420  138.1410 O   0  0  0  0  0  0  0  0  0  0  0  0
  181.7010  175.3010  140.0000 C   0  0  0  0  0  1  0  0  0  0  0  0
  185.3750  179.0730  140.5260 C   0  0  1  0  0  3  0  0  0  0  0  0
  183.3840  177.2110  139.7990 C   0  0  0  0  0  0  0  0  0  0  0  0
  192.2310  177.0430  139.3750 C   0  0  0  0  0  2  0  0  0  0  0  0
  193.1430  176.2320  138.5780 N   0  0  0  0  0  0  0  0  0  0  0  0
  193.6970  177.0500  137.6530 O   0  0  0  0  0  1  0  0  0  0  0  0
  192.3250  175.2790  137.8510 C   0  0  0  0  0  1  0  0  0  0  0  0
  189.8040  175.8900  142.6150 C   0  0  0  0  0  2  0  0  0  0  0  0
  191.6330  176.9770  143.1970 C   0  0  0  0  0  1  0  0  0  0  0  0
  190.4570  176.4390  143.7190 O   0  0  0  0  0  0  0  0  0  0  0  0
  1 21  1  6  0  0  0
  1 10  1  0  0  0  0
  3  2  1  0  0  0  0
  5  4  1  0  0  0  0
  5 25  1  0  0  0  0
  6 15  1  0  0  0  0
  8 25  2  0  0  0  0
  8 23  1  0  0  0  0
  9  2  1  0  0  0  0
 10  7  1  1  0  0  0
 10 11  1  0  0  0  0
 11  9  1  1  0  0  0
 12 20  1  1  0  0  0
 12 19  1  0  0  0  0
 13  8  1  0  0  0  0
 14  6  2  0  0  0  0
 15 30  1  0  0  0  0
 15  7  2  0  0  0  0
 16 13  1  0  0  0  0
 16  5  2  0  0  0  0
 17 26  1  0  0  0  0
 17 14  2  0  0  0  0
 18  3  1  0  0  0  0
 19 11  1  0  0  0  0
 19 18  1  1  0  0  0
 21  6  1  0  0  0  0
 22  4  2  0  0  0  0
 24  4  1  6  0  0  0
 24  1  1  0  0  0  0
 24 12  1  0  0  0  0
 25 20  1  0  0  0  0
 27 26  1  0  0  0  0
 28 27  1  0  0  0  0
 29 27  1  0  0  0  0
 30 32  1  0  0  0  0
 31 32  1  0  0  0  0
M  END
>  <MODEL>
2

>  <REMARK>
 VINA RESULT:      -8.0      2.446      3.201
  Name = 
  4 active torsions:
  status: ('A' for Active; 'I' for Inactive)
    1  A    between atoms: N_1  and  C_10
    2  A    between atoms: C_10  and  C_23
    3  A    between atoms: C_12  and  C_21
    4  A    between atoms: C_12  and  O_24
                            x       y       z     vdW  Elec       q    Type
                         _______ _______ _______ _____ _____    ______ ____

>  <TORSDO>
F 4

$$$$
=
 OpenBabel11052416493D

 32 36  0  0  1  0  0  0  0  0999 V2000
  187.3790  178.0680  140.4610 C   0  0  2  0  0  3  0  0  0  0  0  0
  182.4030  178.8080  140.5170 C   0  0  0  0  0  2  0  0  0  0  0  0
  182.5080  179.4520  139.1390 C   0  0  0  0  0  2  0  0  0  0  0  0
  188.5120  177.9820  138.2310 C   0  0  0  0  0  0  0  0  0  0  0  0
  188.2110  176.7020  137.5950 C   0  0  0  0  0  0  0  0  0  0  0  0
  188.6170  177.8660  142.6080 C   0  0  0  0  0  0  0  0  0  0  0  0
  186.1740  177.9850  142.6400 C   0  0  0  0  0  3  0  0  0  0  0  0
  186.9700  174.9930  137.0280 C   0  0  0  0  0  0  0  0  0  0  0  0
  183.7080  179.0030  141.2810 C   0  0  0  0  0  2  0  0  0  0  0  0
  186.1860  178.6020  141.2640 C   0  0  2  0  0  3  0  0  0  0  0  0
  184.8720  178.3530  140.5260 C   0  0  2  0  0  3  0  0  0  0  0  0
  186.0840  178.3910  138.3420 N   0  0  2  0  0  0  0  0  0  0  0  0
  188.2160  174.7170  136.6900 O   0  0  0  0  0  0  0  0  0  0  0  0
  189.7400  177.6030  143.2210 C   0  0  0  0  0  0  0  0  0  0  0  0
  187.3050  177.6790  143.2820 C   0  0  0  0  0  0  0  0  0  0  0  0
  189.0090  175.7280  137.0220 C   0  0  0  0  0  3  0  0  0  0  0  0
  190.8640  177.3410  143.8360 C   0  0  0  0  0  3  0  0  0  0  0  0
  183.6490  178.8210  138.3500 C   0  0  0  0  0  2  0  0  0  0  0  0
  184.9700  178.9590  139.1130 C   0  0  1  0  0  3  0  0  0  0  0  0
  185.8640  177.0060  138.1190 N   0  0  0  0  0  2  0  0  0  0  0  0
  188.6690  178.4140  141.2110 C   0  0  0  0  0  2  0  0  0  0  0  0
  189.6610  178.4930  138.1750 O   0  0  0  0  0  0  0  0  0  0  0  0
  185.8090  174.0880  136.8120 C   0  0  0  0  0  1  0  0  0  0  0  0
  187.3900  178.6270  139.0240 C   0  0  1  0  0  3  0  0  0  0  0  0
  186.9440  176.2390  137.5920 C   0  0  0  0  0  0  0  0  0  0  0  0
  191.2990  178.0370  145.0940 C   0  0  0  0  0  2  0  0  0  0  0  0
  191.6740  177.1010  146.1460 N   0  0  0  0  0  0  0  0  0  0  0  0
  192.0550  175.9530  145.5400 O   0  0  0  0  0  1  0  0  0  0  0  0
  190.4610  176.7980  146.8840 C   0  0  0  0  0  1  0  0  0  0  0  0
  187.2120  177.1220  144.6660 C   0  0  0  0  0  2  0  0  0  0  0  0
  186.2110  178.0370  146.4050 C   0  0  0  0  0  1  0  0  0  0  0  0
  187.3430  178.1520  145.5970 O   0  0  0  0  0  0  0  0  0  0  0  0
  1 21  1  1  0  0  0
  1 10  1  0  0  0  0
  2  9  1  0  0  0  0
  3  2  1  0  0  0  0
  5  4  1  0  0  0  0
  6 14  2  0  0  0  0
  6 15  1  0  0  0  0
  7 15  2  0  0  0  0
  8 25  2  0  0  0  0
 10  7  1  1  0  0  0
 11 10  1  0  0  0  0
 11  9  1  1  0  0  0
 12 20  1  1  0  0  0
 12 24  1  0  0  0  0
 12 19  1  0  0  0  0
 13 16  1  0  0  0  0
 13  8  1  0  0  0  0
 14 17  2  0  0  0  0
 15 30  1  0  0  0  0
 16  5  2  0  0  0  0
 17 26  1  0  0  0  0
 18  3  1  0  0  0  0
 19 18  1  6  0  0  0
 19 11  1  0  0  0  0
 21  6  1  0  0  0  0
 22  4  2  0  0  0  0
 23  8  1  0  0  0  0
 24  4  1  6  0  0  0
 24  1  1  0  0  0  0
 25  5  1  0  0  0  0
 25 20  1  0  0  0  0
 26 27  1  0  0  0  0
 27 29  1  0  0  0  0
 28 27  1  0  0  0  0
 30 32  1  0  0  0  0
 32 31  1  0  0  0  0
M  END
>  <MODEL>
3

>  <REMARK>
 VINA RESULT:      -7.4      2.346      3.030
  Name = 
  4 active torsions:
  status: ('A' for Active; 'I' for Inactive)
    1  A    between atoms: N_1  and  C_10
    2  A    between atoms: C_10  and  C_23
    3  A    between atoms: C_12  and  C_21
    4  A    between atoms: C_12  and  O_24
                            x       y       z     vdW  Elec       q    Type
                         _______ _______ _______ _____ _____    ______ ____

>  <TORSDO>
F 4

$$$$
=
 OpenBabel11052416493D

 32 36  0  0  1  0  0  0  0  0999 V2000
  182.3860  178.5000  140.6400 C   0  0  2  0  0  3  0  0  0  0  0  0
  183.3950  177.4920  135.8150 C   0  0  0  0  0  2  0  0  0  0  0  0
  181.9610  177.0020  135.6430 C   0  0  0  0  0  2  0  0  0  0  0  0
  179.9930  178.8800  141.2690 C   0  0  0  0  0  0  0  0  0  0  0  0
  179.5840  180.2020  140.8000 C   0  0  0  0  0  0  0  0  0  0  0  0
  184.2360  178.5420  142.3010 C   0  0  0  0  0  0  0  0  0  0  0  0
  184.7640  178.2890  139.9260 C   0  0  0  0  0  3  0  0  0  0  0  0
  179.4870  181.8910  139.4150 C   0  0  0  0  0  0  0  0  0  0  0  0
  183.8420  177.2890  137.2590 C   0  0  0  0  0  2  0  0  0  0  0  0
  183.3550  177.8210  139.6630 C   0  0  2  0  0  3  0  0  0  0  0  0
  182.9410  178.0750  138.2150 C   0  0  2  0  0  3  0  0  0  0  0  0
  180.5610  178.3320  138.9330 N   0  0  2  0  0  0  0  0  0  0  0  0
  178.9310  182.2680  140.5520 O   0  0  0  0  0  0  0  0  0  0  0  0
  184.6270  178.7990  143.5200 C   0  0  0  0  0  0  0  0  0  0  0  0
  185.1860  178.5860  141.1590 C   0  0  0  0  0  0  0  0  0  0  0  0
  178.9720  181.2720  141.4270 C   0  0  0  0  0  3  0  0  0  0  0  0
  185.0190  179.0550  144.7420 C   0  0  0  0  0  3  0  0  0  0  0  0
  181.0280  177.7730  136.5700 C   0  0  0  0  0  2  0  0  0  0  0  0
  181.4790  177.6270  138.0270 C   0  0  1  0  0  3  0  0  0  0  0  0
  180.5490  179.7190  138.6290 N   0  0  0  0  0  2  0  0  0  0  0  0
  182.8060  178.1470  142.0700 C   0  0  0  0  0  2  0  0  0  0  0  0
  179.6410  178.4390  142.3930 O   0  0  0  0  0  0  0  0  0  0  0  0
  179.6230  182.7510  138.2080 C   0  0  0  0  0  1  0  0  0  0  0  0
  180.9250  178.0960  140.3610 C   0  0  1  0  0  3  0  0  0  0  0  0
  179.8980  180.5930  139.5480 C   0  0  0  0  0  0  0  0  0  0  0  0
  186.0710  178.2550  145.4560 C   0  0  0  0  0  2  0  0  0  0  0  0
  185.9290  178.3180  146.9050 N   0  0  0  0  0  0  0  0  0  0  0  0
  185.7250  179.6160  147.2280 O   0  0  0  0  0  1  0  0  0  0  0  0
  187.2170  177.9500  147.4650 C   0  0  0  0  0  1  0  0  0  0  0  0
  186.6130  178.9890  141.3460 C   0  0  0  0  0  2  0  0  0  0  0  0
  188.5570  178.1310  140.7570 C   0  0  0  0  0  1  0  0  0  0  0  0
  187.3590  178.6130  140.2300 O   0  0  0  0  0  0  0  0  0  0  0  0
  1 21  1  1  0  0  0
  2  9  1  0  0  0  0
  3  2  1  0  0  0  0
  3 18  1  0  0  0  0
  4 22  2  0  0  0  0
  5  4  1  0  0  0  0
  5 16  2  0  0  0  0
  6 14  2  0  0  0  0
  7 15  2  0  0  0  0
  8 25  2  0  0  0  0
  8 13  1  0  0  0  0
 10  7  1  6  0  0  0
 10  1  1  0  0  0  0
 11  9  1  6  0  0  0
 11 10  1  0  0  0  0
 12 20  1  6  0  0  0
 12 24  1  0  0  0  0
 13 16  1  0  0  0  0
 14 17  2  0  0  0  0
 15 30  1  0  0  0  0
 15  6  1  0  0  0  0
 17 26  1  0  0  0  0
 19 18  1  6  0  0  0
 19 11  1  0  0  0  0
 19 12  1  0  0  0  0
 20 25  1  0  0  0  0
 21  6  1  0  0  0  0
 23  8  1  0  0  0  0
 24  1  1  0  0  0  0
 24  4  1  1  0  0  0
 25  5  1  0  0  0  0
 26 27  1  0  0  0  0
 27 28  1  0  0  0  0
 27 29  1  0  0  0  0
 32 31  1  0  0  0  0
 32 30  1  0  0  0  0
M  END
>  <MODEL>
4

>  <REMARK>
 VINA RESULT:      -7.2      3.039      5.734
  Name = 
  4 active torsions:
  status: ('A' for Active; 'I' for Inactive)
    1  A    between atoms: N_1  and  C_10
    2  A    between atoms: C_10  and  C_23
    3  A    between atoms: C_12  and  C_21
    4  A    between atoms: C_12  and  O_24
                            x       y       z     vdW  Elec       q    Type
                         _______ _______ _______ _____ _____    ______ ____

>  <TORSDO>
F 4

$$$$
=
 OpenBabel11052416493D

 32 36  0  0  1  0  0  0  0  0999 V2000
  188.8360  175.7350  137.8110 C   0  0  2  0  0  3  0  0  0  0  0  0
  193.5670  174.2190  137.0120 C   0  0  0  0  0  2  0  0  0  0  0  0
  194.0170  175.6760  137.0670 C   0  0  0  0  0  2  0  0  0  0  0  0
  188.5020  177.9490  138.9280 C   0  0  0  0  0  0  0  0  0  0  0  0
  188.8080  177.8150  140.3510 C   0  0  0  0  0  0  0  0  0  0  0  0
  186.9440  174.3160  137.0440 C   0  0  0  0  0  0  0  0  0  0  0  0
  189.2300  173.4630  136.8660 C   0  0  0  0  0  3  0  0  0  0  0  0
  189.9070  177.1000  142.1010 C   0  0  0  0  0  0  0  0  0  0  0  0
  192.1250  174.1410  136.5220 C   0  0  0  0  0  2  0  0  0  0  0  0
  189.7610  174.8720  136.9430 C   0  0  2  0  0  3  0  0  0  0  0  0
  191.1950  174.9030  137.4690 C   0  0  2  0  0  3  0  0  0  0  0  0
  190.7900  177.1620  138.4580 N   0  0  2  0  0  0  0  0  0  0  0  0
  188.8160  177.7070  142.5290 O   0  0  0  0  0  0  0  0  0  0  0  0
  185.6560  174.0980  137.0250 C   0  0  0  0  0  0  0  0  0  0  0  0
  187.9180  173.2060  136.8730 C   0  0  0  0  0  0  0  0  0  0  0  0
  188.1130  178.1550  141.4970 C   0  0  0  0  0  3  0  0  0  0  0  0
  184.3670  173.8810  137.0040 C   0  0  0  0  0  3  0  0  0  0  0  0
  193.1210  176.4660  138.0150 C   0  0  0  0  0  2  0  0  0  0  0  0
  191.6570  176.3680  137.5750 C   0  0  1  0  0  3  0  0  0  0  0  0
  190.8690  176.6690  139.7870 N   0  0  0  0  0  2  0  0  0  0  0  0
  187.4360  175.7270  137.1920 C   0  0  0  0  0  2  0  0  0  0  0  0
  187.5230  178.6290  138.5250 O   0  0  0  0  0  0  0  0  0  0  0  0
  190.9300  176.4700  142.9780 C   0  0  0  0  0  1  0  0  0  0  0  0
  189.3800  177.1680  137.9670 C   0  0  1  0  0  3  0  0  0  0  0  0
  189.9250  177.1620  140.7350 C   0  0  0  0  0  0  0  0  0  0  0  0
  183.6460  173.2970  135.8230 C   0  0  0  0  0  2  0  0  0  0  0  0
  182.5640  172.4040  136.2160 N   0  0  0  0  0  0  0  0  0  0  0  0
  181.8200  173.0630  137.1350 O   0  0  0  0  0  1  0  0  0  0  0  0
  183.1780  171.2850  136.9050 C   0  0  0  0  0  1  0  0  0  0  0  0
  187.4680  171.7880  136.7370 C   0  0  0  0  0  2  0  0  0  0  0  0
  186.4240  170.9150  135.0020 C   0  0  0  0  0  1  0  0  0  0  0  0
  187.6780  171.3500  135.4300 O   0  0  0  0  0  0  0  0  0  0  0  0
  1 21  1  6  0  0  0
  1 24  1  0  0  0  0
  2  3  1  0  0  0  0
  3 18  1  0  0  0  0
  4  5  1  0  0  0  0
  5 25  1  0  0  0  0
  5 16  2  0  0  0  0
  6 21  1  0  0  0  0
  7 15  2  0  0  0  0
  8 13  1  0  0  0  0
  8 23  1  0  0  0  0
  9  2  1  0  0  0  0
 10  7  1  1  0  0  0
 10 11  1  0  0  0  0
 10  1  1  0  0  0  0
 11  9  1  6  0  0  0
 11 19  1  0  0  0  0
 12 20  1  1  0  0  0
 14  6  2  0  0  0  0
 15  6  1  0  0  0  0
 16 13  1  0  0  0  0
 17 14  2  0  0  0  0
 19 18  1  1  0  0  0
 19 12  1  0  0  0  0
 20 25  1  0  0  0  0
 22  4  2  0  0  0  0
 24 12  1  0  0  0  0
 24  4  1  1  0  0  0
 25  8  2  0  0  0  0
 26 27  1  0  0  0  0
 26 17  1  0  0  0  0
 27 29  1  0  0  0  0
 27 28  1  0  0  0  0
 30 15  1  0  0  0  0
 31 32  1  0  0  0  0
 32 30  1  0  0  0  0
M  END
>  <MODEL>
5

>  <REMARK>
 VINA RESULT:      -6.7      4.323      9.608
  Name = 
  4 active torsions:
  status: ('A' for Active; 'I' for Inactive)
    1  A    between atoms: N_1  and  C_10
    2  A    between atoms: C_10  and  C_23
    3  A    between atoms: C_12  and  C_21
    4  A    between atoms: C_12  and  O_24
                            x       y       z     vdW  Elec       q    Type
                         _______ _______ _______ _____ _____    ______ ____

>  <TORSDO>
F 4

$$$$
=
 OpenBabel11052416493D

 32 36  0  0  1  0  0  0  0  0999 V2000
  185.6670  178.0440  139.5740 C   0  0  2  0  0  3  0  0  0  0  0  0
  180.7650  178.8930  140.3240 C   0  0  0  0  0  2  0  0  0  0  0  0
  180.6280  179.2580  138.8500 C   0  0  0  0  0  2  0  0  0  0  0  0
  186.4070  177.5060  137.2440 C   0  0  0  0  0  0  0  0  0  0  0  0
  186.0150  176.1350  136.9260 C   0  0  0  0  0  0  0  0  0  0  0  0
  187.2530  178.2280  141.4800 C   0  0  0  0  0  0  0  0  0  0  0  0
  184.8500  178.4070  141.8990 C   0  0  0  0  0  3  0  0  0  0  0  0
  184.7140  174.3780  136.9160 C   0  0  0  0  0  0  0  0  0  0  0  0
  182.1790  179.2000  140.8050 C   0  0  0  0  0  2  0  0  0  0  0  0
  184.6220  178.7480  140.4490 C   0  0  2  0  0  3  0  0  0  0  0  0
  183.2050  178.3930  140.0050 C   0  0  2  0  0  3  0  0  0  0  0  0
  184.0280  177.9840  137.6810 N   0  0  2  0  0  0  0  0  0  0  0  0
  185.8880  174.0140  136.4330 O   0  0  0  0  0  0  0  0  0  0  0  0
  188.4670  178.0630  141.9340 C   0  0  0  0  0  0  0  0  0  0  0  0
  186.0770  178.2050  142.3890 C   0  0  0  0  0  0  0  0  0  0  0  0
  186.7140  175.0520  136.4250 C   0  0  0  0  0  3  0  0  0  0  0  0
  189.6820  177.8990  142.3890 C   0  0  0  0  0  3  0  0  0  0  0  0
  181.6260  178.4620  138.0160 C   0  0  0  0  0  2  0  0  0  0  0  0
  183.0550  178.7140  138.5050 C   0  0  1  0  0  3  0  0  0  0  0  0
  183.7880  176.5870  137.7700 N   0  0  0  0  0  2  0  0  0  0  0  0
  187.0620  178.4980  140.0150 C   0  0  0  0  0  2  0  0  0  0  0  0
  187.5230  177.9720  136.8980 O   0  0  0  0  0  0  0  0  0  0  0  0
  183.5430  173.4750  137.0780 C   0  0  0  0  0  1  0  0  0  0  0  0
  185.4280  178.3170  138.0760 C   0  0  1  0  0  3  0  0  0  0  0  0
  184.7710  175.7090  137.2260 C   0  0  0  0  0  0  0  0  0  0  0  0
  190.3160  178.8130  143.3980 C   0  0  0  0  0  2  0  0  0  0  0  0
  190.7580  178.1030  144.5920 N   0  0  0  0  0  0  0  0  0  0  0  0
  191.9300  178.6610  144.9740 O   0  0  0  0  0  1  0  0  0  0  0  0
  191.0600  176.7450  144.1800 C   0  0  0  0  0  1  0  0  0  0  0  0
  186.2260  177.9250  143.8490 C   0  0  0  0  0  2  0  0  0  0  0  0
  185.4620  178.7820  145.7320 C   0  0  0  0  0  1  0  0  0  0  0  0
  185.0430  178.2480  144.5130 O   0  0  0  0  0  0  0  0  0  0  0  0
  1 21  1  1  0  0  0
  1 10  1  0  0  0  0
  2  9  1  0  0  0  0
  3  2  1  0  0  0  0
  5 25  1  0  0  0  0
  5  4  1  0  0  0  0
  6 14  2  0  0  0  0
  6 15  1  0  0  0  0
  7 15  2  0  0  0  0
  8 23  1  0  0  0  0
  8 25  2  0  0  0  0
 10  7  1  1  0  0  0
 11 10  1  0  0  0  0
 11  9  1  1  0  0  0
 12 20  1  1  0  0  0
 12 24  1  0  0  0  0
 12 19  1  0  0  0  0
 13  8  1  0  0  0  0
 14 17  2  0  0  0  0
 15 30  1  0  0  0  0
 16 13  1  0  0  0  0
 16  5  2  0  0  0  0
 17 26  1  0  0  0  0
 18  3  1  0  0  0  0
 19 18  1  6  0  0  0
 19 11  1  0  0  0  0
 21  6  1  0  0  0  0
 22  4  2  0  0  0  0
 24  4  1  6  0  0  0
 24  1  1  0  0  0  0
 25 20  1  0  0  0  0
 26 27  1  0  0  0  0
 27 28  1  0  0  0  0
 29 27  1  0  0  0  0
 30 32  1  0  0  0  0
 32 31  1  0  0  0  0
M  END
>  <MODEL>
6

>  <REMARK>
 VINA RESULT:      -6.1      1.768      2.274
  Name = 
  4 active torsions:
  status: ('A' for Active; 'I' for Inactive)
    1  A    between atoms: N_1  and  C_10
    2  A    between atoms: C_10  and  C_23
    3  A    between atoms: C_12  and  C_21
    4  A    between atoms: C_12  and  O_24
                            x       y       z     vdW  Elec       q    Type
                         _______ _______ _______ _____ _____    ______ ____

>  <TORSDO>
F 4

$$$$
=
 OpenBabel11052416493D

 32 36  0  0  1  0  0  0  0  0999 V2000
  188.8600  176.2680  137.4710 C   0  0  2  0  0  3  0  0  0  0  0  0
  192.7160  173.1080  136.7890 C   0  0  0  0  0  2  0  0  0  0  0  0
  193.6760  174.2660  137.0360 C   0  0  0  0  0  2  0  0  0  0  0  0
  189.2830  178.3400  138.8110 C   0  0  0  0  0  0  0  0  0  0  0  0
  189.3730  177.9810  140.2240 C   0  0  0  0  0  0  0  0  0  0  0  0
  186.6570  175.7620  136.4360 C   0  0  0  0  0  0  0  0  0  0  0  0
  188.4530  174.1070  136.2990 C   0  0  0  0  0  3  0  0  0  0  0  0
  189.9380  176.7550  141.9440 C   0  0  0  0  0  0  0  0  0  0  0  0
  191.4080  173.6360  136.2070 C   0  0  0  0  0  2  0  0  0  0  0  0
  189.4690  175.1880  136.5670 C   0  0  2  0  0  3  0  0  0  0  0  0
  190.7470  174.6180  137.1780 C   0  0  2  0  0  3  0  0  0  0  0  0
  191.1350  176.7680  138.3910 N   0  0  2  0  0  0  0  0  0  0  0  0
  189.1230  177.7010  142.3730 O   0  0  0  0  0  0  0  0  0  0  0  0
  185.3920  176.0630  136.3150 C   0  0  0  0  0  0  0  0  0  0  0  0
  187.1490  174.3790  136.1980 C   0  0  0  0  0  0  0  0  0  0  0  0
  188.7490  178.4690  141.3580 C   0  0  0  0  0  3  0  0  0  0  0  0
  184.1250  176.3650  136.1930 C   0  0  0  0  0  3  0  0  0  0  0  0
  193.0590  175.2620  138.0120 C   0  0  0  0  0  2  0  0  0  0  0  0
  191.7190  175.7760  137.4780 C   0  0  1  0  0  3  0  0  0  0  0  0
  190.8890  176.1760  139.6580 N   0  0  0  0  0  2  0  0  0  0  0  0
  187.6300  176.8550  136.7720 C   0  0  0  0  0  2  0  0  0  0  0  0
  188.6800  179.3760  138.4290 O   0  0  0  0  0  0  0  0  0  0  0  0
  190.5540  175.7080  142.8030 C   0  0  0  0  0  1  0  0  0  0  0  0
  189.8890  177.3610  137.8210 C   0  0  1  0  0  3  0  0  0  0  0  0
  190.1140  176.9170  140.5970 C   0  0  0  0  0  0  0  0  0  0  0  0
  183.3580  176.2050  134.9110 C   0  0  0  0  0  2  0  0  0  0  0  0
  182.0110  176.7560  134.9970 N   0  0  0  0  0  0  0  0  0  0  0  0
  182.1120  177.9580  135.6090 O   0  0  0  0  0  1  0  0  0  0  0  0
  181.2660  175.8940  135.8960 C   0  0  0  0  0  1  0  0  0  0  0  0
  186.2100  173.2630  135.8750 C   0  0  0  0  0  2  0  0  0  0  0  0
  184.9290  172.6420  137.5590 C   0  0  0  0  0  1  0  0  0  0  0  0
  186.1520  172.3720  136.9460 O   0  0  0  0  0  0  0  0  0  0  0  0
  1 21  1  6  0  0  0
  1 24  1  0  0  0  0
  2  3  1  0  0  0  0
  3 18  1  0  0  0  0
  4  5  1  0  0  0  0
  5 25  1  0  0  0  0
  5 16  2  0  0  0  0
  6 21  1  0  0  0  0
  8 13  1  0  0  0  0
  8 23  1  0  0  0  0
  9  2  1  0  0  0  0
 10  7  1  1  0  0  0
 10 11  1  0  0  0  0
 10  1  1  0  0  0  0
 11  9  1  6  0  0  0
 11 19  1  0  0  0  0
 12 20  1  1  0  0  0
 14  6  2  0  0  0  0
 15  7  2  0  0  0  0
 15  6  1  0  0  0  0
 16 13  1  0  0  0  0
 17 14  2  0  0  0  0
 19 18  1  1  0  0  0
 19 12  1  0  0  0  0
 20 25  1  0  0  0  0
 22  4  2  0  0  0  0
 24 12  1  0  0  0  0
 24  4  1  1  0  0  0
 25  8  2  0  0  0  0
 26 27  1  0  0  0  0
 26 17  1  0  0  0  0
 27 28  1  0  0  0  0
 27 29  1  0  0  0  0
 30 15  1  0  0  0  0
 30 32  1  0  0  0  0
 32 31  1  0  0  0  0
M  END
>  <MODEL>
7

>  <REMARK>
 VINA RESULT:      -6.1      4.204      9.454
  Name = 
  4 active torsions:
  status: ('A' for Active; 'I' for Inactive)
    1  A    between atoms: N_1  and  C_10
    2  A    between atoms: C_10  and  C_23
    3  A    between atoms: C_12  and  C_21
    4  A    between atoms: C_12  and  O_24
                            x       y       z     vdW  Elec       q    Type
                         _______ _______ _______ _____ _____    ______ ____

>  <TORSDO>
F 4

$$$$
=
 OpenBabel11052416493D

 32 36  0  0  1  0  0  0  0  0999 V2000
  184.7260  177.0530  138.0910 C   0  0  2  0  0  3  0  0  0  0  0  0
  189.1060  176.3530  135.7150 C   0  0  0  0  0  2  0  0  0  0  0  0
  189.3410  177.8590  135.7570 C   0  0  0  0  0  2  0  0  0  0  0  0
  184.4670  179.1370  139.4510 C   0  0  0  0  0  0  0  0  0  0  0  0
  185.2330  178.9960  140.6870 C   0  0  0  0  0  0  0  0  0  0  0  0
  182.9060  175.3800  137.8310 C   0  0  0  0  0  0  0  0  0  0  0  0
  185.1060  174.9150  136.8700 C   0  0  0  0  0  3  0  0  0  0  0  0
  186.9270  178.3970  141.9330 C   0  0  0  0  0  0  0  0  0  0  0  0
  187.6090  176.0640  135.6970 C   0  0  0  0  0  2  0  0  0  0  0  0
  185.4310  176.3860  136.9020 C   0  0  2  0  0  3  0  0  0  0  0  0
  186.9390  176.6260  136.9530 C   0  0  2  0  0  3  0  0  0  0  0  0
  186.5650  178.7490  138.2180 N   0  0  2  0  0  0  0  0  0  0  0  0
  185.9600  178.8030  142.7350 O   0  0  0  0  0  0  0  0  0  0  0  0
  181.7250  174.9590  138.1980 C   0  0  0  0  0  0  0  0  0  0  0  0
  183.9160  174.4500  137.2640 C   0  0  0  0  0  0  0  0  0  0  0  0
  184.9060  179.1730  142.0200 C   0  0  0  0  0  3  0  0  0  0  0  0
  180.5420  174.5370  138.5630 C   0  0  0  0  0  3  0  0  0  0  0  0
  188.7000  178.4560  137.0050 C   0  0  0  0  0  2  0  0  0  0  0  0
  187.2010  178.1420  137.0400 C   0  0  1  0  0  3  0  0  0  0  0  0
  187.1380  178.2210  139.4050 N   0  0  0  0  0  2  0  0  0  0  0  0
  183.2160  176.8450  137.9440 C   0  0  0  0  0  2  0  0  0  0  0  0
  183.3250  179.6670  139.4380 O   0  0  0  0  0  0  0  0  0  0  0  0
  188.2570  177.9060  142.3840 C   0  0  0  0  0  1  0  0  0  0  0  0
  185.0860  178.5480  138.1970 C   0  0  1  0  0  3  0  0  0  0  0  0
  186.4930  178.5170  140.6410 C   0  0  0  0  0  0  0  0  0  0  0  0
  179.5660  173.8940  137.6200 C   0  0  0  0  0  2  0  0  0  0  0  0
  180.1590  172.7920  136.8730 N   0  0  0  0  0  0  0  0  0  0  0  0
  180.2520  173.1910  135.5830 O   0  0  0  0  0  1  0  0  0  0  0  0
  179.1980  171.7050  136.9020 C   0  0  0  0  0  1  0  0  0  0  0  0
  183.6500  172.9840  137.1490 C   0  0  0  0  0  2  0  0  0  0  0  0
  183.9360  171.2880  135.7690 C   0  0  0  0  0  1  0  0  0  0  0  0
  183.5480  172.6270  135.8050 O   0  0  0  0  0  0  0  0  0  0  0  0
  1 21  1  6  0  0  0
  1 24  1  0  0  0  0
  2  3  1  0  0  0  0
  3 18  1  0  0  0  0
  4  5  1  0  0  0  0
  5 16  2  0  0  0  0
  6 21  1  0  0  0  0
  6 14  2  0  0  0  0
  7 15  2  0  0  0  0
  8 23  1  0  0  0  0
  8 13  1  0  0  0  0
  9  2  1  0  0  0  0
 10  7  1  1  0  0  0
 10 11  1  0  0  0  0
 10  1  1  0  0  0  0
 11  9  1  6  0  0  0
 11 19  1  0  0  0  0
 12 20  1  1  0  0  0
 14 17  2  0  0  0  0
 15  6  1  0  0  0  0
 16 13  1  0  0  0  0
 19 18  1  1  0  0  0
 19 12  1  0  0  0  0
 20 25  1  0  0  0  0
 22  4  2  0  0  0  0
 24 12  1  0  0  0  0
 24  4  1  1  0  0  0
 25  5  1  0  0  0  0
 25  8  2  0  0  0  0
 26 17  1  0  0  0  0
 27 29  1  0  0  0  0
 27 26  1  0  0  0  0
 28 27  1  0  0  0  0
 30 15  1  0  0  0  0
 31 32  1  0  0  0  0
 32 30  1  0  0  0  0
M  END
>  <MODEL>
8

>  <REMARK>
 VINA RESULT:      -6.1      2.918      8.722
  Name = 
  4 active torsions:
  status: ('A' for Active; 'I' for Inactive)
    1  A    between atoms: N_1  and  C_10
    2  A    between atoms: C_10  and  C_23
    3  A    between atoms: C_12  and  C_21
    4  A    between atoms: C_12  and  O_24
                            x       y       z     vdW  Elec       q    Type
                         _______ _______ _______ _____ _____    ______ ____

>  <TORSDO>
F 4

$$$$
=
 OpenBabel11052416493D

 32 36  0  0  1  0  0  0  0  0999 V2000
  187.8020  175.8320  137.3940 C   0  0  2  0  0  3  0  0  0  0  0  0
  191.9390  173.1720  136.3330 C   0  0  0  0  0  2  0  0  0  0  0  0
  192.7160  174.4780  136.2040 C   0  0  0  0  0  2  0  0  0  0  0  0
  188.1120  178.1390  138.3110 C   0  0  0  0  0  0  0  0  0  0  0  0
  188.5330  178.0430  139.7070 C   0  0  0  0  0  0  0  0  0  0  0  0
  185.5620  174.8530  136.9420 C   0  0  0  0  0  0  0  0  0  0  0  0
  187.5550  173.4670  136.6480 C   0  0  0  0  0  3  0  0  0  0  0  0
  189.6220  177.2200  141.4150 C   0  0  0  0  0  0  0  0  0  0  0  0
  190.4730  173.4040  135.9820 C   0  0  0  0  0  2  0  0  0  0  0  0
  188.4020  174.7090  136.5370 C   0  0  2  0  0  3  0  0  0  0  0  0
  189.8530  174.4360  136.9290 C   0  0  2  0  0  3  0  0  0  0  0  0
  190.0910  176.7940  137.7200 N   0  0  2  0  0  0  0  0  0  0  0  0
  188.7540  178.1010  141.8760 O   0  0  0  0  0  0  0  0  0  0  0  0
  184.2640  174.9500  137.0590 C   0  0  0  0  0  0  0  0  0  0  0  0
  186.2280  173.5330  136.7960 C   0  0  0  0  0  0  0  0  0  0  0  0
  188.0640  178.6250  140.8710 C   0  0  0  0  0  3  0  0  0  0  0  0
  182.9650  175.0460  137.1740 C   0  0  0  0  0  3  0  0  0  0  0  0
  192.1360  175.5290  137.1440 C   0  0  0  0  0  2  0  0  0  0  0  0
  190.6500  175.7520  136.8470 C   0  0  1  0  0  3  0  0  0  0  0  0
  190.1990  176.3980  139.0790 N   0  0  0  0  0  2  0  0  0  0  0  0
  186.3780  176.1120  136.9050 C   0  0  0  0  0  2  0  0  0  0  0  0
  187.2780  179.0010  137.9310 O   0  0  0  0  0  0  0  0  0  0  0  0
  190.5620  176.4310  142.2560 C   0  0  0  0  0  1  0  0  0  0  0  0
  188.6760  177.1010  137.3580 C   0  0  1  0  0  3  0  0  0  0  0  0
  189.5040  177.1730  140.0530 C   0  0  0  0  0  0  0  0  0  0  0  0
  182.0040  174.5650  136.1240 C   0  0  0  0  0  2  0  0  0  0  0  0
  180.9980  173.6600  136.6650 N   0  0  0  0  0  0  0  0  0  0  0  0
  180.7150  174.0830  137.9180 O   0  0  0  0  0  1  0  0  0  0  0  0
  181.6350  172.3620  136.7990 C   0  0  0  0  0  1  0  0  0  0  0  0
  185.4520  172.2570  136.8420 C   0  0  0  0  0  2  0  0  0  0  0  0
  185.3910  170.6590  135.3240 C   0  0  0  0  0  1  0  0  0  0  0  0
  184.9570  171.9610  135.5720 O   0  0  0  0  0  0  0  0  0  0  0  0
  1 21  1  6  0  0  0
  3  2  1  0  0  0  0
  3 18  1  0  0  0  0
  4  5  1  0  0  0  0
  5 25  1  0  0  0  0
  5 16  2  0  0  0  0
  6 14  2  0  0  0  0
  7 15  2  0  0  0  0
  8 13  1  0  0  0  0
  8 23  1  0  0  0  0
  9  2  1  0  0  0  0
 10  7  1  1  0  0  0
 10 11  1  0  0  0  0
 10  1  1  0  0  0  0
 11  9  1  6  0  0  0
 12 20  1  1  0  0  0
 14 17  2  0  0  0  0
 15 30  1  0  0  0  0
 15  6  1  0  0  0  0
 16 13  1  0  0  0  0
 19 11  1  0  0  0  0
 19 18  1  1  0  0  0
 19 12  1  0  0  0  0
 20 25  1  0  0  0  0
 21  6  1  0  0  0  0
 22  4  2  0  0  0  0
 24  1  1  0  0  0  0
 24 12  1  0  0  0  0
 24  4  1  1  0  0  0
 25  8  2  0  0  0  0
 26 27  1  0  0  0  0
 26 17  1  0  0  0  0
 27 29  1  0  0  0  0
 27 28  1  0  0  0  0
 31 32  1  0  0  0  0
 32 30  1  0  0  0  0
M  END
>  <MODEL>
9

>  <REMARK>
 VINA RESULT:      -5.9      4.101      9.431
  Name = 
  4 active torsions:
  status: ('A' for Active; 'I' for Inactive)
    1  A    between atoms: N_1  and  C_10
    2  A    between atoms: C_10  and  C_23
    3  A    between atoms: C_12  and  C_21
    4  A    between atoms: C_12  and  O_24
                            x       y       z     vdW  Elec       q    Type
                         _______ _______ _______ _____ _____    ______ ____

>  <TORSDO>
F 4

$$$$
