=
 OpenBabel11052413003D

 31 34  0  0  1  0  0  0  0  0999 V2000
  187.4220  178.4740  141.6560 C   0  0  2  0  0  3  0  0  0  0  0  0
  187.3090  178.3260  140.2050 N   0  0  0  0  0  0  0  0  0  0  0  0
  188.2940  177.6470  138.1160 C   0  0  0  0  0  0  0  0  0  0  0  0
  189.4560  177.2920  137.2890 C   0  0  0  0  0  3  0  0  0  0  0  0
  188.4370  177.9050  139.4170 C   0  0  0  0  0  3  0  0  0  0  0  0
  186.0250  178.5390  138.1400 O   0  0  0  0  0  0  0  0  0  0  0  0
  189.3380  177.2830  135.9580 C   0  0  0  0  0  3  0  0  0  0  0  0
  186.1250  178.7560  139.5160 C   0  0  0  0  0  0  0  0  0  0  0  0
  188.0660  177.6510  135.3000 C   0  0  0  0  0  3  0  0  0  0  0  0
  185.1850  179.3910  140.1370 N   0  0  0  0  0  2  0  0  0  0  0  0
  186.9130  177.6270  137.4960 C   0  0  1  0  0  3  0  0  0  0  0  0
  186.9490  177.8550  136.0080 C   0  0  0  0  0  3  0  0  0  0  0  0
  190.9440  177.8400  142.7070 C   0  0  2  0  0  3  0  0  0  0  0  0
  190.4400  176.1090  143.0330 S   0  0  0  0  0  0  0  0  0  0  0  0
  191.4900  178.4630  143.9760 C   0  0  0  0  0  1  0  0  0  0  0  0
  189.7700  178.5750  142.2620 N   0  0  0  0  0  0  0  0  0  0  0  0
  188.6990  177.8700  142.1520 C   0  0  0  0  0  0  0  0  0  0  0  0
  188.8180  176.4940  142.4670 N   0  0  0  0  0  2  0  0  0  0  0  0
  186.1960  177.9000  142.3570 C   0  0  0  0  0  2  0  0  0  0  0  0
  185.4490  178.9840  143.1180 C   0  0  0  0  0  2  0  0  0  0  0  0
  183.8630  178.5910  146.3680 O   0  0  0  0  0  0  0  0  0  0  0  0
  185.2920  178.5930  144.5090 N   0  0  0  0  0  0  0  0  0  0  0  0
  184.1200  179.0170  145.2100 C   0  0  0  0  0  3  0  0  0  0  0  0
  186.2210  177.6180  145.0700 C   0  0  0  0  0  2  0  0  0  0  0  0
  188.3180  177.3530  147.9270 C   0  0  1  0  0  3  0  0  0  0  0  0
  190.2560  176.6130  146.6820 O   0  0  0  0  0  0  0  0  0  0  0  0
  189.0140  178.2780  148.9080 C   0  0  0  0  0  1  0  0  0  0  0  0
  187.0630  178.0410  147.3890 C   0  0  0  0  0  2  0  0  0  0  0  0
  188.5570  177.7440  145.5920 O   0  0  0  0  0  0  0  0  0  0  0  0
  187.2950  178.3100  145.8940 C   0  0  1  0  0  3  0  0  0  0  0  0
  189.1410  177.1990  146.7120 C   0  0  0  0  0  0  0  0  0  0  0  0
  1 17  1  0  0  0  0
  1 19  1  1  0  0  0
  2  1  1  0  0  0  0
  3  5  2  0  0  0  0
  4  3  1  0  0  0  0
  5  2  1  0  0  0  0
  6  8  1  0  0  0  0
  7  4  2  0  0  0  0
  8 10  2  0  0  0  0
  8  2  1  0  0  0  0
  9  7  1  0  0  0  0
  9 12  2  0  0  0  0
 11 12  1  6  0  0  0
 11  3  1  0  0  0  0
 11  6  1  0  0  0  0
 13 14  1  0  0  0  0
 13 15  1  1  0  0  0
 16 13  1  0  0  0  0
 17 16  2  0  0  0  0
 17 18  1  0  0  0  0
 18 14  1  0  0  0  0
 19 20  1  0  0  0  0
 20 22  1  0  0  0  0
 22 24  1  0  0  0  0
 22 23  1  0  0  0  0
 23 21  2  0  0  0  0
 25 27  1  1  0  0  0
 26 31  2  0  0  0  0
 28 25  1  0  0  0  0
 29 30  1  0  0  0  0
 29 31  1  0  0  0  0
 30 24  1  6  0  0  0
 30 28  1  0  0  0  0
 31 25  1  0  0  0  0
M  END
>  <MODEL>
1

>  <REMARK>
 VINA RESULT:      -8.4      0.000      0.000
  Name = 
  7 active torsions:
  status: ('A' for Active; 'I' for Inactive)
    1  A    between atoms: C_3  and  N_9
    2  A    between atoms: C_3  and  C_22
    3  A    between atoms: N_4  and  C_12
    4  A    between atoms: N_9  and  C_15
    5  A    between atoms: C_12  and  C_20
    6  A    between atoms: C_12  and  C_27
    7  A    between atoms: C_15  and  C_20
                            x       y       z     vdW  Elec       q    Type
                         _______ _______ _______ _____ _____    ______ ____

>  <TORSDO>
F 7

$$$$
=
 OpenBabel11052413003D

 31 34  0  0  1  0  0  0  0  0999 V2000
  189.2250  177.9050  140.5730 C   0  0  2  0  0  3  0  0  0  0  0  0
  189.6790  177.4460  139.2590 N   0  0  0  0  0  0  0  0  0  0  0  0
  190.8850  175.8360  137.9370 C   0  0  0  0  0  0  0  0  0  0  0  0
  191.8630  174.7480  137.8010 C   0  0  0  0  0  3  0  0  0  0  0  0
  190.5790  176.3300  139.1390 C   0  0  0  0  0  3  0  0  0  0  0  0
  189.7630  177.6980  136.8330 O   0  0  0  0  0  0  0  0  0  0  0  0
  192.3390  174.4400  136.5920 C   0  0  0  0  0  3  0  0  0  0  0  0
  189.3710  178.2000  138.0760 C   0  0  0  0  0  0  0  0  0  0  0  0
  191.9220  175.1930  135.3900 C   0  0  0  0  0  3  0  0  0  0  0  0
  188.7960  179.3550  138.1510 N   0  0  0  0  0  2  0  0  0  0  0  0
  190.1560  176.3320  136.7070 C   0  0  1  0  0  3  0  0  0  0  0  0
  190.9420  176.1030  135.4440 C   0  0  0  0  0  3  0  0  0  0  0  0
  191.9120  177.4430  143.1190 C   0  0  2  0  0  3  0  0  0  0  0  0
  191.1930  175.7910  143.4460 S   0  0  0  0  0  0  0  0  0  0  0  0
  191.9110  178.2650  144.3920 C   0  0  0  0  0  1  0  0  0  0  0  0
  191.0940  178.0980  142.1080 N   0  0  0  0  0  0  0  0  0  0  0  0
  190.1230  177.3870  141.6540 C   0  0  0  0  0  0  0  0  0  0  0  0
  189.9960  176.0810  142.1870 N   0  0  0  0  0  2  0  0  0  0  0  0
  187.7640  177.5330  140.8030 C   0  0  0  0  0  2  0  0  0  0  0  0
  186.9740  178.7280  141.3110 C   0  0  0  0  0  2  0  0  0  0  0  0
  184.0360  178.2620  143.4040 O   0  0  0  0  0  0  0  0  0  0  0  0
  186.1840  178.3430  142.4690 N   0  0  0  0  0  0  0  0  0  0  0  0
  184.7970  178.6920  142.4970 C   0  0  0  0  0  3  0  0  0  0  0  0
  186.7770  177.4430  143.4510 C   0  0  0  0  0  2  0  0  0  0  0  0
  187.4700  177.3430  146.9350 C   0  0  1  0  0  3  0  0  0  0  0  0
  189.8120  176.8060  146.6570 O   0  0  0  0  0  0  0  0  0  0  0  0
  187.5920  178.3170  148.0920 C   0  0  0  0  0  1  0  0  0  0  0  0
  186.5060  177.9140  145.8940 C   0  0  0  0  0  2  0  0  0  0  0  0
  188.6450  177.7840  144.9150 O   0  0  0  0  0  0  0  0  0  0  0  0
  187.3290  178.2230  144.6340 C   0  0  1  0  0  3  0  0  0  0  0  0
  188.7420  177.2820  146.1910 C   0  0  0  0  0  0  0  0  0  0  0  0
  1 19  1  1  0  0  0
  1 17  1  0  0  0  0
  2  1  1  0  0  0  0
  3  5  2  0  0  0  0
  4  3  1  0  0  0  0
  5  2  1  0  0  0  0
  6  8  1  0  0  0  0
  7  4  2  0  0  0  0
  8 10  2  0  0  0  0
  8  2  1  0  0  0  0
  9 12  2  0  0  0  0
  9  7  1  0  0  0  0
 11 12  1  6  0  0  0
 11  6  1  0  0  0  0
 11  3  1  0  0  0  0
 13 14  1  0  0  0  0
 13 15  1  1  0  0  0
 16 13  1  0  0  0  0
 17 16  2  0  0  0  0
 17 18  1  0  0  0  0
 18 14  1  0  0  0  0
 19 20  1  0  0  0  0
 20 22  1  0  0  0  0
 22 23  1  0  0  0  0
 22 24  1  0  0  0  0
 23 21  2  0  0  0  0
 25 27  1  1  0  0  0
 28 25  1  0  0  0  0
 29 31  1  0  0  0  0
 30 24  1  6  0  0  0
 30 29  1  0  0  0  0
 30 28  1  0  0  0  0
 31 26  2  0  0  0  0
 31 25  1  0  0  0  0
M  END
>  <MODEL>
2

>  <REMARK>
 VINA RESULT:      -8.1      1.997      2.618
  Name = 
  7 active torsions:
  status: ('A' for Active; 'I' for Inactive)
    1  A    between atoms: C_3  and  N_9
    2  A    between atoms: C_3  and  C_22
    3  A    between atoms: N_4  and  C_12
    4  A    between atoms: N_9  and  C_15
    5  A    between atoms: C_12  and  C_20
    6  A    between atoms: C_12  and  C_27
    7  A    between atoms: C_15  and  C_20
                            x       y       z     vdW  Elec       q    Type
                         _______ _______ _______ _____ _____    ______ ____

>  <TORSDO>
F 7

$$$$
=
 OpenBabel11052413003D

 31 34  0  0  1  0  0  0  0  0999 V2000
  188.5320  177.4360  141.3700 C   0  0  2  0  0  3  0  0  0  0  0  0
  187.3530  177.9420  142.0730 N   0  0  0  0  0  0  0  0  0  0  0  0
  186.1470  178.2360  144.1350 C   0  0  0  0  0  0  0  0  0  0  0  0
  185.8910  177.9000  145.5430 C   0  0  0  0  0  3  0  0  0  0  0  0
  187.1540  177.6660  143.4710 C   0  0  0  0  0  3  0  0  0  0  0  0
  185.2080  179.1080  142.0610 O   0  0  0  0  0  0  0  0  0  0  0  0
  184.7450  178.2830  146.1130 C   0  0  0  0  0  3  0  0  0  0  0  0
  186.2870  178.5790  141.3490 C   0  0  0  0  0  0  0  0  0  0  0  0
  183.7160  179.0160  145.3440 C   0  0  0  0  0  3  0  0  0  0  0  0
  186.2860  178.6140  140.0570 N   0  0  0  0  0  2  0  0  0  0  0  0
  185.3130  179.3100  143.4690 C   0  0  1  0  0  3  0  0  0  0  0  0
  183.9550  179.4560  144.1030 C   0  0  0  0  0  3  0  0  0  0  0  0
  191.2850  177.5860  143.8820 C   0  0  2  0  0  3  0  0  0  0  0  0
  191.4060  175.7650  143.7230 S   0  0  0  0  0  0  0  0  0  0  0  0
  190.9900  177.9580  145.3210 C   0  0  0  0  0  1  0  0  0  0  0  0
  190.2010  178.0410  143.0230 N   0  0  0  0  0  0  0  0  0  0  0  0
  189.6290  177.1160  142.3370 C   0  0  0  0  0  0  0  0  0  0  0  0
  190.1340  175.8030  142.5060 N   0  0  0  0  0  2  0  0  0  0  0  0
  188.9780  178.4130  140.2870 C   0  0  0  0  0  2  0  0  0  0  0  0
  190.1490  177.8490  139.4980 C   0  0  0  0  0  2  0  0  0  0  0  0
  188.8130  178.3520  136.1520 O   0  0  0  0  0  0  0  0  0  0  0  0
  189.7240  177.5220  138.1470 N   0  0  0  0  0  0  0  0  0  0  0  0
  189.0730  178.5330  137.3710 C   0  0  0  0  0  3  0  0  0  0  0  0
  190.1580  176.2570  137.5640 C   0  0  0  0  0  2  0  0  0  0  0  0
  193.2300  174.6250  136.8390 C   0  0  1  0  0  3  0  0  0  0  0  0
  194.4440  176.6710  136.4010 O   0  0  0  0  0  0  0  0  0  0  0  0
  194.3130  173.8700  137.5860 C   0  0  0  0  0  1  0  0  0  0  0  0
  191.9000  174.4610  137.5750 C   0  0  0  0  0  2  0  0  0  0  0  0
  192.5050  176.7360  137.6620 O   0  0  0  0  0  0  0  0  0  0  0  0
  191.5090  175.8420  138.1240 C   0  0  1  0  0  3  0  0  0  0  0  0
  193.4700  176.0780  136.9370 C   0  0  0  0  0  0  0  0  0  0  0  0
  1 19  1  6  0  0  0
  1  2  1  0  0  0  0
  1 17  1  0  0  0  0
  2  5  1  0  0  0  0
  3  4  1  0  0  0  0
  4  7  2  0  0  0  0
  5  3  2  0  0  0  0
  6 11  1  0  0  0  0
  8  6  1  0  0  0  0
  8  2  1  0  0  0  0
  9  7  1  0  0  0  0
 10  8  2  0  0  0  0
 11 12  1  1  0  0  0
 11  3  1  0  0  0  0
 12  9  2  0  0  0  0
 13 15  1  1  0  0  0
 14 13  1  0  0  0  0
 16 13  1  0  0  0  0
 17 18  1  0  0  0  0
 17 16  2  0  0  0  0
 18 14  1  0  0  0  0
 20 19  1  0  0  0  0
 21 23  2  0  0  0  0
 22 20  1  0  0  0  0
 23 22  1  0  0  0  0
 24 22  1  0  0  0  0
 25 31  1  0  0  0  0
 25 28  1  0  0  0  0
 25 27  1  1  0  0  0
 26 31  2  0  0  0  0
 28 30  1  0  0  0  0
 29 30  1  0  0  0  0
 30 24  1  6  0  0  0
 31 29  1  0  0  0  0
M  END
>  <MODEL>
3

>  <REMARK>
 VINA RESULT:      -8.0      3.053      7.636
  Name = 
  7 active torsions:
  status: ('A' for Active; 'I' for Inactive)
    1  A    between atoms: C_3  and  N_9
    2  A    between atoms: C_3  and  C_22
    3  A    between atoms: N_4  and  C_12
    4  A    between atoms: N_9  and  C_15
    5  A    between atoms: C_12  and  C_20
    6  A    between atoms: C_12  and  C_27
    7  A    between atoms: C_15  and  C_20
                            x       y       z     vdW  Elec       q    Type
                         _______ _______ _______ _____ _____    ______ ____

>  <TORSDO>
F 7

$$$$
=
 OpenBabel11052413003D

 31 34  0  0  1  0  0  0  0  0999 V2000
  184.9740  178.9950  141.0090 C   0  0  2  0  0  3  0  0  0  0  0  0
  183.9440  178.6040  140.0470 N   0  0  0  0  0  0  0  0  0  0  0  0
  182.4150  176.9380  139.2220 C   0  0  0  0  0  0  0  0  0  0  0  0
  181.9490  175.5480  139.1210 C   0  0  0  0  0  3  0  0  0  0  0  0
  183.4430  177.2560  140.0100 C   0  0  0  0  0  3  0  0  0  0  0  0
  182.4980  179.1270  138.1520 O   0  0  0  0  0  0  0  0  0  0  0  0
  181.0940  175.2100  138.1500 C   0  0  0  0  0  3  0  0  0  0  0  0
  183.5300  179.5090  139.0110 C   0  0  0  0  0  0  0  0  0  0  0  0
  180.6300  176.2050  137.1590 C   0  0  0  0  0  3  0  0  0  0  0  0
  184.1370  180.6360  138.8280 N   0  0  0  0  0  2  0  0  0  0  0  0
  181.6570  178.0260  138.4930 C   0  0  1  0  0  3  0  0  0  0  0  0
  180.9230  177.5040  137.2860 C   0  0  0  0  0  3  0  0  0  0  0  0
  188.6190  178.2880  140.6550 C   0  0  2  0  0  3  0  0  0  0  0  0
  188.2810  177.8970  138.8980 S   0  0  0  0  0  0  0  0  0  0  0  0
  189.2370  177.0840  141.3390 C   0  0  0  0  0  1  0  0  0  0  0  0
  187.3550  178.6230  141.2940 N   0  0  0  0  0  0  0  0  0  0  0  0
  186.3350  178.6200  140.5100 C   0  0  0  0  0  0  0  0  0  0  0  0
  186.5870  178.3040  139.1520 N   0  0  0  0  0  2  0  0  0  0  0  0
  184.6800  178.4120  142.3870 C   0  0  0  0  0  2  0  0  0  0  0  0
  185.0100  179.4140  143.4820 C   0  0  0  0  0  2  0  0  0  0  0  0
  184.3000  178.2370  146.8500 O   0  0  0  0  0  0  0  0  0  0  0  0
  185.2090  178.7210  144.7430 N   0  0  0  0  0  0  0  0  0  0  0  0
  184.2560  178.9200  145.7920 C   0  0  0  0  0  3  0  0  0  0  0  0
  186.2450  177.6960  144.8220 C   0  0  0  0  0  2  0  0  0  0  0  0
  189.1280  176.8730  146.7300 C   0  0  1  0  0  3  0  0  0  0  0  0
  190.6110  176.7850  144.8210 O   0  0  0  0  0  0  0  0  0  0  0  0
  190.0620  177.5500  147.7160 C   0  0  0  0  0  1  0  0  0  0  0  0
  187.7460  177.5230  146.8170 C   0  0  0  0  0  2  0  0  0  0  0  0
  188.6230  177.9600  144.6750 O   0  0  0  0  0  0  0  0  0  0  0  0
  187.4980  178.2470  145.4840 C   0  0  1  0  0  3  0  0  0  0  0  0
  189.5410  177.1890  145.3490 C   0  0  0  0  0  0  0  0  0  0  0  0
  1 19  1  1  0  0  0
  2  1  1  0  0  0  0
  3  5  2  0  0  0  0
  4  3  1  0  0  0  0
  5  2  1  0  0  0  0
  6 11  1  0  0  0  0
  6  8  1  0  0  0  0
  7  4  2  0  0  0  0
  8  2  1  0  0  0  0
  9 12  2  0  0  0  0
  9  7  1  0  0  0  0
 10  8  2  0  0  0  0
 11 12  1  6  0  0  0
 11  3  1  0  0  0  0
 13 16  1  0  0  0  0
 13 15  1  1  0  0  0
 14 18  1  0  0  0  0
 14 13  1  0  0  0  0
 17  1  1  0  0  0  0
 17 16  2  0  0  0  0
 18 17  1  0  0  0  0
 19 20  1  0  0  0  0
 20 22  1  0  0  0  0
 22 24  1  0  0  0  0
 22 23  1  0  0  0  0
 23 21  2  0  0  0  0
 25 28  1  0  0  0  0
 25 27  1  1  0  0  0
 26 31  2  0  0  0  0
 29 31  1  0  0  0  0
 29 30  1  0  0  0  0
 30 24  1  6  0  0  0
 30 28  1  0  0  0  0
 31 25  1  0  0  0  0
M  END
>  <MODEL>
4

>  <REMARK>
 VINA RESULT:      -8.0      2.934      3.907
  Name = 
  7 active torsions:
  status: ('A' for Active; 'I' for Inactive)
    1  A    between atoms: C_3  and  N_9
    2  A    between atoms: C_3  and  C_22
    3  A    between atoms: N_4  and  C_12
    4  A    between atoms: N_9  and  C_15
    5  A    between atoms: C_12  and  C_20
    6  A    between atoms: C_12  and  C_27
    7  A    between atoms: C_15  and  C_20
                            x       y       z     vdW  Elec       q    Type
                         _______ _______ _______ _____ _____    ______ ____

>  <TORSDO>
F 7

$$$$
=
 OpenBabel11052413003D

 31 34  0  0  1  0  0  0  0  0999 V2000
  190.3120  177.2050  138.6340 C   0  0  2  0  0  3  0  0  0  0  0  0
  188.9900  177.1680  138.0070 N   0  0  0  0  0  0  0  0  0  0  0  0
  187.1000  175.8860  137.2480 C   0  0  0  0  0  0  0  0  0  0  0  0
  186.4720  174.6160  136.8570 C   0  0  0  0  0  3  0  0  0  0  0  0
  188.3560  175.9140  137.6980 C   0  0  0  0  0  3  0  0  0  0  0  0
  187.0820  178.3110  137.0030 O   0  0  0  0  0  0  0  0  0  0  0  0
  185.3190  174.6330  136.1810 C   0  0  0  0  0  3  0  0  0  0  0  0
  188.3710  178.3750  137.5360 C   0  0  0  0  0  0  0  0  0  0  0  0
  184.6770  175.9080  135.7950 C   0  0  0  0  0  3  0  0  0  0  0  0
  189.0100  179.4990  137.5410 N   0  0  0  0  0  2  0  0  0  0  0  0
  186.2760  177.1550  137.2240 C   0  0  1  0  0  3  0  0  0  0  0  0
  185.1400  177.0830  136.2380 C   0  0  0  0  0  3  0  0  0  0  0  0
  193.4670  175.9510  137.0890 C   0  0  2  0  0  3  0  0  0  0  0  0
  192.5160  175.7350  135.5390 S   0  0  0  0  0  0  0  0  0  0  0  0
  194.0560  174.6220  137.5200 C   0  0  0  0  0  1  0  0  0  0  0  0
  192.5550  176.4400  138.1130 N   0  0  0  0  0  0  0  0  0  0  0  0
  191.3520  176.6510  137.7090 C   0  0  0  0  0  0  0  0  0  0  0  0
  191.0920  176.3890  136.3410 N   0  0  0  0  0  2  0  0  0  0  0  0
  190.2940  176.4920  139.9810 C   0  0  0  0  0  2  0  0  0  0  0  0
  189.7710  177.4110  141.0740 C   0  0  0  0  0  2  0  0  0  0  0  0
  191.6740  176.5210  144.0440 O   0  0  0  0  0  0  0  0  0  0  0  0
  190.0530  176.8370  142.3790 N   0  0  0  0  0  0  0  0  0  0  0  0
  191.3980  176.8710  142.8660 C   0  0  0  0  0  3  0  0  0  0  0  0
  188.9320  176.4430  143.2260 C   0  0  0  0  0  2  0  0  0  0  0  0
  186.4420  177.5460  145.5090 C   0  0  1  0  0  3  0  0  0  0  0  0
  187.9380  177.6320  147.4080 O   0  0  0  0  0  0  0  0  0  0  0  0
  185.6430  178.8050  145.7880 C   0  0  0  0  0  1  0  0  0  0  0  0
  186.8090  177.5000  144.0250 C   0  0  0  0  0  2  0  0  0  0  0  0
  188.8030  177.7000  145.2630 O   0  0  0  0  0  0  0  0  0  0  0  0
  188.3350  177.6520  143.9280 C   0  0  1  0  0  3  0  0  0  0  0  0
  187.7630  177.6350  146.1600 C   0  0  0  0  0  0  0  0  0  0  0  0
  1 19  1  1  0  0  0
  2  1  1  0  0  0  0
  3  5  2  0  0  0  0
  4  3  1  0  0  0  0
  5  2  1  0  0  0  0
  6 11  1  0  0  0  0
  6  8  1  0  0  0  0
  7  4  2  0  0  0  0
  8 10  2  0  0  0  0
  8  2  1  0  0  0  0
  9  7  1  0  0  0  0
  9 12  2  0  0  0  0
 11 12  1  6  0  0  0
 11  3  1  0  0  0  0
 13 15  1  1  0  0  0
 13 16  1  0  0  0  0
 14 18  1  0  0  0  0
 14 13  1  0  0  0  0
 17 16  2  0  0  0  0
 17  1  1  0  0  0  0
 18 17  1  0  0  0  0
 19 20  1  0  0  0  0
 20 22  1  0  0  0  0
 22 23  1  0  0  0  0
 22 24  1  0  0  0  0
 23 21  2  0  0  0  0
 25 27  1  6  0  0  0
 25 31  1  0  0  0  0
 28 25  1  0  0  0  0
 29 31  1  0  0  0  0
 30 24  1  1  0  0  0
 30 28  1  0  0  0  0
 30 29  1  0  0  0  0
 31 26  2  0  0  0  0
M  END
>  <MODEL>
5

>  <REMARK>
 VINA RESULT:      -7.9      2.993      4.687
  Name = 
  7 active torsions:
  status: ('A' for Active; 'I' for Inactive)
    1  A    between atoms: C_3  and  N_9
    2  A    between atoms: C_3  and  C_22
    3  A    between atoms: N_4  and  C_12
    4  A    between atoms: N_9  and  C_15
    5  A    between atoms: C_12  and  C_20
    6  A    between atoms: C_12  and  C_27
    7  A    between atoms: C_15  and  C_20
                            x       y       z     vdW  Elec       q    Type
                         _______ _______ _______ _____ _____    ______ ____

>  <TORSDO>
F 7

$$$$
=
 OpenBabel11052413003D

 31 34  0  0  1  0  0  0  0  0999 V2000
  190.3030  177.2350  138.7160 C   0  0  2  0  0  3  0  0  0  0  0  0
  189.0000  177.2180  138.0520 N   0  0  0  0  0  0  0  0  0  0  0  0
  187.1210  175.9620  137.2240 C   0  0  0  0  0  0  0  0  0  0  0  0
  186.4940  174.7020  136.8000 C   0  0  0  0  0  3  0  0  0  0  0  0
  188.3640  175.9740  137.7100 C   0  0  0  0  0  3  0  0  0  0  0  0
  187.1320  178.3900  137.0060 O   0  0  0  0  0  0  0  0  0  0  0  0
  185.3610  174.7370  136.0920 C   0  0  0  0  0  3  0  0  0  0  0  0
  188.4060  178.4360  137.5760 C   0  0  0  0  0  0  0  0  0  0  0  0
  184.7420  176.0220  135.7020 C   0  0  0  0  0  3  0  0  0  0  0  0
  189.0550  179.5540  137.6130 N   0  0  0  0  0  2  0  0  0  0  0  0
  186.3100  177.2390  137.1910 C   0  0  1  0  0  3  0  0  0  0  0  0
  185.2020  177.1880  136.1710 C   0  0  0  0  0  3  0  0  0  0  0  0
  193.4840  175.9320  137.2680 C   0  0  2  0  0  3  0  0  0  0  0  0
  192.5600  175.6670  135.7090 S   0  0  0  0  0  0  0  0  0  0  0  0
  194.0650  174.6180  137.7520 C   0  0  0  0  0  1  0  0  0  0  0  0
  192.5550  176.4540  138.2590 N   0  0  0  0  0  0  0  0  0  0  0  0
  191.3590  176.6520  137.8280 C   0  0  0  0  0  0  0  0  0  0  0  0
  191.1230  176.3460  136.4650 N   0  0  0  0  0  2  0  0  0  0  0  0
  190.2320  176.5370  140.0700 C   0  0  0  0  0  2  0  0  0  0  0  0
  190.4310  177.5300  141.2040 C   0  0  0  0  0  2  0  0  0  0  0  0
  186.9600  178.2630  142.0090 O   0  0  0  0  0  0  0  0  0  0  0  0
  189.2170  177.6260  141.9970 N   0  0  0  0  0  0  0  0  0  0  0  0
  188.0770  178.2770  141.4270 C   0  0  0  0  0  3  0  0  0  0  0  0
  189.1380  176.8790  143.2470 C   0  0  0  0  0  2  0  0  0  0  0  0
  189.2320  177.0780  146.7940 C   0  0  1  0  0  3  0  0  0  0  0  0
  191.6280  176.7850  146.9450 O   0  0  0  0  0  0  0  0  0  0  0  0
  189.0590  178.1310  147.8720 C   0  0  0  0  0  1  0  0  0  0  0  0
  188.4090  177.4720  145.5670 C   0  0  0  0  0  2  0  0  0  0  0  0
  190.6860  177.5160  144.9630 O   0  0  0  0  0  0  0  0  0  0  0  0
  189.4010  177.7890  144.4360 C   0  0  1  0  0  3  0  0  0  0  0  0
  190.6120  177.1110  146.2750 C   0  0  0  0  0  0  0  0  0  0  0  0
  1 19  1  1  0  0  0
  2  1  1  0  0  0  0
  3  5  2  0  0  0  0
  4  3  1  0  0  0  0
  5  2  1  0  0  0  0
  6 11  1  0  0  0  0
  6  8  1  0  0  0  0
  7  4  2  0  0  0  0
  8 10  2  0  0  0  0
  8  2  1  0  0  0  0
  9  7  1  0  0  0  0
  9 12  2  0  0  0  0
 11 12  1  6  0  0  0
 11  3  1  0  0  0  0
 13 15  1  1  0  0  0
 13 16  1  0  0  0  0
 14 18  1  0  0  0  0
 14 13  1  0  0  0  0
 17 16  2  0  0  0  0
 17  1  1  0  0  0  0
 18 17  1  0  0  0  0
 19 20  1  0  0  0  0
 20 22  1  0  0  0  0
 22 24  1  0  0  0  0
 23 22  1  0  0  0  0
 23 21  2  0  0  0  0
 25 27  1  1  0  0  0
 28 25  1  0  0  0  0
 29 31  1  0  0  0  0
 30 24  1  6  0  0  0
 30 29  1  0  0  0  0
 30 28  1  0  0  0  0
 31 25  1  0  0  0  0
 31 26  2  0  0  0  0
M  END
>  <MODEL>
6

>  <REMARK>
 VINA RESULT:      -7.9      3.007      4.235
  Name = 
  7 active torsions:
  status: ('A' for Active; 'I' for Inactive)
    1  A    between atoms: C_3  and  N_9
    2  A    between atoms: C_3  and  C_22
    3  A    between atoms: N_4  and  C_12
    4  A    between atoms: N_9  and  C_15
    5  A    between atoms: C_12  and  C_20
    6  A    between atoms: C_12  and  C_27
    7  A    between atoms: C_15  and  C_20
                            x       y       z     vdW  Elec       q    Type
                         _______ _______ _______ _____ _____    ______ ____

>  <TORSDO>
F 7

$$$$
=
 OpenBabel11052413003D

 31 34  0  0  1  0  0  0  0  0999 V2000
  187.5830  178.5160  140.3770 C   0  0  2  0  0  3  0  0  0  0  0  0
  186.1340  178.5330  140.1740 N   0  0  0  0  0  0  0  0  0  0  0  0
  184.2400  178.0470  138.7710 C   0  0  0  0  0  0  0  0  0  0  0  0
  183.6460  177.7370  137.4630 C   0  0  0  0  0  3  0  0  0  0  0  0
  185.5630  178.1550  138.9090 C   0  0  0  0  0  3  0  0  0  0  0  0
  183.8820  179.0230  140.9760 O   0  0  0  0  0  0  0  0  0  0  0  0
  182.3280  177.8790  137.2890 C   0  0  0  0  0  3  0  0  0  0  0  0
  185.2620  179.0840  141.1740 C   0  0  0  0  0  0  0  0  0  0  0  0
  181.4610  178.3690  138.3820 C   0  0  0  0  0  3  0  0  0  0  0  0
  185.7380  179.6850  142.2150 N   0  0  0  0  0  2  0  0  0  0  0  0
  183.3420  178.1510  139.9840 C   0  0  1  0  0  3  0  0  0  0  0  0
  181.9320  178.5400  139.6220 C   0  0  0  0  0  3  0  0  0  0  0  0
  189.4370  176.7040  137.6950 C   0  0  2  0  0  3  0  0  0  0  0  0
  189.3990  178.2650  136.7390 S   0  0  0  0  0  0  0  0  0  0  0  0
  188.7600  175.6010  136.9060 C   0  0  0  0  0  1  0  0  0  0  0  0
  188.7250  176.9240  138.9450 N   0  0  0  0  0  0  0  0  0  0  0  0
  188.2900  178.1230  139.1170 C   0  0  0  0  0  0  0  0  0  0  0  0
  188.5720  179.0480  138.0820 N   0  0  0  0  0  2  0  0  0  0  0  0
  187.9560  177.6240  141.5560 C   0  0  0  0  0  2  0  0  0  0  0  0
  189.1280  178.2080  142.3290 C   0  0  0  0  0  2  0  0  0  0  0  0
  191.7570  176.0100  143.5500 O   0  0  0  0  0  0  0  0  0  0  0  0
  189.7640  177.1700  143.1230 N   0  0  0  0  0  0  0  0  0  0  0  0
  191.1090  176.7980  142.8100 C   0  0  0  0  0  3  0  0  0  0  0  0
  189.0900  176.7000  144.3280 C   0  0  0  0  0  2  0  0  0  0  0  0
  186.5490  177.6660  146.6170 C   0  0  1  0  0  3  0  0  0  0  0  0
  187.9960  177.6130  148.5540 O   0  0  0  0  0  0  0  0  0  0  0  0
  185.7500  178.9090  146.9590 C   0  0  0  0  0  1  0  0  0  0  0  0
  186.9530  177.7170  145.1430 C   0  0  0  0  0  2  0  0  0  0  0  0
  188.9170  177.8180  146.4410 O   0  0  0  0  0  0  0  0  0  0  0  0
  188.4830  177.8640  145.0950 C   0  0  1  0  0  3  0  0  0  0  0  0
  187.8530  177.7000  147.3050 C   0  0  0  0  0  0  0  0  0  0  0  0
  1 19  1  1  0  0  0
  2  1  1  0  0  0  0
  2  8  1  0  0  0  0
  3  5  2  0  0  0  0
  3 11  1  0  0  0  0
  4  3  1  0  0  0  0
  5  2  1  0  0  0  0
  6  8  1  0  0  0  0
  7  4  2  0  0  0  0
  7  9  1  0  0  0  0
  8 10  2  0  0  0  0
  9 12  2  0  0  0  0
 11 12  1  6  0  0  0
 11  6  1  0  0  0  0
 13 15  1  6  0  0  0
 13 16  1  0  0  0  0
 14 13  1  0  0  0  0
 14 18  1  0  0  0  0
 16 17  2  0  0  0  0
 17  1  1  0  0  0  0
 18 17  1  0  0  0  0
 19 20  1  0  0  0  0
 20 22  1  0  0  0  0
 22 24  1  0  0  0  0
 23 22  1  0  0  0  0
 23 21  2  0  0  0  0
 25 27  1  1  0  0  0
 25 31  1  0  0  0  0
 28 25  1  0  0  0  0
 29 31  1  0  0  0  0
 30 24  1  6  0  0  0
 30 28  1  0  0  0  0
 30 29  1  0  0  0  0
 31 26  2  0  0  0  0
M  END
>  <MODEL>
7

>  <REMARK>
 VINA RESULT:      -7.9      2.611      4.631
  Name = 
  7 active torsions:
  status: ('A' for Active; 'I' for Inactive)
    1  A    between atoms: C_3  and  N_9
    2  A    between atoms: C_3  and  C_22
    3  A    between atoms: N_4  and  C_12
    4  A    between atoms: N_9  and  C_15
    5  A    between atoms: C_12  and  C_20
    6  A    between atoms: C_12  and  C_27
    7  A    between atoms: C_15  and  C_20
                            x       y       z     vdW  Elec       q    Type
                         _______ _______ _______ _____ _____    ______ ____

>  <TORSDO>
F 7

$$$$
=
 OpenBabel11052413003D

 31 34  0  0  1  0  0  0  0  0999 V2000
  190.0030  176.0880  138.6880 C   0  0  2  0  0  3  0  0  0  0  0  0
  191.0480  175.5580  137.8120 N   0  0  0  0  0  0  0  0  0  0  0  0
  193.1710  175.8560  136.7160 C   0  0  0  0  0  0  0  0  0  0  0  0
  194.2680  176.7050  136.2320 C   0  0  0  0  0  3  0  0  0  0  0  0
  192.1570  176.3810  137.4060 C   0  0  0  0  0  3  0  0  0  0  0  0
  191.9520  173.7640  136.4260 O   0  0  0  0  0  0  0  0  0  0  0  0
  195.1340  176.2150  135.3400 C   0  0  0  0  0  3  0  0  0  0  0  0
  190.9060  174.2650  137.2030 C   0  0  0  0  0  0  0  0  0  0  0  0
  194.9920  174.8420  134.8100 C   0  0  0  0  0  3  0  0  0  0  0  0
  189.8070  173.5930  137.3150 N   0  0  0  0  0  2  0  0  0  0  0  0
  193.2470  174.3590  136.5040 C   0  0  1  0  0  3  0  0  0  0  0  0
  194.0910  173.9910  135.3130 C   0  0  0  0  0  3  0  0  0  0  0  0
  186.9550  177.1440  136.8160 C   0  0  2  0  0  3  0  0  0  0  0  0
  187.8180  178.7230  136.4790 S   0  0  0  0  0  0  0  0  0  0  0  0
  185.6580  177.4150  137.5520 C   0  0  0  0  0  1  0  0  0  0  0  0
  187.8270  176.3200  137.6400 N   0  0  0  0  0  0  0  0  0  0  0  0
  188.9770  176.8370  137.8950 C   0  0  0  0  0  0  0  0  0  0  0  0
  189.2300  178.1140  137.3370 N   0  0  0  0  0  2  0  0  0  0  0  0
  190.6070  176.9340  139.8040 C   0  0  0  0  0  2  0  0  0  0  0  0
  189.5500  177.3160  140.8270 C   0  0  0  0  0  2  0  0  0  0  0  0
  191.6810  176.7740  143.7250 O   0  0  0  0  0  0  0  0  0  0  0  0
  189.9490  176.8550  142.1460 N   0  0  0  0  0  0  0  0  0  0  0  0
  191.3120  177.0220  142.5460 C   0  0  0  0  0  3  0  0  0  0  0  0
  188.9130  176.4360  143.0840 C   0  0  0  0  0  2  0  0  0  0  0  0
  186.4910  177.5030  145.4550 C   0  0  1  0  0  3  0  0  0  0  0  0
  188.0500  177.6010  147.3020 O   0  0  0  0  0  0  0  0  0  0  0  0
  185.6860  178.7510  145.7660 C   0  0  0  0  0  1  0  0  0  0  0  0
  186.8060  177.4660  143.9600 C   0  0  0  0  0  2  0  0  0  0  0  0
  188.8400  177.6850  145.1290 O   0  0  0  0  0  0  0  0  0  0  0  0
  188.3260  177.6360  143.8110 C   0  0  1  0  0  3  0  0  0  0  0  0
  187.8320  177.6050  146.0610 C   0  0  0  0  0  0  0  0  0  0  0  0
  1 19  1  1  0  0  0
  2  1  1  0  0  0  0
  3  5  2  0  0  0  0
  4  3  1  0  0  0  0
  5  2  1  0  0  0  0
  6 11  1  0  0  0  0
  6  8  1  0  0  0  0
  7  4  2  0  0  0  0
  8 10  2  0  0  0  0
  8  2  1  0  0  0  0
  9 12  2  0  0  0  0
  9  7  1  0  0  0  0
 11 12  1  6  0  0  0
 11  3  1  0  0  0  0
 13 15  1  1  0  0  0
 13 16  1  0  0  0  0
 14 13  1  0  0  0  0
 14 18  1  0  0  0  0
 16 17  2  0  0  0  0
 17  1  1  0  0  0  0
 18 17  1  0  0  0  0
 19 20  1  0  0  0  0
 20 22  1  0  0  0  0
 22 23  1  0  0  0  0
 22 24  1  0  0  0  0
 23 21  2  0  0  0  0
 25 27  1  6  0  0  0
 25 31  1  0  0  0  0
 28 25  1  0  0  0  0
 29 31  1  0  0  0  0
 30 24  1  6  0  0  0
 30 28  1  0  0  0  0
 30 29  1  0  0  0  0
 31 26  2  0  0  0  0
M  END
>  <MODEL>
8

>  <REMARK>
 VINA RESULT:      -7.7      3.760      5.828
  Name = 
  7 active torsions:
  status: ('A' for Active; 'I' for Inactive)
    1  A    between atoms: C_3  and  N_9
    2  A    between atoms: C_3  and  C_22
    3  A    between atoms: N_4  and  C_12
    4  A    between atoms: N_9  and  C_15
    5  A    between atoms: C_12  and  C_20
    6  A    between atoms: C_12  and  C_27
    7  A    between atoms: C_15  and  C_20
                            x       y       z     vdW  Elec       q    Type
                         _______ _______ _______ _____ _____    ______ ____

>  <TORSDO>
F 7

$$$$
=
 OpenBabel11052413003D

 31 34  0  0  1  0  0  0  0  0999 V2000
  188.6850  178.3060  141.5410 C   0  0  2  0  0  3  0  0  0  0  0  0
  189.4520  177.8750  142.7100 N   0  0  0  0  0  0  0  0  0  0  0  0
  189.5150  177.3430  145.0570 C   0  0  0  0  0  0  0  0  0  0  0  0
  188.9420  177.3940  146.4100 C   0  0  0  0  0  3  0  0  0  0  0  0
  188.8540  177.8590  144.0190 C   0  0  0  0  0  3  0  0  0  0  0  0
  191.5480  177.1460  143.7260 O   0  0  0  0  0  0  0  0  0  0  0  0
  189.7150  177.1040  147.4610 C   0  0  0  0  0  3  0  0  0  0  0  0
  190.8620  177.6190  142.6060 C   0  0  0  0  0  0  0  0  0  0  0  0
  191.1430  176.7600  147.2910 C   0  0  0  0  0  3  0  0  0  0  0  0
  191.5080  177.8770  141.5170 N   0  0  0  0  0  2  0  0  0  0  0  0
  190.8230  176.6160  144.8350 C   0  0  1  0  0  3  0  0  0  0  0  0
  191.6750  176.5760  146.0770 C   0  0  0  0  0  3  0  0  0  0  0  0
  185.3020  177.9640  143.0740 C   0  0  2  0  0  3  0  0  0  0  0  0
  184.6760  179.0080  141.7060 S   0  0  0  0  0  0  0  0  0  0  0  0
  184.9930  178.6210  144.4040 C   0  0  0  0  0  1  0  0  0  0  0  0
  186.7420  177.8280  142.9140 N   0  0  0  0  0  0  0  0  0  0  0  0
  187.2270  178.4010  141.8690 C   0  0  0  0  0  0  0  0  0  0  0  0
  186.3010  179.0670  141.0300 N   0  0  0  0  0  2  0  0  0  0  0  0
  188.9540  177.3930  140.3490 C   0  0  0  0  0  2  0  0  0  0  0  0
  188.7980  178.1510  139.0400 C   0  0  0  0  0  2  0  0  0  0  0  0
  187.6180  175.7830  136.5440 O   0  0  0  0  0  0  0  0  0  0  0  0
  188.8520  177.2240  137.9220 N   0  0  0  0  0  0  0  0  0  0  0  0
  187.6710  176.4900  137.5860 C   0  0  0  0  0  3  0  0  0  0  0  0
  190.0310  177.2320  137.0630 C   0  0  0  0  0  2  0  0  0  0  0  0
  193.3870  176.0720  136.9240 C   0  0  1  0  0  3  0  0  0  0  0  0
  193.9270  176.7590  139.1790 O   0  0  0  0  0  0  0  0  0  0  0  0
  194.1240  174.7470  136.9030 C   0  0  0  0  0  1  0  0  0  0  0  0
  192.0010  175.8870  136.3050 C   0  0  0  0  0  2  0  0  0  0  0  0
  191.7160  176.4470  138.5750 O   0  0  0  0  0  0  0  0  0  0  0  0
  190.9700  176.0930  137.4260 C   0  0  1  0  0  3  0  0  0  0  0  0
  193.0660  176.4480  138.3140 C   0  0  0  0  0  0  0  0  0  0  0  0
  1 19  1  6  0  0  0
  1 17  1  0  0  0  0
  1  2  1  0  0  0  0
  2  5  1  0  0  0  0
  3  4  1  0  0  0  0
  4  7  2  0  0  0  0
  5  3  2  0  0  0  0
  6 11  1  0  0  0  0
  8  2  1  0  0  0  0
  8  6  1  0  0  0  0
  9  7  1  0  0  0  0
 10  8  2  0  0  0  0
 11  3  1  0  0  0  0
 11 12  1  1  0  0  0
 12  9  2  0  0  0  0
 13 15  1  1  0  0  0
 14 13  1  0  0  0  0
 16 13  1  0  0  0  0
 17 16  2  0  0  0  0
 18 14  1  0  0  0  0
 18 17  1  0  0  0  0
 20 19  1  0  0  0  0
 21 23  2  0  0  0  0
 22 20  1  0  0  0  0
 23 22  1  0  0  0  0
 24 22  1  0  0  0  0
 25 27  1  1  0  0  0
 25 31  1  0  0  0  0
 28 25  1  0  0  0  0
 28 30  1  0  0  0  0
 30 24  1  6  0  0  0
 30 29  1  0  0  0  0
 31 29  1  0  0  0  0
 31 26  2  0  0  0  0
M  END
>  <MODEL>
9

>  <REMARK>
 VINA RESULT:      -7.7      3.089      8.229
  Name = 
  7 active torsions:
  status: ('A' for Active; 'I' for Inactive)
    1  A    between atoms: C_3  and  N_9
    2  A    between atoms: C_3  and  C_22
    3  A    between atoms: N_4  and  C_12
    4  A    between atoms: N_9  and  C_15
    5  A    between atoms: C_12  and  C_20
    6  A    between atoms: C_12  and  C_27
    7  A    between atoms: C_15  and  C_20
                            x       y       z     vdW  Elec       q    Type
                         _______ _______ _______ _____ _____    ______ ____

>  <TORSDO>
F 7

$$$$
