=
 OpenBabel11052413143D

 31 35  0  0  1  0  0  0  0  0999 V2000
  192.4480  175.2230  136.5320 C   0  0  2  0  0  3  0  0  0  0  0  0
  189.3350  176.3170  138.5760 C   0  0  1  0  0  3  0  0  0  0  0  0
  188.3170  176.4520  137.4300 C   0  0  1  0  0  3  0  0  0  0  0  0
  187.1790  174.9530  135.7530 C   0  0  0  0  0  2  0  0  0  0  0  0
  190.7640  176.3910  138.0180 C   0  0  2  0  0  3  0  0  0  0  0  0
  193.4650  175.2560  137.6730 C   0  0  0  0  0  2  0  0  0  0  0  0
  187.5700  175.1440  137.2180 C   0  0  0  0  0  2  0  0  0  0  0  0
  190.2550  177.4230  140.7010 C   0  0  1  0  0  3  0  0  0  0  0  0
  192.6280  176.3190  135.6860 O   0  0  0  0  0  1  0  0  0  0  0  0
  187.4430  178.6280  138.5340 N   0  0  0  0  0  2  0  0  0  0  0  0
  186.2410  176.0440  135.2440 C   0  0  0  0  0  2  0  0  0  0  0  0
  191.5760  177.4990  140.0670 N   0  0  0  0  0  2  0  0  0  0  0  0
  189.0970  177.3300  139.6990 C   0  0  1  0  0  3  0  0  0  0  0  0
  191.0220  175.2040  137.0820 C   0  0  0  0  0  2  0  0  0  0  0  0
  187.0320  177.3120  134.9310 C   0  0  0  0  0  2  0  0  0  0  0  0
  191.7860  176.3710  139.1620 C   0  0  2  0  0  3  0  0  0  0  0  0
  193.2050  176.4370  138.6050 C   0  0  0  0  0  2  0  0  0  0  0  0
  188.7870  178.6790  139.0930 C   0  0  0  0  0  2  0  0  0  0  0  0
  187.3000  177.6220  137.4710 C   0  0  1  0  0  3  0  0  0  0  0  0
  187.0960  178.2890  136.1110 C   0  0  0  0  0  2  0  0  0  0  0  0
  190.1800  176.4320  141.8730 C   0  0  0  0  0  2  0  0  0  0  0  0
  191.4830  177.3370  143.6380 O   0  0  0  0  0  0  0  0  0  0  0  0
  190.3240  177.0650  143.2250 C   0  0  0  0  0  0  0  0  0  0  0  0
  186.8020  177.8780  145.5480 C   0  0  0  0  0  0  0  0  0  0  0  0
  187.9050  177.5880  143.4180 C   0  0  0  0  0  3  0  0  0  0  0  0
  190.4270  177.1270  146.2450 C   0  0  0  0  0  1  0  0  0  0  0  0
  185.3490  178.1860  146.4730 Cl  0  0  0  0  0  0  0  0  0  0  0  0
  186.7470  177.8440  144.1550 C   0  0  0  0  0  3  0  0  0  0  0  0
  189.1800  177.4010  145.4750 C   0  0  0  0  0  0  0  0  0  0  0  0
  189.1340  177.3650  144.0590 C   0  0  0  0  0  0  0  0  0  0  0  0
  188.0130  177.6550  146.2040 C   0  0  0  0  0  3  0  0  0  0  0  0
  1  9  1  6  0  0  0
  1 14  1  0  0  0  0
  1  6  1  0  0  0  0
  2 13  1  0  0  0  0
  3 19  1  0  0  0  0
  3  2  1  0  0  0  0
  4  7  1  0  0  0  0
  5  2  1  0  0  0  0
  5 16  1  0  0  0  0
  6 17  1  0  0  0  0
  7  3  1  0  0  0  0
  8 21  1  0  0  0  0
 10 18  1  0  0  0  0
 11  4  1  0  0  0  0
 12  8  1  0  0  0  0
 13  8  1  0  0  0  0
 14  5  1  0  0  0  0
 15 11  1  0  0  0  0
 15 20  1  0  0  0  0
 16 12  1  0  0  0  0
 17 16  1  0  0  0  0
 18 13  1  0  0  0  0
 19 10  1  0  0  0  0
 20 19  1  0  0  0  0
 21 23  1  0  0  0  0
 23 22  2  0  0  0  0
 23 30  1  0  0  0  0
 24 31  1  0  0  0  0
 24 27  1  0  0  0  0
 25 30  2  0  0  0  0
 25 28  1  0  0  0  0
 28 24  2  0  0  0  0
 29 31  2  0  0  0  0
 29 26  1  0  0  0  0
 30 29  1  0  0  0  0
M  END
>  <MODEL>
1

>  <REMARK>
 VINA RESULT:      -9.2      0.000      0.000
  Name = 
  3 active torsions:
  status: ('A' for Active; 'I' for Inactive)
    1  A    between atoms: C_9  and  C_22
    2  A    between atoms: C_9  and  C_23
    3  A    between atoms: C_15  and  C_23
                            x       y       z     vdW  Elec       q    Type
                         _______ _______ _______ _____ _____    ______ ____

>  <TORSDO>
F 3

$$$$
=
 OpenBabel11052413143D

 31 35  0  0  1  0  0  0  0  0999 V2000
  186.7560  176.9730  136.6200 C   0  0  2  0  0  3  0  0  0  0  0  0
  183.4660  177.8270  138.4940 C   0  0  1  0  0  3  0  0  0  0  0  0
  182.4970  177.8590  137.2990 C   0  0  1  0  0  3  0  0  0  0  0  0
  181.5720  176.2460  135.5970 C   0  0  0  0  0  2  0  0  0  0  0  0
  184.9090  178.0140  138.0030 C   0  0  2  0  0  3  0  0  0  0  0  0
  187.7100  177.1090  137.8060 C   0  0  0  0  0  2  0  0  0  0  0  0
  181.8740  176.4900  137.0750 C   0  0  0  0  0  2  0  0  0  0  0  0
  184.1850  179.0360  140.6400 C   0  0  1  0  0  3  0  0  0  0  0  0
  186.8840  178.0690  135.7640 O   0  0  0  0  0  1  0  0  0  0  0  0
  181.3900  179.9670  138.3220 N   0  0  0  0  0  2  0  0  0  0  0  0
  180.5710  177.2470  135.0250 C   0  0  0  0  0  2  0  0  0  0  0  0
  185.5240  179.2150  140.0680 N   0  0  0  0  0  2  0  0  0  0  0  0
  183.0890  178.8310  139.5870 C   0  0  1  0  0  3  0  0  0  0  0  0
  185.3110  176.8400  137.1020 C   0  0  0  0  0  2  0  0  0  0  0  0
  181.2670  178.5720  134.7280 C   0  0  0  0  0  2  0  0  0  0  0  0
  185.8720  178.0970  139.1950 C   0  0  2  0  0  3  0  0  0  0  0  0
  187.3060  178.2760  138.7040 C   0  0  0  0  0  2  0  0  0  0  0  0
  182.6960  180.1400  138.9430 C   0  0  0  0  0  2  0  0  0  0  0  0
  181.3840  178.9380  137.2710 C   0  0  1  0  0  3  0  0  0  0  0  0
  181.1910  179.5670  135.8920 C   0  0  0  0  0  2  0  0  0  0  0  0
  184.1370  178.0580  141.8250 C   0  0  0  0  0  2  0  0  0  0  0  0
  183.7640  179.5700  143.6150 O   0  0  0  0  0  0  0  0  0  0  0  0
  184.5080  178.6690  143.1430 C   0  0  0  0  0  0  0  0  0  0  0  0
  188.0890  177.4310  145.1700 C   0  0  0  0  0  0  0  0  0  0  0  0
  186.8490  177.8420  143.1380 C   0  0  0  0  0  3  0  0  0  0  0  0
  184.6630  178.6450  146.1620 C   0  0  0  0  0  1  0  0  0  0  0  0
  189.5660  176.9480  145.9730 Cl  0  0  0  0  0  0  0  0  0  0  0  0
  188.0250  177.4470  143.7780 C   0  0  0  0  0  3  0  0  0  0  0  0
  185.7930  178.2070  145.2930 C   0  0  0  0  0  0  0  0  0  0  0  0
  185.7180  178.2260  143.8780 C   0  0  0  0  0  0  0  0  0  0  0  0
  186.9780  177.8120  145.9230 C   0  0  0  0  0  3  0  0  0  0  0  0
  1  9  1  6  0  0  0
  1 14  1  0  0  0  0
  1  6  1  0  0  0  0
  2 13  1  0  0  0  0
  3  2  1  0  0  0  0
  4  7  1  0  0  0  0
  5  2  1  0  0  0  0
  5 16  1  0  0  0  0
  6 17  1  0  0  0  0
  7  3  1  0  0  0  0
  8 21  1  0  0  0  0
 10 18  1  0  0  0  0
 11  4  1  0  0  0  0
 12  8  1  0  0  0  0
 13  8  1  0  0  0  0
 14  5  1  0  0  0  0
 15 11  1  0  0  0  0
 15 20  1  0  0  0  0
 16 12  1  0  0  0  0
 17 16  1  0  0  0  0
 18 13  1  0  0  0  0
 19  3  1  0  0  0  0
 19 10  1  0  0  0  0
 20 19  1  0  0  0  0
 21 23  1  0  0  0  0
 23 22  2  0  0  0  0
 23 30  1  0  0  0  0
 24 31  1  0  0  0  0
 24 27  1  0  0  0  0
 25 28  1  0  0  0  0
 25 30  2  0  0  0  0
 28 24  2  0  0  0  0
 29 31  2  0  0  0  0
 29 26  1  0  0  0  0
 30 29  1  0  0  0  0
M  END
>  <MODEL>
2

>  <REMARK>
 VINA RESULT:      -8.6      4.041      5.564
  Name = 
  3 active torsions:
  status: ('A' for Active; 'I' for Inactive)
    1  A    between atoms: C_9  and  C_22
    2  A    between atoms: C_9  and  C_23
    3  A    between atoms: C_15  and  C_23
                            x       y       z     vdW  Elec       q    Type
                         _______ _______ _______ _____ _____    ______ ____

>  <TORSDO>
F 3

$$$$
=
 OpenBabel11052413143D

 31 35  0  0  1  0  0  0  0  0999 V2000
  184.8510  176.6210  136.5520 C   0  0  2  0  0  3  0  0  0  0  0  0
  182.8700  177.1720  139.8440 C   0  0  1  0  0  3  0  0  0  0  0  0
  181.4710  176.7390  139.3720 C   0  0  1  0  0  3  0  0  0  0  0  0
  180.3340  174.6360  138.5760 C   0  0  0  0  0  2  0  0  0  0  0  0
  183.7420  177.5390  138.6350 C   0  0  2  0  0  3  0  0  0  0  0  0
  186.1850  177.2090  137.0140 C   0  0  0  0  0  2  0  0  0  0  0  0
  181.2520  175.2560  139.6280 C   0  0  0  0  0  2  0  0  0  0  0  0
  184.1820  178.9470  141.1540 C   0  0  1  0  0  3  0  0  0  0  0  0
  184.2050  177.5030  135.6840 O   0  0  0  0  0  1  0  0  0  0  0  0
  180.4710  178.7480  140.6680 N   0  0  0  0  0  2  0  0  0  0  0  0
  178.9390  175.2570  138.5660 C   0  0  0  0  0  2  0  0  0  0  0  0
  184.9310  179.2670  139.9330 N   0  0  0  0  0  2  0  0  0  0  0  0
  182.8200  178.2930  140.8860 C   0  0  1  0  0  3  0  0  0  0  0  0
  183.9580  176.3040  137.7520 C   0  0  0  0  0  2  0  0  0  0  0  0
  178.9690  176.5990  137.8380 C   0  0  0  0  0  2  0  0  0  0  0  0
  185.1010  178.0800  139.0990 C   0  0  2  0  0  3  0  0  0  0  0  0
  185.9670  178.4360  137.8950 C   0  0  0  0  0  2  0  0  0  0  0  0
  181.7940  179.3180  140.4620 C   0  0  0  0  0  2  0  0  0  0  0  0
  180.2370  177.5330  139.8720 C   0  0  1  0  0  3  0  0  0  0  0  0
  179.2020  177.7880  138.7760 C   0  0  0  0  0  2  0  0  0  0  0  0
  185.0250  178.2670  142.2440 C   0  0  0  0  0  2  0  0  0  0  0  0
  183.5620  179.2410  143.8380 O   0  0  0  0  0  0  0  0  0  0  0  0
  184.6720  178.6770  143.6420 C   0  0  0  0  0  0  0  0  0  0  0  0
  187.2620  177.9480  146.9920 C   0  0  0  0  0  0  0  0  0  0  0  0
  185.2340  178.8650  146.0530 C   0  0  0  0  0  3  0  0  0  0  0  0
  187.2820  177.1910  143.3020 C   0  0  0  0  0  1  0  0  0  0  0  0
  188.2880  177.6410  148.3760 Cl  0  0  0  0  0  0  0  0  0  0  0  0
  186.0560  178.6290  147.1560 C   0  0  0  0  0  3  0  0  0  0  0  0
  186.8300  177.7360  144.6140 C   0  0  0  0  0  0  0  0  0  0  0  0
  185.6030  178.4270  144.7710 C   0  0  0  0  0  0  0  0  0  0  0  0
  187.6450  177.5030  145.7270 C   0  0  0  0  0  3  0  0  0  0  0  0
  1  9  1  6  0  0  0
  1  6  1  0  0  0  0
  1 14  1  0  0  0  0
  2 13  1  0  0  0  0
  3  7  1  0  0  0  0
  3  2  1  0  0  0  0
  3 19  1  0  0  0  0
  4  7  1  0  0  0  0
  5 16  1  0  0  0  0
  5  2  1  0  0  0  0
  6 17  1  0  0  0  0
  8 21  1  0  0  0  0
 11  4  1  0  0  0  0
 12  8  1  0  0  0  0
 13  8  1  0  0  0  0
 14  5  1  0  0  0  0
 15 11  1  0  0  0  0
 15 20  1  0  0  0  0
 16 12  1  0  0  0  0
 17 16  1  0  0  0  0
 18 10  1  0  0  0  0
 18 13  1  0  0  0  0
 19 10  1  0  0  0  0
 20 19  1  0  0  0  0
 21 23  1  0  0  0  0
 23 22  2  0  0  0  0
 23 30  1  0  0  0  0
 24 28  1  0  0  0  0
 24 27  1  0  0  0  0
 25 28  2  0  0  0  0
 26 29  1  0  0  0  0
 29 30  2  0  0  0  0
 29 31  1  0  0  0  0
 30 25  1  0  0  0  0
 31 24  2  0  0  0  0
M  END
>  <MODEL>
3

>  <REMARK>
 VINA RESULT:      -8.4      4.965      6.476
  Name = 
  3 active torsions:
  status: ('A' for Active; 'I' for Inactive)
    1  A    between atoms: C_9  and  C_22
    2  A    between atoms: C_9  and  C_23
    3  A    between atoms: C_15  and  C_23
                            x       y       z     vdW  Elec       q    Type
                         _______ _______ _______ _____ _____    ______ ____

>  <TORSDO>
F 3

$$$$
=
 OpenBabel11052413143D

 31 35  0  0  1  0  0  0  0  0999 V2000
  180.8300  180.4990  136.6930 C   0  0  2  0  0  3  0  0  0  0  0  0
  181.2080  177.9910  139.6300 C   0  0  1  0  0  3  0  0  0  0  0  0
  181.0910  176.6690  138.8500 C   0  0  1  0  0  3  0  0  0  0  0  0
  182.3900  175.4150  137.0920 C   0  0  0  0  0  2  0  0  0  0  0  0
  180.5960  179.1370  138.8150 C   0  0  2  0  0  3  0  0  0  0  0  0
  180.7910  181.7820  137.5230 C   0  0  0  0  0  2  0  0  0  0  0  0
  182.4630  176.1800  138.4120 C   0  0  0  0  0  2  0  0  0  0  0  0
  180.4460  179.2580  141.7270 C   0  0  1  0  0  3  0  0  0  0  0  0
  179.5560  180.1860  136.2190 O   0  0  0  0  0  1  0  0  0  0  0  0
  179.5980  175.7400  140.7530 N   0  0  0  0  0  2  0  0  0  0  0  0
  181.5210  174.1620  137.1810 C   0  0  0  0  0  2  0  0  0  0  0  0
  179.8430  180.2820  140.8660 N   0  0  0  0  0  2  0  0  0  0  0  0
  180.6160  177.8980  141.0390 C   0  0  1  0  0  3  0  0  0  0  0  0
  181.3910  179.3410  137.5190 C   0  0  0  0  0  2  0  0  0  0  0  0
  180.0450  174.5440  137.1130 C   0  0  0  0  0  2  0  0  0  0  0  0
  180.6040  180.4380  139.6290 C   0  0  2  0  0  3  0  0  0  0  0  0
  180.0010  181.5770  138.8130 C   0  0  0  0  0  2  0  0  0  0  0  0
  179.3050  177.1480  140.9770 C   0  0  0  0  0  2  0  0  0  0  0  0
  180.3080  175.4940  139.4890 C   0  0  1  0  0  3  0  0  0  0  0  0
  179.4130  174.7570  138.4930 C   0  0  0  0  0  2  0  0  0  0  0  0
  181.6740  179.7460  142.5120 C   0  0  0  0  0  2  0  0  0  0  0  0
  181.0980  178.3540  144.3440 O   0  0  0  0  0  0  0  0  0  0  0  0
  182.0310  178.8930  143.6920 C   0  0  0  0  0  0  0  0  0  0  0  0
  186.0890  178.2530  144.9530 C   0  0  0  0  0  0  0  0  0  0  0  0
  183.7950  178.8380  145.4380 C   0  0  0  0  0  3  0  0  0  0  0  0
  184.1680  178.0740  141.7170 C   0  0  0  0  0  1  0  0  0  0  0  0
  187.7290  177.9730  145.4940 Cl  0  0  0  0  0  0  0  0  0  0  0  0
  185.1060  178.6250  145.8690 C   0  0  0  0  0  3  0  0  0  0  0  0
  184.4530  178.3080  143.1620 C   0  0  0  0  0  0  0  0  0  0  0  0
  183.4470  178.6860  144.0860 C   0  0  0  0  0  0  0  0  0  0  0  0
  185.7620  178.0930  143.6060 C   0  0  0  0  0  3  0  0  0  0  0  0
  1  9  1  1  0  0  0
  1 14  1  0  0  0  0
  1  6  1  0  0  0  0
  2 13  1  0  0  0  0
  3 19  1  0  0  0  0
  3  2  1  0  0  0  0
  4 11  1  0  0  0  0
  4  7  1  0  0  0  0
  5 16  1  0  0  0  0
  5  2  1  0  0  0  0
  6 17  1  0  0  0  0
  7  3  1  0  0  0  0
  8 21  1  0  0  0  0
 10 18  1  0  0  0  0
 12  8  1  0  0  0  0
 13  8  1  0  0  0  0
 14  5  1  0  0  0  0
 15 11  1  0  0  0  0
 15 20  1  0  0  0  0
 16 12  1  0  0  0  0
 17 16  1  0  0  0  0
 18 13  1  0  0  0  0
 19 10  1  0  0  0  0
 20 19  1  0  0  0  0
 21 23  1  0  0  0  0
 23 30  1  0  0  0  0
 23 22  2  0  0  0  0
 24 27  1  0  0  0  0
 24 28  1  0  0  0  0
 25 28  2  0  0  0  0
 26 29  1  0  0  0  0
 29 31  1  0  0  0  0
 29 30  2  0  0  0  0
 30 25  1  0  0  0  0
 31 24  2  0  0  0  0
M  END
>  <MODEL>
4

>  <REMARK>
 VINA RESULT:      -7.8      6.756      8.887
  Name = 
  3 active torsions:
  status: ('A' for Active; 'I' for Inactive)
    1  A    between atoms: C_9  and  C_22
    2  A    between atoms: C_9  and  C_23
    3  A    between atoms: C_15  and  C_23
                            x       y       z     vdW  Elec       q    Type
                         _______ _______ _______ _____ _____    ______ ____

>  <TORSDO>
F 3

$$$$
=
 OpenBabel11052413143D

 31 35  0  0  1  0  0  0  0  0999 V2000
  186.0360  177.9960  146.7910 C   0  0  2  0  0  3  0  0  0  0  0  0
  186.7380  177.5360  143.0020 C   0  0  1  0  0  3  0  0  0  0  0  0
  188.2730  177.4330  143.0410 C   0  0  1  0  0  3  0  0  0  0  0  0
  190.0190  175.8630  143.9580 C   0  0  0  0  0  2  0  0  0  0  0  0
  186.2270  178.2210  144.2770 C   0  0  2  0  0  3  0  0  0  0  0  0
  184.5330  178.2530  146.6920 C   0  0  0  0  0  2  0  0  0  0  0  0
  188.7120  175.9830  143.1770 C   0  0  0  0  0  2  0  0  0  0  0  0
  184.7420  178.6010  141.7920 C   0  0  1  0  0  3  0  0  0  0  0  0
  186.7170  179.1840  147.0610 O   0  0  0  0  0  1  0  0  0  0  0  0
  188.3750  178.9400  140.9350 N   0  0  0  0  0  2  0  0  0  0  0  0
  191.1840  176.5780  143.2760 C   0  0  0  0  0  2  0  0  0  0  0  0
  184.3570  179.2590  143.0470 N   0  0  0  0  0  2  0  0  0  0  0  0
  186.2250  178.2160  141.7300 C   0  0  1  0  0  3  0  0  0  0  0  0
  186.5610  177.3620  145.5020 C   0  0  0  0  0  2  0  0  0  0  0  0
  191.0970  178.0800  143.5300 C   0  0  0  0  0  2  0  0  0  0  0  0
  184.7090  178.4320  144.1980 C   0  0  2  0  0  3  0  0  0  0  0  0
  184.2020  179.1060  145.4690 C   0  0  0  0  0  2  0  0  0  0  0  0
  187.0910  179.4180  141.4270 C   0  0  0  0  0  2  0  0  0  0  0  0
  189.0950  178.1130  141.9160 C   0  0  1  0  0  3  0  0  0  0  0  0
  190.3390  178.8350  142.4320 C   0  0  0  0  0  2  0  0  0  0  0  0
  183.7670  177.5030  141.3370 C   0  0  0  0  0  2  0  0  0  0  0  0
  183.4300  176.9090  139.0650 O   0  0  0  0  0  0  0  0  0  0  0  0
  183.1680  177.7330  139.9820 C   0  0  0  0  0  0  0  0  0  0  0  0
  180.6750  181.1210  139.1080 C   0  0  0  0  0  0  0  0  0  0  0  0
  182.7380  179.8940  138.8380 C   0  0  0  0  0  3  0  0  0  0  0  0
  180.4200  178.0060  141.2110 C   0  0  0  0  0  1  0  0  0  0  0  0
  179.6670  182.4970  138.7170 Cl  0  0  0  0  0  0  0  0  0  0  0  0
  181.9390  180.9970  138.5330 C   0  0  0  0  0  3  0  0  0  0  0  0
  181.0020  179.0340  140.3010 C   0  0  0  0  0  0  0  0  0  0  0  0
  182.2890  178.9000  139.7220 C   0  0  0  0  0  0  0  0  0  0  0  0
  180.2090  180.1420  139.9860 C   0  0  0  0  0  3  0  0  0  0  0  0
  1  9  1  6  0  0  0
  2  3  1  0  0  0  0
  2  5  1  0  0  0  0
  3  7  1  0  0  0  0
  5 14  1  0  0  0  0
  6  1  1  0  0  0  0
  7  4  1  0  0  0  0
  8 12  1  0  0  0  0
 10 18  1  0  0  0  0
 10 19  1  0  0  0  0
 11 15  1  0  0  0  0
 11  4  1  0  0  0  0
 12 16  1  0  0  0  0
 13  8  1  0  0  0  0
 13  2  1  0  0  0  0
 14  1  1  0  0  0  0
 16  5  1  0  0  0  0
 16 17  1  0  0  0  0
 17  6  1  0  0  0  0
 18 13  1  0  0  0  0
 19 20  1  0  0  0  0
 19  3  1  0  0  0  0
 20 15  1  0  0  0  0
 21  8  1  0  0  0  0
 22 23  2  0  0  0  0
 23 21  1  0  0  0  0
 24 31  1  0  0  0  0
 25 30  2  0  0  0  0
 27 24  1  0  0  0  0
 28 25  1  0  0  0  0
 28 24  2  0  0  0  0
 29 26  1  0  0  0  0
 30 23  1  0  0  0  0
 30 29  1  0  0  0  0
 31 29  2  0  0  0  0
M  END
>  <MODEL>
5

>  <REMARK>
 VINA RESULT:      -7.7      4.836      8.669
  Name = 
  3 active torsions:
  status: ('A' for Active; 'I' for Inactive)
    1  A    between atoms: C_9  and  C_22
    2  A    between atoms: C_9  and  C_23
    3  A    between atoms: C_15  and  C_23
                            x       y       z     vdW  Elec       q    Type
                         _______ _______ _______ _____ _____    ______ ____

>  <TORSDO>
F 3

$$$$
=
 OpenBabel11052413143D

 31 35  0  0  1  0  0  0  0  0999 V2000
  185.2630  178.5100  139.3810 C   0  0  2  0  0  3  0  0  0  0  0  0
  182.6570  178.2180  142.2420 C   0  0  1  0  0  3  0  0  0  0  0  0
  181.3630  178.2620  141.4100 C   0  0  1  0  0  3  0  0  0  0  0  0
  180.2050  176.8440  139.6780 C   0  0  0  0  0  2  0  0  0  0  0  0
  183.8180  178.8180  141.4370 C   0  0  2  0  0  3  0  0  0  0  0  0
  186.5130  178.6240  140.2530 C   0  0  0  0  0  2  0  0  0  0  0  0
  180.9220  176.8580  141.0270 C   0  0  0  0  0  2  0  0  0  0  0  0
  183.8280  179.1180  144.3410 C   0  0  1  0  0  3  0  0  0  0  0  0
  184.9380  179.7510  138.8300 O   0  0  0  0  0  1  0  0  0  0  0  0
  180.3290  179.8270  143.1990 N   0  0  0  0  0  2  0  0  0  0  0  0
  178.9310  177.6850  139.6770 C   0  0  0  0  0  2  0  0  0  0  0  0
  184.8680  179.7030  143.4870 N   0  0  0  0  0  2  0  0  0  0  0  0
  182.4980  178.8790  143.6140 C   0  0  1  0  0  3  0  0  0  0  0  0
  184.0880  177.9630  140.1930 C   0  0  0  0  0  2  0  0  0  0  0  0
  179.2790  179.1650  139.5460 C   0  0  0  0  0  2  0  0  0  0  0  0
  185.0880  178.8840  142.2970 C   0  0  2  0  0  3  0  0  0  0  0  0
  186.2420  179.4730  141.4920 C   0  0  0  0  0  2  0  0  0  0  0  0
  181.7210  180.1660  143.4570 C   0  0  0  0  0  2  0  0  0  0  0  0
  180.1460  179.0470  141.9650 C   0  0  1  0  0  3  0  0  0  0  0  0
  179.4260  179.8710  140.8990 C   0  0  0  0  0  2  0  0  0  0  0  0
  184.3150  177.9440  145.2050 C   0  0  0  0  0  2  0  0  0  0  0  0
  185.1700  178.9770  147.1620 O   0  0  0  0  0  0  0  0  0  0  0  0
  185.4350  178.2900  146.1390 C   0  0  0  0  0  0  0  0  0  0  0  0
  189.4430  177.0270  145.2400 C   0  0  0  0  0  0  0  0  0  0  0  0
  187.1730  177.4920  144.5550 C   0  0  0  0  0  3  0  0  0  0  0  0
  187.5520  178.1640  148.2940 C   0  0  0  0  0  1  0  0  0  0  0  0
  191.0740  176.5340  144.8450 Cl  0  0  0  0  0  0  0  0  0  0  0  0
  188.4720  177.0900  144.2410 C   0  0  0  0  0  3  0  0  0  0  0  0
  187.8160  177.7700  146.8800 C   0  0  0  0  0  0  0  0  0  0  0  0
  186.8230  177.8370  145.8710 C   0  0  0  0  0  0  0  0  0  0  0  0
  189.1160  177.3690  146.5520 C   0  0  0  0  0  3  0  0  0  0  0  0
  1  9  1  1  0  0  0
  1 14  1  0  0  0  0
  1  6  1  0  0  0  0
  2 13  1  0  0  0  0
  3 19  1  0  0  0  0
  3  2  1  0  0  0  0
  4  7  1  0  0  0  0
  5  2  1  0  0  0  0
  5 16  1  0  0  0  0
  6 17  1  0  0  0  0
  7  3  1  0  0  0  0
  8 21  1  0  0  0  0
 10 18  1  0  0  0  0
 11  4  1  0  0  0  0
 12  8  1  0  0  0  0
 13  8  1  0  0  0  0
 14  5  1  0  0  0  0
 15 11  1  0  0  0  0
 15 20  1  0  0  0  0
 16 12  1  0  0  0  0
 17 16  1  0  0  0  0
 18 13  1  0  0  0  0
 19 10  1  0  0  0  0
 20 19  1  0  0  0  0
 21 23  1  0  0  0  0
 23 22  2  0  0  0  0
 24 31  1  0  0  0  0
 25 30  2  0  0  0  0
 27 24  1  0  0  0  0
 28 25  1  0  0  0  0
 28 24  2  0  0  0  0
 29 26  1  0  0  0  0
 30 23  1  0  0  0  0
 30 29  1  0  0  0  0
 31 29  2  0  0  0  0
M  END
>  <MODEL>
6

>  <REMARK>
 VINA RESULT:      -7.7      5.197      7.170
  Name = 
  3 active torsions:
  status: ('A' for Active; 'I' for Inactive)
    1  A    between atoms: C_9  and  C_22
    2  A    between atoms: C_9  and  C_23
    3  A    between atoms: C_15  and  C_23
                            x       y       z     vdW  Elec       q    Type
                         _______ _______ _______ _____ _____    ______ ____

>  <TORSDO>
F 3

$$$$
=
 OpenBabel11052413143D

 31 35  0  0  1  0  0  0  0  0999 V2000
  186.4110  177.8750  147.0060 C   0  0  2  0  0  3  0  0  0  0  0  0
  186.9700  177.5800  143.1760 C   0  0  1  0  0  3  0  0  0  0  0  0
  188.4920  177.3570  143.1600 C   0  0  1  0  0  3  0  0  0  0  0  0
  190.1340  175.6070  143.9330 C   0  0  0  0  0  2  0  0  0  0  0  0
  186.5490  178.2280  144.5020 C   0  0  2  0  0  3  0  0  0  0  0  0
  184.9310  178.2530  146.9690 C   0  0  0  0  0  2  0  0  0  0  0  0
  188.8190  175.8720  143.2020 C   0  0  0  0  0  2  0  0  0  0  0  0
  185.0310  178.8630  142.0920 C   0  0  1  0  0  3  0  0  0  0  0  0
  187.1910  178.9900  147.3180 O   0  0  0  0  0  1  0  0  0  0  0  0
  188.6540  178.9700  141.1380 N   0  0  0  0  0  2  0  0  0  0  0  0
  191.3320  176.2680  143.2550 C   0  0  0  0  0  2  0  0  0  0  0  0
  184.7340  179.4760  143.3920 N   0  0  0  0  0  2  0  0  0  0  0  0
  186.4770  178.3690  141.9600 C   0  0  1  0  0  3  0  0  0  0  0  0
  186.8480  177.2780  145.6680 C   0  0  0  0  0  2  0  0  0  0  0  0
  191.3710  177.7560  143.5930 C   0  0  0  0  0  2  0  0  0  0  0  0
  185.0510  178.5590  144.4850 C   0  0  2  0  0  3  0  0  0  0  0  0
  184.6340  179.1970  145.8060 C   0  0  0  0  0  2  0  0  0  0  0  0
  187.4250  179.5160  141.6970 C   0  0  0  0  0  2  0  0  0  0  0  0
  189.3330  178.0340  142.0480 C   0  0  1  0  0  3  0  0  0  0  0  0
  190.6440  178.6280  142.5630 C   0  0  0  0  0  2  0  0  0  0  0  0
  183.9600  177.8720  141.6090 C   0  0  0  0  0  2  0  0  0  0  0  0
  182.3920  178.9940  140.2270 O   0  0  0  0  0  0  0  0  0  0  0  0
  183.3720  178.2030  140.2700 C   0  0  0  0  0  0  0  0  0  0  0  0
  185.0960  176.5560  136.6960 C   0  0  0  0  0  0  0  0  0  0  0  0
  185.0100  178.2600  138.4060 C   0  0  0  0  0  3  0  0  0  0  0  0
  182.3170  175.6380  139.0680 C   0  0  0  0  0  1  0  0  0  0  0  0
  185.8300  175.8900  135.2540 Cl  0  0  0  0  0  0  0  0  0  0  0  0
  185.5910  177.7350  137.2500 C   0  0  0  0  0  3  0  0  0  0  0  0
  183.4300  176.4180  138.4550 C   0  0  0  0  0  0  0  0  0  0  0  0
  183.9260  177.6160  139.0250 C   0  0  0  0  0  0  0  0  0  0  0  0
  184.0220  175.8990  137.2980 C   0  0  0  0  0  3  0  0  0  0  0  0
  1  9  1  6  0  0  0
  2  5  1  0  0  0  0
  3  2  1  0  0  0  0
  3  7  1  0  0  0  0
  5 14  1  0  0  0  0
  6  1  1  0  0  0  0
  7  4  1  0  0  0  0
  8 12  1  0  0  0  0
 10 18  1  0  0  0  0
 10 19  1  0  0  0  0
 11 15  1  0  0  0  0
 11  4  1  0  0  0  0
 12 16  1  0  0  0  0
 13  8  1  0  0  0  0
 13  2  1  0  0  0  0
 14  1  1  0  0  0  0
 16  5  1  0  0  0  0
 16 17  1  0  0  0  0
 17  6  1  0  0  0  0
 18 13  1  0  0  0  0
 19 20  1  0  0  0  0
 19  3  1  0  0  0  0
 20 15  1  0  0  0  0
 21  8  1  0  0  0  0
 22 23  2  0  0  0  0
 23 21  1  0  0  0  0
 24 28  2  0  0  0  0
 24 31  1  0  0  0  0
 25 30  2  0  0  0  0
 27 24  1  0  0  0  0
 28 25  1  0  0  0  0
 29 30  1  0  0  0  0
 29 26  1  0  0  0  0
 30 23  1  0  0  0  0
 31 29  2  0  0  0  0
M  END
>  <MODEL>
7

>  <REMARK>
 VINA RESULT:      -7.6      4.402      8.565
  Name = 
  3 active torsions:
  status: ('A' for Active; 'I' for Inactive)
    1  A    between atoms: C_9  and  C_22
    2  A    between atoms: C_9  and  C_23
    3  A    between atoms: C_15  and  C_23
                            x       y       z     vdW  Elec       q    Type
                         _______ _______ _______ _____ _____    ______ ____

>  <TORSDO>
F 3

$$$$
=
 OpenBabel11052413143D

 31 35  0  0  1  0  0  0  0  0999 V2000
  186.4000  177.8770  146.9270 C   0  0  2  0  0  3  0  0  0  0  0  0
  186.8980  177.4920  143.0980 C   0  0  1  0  0  3  0  0  0  0  0  0
  188.4260  177.3210  143.0580 C   0  0  1  0  0  3  0  0  0  0  0  0
  190.1420  175.6520  143.8460 C   0  0  0  0  0  2  0  0  0  0  0  0
  186.4790  178.1630  144.4130 C   0  0  2  0  0  3  0  0  0  0  0  0
  184.9070  178.2020  146.9090 C   0  0  0  0  0  2  0  0  0  0  0  0
  188.8050  175.8500  143.1340 C   0  0  0  0  0  2  0  0  0  0  0  0
  184.8950  178.6770  142.0160 C   0  0  1  0  0  3  0  0  0  0  0  0
  187.1470  179.0260  147.1940 O   0  0  0  0  0  1  0  0  0  0  0  0
  188.4940  178.8810  140.9890 N   0  0  0  0  0  2  0  0  0  0  0  0
  191.3030  176.3330  143.1260 C   0  0  0  0  0  2  0  0  0  0  0  0
  184.6010  179.3150  143.3050 N   0  0  0  0  0  2  0  0  0  0  0  0
  186.3550  178.2300  141.8700 C   0  0  1  0  0  3  0  0  0  0  0  0
  186.8330  177.2570  145.5990 C   0  0  0  0  0  2  0  0  0  0  0  0
  191.2970  177.8300  143.4230 C   0  0  0  0  0  2  0  0  0  0  0  0
  184.9700  178.4420  144.4160 C   0  0  2  0  0  3  0  0  0  0  0  0
  184.5570  179.1020  145.7270 C   0  0  0  0  0  2  0  0  0  0  0  0
  187.2570  179.4000  141.5570 C   0  0  0  0  0  2  0  0  0  0  0  0
  189.2220  177.9950  141.9110 C   0  0  1  0  0  3  0  0  0  0  0  0
  190.5210  178.6480  142.3840 C   0  0  0  0  0  2  0  0  0  0  0  0
  183.8510  177.6360  141.5820 C   0  0  0  0  0  2  0  0  0  0  0  0
  183.3020  179.1040  139.8010 O   0  0  0  0  0  0  0  0  0  0  0  0
  183.1770  177.9450  140.2790 C   0  0  0  0  0  0  0  0  0  0  0  0
  180.9860  174.8830  138.2070 C   0  0  0  0  0  0  0  0  0  0  0  0
  183.0430  176.0660  138.6610 C   0  0  0  0  0  3  0  0  0  0  0  0
  180.2200  177.5460  140.7600 C   0  0  0  0  0  1  0  0  0  0  0  0
  180.1200  173.6140  137.3710 Cl  0  0  0  0  0  0  0  0  0  0  0  0
  182.3510  175.0590  137.9860 C   0  0  0  0  0  3  0  0  0  0  0  0
  180.9950  176.7280  139.7840 C   0  0  0  0  0  0  0  0  0  0  0  0
  182.3830  176.9140  139.5650 C   0  0  0  0  0  0  0  0  0  0  0  0
  180.3130  175.7130  139.1040 C   0  0  0  0  0  3  0  0  0  0  0  0
  1  9  1  6  0  0  0
  2  5  1  0  0  0  0
  3  2  1  0  0  0  0
  3  7  1  0  0  0  0
  5 16  1  0  0  0  0
  5 14  1  0  0  0  0
  6  1  1  0  0  0  0
  7  4  1  0  0  0  0
  8 12  1  0  0  0  0
 10 18  1  0  0  0  0
 10 19  1  0  0  0  0
 11 15  1  0  0  0  0
 11  4  1  0  0  0  0
 12 16  1  0  0  0  0
 13  8  1  0  0  0  0
 13  2  1  0  0  0  0
 14  1  1  0  0  0  0
 16 17  1  0  0  0  0
 17  6  1  0  0  0  0
 18 13  1  0  0  0  0
 19 20  1  0  0  0  0
 19  3  1  0  0  0  0
 20 15  1  0  0  0  0
 21  8  1  0  0  0  0
 22 23  2  0  0  0  0
 23 21  1  0  0  0  0
 24 31  1  0  0  0  0
 25 30  2  0  0  0  0
 27 24  1  0  0  0  0
 28 24  2  0  0  0  0
 28 25  1  0  0  0  0
 29 26  1  0  0  0  0
 30 29  1  0  0  0  0
 30 23  1  0  0  0  0
 31 29  2  0  0  0  0
M  END
>  <MODEL>
8

>  <REMARK>
 VINA RESULT:      -7.4      4.753      8.702
  Name = 
  3 active torsions:
  status: ('A' for Active; 'I' for Inactive)
    1  A    between atoms: C_9  and  C_22
    2  A    between atoms: C_9  and  C_23
    3  A    between atoms: C_15  and  C_23
                            x       y       z     vdW  Elec       q    Type
                         _______ _______ _______ _____ _____    ______ ____

>  <TORSDO>
F 3

$$$$
=
 OpenBabel11052413143D

 31 35  0  0  1  0  0  0  0  0999 V2000
  188.3420  176.3370  135.8680 C   0  0  2  0  0  3  0  0  0  0  0  0
  185.0220  176.1900  137.8710 C   0  0  1  0  0  3  0  0  0  0  0  0
  184.3070  175.0710  137.0930 C   0  0  1  0  0  3  0  0  0  0  0  0
  184.6130  172.6080  136.6570 C   0  0  0  0  0  2  0  0  0  0  0  0
  186.1300  176.8060  137.0060 C   0  0  2  0  0  3  0  0  0  0  0  0
  188.9490  177.5550  136.5640 C   0  0  0  0  0  2  0  0  0  0  0  0
  184.6020  173.7130  137.7110 C   0  0  0  0  0  2  0  0  0  0  0  0
  184.7450  178.5130  138.9260 C   0  0  1  0  0  3  0  0  0  0  0  0
  187.8870  176.6800  134.5940 O   0  0  0  0  0  1  0  0  0  0  0  0
  182.1150  176.4470  137.2330 N   0  0  0  0  0  2  0  0  0  0  0  0
  183.2680  172.4500  135.9510 C   0  0  0  0  0  2  0  0  0  0  0  0
  185.7800  179.0260  138.0210 N   0  0  0  0  0  2  0  0  0  0  0  0
  184.0520  177.2450  138.4110 C   0  0  1  0  0  3  0  0  0  0  0  0
  187.2020  175.7520  136.7010 C   0  0  0  0  0  2  0  0  0  0  0  0
  183.0990  173.5400  134.8960 C   0  0  0  0  0  2  0  0  0  0  0  0
  186.7740  177.9970  137.7280 C   0  0  2  0  0  3  0  0  0  0  0  0
  187.8790  178.6020  136.8680 C   0  0  0  0  0  2  0  0  0  0  0  0
  183.0330  177.5720  137.3450 C   0  0  0  0  0  2  0  0  0  0  0  0
  182.7830  175.1980  136.8370 C   0  0  1  0  0  3  0  0  0  0  0  0
  182.3750  174.7840  135.4240 C   0  0  0  0  0  2  0  0  0  0  0  0
  185.1730  178.4660  140.4010 C   0  0  0  0  0  2  0  0  0  0  0  0
  182.8920  178.8660  140.9200 O   0  0  0  0  0  0  0  0  0  0  0  0
  184.0500  178.6620  141.3750 C   0  0  0  0  0  0  0  0  0  0  0  0
  184.8720  178.5740  145.5920 C   0  0  0  0  0  0  0  0  0  0  0  0
  185.5870  178.3320  143.2970 C   0  0  0  0  0  3  0  0  0  0  0  0
  181.8830  179.2480  143.4000 C   0  0  0  0  0  1  0  0  0  0  0  0
  185.2370  178.5570  147.3030 Cl  0  0  0  0  0  0  0  0  0  0  0  0
  185.8770  178.3090  144.6620 C   0  0  0  0  0  3  0  0  0  0  0  0
  183.2760  178.8860  143.7910 C   0  0  0  0  0  0  0  0  0  0  0  0
  184.2900  178.6180  142.8390 C   0  0  0  0  0  0  0  0  0  0  0  0
  183.5790  178.8630  145.1570 C   0  0  0  0  0  3  0  0  0  0  0  0
  1  9  1  6  0  0  0
  1  6  1  0  0  0  0
  1 14  1  0  0  0  0
  2 13  1  0  0  0  0
  3  7  1  0  0  0  0
  3  2  1  0  0  0  0
  4  7  1  0  0  0  0
  5 16  1  0  0  0  0
  5  2  1  0  0  0  0
  6 17  1  0  0  0  0
  8 21  1  0  0  0  0
 10 18  1  0  0  0  0
 11  4  1  0  0  0  0
 12  8  1  0  0  0  0
 13  8  1  0  0  0  0
 14  5  1  0  0  0  0
 15 20  1  0  0  0  0
 15 11  1  0  0  0  0
 16 12  1  0  0  0  0
 17 16  1  0  0  0  0
 18 13  1  0  0  0  0
 19  3  1  0  0  0  0
 19 10  1  0  0  0  0
 20 19  1  0  0  0  0
 21 23  1  0  0  0  0
 22 23  2  0  0  0  0
 23 30  1  0  0  0  0
 24 27  1  0  0  0  0
 25 28  1  0  0  0  0
 26 29  1  0  0  0  0
 28 24  2  0  0  0  0
 29 31  2  0  0  0  0
 30 25  2  0  0  0  0
 30 29  1  0  0  0  0
 31 24  1  0  0  0  0
M  END
>  <MODEL>
9

>  <REMARK>
 VINA RESULT:      -7.3      3.685      5.293
  Name = 
  3 active torsions:
  status: ('A' for Active; 'I' for Inactive)
    1  A    between atoms: C_9  and  C_22
    2  A    between atoms: C_9  and  C_23
    3  A    between atoms: C_15  and  C_23
                            x       y       z     vdW  Elec       q    Type
                         _______ _______ _______ _____ _____    ______ ____

>  <TORSDO>
F 3

$$$$
