=
 OpenBabel11052416533D

 32 36  0  0  1  0  0  0  0  0999 V2000
  191.6260  177.5800  144.0020 C   0  0  1  0  0  3  0  0  0  0  0  0
  188.5530  177.9580  139.8930 C   0  0  0  0  0  0  0  0  0  0  0  0
  190.8900  175.7650  136.2570 C   0  0  0  0  0  3  0  0  0  0  0  0
  189.8070  175.9810  135.4650 N   0  0  0  0  0  0  0  0  0  0  0  0
  189.5600  178.2390  142.0810 C   0  0  0  0  0  0  0  0  0  0  0  0
  190.7910  177.1160  140.3140 C   0  0  0  0  0  3  0  0  0  0  0  0
  191.9280  177.4040  142.5140 C   0  0  0  0  0  2  0  0  0  0  0  0
  190.8860  176.1940  137.5840 C   0  0  0  0  0  3  0  0  0  0  0  0
  189.7140  177.2990  139.4320 C   0  0  0  0  0  0  0  0  0  0  0  0
  189.7580  176.8500  138.1000 C   0  0  0  0  0  0  0  0  0  0  0  0
  187.5070  177.7180  137.7680 C   0  0  0  0  0  0  0  0  0  0  0  0
  190.7470  178.8140  144.2260 C   0  0  0  0  0  2  0  0  0  0  0  0
  190.7170  177.5640  141.6350 C   0  0  0  0  0  0  0  0  0  0  0  0
  189.4040  178.6790  143.5080 C   0  0  0  0  0  2  0  0  0  0  0  0
  188.6980  176.6130  135.9310 C   0  0  0  0  0  3  0  0  0  0  0  0
  188.6420  177.0610  137.2580 C   0  0  0  0  0  0  0  0  0  0  0  0
  188.4810  178.4150  141.2100 C   0  0  0  0  0  3  0  0  0  0  0  0
  187.4970  178.1430  139.0590 N   0  0  0  0  0  0  0  0  0  0  0  0
  191.0050  176.3140  144.5810 C   0  0  0  0  0  2  0  0  0  0  0  0
  191.7690  175.8640  145.8140 C   0  0  0  0  0  2  0  0  0  0  0  0
  191.2430  176.5520  147.0290 C   0  0  0  0  0  0  0  0  0  0  0  0
  189.7790  176.7870  147.1720 C   0  0  0  0  0  1  0  0  0  0  0  0
  192.0080  176.9420  147.8960 O   0  0  0  0  0  0  0  0  0  0  0  0
  186.2910  177.9470  136.9230 C   0  0  0  0  0  2  0  0  0  0  0  0
  184.2510  179.0440  138.8000 C   0  0  0  0  0  0  0  0  0  0  0  0
  184.2330  177.8070  138.3790 C   0  0  0  0  0  0  0  0  0  0  0  0
  184.7450  176.0050  137.3700 C   0  0  0  0  0  0  0  0  0  0  0  0
  183.6220  175.7660  138.1330 C   0  0  0  0  0  3  0  0  0  0  0  0
  183.3000  176.9140  138.7720 N   0  0  0  0  0  0  0  0  0  0  0  0
  184.2710  180.2160  139.2000 O   0  0  0  0  0  0  0  0  0  0  0  0
  185.3540  175.1080  136.6030 C   0  0  0  0  0  2  0  0  0  0  0  0
  185.1290  177.2860  137.5170 N   0  0  0  0  0  0  0  0  0  0  0  0
  1 12  1  0  0  0  0
  1 19  1  6  0  0  0
  2 17  1  0  0  0  0
  3  8  1  0  0  0  0
  4 15  1  0  0  0  0
  4  3  2  0  0  0  0
  5 14  1  0  0  0  0
  6 13  2  0  0  0  0
  7  1  1  0  0  0  0
  8 10  2  0  0  0  0
  9  2  2  0  0  0  0
  9  6  1  0  0  0  0
 10  9  1  0  0  0  0
 11 18  2  0  0  0  0
 13  5  1  0  0  0  0
 13  7  1  0  0  0  0
 14 12  1  0  0  0  0
 15 16  2  0  0  0  0
 16 11  1  0  0  0  0
 16 10  1  0  0  0  0
 17  5  2  0  0  0  0
 18  2  1  0  0  0  0
 19 20  1  0  0  0  0
 20 21  1  0  0  0  0
 21 22  1  0  0  0  0
 21 23  2  0  0  0  0
 24 32  1  0  0  0  0
 24 11  1  0  0  0  0
 25 30  2  0  0  0  0
 26 29  1  0  0  0  0
 26 25  2  0  0  0  0
 27 32  1  0  0  0  0
 27 28  1  0  0  0  0
 28 29  2  0  0  0  0
 31 27  2  0  0  0  0
 32 26  1  0  0  0  0
M  END
>  <MODEL>
1

>  <REMARK>
 VINA RESULT:      -8.5      0.000      0.000
  Name = 
  5 active torsions:
  status: ('A' for Active; 'I' for Inactive)
    1  A    between atoms: C_1  and  C_10
    2  A    between atoms: C_2  and  C_24
    3  A    between atoms: C_10  and  C_24
    4  A    between atoms: C_16  and  C_27
    5  A    between atoms: C_27  and  N_32
                            x       y       z     vdW  Elec       q    Type
                         _______ _______ _______ _____ _____    ______ ____

>  <TORSDO>
F 5

$$$$
=
 OpenBabel11052416533D

 32 36  0  0  1  0  0  0  0  0999 V2000
  191.7230  177.5270  143.8770 C   0  0  1  0  0  3  0  0  0  0  0  0
  188.3500  177.9790  140.0170 C   0  0  0  0  0  0  0  0  0  0  0  0
  190.1200  175.3280  136.3650 C   0  0  0  0  0  3  0  0  0  0  0  0
  188.9990  175.6100  135.6510 N   0  0  0  0  0  0  0  0  0  0  0  0
  189.5720  178.2850  142.0900 C   0  0  0  0  0  0  0  0  0  0  0  0
  190.5200  176.9290  140.3110 C   0  0  0  0  0  3  0  0  0  0  0  0
  191.8710  177.2280  142.3850 C   0  0  0  0  0  2  0  0  0  0  0  0
  190.2780  175.8360  137.6550 C   0  0  0  0  0  3  0  0  0  0  0  0
  189.3940  177.1720  139.5110 C   0  0  0  0  0  0  0  0  0  0  0  0
  189.2730  176.6400  138.2140 C   0  0  0  0  0  0  0  0  0  0  0  0
  187.1020  177.7230  138.0070 C   0  0  0  0  0  0  0  0  0  0  0  0
  190.9970  178.8590  144.0840 C   0  0  0  0  0  2  0  0  0  0  0  0
  190.6100  177.4630  141.6000 C   0  0  0  0  0  0  0  0  0  0  0  0
  189.5890  178.8250  143.4900 C   0  0  0  0  0  2  0  0  0  0  0  0
  188.0060  176.3850  136.1610 C   0  0  0  0  0  3  0  0  0  0  0  0
  188.1140  176.9180  137.4540 C   0  0  0  0  0  0  0  0  0  0  0  0
  188.4430  178.5210  141.3000 C   0  0  0  0  0  3  0  0  0  0  0  0
  187.2490  178.2250  139.2620 N   0  0  0  0  0  0  0  0  0  0  0  0
  191.0300  176.3730  144.5930 C   0  0  0  0  0  2  0  0  0  0  0  0
  191.8150  175.9660  145.8280 C   0  0  0  0  0  2  0  0  0  0  0  0
  191.2570  176.6350  147.0390 C   0  0  0  0  0  0  0  0  0  0  0  0
  189.8000  176.9340  147.1150 C   0  0  0  0  0  1  0  0  0  0  0  0
  191.9920  176.9570  147.9590 O   0  0  0  0  0  0  0  0  0  0  0  0
  185.8450  178.0290  137.2510 C   0  0  0  0  0  2  0  0  0  0  0  0
  184.6390  175.3030  137.1840 C   0  0  0  0  0  0  0  0  0  0  0  0
  184.1490  176.2760  137.9060 C   0  0  0  0  0  0  0  0  0  0  0  0
  183.8660  178.1840  138.8070 C   0  0  0  0  0  0  0  0  0  0  0  0
  182.8590  177.3490  139.2430 C   0  0  0  0  0  3  0  0  0  0  0  0
  183.0430  176.1380  138.6680 N   0  0  0  0  0  0  0  0  0  0  0  0
  185.1020  174.3820  136.4990 O   0  0  0  0  0  0  0  0  0  0  0  0
  184.0120  179.4560  139.1600 C   0  0  0  0  0  2  0  0  0  0  0  0
  184.6810  177.5140  137.9720 N   0  0  0  0  0  0  0  0  0  0  0  0
  1 12  1  0  0  0  0
  1 19  1  1  0  0  0
  2 17  1  0  0  0  0
  3  8  1  0  0  0  0
  4 15  1  0  0  0  0
  4  3  2  0  0  0  0
  5 14  1  0  0  0  0
  6 13  2  0  0  0  0
  7  1  1  0  0  0  0
  8 10  2  0  0  0  0
  9  2  2  0  0  0  0
  9  6  1  0  0  0  0
 10  9  1  0  0  0  0
 11 18  2  0  0  0  0
 13  5  1  0  0  0  0
 13  7  1  0  0  0  0
 14 12  1  0  0  0  0
 15 16  2  0  0  0  0
 16 11  1  0  0  0  0
 16 10  1  0  0  0  0
 17  5  2  0  0  0  0
 18  2  1  0  0  0  0
 19 20  1  0  0  0  0
 20 21  1  0  0  0  0
 21 22  1  0  0  0  0
 21 23  2  0  0  0  0
 24 32  1  0  0  0  0
 24 11  1  0  0  0  0
 25 26  2  0  0  0  0
 26 32  1  0  0  0  0
 26 29  1  0  0  0  0
 27 31  2  0  0  0  0
 27 28  1  0  0  0  0
 29 28  2  0  0  0  0
 30 25  2  0  0  0  0
 32 27  1  0  0  0  0
M  END
>  <MODEL>
2

>  <REMARK>
 VINA RESULT:      -8.2      1.281      1.822
  Name = 
  5 active torsions:
  status: ('A' for Active; 'I' for Inactive)
    1  A    between atoms: C_1  and  C_10
    2  A    between atoms: C_2  and  C_24
    3  A    between atoms: C_10  and  C_24
    4  A    between atoms: C_16  and  C_27
    5  A    between atoms: C_27  and  N_32
                            x       y       z     vdW  Elec       q    Type
                         _______ _______ _______ _____ _____    ______ ____

>  <TORSDO>
F 5

$$$$
=
 OpenBabel11052416533D

 32 36  0  0  1  0  0  0  0  0999 V2000
  180.6600  179.3990  142.1020 C   0  0  1  0  0  3  0  0  0  0  0  0
  185.4410  177.8060  143.1410 C   0  0  0  0  0  0  0  0  0  0  0  0
  186.1880  178.7590  147.8340 C   0  0  0  0  0  3  0  0  0  0  0  0
  187.4040  178.1600  147.7360 N   0  0  0  0  0  0  0  0  0  0  0  0
  183.4010  178.4640  142.0070 C   0  0  0  0  0  0  0  0  0  0  0  0
  183.6940  178.9660  144.3660 C   0  0  0  0  0  3  0  0  0  0  0  0
  181.5860  179.7260  143.2740 C   0  0  0  0  0  2  0  0  0  0  0  0
  185.3530  178.8410  146.7190 C   0  0  0  0  0  3  0  0  0  0  0  0
  184.9620  178.3630  144.3470 C   0  0  0  0  0  0  0  0  0  0  0  0
  185.7730  178.3010  145.4950 C   0  0  0  0  0  0  0  0  0  0  0  0
  187.4690  177.1360  144.1910 C   0  0  0  0  0  0  0  0  0  0  0  0
  181.4340  179.4480  140.7810 C   0  0  0  0  0  2  0  0  0  0  0  0
  182.9050  179.0050  143.2130 C   0  0  0  0  0  0  0  0  0  0  0  0
  182.5650  178.4210  140.7600 C   0  0  0  0  0  2  0  0  0  0  0  0
  187.8420  177.6270  146.5650 C   0  0  0  0  0  3  0  0  0  0  0  0
  187.0410  177.6800  145.4160 C   0  0  0  0  0  0  0  0  0  0  0  0
  184.6580  177.8540  141.9860 C   0  0  0  0  0  3  0  0  0  0  0  0
  186.6630  177.2140  143.1000 N   0  0  0  0  0  0  0  0  0  0  0  0
  179.9680  178.0590  142.3180 C   0  0  0  0  0  2  0  0  0  0  0  0
  179.1230  177.6950  141.1090 C   0  0  0  0  0  2  0  0  0  0  0  0
  179.3440  176.2680  140.7340 C   0  0  0  0  0  0  0  0  0  0  0  0
  180.0490  175.9360  139.4650 C   0  0  0  0  0  1  0  0  0  0  0  0
  178.9310  175.3720  141.4530 O   0  0  0  0  0  0  0  0  0  0  0  0
  188.7940  176.4480  144.0620 C   0  0  0  0  0  2  0  0  0  0  0  0
  189.3610  178.2580  141.7620 C   0  0  0  0  0  0  0  0  0  0  0  0
  190.1030  178.2260  142.8370 C   0  0  0  0  0  0  0  0  0  0  0  0
  190.8620  177.7120  144.7580 C   0  0  0  0  0  0  0  0  0  0  0  0
  191.6880  178.6720  144.2130 C   0  0  0  0  0  3  0  0  0  0  0  0
  191.2010  178.9950  142.9920 N   0  0  0  0  0  2  0  0  0  0  0  0
  188.6590  178.2860  140.7430 O   0  0  0  0  0  0  0  0  0  0  0  0
  191.0260  177.1510  145.9500 C   0  0  0  0  0  1  0  0  0  0  0  0
  189.8630  177.4330  143.9020 N   0  0  0  0  0  0  0  0  0  0  0  0
  1 19  1  1  0  0  0
  1  7  1  0  0  0  0
  2  9  1  0  0  0  0
  4  3  1  0  0  0  0
  5 13  1  0  0  0  0
  8  3  2  0  0  0  0
  9  6  1  0  0  0  0
  9 10  2  0  0  0  0
 10  8  1  0  0  0  0
 11 16  2  0  0  0  0
 12  1  1  0  0  0  0
 13  7  1  0  0  0  0
 13  6  2  0  0  0  0
 14 12  1  0  0  0  0
 14  5  1  0  0  0  0
 15  4  2  0  0  0  0
 16 10  1  0  0  0  0
 16 15  1  0  0  0  0
 17  5  2  0  0  0  0
 17  2  1  0  0  0  0
 18  2  2  0  0  0  0
 18 11  1  0  0  0  0
 20 19  1  0  0  0  0
 21 20  1  0  0  0  0
 21 23  2  0  0  0  0
 22 21  1  0  0  0  0
 24 11  1  0  0  0  0
 25 26  2  0  0  0  0
 26 29  1  0  0  0  0
 26 32  1  0  0  0  0
 27 31  1  0  0  0  0
 28 27  2  0  0  0  0
 29 28  1  0  0  0  0
 30 25  2  0  0  0  0
 32 24  1  0  0  0  0
 32 27  1  0  0  0  0
M  END
>  <MODEL>
3

>  <REMARK>
 VINA RESULT:      -8.2      4.364      9.574
  Name = 
  5 active torsions:
  status: ('A' for Active; 'I' for Inactive)
    1  A    between atoms: C_1  and  C_10
    2  A    between atoms: C_2  and  C_24
    3  A    between atoms: C_10  and  C_24
    4  A    between atoms: C_16  and  C_27
    5  A    between atoms: C_27  and  N_32
                            x       y       z     vdW  Elec       q    Type
                         _______ _______ _______ _____ _____    ______ ____

>  <TORSDO>
F 5

$$$$
=
 OpenBabel11052416533D

 32 36  0  0  1  0  0  0  0  0999 V2000
  191.3550  177.7980  144.3300 C   0  0  1  0  0  3  0  0  0  0  0  0
  189.2580  177.2190  139.6670 C   0  0  0  0  0  0  0  0  0  0  0  0
  192.9020  176.0640  136.6870 C   0  0  0  0  0  3  0  0  0  0  0  0
  191.9990  175.9190  135.6810 N   0  0  0  0  0  0  0  0  0  0  0  0
  189.6340  177.7650  142.0000 C   0  0  0  0  0  0  0  0  0  0  0  0
  191.5110  177.1820  140.5740 C   0  0  0  0  0  3  0  0  0  0  0  0
  192.0000  177.7780  142.9440 C   0  0  0  0  0  2  0  0  0  0  0  0
  192.4770  176.4270  137.9650 C   0  0  0  0  0  3  0  0  0  0  0  0
  190.6430  177.0110  139.4840 C   0  0  0  0  0  0  0  0  0  0  0  0
  191.1120  176.6430  138.2090 C   0  0  0  0  0  0  0  0  0  0  0  0
  188.8210  176.6970  137.3870 C   0  0  0  0  0  0  0  0  0  0  0  0
  190.0830  178.6500  144.3150 C   0  0  0  0  0  2  0  0  0  0  0  0
  191.0170  177.5400  141.8310 C   0  0  0  0  0  0  0  0  0  0  0  0
  189.0460  178.0830  143.3450 C   0  0  0  0  0  2  0  0  0  0  0  0
  190.6700  176.1200  135.8830 C   0  0  0  0  0  3  0  0  0  0  0  0
  190.1910  176.4830  137.1490 C   0  0  0  0  0  0  0  0  0  0  0  0
  188.7640  177.5860  140.9210 C   0  0  0  0  0  3  0  0  0  0  0  0
  188.3990  177.0550  138.6290 N   0  0  0  0  0  0  0  0  0  0  0  0
  191.0970  176.3800  144.8260 C   0  0  0  0  0  2  0  0  0  0  0  0
  191.9350  176.0870  146.0580 C   0  0  0  0  0  2  0  0  0  0  0  0
  191.2970  176.6770  147.2710 C   0  0  0  0  0  0  0  0  0  0  0  0
  189.8120  176.7280  147.3760 C   0  0  0  0  0  1  0  0  0  0  0  0
  191.9850  177.1380  148.1670 O   0  0  0  0  0  0  0  0  0  0  0  0
  187.8030  176.5200  136.3020 C   0  0  0  0  0  2  0  0  0  0  0  0
  187.9100  173.5750  136.7550 C   0  0  0  0  0  0  0  0  0  0  0  0
  186.8210  174.2780  136.9220 C   0  0  0  0  0  0  0  0  0  0  0  0
  185.4590  175.9120  137.0090 C   0  0  0  0  0  0  0  0  0  0  0  0
  184.7760  174.7640  137.3520 C   0  0  0  0  0  3  0  0  0  0  0  0
  185.6460  173.7290  137.2950 N   0  0  0  0  0  0  0  0  0  0  0  0
  188.9420  172.9100  136.5940 O   0  0  0  0  0  0  0  0  0  0  0  0
  184.9310  177.1280  136.9520 C   0  0  0  0  0  2  0  0  0  0  0  0
  186.7440  175.6130  136.7430 N   0  0  0  0  0  0  0  0  0  0  0  0
  1 19  1  6  0  0  0
  2 17  1  0  0  0  0
  3  8  1  0  0  0  0
  4 15  1  0  0  0  0
  4  3  2  0  0  0  0
  5 14  1  0  0  0  0
  6 13  2  0  0  0  0
  7  1  1  0  0  0  0
  8 10  2  0  0  0  0
  9  2  2  0  0  0  0
  9  6  1  0  0  0  0
 10  9  1  0  0  0  0
 11 18  2  0  0  0  0
 12  1  1  0  0  0  0
 13  5  1  0  0  0  0
 13  7  1  0  0  0  0
 14 12  1  0  0  0  0
 15 16  2  0  0  0  0
 16 11  1  0  0  0  0
 16 10  1  0  0  0  0
 17  5  2  0  0  0  0
 18  2  1  0  0  0  0
 19 20  1  0  0  0  0
 20 21  1  0  0  0  0
 21 22  1  0  0  0  0
 21 23  2  0  0  0  0
 24 32  1  0  0  0  0
 24 11  1  0  0  0  0
 25 26  2  0  0  0  0
 26 29  1  0  0  0  0
 27 28  1  0  0  0  0
 29 28  2  0  0  0  0
 30 25  2  0  0  0  0
 31 27  2  0  0  0  0
 32 26  1  0  0  0  0
 32 27  1  0  0  0  0
M  END
>  <MODEL>
4

>  <REMARK>
 VINA RESULT:      -8.1      2.103      2.615
  Name = 
  5 active torsions:
  status: ('A' for Active; 'I' for Inactive)
    1  A    between atoms: C_1  and  C_10
    2  A    between atoms: C_2  and  C_24
    3  A    between atoms: C_10  and  C_24
    4  A    between atoms: C_16  and  C_27
    5  A    between atoms: C_27  and  N_32
                            x       y       z     vdW  Elec       q    Type
                         _______ _______ _______ _____ _____    ______ ____

>  <TORSDO>
F 5

$$$$
=
 OpenBabel11052416533D

 32 36  0  0  1  0  0  0  0  0999 V2000
  191.2440  177.8060  144.2650 C   0  0  1  0  0  3  0  0  0  0  0  0
  189.2340  177.1270  139.5780 C   0  0  0  0  0  0  0  0  0  0  0  0
  192.9460  176.0100  136.6690 C   0  0  0  0  0  3  0  0  0  0  0  0
  192.0620  175.8340  135.6510 N   0  0  0  0  0  0  0  0  0  0  0  0
  189.5610  177.7090  141.9090 C   0  0  0  0  0  0  0  0  0  0  0  0
  191.4720  177.1470  140.5190 C   0  0  0  0  0  3  0  0  0  0  0  0
  191.9120  177.7820  142.8900 C   0  0  0  0  0  2  0  0  0  0  0  0
  192.4940  176.3800  137.9360 C   0  0  0  0  0  3  0  0  0  0  0  0
  190.6250  176.9450  139.4180 C   0  0  0  0  0  0  0  0  0  0  0  0
  191.1220  176.5710  138.1560 C   0  0  0  0  0  0  0  0  0  0  0  0
  188.8430  176.5690  137.2970 C   0  0  0  0  0  0  0  0  0  0  0  0
  189.9550  178.6310  144.2190 C   0  0  0  0  0  2  0  0  0  0  0  0
  190.9510  177.5100  141.7640 C   0  0  0  0  0  0  0  0  0  0  0  0
  188.9450  178.0320  143.2400 C   0  0  0  0  0  2  0  0  0  0  0  0
  190.7270  176.0100  135.8300 C   0  0  0  0  0  3  0  0  0  0  0  0
  190.2200  176.3800  137.0840 C   0  0  0  0  0  0  0  0  0  0  0  0
  188.7130  177.4990  140.8190 C   0  0  0  0  0  3  0  0  0  0  0  0
  188.3940  176.9340  138.5280 N   0  0  0  0  0  0  0  0  0  0  0  0
  191.0070  176.3890  144.7750 C   0  0  0  0  0  2  0  0  0  0  0  0
  191.8930  176.0990  145.9740 C   0  0  0  0  0  2  0  0  0  0  0  0
  191.2900  176.6710  147.2130 C   0  0  0  0  0  0  0  0  0  0  0  0
  189.8090  176.7430  147.3500 C   0  0  0  0  0  1  0  0  0  0  0  0
  192.0050  177.0970  148.1060 O   0  0  0  0  0  0  0  0  0  0  0  0
  187.8460  176.3580  136.1990 C   0  0  0  0  0  2  0  0  0  0  0  0
  185.0400  176.6720  137.1590 C   0  0  0  0  0  0  0  0  0  0  0  0
  185.6180  175.5070  137.0310 C   0  0  0  0  0  0  0  0  0  0  0  0
  187.0630  173.9980  136.6220 C   0  0  0  0  0  0  0  0  0  0  0  0
  185.9180  173.3830  137.0820 C   0  0  0  0  0  3  0  0  0  0  0  0
  185.0030  174.3460  137.3400 N   0  0  0  0  0  0  0  0  0  0  0  0
  184.4940  177.7760  137.2810 O   0  0  0  0  0  0  0  0  0  0  0  0
  188.1780  173.3700  136.2670 C   0  0  0  0  0  2  0  0  0  0  0  0
  186.8790  175.3300  136.5830 N   0  0  0  0  0  0  0  0  0  0  0  0
  1 19  1  6  0  0  0
  2 17  1  0  0  0  0
  3  8  1  0  0  0  0
  4 15  1  0  0  0  0
  4  3  2  0  0  0  0
  5 14  1  0  0  0  0
  6 13  2  0  0  0  0
  7  1  1  0  0  0  0
  8 10  2  0  0  0  0
  9  2  2  0  0  0  0
  9  6  1  0  0  0  0
 10  9  1  0  0  0  0
 11 18  2  0  0  0  0
 12  1  1  0  0  0  0
 13  5  1  0  0  0  0
 13  7  1  0  0  0  0
 14 12  1  0  0  0  0
 15 16  2  0  0  0  0
 16 11  1  0  0  0  0
 16 10  1  0  0  0  0
 17  5  2  0  0  0  0
 18  2  1  0  0  0  0
 19 20  1  0  0  0  0
 20 21  1  0  0  0  0
 21 22  1  0  0  0  0
 21 23  2  0  0  0  0
 24 32  1  0  0  0  0
 24 11  1  0  0  0  0
 25 30  2  0  0  0  0
 26 25  2  0  0  0  0
 26 29  1  0  0  0  0
 27 28  1  0  0  0  0
 28 29  2  0  0  0  0
 31 27  2  0  0  0  0
 32 27  1  0  0  0  0
 32 26  1  0  0  0  0
M  END
>  <MODEL>
5

>  <REMARK>
 VINA RESULT:      -8.0      1.472      1.933
  Name = 
  5 active torsions:
  status: ('A' for Active; 'I' for Inactive)
    1  A    between atoms: C_1  and  C_10
    2  A    between atoms: C_2  and  C_24
    3  A    between atoms: C_10  and  C_24
    4  A    between atoms: C_16  and  C_27
    5  A    between atoms: C_27  and  N_32
                            x       y       z     vdW  Elec       q    Type
                         _______ _______ _______ _____ _____    ______ ____

>  <TORSDO>
F 5

$$$$
=
 OpenBabel11052416533D

 32 36  0  0  1  0  0  0  0  0999 V2000
  182.9770  178.2800  140.4380 C   0  0  1  0  0  3  0  0  0  0  0  0
  187.5110  178.3590  142.8690 C   0  0  0  0  0  0  0  0  0  0  0  0
  186.5360  177.6280  147.5600 C   0  0  0  0  0  3  0  0  0  0  0  0
  187.8720  177.6250  147.8110 N   0  0  0  0  0  0  0  0  0  0  0  0
  185.7530  178.5740  141.2120 C   0  0  0  0  0  0  0  0  0  0  0  0
  185.1830  178.1940  143.5420 C   0  0  0  0  0  3  0  0  0  0  0  0
  183.3080  178.4530  141.9200 C   0  0  0  0  0  2  0  0  0  0  0  0
  186.0660  177.8100  146.2590 C   0  0  0  0  0  3  0  0  0  0  0  0
  186.5450  178.1780  143.8830 C   0  0  0  0  0  0  0  0  0  0  0  0
  186.9780  177.9900  145.2090 C   0  0  0  0  0  0  0  0  0  0  0  0
  189.2840  178.1610  144.4440 C   0  0  0  0  0  0  0  0  0  0  0  0
  183.9190  179.1270  139.5770 C   0  0  0  0  0  2  0  0  0  0  0  0
  184.7810  178.3730  142.2160 C   0  0  0  0  0  0  0  0  0  0  0  0
  185.3760  178.7020  139.7640 C   0  0  0  0  0  2  0  0  0  0  0  0
  188.7830  177.7970  146.8170 C   0  0  0  0  0  3  0  0  0  0  0  0
  188.3630  177.9810  145.4920 C   0  0  0  0  0  0  0  0  0  0  0  0
  187.1100  178.5470  141.5450 C   0  0  0  0  0  3  0  0  0  0  0  0
  188.8340  178.3420  143.1740 N   0  0  0  0  0  0  0  0  0  0  0  0
  183.0020  176.8070  140.0470 C   0  0  0  0  0  2  0  0  0  0  0  0
  182.5420  176.6300  138.6100 C   0  0  0  0  0  2  0  0  0  0  0  0
  183.5380  175.8270  137.8430 C   0  0  0  0  0  0  0  0  0  0  0  0
  184.5080  176.5130  136.9450 C   0  0  0  0  0  1  0  0  0  0  0  0
  183.5480  174.6100  137.9320 O   0  0  0  0  0  0  0  0  0  0  0  0
  190.7620  178.1370  144.6900 C   0  0  0  0  0  2  0  0  0  0  0  0
  191.8900  176.5450  146.9430 C   0  0  0  0  0  0  0  0  0  0  0  0
  191.7760  176.0720  145.7300 C   0  0  0  0  0  0  0  0  0  0  0  0
  191.3390  175.9120  143.6530 C   0  0  0  0  0  0  0  0  0  0  0  0
  191.9010  174.7230  144.0670 C   0  0  0  0  0  3  0  0  0  0  0  0
  192.1770  174.8300  145.3880 N   0  0  0  0  0  0  0  0  0  0  0  0
  191.9990  176.9940  148.0920 O   0  0  0  0  0  0  0  0  0  0  0  0
  190.9400  176.1790  142.4150 C   0  0  0  0  0  2  0  0  0  0  0  0
  191.2540  176.7600  144.6940 N   0  0  0  0  0  0  0  0  0  0  0  0
  1 19  1  6  0  0  0
  1  7  1  0  0  0  0
  2 18  2  0  0  0  0
  2  9  1  0  0  0  0
  3  4  1  0  0  0  0
  5 17  2  0  0  0  0
  5 13  1  0  0  0  0
  6  9  1  0  0  0  0
  7 13  1  0  0  0  0
  8  3  2  0  0  0  0
  9 10  2  0  0  0  0
 10 16  1  0  0  0  0
 10  8  1  0  0  0  0
 11 24  1  0  0  0  0
 11 16  2  0  0  0  0
 12 14  1  0  0  0  0
 12  1  1  0  0  0  0
 13  6  2  0  0  0  0
 14  5  1  0  0  0  0
 15  4  2  0  0  0  0
 16 15  1  0  0  0  0
 17  2  1  0  0  0  0
 18 11  1  0  0  0  0
 20 19  1  0  0  0  0
 21 23  2  0  0  0  0
 21 20  1  0  0  0  0
 22 21  1  0  0  0  0
 24 32  1  0  0  0  0
 25 30  2  0  0  0  0
 26 25  2  0  0  0  0
 27 28  1  0  0  0  0
 27 32  1  0  0  0  0
 28 29  2  0  0  0  0
 29 26  1  0  0  0  0
 31 27  2  0  0  0  0
 32 26  1  0  0  0  0
M  END
>  <MODEL>
6

>  <REMARK>
 VINA RESULT:      -7.7      3.529      9.261
  Name = 
  5 active torsions:
  status: ('A' for Active; 'I' for Inactive)
    1  A    between atoms: C_1  and  C_10
    2  A    between atoms: C_2  and  C_24
    3  A    between atoms: C_10  and  C_24
    4  A    between atoms: C_16  and  C_27
    5  A    between atoms: C_27  and  N_32
                            x       y       z     vdW  Elec       q    Type
                         _______ _______ _______ _____ _____    ______ ____

>  <TORSDO>
F 5

$$$$
=
 OpenBabel11052416533D

 32 36  0  0  1  0  0  0  0  0999 V2000
  183.0310  178.3030  140.3990 C   0  0  1  0  0  3  0  0  0  0  0  0
  187.5640  178.3760  142.8330 C   0  0  0  0  0  0  0  0  0  0  0  0
  186.5900  177.6000  147.5170 C   0  0  0  0  0  3  0  0  0  0  0  0
  187.9260  177.6000  147.7680 N   0  0  0  0  0  0  0  0  0  0  0  0
  185.8060  178.6000  141.1770 C   0  0  0  0  0  0  0  0  0  0  0  0
  185.2370  178.1970  143.5040 C   0  0  0  0  0  3  0  0  0  0  0  0
  183.3620  178.4640  141.8830 C   0  0  0  0  0  2  0  0  0  0  0  0
  186.1200  177.7920  146.2170 C   0  0  0  0  0  3  0  0  0  0  0  0
  186.5990  178.1820  143.8450 C   0  0  0  0  0  0  0  0  0  0  0  0
  187.0320  177.9850  145.1690 C   0  0  0  0  0  0  0  0  0  0  0  0
  189.3370  178.1700  144.4070 C   0  0  0  0  0  0  0  0  0  0  0  0
  183.9710  179.1610  139.5470 C   0  0  0  0  0  2  0  0  0  0  0  0
  184.8350  178.3870  142.1790 C   0  0  0  0  0  0  0  0  0  0  0  0
  185.4290  178.7390  139.7300 C   0  0  0  0  0  2  0  0  0  0  0  0
  188.8370  177.7840  146.7760 C   0  0  0  0  0  3  0  0  0  0  0  0
  188.4170  177.9780  145.4530 C   0  0  0  0  0  0  0  0  0  0  0  0
  187.1630  178.5750  141.5100 C   0  0  0  0  0  3  0  0  0  0  0  0
  188.8870  178.3620  143.1380 N   0  0  0  0  0  0  0  0  0  0  0  0
  183.0620  176.8340  139.9950 C   0  0  0  0  0  2  0  0  0  0  0  0
  182.5780  176.6650  138.5660 C   0  0  0  0  0  2  0  0  0  0  0  0
  181.2210  176.0440  138.5490 C   0  0  0  0  0  0  0  0  0  0  0  0
  180.6940  175.3830  139.7750 C   0  0  0  0  0  1  0  0  0  0  0  0
  180.5490  176.0580  137.5300 O   0  0  0  0  0  0  0  0  0  0  0  0
  190.8150  178.1500  144.6520 C   0  0  0  0  0  2  0  0  0  0  0  0
  191.0460  176.3070  142.3200 C   0  0  0  0  0  0  0  0  0  0  0  0
  191.3940  175.9620  143.5320 C   0  0  0  0  0  0  0  0  0  0  0  0
  191.7590  176.0250  145.6280 C   0  0  0  0  0  0  0  0  0  0  0  0
  192.1030  174.7710  145.1680 C   0  0  0  0  0  3  0  0  0  0  0  0
  191.8690  174.7360  143.8360 N   0  0  0  0  0  2  0  0  0  0  0  0
  190.7150  176.6340  141.1720 O   0  0  0  0  0  0  0  0  0  0  0  0
  191.8520  176.4290  146.8890 C   0  0  0  0  0  1  0  0  0  0  0  0
  191.3190  176.7780  144.6040 N   0  0  0  0  0  0  0  0  0  0  0  0
  1 19  1  6  0  0  0
  1  7  1  0  0  0  0
  2 18  2  0  0  0  0
  2  9  1  0  0  0  0
  3  4  1  0  0  0  0
  5 17  2  0  0  0  0
  5 13  1  0  0  0  0
  6  9  1  0  0  0  0
  7 13  1  0  0  0  0
  8  3  2  0  0  0  0
  9 10  2  0  0  0  0
 10 16  1  0  0  0  0
 10  8  1  0  0  0  0
 11 24  1  0  0  0  0
 11 16  2  0  0  0  0
 12 14  1  0  0  0  0
 12  1  1  0  0  0  0
 13  6  2  0  0  0  0
 14  5  1  0  0  0  0
 15  4  2  0  0  0  0
 16 15  1  0  0  0  0
 17  2  1  0  0  0  0
 18 11  1  0  0  0  0
 20 19  1  0  0  0  0
 21 20  1  0  0  0  0
 21 22  1  0  0  0  0
 23 21  2  0  0  0  0
 25 26  2  0  0  0  0
 26 29  1  0  0  0  0
 26 32  1  0  0  0  0
 27 31  1  0  0  0  0
 28 27  2  0  0  0  0
 29 28  1  0  0  0  0
 30 25  2  0  0  0  0
 32 24  1  0  0  0  0
 32 27  1  0  0  0  0
M  END
>  <MODEL>
7

>  <REMARK>
 VINA RESULT:      -7.3      3.856      9.277
  Name = 
  5 active torsions:
  status: ('A' for Active; 'I' for Inactive)
    1  A    between atoms: C_1  and  C_10
    2  A    between atoms: C_2  and  C_24
    3  A    between atoms: C_10  and  C_24
    4  A    between atoms: C_16  and  C_27
    5  A    between atoms: C_27  and  N_32
                            x       y       z     vdW  Elec       q    Type
                         _______ _______ _______ _____ _____    ______ ____

>  <TORSDO>
F 5

$$$$
=
 OpenBabel11052416533D

 32 36  0  0  1  0  0  0  0  0999 V2000
  185.0330  179.3780  144.2830 C   0  0  1  0  0  3  0  0  0  0  0  0
  182.9440  177.8580  139.8330 C   0  0  0  0  0  0  0  0  0  0  0  0
  186.5390  177.8770  136.5820 C   0  0  0  0  0  3  0  0  0  0  0  0
  185.6750  177.3750  135.6620 N   0  0  0  0  0  0  0  0  0  0  0  0
  183.2700  178.6260  142.1110 C   0  0  0  0  0  0  0  0  0  0  0  0
  185.1260  178.6530  140.5440 C   0  0  0  0  0  3  0  0  0  0  0  0
  185.5440  179.5080  142.8480 C   0  0  0  0  0  2  0  0  0  0  0  0
  186.1060  178.1400  137.8830 C   0  0  0  0  0  3  0  0  0  0  0  0
  184.2970  178.1330  139.5370 C   0  0  0  0  0  0  0  0  0  0  0  0
  184.7740  177.8820  138.2370 C   0  0  0  0  0  0  0  0  0  0  0  0
  182.5550  177.0960  137.6130 C   0  0  0  0  0  0  0  0  0  0  0  0
  183.5460  179.7340  144.3550 C   0  0  0  0  0  2  0  0  0  0  0  0
  184.6290  178.8840  141.8300 C   0  0  0  0  0  0  0  0  0  0  0  0
  182.7050  178.7930  143.4920 C   0  0  0  0  0  2  0  0  0  0  0  0
  184.3770  177.1140  135.9710 C   0  0  0  0  0  3  0  0  0  0  0  0
  183.8930  177.3570  137.2650 C   0  0  0  0  0  0  0  0  0  0  0  0
  182.4440  178.0980  141.1140 C   0  0  0  0  0  3  0  0  0  0  0  0
  182.1250  177.3520  138.8760 N   0  0  0  0  0  0  0  0  0  0  0  0
  185.3230  177.9870  144.8360 C   0  0  0  0  0  2  0  0  0  0  0  0
  186.4600  178.0400  145.8410 C   0  0  0  0  0  2  0  0  0  0  0  0
  187.7160  177.5170  145.2280 C   0  0  0  0  0  0  0  0  0  0  0  0
  187.6550  176.7550  143.9500 C   0  0  0  0  0  1  0  0  0  0  0  0
  188.7910  177.6940  145.7800 O   0  0  0  0  0  0  0  0  0  0  0  0
  181.5880  176.5190  136.6240 C   0  0  0  0  0  2  0  0  0  0  0  0
  182.7870  173.7890  136.5770 C   0  0  0  0  0  0  0  0  0  0  0  0
  181.6030  174.0340  137.0730 C   0  0  0  0  0  0  0  0  0  0  0  0
  179.8390  175.0510  137.6940 C   0  0  0  0  0  0  0  0  0  0  0  0
  179.6880  173.7110  137.9860 C   0  0  0  0  0  3  0  0  0  0  0  0
  180.8120  173.0700  137.5890 N   0  0  0  0  0  0  0  0  0  0  0  0
  183.9080  173.5580  136.1040 O   0  0  0  0  0  0  0  0  0  0  0  0
  178.9360  175.9930  137.9390 C   0  0  0  0  0  2  0  0  0  0  0  0
  181.0410  175.2590  137.1260 N   0  0  0  0  0  0  0  0  0  0  0  0
  1 12  1  0  0  0  0
  1 19  1  6  0  0  0
  2 17  1  0  0  0  0
  3  8  1  0  0  0  0
  4 15  1  0  0  0  0
  4  3  2  0  0  0  0
  5 14  1  0  0  0  0
  6 13  2  0  0  0  0
  7  1  1  0  0  0  0
  8 10  2  0  0  0  0
  9  2  2  0  0  0  0
  9  6  1  0  0  0  0
 10  9  1  0  0  0  0
 11 18  2  0  0  0  0
 13  5  1  0  0  0  0
 13  7  1  0  0  0  0
 14 12  1  0  0  0  0
 15 16  2  0  0  0  0
 16 11  1  0  0  0  0
 16 10  1  0  0  0  0
 17  5  2  0  0  0  0
 18  2  1  0  0  0  0
 19 20  1  0  0  0  0
 21 23  2  0  0  0  0
 21 20  1  0  0  0  0
 22 21  1  0  0  0  0
 24 32  1  0  0  0  0
 24 11  1  0  0  0  0
 25 26  2  0  0  0  0
 26 32  1  0  0  0  0
 26 29  1  0  0  0  0
 27 31  2  0  0  0  0
 27 28  1  0  0  0  0
 29 28  2  0  0  0  0
 30 25  2  0  0  0  0
 32 27  1  0  0  0  0
M  END
>  <MODEL>
8

>  <REMARK>
 VINA RESULT:      -7.1      3.510      5.519
  Name = 
  5 active torsions:
  status: ('A' for Active; 'I' for Inactive)
    1  A    between atoms: C_1  and  C_10
    2  A    between atoms: C_2  and  C_24
    3  A    between atoms: C_10  and  C_24
    4  A    between atoms: C_16  and  C_27
    5  A    between atoms: C_27  and  N_32
                            x       y       z     vdW  Elec       q    Type
                         _______ _______ _______ _____ _____    ______ ____

>  <TORSDO>
F 5

$$$$
=
 OpenBabel11052416533D

 32 36  0  0  1  0  0  0  0  0999 V2000
  189.7160  176.8360  143.9520 C   0  0  1  0  0  3  0  0  0  0  0  0
  185.9170  178.5700  140.9470 C   0  0  0  0  0  0  0  0  0  0  0  0
  181.9550  178.7170  143.7340 C   0  0  0  0  0  3  0  0  0  0  0  0
  181.2730  179.2630  142.6930 N   0  0  0  0  0  0  0  0  0  0  0  0
  188.0260  177.6920  141.7600 C   0  0  0  0  0  0  0  0  0  0  0  0
  186.0880  177.7450  143.2240 C   0  0  0  0  0  3  0  0  0  0  0  0
  188.1990  176.7780  144.1320 C   0  0  0  0  0  2  0  0  0  0  0  0
  183.3040  178.3900  143.5970 C   0  0  0  0  0  3  0  0  0  0  0  0
  185.3160  178.3120  142.1980 C   0  0  0  0  0  0  0  0  0  0  0  0
  183.9570  178.6280  142.3780 C   0  0  0  0  0  0  0  0  0  0  0  0
  183.8770  179.4410  140.0840 C   0  0  0  0  0  0  0  0  0  0  0  0
  190.0970  176.4750  142.5140 C   0  0  0  0  0  2  0  0  0  0  0  0
  187.4390  177.4500  143.0210 C   0  0  0  0  0  0  0  0  0  0  0  0
  189.4880  177.4570  141.5130 C   0  0  0  0  0  2  0  0  0  0  0  0
  181.8740  179.5070  141.4990 C   0  0  0  0  0  3  0  0  0  0  0  0
  183.2290  179.1990  141.3090 C   0  0  0  0  0  0  0  0  0  0  0  0
  187.2640  178.2670  140.7390 C   0  0  0  0  0  3  0  0  0  0  0  0
  185.1900  179.1220  139.9410 N   0  0  0  0  0  0  0  0  0  0  0  0
  190.2580  178.1990  144.3700 C   0  0  0  0  0  2  0  0  0  0  0  0
  191.5170  178.0380  145.2040 C   0  0  0  0  0  2  0  0  0  0  0  0
  191.3300  176.9610  146.2200 C   0  0  0  0  0  0  0  0  0  0  0  0
  190.2750  177.1010  147.2620 C   0  0  0  0  0  1  0  0  0  0  0  0
  192.0510  175.9760  146.2140 O   0  0  0  0  0  0  0  0  0  0  0  0
  183.1550  180.0640  138.9280 C   0  0  0  0  0  2  0  0  0  0  0  0
  180.2110  179.8380  138.5200 C   0  0  0  0  0  0  0  0  0  0  0  0
  181.0600  178.9670  138.0440 C   0  0  0  0  0  0  0  0  0  0  0  0
  182.8740  177.9590  137.5680 C   0  0  0  0  0  0  0  0  0  0  0  0
  181.8280  177.2340  137.0380 C   0  0  0  0  0  3  0  0  0  0  0  0
  180.6780  177.8780  137.3430 N   0  0  0  0  0  2  0  0  0  0  0  0
  179.4060  180.6630  138.9730 O   0  0  0  0  0  0  0  0  0  0  0  0
  184.1570  177.6330  137.4710 C   0  0  0  0  0  1  0  0  0  0  0  0
  182.3980  179.0500  138.1960 N   0  0  0  0  0  0  0  0  0  0  0  0
  1  7  1  0  0  0  0
  1 19  1  6  0  0  0
  2  9  1  0  0  0  0
  4  3  2  0  0  0  0
  5 13  2  0  0  0  0
  8  3  1  0  0  0  0
  9 10  1  0  0  0  0
  9  6  2  0  0  0  0
 10  8  2  0  0  0  0
 11 16  1  0  0  0  0
 12  1  1  0  0  0  0
 13  6  1  0  0  0  0
 13  7  1  0  0  0  0
 14  5  1  0  0  0  0
 14 12  1  0  0  0  0
 15  4  1  0  0  0  0
 16 15  2  0  0  0  0
 16 10  1  0  0  0  0
 17  2  2  0  0  0  0
 17  5  1  0  0  0  0
 18 11  2  0  0  0  0
 18  2  1  0  0  0  0
 19 20  1  0  0  0  0
 20 21  1  0  0  0  0
 21 22  1  0  0  0  0
 23 21  2  0  0  0  0
 24 11  1  0  0  0  0
 25 30  2  0  0  0  0
 26 32  1  0  0  0  0
 26 25  2  0  0  0  0
 27 32  1  0  0  0  0
 28 29  1  0  0  0  0
 28 27  2  0  0  0  0
 29 26  1  0  0  0  0
 31 27  1  0  0  0  0
 32 24  1  0  0  0  0
M  END
>  <MODEL>
9

>  <REMARK>
 VINA RESULT:      -7.0      2.870      5.145
  Name = 
  5 active torsions:
  status: ('A' for Active; 'I' for Inactive)
    1  A    between atoms: C_1  and  C_10
    2  A    between atoms: C_2  and  C_24
    3  A    between atoms: C_10  and  C_24
    4  A    between atoms: C_16  and  C_27
    5  A    between atoms: C_27  and  N_32
                            x       y       z     vdW  Elec       q    Type
                         _______ _______ _______ _____ _____    ______ ____

>  <TORSDO>
F 5

$$$$
