=
 OpenBabel11052413433D

 27 31  0  0  1  0  0  0  0  0999 V2000
  187.0670  178.2080  146.2930 N   0  0  0  0  0  0  0  0  0  0  0  0
  187.9590  177.5820  144.1760 N   0  0  0  0  0  2  0  0  0  0  0  0
  183.2280  178.8400  144.7030 C   0  0  0  0  0  3  0  0  0  0  0  0
  181.6890  179.0310  142.7400 C   0  0  0  0  0  1  0  0  0  0  0  0
  186.0640  178.7830  147.1980 C   0  0  0  0  0  2  0  0  0  0  0  0
  185.4080  178.3830  143.0050 C   0  0  0  0  0  3  0  0  0  0  0  0
  184.1330  178.5970  142.4680 C   0  0  0  0  0  3  0  0  0  0  0  0
  186.9040  178.0930  145.0040 C   0  0  0  0  0  0  0  0  0  0  0  0
  183.0420  178.8180  143.3160 C   0  0  0  0  0  0  0  0  0  0  0  0
  184.5060  178.6480  145.2390 C   0  0  0  0  0  0  0  0  0  0  0  0
  189.4630  176.9640  145.8650 O   0  0  0  0  0  0  0  0  0  0  0  0
  185.5970  178.4090  144.3940 C   0  0  0  0  0  0  0  0  0  0  0  0
  184.7120  178.6480  146.6530 N   0  0  0  0  0  2  0  0  0  0  0  0
  189.2180  177.0660  144.6310 C   0  0  0  0  0  0  0  0  0  0  0  0
  190.1510  175.1920  143.2200 C   0  0  0  0  0  1  0  0  0  0  0  0
  190.2730  176.6560  143.6430 C   0  0  1  0  0  3  0  0  0  0  0  0
  191.6200  178.1490  142.3230 O   0  0  0  0  0  1  0  0  0  0  0  0
  190.3350  177.6110  142.4400 C   0  0  1  0  0  3  0  0  0  0  0  0
  190.8400  177.4260  140.0060 C   0  0  0  0  0  2  0  0  0  0  0  0
  189.4560  178.0350  140.1520 C   0  0  2  0  0  3  0  0  0  0  0  0
  189.9240  176.9500  141.1230 C   0  0  2  0  0  3  0  0  0  0  0  0
  187.4340  179.2590  136.8440 O   0  0  0  0  0  0  0  0  0  0  0  0
  188.5590  177.5300  139.0110 C   0  0  2  0  0  3  0  0  0  0  0  0
  189.1950  177.8660  137.6800 C   0  0  0  0  0  2  0  0  0  0  0  0
  188.0510  178.0000  136.6870 C   0  0  1  0  0  3  0  0  0  0  0  0
  186.7960  178.1680  137.4660 C   0  0  1  0  0  3  0  0  0  0  0  0
  187.1650  178.1360  138.9410 C   0  0  0  0  0  2  0  0  0  0  0  0
  1  5  1  0  0  0  0
  2 14  1  0  0  0  0
  2  8  1  0  0  0  0
  3 10  1  0  0  0  0
  4  9  1  0  0  0  0
  6 12  1  0  0  0  0
  7  6  2  0  0  0  0
  7  9  1  0  0  0  0
  8  1  2  0  0  0  0
  9  3  2  0  0  0  0
 10 13  1  0  0  0  0
 12  8  1  0  0  0  0
 12 10  2  0  0  0  0
 13  5  1  0  0  0  0
 14 11  2  0  0  0  0
 16 15  1  6  0  0  0
 16 14  1  0  0  0  0
 18 17  1  6  0  0  0
 18 16  1  0  0  0  0
 19 21  1  0  0  0  0
 20 19  1  6  0  0  0
 20 21  1  0  0  0  0
 21 18  1  1  0  0  0
 22 26  1  0  0  0  0
 23 24  1  6  0  0  0
 23 20  1  0  0  0  0
 25 22  1  0  0  0  0
 25 26  1  0  0  0  0
 25 24  1  1  0  0  0
 26 27  1  1  0  0  0
 27 23  1  0  0  0  0
M  END
>  <MODEL>
1

>  <REMARK>
 VINA RESULT:      -9.1      0.000      0.000
  Name = 
  4 active torsions:
  status: ('A' for Active; 'I' for Inactive)
    1  A    between atoms: C_9  and  C_15
    2  A    between atoms: C_20  and  C_22
    3  A    between atoms: C_20  and  C_26
    4  A    between atoms: C_22  and  C_24
                            x       y       z     vdW  Elec       q    Type
                         _______ _______ _______ _____ _____    ______ ____

>  <TORSDO>
F 4

$$$$
=
 OpenBabel11052413433D

 27 31  0  0  1  0  0  0  0  0999 V2000
  189.9260  177.0060  139.6710 N   0  0  0  0  0  0  0  0  0  0  0  0
  189.7810  177.8100  141.9080 N   0  0  0  0  0  2  0  0  0  0  0  0
  186.0950  178.4400  138.7050 C   0  0  0  0  0  3  0  0  0  0  0  0
  183.9120  179.4530  139.3900 C   0  0  0  0  0  1  0  0  0  0  0  0
  189.3980  176.6410  138.3510 C   0  0  0  0  0  2  0  0  0  0  0  0
  186.9900  178.4640  141.3590 C   0  0  0  0  0  3  0  0  0  0  0  0
  185.7110  178.9400  141.0450 C   0  0  0  0  0  3  0  0  0  0  0  0
  189.2090  177.5440  140.6190 C   0  0  0  0  0  0  0  0  0  0  0  0
  185.2660  178.9340  139.7180 C   0  0  0  0  0  0  0  0  0  0  0  0
  187.3640  177.9450  139.0210 C   0  0  0  0  0  0  0  0  0  0  0  0
  192.0080  177.2620  141.4230 O   0  0  0  0  0  0  0  0  0  0  0  0
  187.8190  177.9640  140.3460 C   0  0  0  0  0  0  0  0  0  0  0  0
  188.2320  177.4540  137.9980 N   0  0  0  0  0  2  0  0  0  0  0  0
  191.1550  177.6280  142.2780 C   0  0  0  0  0  0  0  0  0  0  0  0
  191.6640  179.3330  144.0680 C   0  0  0  0  0  1  0  0  0  0  0  0
  191.5960  177.8520  143.6970 C   0  0  1  0  0  3  0  0  0  0  0  0
  191.6000  176.3110  145.5430 O   0  0  0  0  0  1  0  0  0  0  0  0
  190.7580  177.0350  144.6940 C   0  0  1  0  0  3  0  0  0  0  0  0
  189.1150  177.0280  146.5690 C   0  0  0  0  0  2  0  0  0  0  0  0
  188.3710  177.3880  145.2940 C   0  0  2  0  0  3  0  0  0  0  0  0
  189.7970  177.8920  145.5190 C   0  0  2  0  0  3  0  0  0  0  0  0
  184.5460  177.7010  146.6400 O   0  0  0  0  0  0  0  0  0  0  0  0
  187.2710  178.4090  145.6240 C   0  0  2  0  0  3  0  0  0  0  0  0
  186.8410  178.2440  147.0660 C   0  0  0  0  0  2  0  0  0  0  0  0
  185.3960  178.7140  147.1330 C   0  0  1  0  0  3  0  0  0  0  0  0
  184.8670  178.7400  145.7440 C   0  0  1  0  0  3  0  0  0  0  0  0
  185.9850  178.2870  144.8190 C   0  0  0  0  0  2  0  0  0  0  0  0
  1  8  2  0  0  0  0
  2 14  1  0  0  0  0
  3 10  2  0  0  0  0
  3  9  1  0  0  0  0
  4  9  1  0  0  0  0
  5  1  1  0  0  0  0
  7  6  1  0  0  0  0
  8  2  1  0  0  0  0
  9  7  2  0  0  0  0
 10 12  1  0  0  0  0
 11 14  2  0  0  0  0
 12  8  1  0  0  0  0
 12  6  2  0  0  0  0
 13  5  1  0  0  0  0
 13 10  1  0  0  0  0
 14 16  1  0  0  0  0
 16 15  1  1  0  0  0
 16 18  1  0  0  0  0
 18 17  1  1  0  0  0
 20 21  1  0  0  0  0
 20 23  1  0  0  0  0
 20 19  1  1  0  0  0
 21 18  1  6  0  0  0
 21 19  1  0  0  0  0
 22 25  1  0  0  0  0
 23 27  1  6  0  0  0
 23 24  1  0  0  0  0
 25 24  1  6  0  0  0
 26 27  1  6  0  0  0
 26 22  1  0  0  0  0
 26 25  1  0  0  0  0
M  END
>  <MODEL>
2

>  <REMARK>
 VINA RESULT:      -9.0      2.736      6.300
  Name = 
  4 active torsions:
  status: ('A' for Active; 'I' for Inactive)
    1  A    between atoms: C_9  and  C_15
    2  A    between atoms: C_20  and  C_22
    3  A    between atoms: C_20  and  C_26
    4  A    between atoms: C_22  and  C_24
                            x       y       z     vdW  Elec       q    Type
                         _______ _______ _______ _____ _____    ______ ____

>  <TORSDO>
F 4

$$$$
=
 OpenBabel11052413433D

 27 31  0  0  1  0  0  0  0  0999 V2000
  187.2490  178.3730  139.7500 N   0  0  0  0  0  0  0  0  0  0  0  0
  188.5260  177.6040  141.6070 N   0  0  0  0  0  2  0  0  0  0  0  0
  183.9310  179.2810  142.1660 C   0  0  0  0  0  3  0  0  0  0  0  0
  182.7580  179.1990  144.3740 C   0  0  0  0  0  1  0  0  0  0  0  0
  186.0210  178.7870  139.0590 C   0  0  0  0  0  2  0  0  0  0  0  0
  186.1090  177.8710  143.2200 C   0  0  0  0  0  3  0  0  0  0  0  0
  185.0060  178.1670  144.0300 C   0  0  0  0  0  3  0  0  0  0  0  0
  187.3020  178.0650  141.0170 C   0  0  0  0  0  0  0  0  0  0  0  0
  183.9200  178.8770  143.5060 C   0  0  0  0  0  0  0  0  0  0  0  0
  185.0240  178.9670  141.3510 C   0  0  0  0  0  0  0  0  0  0  0  0
  189.9460  177.9310  139.7690 O   0  0  0  0  0  0  0  0  0  0  0  0
  186.1190  178.2710  141.8770 C   0  0  0  0  0  0  0  0  0  0  0  0
  185.0620  179.3880  139.9860 N   0  0  0  0  0  2  0  0  0  0  0  0
  189.8010  177.5200  140.9540 C   0  0  0  0  0  0  0  0  0  0  0  0
  192.1650  177.8820  141.7610 C   0  0  0  0  0  1  0  0  0  0  0  0
  190.9810  176.9200  141.6660 C   0  0  1  0  0  3  0  0  0  0  0  0
  191.4730  175.3080  143.3820 O   0  0  0  0  0  1  0  0  0  0  0  0
  190.5900  176.3330  143.0320 C   0  0  1  0  0  3  0  0  0  0  0  0
  191.2640  176.8540  145.3750 C   0  0  0  0  0  2  0  0  0  0  0  0
  189.7460  176.8100  145.3230 C   0  0  2  0  0  3  0  0  0  0  0  0
  190.5380  177.3800  144.1460 C   0  0  2  0  0  3  0  0  0  0  0  0
  187.7280  177.2390  148.8260 O   0  0  0  0  0  0  0  0  0  0  0  0
  189.1770  177.8640  146.2840 C   0  0  2  0  0  3  0  0  0  0  0  0
  189.7760  177.6720  147.6600 C   0  0  0  0  0  2  0  0  0  0  0  0
  188.7460  178.2000  148.6470 C   0  0  1  0  0  3  0  0  0  0  0  0
  187.4450  178.2910  147.9330 C   0  0  1  0  0  3  0  0  0  0  0  0
  187.6720  177.8220  146.5050 C   0  0  0  0  0  2  0  0  0  0  0  0
  1  8  2  0  0  0  0
  3  9  1  0  0  0  0
  5  1  1  0  0  0  0
  5 13  1  0  0  0  0
  6  7  1  0  0  0  0
  8  2  1  0  0  0  0
  8 12  1  0  0  0  0
  9  7  2  0  0  0  0
  9  4  1  0  0  0  0
 10 12  1  0  0  0  0
 10  3  2  0  0  0  0
 11 14  2  0  0  0  0
 12  6  2  0  0  0  0
 13 10  1  0  0  0  0
 14  2  1  0  0  0  0
 14 16  1  0  0  0  0
 16 15  1  1  0  0  0
 16 18  1  0  0  0  0
 18 17  1  1  0  0  0
 20 19  1  1  0  0  0
 20 23  1  0  0  0  0
 21 18  1  6  0  0  0
 21 20  1  0  0  0  0
 21 19  1  0  0  0  0
 23 27  1  1  0  0  0
 23 24  1  0  0  0  0
 25 24  1  6  0  0  0
 25 22  1  0  0  0  0
 26 27  1  6  0  0  0
 26 25  1  0  0  0  0
 26 22  1  0  0  0  0
M  END
>  <MODEL>
3

>  <REMARK>
 VINA RESULT:      -8.8      2.470      6.014
  Name = 
  4 active torsions:
  status: ('A' for Active; 'I' for Inactive)
    1  A    between atoms: C_9  and  C_15
    2  A    between atoms: C_20  and  C_22
    3  A    between atoms: C_20  and  C_26
    4  A    between atoms: C_22  and  C_24
                            x       y       z     vdW  Elec       q    Type
                         _______ _______ _______ _____ _____    ______ ____

>  <TORSDO>
F 4

$$$$
=
 OpenBabel11052413433D

 27 31  0  0  1  0  0  0  0  0999 V2000
  185.7860  178.2530  142.4780 N   0  0  0  0  0  0  0  0  0  0  0  0
  188.0790  177.9650  141.9070 N   0  0  0  0  0  2  0  0  0  0  0  0
  186.6060  178.1810  146.6000 C   0  0  0  0  0  3  0  0  0  0  0  0
  188.1950  177.8120  148.4980 C   0  0  0  0  0  1  0  0  0  0  0  0
  184.6290  178.2530  143.3820 C   0  0  0  0  0  2  0  0  0  0  0  0
  188.6030  177.5330  144.7450 C   0  0  0  0  0  3  0  0  0  0  0  0
  188.8820  177.5030  146.1170 C   0  0  0  0  0  3  0  0  0  0  0  0
  187.0090  178.0140  142.8620 C   0  0  0  0  0  0  0  0  0  0  0  0
  187.8870  177.8330  147.0440 C   0  0  0  0  0  0  0  0  0  0  0  0
  186.3210  178.1900  145.2300 C   0  0  0  0  0  0  0  0  0  0  0  0
  186.8870  178.6520  140.0090 O   0  0  0  0  0  0  0  0  0  0  0  0
  187.3190  177.8760  144.3000 C   0  0  0  0  0  0  0  0  0  0  0  0
  185.0250  178.5610  144.7570 N   0  0  0  0  0  2  0  0  0  0  0  0
  187.9760  178.2520  140.5050 C   0  0  0  0  0  0  0  0  0  0  0  0
  189.9040  176.7530  139.8680 C   0  0  0  0  0  1  0  0  0  0  0  0
  189.1620  178.0620  139.6010 C   0  0  1  0  0  3  0  0  0  0  0  0
  189.0550  179.5420  137.7080 O   0  0  0  0  0  1  0  0  0  0  0  0
  188.7880  178.2330  138.1200 C   0  0  1  0  0  3  0  0  0  0  0  0
  189.1800  177.5700  135.7490 C   0  0  0  0  0  2  0  0  0  0  0  0
  188.4490  176.4300  136.4400 C   0  0  2  0  0  3  0  0  0  0  0  0
  189.5000  177.2410  137.1990 C   0  0  2  0  0  3  0  0  0  0  0  0
  187.3070  172.6010  135.6850 O   0  0  0  0  0  0  0  0  0  0  0  0
  188.9550  175.0930  135.8780 C   0  0  2  0  0  3  0  0  0  0  0  0
  188.0730  174.6600  134.7270 C   0  0  0  0  0  2  0  0  0  0  0  0
  188.1450  173.1420  134.6860 C   0  0  1  0  0  3  0  0  0  0  0  0
  188.6800  172.6820  135.9950 C   0  0  1  0  0  3  0  0  0  0  0  0
  188.9390  173.9160  136.8440 C   0  0  0  0  0  2  0  0  0  0  0  0
  1  8  2  0  0  0  0
  1  5  1  0  0  0  0
  2  8  1  0  0  0  0
  3  9  1  0  0  0  0
  5 13  1  0  0  0  0
  6  7  1  0  0  0  0
  7  9  2  0  0  0  0
  8 12  1  0  0  0  0
  9  4  1  0  0  0  0
 10  3  2  0  0  0  0
 11 14  2  0  0  0  0
 12  6  2  0  0  0  0
 12 10  1  0  0  0  0
 13 10  1  0  0  0  0
 14  2  1  0  0  0  0
 16 15  1  6  0  0  0
 16 14  1  0  0  0  0
 18 17  1  6  0  0  0
 18 16  1  0  0  0  0
 19 21  1  0  0  0  0
 20 19  1  6  0  0  0
 20 21  1  0  0  0  0
 21 18  1  1  0  0  0
 22 26  1  0  0  0  0
 23 24  1  6  0  0  0
 23 20  1  0  0  0  0
 23 27  1  0  0  0  0
 25 24  1  1  0  0  0
 25 22  1  0  0  0  0
 25 26  1  0  0  0  0
 26 27  1  1  0  0  0
M  END
>  <MODEL>
4

>  <REMARK>
 VINA RESULT:      -8.4      2.758      4.746
  Name = 
  4 active torsions:
  status: ('A' for Active; 'I' for Inactive)
    1  A    between atoms: C_9  and  C_15
    2  A    between atoms: C_20  and  C_22
    3  A    between atoms: C_20  and  C_26
    4  A    between atoms: C_22  and  C_24
                            x       y       z     vdW  Elec       q    Type
                         _______ _______ _______ _____ _____    ______ ____

>  <TORSDO>
F 4

$$$$
=
 OpenBabel11052413433D

 27 31  0  0  1  0  0  0  0  0999 V2000
  186.4630  178.5640  140.6360 N   0  0  0  0  0  0  0  0  0  0  0  0
  188.4180  177.4320  141.3910 N   0  0  0  0  0  2  0  0  0  0  0  0
  184.9550  178.9620  144.5390 C   0  0  0  0  0  3  0  0  0  0  0  0
  185.0680  178.4310  146.9820 C   0  0  0  0  0  1  0  0  0  0  0  0
  185.1070  179.1100  140.7670 C   0  0  0  0  0  2  0  0  0  0  0  0
  187.2030  177.3660  144.0430 C   0  0  0  0  0  3  0  0  0  0  0  0
  186.7040  177.4900  145.3450 C   0  0  0  0  0  3  0  0  0  0  0  0
  187.1210  178.0050  141.6140 C   0  0  0  0  0  0  0  0  0  0  0  0
  185.5850  178.2930  145.5950 C   0  0  0  0  0  0  0  0  0  0  0  0
  185.4410  178.8200  143.2350 C   0  0  0  0  0  0  0  0  0  0  0  0
  188.7300  178.1260  139.1720 O   0  0  0  0  0  0  0  0  0  0  0  0
  186.5700  178.0310  142.9840 C   0  0  0  0  0  0  0  0  0  0  0  0
  184.8230  179.5100  142.1470 N   0  0  0  0  0  2  0  0  0  0  0  0
  189.1660  177.4820  140.1670 C   0  0  0  0  0  0  0  0  0  0  0  0
  191.1540  176.9770  138.6950 C   0  0  0  0  0  1  0  0  0  0  0  0
  190.4720  176.7500  140.0450 C   0  0  1  0  0  3  0  0  0  0  0  0
  192.0700  178.2540  141.0290 O   0  0  0  0  0  1  0  0  0  0  0  0
  191.4060  177.0400  141.2300 C   0  0  1  0  0  3  0  0  0  0  0  0
  191.1980  178.2180  143.4180 C   0  0  0  0  0  2  0  0  0  0  0  0
  191.7040  176.8110  143.6890 C   0  0  2  0  0  3  0  0  0  0  0  0
  190.6830  177.0590  142.5780 C   0  0  2  0  0  3  0  0  0  0  0  0
  192.0500  177.1230  147.7280 O   0  0  0  0  0  0  0  0  0  0  0  0
  191.1040  176.3050  145.0090 C   0  0  2  0  0  3  0  0  0  0  0  0
  190.6270  177.4800  145.8340 C   0  0  0  0  0  2  0  0  0  0  0  0
  190.7120  177.0410  147.2870 C   0  0  1  0  0  3  0  0  0  0  0  0
  191.5950  175.8460  147.3440 C   0  0  1  0  0  3  0  0  0  0  0  0
  192.0540  175.5470  145.9260 C   0  0  0  0  0  2  0  0  0  0  0  0
  1  5  1  0  0  0  0
  1  8  2  0  0  0  0
  2  8  1  0  0  0  0
  3  9  1  0  0  0  0
  5 13  1  0  0  0  0
  6  7  1  0  0  0  0
  7  9  2  0  0  0  0
  8 12  1  0  0  0  0
  9  4  1  0  0  0  0
 10  3  2  0  0  0  0
 11 14  2  0  0  0  0
 12 10  1  0  0  0  0
 12  6  2  0  0  0  0
 13 10  1  0  0  0  0
 14  2  1  0  0  0  0
 16 15  1  6  0  0  0
 16 14  1  0  0  0  0
 16 18  1  0  0  0  0
 18 17  1  6  0  0  0
 20 19  1  1  0  0  0
 20 23  1  0  0  0  0
 21 18  1  6  0  0  0
 21 19  1  0  0  0  0
 21 20  1  0  0  0  0
 23 24  1  1  0  0  0
 23 27  1  0  0  0  0
 25 24  1  6  0  0  0
 25 26  1  0  0  0  0
 25 22  1  0  0  0  0
 26 27  1  6  0  0  0
 26 22  1  0  0  0  0
M  END
>  <MODEL>
5

>  <REMARK>
 VINA RESULT:      -8.3      2.387      5.824
  Name = 
  4 active torsions:
  status: ('A' for Active; 'I' for Inactive)
    1  A    between atoms: C_9  and  C_15
    2  A    between atoms: C_20  and  C_22
    3  A    between atoms: C_20  and  C_26
    4  A    between atoms: C_22  and  C_24
                            x       y       z     vdW  Elec       q    Type
                         _______ _______ _______ _____ _____    ______ ____

>  <TORSDO>
F 4

$$$$
=
 OpenBabel11052413433D

 27 31  0  0  1  0  0  0  0  0999 V2000
  187.3630  177.7050  143.2310 N   0  0  0  0  0  0  0  0  0  0  0  0
  189.2320  177.5580  141.7630 N   0  0  0  0  0  2  0  0  0  0  0  0
  189.7350  177.0050  146.6300 C   0  0  0  0  0  3  0  0  0  0  0  0
  191.9240  176.3770  147.6650 C   0  0  0  0  0  1  0  0  0  0  0  0
  186.6560  177.5390  144.5070 C   0  0  0  0  0  2  0  0  0  0  0  0
  190.8100  176.6980  144.0620 C   0  0  0  0  0  3  0  0  0  0  0  0
  191.6060  176.4590  145.1900 C   0  0  0  0  0  3  0  0  0  0  0  0
  188.6270  177.4350  143.0590 C   0  0  0  0  0  0  0  0  0  0  0  0
  191.0710  176.6190  146.4730 C   0  0  0  0  0  0  0  0  0  0  0  0
  188.9340  177.2230  145.5030 C   0  0  0  0  0  0  0  0  0  0  0  0
  187.4190  178.5090  140.6200 O   0  0  0  0  0  0  0  0  0  0  0  0
  189.4710  177.0800  144.2180 C   0  0  0  0  0  0  0  0  0  0  0  0
  187.5740  177.6360  145.6430 N   0  0  0  0  0  2  0  0  0  0  0  0
  188.5980  178.0600  140.5780 C   0  0  0  0  0  0  0  0  0  0  0  0
  189.9940  176.6940  138.9780 C   0  0  0  0  0  1  0  0  0  0  0  0
  189.3230  178.0380  139.2610 C   0  0  1  0  0  3  0  0  0  0  0  0
  188.9680  179.6420  137.5050 O   0  0  0  0  0  1  0  0  0  0  0  0
  188.4250  178.5010  138.1030 C   0  0  1  0  0  3  0  0  0  0  0  0
  187.1000  177.8640  136.0900 C   0  0  0  0  0  2  0  0  0  0  0  0
  186.7720  176.8770  137.1980 C   0  0  2  0  0  3  0  0  0  0  0  0
  188.1950  177.4190  137.0480 C   0  0  2  0  0  3  0  0  0  0  0  0
  185.6490  173.0800  138.1210 O   0  0  0  0  0  0  0  0  0  0  0  0
  186.5480  175.4870  136.5860 C   0  0  2  0  0  3  0  0  0  0  0  0
  185.1260  175.0410  136.8460 C   0  0  0  0  0  2  0  0  0  0  0  0
  185.1570  173.5200  136.8730 C   0  0  1  0  0  3  0  0  0  0  0  0
  186.5720  173.1030  137.0570 C   0  0  1  0  0  3  0  0  0  0  0  0
  187.4150  174.3660  137.1410 C   0  0  0  0  0  2  0  0  0  0  0  0
  1  5  1  0  0  0  0
  2  8  1  0  0  0  0
  5 13  1  0  0  0  0
  6 12  2  0  0  0  0
  6  7  1  0  0  0  0
  7  9  2  0  0  0  0
  8  1  2  0  0  0  0
  8 12  1  0  0  0  0
  9  3  1  0  0  0  0
  9  4  1  0  0  0  0
 10 13  1  0  0  0  0
 10  3  2  0  0  0  0
 12 10  1  0  0  0  0
 14 11  2  0  0  0  0
 14  2  1  0  0  0  0
 16 15  1  6  0  0  0
 16 14  1  0  0  0  0
 18 17  1  6  0  0  0
 18 16  1  0  0  0  0
 19 21  1  0  0  0  0
 20 19  1  6  0  0  0
 21 20  1  0  0  0  0
 21 18  1  1  0  0  0
 23 24  1  1  0  0  0
 23 27  1  0  0  0  0
 23 20  1  0  0  0  0
 25 24  1  1  0  0  0
 25 26  1  0  0  0  0
 25 22  1  0  0  0  0
 26 27  1  1  0  0  0
 26 22  1  0  0  0  0
M  END
>  <MODEL>
6

>  <REMARK>
 VINA RESULT:      -8.3      2.736      5.506
  Name = 
  4 active torsions:
  status: ('A' for Active; 'I' for Inactive)
    1  A    between atoms: C_9  and  C_15
    2  A    between atoms: C_20  and  C_22
    3  A    between atoms: C_20  and  C_26
    4  A    between atoms: C_22  and  C_24
                            x       y       z     vdW  Elec       q    Type
                         _______ _______ _______ _____ _____    ______ ____

>  <TORSDO>
F 4

$$$$
=
 OpenBabel11052413433D

 27 31  0  0  1  0  0  0  0  0999 V2000
  186.8610  178.2950  146.5880 N   0  0  0  0  0  0  0  0  0  0  0  0
  188.1160  177.8810  144.6070 N   0  0  0  0  0  2  0  0  0  0  0  0
  183.2760  178.7730  144.4460 C   0  0  0  0  0  3  0  0  0  0  0  0
  182.0490  178.9950  142.2760 C   0  0  0  0  0  1  0  0  0  0  0  0
  185.6880  178.7370  147.3530 C   0  0  0  0  0  2  0  0  0  0  0  0
  185.7220  178.5850  143.0930 C   0  0  0  0  0  3  0  0  0  0  0  0
  184.5320  178.7480  142.3730 C   0  0  0  0  0  3  0  0  0  0  0  0
  186.9090  178.2600  145.2850 C   0  0  0  0  0  0  0  0  0  0  0  0
  183.3090  178.8350  143.0480 C   0  0  0  0  0  0  0  0  0  0  0  0
  184.4670  178.6320  145.1660 C   0  0  0  0  0  0  0  0  0  0  0  0
  189.3840  177.2510  146.4760 O   0  0  0  0  0  0  0  0  0  0  0  0
  185.6910  178.5280  144.4930 C   0  0  0  0  0  0  0  0  0  0  0  0
  184.4520  178.5470  146.5920 N   0  0  0  0  0  2  0  0  0  0  0  0
  189.3260  177.4210  145.2260 C   0  0  0  0  0  0  0  0  0  0  0  0
  191.6240  176.3790  145.1590 C   0  0  0  0  0  1  0  0  0  0  0  0
  190.5500  177.1540  144.3960 C   0  0  1  0  0  3  0  0  0  0  0  0
  189.0060  175.7840  143.1630 O   0  0  0  0  0  1  0  0  0  0  0  0
  190.2000  176.5020  143.0490 C   0  0  1  0  0  3  0  0  0  0  0  0
  188.6790  177.5060  141.3480 C   0  0  0  0  0  2  0  0  0  0  0  0
  189.7730  176.7500  140.6120 C   0  0  2  0  0  3  0  0  0  0  0  0
  190.0960  177.5060  141.9010 C   0  0  2  0  0  3  0  0  0  0  0  0
  188.4150  177.5590  136.8650 O   0  0  0  0  0  0  0  0  0  0  0  0
  190.1250  177.5040  139.3210 C   0  0  2  0  0  3  0  0  0  0  0  0
  189.0240  178.4870  138.9900 C   0  0  0  0  0  2  0  0  0  0  0  0
  189.0500  178.6600  137.4790 C   0  0  1  0  0  3  0  0  0  0  0  0
  189.8230  177.5240  136.9100 C   0  0  1  0  0  3  0  0  0  0  0  0
  190.2740  176.6500  138.0690 C   0  0  0  0  0  2  0  0  0  0  0  0
  1  5  1  0  0  0  0
  2 14  1  0  0  0  0
  2  8  1  0  0  0  0
  3 10  1  0  0  0  0
  4  9  1  0  0  0  0
  6 12  1  0  0  0  0
  7  9  1  0  0  0  0
  7  6  2  0  0  0  0
  8  1  2  0  0  0  0
  9  3  2  0  0  0  0
 10 13  1  0  0  0  0
 12 10  2  0  0  0  0
 12  8  1  0  0  0  0
 13  5  1  0  0  0  0
 14 11  2  0  0  0  0
 16 15  1  1  0  0  0
 16 14  1  0  0  0  0
 18 17  1  1  0  0  0
 18 16  1  0  0  0  0
 19 21  1  0  0  0  0
 20 19  1  6  0  0  0
 20 21  1  0  0  0  0
 21 18  1  1  0  0  0
 22 26  1  0  0  0  0
 22 25  1  0  0  0  0
 23 27  1  6  0  0  0
 23 20  1  0  0  0  0
 24 23  1  0  0  0  0
 25 24  1  1  0  0  0
 26 25  1  0  0  0  0
 26 27  1  1  0  0  0
M  END
>  <MODEL>
7

>  <REMARK>
 VINA RESULT:      -8.3      1.181      1.589
  Name = 
  4 active torsions:
  status: ('A' for Active; 'I' for Inactive)
    1  A    between atoms: C_9  and  C_15
    2  A    between atoms: C_20  and  C_22
    3  A    between atoms: C_20  and  C_26
    4  A    between atoms: C_22  and  C_24
                            x       y       z     vdW  Elec       q    Type
                         _______ _______ _______ _____ _____    ______ ____

>  <TORSDO>
F 4

$$$$
=
 OpenBabel11052413433D

 27 31  0  0  1  0  0  0  0  0999 V2000
  189.3460  177.2530  142.9630 N   0  0  0  0  0  0  0  0  0  0  0  0
  188.6120  177.8420  140.7760 N   0  0  0  0  0  2  0  0  0  0  0  0
  185.5640  177.9930  144.6390 C   0  0  0  0  0  3  0  0  0  0  0  0
  183.2260  178.8630  144.4400 C   0  0  0  0  0  1  0  0  0  0  0  0
  189.2460  177.1780  144.4260 C   0  0  0  0  0  2  0  0  0  0  0  0
  186.1070  178.7190  141.9890 C   0  0  0  0  0  3  0  0  0  0  0  0
  184.8450  178.9720  142.5410 C   0  0  0  0  0  3  0  0  0  0  0  0
  188.4130  177.7390  142.1930 C   0  0  0  0  0  0  0  0  0  0  0  0
  184.5710  178.6030  143.8630 C   0  0  0  0  0  0  0  0  0  0  0  0
  186.8300  177.7590  144.0930 C   0  0  0  0  0  0  0  0  0  0  0  0
  190.6690  176.7260  140.6300 O   0  0  0  0  0  0  0  0  0  0  0  0
  187.1030  178.1120  142.7660 C   0  0  0  0  0  0  0  0  0  0  0  0
  187.8500  177.1200  144.8630 N   0  0  0  0  0  2  0  0  0  0  0  0
  189.7500  177.3620  140.0450 C   0  0  0  0  0  0  0  0  0  0  0  0
  190.3290  176.4000  137.7840 C   0  0  0  0  0  1  0  0  0  0  0  0
  189.8730  177.6290  138.5700 C   0  0  1  0  0  3  0  0  0  0  0  0
  188.8740  179.5290  137.4860 O   0  0  0  0  0  1  0  0  0  0  0  0
  188.5940  178.2560  137.9920 C   0  0  1  0  0  3  0  0  0  0  0  0
  186.5530  177.9440  136.5950 C   0  0  0  0  0  2  0  0  0  0  0  0
  186.6940  176.7290  137.4970 C   0  0  2  0  0  3  0  0  0  0  0  0
  187.9380  177.3980  136.9100 C   0  0  2  0  0  3  0  0  0  0  0  0
  185.0860  173.0340  138.0400 O   0  0  0  0  0  0  0  0  0  0  0  0
  186.2190  175.4800  136.7390 C   0  0  2  0  0  3  0  0  0  0  0  0
  184.7700  175.2040  137.0740 C   0  0  0  0  0  2  0  0  0  0  0  0
  184.5750  173.7050  136.9080 C   0  0  1  0  0  3  0  0  0  0  0  0
  185.9210  173.0750  136.9050 C   0  0  1  0  0  3  0  0  0  0  0  0
  186.9480  174.1850  137.0680 C   0  0  0  0  0  2  0  0  0  0  0  0
  1  5  1  0  0  0  0
  2  8  1  0  0  0  0
  5 13  1  0  0  0  0
  6  7  2  0  0  0  0
  6 12  1  0  0  0  0
  7  9  1  0  0  0  0
  8 12  1  0  0  0  0
  8  1  2  0  0  0  0
  9  4  1  0  0  0  0
  9  3  2  0  0  0  0
 10  3  1  0  0  0  0
 10 13  1  0  0  0  0
 12 10  2  0  0  0  0
 14 11  2  0  0  0  0
 14  2  1  0  0  0  0
 16 15  1  6  0  0  0
 16 14  1  0  0  0  0
 18 17  1  6  0  0  0
 18 16  1  0  0  0  0
 19 21  1  0  0  0  0
 20 19  1  6  0  0  0
 21 20  1  0  0  0  0
 21 18  1  1  0  0  0
 23 27  1  1  0  0  0
 23 24  1  0  0  0  0
 23 20  1  0  0  0  0
 25 24  1  1  0  0  0
 25 22  1  0  0  0  0
 26 25  1  0  0  0  0
 26 27  1  1  0  0  0
 26 22  1  0  0  0  0
M  END
>  <MODEL>
8

>  <REMARK>
 VINA RESULT:      -8.1      2.586      4.309
  Name = 
  4 active torsions:
  status: ('A' for Active; 'I' for Inactive)
    1  A    between atoms: C_9  and  C_15
    2  A    between atoms: C_20  and  C_22
    3  A    between atoms: C_20  and  C_26
    4  A    between atoms: C_22  and  C_24
                            x       y       z     vdW  Elec       q    Type
                         _______ _______ _______ _____ _____    ______ ____

>  <TORSDO>
F 4

$$$$
=
 OpenBabel11052413433D

 27 31  0  0  1  0  0  0  0  0999 V2000
  185.7760  178.3140  142.4420 N   0  0  0  0  0  0  0  0  0  0  0  0
  188.0430  177.8990  141.8420 N   0  0  0  0  0  2  0  0  0  0  0  0
  186.6170  178.0560  146.5520 C   0  0  0  0  0  3  0  0  0  0  0  0
  188.1910  177.5250  148.4230 C   0  0  0  0  0  1  0  0  0  0  0  0
  184.6280  178.3580  143.3550 C   0  0  0  0  0  2  0  0  0  0  0  0
  188.5560  177.3430  144.6600 C   0  0  0  0  0  3  0  0  0  0  0  0
  188.8420  177.2510  146.0280 C   0  0  0  0  0  3  0  0  0  0  0  0
  186.9850  177.9860  142.8070 C   0  0  0  0  0  0  0  0  0  0  0  0
  187.8760  177.6130  146.9730 C   0  0  0  0  0  0  0  0  0  0  0  0
  186.3250  178.1280  145.1860 C   0  0  0  0  0  0  0  0  0  0  0  0
  186.8840  178.7230  139.9770 O   0  0  0  0  0  0  0  0  0  0  0  0
  187.2940  177.7810  144.2370 C   0  0  0  0  0  0  0  0  0  0  0  0
  185.0520  178.5950  144.7360 N   0  0  0  0  0  2  0  0  0  0  0  0
  187.9500  178.2380  140.4500 C   0  0  0  0  0  0  0  0  0  0  0  0
  189.9280  176.7660  139.9130 C   0  0  0  0  0  1  0  0  0  0  0  0
  189.1150  178.0020  139.5310 C   0  0  1  0  0  3  0  0  0  0  0  0
  189.8120  177.8630  137.2330 O   0  0  0  0  0  1  0  0  0  0  0  0
  188.6880  177.9910  138.0540 C   0  0  1  0  0  3  0  0  0  0  0  0
  187.6780  176.6260  136.2290 C   0  0  0  0  0  2  0  0  0  0  0  0
  186.5790  177.4810  136.8380 C   0  0  2  0  0  3  0  0  0  0  0  0
  187.6750  176.8930  137.7270 C   0  0  2  0  0  3  0  0  0  0  0  0
  182.5710  177.8720  136.2770 O   0  0  0  0  0  0  0  0  0  0  0  0
  185.2630  176.6890  136.8350 C   0  0  2  0  0  3  0  0  0  0  0  0
  184.5850  176.8380  135.4910 C   0  0  0  0  0  2  0  0  0  0  0  0
  183.0950  176.6730  135.7480 C   0  0  1  0  0  3  0  0  0  0  0  0
  182.8670  176.8550  137.2060 C   0  0  1  0  0  3  0  0  0  0  0  0
  184.2170  177.1300  137.8490 C   0  0  0  0  0  2  0  0  0  0  0  0
  1  8  2  0  0  0  0
  1  5  1  0  0  0  0
  2  8  1  0  0  0  0
  3  9  1  0  0  0  0
  5 13  1  0  0  0  0
  6  7  1  0  0  0  0
  7  9  2  0  0  0  0
  8 12  1  0  0  0  0
  9  4  1  0  0  0  0
 10  3  2  0  0  0  0
 11 14  2  0  0  0  0
 12  6  2  0  0  0  0
 12 10  1  0  0  0  0
 13 10  1  0  0  0  0
 14  2  1  0  0  0  0
 16 15  1  1  0  0  0
 16 14  1  0  0  0  0
 18 17  1  6  0  0  0
 18 16  1  0  0  0  0
 19 21  1  0  0  0  0
 20 19  1  6  0  0  0
 20 21  1  0  0  0  0
 21 18  1  6  0  0  0
 22 26  1  0  0  0  0
 23 24  1  6  0  0  0
 23 20  1  0  0  0  0
 23 27  1  0  0  0  0
 25 24  1  1  0  0  0
 25 22  1  0  0  0  0
 25 26  1  0  0  0  0
 26 27  1  1  0  0  0
M  END
>  <MODEL>
9

>  <REMARK>
 VINA RESULT:      -8.0      2.380      4.599
  Name = 
  4 active torsions:
  status: ('A' for Active; 'I' for Inactive)
    1  A    between atoms: C_9  and  C_15
    2  A    between atoms: C_20  and  C_22
    3  A    between atoms: C_20  and  C_26
    4  A    between atoms: C_22  and  C_24
                            x       y       z     vdW  Elec       q    Type
                         _______ _______ _______ _____ _____    ______ ____

>  <TORSDO>
F 4

$$$$
