=
 OpenBabel11052413213D

 28 32  0  0  1  0  0  0  0  0999 V2000
  185.3370  177.0930  136.4580 N   0  0  0  0  0  0  0  0  0  0  0  0
  186.7910  177.0280  136.5820 C   0  0  1  0  0  3  0  0  0  0  0  0
  187.3530  178.1000  137.5390 C   0  0  1  0  0  3  0  0  0  0  0  0
  181.6930  175.3060  138.9800 O   0  0  0  0  0  0  0  0  0  0  0  0
  187.8760  178.3580  140.0450 C   0  0  2  0  0  3  0  0  0  0  0  0
  185.5600  178.7740  139.2000 C   0  0  1  0  0  3  0  0  0  0  0  0
  189.6770  177.6760  138.4540 C   0  0  0  0  0  0  0  0  0  0  0  0
  186.8390  177.9510  138.9830 C   0  0  1  0  0  3  0  0  0  0  0  0
  186.3260  179.0400  141.5470 C   0  0  0  0  0  2  0  0  0  0  0  0
  189.1680  177.5720  139.8610 C   0  0  0  0  0  2  0  0  0  0  0  0
  183.1030  176.5590  137.2770 C   0  0  0  0  0  0  0  0  0  0  0  0
  184.3850  178.4280  138.2790 C   0  0  0  0  0  2  0  0  0  0  0  0
  187.3610  178.1110  141.3310 O   0  0  0  0  0  0  0  0  0  0  0  0
  183.4740  177.1710  134.9120 C   0  0  0  0  0  3  0  0  0  0  0  0
  182.3790  175.9160  138.1500 C   0  0  0  0  0  0  0  0  0  0  0  0
  182.4720  177.0830  136.0260 C   0  0  0  0  0  2  0  0  0  0  0  0
  190.7900  177.2530  138.1900 O   0  0  0  0  0  0  0  0  0  0  0  0
  188.8630  178.3310  137.3740 C   0  0  0  0  0  2  0  0  0  0  0  0
  185.1260  178.7050  140.6610 C   0  0  0  0  0  2  0  0  0  0  0  0
  184.7910  177.1920  135.1320 C   0  0  0  0  0  3  0  0  0  0  0  0
  184.4720  177.0390  137.6480 C   0  0  2  0  0  3  0  0  0  0  0  0
  187.2830  175.5730  136.7280 C   0  0  1  0  0  3  0  0  0  0  0  0
  187.6200  173.4730  135.5560 C   0  0  1  0  0  3  0  0  0  0  0  0
  186.1500  174.6430  137.1240 C   0  0  0  0  0  2  0  0  0  0  0  0
  189.4060  175.2970  135.3850 C   0  0  0  0  0  1  0  0  0  0  0  0
  187.9230  174.9680  135.4910 C   0  0  2  0  0  3  0  0  0  0  0  0
  188.6570  172.6850  136.3500 C   0  0  0  0  0  1  0  0  0  0  0  0
  186.2940  173.3810  136.2850 C   0  0  0  0  0  2  0  0  0  0  0  0
  1 21  1  0  0  0  0
  2  1  1  1  0  0  0
  2 22  1  0  0  0  0
  2  3  1  0  0  0  0
  3 18  1  1  0  0  0
  3  8  1  0  0  0  0
  5 10  1  6  0  0  0
  5 13  1  0  0  0  0
  6 12  1  6  0  0  0
  6 19  1  0  0  0  0
  7 10  1  0  0  0  0
  8  6  1  0  0  0  0
  8  5  1  0  0  0  0
 11 21  1  0  0  0  0
 11 15  2  0  0  0  0
 13  9  1  0  0  0  0
 14 20  2  0  0  0  0
 14 16  1  0  0  0  0
 15  4  2  0  0  0  0
 16 11  1  0  0  0  0
 17  7  2  0  0  0  0
 18  7  1  0  0  0  0
 19  9  1  0  0  0  0
 20  1  1  0  0  0  0
 21 12  1  0  0  0  0
 22 24  1  0  0  0  0
 23 28  1  0  0  0  0
 23 27  1  0  0  0  0
 25 26  1  0  0  0  0
 26 23  1  0  0  0  0
 26 22  1  0  0  0  0
 28 24  1  0  0  0  0
M  END
>  <MODEL>
1

>  <REMARK>
 VINA RESULT:      -5.8      0.000      0.000
  Name = 
  1 active torsions:
  status: ('A' for Active; 'I' for Inactive)
    1  A    between atoms: C_2  and  C_3
                            x       y       z     vdW  Elec       q    Type
                         _______ _______ _______ _____ _____    ______ ____

>  <TORSDO>
F 1

$$$$
=
 OpenBabel11052413213D

 28 32  0  0  1  0  0  0  0  0999 V2000
  181.8080  177.9650  138.9820 N   0  0  0  0  0  0  0  0  0  0  0  0
  183.2570  178.0920  138.8490 C   0  0  1  0  0  3  0  0  0  0  0  0
  183.8770  178.9870  139.9420 C   0  0  1  0  0  3  0  0  0  0  0  0
  178.9310  175.1190  141.5230 O   0  0  0  0  0  0  0  0  0  0  0  0
  184.8440  178.7360  142.3130 C   0  0  2  0  0  3  0  0  0  0  0  0
  182.3780  178.9830  141.9880 C   0  0  1  0  0  3  0  0  0  0  0  0
  186.3660  178.7180  140.3320 C   0  0  0  0  0  0  0  0  0  0  0  0
  183.6710  178.4340  141.3650 C   0  0  1  0  0  3  0  0  0  0  0  0
  183.5510  178.8140  144.1690 C   0  0  0  0  0  2  0  0  0  0  0  0
  186.1520  178.2160  141.7300 C   0  0  0  0  0  2  0  0  0  0  0  0
  179.8440  176.9280  139.9880 C   0  0  0  0  0  0  0  0  0  0  0  0
  181.0900  178.6860  141.2110 C   0  0  0  0  0  2  0  0  0  0  0  0
  184.6170  178.1250  143.5600 O   0  0  0  0  0  0  0  0  0  0  0  0
  179.6830  178.1160  137.8280 C   0  0  0  0  0  3  0  0  0  0  0  0
  179.3750  176.0000  140.7750 C   0  0  0  0  0  0  0  0  0  0  0  0
  178.9310  177.6250  139.0310 C   0  0  0  0  0  2  0  0  0  0  0  0
  187.4450  178.5390  139.7940 O   0  0  0  0  0  0  0  0  0  0  0  0
  185.2940  179.4730  139.6000 C   0  0  0  0  0  2  0  0  0  0  0  0
  182.2450  178.5150  143.4330 C   0  0  0  0  0  2  0  0  0  0  0  0
  181.0080  178.2830  137.8310 C   0  0  0  0  0  3  0  0  0  0  0  0
  181.2010  177.5090  140.2430 C   0  0  2  0  0  3  0  0  0  0  0  0
  183.9190  176.7340  138.5390 C   0  0  1  0  0  3  0  0  0  0  0  0
  184.3120  175.0730  136.8110 C   0  0  1  0  0  3  0  0  0  0  0  0
  182.9610  175.5820  138.7880 C   0  0  0  0  0  2  0  0  0  0  0  0
  185.8480  177.1150  136.9510 C   0  0  0  0  0  1  0  0  0  0  0  0
  184.4390  176.5630  137.1230 C   0  0  2  0  0  3  0  0  0  0  0  0
  185.5300  174.2640  137.2430 C   0  0  0  0  0  1  0  0  0  0  0  0
  183.1210  174.6100  137.6260 C   0  0  0  0  0  2  0  0  0  0  0  0
  1 21  1  0  0  0  0
  2  1  1  1  0  0  0
  2  3  1  0  0  0  0
  3 18  1  6  0  0  0
  3  8  1  0  0  0  0
  5 10  1  6  0  0  0
  5 13  1  0  0  0  0
  6 12  1  6  0  0  0
  6 19  1  0  0  0  0
  7 10  1  0  0  0  0
  8  6  1  0  0  0  0
  8  5  1  0  0  0  0
 11 21  1  0  0  0  0
 11 15  2  0  0  0  0
 13  9  1  0  0  0  0
 14 20  2  0  0  0  0
 14 16  1  0  0  0  0
 15  4  2  0  0  0  0
 16 11  1  0  0  0  0
 17  7  2  0  0  0  0
 18  7  1  0  0  0  0
 19  9  1  0  0  0  0
 20  1  1  0  0  0  0
 21 12  1  0  0  0  0
 22 24  1  0  0  0  0
 22  2  1  0  0  0  0
 23 26  1  0  0  0  0
 23 27  1  0  0  0  0
 23 28  1  0  0  0  0
 25 26  1  0  0  0  0
 26 22  1  0  0  0  0
 28 24  1  0  0  0  0
M  END
>  <MODEL>
2

>  <REMARK>
 VINA RESULT:      -5.6      2.657      4.107
  Name = 
  1 active torsions:
  status: ('A' for Active; 'I' for Inactive)
    1  A    between atoms: C_2  and  C_3
                            x       y       z     vdW  Elec       q    Type
                         _______ _______ _______ _____ _____    ______ ____

>  <TORSDO>
F 1

$$$$
=
 OpenBabel11052413213D

 28 32  0  0  1  0  0  0  0  0999 V2000
  182.3850  179.1550  141.4230 N   0  0  0  0  0  0  0  0  0  0  0  0
  183.6620  178.8400  140.7870 C   0  0  1  0  0  3  0  0  0  0  0  0
  184.8720  179.2430  141.6550 C   0  0  1  0  0  3  0  0  0  0  0  0
  179.5890  176.9060  144.5780 O   0  0  0  0  0  0  0  0  0  0  0  0
  186.3550  178.2100  143.4860 C   0  0  2  0  0  3  0  0  0  0  0  0
  184.1850  179.2890  144.0950 C   0  0  1  0  0  3  0  0  0  0  0  0
  187.0750  178.1230  141.0950 C   0  0  0  0  0  0  0  0  0  0  0  0
  184.9240  178.5000  143.0030 C   0  0  1  0  0  3  0  0  0  0  0  0
  185.8200  178.3050  145.6830 C   0  0  0  0  0  2  0  0  0  0  0  0
  187.1310  177.4360  142.4280 C   0  0  0  0  0  2  0  0  0  0  0  0
  180.5890  178.6090  142.9780 C   0  0  0  0  0  0  0  0  0  0  0  0
  182.7070  179.5850  143.8140 C   0  0  0  0  0  2  0  0  0  0  0  0
  186.3130  177.4570  144.6740 O   0  0  0  0  0  0  0  0  0  0  0  0
  180.2240  180.2100  141.1310 C   0  0  0  0  0  3  0  0  0  0  0  0
  180.0750  177.7360  143.7990 C   0  0  0  0  0  0  0  0  0  0  0  0
  179.7520  179.7430  142.4780 C   0  0  0  0  0  2  0  0  0  0  0  0
  187.7900  177.7270  140.1900 O   0  0  0  0  0  0  0  0  0  0  0  0
  186.1900  179.3150  140.8670 C   0  0  0  0  0  2  0  0  0  0  0  0
  184.3380  178.5970  145.4460 C   0  0  0  0  0  2  0  0  0  0  0  0
  181.4490  179.9430  140.6700 C   0  0  0  0  0  3  0  0  0  0  0  0
  182.0710  178.6630  142.7740 C   0  0  2  0  0  3  0  0  0  0  0  0
  183.6450  177.4380  140.1450 C   0  0  1  0  0  3  0  0  0  0  0  0
  182.8310  176.1330  138.2650 C   0  0  1  0  0  3  0  0  0  0  0  0
  182.4640  176.6190  140.6360 C   0  0  0  0  0  2  0  0  0  0  0  0
  184.9660  177.5160  137.9910 C   0  0  0  0  0  1  0  0  0  0  0  0
  183.5870  177.4100  138.6280 C   0  0  2  0  0  3  0  0  0  0  0  0
  183.7370  174.9120  138.1470 C   0  0  0  0  0  1  0  0  0  0  0  0
  181.8780  175.9080  139.4220 C   0  0  0  0  0  2  0  0  0  0  0  0
  1 21  1  0  0  0  0
  2  1  1  1  0  0  0
  2  3  1  0  0  0  0
  3 18  1  6  0  0  0
  3  8  1  0  0  0  0
  5 10  1  6  0  0  0
  5 13  1  0  0  0  0
  6 12  1  6  0  0  0
  6 19  1  0  0  0  0
  7 10  1  0  0  0  0
  8  5  1  0  0  0  0
  8  6  1  0  0  0  0
 11 15  2  0  0  0  0
 13  9  1  0  0  0  0
 14 16  1  0  0  0  0
 15  4  2  0  0  0  0
 16 11  1  0  0  0  0
 17  7  2  0  0  0  0
 18  7  1  0  0  0  0
 19  9  1  0  0  0  0
 20 14  2  0  0  0  0
 20  1  1  0  0  0  0
 21 11  1  0  0  0  0
 21 12  1  0  0  0  0
 22 24  1  0  0  0  0
 22  2  1  0  0  0  0
 23 26  1  0  0  0  0
 23 28  1  0  0  0  0
 25 26  1  0  0  0  0
 26 22  1  0  0  0  0
 27 23  1  0  0  0  0
 28 24  1  0  0  0  0
M  END
>  <MODEL>
3

>  <REMARK>
 VINA RESULT:      -5.6      3.499      5.512
  Name = 
  1 active torsions:
  status: ('A' for Active; 'I' for Inactive)
    1  A    between atoms: C_2  and  C_3
                            x       y       z     vdW  Elec       q    Type
                         _______ _______ _______ _____ _____    ______ ____

>  <TORSDO>
F 1

$$$$
=
 OpenBabel11052413213D

 28 32  0  0  1  0  0  0  0  0999 V2000
  184.6580  176.6070  136.1520 N   0  0  0  0  0  0  0  0  0  0  0  0
  185.6510  175.7490  135.5100 C   0  0  1  0  0  3  0  0  0  0  0  0
  187.0790  176.3270  135.5960 C   0  0  1  0  0  3  0  0  0  0  0  0
  183.0930  177.1140  140.6380 O   0  0  0  0  0  0  0  0  0  0  0  0
  189.0960  176.2390  137.1910 C   0  0  2  0  0  3  0  0  0  0  0  0
  187.2460  177.8700  137.6020 C   0  0  1  0  0  3  0  0  0  0  0  0
  188.9750  174.6850  135.2380 C   0  0  0  0  0  0  0  0  0  0  0  0
  187.5830  176.4780  137.0430 C   0  0  1  0  0  3  0  0  0  0  0  0
  189.3250  177.6550  138.9420 C   0  0  0  0  0  2  0  0  0  0  0  0
  189.4780  174.8720  136.6390 C   0  0  0  0  0  2  0  0  0  0  0  0
  183.4880  177.3900  138.1430 C   0  0  0  0  0  0  0  0  0  0  0  0
  185.7570  178.2350  137.6160 C   0  0  0  0  0  2  0  0  0  0  0  0
  189.4580  176.3100  138.5490 O   0  0  0  0  0  0  0  0  0  0  0  0
  182.5160  177.7090  135.8930 C   0  0  0  0  0  3  0  0  0  0  0  0
  183.2850  177.2490  139.4230 C   0  0  0  0  0  0  0  0  0  0  0  0
  182.5240  178.1820  137.3180 C   0  0  0  0  0  2  0  0  0  0  0  0
  189.3490  173.7200  134.5940 O   0  0  0  0  0  0  0  0  0  0  0  0
  188.0560  175.6870  134.5980 C   0  0  0  0  0  2  0  0  0  0  0  0
  187.8470  178.0430  138.9930 C   0  0  0  0  0  2  0  0  0  0  0  0
  183.5170  176.9980  135.3690 C   0  0  0  0  0  3  0  0  0  0  0  0
  184.8170  177.0320  137.5520 C   0  0  2  0  0  3  0  0  0  0  0  0
  185.4300  174.2640  135.8620 C   0  0  1  0  0  3  0  0  0  0  0  0
  183.9550  172.6960  136.9870 C   0  0  1  0  0  3  0  0  0  0  0  0
  186.0700  173.9100  137.1930 C   0  0  0  0  0  2  0  0  0  0  0  0
  183.4130  173.4200  134.5940 C   0  0  0  0  0  1  0  0  0  0  0  0
  183.9810  173.8160  135.9500 C   0  0  2  0  0  3  0  0  0  0  0  0
  184.2330  171.3200  136.3920 C   0  0  0  0  0  1  0  0  0  0  0  0
  185.0780  173.0340  137.9470 C   0  0  0  0  0  2  0  0  0  0  0  0
  1 21  1  0  0  0  0
  2  3  1  0  0  0  0
  2 22  1  0  0  0  0
  2  1  1  1  0  0  0
  3 18  1  6  0  0  0
  3  8  1  0  0  0  0
  5 10  1  1  0  0  0
  5 13  1  0  0  0  0
  6 12  1  1  0  0  0
  6 19  1  0  0  0  0
  7 10  1  0  0  0  0
  8  5  1  0  0  0  0
  8  6  1  0  0  0  0
  9 19  1  0  0  0  0
 11 15  2  0  0  0  0
 13  9  1  0  0  0  0
 14 16  1  0  0  0  0
 15  4  2  0  0  0  0
 16 11  1  0  0  0  0
 17  7  2  0  0  0  0
 18  7  1  0  0  0  0
 20 14  2  0  0  0  0
 20  1  1  0  0  0  0
 21 12  1  0  0  0  0
 21 11  1  0  0  0  0
 22 26  1  0  0  0  0
 22 24  1  0  0  0  0
 23 28  1  0  0  0  0
 24 28  1  0  0  0  0
 25 26  1  0  0  0  0
 26 23  1  0  0  0  0
 27 23  1  0  0  0  0
M  END
>  <MODEL>
4

>  <REMARK>
 VINA RESULT:      -5.3      1.921      3.225
  Name = 
  1 active torsions:
  status: ('A' for Active; 'I' for Inactive)
    1  A    between atoms: C_2  and  C_3
                            x       y       z     vdW  Elec       q    Type
                         _______ _______ _______ _____ _____    ______ ____

>  <TORSDO>
F 1

$$$$
=
 OpenBabel11052413213D

 28 32  0  0  1  0  0  0  0  0999 V2000
  181.7620  177.0970  137.5070 N   0  0  0  0  0  0  0  0  0  0  0  0
  181.4370  175.6810  137.3530 C   0  0  1  0  0  3  0  0  0  0  0  0
  182.4720  174.9260  136.4920 C   0  0  1  0  0  3  0  0  0  0  0  0
  184.5530  179.5710  140.4940 O   0  0  0  0  0  0  0  0  0  0  0  0
  184.6760  173.6400  136.8210 C   0  0  2  0  0  3  0  0  0  0  0  0
  184.7010  176.1300  136.5990 C   0  0  1  0  0  3  0  0  0  0  0  0
  182.5060  172.4050  136.7390 C   0  0  0  0  0  0  0  0  0  0  0  0
  183.8850  174.9300  137.1040 C   0  0  1  0  0  3  0  0  0  0  0  0
  186.6930  174.6670  136.8360 C   0  0  0  0  0  2  0  0  0  0  0  0
  183.8980  172.4200  137.2970 C   0  0  0  0  0  2  0  0  0  0  0  0
  182.9840  178.8940  138.6130 C   0  0  0  0  0  0  0  0  0  0  0  0
  184.0960  177.5090  136.8850 C   0  0  0  0  0  2  0  0  0  0  0  0
  185.9160  173.6880  137.4840 O   0  0  0  0  0  0  0  0  0  0  0  0
  180.9160  179.3610  137.3430 C   0  0  0  0  0  3  0  0  0  0  0  0
  183.7890  179.2420  139.5780 C   0  0  0  0  0  0  0  0  0  0  0  0
  182.1900  179.9370  137.8930 C   0  0  0  0  0  2  0  0  0  0  0  0
  181.8190  171.4080  136.8800 O   0  0  0  0  0  0  0  0  0  0  0  0
  181.9590  173.5740  135.9710 C   0  0  0  0  0  2  0  0  0  0  0  0
  186.1310  176.0590  137.1260 C   0  0  0  0  0  2  0  0  0  0  0  0
  180.7450  178.0500  137.1560 C   0  0  0  0  0  3  0  0  0  0  0  0
  183.0740  177.5210  138.0210 C   0  0  2  0  0  3  0  0  0  0  0  0
  180.9850  175.0550  138.6880 C   0  0  1  0  0  3  0  0  0  0  0  0
  179.1470  174.8730  140.2650 C   0  0  1  0  0  3  0  0  0  0  0  0
  181.3000  175.9660  139.8610 C   0  0  0  0  0  2  0  0  0  0  0  0
  179.1840  173.3460  138.2120 C   0  0  0  0  0  1  0  0  0  0  0  0
  179.5080  174.7180  138.7890 C   0  0  2  0  0  3  0  0  0  0  0  0
  179.3840  173.6050  141.0780 C   0  0  0  0  0  1  0  0  0  0  0  0
  180.0850  175.9480  140.7790 C   0  0  0  0  0  2  0  0  0  0  0  0
  1 21  1  0  0  0  0
  2  1  1  1  0  0  0
  2 22  1  0  0  0  0
  3 18  1  1  0  0  0
  3  8  1  0  0  0  0
  3  2  1  0  0  0  0
  5  8  1  0  0  0  0
  5 10  1  1  0  0  0
  5 13  1  0  0  0  0
  6 12  1  1  0  0  0
  6  8  1  0  0  0  0
  6 19  1  0  0  0  0
  7 17  2  0  0  0  0
  7 10  1  0  0  0  0
  9 19  1  0  0  0  0
  9 13  1  0  0  0  0
 11 15  2  0  0  0  0
 12 21  1  0  0  0  0
 14 16  1  0  0  0  0
 15  4  2  0  0  0  0
 16 11  1  0  0  0  0
 18  7  1  0  0  0  0
 20 14  2  0  0  0  0
 20  1  1  0  0  0  0
 21 11  1  0  0  0  0
 22 26  1  0  0  0  0
 22 24  1  0  0  0  0
 23 28  1  0  0  0  0
 23 27  1  0  0  0  0
 24 28  1  0  0  0  0
 25 26  1  0  0  0  0
 26 23  1  0  0  0  0
M  END
>  <MODEL>
5

>  <REMARK>
 VINA RESULT:      -5.1      2.861      6.655
  Name = 
  1 active torsions:
  status: ('A' for Active; 'I' for Inactive)
    1  A    between atoms: C_2  and  C_3
                            x       y       z     vdW  Elec       q    Type
                         _______ _______ _______ _____ _____    ______ ____

>  <TORSDO>
F 1

$$$$
=
 OpenBabel11052413213D

 28 32  0  0  1  0  0  0  0  0999 V2000
  183.0570  175.6790  136.1020 N   0  0  0  0  0  0  0  0  0  0  0  0
  184.4970  175.8780  135.9610 C   0  0  1  0  0  3  0  0  0  0  0  0
  184.9390  177.3040  136.3530 C   0  0  1  0  0  3  0  0  0  0  0  0
  180.1990  174.4760  139.7370 O   0  0  0  0  0  0  0  0  0  0  0  0
  185.7020  178.5690  138.4600 C   0  0  2  0  0  3  0  0  0  0  0  0
  183.2640  178.2900  137.9820 C   0  0  1  0  0  3  0  0  0  0  0  0
  187.3960  177.6040  136.8970 C   0  0  0  0  0  0  0  0  0  0  0  0
  184.6490  177.6420  137.8270 C   0  0  1  0  0  3  0  0  0  0  0  0
  184.2420  179.5380  139.8920 C   0  0  0  0  0  2  0  0  0  0  0  0
  187.0960  177.9690  138.3210 C   0  0  0  0  0  2  0  0  0  0  0  0
  181.1000  175.1770  137.4660 C   0  0  0  0  0  0  0  0  0  0  0  0
  182.0810  177.4520  137.4830 C   0  0  0  0  0  2  0  0  0  0  0  0
  185.4120  178.7580  139.8230 O   0  0  0  0  0  0  0  0  0  0  0  0
  181.0420  174.8900  135.0130 C   0  0  0  0  0  3  0  0  0  0  0  0
  180.6370  174.8170  138.6310 C   0  0  0  0  0  0  0  0  0  0  0  0
  180.2240  175.0880  136.2570 C   0  0  0  0  0  2  0  0  0  0  0  0
  188.5310  177.2790  136.5920 O   0  0  0  0  0  0  0  0  0  0  0  0
  186.3380  177.6720  135.8330 C   0  0  0  0  0  2  0  0  0  0  0  0
  183.0370  178.7190  139.4280 C   0  0  0  0  0  2  0  0  0  0  0  0
  182.3430  175.1840  134.9560 C   0  0  0  0  0  3  0  0  0  0  0  0
  182.3750  175.9560  137.3760 C   0  0  2  0  0  3  0  0  0  0  0  0
  185.2920  174.6770  136.5110 C   0  0  1  0  0  3  0  0  0  0  0  0
  185.8150  172.3290  136.1760 C   0  0  1  0  0  3  0  0  0  0  0  0
  184.4700  173.8800  137.5090 C   0  0  0  0  0  2  0  0  0  0  0  0
  187.1260  174.0980  134.8710 C   0  0  0  0  0  1  0  0  0  0  0  0
  185.7900  173.6860  135.4750 C   0  0  2  0  0  3  0  0  0  0  0  0
  187.1240  172.0570  136.9090 C   0  0  0  0  0  1  0  0  0  0  0  0
  184.7020  172.4070  137.2020 C   0  0  0  0  0  2  0  0  0  0  0  0
  1 21  1  0  0  0  0
  2  1  1  1  0  0  0
  2  3  1  0  0  0  0
  2 22  1  0  0  0  0
  3 18  1  1  0  0  0
  3  8  1  0  0  0  0
  5 10  1  1  0  0  0
  5 13  1  0  0  0  0
  6 12  1  1  0  0  0
  6 19  1  0  0  0  0
  7 10  1  0  0  0  0
  8  6  1  0  0  0  0
  8  5  1  0  0  0  0
 11 15  2  0  0  0  0
 13  9  1  0  0  0  0
 14 16  1  0  0  0  0
 15  4  2  0  0  0  0
 16 11  1  0  0  0  0
 17  7  2  0  0  0  0
 18  7  1  0  0  0  0
 19  9  1  0  0  0  0
 20 14  2  0  0  0  0
 20  1  1  0  0  0  0
 21 11  1  0  0  0  0
 21 12  1  0  0  0  0
 22 24  1  0  0  0  0
 23 27  1  0  0  0  0
 23 28  1  0  0  0  0
 25 26  1  0  0  0  0
 26 23  1  0  0  0  0
 26 22  1  0  0  0  0
 28 24  1  0  0  0  0
M  END
>  <MODEL>
6

>  <REMARK>
 VINA RESULT:      -4.9      1.761      2.565
  Name = 
  1 active torsions:
  status: ('A' for Active; 'I' for Inactive)
    1  A    between atoms: C_2  and  C_3
                            x       y       z     vdW  Elec       q    Type
                         _______ _______ _______ _____ _____    ______ ____

>  <TORSDO>
F 1

$$$$
=
 OpenBabel11052413213D

 28 32  0  0  1  0  0  0  0  0999 V2000
  186.7060  177.7270  137.1110 N   0  0  0  0  0  0  0  0  0  0  0  0
  185.2720  177.4720  137.0000 C   0  0  1  0  0  3  0  0  0  0  0  0
  184.9590  176.1940  136.1950 C   0  0  1  0  0  3  0  0  0  0  0  0
  190.1370  176.2310  140.0810 O   0  0  0  0  0  0  0  0  0  0  0  0
  184.6390  173.6780  136.6290 C   0  0  2  0  0  3  0  0  0  0  0  0
  186.9370  174.6110  136.3170 C   0  0  1  0  0  3  0  0  0  0  0  0
  182.6550  175.1940  136.5330 C   0  0  0  0  0  0  0  0  0  0  0  0
  185.5250  174.9170  136.8430 C   0  0  1  0  0  3  0  0  0  0  0  0
  186.3690  172.2190  136.6600 C   0  0  0  0  0  2  0  0  0  0  0  0
  183.2230  173.9390  137.1280 C   0  0  0  0  0  2  0  0  0  0  0  0
  188.8610  177.3410  138.1840 C   0  0  0  0  0  0  0  0  0  0  0  0
  187.9790  175.7140  136.5380 C   0  0  0  0  0  2  0  0  0  0  0  0
  185.1800  172.5800  137.3220 O   0  0  0  0  0  0  0  0  0  0  0  0
  188.4590  179.3780  136.8440 C   0  0  0  0  0  3  0  0  0  0  0  0
  189.5170  176.7720  139.1570 C   0  0  0  0  0  0  0  0  0  0  0  0
  189.4970  178.4500  137.4060 C   0  0  0  0  0  2  0  0  0  0  0  0
  181.4730  175.4460  136.6910 O   0  0  0  0  0  0  0  0  0  0  0  0
  183.5030  176.1210  135.7090 C   0  0  0  0  0  2  0  0  0  0  0  0
  187.4390  173.2870  136.8850 C   0  0  0  0  0  2  0  0  0  0  0  0
  187.1810  179.0200  136.7000 C   0  0  0  0  0  3  0  0  0  0  0  0
  187.6180  176.7040  137.6450 C   0  0  2  0  0  3  0  0  0  0  0  0
  184.5500  177.6970  138.3440 C   0  0  1  0  0  3  0  0  0  0  0  0
  183.6410  179.3780  139.8430 C   0  0  1  0  0  3  0  0  0  0  0  0
  185.5400  177.8760  139.4810 C   0  0  0  0  0  2  0  0  0  0  0  0
  182.2210  178.5620  137.8780 C   0  0  0  0  0  1  0  0  0  0  0  0
  183.6150  178.8920  138.3960 C   0  0  2  0  0  3  0  0  0  0  0  0
  182.6210  178.6740  140.7310 C   0  0  0  0  0  1  0  0  0  0  0  0
  185.0280  179.0240  140.3420 C   0  0  0  0  0  2  0  0  0  0  0  0
  1 21  1  0  0  0  0
  2  1  1  1  0  0  0
  2 22  1  0  0  0  0
  3 18  1  1  0  0  0
  3  8  1  0  0  0  0
  3  2  1  0  0  0  0
  5  8  1  0  0  0  0
  5 10  1  1  0  0  0
  5 13  1  0  0  0  0
  6 12  1  1  0  0  0
  6  8  1  0  0  0  0
  6 19  1  0  0  0  0
  7 17  2  0  0  0  0
  7 10  1  0  0  0  0
  9 19  1  0  0  0  0
  9 13  1  0  0  0  0
 11 15  2  0  0  0  0
 12 21  1  0  0  0  0
 14 16  1  0  0  0  0
 15  4  2  0  0  0  0
 16 11  1  0  0  0  0
 18  7  1  0  0  0  0
 20 14  2  0  0  0  0
 20  1  1  0  0  0  0
 21 11  1  0  0  0  0
 22 26  1  0  0  0  0
 22 24  1  0  0  0  0
 23 28  1  0  0  0  0
 23 27  1  0  0  0  0
 24 28  1  0  0  0  0
 25 26  1  0  0  0  0
 26 23  1  0  0  0  0
M  END
>  <MODEL>
7

>  <REMARK>
 VINA RESULT:      -4.7      1.709      6.444
  Name = 
  1 active torsions:
  status: ('A' for Active; 'I' for Inactive)
    1  A    between atoms: C_2  and  C_3
                            x       y       z     vdW  Elec       q    Type
                         _______ _______ _______ _____ _____    ______ ____

>  <TORSDO>
F 1

$$$$
=
 OpenBabel11052413213D

 28 32  0  0  1  0  0  0  0  0999 V2000
  186.8700  177.2520  136.5240 N   0  0  0  0  0  0  0  0  0  0  0  0
  188.2710  177.1440  136.9210 C   0  0  1  0  0  3  0  0  0  0  0  0
  188.6250  178.0710  138.1030 C   0  0  1  0  0  3  0  0  0  0  0  0
  182.8140  175.2170  138.0220 O   0  0  0  0  0  0  0  0  0  0  0  0
  188.6410  177.9890  140.6750 C   0  0  2  0  0  3  0  0  0  0  0  0
  186.5350  178.5550  139.4540 C   0  0  1  0  0  3  0  0  0  0  0  0
  190.7270  177.4890  139.3930 C   0  0  0  0  0  0  0  0  0  0  0  0
  187.8380  177.7440  139.3850 C   0  0  1  0  0  3  0  0  0  0  0  0
  186.8210  178.4970  141.9200 C   0  0  0  0  0  2  0  0  0  0  0  0
  189.9500  177.2100  140.6460 C   0  0  0  0  0  2  0  0  0  0  0  0
  184.5230  176.6560  136.8100 C   0  0  0  0  0  0  0  0  0  0  0  0
  185.5670  178.3540  138.2820 C   0  0  0  0  0  2  0  0  0  0  0  0
  187.8850  177.5850  141.7900 O   0  0  0  0  0  0  0  0  0  0  0  0
  185.3480  177.5660  134.6660 C   0  0  0  0  0  3  0  0  0  0  0  0
  183.6460  175.9180  137.4310 C   0  0  0  0  0  0  0  0  0  0  0  0
  184.1460  177.3510  135.5400 C   0  0  0  0  0  2  0  0  0  0  0  0
  191.8730  177.0840  139.3000 O   0  0  0  0  0  0  0  0  0  0  0  0
  190.1360  178.2940  138.2700 C   0  0  0  0  0  2  0  0  0  0  0  0
  185.8220  178.3020  140.7790 C   0  0  0  0  0  2  0  0  0  0  0  0
  186.5950  177.5330  135.1410 C   0  0  0  0  0  3  0  0  0  0  0  0
  185.7880  177.0580  137.5030 C   0  0  2  0  0  3  0  0  0  0  0  0
  188.7360  175.6750  136.9680 C   0  0  1  0  0  3  0  0  0  0  0  0
  189.2860  173.7310  135.6190 C   0  0  1  0  0  3  0  0  0  0  0  0
  187.5550  174.7230  137.0370 C   0  0  0  0  0  2  0  0  0  0  0  0
  191.0660  175.5300  135.9980 C   0  0  0  0  0  1  0  0  0  0  0  0
  189.5890  175.2170  135.7980 C   0  0  2  0  0  3  0  0  0  0  0  0
  190.1690  172.8310  136.4780 C   0  0  0  0  0  1  0  0  0  0  0  0
  187.8520  173.5720  136.0840 C   0  0  0  0  0  2  0  0  0  0  0  0
  1 21  1  0  0  0  0
  2  1  1  1  0  0  0
  2 22  1  0  0  0  0
  2  3  1  0  0  0  0
  3 18  1  1  0  0  0
  3  8  1  0  0  0  0
  5 10  1  6  0  0  0
  5 13  1  0  0  0  0
  6 12  1  6  0  0  0
  6 19  1  0  0  0  0
  7 10  1  0  0  0  0
  8  6  1  0  0  0  0
  8  5  1  0  0  0  0
 11 15  2  0  0  0  0
 11 21  1  0  0  0  0
 13  9  1  0  0  0  0
 14 20  2  0  0  0  0
 14 16  1  0  0  0  0
 15  4  2  0  0  0  0
 16 11  1  0  0  0  0
 17  7  2  0  0  0  0
 18  7  1  0  0  0  0
 19  9  1  0  0  0  0
 20  1  1  0  0  0  0
 21 12  1  0  0  0  0
 22 24  1  0  0  0  0
 23 26  1  0  0  0  0
 23 28  1  0  0  0  0
 23 27  1  0  0  0  0
 26 25  1  0  0  0  0
 26 22  1  0  0  0  0
 28 24  1  0  0  0  0
M  END
>  <MODEL>
8

>  <REMARK>
 VINA RESULT:      -4.6      1.157      1.442
  Name = 
  1 active torsions:
  status: ('A' for Active; 'I' for Inactive)
    1  A    between atoms: C_2  and  C_3
                            x       y       z     vdW  Elec       q    Type
                         _______ _______ _______ _____ _____    ______ ____

>  <TORSDO>
F 1

$$$$
=
 OpenBabel11052413213D

 28 32  0  0  1  0  0  0  0  0999 V2000
  180.7420  175.6550  138.9000 N   0  0  0  0  0  0  0  0  0  0  0  0
  181.5080  176.8030  139.3770 C   0  0  1  0  0  3  0  0  0  0  0  0
  183.0320  176.5720  139.3020 C   0  0  1  0  0  3  0  0  0  0  0  0
  179.2840  174.1780  134.5960 O   0  0  0  0  0  0  0  0  0  0  0  0
  184.9470  176.9110  137.6170 C   0  0  2  0  0  3  0  0  0  0  0  0
  183.5370  174.8500  137.5100 C   0  0  1  0  0  3  0  0  0  0  0  0
  184.4840  178.6480  139.3530 C   0  0  0  0  0  0  0  0  0  0  0  0
  183.5380  176.3450  137.8650 C   0  0  1  0  0  3  0  0  0  0  0  0
  185.4860  175.3610  136.0590 C   0  0  0  0  0  2  0  0  0  0  0  0
  184.9980  178.3930  137.9670 C   0  0  0  0  0  2  0  0  0  0  0  0
  179.7670  174.3510  137.0850 C   0  0  0  0  0  0  0  0  0  0  0  0
  182.1790  174.1460  137.6120 C   0  0  0  0  0  2  0  0  0  0  0  0
  185.2980  176.7410  136.2660 O   0  0  0  0  0  0  0  0  0  0  0  0
  178.9310  174.1260  139.3990 C   0  0  0  0  0  3  0  0  0  0  0  0
  179.5190  174.2610  135.8080 C   0  0  0  0  0  0  0  0  0  0  0  0
  179.0330  173.4750  138.0500 C   0  0  0  0  0  2  0  0  0  0  0  0
  184.6240  179.7540  139.8470 O   0  0  0  0  0  0  0  0  0  0  0  0
  183.8400  177.5560  140.1600 C   0  0  0  0  0  2  0  0  0  0  0  0
  184.1430  174.6330  136.1270 C   0  0  0  0  0  2  0  0  0  0  0  0
  179.7390  175.1180  139.7790 C   0  0  0  0  0  3  0  0  0  0  0  0
  180.9790  175.0900  137.5620 C   0  0  2  0  0  3  0  0  0  0  0  0
  180.9330  178.1310  138.8440 C   0  0  1  0  0  3  0  0  0  0  0  0
  181.4940  180.2620  137.8230 C   0  0  1  0  0  3  0  0  0  0  0  0
  180.8760  179.1870  139.9330 C   0  0  0  0  0  2  0  0  0  0  0  0
  181.2360  178.1960  136.3350 C   0  0  0  0  0  1  0  0  0  0  0  0
  181.6830  178.7530  137.6800 C   0  0  2  0  0  3  0  0  0  0  0  0
  180.2290  180.7750  137.1430 C   0  0  0  0  0  1  0  0  0  0  0  0
  181.3590  180.4930  139.3150 C   0  0  0  0  0  2  0  0  0  0  0  0
  1 20  1  0  0  0  0
  2  1  1  6  0  0  0
  3  2  1  0  0  0  0
  3 18  1  6  0  0  0
  4 15  2  0  0  0  0
  5  8  1  0  0  0  0
  5 10  1  6  0  0  0
  6 19  1  6  0  0  0
  6 12  1  0  0  0  0
  6  8  1  0  0  0  0
  7 17  2  0  0  0  0
  7 18  1  0  0  0  0
  8  3  1  0  0  0  0
  9 19  1  0  0  0  0
  9 13  1  0  0  0  0
 10  7  1  0  0  0  0
 11 21  1  0  0  0  0
 11 16  1  0  0  0  0
 13  5  1  0  0  0  0
 14 20  2  0  0  0  0
 15 11  2  0  0  0  0
 16 14  1  0  0  0  0
 21 12  1  0  0  0  0
 21  1  1  0  0  0  0
 22  2  1  0  0  0  0
 22 24  1  0  0  0  0
 23 28  1  0  0  0  0
 25 26  1  0  0  0  0
 26 23  1  0  0  0  0
 26 22  1  0  0  0  0
 27 23  1  0  0  0  0
 28 24  1  0  0  0  0
M  END
>  <MODEL>
9

>  <REMARK>
 VINA RESULT:      -4.6      3.124      6.460
  Name = 
  1 active torsions:
  status: ('A' for Active; 'I' for Inactive)
    1  A    between atoms: C_2  and  C_3
                            x       y       z     vdW  Elec       q    Type
                         _______ _______ _______ _____ _____    ______ ____

>  <TORSDO>
F 1

$$$$
