=
 OpenBabel11052414223D

 34 38  0  0  1  0  0  0  0  0999 V2000
  192.1530  175.6330  136.3320 C   0  0  2  0  0  3  0  0  0  0  0  0
  193.0990  176.7150  138.3860 C   0  0  1  0  0  3  0  0  0  0  0  0
  190.5330  176.3140  138.0000 C   0  0  2  0  0  3  0  0  0  0  0  0
  194.2500  175.0120  136.8990 C   0  0  0  0  0  2  0  0  0  0  0  0
  188.0760  176.0570  137.3030 C   0  0  1  0  0  3  0  0  0  0  0  0
  185.7130  176.4240  136.9640 O   0  0  0  0  0  1  0  0  0  0  0  0
  193.9590  175.4510  138.3610 C   0  0  0  0  0  2  0  0  0  0  0  0
  191.4310  176.7230  140.2880 C   0  0  0  0  0  2  0  0  0  0  0  0
  186.3500  178.8120  137.8090 O   0  0  0  0  0  1  0  0  0  0  0  0
  191.9060  176.6490  137.4190 C   0  0  2  0  0  3  0  0  0  0  0  0
  186.8360  179.0100  135.6090 F   0  0  0  0  0  0  0  0  0  0  0  0
  193.4900  175.7000  135.9160 O   0  0  0  0  0  0  0  0  0  0  0  0
  189.4930  176.5160  136.8370 C   0  0  1  0  0  0  0  0  0  0  0  0
  186.9890  176.8390  136.5660 C   0  0  1  0  0  3  0  0  0  0  0  0
  191.1490  175.9500  135.2410 C   0  0  0  0  0  2  0  0  0  0  0  0
  192.7680  177.2430  139.7800 C   0  0  0  0  0  2  0  0  0  0  0  0
  188.6250  178.6780  137.1350 C   0  0  0  0  0  2  0  0  0  0  0  0
  187.1720  178.3530  136.7780 C   0  0  2  0  0  0  0  0  0  0  0  0
  189.5090  177.8750  136.3870 O   0  0  0  0  0  0  0  0  0  0  0  0
  187.8660  174.5480  137.2140 C   0  0  0  0  0  1  0  0  0  0  0  0
  190.3060  177.0830  139.3190 C   0  0  2  0  0  3  0  0  0  0  0  0
  189.8420  175.6820  135.7230 O   0  0  0  0  0  0  0  0  0  0  0  0
  188.9850  176.7100  139.9850 C   0  0  0  0  0  2  0  0  0  0  0  0
  189.2630  177.0250  143.5620 C   0  0  0  0  0  3  0  0  0  0  0  0
  188.9550  177.3370  142.3350 C   0  0  0  0  0  0  0  0  0  0  0  0
  188.6510  177.6430  141.1030 C   0  0  0  0  0  0  0  0  0  0  0  0
  188.0780  178.9800  140.7990 C   0  0  0  0  0  1  0  0  0  0  0  0
  191.5640  178.9560  143.8930 C   0  0  0  0  0  1  0  0  0  0  0  0
  189.3070  178.0830  144.6210 C   0  0  2  0  0  3  0  0  0  0  0  0
  190.7370  178.4350  145.0550 C   0  0  1  0  0  3  0  0  0  0  0  0
  190.6370  176.8810  147.3140 S   0  0  0  0  0  0  0  0  0  0  0  0
  189.0350  176.4670  146.5510 C   0  0  0  0  0  2  0  0  0  0  0  0
  188.4550  177.6780  145.8250 C   0  0  0  0  0  2  0  0  0  0  0  0
  191.4370  177.2560  145.7200 C   0  0  0  0  0  2  0  0  0  0  0  0
  1 15  1  6  0  0  0
  1 10  1  0  0  0  0
  2  7  1  1  0  0  0
  2 16  1  0  0  0  0
  3 21  1  0  0  0  0
  4  7  1  0  0  0  0
 10  3  1  0  0  0  0
 10  2  1  0  0  0  0
 11 18  1  0  0  0  0
 12  1  1  0  0  0  0
 12  4  1  0  0  0  0
 13  5  1  0  0  0  0
 13  3  1  0  0  0  0
 14 18  1  0  0  0  0
 14  6  1  0  0  0  0
 14  5  1  0  0  0  0
 15 22  1  0  0  0  0
 16  8  1  0  0  0  0
 18 17  1  0  0  0  0
 18  9  1  0  0  0  0
 19 13  1  0  0  0  0
 19 17  1  0  0  0  0
 20  5  1  0  0  0  0
 21 23  1  0  0  0  0
 21  8  1  0  0  0  0
 22 13  1  0  0  0  0
 23 26  1  0  0  0  0
 24 29  1  0  0  0  0
 25 24  2  0  0  0  0
 26 25  2  0  0  0  0
 27 26  1  0  0  0  0
 28 30  1  0  0  0  0
 29 30  1  0  0  0  0
 29 33  1  0  0  0  0
 30 34  1  0  0  0  0
 32 31  1  0  0  0  0
 33 32  1  0  0  0  0
 34 31  1  0  0  0  0
M  END
>  <MODEL>
1

>  <REMARK>
 VINA RESULT:      -7.8      0.000      0.000
  Name = 
  3 active torsions:
  status: ('A' for Active; 'I' for Inactive)
    1  A    between atoms: C_3  and  C_13
    2  A    between atoms: C_5  and  C_18
    3  A    between atoms: C_5  and  C_31
                            x       y       z     vdW  Elec       q    Type
                         _______ _______ _______ _____ _____    ______ ____

>  <TORSDO>
F 3

$$$$
=
 OpenBabel11052414223D

 34 38  0  0  1  0  0  0  0  0999 V2000
  182.6200  179.0120  142.7950 C   0  0  2  0  0  3  0  0  0  0  0  0
  184.9830  178.1750  142.8440 C   0  0  1  0  0  3  0  0  0  0  0  0
  183.7120  178.8240  140.6400 C   0  0  2  0  0  3  0  0  0  0  0  0
  183.7850  179.4510  144.6800 C   0  0  0  0  0  2  0  0  0  0  0  0
  182.2030  179.2670  138.6100 C   0  0  1  0  0  3  0  0  0  0  0  0
  181.1330  179.1460  136.4490 O   0  0  0  0  0  1  0  0  0  0  0  0
  185.1030  179.3000  143.8720 C   0  0  0  0  0  2  0  0  0  0  0  0
  186.1990  178.6900  140.6870 C   0  0  0  0  0  2  0  0  0  0  0  0
  182.4110  176.8700  136.3660 O   0  0  0  0  0  1  0  0  0  0  0  0
  183.6700  178.2290  142.0470 C   0  0  2  0  0  3  0  0  0  0  0  0
  180.5420  176.2520  137.4790 F   0  0  0  0  0  0  0  0  0  0  0  0
  182.6890  178.7110  144.1620 O   0  0  0  0  0  0  0  0  0  0  0  0
  182.2970  178.5640  140.0010 C   0  0  1  0  0  0  0  0  0  0  0  0
  181.2390  178.5160  137.6940 C   0  0  1  0  0  3  0  0  0  0  0  0
  181.2990  178.6480  142.1470 C   0  0  0  0  0  2  0  0  0  0  0  0
  186.2350  177.9310  142.0050 C   0  0  0  0  0  2  0  0  0  0  0  0
  182.5320  176.6060  138.7240 C   0  0  0  0  0  2  0  0  0  0  0  0
  181.6720  177.0460  137.5370 C   0  0  2  0  0  0  0  0  0  0  0  0
  182.0390  177.1570  139.9240 O   0  0  0  0  0  0  0  0  0  0  0  0
  181.8760  180.7540  138.7020 C   0  0  0  0  0  1  0  0  0  0  0  0
  184.9560  178.3180  139.8800 C   0  0  2  0  0  3  0  0  0  0  0  0
  181.2790  179.1520  140.8210 O   0  0  0  0  0  0  0  0  0  0  0  0
  185.0910  178.9570  138.5020 C   0  0  0  0  0  2  0  0  0  0  0  0
  185.5650  175.7310  136.9720 C   0  0  0  0  0  3  0  0  0  0  0  0
  185.8120  176.9670  137.3030 C   0  0  0  0  0  0  0  0  0  0  0  0
  186.0510  178.2050  137.6390 C   0  0  0  0  0  0  0  0  0  0  0  0
  187.2260  178.9080  137.0600 C   0  0  0  0  0  1  0  0  0  0  0  0
  184.5820  173.2500  135.5530 C   0  0  0  0  0  1  0  0  0  0  0  0
  186.2800  175.1030  135.8150 C   0  0  2  0  0  3  0  0  0  0  0  0
  186.0520  173.5880  135.7240 C   0  0  1  0  0  3  0  0  0  0  0  0
  188.4510  172.9650  136.9010 S   0  0  0  0  0  0  0  0  0  0  0  0
  188.4600  174.7800  137.0590 C   0  0  0  0  0  2  0  0  0  0  0  0
  187.7730  175.4290  135.8620 C   0  0  0  0  0  2  0  0  0  0  0  0
  186.6320  172.8510  136.9250 C   0  0  0  0  0  2  0  0  0  0  0  0
  1 15  1  6  0  0  0
  1 12  1  0  0  0  0
  2 16  1  6  0  0  0
  2  7  1  0  0  0  0
  3 10  1  0  0  0  0
  5 20  1  0  0  0  0
  5 13  1  0  0  0  0
  6 14  1  0  0  0  0
  7  4  1  0  0  0  0
  8 16  1  0  0  0  0
  9 18  1  0  0  0  0
 10  1  1  0  0  0  0
 10  2  1  0  0  0  0
 11 18  1  0  0  0  0
 12  4  1  0  0  0  0
 13  3  1  0  0  0  0
 13 22  1  0  0  0  0
 14  5  1  0  0  0  0
 17 19  1  0  0  0  0
 18 14  1  0  0  0  0
 18 17  1  0  0  0  0
 19 13  1  0  0  0  0
 21  3  1  0  0  0  0
 21  8  1  0  0  0  0
 22 15  1  0  0  0  0
 23 21  1  0  0  0  0
 24 25  2  0  0  0  0
 25 26  2  0  0  0  0
 26 23  1  0  0  0  0
 27 26  1  0  0  0  0
 28 30  1  0  0  0  0
 29 33  1  0  0  0  0
 29 24  1  0  0  0  0
 30 29  1  0  0  0  0
 30 34  1  0  0  0  0
 31 34  1  0  0  0  0
 31 32  1  0  0  0  0
 33 32  1  0  0  0  0
M  END
>  <MODEL>
2

>  <REMARK>
 VINA RESULT:      -6.7      5.084      8.931
  Name = 
  3 active torsions:
  status: ('A' for Active; 'I' for Inactive)
    1  A    between atoms: C_3  and  C_13
    2  A    between atoms: C_5  and  C_18
    3  A    between atoms: C_5  and  C_31
                            x       y       z     vdW  Elec       q    Type
                         _______ _______ _______ _____ _____    ______ ____

>  <TORSDO>
F 3

$$$$
=
 OpenBabel11052414223D

 34 38  0  0  1  0  0  0  0  0999 V2000
  189.9300  172.5650  135.2900 C   0  0  2  0  0  3  0  0  0  0  0  0
  187.8810  173.2870  136.5420 C   0  0  1  0  0  3  0  0  0  0  0  0
  190.0220  174.7820  136.2640 C   0  0  2  0  0  3  0  0  0  0  0  0
  187.9810  171.6500  134.6060 C   0  0  0  0  0  2  0  0  0  0  0  0
  192.2970  175.9590  136.0850 C   0  0  1  0  0  3  0  0  0  0  0  0
  194.2800  177.2520  136.5620 O   0  0  0  0  0  1  0  0  0  0  0  0
  187.2240  172.8550  135.2310 C   0  0  0  0  0  2  0  0  0  0  0  0
  187.8300  175.7940  136.8800 C   0  0  0  0  0  2  0  0  0  0  0  0
  193.3170  177.1300  138.9860 O   0  0  0  0  0  1  0  0  0  0  0  0
  189.4110  173.3930  136.4400 C   0  0  2  0  0  3  0  0  0  0  0  0
  194.4480  175.1730  138.8930 F   0  0  0  0  0  0  0  0  0  0  0  0
  189.2270  171.3550  135.2210 O   0  0  0  0  0  0  0  0  0  0  0  0
  191.5800  174.6070  136.3940 C   0  0  1  0  0  0  0  0  0  0  0  0
  193.6200  176.0510  136.8440 C   0  0  1  0  0  3  0  0  0  0  0  0
  191.4160  172.4050  135.5400 C   0  0  0  0  0  2  0  0  0  0  0  0
  187.2030  174.4580  137.2500 C   0  0  0  0  0  2  0  0  0  0  0  0
  192.0890  175.1270  138.6280 C   0  0  0  0  0  2  0  0  0  0  0  0
  193.3910  175.8850  138.3580 C   0  0  2  0  0  0  0  0  0  0  0  0
  191.9150  174.0910  137.6880 O   0  0  0  0  0  0  0  0  0  0  0  0
  192.4630  176.2310  134.5940 C   0  0  0  0  0  1  0  0  0  0  0  0
  189.3250  175.7970  137.1960 C   0  0  2  0  0  3  0  0  0  0  0  0
  192.0470  173.6690  135.4150 O   0  0  0  0  0  0  0  0  0  0  0  0
  189.8380  177.2180  136.9890 C   0  0  0  0  0  2  0  0  0  0  0  0
  189.5140  177.1900  140.5760 C   0  0  0  0  0  3  0  0  0  0  0  0
  189.4920  177.6510  139.3570 C   0  0  0  0  0  0  0  0  0  0  0  0
  189.4730  178.1060  138.1340 C   0  0  0  0  0  0  0  0  0  0  0  0
  189.2030  179.5470  137.8900 C   0  0  0  0  0  1  0  0  0  0  0  0
  191.4220  176.9020  142.9030 C   0  0  0  0  0  1  0  0  0  0  0  0
  189.5470  178.1350  141.7390 C   0  0  2  0  0  3  0  0  0  0  0  0
  190.0180  177.4650  143.0380 C   0  0  1  0  0  3  0  0  0  0  0  0
  187.4760  177.1390  144.0150 S   0  0  0  0  0  0  0  0  0  0  0  0
  187.1150  177.8000  142.3560 C   0  0  0  0  0  2  0  0  0  0  0  0
  188.1850  178.8020  141.9310 C   0  0  0  0  0  2  0  0  0  0  0  0
  189.0530  176.3820  143.5030 C   0  0  0  0  0  2  0  0  0  0  0  0
  1 15  1  1  0  0  0
  1 10  1  0  0  0  0
  2  7  1  6  0  0  0
  2 16  1  0  0  0  0
  3 13  1  0  0  0  0
  3 10  1  0  0  0  0
  3 21  1  0  0  0  0
  4 12  1  0  0  0  0
  4  7  1  0  0  0  0
  5 13  1  0  0  0  0
  5 14  1  0  0  0  0
  6 14  1  0  0  0  0
  8 21  1  0  0  0  0
  8 16  1  0  0  0  0
 10  2  1  0  0  0  0
 12  1  1  0  0  0  0
 13 19  1  0  0  0  0
 14 18  1  0  0  0  0
 18 17  1  0  0  0  0
 18 11  1  0  0  0  0
 18  9  1  0  0  0  0
 19 17  1  0  0  0  0
 20  5  1  0  0  0  0
 22 15  1  0  0  0  0
 22 13  1  0  0  0  0
 23 21  1  0  0  0  0
 23 26  1  0  0  0  0
 24 29  1  0  0  0  0
 25 24  2  0  0  0  0
 26 25  2  0  0  0  0
 27 26  1  0  0  0  0
 28 30  1  0  0  0  0
 29 33  1  0  0  0  0
 29 30  1  0  0  0  0
 30 34  1  0  0  0  0
 32 31  1  0  0  0  0
 33 32  1  0  0  0  0
 34 31  1  0  0  0  0
M  END
>  <MODEL>
3

>  <REMARK>
 VINA RESULT:      -6.2      3.006      5.100
  Name = 
  3 active torsions:
  status: ('A' for Active; 'I' for Inactive)
    1  A    between atoms: C_3  and  C_13
    2  A    between atoms: C_5  and  C_18
    3  A    between atoms: C_5  and  C_31
                            x       y       z     vdW  Elec       q    Type
                         _______ _______ _______ _____ _____    ______ ____

>  <TORSDO>
F 3

$$$$
=
 OpenBabel11052414223D

 34 38  0  0  1  0  0  0  0  0999 V2000
  182.5260  179.0830  142.9360 C   0  0  2  0  0  3  0  0  0  0  0  0
  184.9040  178.2880  142.9060 C   0  0  1  0  0  3  0  0  0  0  0  0
  183.5050  178.7840  140.7400 C   0  0  2  0  0  3  0  0  0  0  0  0
  183.7800  179.6530  144.7270 C   0  0  0  0  0  2  0  0  0  0  0  0
  181.8830  179.0810  138.7730 C   0  0  1  0  0  3  0  0  0  0  0  0
  180.7020  178.8150  136.6830 O   0  0  0  0  0  1  0  0  0  0  0  0
  185.0570  179.4750  143.8580 C   0  0  0  0  0  2  0  0  0  0  0  0
  185.9940  178.6930  140.6600 C   0  0  0  0  0  2  0  0  0  0  0  0
  182.0170  176.5590  136.6640 O   0  0  0  0  0  1  0  0  0  0  0  0
  183.5490  178.2730  142.1790 C   0  0  2  0  0  3  0  0  0  0  0  0
  180.2220  175.9780  137.9110 F   0  0  0  0  0  0  0  0  0  0  0  0
  182.6730  178.8650  144.3130 O   0  0  0  0  0  0  0  0  0  0  0  0
  182.0640  178.4640  140.1950 C   0  0  1  0  0  0  0  0  0  0  0  0
  180.8850  178.2620  137.9550 C   0  0  1  0  0  3  0  0  0  0  0  0
  181.1800  178.6600  142.3830 C   0  0  0  0  0  2  0  0  0  0  0  0
  186.1130  178.0150  142.0160 C   0  0  0  0  0  2  0  0  0  0  0  0
  182.2680  176.4380  139.0240 C   0  0  0  0  0  2  0  0  0  0  0  0
  181.3380  176.7920  137.8610 C   0  0  2  0  0  0  0  0  0  0  0  0
  181.8290  177.0520  140.2140 O   0  0  0  0  0  0  0  0  0  0  0  0
  181.5330  180.5660  138.7950 C   0  0  0  0  0  1  0  0  0  0  0  0
  184.7170  178.2540  139.9450 C   0  0  2  0  0  3  0  0  0  0  0  0
  181.0790  179.0830  141.0330 O   0  0  0  0  0  0  0  0  0  0  0  0
  184.7660  178.8120  138.5260 C   0  0  0  0  0  2  0  0  0  0  0  0
  187.8940  177.1020  138.0110 C   0  0  0  0  0  3  0  0  0  0  0  0
  186.6660  177.4810  137.7950 C   0  0  0  0  0  0  0  0  0  0  0  0
  185.4360  177.8640  137.5850 C   0  0  0  0  0  0  0  0  0  0  0  0
  184.6580  177.2610  136.4720 C   0  0  0  0  0  1  0  0  0  0  0  0
  190.5960  175.9070  138.6480 C   0  0  0  0  0  1  0  0  0  0  0  0
  188.4360  175.8790  137.3360 C   0  0  2  0  0  3  0  0  0  0  0  0
  189.9700  175.8670  137.2650 C   0  0  1  0  0  3  0  0  0  0  0  0
  190.0460  176.7300  134.6630 S   0  0  0  0  0  0  0  0  0  0  0  0
  188.2580  176.8300  134.9960 C   0  0  0  0  0  2  0  0  0  0  0  0
  187.8240  175.7150  135.9440 C   0  0  0  0  0  2  0  0  0  0  0  0
  190.5090  177.0020  136.4040 C   0  0  0  0  0  2  0  0  0  0  0  0
  1 15  1  6  0  0  0
  1 12  1  0  0  0  0
  2 16  1  6  0  0  0
  2  7  1  0  0  0  0
  3 10  1  0  0  0  0
  5 20  1  0  0  0  0
  5 13  1  0  0  0  0
  6 14  1  0  0  0  0
  7  4  1  0  0  0  0
  8 16  1  0  0  0  0
  9 18  1  0  0  0  0
 10  2  1  0  0  0  0
 10  1  1  0  0  0  0
 12  4  1  0  0  0  0
 13 19  1  0  0  0  0
 13  3  1  0  0  0  0
 13 22  1  0  0  0  0
 14  5  1  0  0  0  0
 17 19  1  0  0  0  0
 18 11  1  0  0  0  0
 18 14  1  0  0  0  0
 18 17  1  0  0  0  0
 21  8  1  0  0  0  0
 21  3  1  0  0  0  0
 22 15  1  0  0  0  0
 23 21  1  0  0  0  0
 25 24  2  0  0  0  0
 26 25  2  0  0  0  0
 26 23  1  0  0  0  0
 27 26  1  0  0  0  0
 29 24  1  0  0  0  0
 30 29  1  0  0  0  0
 30 28  1  0  0  0  0
 31 32  1  0  0  0  0
 31 34  1  0  0  0  0
 32 33  1  0  0  0  0
 33 29  1  0  0  0  0
 34 30  1  0  0  0  0
M  END
>  <MODEL>
4

>  <REMARK>
 VINA RESULT:      -5.9      4.974      8.754
  Name = 
  3 active torsions:
  status: ('A' for Active; 'I' for Inactive)
    1  A    between atoms: C_3  and  C_13
    2  A    between atoms: C_5  and  C_18
    3  A    between atoms: C_5  and  C_31
                            x       y       z     vdW  Elec       q    Type
                         _______ _______ _______ _____ _____    ______ ____

>  <TORSDO>
F 3

$$$$
=
 OpenBabel11052414223D

 34 38  0  0  1  0  0  0  0  0999 V2000
  181.2630  179.0310  135.5780 C   0  0  2  0  0  3  0  0  0  0  0  0
  179.9990  179.1010  137.7430 C   0  0  1  0  0  3  0  0  0  0  0  0
  182.2790  177.8380  137.4270 C   0  0  2  0  0  3  0  0  0  0  0  0
  179.9730  180.8560  135.9100 C   0  0  0  0  0  2  0  0  0  0  0  0
  184.3670  176.4700  136.8260 C   0  0  1  0  0  3  0  0  0  0  0  0
  186.0350  174.7300  136.6860 O   0  0  0  0  0  1  0  0  0  0  0  0
  180.0460  180.5990  137.4410 C   0  0  0  0  0  2  0  0  0  0  0  0
  181.4650  178.4530  139.7000 C   0  0  0  0  0  2  0  0  0  0  0  0
  184.1750  173.3720  137.9160 O   0  0  0  0  0  1  0  0  0  0  0  0
  180.9370  178.2790  136.8450 C   0  0  2  0  0  3  0  0  0  0  0  0
  183.5210  173.1100  135.7670 F   0  0  0  0  0  0  0  0  0  0  0  0
  180.1180  179.6900  135.1110 O   0  0  0  0  0  0  0  0  0  0  0  0
  182.9230  176.8600  136.3760 C   0  0  1  0  0  0  0  0  0  0  0  0
  184.7360  175.0830  136.3030 C   0  0  1  0  0  3  0  0  0  0  0  0
  181.8160  177.9960  134.6190 C   0  0  0  0  0  2  0  0  0  0  0  0
  180.0480  178.7390  139.2250 C   0  0  0  0  0  2  0  0  0  0  0  0
  182.3740  174.6970  137.1100 C   0  0  0  0  0  2  0  0  0  0  0  0
  183.7130  174.0340  136.7770 C   0  0  2  0  0  0  0  0  0  0  0  0
  182.0830  175.7170  136.1820 O   0  0  0  0  0  0  0  0  0  0  0  0
  185.4170  177.5200  136.4750 C   0  0  0  0  0  1  0  0  0  0  0  0
  182.0970  177.3330  138.8740 C   0  0  2  0  0  3  0  0  0  0  0  0
  183.0590  177.5230  135.1130 O   0  0  0  0  0  0  0  0  0  0  0  0
  183.4250  176.9690  139.5300 C   0  0  0  0  0  2  0  0  0  0  0  0
  184.5900  177.8810  142.8130 C   0  0  0  0  0  3  0  0  0  0  0  0
  184.2960  178.0060  141.5500 C   0  0  0  0  0  0  0  0  0  0  0  0
  184.0010  178.1230  140.2840 C   0  0  0  0  0  0  0  0  0  0  0  0
  184.3490  179.3740  139.5620 C   0  0  0  0  0  1  0  0  0  0  0  0
  187.5380  177.3620  143.2360 C   0  0  0  0  0  1  0  0  0  0  0  0
  185.5150  178.8580  143.4730 C   0  0  2  0  0  3  0  0  0  0  0  0
  186.6870  178.1780  144.1940 C   0  0  1  0  0  3  0  0  0  0  0  0
  185.5240  178.3670  146.6700 S   0  0  0  0  0  0  0  0  0  0  0  0
  184.1780  179.0030  145.6180 C   0  0  0  0  0  2  0  0  0  0  0  0
  184.7430  179.7710  144.4270 C   0  0  0  0  0  2  0  0  0  0  0  0
  186.2170  177.3130  145.3560 C   0  0  0  0  0  2  0  0  0  0  0  0
  1 15  1  6  0  0  0
  1 10  1  0  0  0  0
  2  7  1  1  0  0  0
  2 16  1  0  0  0  0
  3 21  1  0  0  0  0
  4  7  1  0  0  0  0
 10  3  1  0  0  0  0
 10  2  1  0  0  0  0
 11 18  1  0  0  0  0
 12  1  1  0  0  0  0
 12  4  1  0  0  0  0
 13  5  1  0  0  0  0
 13  3  1  0  0  0  0
 14  6  1  0  0  0  0
 14 18  1  0  0  0  0
 14  5  1  0  0  0  0
 15 22  1  0  0  0  0
 16  8  1  0  0  0  0
 18 17  1  0  0  0  0
 18  9  1  0  0  0  0
 19 13  1  0  0  0  0
 19 17  1  0  0  0  0
 20  5  1  0  0  0  0
 21 23  1  0  0  0  0
 21  8  1  0  0  0  0
 22 13  1  0  0  0  0
 23 26  1  0  0  0  0
 24 29  1  0  0  0  0
 25 24  2  0  0  0  0
 26 25  2  0  0  0  0
 27 26  1  0  0  0  0
 28 30  1  0  0  0  0
 29 30  1  0  0  0  0
 29 33  1  0  0  0  0
 30 34  1  0  0  0  0
 32 31  1  0  0  0  0
 33 32  1  0  0  0  0
 34 31  1  0  0  0  0
M  END
>  <MODEL>
5

>  <REMARK>
 VINA RESULT:      -5.8      4.921      8.078
  Name = 
  3 active torsions:
  status: ('A' for Active; 'I' for Inactive)
    1  A    between atoms: C_3  and  C_13
    2  A    between atoms: C_5  and  C_18
    3  A    between atoms: C_5  and  C_31
                            x       y       z     vdW  Elec       q    Type
                         _______ _______ _______ _____ _____    ______ ____

>  <TORSDO>
F 3

$$$$
=
 OpenBabel11052414223D

 34 38  0  0  1  0  0  0  0  0999 V2000
  186.0590  177.9010  144.8850 C   0  0  2  0  0  3  0  0  0  0  0  0
  185.3240  179.1900  142.8640 C   0  0  1  0  0  3  0  0  0  0  0  0
  187.4880  177.7060  142.9380 C   0  0  2  0  0  3  0  0  0  0  0  0
  183.8360  178.2530  144.6930 C   0  0  0  0  0  2  0  0  0  0  0  0
  189.6750  176.4130  143.3150 C   0  0  1  0  0  3  0  0  0  0  0  0
  191.9830  175.7050  143.2770 O   0  0  0  0  0  1  0  0  0  0  0  0
  184.0230  178.4450  143.1620 C   0  0  0  0  0  2  0  0  0  0  0  0
  186.4640  178.3600  140.7630 C   0  0  0  0  0  2  0  0  0  0  0  0
  192.3000  178.0810  142.2430 O   0  0  0  0  0  1  0  0  0  0  0  0
  186.5220  178.6450  143.6570 C   0  0  2  0  0  3  0  0  0  0  0  0
  192.3470  178.5830  144.4480 F   0  0  0  0  0  0  0  0  0  0  0  0
  184.9800  178.5770  145.4700 O   0  0  0  0  0  0  0  0  0  0  0  0
  188.7020  177.4790  143.9130 C   0  0  1  0  0  0  0  0  0  0  0  0
  191.1050  176.6630  143.7930 C   0  0  1  0  0  3  0  0  0  0  0  0
  187.2780  177.7880  145.7790 C   0  0  0  0  0  2  0  0  0  0  0  0
  185.5970  179.4460  141.3830 C   0  0  0  0  0  2  0  0  0  0  0  0
  190.3510  179.0090  143.2360 C   0  0  0  0  0  2  0  0  0  0  0  0
  191.5590  178.0880  143.4260 C   0  0  2  0  0  0  0  0  0  0  0  0
  189.3550  178.7220  144.1910 O   0  0  0  0  0  0  0  0  0  0  0  0
  189.2250  174.9760  143.5570 C   0  0  0  0  0  1  0  0  0  0  0  0
  187.7870  178.2270  141.5160 C   0  0  2  0  0  3  0  0  0  0  0  0
  188.2320  176.9430  145.1570 O   0  0  0  0  0  0  0  0  0  0  0  0
  188.6750  177.2730  140.7250 C   0  0  0  0  0  2  0  0  0  0  0  0
  187.9180  175.8880  137.4880 C   0  0  0  0  0  3  0  0  0  0  0  0
  188.3100  176.7570  138.3760 C   0  0  0  0  0  0  0  0  0  0  0  0
  188.6990  177.6220  139.2720 C   0  0  0  0  0  0  0  0  0  0  0  0
  189.0560  179.0030  138.8530 C   0  0  0  0  0  1  0  0  0  0  0  0
  185.4210  177.4650  136.8430 C   0  0  0  0  0  1  0  0  0  0  0  0
  187.5570  176.3340  136.1040 C   0  0  2  0  0  3  0  0  0  0  0  0
  186.0420  176.4570  135.8910 C   0  0  1  0  0  3  0  0  0  0  0  0
  185.8310  174.0320  134.6260 S   0  0  0  0  0  0  0  0  0  0  0  0
  187.5870  174.0060  135.1120 C   0  0  0  0  0  2  0  0  0  0  0  0
  188.1820  175.4100  135.0590 C   0  0  0  0  0  2  0  0  0  0  0  0
  185.3390  175.1100  136.0110 C   0  0  0  0  0  2  0  0  0  0  0  0
  1 12  1  0  0  0  0
  1 15  1  1  0  0  0
  2 16  1  6  0  0  0
  2  7  1  0  0  0  0
  2 10  1  0  0  0  0
  3 10  1  0  0  0  0
  3 13  1  0  0  0  0
  4 12  1  0  0  0  0
  5 20  1  0  0  0  0
  5 14  1  0  0  0  0
  5 13  1  0  0  0  0
  6 14  1  0  0  0  0
  7  4  1  0  0  0  0
  8 16  1  0  0  0  0
  8 21  1  0  0  0  0
  9 18  1  0  0  0  0
 10  1  1  0  0  0  0
 13 19  1  0  0  0  0
 13 22  1  0  0  0  0
 17 18  1  0  0  0  0
 17 19  1  0  0  0  0
 18 14  1  0  0  0  0
 18 11  1  0  0  0  0
 21  3  1  0  0  0  0
 22 15  1  0  0  0  0
 23 21  1  0  0  0  0
 24 25  2  0  0  0  0
 25 26  2  0  0  0  0
 26 23  1  0  0  0  0
 27 26  1  0  0  0  0
 29 24  1  0  0  0  0
 30 34  1  0  0  0  0
 30 29  1  0  0  0  0
 30 28  1  0  0  0  0
 31 32  1  0  0  0  0
 31 34  1  0  0  0  0
 33 32  1  0  0  0  0
 33 29  1  0  0  0  0
M  END
>  <MODEL>
6

>  <REMARK>
 VINA RESULT:      -5.7      4.749      8.840
  Name = 
  3 active torsions:
  status: ('A' for Active; 'I' for Inactive)
    1  A    between atoms: C_3  and  C_13
    2  A    between atoms: C_5  and  C_18
    3  A    between atoms: C_5  and  C_31
                            x       y       z     vdW  Elec       q    Type
                         _______ _______ _______ _____ _____    ______ ____

>  <TORSDO>
F 3

$$$$
=
 OpenBabel11052414223D

 34 38  0  0  1  0  0  0  0  0999 V2000
  185.8910  178.6460  138.8120 C   0  0  2  0  0  3  0  0  0  0  0  0
  185.6340  176.9380  136.9940 C   0  0  1  0  0  3  0  0  0  0  0  0
  183.6720  178.4530  137.8580 C   0  0  2  0  0  3  0  0  0  0  0  0
  187.7460  178.2090  137.5970 C   0  0  0  0  0  2  0  0  0  0  0  0
  181.8580  179.8470  139.0250 C   0  0  1  0  0  3  0  0  0  0  0  0
  179.7850  180.5840  140.0190 O   0  0  0  0  0  1  0  0  0  0  0  0
  186.8400  177.6990  136.4420 C   0  0  0  0  0  2  0  0  0  0  0  0
  183.5330  177.3250  135.6410 C   0  0  0  0  0  2  0  0  0  0  0  0
  179.2070  178.0490  139.7760 O   0  0  0  0  0  1  0  0  0  0  0  0
  184.9470  177.6670  138.1600 C   0  0  2  0  0  3  0  0  0  0  0  0
  180.3080  178.0330  141.7520 F   0  0  0  0  0  0  0  0  0  0  0  0
  187.1730  178.0860  138.8920 O   0  0  0  0  0  0  0  0  0  0  0  0
  183.0890  178.9120  139.2460 C   0  0  1  0  0  0  0  0  0  0  0  0
  180.8840  179.7380  140.1980 C   0  0  1  0  0  3  0  0  0  0  0  0
  185.2740  178.9750  140.1560 C   0  0  0  0  0  2  0  0  0  0  0  0
  184.6850  176.3780  135.9370 C   0  0  0  0  0  2  0  0  0  0  0  0
  181.4650  177.3110  139.8080 C   0  0  0  0  0  2  0  0  0  0  0  0
  180.4360  178.2780  140.3970 C   0  0  2  0  0  0  0  0  0  0  0  0
  182.7740  177.7720  140.0530 O   0  0  0  0  0  0  0  0  0  0  0  0
  182.2400  181.2920  138.7200 C   0  0  0  0  0  1  0  0  0  0  0  0
  182.7530  177.6460  136.9160 C   0  0  2  0  0  3  0  0  0  0  0  0
  184.0670  179.6900  139.9500 O   0  0  0  0  0  0  0  0  0  0  0  0
  181.5080  178.4300  136.5110 C   0  0  0  0  0  2  0  0  0  0  0  0
  180.5140  174.9790  136.7760 C   0  0  0  0  0  3  0  0  0  0  0  0
  180.4330  176.2490  136.4960 C   0  0  0  0  0  0  0  0  0  0  0  0
  180.3590  177.5220  136.2190 C   0  0  0  0  0  0  0  0  0  0  0  0
  179.0800  178.0920  135.7220 C   0  0  0  0  0  1  0  0  0  0  0  0
  179.5180  173.7530  139.3530 C   0  0  0  0  0  1  0  0  0  0  0  0
  179.2720  174.1460  136.8690 C   0  0  2  0  0  3  0  0  0  0  0  0
  179.3350  173.1020  137.9930 C   0  0  1  0  0  3  0  0  0  0  0  0
  179.9910  171.0430  136.3040 S   0  0  0  0  0  0  0  0  0  0  0  0
  180.0220  172.4500  135.1460 C   0  0  0  0  0  2  0  0  0  0  0  0
  178.9650  173.4830  135.5250 C   0  0  0  0  0  2  0  0  0  0  0  0
  180.4250  172.0660  137.7480 C   0  0  0  0  0  2  0  0  0  0  0  0
  1 12  1  0  0  0  0
  1 15  1  1  0  0  0
  2 16  1  6  0  0  0
  2 10  1  0  0  0  0
  3 10  1  0  0  0  0
  3 13  1  0  0  0  0
  4 12  1  0  0  0  0
  5 13  1  0  0  0  0
  5 14  1  0  0  0  0
  6 14  1  0  0  0  0
  7  2  1  0  0  0  0
  7  4  1  0  0  0  0
  8 16  1  0  0  0  0
  8 21  1  0  0  0  0
  9 18  1  0  0  0  0
 10  1  1  0  0  0  0
 13 22  1  0  0  0  0
 13 19  1  0  0  0  0
 14 18  1  0  0  0  0
 17 19  1  0  0  0  0
 17 18  1  0  0  0  0
 18 11  1  0  0  0  0
 20  5  1  0  0  0  0
 21  3  1  0  0  0  0
 22 15  1  0  0  0  0
 23 21  1  0  0  0  0
 24 29  1  0  0  0  0
 25 24  2  0  0  0  0
 26 25  2  0  0  0  0
 26 23  1  0  0  0  0
 27 26  1  0  0  0  0
 29 30  1  0  0  0  0
 30 28  1  0  0  0  0
 31 34  1  0  0  0  0
 32 33  1  0  0  0  0
 32 31  1  0  0  0  0
 33 29  1  0  0  0  0
 34 30  1  0  0  0  0
M  END
>  <MODEL>
7

>  <REMARK>
 VINA RESULT:      -5.7      6.560      9.959
  Name = 
  3 active torsions:
  status: ('A' for Active; 'I' for Inactive)
    1  A    between atoms: C_3  and  C_13
    2  A    between atoms: C_5  and  C_18
    3  A    between atoms: C_5  and  C_31
                            x       y       z     vdW  Elec       q    Type
                         _______ _______ _______ _____ _____    ______ ____

>  <TORSDO>
F 3

$$$$
=
 OpenBabel11052414223D

 34 38  0  0  1  0  0  0  0  0999 V2000
  185.7790  178.1700  144.6100 C   0  0  2  0  0  3  0  0  0  0  0  0
  185.1460  179.3200  142.4730 C   0  0  1  0  0  3  0  0  0  0  0  0
  187.2210  177.7300  142.7130 C   0  0  2  0  0  3  0  0  0  0  0  0
  183.5820  178.6280  144.3470 C   0  0  0  0  0  2  0  0  0  0  0  0
  189.3250  176.3550  143.2390 C   0  0  1  0  0  3  0  0  0  0  0  0
  191.5900  175.5190  143.3030 O   0  0  0  0  0  1  0  0  0  0  0  0
  183.8000  178.6770  142.8090 C   0  0  0  0  0  2  0  0  0  0  0  0
  186.2660  178.2520  140.4720 C   0  0  0  0  0  2  0  0  0  0  0  0
  192.0560  177.7770  142.0780 O   0  0  0  0  0  1  0  0  0  0  0  0
  186.3010  178.7800  143.3320 C   0  0  2  0  0  3  0  0  0  0  0  0
  192.1010  178.4620  144.2340 F   0  0  0  0  0  0  0  0  0  0  0  0
  184.7320  178.9520  145.1150 O   0  0  0  0  0  0  0  0  0  0  0  0
  188.4070  177.5200  143.7260 C   0  0  1  0  0  0  0  0  0  0  0  0
  190.7600  176.5650  143.7210 C   0  0  1  0  0  3  0  0  0  0  0  0
  186.9770  178.0670  145.5320 C   0  0  0  0  0  2  0  0  0  0  0  0
  185.4530  179.4330  140.9820 C   0  0  0  0  0  2  0  0  0  0  0  0
  190.1490  178.8930  142.9530 C   0  0  0  0  0  2  0  0  0  0  0  0
  191.3000  177.9260  143.2420 C   0  0  2  0  0  0  0  0  0  0  0  0
  189.1250  178.7450  143.9100 O   0  0  0  0  0  0  0  0  0  0  0  0
  188.7910  174.9710  143.5930 C   0  0  0  0  0  1  0  0  0  0  0  0
  187.5690  178.1110  141.2580 C   0  0  2  0  0  3  0  0  0  0  0  0
  187.8900  177.1200  145.0030 O   0  0  0  0  0  0  0  0  0  0  0  0
  188.4120  177.0450  140.5670 C   0  0  0  0  0  2  0  0  0  0  0  0
  191.3530  176.2620  138.6410 C   0  0  0  0  0  3  0  0  0  0  0  0
  190.3510  176.9570  139.1010 C   0  0  0  0  0  0  0  0  0  0  0  0
  189.3450  177.6450  139.5660 C   0  0  0  0  0  0  0  0  0  0  0  0
  189.0560  178.9920  139.0070 C   0  0  0  0  0  1  0  0  0  0  0  0
  189.9910  176.3300  135.9440 C   0  0  0  0  0  1  0  0  0  0  0  0
  192.0420  176.6790  137.3780 C   0  0  2  0  0  3  0  0  0  0  0  0
  191.4610  176.0000  136.1290 C   0  0  1  0  0  3  0  0  0  0  0  0
  193.4450  174.1100  135.9990 S   0  0  0  0  0  0  0  0  0  0  0  0
  193.8820  174.9500  137.5570 C   0  0  0  0  0  2  0  0  0  0  0  0
  193.5490  176.4370  137.4800 C   0  0  0  0  0  2  0  0  0  0  0  0
  191.6700  174.4910  136.1510 C   0  0  0  0  0  2  0  0  0  0  0  0
  1 12  1  0  0  0  0
  1 15  1  1  0  0  0
  2 16  1  6  0  0  0
  2  7  1  0  0  0  0
  2 10  1  0  0  0  0
  3 10  1  0  0  0  0
  3 13  1  0  0  0  0
  4 12  1  0  0  0  0
  5 20  1  0  0  0  0
  5 14  1  0  0  0  0
  5 13  1  0  0  0  0
  6 14  1  0  0  0  0
  7  4  1  0  0  0  0
  8 16  1  0  0  0  0
  8 21  1  0  0  0  0
  9 18  1  0  0  0  0
 10  1  1  0  0  0  0
 13 19  1  0  0  0  0
 13 22  1  0  0  0  0
 17 18  1  0  0  0  0
 17 19  1  0  0  0  0
 18 14  1  0  0  0  0
 18 11  1  0  0  0  0
 21  3  1  0  0  0  0
 22 15  1  0  0  0  0
 23 21  1  0  0  0  0
 24 25  2  0  0  0  0
 25 26  2  0  0  0  0
 26 23  1  0  0  0  0
 27 26  1  0  0  0  0
 28 30  1  0  0  0  0
 29 33  1  0  0  0  0
 29 24  1  0  0  0  0
 30 34  1  0  0  0  0
 30 29  1  0  0  0  0
 31 34  1  0  0  0  0
 31 32  1  0  0  0  0
 33 32  1  0  0  0  0
M  END
>  <MODEL>
8

>  <REMARK>
 VINA RESULT:      -5.7      4.279      8.419
  Name = 
  3 active torsions:
  status: ('A' for Active; 'I' for Inactive)
    1  A    between atoms: C_3  and  C_13
    2  A    between atoms: C_5  and  C_18
    3  A    between atoms: C_5  and  C_31
                            x       y       z     vdW  Elec       q    Type
                         _______ _______ _______ _____ _____    ______ ____

>  <TORSDO>
F 3

$$$$
=
 OpenBabel11052414223D

 34 38  0  0  1  0  0  0  0  0999 V2000
  188.9510  177.2920  141.0700 C   0  0  2  0  0  3  0  0  0  0  0  0
  187.0810  178.8520  141.6670 C   0  0  1  0  0  3  0  0  0  0  0  0
  187.1890  177.4990  139.4190 C   0  0  2  0  0  3  0  0  0  0  0  0
  188.5440  177.5460  143.2780 C   0  0  0  0  0  2  0  0  0  0  0  0
  187.6270  176.2870  137.1990 C   0  0  1  0  0  3  0  0  0  0  0  0
  187.7630  175.7250  134.8540 O   0  0  0  0  0  1  0  0  0  0  0  0
  187.0960  177.9960  142.9340 C   0  0  0  0  0  2  0  0  0  0  0  0
  185.0340  178.4430  140.2390 C   0  0  0  0  0  2  0  0  0  0  0  0
  187.1610  178.2530  134.6020 O   0  0  0  0  0  1  0  0  0  0  0  0
  187.9220  178.2530  140.5280 C   0  0  2  0  0  3  0  0  0  0  0  0
  189.4060  178.3880  134.8420 F   0  0  0  0  0  0  0  0  0  0  0  0
  189.4970  177.8010  142.2560 O   0  0  0  0  0  0  0  0  0  0  0  0
  188.2590  177.1840  138.3100 C   0  0  1  0  0  0  0  0  0  0  0  0
  188.3110  176.5350  135.8550 C   0  0  1  0  0  3  0  0  0  0  0  0
  189.9600  177.1030  139.9550 C   0  0  0  0  0  2  0  0  0  0  0  0
  185.7040  179.3620  141.2490 C   0  0  0  0  0  2  0  0  0  0  0  0
  188.0380  178.8940  136.7150 C   0  0  0  0  0  2  0  0  0  0  0  0
  188.2290  178.0240  135.4710 C   0  0  2  0  0  0  0  0  0  0  0  0
  188.8070  178.4000  137.7880 O   0  0  0  0  0  0  0  0  0  0  0  0
  187.5850  174.8070  137.5630 C   0  0  0  0  0  1  0  0  0  0  0  0
  185.9140  178.2630  139.0030 C   0  0  2  0  0  3  0  0  0  0  0  0
  189.3370  176.4260  138.8760 O   0  0  0  0  0  0  0  0  0  0  0  0
  185.0990  177.5030  137.9610 C   0  0  0  0  0  2  0  0  0  0  0  0
  182.1350  179.5420  138.1270 C   0  0  0  0  0  3  0  0  0  0  0  0
  182.8920  178.4860  138.2340 C   0  0  0  0  0  0  0  0  0  0  0  0
  183.6550  177.4330  138.3380 C   0  0  0  0  0  0  0  0  0  0  0  0
  183.0570  176.1270  138.7180 C   0  0  0  0  0  1  0  0  0  0  0  0
  180.3200  181.2660  136.4340 C   0  0  0  0  0  1  0  0  0  0  0  0
  180.6430  179.4020  138.1100 C   0  0  2  0  0  3  0  0  0  0  0  0
  179.9240  180.7220  137.7950 C   0  0  1  0  0  3  0  0  0  0  0  0
  179.3450  181.2530  140.4240 S   0  0  0  0  0  0  0  0  0  0  0  0
  180.3660  179.7540  140.6010 C   0  0  0  0  0  2  0  0  0  0  0  0
  180.1420  178.8070  139.4260 C   0  0  0  0  0  2  0  0  0  0  0  0
  180.1580  181.7690  138.8760 C   0  0  0  0  0  2  0  0  0  0  0  0
  1 15  1  6  0  0  0
  1 12  1  0  0  0  0
  2 16  1  6  0  0  0
  2  7  1  0  0  0  0
  3 10  1  0  0  0  0
  5 20  1  0  0  0  0
  5 13  1  0  0  0  0
  6 14  1  0  0  0  0
  7  4  1  0  0  0  0
  8 16  1  0  0  0  0
  9 18  1  0  0  0  0
 10  1  1  0  0  0  0
 10  2  1  0  0  0  0
 11 18  1  0  0  0  0
 12  4  1  0  0  0  0
 13 22  1  0  0  0  0
 13  3  1  0  0  0  0
 14  5  1  0  0  0  0
 17 19  1  0  0  0  0
 18 14  1  0  0  0  0
 18 17  1  0  0  0  0
 19 13  1  0  0  0  0
 21  3  1  0  0  0  0
 21  8  1  0  0  0  0
 22 15  1  0  0  0  0
 23 26  1  0  0  0  0
 23 21  1  0  0  0  0
 24 25  2  0  0  0  0
 25 26  2  0  0  0  0
 26 27  1  0  0  0  0
 28 30  1  0  0  0  0
 29 24  1  0  0  0  0
 29 33  1  0  0  0  0
 30 29  1  0  0  0  0
 30 34  1  0  0  0  0
 31 32  1  0  0  0  0
 33 32  1  0  0  0  0
 34 31  1  0  0  0  0
M  END
>  <MODEL>
9

>  <REMARK>
 VINA RESULT:      -5.6      4.644      7.430
  Name = 
  3 active torsions:
  status: ('A' for Active; 'I' for Inactive)
    1  A    between atoms: C_3  and  C_13
    2  A    between atoms: C_5  and  C_18
    3  A    between atoms: C_5  and  C_31
                            x       y       z     vdW  Elec       q    Type
                         _______ _______ _______ _____ _____    ______ ____

>  <TORSDO>
F 3

$$$$
