=
 OpenBabel11052414213D

 34 37  0  0  1  0  0  0  0  0999 V2000
  186.5460  176.6260  136.3180 C   0  0  0  0  0  0  0  0  0  0  0  0
  188.7660  176.9240  137.2880 C   0  0  0  0  0  0  0  0  0  0  0  0
  186.7890  177.8590  138.4230 C   0  0  0  0  0  0  0  0  0  0  0  0
  187.3750  178.3860  140.7340 C   0  0  0  0  0  0  0  0  0  0  0  0
  188.4910  175.7050  135.2080 C   0  0  0  0  0  3  0  0  0  0  0  0
  189.3120  176.2020  136.2230 C   0  0  0  0  0  3  0  0  0  0  0  0
  189.1350  178.6100  139.1050 C   0  0  0  0  0  2  0  0  0  0  0  0
  187.3680  177.1400  137.3490 C   0  0  0  0  0  0  0  0  0  0  0  0
  187.0480  178.3350  141.9930 C   0  0  0  0  0  3  0  0  0  0  0  0
  187.1120  175.9160  135.2570 C   0  0  0  0  0  3  0  0  0  0  0  0
  185.3840  178.0570  138.4440 C   0  0  0  0  0  0  0  0  0  0  0  0
  185.1680  176.8240  136.3580 C   0  0  0  0  0  3  0  0  0  0  0  0
  189.6750  177.3680  138.4000 C   0  0  0  0  0  2  0  0  0  0  0  0
  187.6990  178.4020  139.4690 C   0  0  0  0  0  0  0  0  0  0  0  0
  184.5930  177.5350  137.4090 C   0  0  0  0  0  3  0  0  0  0  0  0
  184.6500  180.2120  139.1280 O   0  0  0  0  0  1  0  0  0  0  0  0
  184.7180  178.8710  139.5130 C   0  0  1  0  0  3  0  0  0  0  0  0
  183.4460  178.8500  142.0660 O   0  0  0  0  0  1  0  0  0  0  0  0
  181.5000  177.9420  141.2710 O   0  0  0  0  0  0  0  0  0  0  0  0
  183.3800  178.3620  139.7820 N   0  0  0  0  0  2  0  0  0  0  0  0
  182.7950  178.4050  141.0840 C   0  0  0  0  0  0  0  0  0  0  0  0
  187.3860  177.1140  142.7860 C   0  0  0  0  0  2  0  0  0  0  0  0
  188.5780  177.3360  143.7240 C   0  0  1  0  0  3  0  0  0  0  0  0
  190.2330  176.0200  141.5320 O   0  0  0  0  0  1  0  0  0  0  0  0
  189.8110  177.9230  142.9990 C   0  0  2  0  0  3  0  0  0  0  0  0
  190.7970  176.8470  142.5030 C   0  0  1  0  0  3  0  0  0  0  0  0
  191.5470  176.8180  144.9460 C   0  0  0  0  0  2  0  0  0  0  0  0
  191.7580  178.3040  144.6660 C   0  0  0  0  0  2  0  0  0  0  0  0
  190.5650  178.9150  143.9120 C   0  0  0  0  0  2  0  0  0  0  0  0
  191.3960  176.0170  143.6450 C   0  0  0  0  0  2  0  0  0  0  0  0
  188.1650  178.1890  144.9280 C   0  0  0  0  0  2  0  0  0  0  0  0
  187.4620  177.3630  145.9930 C   0  0  0  0  0  3  0  0  0  0  0  0
  188.2770  177.4050  147.2670 C   0  0  0  0  0  1  0  0  0  0  0  0
  186.0810  177.9230  146.2760 C   0  0  0  0  0  1  0  0  0  0  0  0
  1 12  2  0  0  0  0
  1  8  1  0  0  0  0
  2  8  1  0  0  0  0
  2 13  1  0  0  0  0
  3 11  1  0  0  0  0
  3 14  1  0  0  0  0
  4  9  2  0  0  0  0
  5 10  2  0  0  0  0
  5  6  1  0  0  0  0
  6  2  2  0  0  0  0
  7 14  1  0  0  0  0
  8  3  2  0  0  0  0
  9 22  1  0  0  0  0
 10  1  1  0  0  0  0
 11 17  1  0  0  0  0
 12 15  1  0  0  0  0
 13  7  1  0  0  0  0
 14  4  2  0  0  0  0
 15 11  2  0  0  0  0
 17 16  1  6  0  0  0
 17 20  1  0  0  0  0
 20 21  1  0  0  0  0
 21 19  2  0  0  0  0
 21 18  1  0  0  0  0
 23 22  1  6  0  0  0
 23 31  1  0  0  0  0
 25 23  1  1  0  0  0
 25 29  1  0  0  0  0
 26 24  1  6  0  0  0
 26 25  1  0  0  0  0
 26 30  1  0  0  0  0
 28 27  1  0  0  0  0
 29 28  1  0  0  0  0
 30 27  1  0  0  0  0
 31 32  1  0  0  0  0
 32 34  1  0  0  0  0
 32 33  1  0  0  0  0
M  END
>  <MODEL>
1

>  <REMARK>
 VINA RESULT:      -8.8      0.000      0.000
  Name = 
  7 active torsions:
  status: ('A' for Active; 'I' for Inactive)
    1  A    between atoms: C_3  and  C_13
    2  A    between atoms: C_3  and  C_17
    3  A    between atoms: C_3  and  C_29
    4  A    between atoms: C_7  and  C_17
    5  A    between atoms: C_18  and  C_29
    6  A    between atoms: C_21  and  C_28
    7  A    between atoms: N_23  and  C_28
                            x       y       z     vdW  Elec       q    Type
                         _______ _______ _______ _____ _____    ______ ____

>  <TORSDO>
F 7

$$$$
=
 OpenBabel11052414213D

 34 37  0  0  1  0  0  0  0  0999 V2000
  185.8810  178.7960  145.9910 C   0  0  0  0  0  0  0  0  0  0  0  0
  187.9780  177.6090  145.6080 C   0  0  0  0  0  0  0  0  0  0  0  0
  186.3480  177.8560  143.7750 C   0  0  0  0  0  0  0  0  0  0  0  0
  187.4640  177.3960  141.6530 C   0  0  0  0  0  0  0  0  0  0  0  0
  187.4860  178.5550  147.7870 C   0  0  0  0  0  3  0  0  0  0  0  0
  188.3440  177.8560  146.9340 C   0  0  0  0  0  3  0  0  0  0  0  0
  188.2660  176.1790  143.5700 C   0  0  0  0  0  2  0  0  0  0  0  0
  186.7370  178.0840  145.1180 C   0  0  0  0  0  0  0  0  0  0  0  0
  187.6640  177.7460  140.4150 C   0  0  0  0  0  3  0  0  0  0  0  0
  186.2580  179.0240  147.3160 C   0  0  0  0  0  3  0  0  0  0  0  0
  185.0950  178.3460  143.3270 C   0  0  0  0  0  0  0  0  0  0  0  0
  184.6560  179.2760  145.5310 C   0  0  0  0  0  3  0  0  0  0  0  0
  188.9650  176.9260  144.7030 C   0  0  0  0  0  2  0  0  0  0  0  0
  187.2730  177.0790  142.9050 C   0  0  0  0  0  0  0  0  0  0  0  0
  184.2660  179.0500  144.2130 C   0  0  0  0  0  3  0  0  0  0  0  0
  183.2880  177.5780  141.9860 O   0  0  0  0  0  1  0  0  0  0  0  0
  184.5930  178.0760  141.9390 C   0  0  1  0  0  3  0  0  0  0  0  0
  184.3800  178.1790  139.0980 O   0  0  0  0  0  1  0  0  0  0  0  0
  184.5030  180.4640  139.0080 O   0  0  0  0  0  0  0  0  0  0  0  0
  184.6330  179.2900  141.1370 N   0  0  0  0  0  2  0  0  0  0  0  0
  184.4960  179.2700  139.7160 C   0  0  0  0  0  0  0  0  0  0  0  0
  188.7260  178.7500  140.1030 C   0  0  0  0  0  2  0  0  0  0  0  0
  189.8420  178.1690  139.2260 C   0  0  1  0  0  3  0  0  0  0  0  0
  191.1300  177.4120  141.8800 O   0  0  0  0  0  1  0  0  0  0  0  0
  190.2940  176.7620  139.6830 C   0  0  2  0  0  3  0  0  0  0  0  0
  191.4700  176.7920  140.6780 C   0  0  1  0  0  3  0  0  0  0  0  0
  192.8670  177.1710  138.5730 C   0  0  0  0  0  2  0  0  0  0  0  0
  192.1880  175.8680  138.1570 C   0  0  0  0  0  2  0  0  0  0  0  0
  190.6820  175.8890  138.4700 C   0  0  0  0  0  2  0  0  0  0  0  0
  192.7390  177.4150  140.0820 C   0  0  0  0  0  2  0  0  0  0  0  0
  189.4320  178.1850  137.7500 C   0  0  0  0  0  2  0  0  0  0  0  0
  187.9290  178.0290  137.5780 C   0  0  0  0  0  3  0  0  0  0  0  0
  187.4290  179.0950  136.6280 C   0  0  0  0  0  1  0  0  0  0  0  0
  187.5970  176.6660  137.0020 C   0  0  0  0  0  1  0  0  0  0  0  0
  1 10  2  0  0  0  0
  2  6  1  0  0  0  0
  3  8  1  0  0  0  0
  4 14  2  0  0  0  0
  6  5  2  0  0  0  0
  7 13  1  0  0  0  0
  8  2  2  0  0  0  0
  8  1  1  0  0  0  0
  9  4  2  0  0  0  0
 10  5  1  0  0  0  0
 11  3  2  0  0  0  0
 11 15  1  0  0  0  0
 12  1  1  0  0  0  0
 13  2  1  0  0  0  0
 14  7  1  0  0  0  0
 14  3  1  0  0  0  0
 15 12  2  0  0  0  0
 17 16  1  1  0  0  0
 17 11  1  0  0  0  0
 18 21  1  0  0  0  0
 19 21  2  0  0  0  0
 20 17  1  0  0  0  0
 21 20  1  0  0  0  0
 22  9  1  0  0  0  0
 23 31  1  6  0  0  0
 23 22  1  0  0  0  0
 25 23  1  6  0  0  0
 25 26  1  0  0  0  0
 26 24  1  1  0  0  0
 27 30  1  0  0  0  0
 28 29  1  0  0  0  0
 28 27  1  0  0  0  0
 29 25  1  0  0  0  0
 30 26  1  0  0  0  0
 32 31  1  0  0  0  0
 33 32  1  0  0  0  0
 34 32  1  0  0  0  0
M  END
>  <MODEL>
2

>  <REMARK>
 VINA RESULT:      -8.1      1.734      6.741
  Name = 
  7 active torsions:
  status: ('A' for Active; 'I' for Inactive)
    1  A    between atoms: C_3  and  C_13
    2  A    between atoms: C_3  and  C_17
    3  A    between atoms: C_3  and  C_29
    4  A    between atoms: C_7  and  C_17
    5  A    between atoms: C_18  and  C_29
    6  A    between atoms: C_21  and  C_28
    7  A    between atoms: N_23  and  C_28
                            x       y       z     vdW  Elec       q    Type
                         _______ _______ _______ _____ _____    ______ ____

>  <TORSDO>
F 7

$$$$
=
 OpenBabel11052414213D

 34 37  0  0  1  0  0  0  0  0999 V2000
  187.7400  177.3990  145.2740 C   0  0  0  0  0  0  0  0  0  0  0  0
  185.5880  178.5140  145.5660 C   0  0  0  0  0  0  0  0  0  0  0  0
  186.5830  178.3240  143.3190 C   0  0  0  0  0  0  0  0  0  0  0  0
  184.8560  178.7460  141.6470 C   0  0  0  0  0  0  0  0  0  0  0  0
  186.7560  177.5850  147.4780 C   0  0  0  0  0  3  0  0  0  0  0  0
  185.6560  178.2540  146.9370 C   0  0  0  0  0  3  0  0  0  0  0  0
  184.6410  179.9340  143.7310 C   0  0  0  0  0  2  0  0  0  0  0  0
  186.6340  178.0820  144.7140 C   0  0  0  0  0  0  0  0  0  0  0  0
  184.2960  178.3900  140.5260 C   0  0  0  0  0  3  0  0  0  0  0  0
  187.7940  177.1580  146.6480 C   0  0  0  0  0  3  0  0  0  0  0  0
  187.6540  177.8780  142.5030 C   0  0  0  0  0  0  0  0  0  0  0  0
  188.7790  176.9630  144.4560 C   0  0  0  0  0  3  0  0  0  0  0  0
  184.3490  179.1620  145.0150 C   0  0  0  0  0  2  0  0  0  0  0  0
  185.4110  179.0690  142.7840 C   0  0  0  0  0  0  0  0  0  0  0  0
  188.7370  177.2030  143.0840 C   0  0  0  0  0  3  0  0  0  0  0  0
  188.0380  179.5030  140.8100 O   0  0  0  0  0  1  0  0  0  0  0  0
  187.6960  178.1660  141.0310 C   0  0  1  0  0  3  0  0  0  0  0  0
  187.8340  177.7090  138.2200 O   0  0  0  0  0  0  0  0  0  0  0  0
  189.6420  176.3120  138.3700 O   0  0  0  0  0  1  0  0  0  0  0  0
  188.6540  177.2920  140.3670 N   0  0  0  0  0  2  0  0  0  0  0  0
  188.6800  177.1280  138.9490 C   0  0  0  0  0  0  0  0  0  0  0  0
  183.2230  177.3500  140.5440 C   0  0  0  0  0  2  0  0  0  0  0  0
  181.8460  177.9240  140.1910 C   0  0  1  0  0  3  0  0  0  0  0  0
  182.9660  177.8770  137.3580 O   0  0  0  0  0  1  0  0  0  0  0  0
  181.2190  177.2560  138.9440 C   0  0  2  0  0  3  0  0  0  0  0  0
  181.5980  177.9520  137.6230 C   0  0  1  0  0  3  0  0  0  0  0  0
  179.7990  179.6260  138.3240 C   0  0  0  0  0  2  0  0  0  0  0  0
  178.9490  178.3590  138.3580 C   0  0  0  0  0  2  0  0  0  0  0  0
  179.6800  177.2040  139.0630 C   0  0  0  0  0  2  0  0  0  0  0  0
  181.1080  179.4050  137.5540 C   0  0  0  0  0  2  0  0  0  0  0  0
  180.9090  177.8620  141.4020 C   0  0  0  0  0  2  0  0  0  0  0  0
  181.1020  179.0510  142.3290 C   0  0  0  0  0  3  0  0  0  0  0  0
  180.0550  180.0970  142.0120 C   0  0  0  0  0  1  0  0  0  0  0  0
  180.9490  178.6280  143.7770 C   0  0  0  0  0  1  0  0  0  0  0  0
  1 10  2  0  0  0  0
  2  6  1  0  0  0  0
  3  8  1  0  0  0  0
  4 14  2  0  0  0  0
  6  5  2  0  0  0  0
  7 13  1  0  0  0  0
  8  1  1  0  0  0  0
  8  2  2  0  0  0  0
  9 22  1  0  0  0  0
  9  4  2  0  0  0  0
 10  5  1  0  0  0  0
 11 15  1  0  0  0  0
 11  3  2  0  0  0  0
 12  1  1  0  0  0  0
 13  2  1  0  0  0  0
 14  3  1  0  0  0  0
 14  7  1  0  0  0  0
 15 12  2  0  0  0  0
 17 16  1  1  0  0  0
 17 11  1  0  0  0  0
 18 21  2  0  0  0  0
 19 21  1  0  0  0  0
 20 17  1  0  0  0  0
 21 20  1  0  0  0  0
 23 22  1  1  0  0  0
 23 31  1  0  0  0  0
 25 29  1  0  0  0  0
 25 23  1  1  0  0  0
 26 24  1  1  0  0  0
 26 25  1  0  0  0  0
 27 28  1  0  0  0  0
 28 29  1  0  0  0  0
 30 26  1  0  0  0  0
 30 27  1  0  0  0  0
 31 32  1  0  0  0  0
 32 34  1  0  0  0  0
 33 32  1  0  0  0  0
M  END
>  <MODEL>
3

>  <REMARK>
 VINA RESULT:      -8.1      2.692      8.542
  Name = 
  7 active torsions:
  status: ('A' for Active; 'I' for Inactive)
    1  A    between atoms: C_3  and  C_13
    2  A    between atoms: C_3  and  C_17
    3  A    between atoms: C_3  and  C_29
    4  A    between atoms: C_7  and  C_17
    5  A    between atoms: C_18  and  C_29
    6  A    between atoms: C_21  and  C_28
    7  A    between atoms: N_23  and  C_28
                            x       y       z     vdW  Elec       q    Type
                         _______ _______ _______ _____ _____    ______ ____

>  <TORSDO>
F 7

$$$$
=
 OpenBabel11052414213D

 34 37  0  0  1  0  0  0  0  0999 V2000
  188.5990  174.7880  136.2900 C   0  0  0  0  0  0  0  0  0  0  0  0
  190.6000  175.1680  137.6340 C   0  0  0  0  0  0  0  0  0  0  0  0
  188.6220  176.6080  137.9330 C   0  0  0  0  0  0  0  0  0  0  0  0
  188.8180  177.7960  140.0560 C   0  0  0  0  0  0  0  0  0  0  0  0
  190.5420  173.3730  136.0030 C   0  0  0  0  0  3  0  0  0  0  0  0
  191.2170  174.0900  136.9940 C   0  0  0  0  0  3  0  0  0  0  0  0
  190.8780  177.3080  138.9090 C   0  0  0  0  0  2  0  0  0  0  0  0
  189.2740  175.5260  137.2910 C   0  0  0  0  0  0  0  0  0  0  0  0
  188.2440  178.1880  141.1570 C   0  0  0  0  0  3  0  0  0  0  0  0
  189.2360  173.7210  135.6530 C   0  0  0  0  0  3  0  0  0  0  0  0
  187.2950  176.9360  137.5550 C   0  0  0  0  0  0  0  0  0  0  0  0
  187.2930  175.1210  135.9360 C   0  0  0  0  0  3  0  0  0  0  0  0
  191.3310  175.8590  138.7510 C   0  0  0  0  0  2  0  0  0  0  0  0
  189.3850  177.3690  138.9600 C   0  0  0  0  0  0  0  0  0  0  0  0
  186.6490  176.1870  136.5610 C   0  0  0  0  0  3  0  0  0  0  0  0
  186.8190  179.2590  137.3820 O   0  0  0  0  0  1  0  0  0  0  0  0
  186.5750  178.1140  138.1440 C   0  0  1  0  0  3  0  0  0  0  0  0
  184.6650  179.7650  139.4690 O   0  0  0  0  0  1  0  0  0  0  0  0
  182.8800  178.4630  138.8680 O   0  0  0  0  0  0  0  0  0  0  0  0
  185.1440  177.8560  138.2100 N   0  0  0  0  0  2  0  0  0  0  0  0
  184.2400  178.7410  138.8730 C   0  0  0  0  0  0  0  0  0  0  0  0
  188.2080  177.2640  142.3310 C   0  0  0  0  0  2  0  0  0  0  0  0
  187.6600  177.9400  143.5930 C   0  0  1  0  0  3  0  0  0  0  0  0
  184.9010  177.9340  142.3010 O   0  0  0  0  0  1  0  0  0  0  0  0
  186.3750  177.2630  144.1260 C   0  0  2  0  0  3  0  0  0  0  0  0
  185.0820  177.9750  143.6830 C   0  0  1  0  0  3  0  0  0  0  0  0
  185.6760  179.6030  145.5620 C   0  0  0  0  0  2  0  0  0  0  0  0
  185.6540  178.3150  146.3810 C   0  0  0  0  0  2  0  0  0  0  0  0
  186.3990  177.1750  145.6670 C   0  0  0  0  0  2  0  0  0  0  0  0
  184.9880  179.4160  144.2030 C   0  0  0  0  0  2  0  0  0  0  0  0
  188.7450  178.0310  144.6710 C   0  0  0  0  0  2  0  0  0  0  0  0
  190.1280  177.7460  144.1080 C   0  0  0  0  0  3  0  0  0  0  0  0
  190.8700  179.0540  143.9400 C   0  0  0  0  0  1  0  0  0  0  0  0
  190.9140  176.8550  145.0510 C   0  0  0  0  0  1  0  0  0  0  0  0
  1  8  1  0  0  0  0
  2 13  1  0  0  0  0
  3 14  1  0  0  0  0
  4  9  2  0  0  0  0
  5  6  1  0  0  0  0
  6  2  2  0  0  0  0
  7 14  1  0  0  0  0
  8  2  1  0  0  0  0
  8  3  2  0  0  0  0
  9 22  1  0  0  0  0
 10  5  2  0  0  0  0
 10  1  1  0  0  0  0
 11  3  1  0  0  0  0
 11 17  1  0  0  0  0
 12  1  2  0  0  0  0
 12 15  1  0  0  0  0
 13  7  1  0  0  0  0
 14  4  2  0  0  0  0
 15 11  2  0  0  0  0
 17 16  1  6  0  0  0
 17 20  1  0  0  0  0
 19 21  2  0  0  0  0
 20 21  1  0  0  0  0
 21 18  1  0  0  0  0
 23 22  1  6  0  0  0
 23 31  1  0  0  0  0
 25 23  1  1  0  0  0
 25 29  1  0  0  0  0
 26 24  1  6  0  0  0
 26 25  1  0  0  0  0
 26 30  1  0  0  0  0
 27 28  1  0  0  0  0
 29 28  1  0  0  0  0
 30 27  1  0  0  0  0
 32 31  1  0  0  0  0
 32 34  1  0  0  0  0
 33 32  1  0  0  0  0
M  END
>  <MODEL>
4

>  <REMARK>
 VINA RESULT:      -8.0      1.708      3.591
  Name = 
  7 active torsions:
  status: ('A' for Active; 'I' for Inactive)
    1  A    between atoms: C_3  and  C_13
    2  A    between atoms: C_3  and  C_17
    3  A    between atoms: C_3  and  C_29
    4  A    between atoms: C_7  and  C_17
    5  A    between atoms: C_18  and  C_29
    6  A    between atoms: C_21  and  C_28
    7  A    between atoms: N_23  and  C_28
                            x       y       z     vdW  Elec       q    Type
                         _______ _______ _______ _____ _____    ______ ____

>  <TORSDO>
F 7

$$$$
=
 OpenBabel11052414213D

 34 37  0  0  1  0  0  0  0  0999 V2000
  186.7450  177.8930  145.2740 C   0  0  0  0  0  0  0  0  0  0  0  0
  185.6820  178.4920  143.1610 C   0  0  0  0  0  0  0  0  0  0  0  0
  188.1290  178.2320  143.2780 C   0  0  0  0  0  0  0  0  0  0  0  0
  189.0120  177.9910  141.0150 C   0  0  0  0  0  0  0  0  0  0  0  0
  184.3410  178.1460  145.1530 C   0  0  0  0  0  3  0  0  0  0  0  0
  184.4360  178.4500  143.7930 C   0  0  0  0  0  3  0  0  0  0  0  0
  187.0560  179.3740  141.2590 C   0  0  0  0  0  2  0  0  0  0  0  0
  186.8560  178.2070  143.8990 C   0  0  0  0  0  0  0  0  0  0  0  0
  189.8120  177.3590  140.2060 C   0  0  0  0  0  3  0  0  0  0  0  0
  185.4930  177.8670  145.8910 C   0  0  0  0  0  3  0  0  0  0  0  0
  189.2810  177.9450  144.0550 C   0  0  0  0  0  0  0  0  0  0  0  0
  187.8870  177.6070  146.0200 C   0  0  0  0  0  3  0  0  0  0  0  0
  185.7300  178.7420  141.6800 C   0  0  0  0  0  2  0  0  0  0  0  0
  188.1940  178.5940  141.8360 C   0  0  0  0  0  0  0  0  0  0  0  0
  189.1420  177.6360  145.4160 C   0  0  0  0  0  3  0  0  0  0  0  0
  191.2160  179.2850  143.7210 O   0  0  0  0  0  1  0  0  0  0  0  0
  190.6630  178.0250  143.4770 C   0  0  1  0  0  3  0  0  0  0  0  0
  190.5370  175.2520  142.8270 O   0  0  0  0  0  0  0  0  0  0  0  0
  192.2790  174.6840  144.2010 O   0  0  0  0  0  1  0  0  0  0  0  0
  191.5150  176.9900  144.0440 N   0  0  0  0  0  2  0  0  0  0  0  0
  191.4120  175.6200  143.6540 C   0  0  0  0  0  0  0  0  0  0  0  0
  189.3390  176.1060  139.5430 C   0  0  0  0  0  2  0  0  0  0  0  0
  189.0730  176.3000  138.0450 C   0  0  1  0  0  3  0  0  0  0  0  0
  191.6060  174.6090  137.9970 O   0  0  0  0  0  1  0  0  0  0  0  0
  189.3310  175.0190  137.2180 C   0  0  2  0  0  3  0  0  0  0  0  0
  190.8160  174.8080  136.8650 C   0  0  1  0  0  3  0  0  0  0  0  0
  190.3360  176.5510  135.0590 C   0  0  0  0  0  2  0  0  0  0  0  0
  189.2600  175.5360  134.6800 C   0  0  0  0  0  2  0  0  0  0  0  0
  188.4990  175.0280  135.9170 C   0  0  0  0  0  2  0  0  0  0  0  0
  191.3860  175.9350  135.9930 C   0  0  0  0  0  2  0  0  0  0  0  0
  187.6630  176.8530  137.8150 C   0  0  0  0  0  2  0  0  0  0  0  0
  187.6920  178.2880  137.3140 C   0  0  0  0  0  3  0  0  0  0  0  0
  189.1240  178.7750  137.2990 C   0  0  0  0  0  1  0  0  0  0  0  0
  187.1320  178.3710  135.9060 C   0  0  0  0  0  1  0  0  0  0  0  0
  1 10  1  0  0  0  0
  1 12  1  0  0  0  0
  2  6  2  0  0  0  0
  2  8  1  0  0  0  0
  3  8  1  0  0  0  0
  3 11  2  0  0  0  0
  4 14  2  0  0  0  0
  5 10  2  0  0  0  0
  6  5  1  0  0  0  0
  7 13  1  0  0  0  0
  7 14  1  0  0  0  0
  8  1  2  0  0  0  0
  9  4  2  0  0  0  0
 11 15  1  0  0  0  0
 13  2  1  0  0  0  0
 14  3  1  0  0  0  0
 15 12  2  0  0  0  0
 17 16  1  1  0  0  0
 17 20  1  0  0  0  0
 17 11  1  0  0  0  0
 18 21  2  0  0  0  0
 21 20  1  0  0  0  0
 21 19  1  0  0  0  0
 22  9  1  0  0  0  0
 23 31  1  1  0  0  0
 23 22  1  0  0  0  0
 25 23  1  6  0  0  0
 26 25  1  0  0  0  0
 26 24  1  1  0  0  0
 27 30  1  0  0  0  0
 28 27  1  0  0  0  0
 28 29  1  0  0  0  0
 29 25  1  0  0  0  0
 30 26  1  0  0  0  0
 32 31  1  0  0  0  0
 33 32  1  0  0  0  0
 34 32  1  0  0  0  0
M  END
>  <MODEL>
5

>  <REMARK>
 VINA RESULT:      -7.9      3.379      7.944
  Name = 
  7 active torsions:
  status: ('A' for Active; 'I' for Inactive)
    1  A    between atoms: C_3  and  C_13
    2  A    between atoms: C_3  and  C_17
    3  A    between atoms: C_3  and  C_29
    4  A    between atoms: C_7  and  C_17
    5  A    between atoms: C_18  and  C_29
    6  A    between atoms: C_21  and  C_28
    7  A    between atoms: N_23  and  C_28
                            x       y       z     vdW  Elec       q    Type
                         _______ _______ _______ _____ _____    ______ ____

>  <TORSDO>
F 7

$$$$
=
 OpenBabel11052414213D

 34 37  0  0  1  0  0  0  0  0999 V2000
  188.1400  177.3940  145.1580 C   0  0  0  0  0  0  0  0  0  0  0  0
  185.9620  178.4190  145.5610 C   0  0  0  0  0  0  0  0  0  0  0  0
  186.8490  178.2700  143.2670 C   0  0  0  0  0  0  0  0  0  0  0  0
  185.0230  178.6200  141.6850 C   0  0  0  0  0  0  0  0  0  0  0  0
  187.2620  177.5390  147.4100 C   0  0  0  0  0  3  0  0  0  0  0  0
  186.1090  178.1620  146.9270 C   0  0  0  0  0  3  0  0  0  0  0  0
  184.8660  179.7990  143.7780 C   0  0  0  0  0  2  0  0  0  0  0  0
  186.9800  178.0300  144.6560 C   0  0  0  0  0  0  0  0  0  0  0  0
  184.4220  178.2410  140.5930 C   0  0  0  0  0  3  0  0  0  0  0  0
  188.2740  177.1560  146.5280 C   0  0  0  0  0  3  0  0  0  0  0  0
  187.8940  177.8680  142.3960 C   0  0  0  0  0  0  0  0  0  0  0  0
  189.1530  177.0000  144.2880 C   0  0  0  0  0  3  0  0  0  0  0  0
  184.6710  179.0160  145.0750 C   0  0  0  0  0  2  0  0  0  0  0  0
  185.6220  178.9660  142.7920 C   0  0  0  0  0  0  0  0  0  0  0  0
  189.0320  177.2380  142.9200 C   0  0  0  0  0  3  0  0  0  0  0  0
  188.2380  179.4770  140.6800 O   0  0  0  0  0  1  0  0  0  0  0  0
  187.8500  178.1570  140.9240 C   0  0  1  0  0  3  0  0  0  0  0  0
  187.6550  177.5600  138.1430 O   0  0  0  0  0  0  0  0  0  0  0  0
  189.4610  176.1530  138.1510 O   0  0  0  0  0  1  0  0  0  0  0  0
  188.7190  177.2410  140.1980 N   0  0  0  0  0  2  0  0  0  0  0  0
  188.5780  177.0070  138.7970 C   0  0  0  0  0  0  0  0  0  0  0  0
  183.3950  177.1580  140.6630 C   0  0  0  0  0  2  0  0  0  0  0  0
  182.0270  177.6140  140.1440 C   0  0  1  0  0  3  0  0  0  0  0  0
  181.6510  178.8310  142.9110 O   0  0  0  0  0  1  0  0  0  0  0  0
  181.7160  179.0900  140.4860 C   0  0  2  0  0  3  0  0  0  0  0  0
  180.9270  179.2590  141.7980 C   0  0  1  0  0  3  0  0  0  0  0  0
  178.9310  178.5900  140.3490 C   0  0  0  0  0  2  0  0  0  0  0  0
  179.4100  179.7860  139.5300 C   0  0  0  0  0  2  0  0  0  0  0  0
  180.9360  179.7680  139.3380 C   0  0  0  0  0  2  0  0  0  0  0  0
  179.5470  178.5880  141.7540 C   0  0  0  0  0  2  0  0  0  0  0  0
  181.9010  177.3390  138.6410 C   0  0  0  0  0  2  0  0  0  0  0  0
  181.0640  176.1010  138.3610 C   0  0  0  0  0  3  0  0  0  0  0  0
  181.9220  175.0780  137.6470 C   0  0  0  0  0  1  0  0  0  0  0  0
  180.5570  175.4960  139.6560 C   0  0  0  0  0  1  0  0  0  0  0  0
  1 10  2  0  0  0  0
  2  6  1  0  0  0  0
  3  8  1  0  0  0  0
  4 14  2  0  0  0  0
  6  5  2  0  0  0  0
  7 13  1  0  0  0  0
  8  1  1  0  0  0  0
  8  2  2  0  0  0  0
  9 22  1  0  0  0  0
  9  4  2  0  0  0  0
 10  5  1  0  0  0  0
 11 15  1  0  0  0  0
 11  3  2  0  0  0  0
 12  1  1  0  0  0  0
 13  2  1  0  0  0  0
 14  3  1  0  0  0  0
 14  7  1  0  0  0  0
 15 12  2  0  0  0  0
 17 16  1  1  0  0  0
 17 11  1  0  0  0  0
 18 21  2  0  0  0  0
 19 21  1  0  0  0  0
 20 17  1  0  0  0  0
 21 20  1  0  0  0  0
 23 31  1  6  0  0  0
 23 22  1  0  0  0  0
 25 23  1  6  0  0  0
 25 26  1  0  0  0  0
 26 24  1  1  0  0  0
 27 30  1  0  0  0  0
 28 27  1  0  0  0  0
 29 28  1  0  0  0  0
 29 25  1  0  0  0  0
 30 26  1  0  0  0  0
 32 31  1  0  0  0  0
 32 34  1  0  0  0  0
 33 32  1  0  0  0  0
M  END
>  <MODEL>
6

>  <REMARK>
 VINA RESULT:      -7.8      2.583      8.610
  Name = 
  7 active torsions:
  status: ('A' for Active; 'I' for Inactive)
    1  A    between atoms: C_3  and  C_13
    2  A    between atoms: C_3  and  C_17
    3  A    between atoms: C_3  and  C_29
    4  A    between atoms: C_7  and  C_17
    5  A    between atoms: C_18  and  C_29
    6  A    between atoms: C_21  and  C_28
    7  A    between atoms: N_23  and  C_28
                            x       y       z     vdW  Elec       q    Type
                         _______ _______ _______ _____ _____    ______ ____

>  <TORSDO>
F 7

$$$$
=
 OpenBabel11052414213D

 34 37  0  0  1  0  0  0  0  0999 V2000
  186.8360  176.5320  136.8500 C   0  0  0  0  0  0  0  0  0  0  0  0
  188.8920  176.8700  138.1210 C   0  0  0  0  0  0  0  0  0  0  0  0
  186.7810  177.8770  138.8990 C   0  0  0  0  0  0  0  0  0  0  0  0
  187.0270  178.5270  141.2400 C   0  0  0  0  0  0  0  0  0  0  0  0
  188.9110  175.5410  136.0920 C   0  0  0  0  0  3  0  0  0  0  0  0
  189.5800  176.0880  137.1900 C   0  0  0  0  0  3  0  0  0  0  0  0
  189.0110  178.6510  139.8810 C   0  0  0  0  0  2  0  0  0  0  0  0
  187.5030  177.0970  137.9630 C   0  0  0  0  0  0  0  0  0  0  0  0
  186.5160  178.5450  142.4380 C   0  0  0  0  0  3  0  0  0  0  0  0
  187.5430  175.7620  135.9240 C   0  0  0  0  0  3  0  0  0  0  0  0
  185.3920  178.0830  138.7000 C   0  0  0  0  0  0  0  0  0  0  0  0
  185.4700  176.7400  136.6740 C   0  0  0  0  0  3  0  0  0  0  0  0
  189.6320  177.3690  139.3310 C   0  0  0  0  0  2  0  0  0  0  0  0
  187.5340  178.4710  140.0380 C   0  0  0  0  0  0  0  0  0  0  0  0
  184.7560  177.5110  137.5900 C   0  0  0  0  0  3  0  0  0  0  0  0
  184.5560  180.2670  139.1270 O   0  0  0  0  0  1  0  0  0  0  0  0
  184.5860  178.9580  139.6150 C   0  0  1  0  0  3  0  0  0  0  0  0
  183.1800  178.6320  142.0740 O   0  0  0  0  0  1  0  0  0  0  0  0
  181.2680  177.8720  141.0690 O   0  0  0  0  0  0  0  0  0  0  0  0
  183.2290  178.4450  139.7460 N   0  0  0  0  0  2  0  0  0  0  0  0
  182.5760  178.3310  141.0100 C   0  0  0  0  0  0  0  0  0  0  0  0
  186.7160  177.3680  143.3350 C   0  0  0  0  0  2  0  0  0  0  0  0
  187.2980  177.7620  144.6980 C   0  0  1  0  0  3  0  0  0  0  0  0
  184.4570  178.5700  145.4450 O   0  0  0  0  0  1  0  0  0  0  0  0
  186.4540  177.2390  145.8850 C   0  0  2  0  0  3  0  0  0  0  0  0
  185.4260  178.2640  146.4010 C   0  0  1  0  0  3  0  0  0  0  0  0
  187.4580  179.2850  147.5670 C   0  0  0  0  0  2  0  0  0  0  0  0
  187.5560  177.8740  148.1420 C   0  0  0  0  0  2  0  0  0  0  0  0
  187.3620  176.8040  147.0550 C   0  0  0  0  0  2  0  0  0  0  0  0
  186.0790  179.5420  146.9430 C   0  0  0  0  0  2  0  0  0  0  0  0
  188.7630  177.3270  144.8060 C   0  0  0  0  0  2  0  0  0  0  0  0
  189.5200  177.5620  143.5090 C   0  0  0  0  0  3  0  0  0  0  0  0
  190.5540  178.6450  143.7320 C   0  0  0  0  0  1  0  0  0  0  0  0
  190.2270  176.2950  143.0670 C   0  0  0  0  0  1  0  0  0  0  0  0
  1  8  1  0  0  0  0
  2 13  1  0  0  0  0
  3 14  1  0  0  0  0
  4  9  2  0  0  0  0
  5  6  1  0  0  0  0
  6  2  2  0  0  0  0
  7 14  1  0  0  0  0
  8  2  1  0  0  0  0
  8  3  2  0  0  0  0
  9 22  1  0  0  0  0
 10  5  2  0  0  0  0
 10  1  1  0  0  0  0
 11  3  1  0  0  0  0
 11 17  1  0  0  0  0
 12  1  2  0  0  0  0
 12 15  1  0  0  0  0
 13  7  1  0  0  0  0
 14  4  2  0  0  0  0
 15 11  2  0  0  0  0
 17 16  1  6  0  0  0
 17 20  1  0  0  0  0
 20 21  1  0  0  0  0
 21 19  2  0  0  0  0
 21 18  1  0  0  0  0
 23 22  1  6  0  0  0
 23 31  1  0  0  0  0
 25 23  1  6  0  0  0
 25 26  1  0  0  0  0
 25 29  1  0  0  0  0
 26 24  1  6  0  0  0
 26 30  1  0  0  0  0
 27 28  1  0  0  0  0
 29 28  1  0  0  0  0
 30 27  1  0  0  0  0
 32 33  1  0  0  0  0
 32 31  1  0  0  0  0
 34 32  1  0  0  0  0
M  END
>  <MODEL>
7

>  <REMARK>
 VINA RESULT:      -7.7      1.529      3.113
  Name = 
  7 active torsions:
  status: ('A' for Active; 'I' for Inactive)
    1  A    between atoms: C_3  and  C_13
    2  A    between atoms: C_3  and  C_17
    3  A    between atoms: C_3  and  C_29
    4  A    between atoms: C_7  and  C_17
    5  A    between atoms: C_18  and  C_29
    6  A    between atoms: C_21  and  C_28
    7  A    between atoms: N_23  and  C_28
                            x       y       z     vdW  Elec       q    Type
                         _______ _______ _______ _____ _____    ______ ____

>  <TORSDO>
F 7

$$$$
=
 OpenBabel11052414213D

 34 37  0  0  1  0  0  0  0  0999 V2000
  186.8170  177.8290  145.5320 C   0  0  0  0  0  0  0  0  0  0  0  0
  185.6850  178.5390  143.4900 C   0  0  0  0  0  0  0  0  0  0  0  0
  188.1330  178.2560  143.5070 C   0  0  0  0  0  0  0  0  0  0  0  0
  188.9330  178.1210  141.2050 C   0  0  0  0  0  0  0  0  0  0  0  0
  184.4120  178.1050  145.5090 C   0  0  0  0  0  3  0  0  0  0  0  0
  184.4620  178.4750  144.1630 C   0  0  0  0  0  3  0  0  0  0  0  0
  186.9990  179.5030  141.5860 C   0  0  0  0  0  2  0  0  0  0  0  0
  186.8820  178.2090  144.1700 C   0  0  0  0  0  0  0  0  0  0  0  0
  189.6990  177.5220  140.3380 C   0  0  0  0  0  3  0  0  0  0  0  0
  185.5870  177.7820  146.1910 C   0  0  0  0  0  3  0  0  0  0  0  0
  189.3090  177.9220  144.2280 C   0  0  0  0  0  0  0  0  0  0  0  0
  187.9810  177.4980  146.2220 C   0  0  0  0  0  3  0  0  0  0  0  0
  185.6840  178.8610  142.0220 C   0  0  0  0  0  2  0  0  0  0  0  0
  188.1500  178.6870  142.0830 C   0  0  0  0  0  0  0  0  0  0  0  0
  189.2150  177.5480  145.5760 C   0  0  0  0  0  3  0  0  0  0  0  0
  191.2310  179.2730  143.8690 O   0  0  0  0  0  1  0  0  0  0  0  0
  190.6700  178.0210  143.6050 C   0  0  1  0  0  3  0  0  0  0  0  0
  190.5400  175.2740  142.8540 O   0  0  0  0  0  0  0  0  0  0  0  0
  192.3180  174.6630  144.1620 O   0  0  0  0  0  1  0  0  0  0  0  0
  191.5400  176.9700  144.1120 N   0  0  0  0  0  2  0  0  0  0  0  0
  191.4340  175.6150  143.6730 C   0  0  0  0  0  0  0  0  0  0  0  0
  189.1920  176.3080  139.6310 C   0  0  0  0  0  2  0  0  0  0  0  0
  189.5330  176.3140  138.1360 C   0  0  1  0  0  3  0  0  0  0  0  0
  186.7660  175.2210  137.4810 O   0  0  0  0  0  1  0  0  0  0  0  0
  188.4380  176.9850  137.2740 C   0  0  2  0  0  3  0  0  0  0  0  0
  187.5090  175.9750  136.5730 C   0  0  1  0  0  3  0  0  0  0  0  0
  189.4560  175.7580  134.9330 C   0  0  0  0  0  2  0  0  0  0  0  0
  189.2430  177.2660  134.8270 C   0  0  0  0  0  2  0  0  0  0  0  0
  189.0670  177.9130  136.2110 C   0  0  0  0  0  2  0  0  0  0  0  0
  188.2530  175.0650  135.5880 C   0  0  0  0  0  2  0  0  0  0  0  0
  190.9100  176.9430  137.8990 C   0  0  0  0  0  2  0  0  0  0  0  0
  192.0300  175.9270  138.0530 C   0  0  0  0  0  3  0  0  0  0  0  0
  191.5850  174.6090  137.4580 C   0  0  0  0  0  1  0  0  0  0  0  0
  193.2770  176.3950  137.3280 C   0  0  0  0  0  1  0  0  0  0  0  0
  1 10  1  0  0  0  0
  1 12  1  0  0  0  0
  2  6  2  0  0  0  0
  2  8  1  0  0  0  0
  3  8  1  0  0  0  0
  3 11  2  0  0  0  0
  4 14  2  0  0  0  0
  5 10  2  0  0  0  0
  6  5  1  0  0  0  0
  7 13  1  0  0  0  0
  7 14  1  0  0  0  0
  8  1  2  0  0  0  0
  9  4  2  0  0  0  0
 11 15  1  0  0  0  0
 13  2  1  0  0  0  0
 14  3  1  0  0  0  0
 15 12  2  0  0  0  0
 17 16  1  1  0  0  0
 17 20  1  0  0  0  0
 17 11  1  0  0  0  0
 18 21  2  0  0  0  0
 21 20  1  0  0  0  0
 21 19  1  0  0  0  0
 22  9  1  0  0  0  0
 23 31  1  1  0  0  0
 23 22  1  0  0  0  0
 25 23  1  6  0  0  0
 26 25  1  0  0  0  0
 26 24  1  1  0  0  0
 27 30  1  0  0  0  0
 28 27  1  0  0  0  0
 28 29  1  0  0  0  0
 29 25  1  0  0  0  0
 30 26  1  0  0  0  0
 31 32  1  0  0  0  0
 33 32  1  0  0  0  0
 34 32  1  0  0  0  0
M  END
>  <MODEL>
8

>  <REMARK>
 VINA RESULT:      -7.5      2.992      8.153
  Name = 
  7 active torsions:
  status: ('A' for Active; 'I' for Inactive)
    1  A    between atoms: C_3  and  C_13
    2  A    between atoms: C_3  and  C_17
    3  A    between atoms: C_3  and  C_29
    4  A    between atoms: C_7  and  C_17
    5  A    between atoms: C_18  and  C_29
    6  A    between atoms: C_21  and  C_28
    7  A    between atoms: N_23  and  C_28
                            x       y       z     vdW  Elec       q    Type
                         _______ _______ _______ _____ _____    ______ ____

>  <TORSDO>
F 7

$$$$
=
 OpenBabel11052414213D

 34 37  0  0  1  0  0  0  0  0999 V2000
  188.6130  175.0000  136.1360 C   0  0  0  0  0  0  0  0  0  0  0  0
  190.5020  175.2140  137.6660 C   0  0  0  0  0  0  0  0  0  0  0  0
  188.5530  176.7030  137.8990 C   0  0  0  0  0  0  0  0  0  0  0  0
  188.6030  177.7390  140.1090 C   0  0  0  0  0  0  0  0  0  0  0  0
  190.5290  173.5370  135.9140 C   0  0  0  0  0  3  0  0  0  0  0  0
  191.1380  174.1600  137.0050 C   0  0  0  0  0  3  0  0  0  0  0  0
  190.7380  177.2520  139.1060 C   0  0  0  0  0  2  0  0  0  0  0  0
  189.2220  175.6440  137.2390 C   0  0  0  0  0  0  0  0  0  0  0  0
  187.9490  178.0760  141.1840 C   0  0  0  0  0  3  0  0  0  0  0  0
  189.2690  173.9560  135.4810 C   0  0  0  0  0  3  0  0  0  0  0  0
  187.2730  177.1060  137.4360 C   0  0  0  0  0  0  0  0  0  0  0  0
  187.3530  175.4050  135.6990 C   0  0  0  0  0  3  0  0  0  0  0  0
  191.1570  175.8000  138.8860 C   0  0  0  0  0  2  0  0  0  0  0  0
  189.2480  177.3650  139.0370 C   0  0  0  0  0  0  0  0  0  0  0  0
  186.6920  176.4500  136.3420 C   0  0  0  0  0  3  0  0  0  0  0  0
  186.5890  179.3690  137.1870 O   0  0  0  0  0  1  0  0  0  0  0  0
  186.5440  178.2670  138.0450 C   0  0  1  0  0  3  0  0  0  0  0  0
  184.8120  179.6590  139.8320 O   0  0  0  0  0  1  0  0  0  0  0  0
  183.0170  178.3030  139.4090 O   0  0  0  0  0  0  0  0  0  0  0  0
  185.1600  177.9100  138.3230 N   0  0  0  0  0  2  0  0  0  0  0  0
  184.3410  178.6680  139.2140 C   0  0  0  0  0  0  0  0  0  0  0  0
  187.7840  177.0770  142.2820 C   0  0  0  0  0  2  0  0  0  0  0  0
  188.7730  177.3010  143.4320 C   0  0  1  0  0  3  0  0  0  0  0  0
  190.9450  175.6060  142.1330 O   0  0  0  0  0  1  0  0  0  0  0  0
  190.1640  177.7700  142.9450 C   0  0  2  0  0  3  0  0  0  0  0  0
  191.2340  176.6620  142.9970 C   0  0  1  0  0  3  0  0  0  0  0  0
  191.2930  177.2350  145.4870 C   0  0  0  0  0  2  0  0  0  0  0  0
  191.5910  178.6250  144.9320 C   0  0  0  0  0  2  0  0  0  0  0  0
  190.6540  178.9830  143.7650 C   0  0  0  0  0  2  0  0  0  0  0  0
  191.4910  176.1490  144.4200 C   0  0  0  0  0  2  0  0  0  0  0  0
  188.1820  178.2580  144.4730 C   0  0  0  0  0  2  0  0  0  0  0  0
  187.1270  177.5790  145.3320 C   0  0  0  0  0  3  0  0  0  0  0  0
  187.5290  177.6920  146.7870 C   0  0  0  0  0  1  0  0  0  0  0  0
  185.7780  178.2450  145.1440 C   0  0  0  0  0  1  0  0  0  0  0  0
  1  8  1  0  0  0  0
  2 13  1  0  0  0  0
  3 14  1  0  0  0  0
  4  9  2  0  0  0  0
  5  6  1  0  0  0  0
  6  2  2  0  0  0  0
  8  2  1  0  0  0  0
  8  3  2  0  0  0  0
  9 22  1  0  0  0  0
 10  5  2  0  0  0  0
 10  1  1  0  0  0  0
 11  3  1  0  0  0  0
 11 17  1  0  0  0  0
 12  1  2  0  0  0  0
 12 15  1  0  0  0  0
 13  7  1  0  0  0  0
 14  7  1  0  0  0  0
 14  4  2  0  0  0  0
 15 11  2  0  0  0  0
 17 16  1  6  0  0  0
 17 20  1  0  0  0  0
 20 21  1  0  0  0  0
 21 19  2  0  0  0  0
 21 18  1  0  0  0  0
 23 22  1  6  0  0  0
 23 31  1  0  0  0  0
 25 26  1  0  0  0  0
 25 23  1  1  0  0  0
 25 29  1  0  0  0  0
 26 24  1  6  0  0  0
 26 30  1  0  0  0  0
 28 27  1  0  0  0  0
 29 28  1  0  0  0  0
 30 27  1  0  0  0  0
 31 32  1  0  0  0  0
 32 33  1  0  0  0  0
 34 32  1  0  0  0  0
M  END
>  <MODEL>
9

>  <REMARK>
 VINA RESULT:      -7.5      1.392      1.966
  Name = 
  7 active torsions:
  status: ('A' for Active; 'I' for Inactive)
    1  A    between atoms: C_3  and  C_13
    2  A    between atoms: C_3  and  C_17
    3  A    between atoms: C_3  and  C_29
    4  A    between atoms: C_7  and  C_17
    5  A    between atoms: C_18  and  C_29
    6  A    between atoms: C_21  and  C_28
    7  A    between atoms: N_23  and  C_28
                            x       y       z     vdW  Elec       q    Type
                         _______ _______ _______ _____ _____    ______ ____

>  <TORSDO>
F 7

$$$$
