=
 OpenBabel11052416353D

 43 48  0  0  1  0  0  0  0  0999 V2000
  191.2160  176.5130  146.7470 C   0  0  0  0  0  0  0  0  0  0  0  0
  188.8110  177.9980  142.5460 C   0  0  0  0  0  0  0  0  0  0  0  0
  190.6070  176.7970  144.4140 C   0  0  0  0  0  0  0  0  0  0  0  0
  189.8510  177.0020  147.1560 C   0  0  0  0  0  3  0  0  0  0  0  0
  192.1490  176.1590  147.7870 C   0  0  0  0  0  1  0  0  0  0  0  0
  189.0530  176.8950  144.7960 C   0  0  1  0  0  3  0  0  0  0  0  0
  191.5670  176.4380  145.4930 C   0  0  0  0  0  3  0  0  0  0  0  0
  188.8940  177.2190  146.2600 C   0  0  0  0  0  3  0  0  0  0  0  0
  188.2950  177.8920  143.9440 C   0  0  2  0  0  3  0  0  0  0  0  0
  190.1240  177.5640  142.2650 C   0  0  0  0  0  3  0  0  0  0  0  0
  190.9890  177.0320  143.2410 N   0  0  0  0  0  0  0  0  0  0  0  0
  186.7180  177.5280  143.8170 C   0  0  0  0  0  2  0  0  0  0  0  0
  185.6470  178.6760  144.0900 C   0  0  2  0  0  3  0  0  0  0  0  0
  185.4130  179.2710  145.3900 C   0  0  0  0  0  2  0  0  0  0  0  0
  185.3430  178.2000  146.5340 C   0  0  0  0  0  1  0  0  0  0  0  0
  184.8570  179.1290  142.9690 C   0  0  0  0  0  2  0  0  0  0  0  0
  181.8970  177.8490  141.2090 C   0  0  0  0  0  2  0  0  0  0  0  0
  184.4110  178.2570  140.6020 C   0  0  2  0  0  3  0  0  0  0  0  0
  181.6270  179.1400  138.6110 O   0  0  0  0  0  0  0  0  0  0  0  0
  183.2100  178.6880  141.4730 C   0  0  2  0  0  3  0  0  0  0  0  0
  180.9250  178.9550  140.9040 C   0  0  0  0  0  2  0  0  0  0  0  0
  184.2420  177.9810  142.1450 C   0  0  2  0  0  3  0  0  0  0  0  0
  183.0450  178.9580  138.3800 C   0  0  1  0  0  3  0  0  0  0  0  0
  184.1980  179.2990  139.3840 C   0  0  0  0  0  2  0  0  0  0  0  0
  181.3540  179.8900  139.7130 C   0  0  0  0  0  2  0  0  0  0  0  0
  183.9840  176.6430  137.6770 C   0  0  0  0  0  0  0  0  0  0  0  0
  183.3030  177.9340  137.3820 N   0  0  0  0  0  2  0  0  0  0  0  0
  183.2370  173.1930  137.0380 C   0  0  0  0  0  1  0  0  0  0  0  0
  185.1300  174.8760  136.7900 C   0  0  0  0  0  2  0  0  0  0  0  0
  184.1080  174.2900  137.6970 C   0  0  1  0  0  3  0  0  0  0  0  0
  184.9030  176.3210  136.8570 N   0  0  0  0  0  0  0  0  0  0  0  0
  183.2100  175.4180  138.1620 C   0  0  0  0  0  2  0  0  0  0  0  0
  188.1380  178.7610  141.5660 O   0  0  0  0  0  0  0  0  0  0  0  0
  187.8460  178.2630  140.2560 C   0  0  0  0  0  2  0  0  0  0  0  0
  188.9850  178.5640  139.2310 C   0  0  0  0  0  2  0  0  0  0  0  0
  188.7420  175.6050  137.0420 C   0  0  0  0  0  3  0  0  0  0  0  0
  189.9880  174.9790  137.3010 C   0  0  0  0  0  0  0  0  0  0  0  0
  190.6750  176.9370  138.5580 C   0  0  0  0  0  3  0  0  0  0  0  0
  188.4380  176.7860  137.5750 C   0  0  0  0  0  3  0  0  0  0  0  0
  189.3720  177.4710  138.3820 C   0  0  0  0  0  0  0  0  0  0  0  0
  190.9460  175.7100  138.0000 C   0  0  0  0  0  3  0  0  0  0  0  0
  190.0780  173.1600  135.7680 N   0  0  0  0  0  2  0  0  0  0  0  0
  190.3000  173.6040  136.9860 C   0  0  0  0  0  3  0  0  0  0  0  0
  1  4  1  0  0  0  0
  1  5  1  0  0  0  0
  2  9  1  0  0  0  0
  3  6  1  0  0  0  0
  3  7  1  0  0  0  0
  6  8  1  1  0  0  0
  7  1  2  0  0  0  0
  8  4  2  0  0  0  0
  9 12  1  6  0  0  0
  9  6  1  0  0  0  0
 10  2  2  0  0  0  0
 10 11  1  0  0  0  0
 11  3  2  0  0  0  0
 12 13  1  0  0  0  0
 13 16  1  1  0  0  0
 13 14  1  0  0  0  0
 14 15  1  0  0  0  0
 18 24  1  1  0  0  0
 18 20  1  0  0  0  0
 18 22  1  0  0  0  0
 19 25  1  0  0  0  0
 20 17  1  6  0  0  0
 20 22  1  0  0  0  0
 21 17  1  0  0  0  0
 22 16  1  1  0  0  0
 23 27  1  1  0  0  0
 23 19  1  0  0  0  0
 23 24  1  0  0  0  0
 25 21  1  0  0  0  0
 26 32  1  0  0  0  0
 27 26  1  0  0  0  0
 29 31  1  0  0  0  0
 29 30  1  0  0  0  0
 30 28  1  6  0  0  0
 30 32  1  0  0  0  0
 31 26  2  0  0  0  0
 33  2  1  0  0  0  0
 34 33  1  0  0  0  0
 35 34  1  0  0  0  0
 36 37  2  0  0  0  0
 36 39  1  0  0  0  0
 37 41  1  0  0  0  0
 39 40  2  0  0  0  0
 40 38  1  0  0  0  0
 40 35  1  0  0  0  0
 41 38  2  0  0  0  0
 42 43  2  0  0  0  0
 43 37  1  0  0  0  0
M  END
>  <MODEL>
1

>  <REMARK>
 VINA RESULT:      -9.3      0.000      0.000
  Name = 
  11 active torsions:
  status: ('A' for Active; 'I' for Inactive)
    1  A    between atoms: C_1  and  C_35
    2  A    between atoms: C_1  and  C_38
    3  A    between atoms: C_2  and  C_13
    4  A    between atoms: C_6  and  C_13
    5  A    between atoms: C_6  and  C_17
    6  A    between atoms: C_8  and  O_34
    7  A    between atoms: C_13  and  C_27
    8  A    between atoms: N_14  and  C_22
    9  A    between atoms: C_19  and  C_37
   10  A    between atoms: C_27  and  C_30
   11  A    between atoms: O_34  and  C_38
                            x       y       z     vdW  Elec       q    Type
                         _______ _______ _______ _____ _____    ______ ____

>  <TORSDO>
F 11

$$$$
=
 OpenBabel11052416353D

 43 48  0  0  1  0  0  0  0  0999 V2000
  188.1400  177.8400  147.5590 C   0  0  0  0  0  0  0  0  0  0  0  0
  188.3530  178.0090  142.5020 C   0  0  0  0  0  0  0  0  0  0  0  0
  188.8570  177.4900  145.2660 C   0  0  0  0  0  0  0  0  0  0  0  0
  186.7820  178.2660  147.0630 C   0  0  0  0  0  3  0  0  0  0  0  0
  188.3740  177.8470  148.9810 C   0  0  0  0  0  1  0  0  0  0  0  0
  187.3380  177.5110  144.7510 C   0  0  1  0  0  3  0  0  0  0  0  0
  189.0930  177.5040  146.7340 C   0  0  0  0  0  3  0  0  0  0  0  0
  186.4470  178.1600  145.7810 C   0  0  0  0  0  3  0  0  0  0  0  0
  187.1770  178.1890  143.4060 C   0  0  2  0  0  3  0  0  0  0  0  0
  189.6010  177.6620  143.0630 C   0  0  0  0  0  3  0  0  0  0  0  0
  189.8060  177.4750  144.4430 N   0  0  0  0  0  0  0  0  0  0  0  0
  185.8890  177.6400  142.5850 C   0  0  0  0  0  2  0  0  0  0  0  0
  184.5330  178.4750  142.6480 C   0  0  2  0  0  3  0  0  0  0  0  0
  184.1940  179.3860  143.7220 C   0  0  0  0  0  2  0  0  0  0  0  0
  182.8690  178.9770  144.4570 C   0  0  0  0  0  1  0  0  0  0  0  0
  183.5870  178.2890  141.5720 C   0  0  0  0  0  2  0  0  0  0  0  0
  184.3120  177.9010  137.9930 C   0  0  0  0  0  2  0  0  0  0  0  0
  182.7320  179.4110  139.4350 C   0  0  2  0  0  3  0  0  0  0  0  0
  181.8330  177.7040  136.4730 O   0  0  0  0  0  0  0  0  0  0  0  0
  183.4680  178.0580  139.3190 C   0  0  2  0  0  3  0  0  0  0  0  0
  183.7410  176.6180  137.4570 C   0  0  0  0  0  2  0  0  0  0  0  0
  184.0040  178.9780  140.2590 C   0  0  2  0  0  3  0  0  0  0  0  0
  181.2850  178.8050  137.2360 C   0  0  1  0  0  3  0  0  0  0  0  0
  181.3180  178.9590  138.7950 C   0  0  0  0  0  2  0  0  0  0  0  0
  182.1820  176.6370  137.2430 C   0  0  0  0  0  2  0  0  0  0  0  0
  180.4880  181.2510  136.8950 C   0  0  0  0  0  0  0  0  0  0  0  0
  181.1900  180.0180  136.4430 N   0  0  0  0  0  2  0  0  0  0  0  0
  181.3620  184.7250  137.0890 C   0  0  0  0  0  1  0  0  0  0  0  0
  179.5080  183.2070  136.2340 C   0  0  0  0  0  2  0  0  0  0  0  0
  180.3900  183.5560  137.3780 C   0  0  1  0  0  3  0  0  0  0  0  0
  179.7050  181.7690  136.0350 N   0  0  0  0  0  0  0  0  0  0  0  0
  181.1960  182.3210  137.7270 C   0  0  0  0  0  2  0  0  0  0  0  0
  188.3240  178.4400  141.1570 O   0  0  0  0  0  0  0  0  0  0  0  0
  188.8810  177.6750  140.0830 C   0  0  0  0  0  2  0  0  0  0  0  0
  189.1290  178.5320  138.8010 C   0  0  0  0  0  2  0  0  0  0  0  0
  187.1100  178.1370  135.7400 C   0  0  0  0  0  3  0  0  0  0  0  0
  187.1240  176.7260  135.5920 C   0  0  0  0  0  0  0  0  0  0  0  0
  188.7650  176.5870  137.3740 C   0  0  0  0  0  3  0  0  0  0  0  0
  187.8100  178.7380  136.6990 C   0  0  0  0  0  3  0  0  0  0  0  0
  188.6250  177.9850  137.5720 C   0  0  0  0  0  0  0  0  0  0  0  0
  188.0160  176.0020  136.3790 C   0  0  0  0  0  3  0  0  0  0  0  0
  185.9190  174.7340  135.0890 N   0  0  0  0  0  2  0  0  0  0  0  0
  186.2090  175.9770  134.7640 C   0  0  0  0  0  3  0  0  0  0  0  0
  1  5  1  0  0  0  0
  2 10  2  0  0  0  0
  2  9  1  0  0  0  0
  3  7  1  0  0  0  0
  4  1  1  0  0  0  0
  6  3  1  0  0  0  0
  6  8  1  1  0  0  0
  7  1  2  0  0  0  0
  8  4  2  0  0  0  0
  9 12  1  6  0  0  0
  9  6  1  0  0  0  0
 10 11  1  0  0  0  0
 11  3  2  0  0  0  0
 12 13  1  0  0  0  0
 13 16  1  1  0  0  0
 13 14  1  0  0  0  0
 14 15  1  0  0  0  0
 18 24  1  1  0  0  0
 18 22  1  0  0  0  0
 19 23  1  0  0  0  0
 19 25  1  0  0  0  0
 20 17  1  6  0  0  0
 20 18  1  0  0  0  0
 20 22  1  0  0  0  0
 21 17  1  0  0  0  0
 22 16  1  1  0  0  0
 23 27  1  6  0  0  0
 23 24  1  0  0  0  0
 25 21  1  0  0  0  0
 26 32  1  0  0  0  0
 27 26  1  0  0  0  0
 29 30  1  0  0  0  0
 30 28  1  6  0  0  0
 30 32  1  0  0  0  0
 31 29  1  0  0  0  0
 31 26  2  0  0  0  0
 33  2  1  0  0  0  0
 34 33  1  0  0  0  0
 35 34  1  0  0  0  0
 36 39  1  0  0  0  0
 37 36  2  0  0  0  0
 37 41  1  0  0  0  0
 38 40  1  0  0  0  0
 39 40  2  0  0  0  0
 40 35  1  0  0  0  0
 41 38  2  0  0  0  0
 43 42  2  0  0  0  0
 43 37  1  0  0  0  0
M  END
>  <MODEL>
2

>  <REMARK>
 VINA RESULT:      -9.0      2.285      4.253
  Name = 
  11 active torsions:
  status: ('A' for Active; 'I' for Inactive)
    1  A    between atoms: C_1  and  C_35
    2  A    between atoms: C_1  and  C_38
    3  A    between atoms: C_2  and  C_13
    4  A    between atoms: C_6  and  C_13
    5  A    between atoms: C_6  and  C_17
    6  A    between atoms: C_8  and  O_34
    7  A    between atoms: C_13  and  C_27
    8  A    between atoms: N_14  and  C_22
    9  A    between atoms: C_19  and  C_37
   10  A    between atoms: C_27  and  C_30
   11  A    between atoms: O_34  and  C_38
                            x       y       z     vdW  Elec       q    Type
                         _______ _______ _______ _____ _____    ______ ____

>  <TORSDO>
F 11

$$$$
=
 OpenBabel11052416353D

 43 48  0  0  1  0  0  0  0  0999 V2000
  186.3050  178.0720  144.5200 C   0  0  0  0  0  0  0  0  0  0  0  0
  182.0530  178.8200  141.8740 C   0  0  0  0  0  0  0  0  0  0  0  0
  184.0700  178.7850  143.8970 C   0  0  0  0  0  0  0  0  0  0  0  0
  186.6310  177.8440  143.0670 C   0  0  0  0  0  3  0  0  0  0  0  0
  187.3260  177.7870  145.4960 C   0  0  0  0  0  1  0  0  0  0  0  0
  184.5170  178.9680  142.3680 C   0  0  1  0  0  3  0  0  0  0  0  0
  185.1270  178.4840  144.8990 C   0  0  0  0  0  3  0  0  0  0  0  0
  185.7930  178.2080  142.1020 C   0  0  0  0  0  3  0  0  0  0  0  0
  183.4400  178.5630  141.3820 C   0  0  2  0  0  3  0  0  0  0  0  0
  181.8340  178.9670  143.2600 C   0  0  0  0  0  3  0  0  0  0  0  0
  182.8600  178.8820  144.2200 N   0  0  0  0  0  0  0  0  0  0  0  0
  183.5690  179.3450  139.9660 C   0  0  0  0  0  2  0  0  0  0  0  0
  183.6700  178.4860  138.6270 C   0  0  2  0  0  3  0  0  0  0  0  0
  182.5780  177.7030  138.0850 C   0  0  0  0  0  2  0  0  0  0  0  0
  182.4740  177.8210  136.5240 C   0  0  0  0  0  1  0  0  0  0  0  0
  184.9360  178.4830  137.9320 C   0  0  0  0  0  2  0  0  0  0  0  0
  187.2570  175.9570  136.6210 C   0  0  0  0  0  2  0  0  0  0  0  0
  187.2770  177.6820  138.5900 C   0  0  2  0  0  3  0  0  0  0  0  0
  189.9250  177.0900  136.3250 O   0  0  0  0  0  0  0  0  0  0  0  0
  186.7460  177.3440  137.1800 C   0  0  2  0  0  3  0  0  0  0  0  0
  187.8570  176.3940  135.3140 C   0  0  0  0  0  2  0  0  0  0  0  0
  185.8030  177.2480  138.2370 C   0  0  2  0  0  3  0  0  0  0  0  0
  189.8010  177.7070  137.6290 C   0  0  1  0  0  3  0  0  0  0  0  0
  188.5780  178.5350  138.1490 C   0  0  0  0  0  2  0  0  0  0  0  0
  188.9710  177.4970  135.4440 C   0  0  0  0  0  2  0  0  0  0  0  0
  190.6890  177.4470  140.0540 C   0  0  0  0  0  0  0  0  0  0  0  0
  190.6390  177.0530  138.6190 N   0  0  0  0  0  2  0  0  0  0  0  0
  190.3850  175.6890  143.1660 C   0  0  0  0  0  1  0  0  0  0  0  0
  191.9020  177.3580  141.9880 C   0  0  0  0  0  2  0  0  0  0  0  0
  190.5080  177.0060  142.3620 C   0  0  1  0  0  3  0  0  0  0  0  0
  191.8600  177.5640  140.5390 N   0  0  0  0  0  0  0  0  0  0  0  0
  189.7110  176.8750  141.0800 C   0  0  0  0  0  2  0  0  0  0  0  0
  180.9290  178.6470  141.0360 O   0  0  0  0  0  0  0  0  0  0  0  0
  180.0630  179.7240  140.6640 C   0  0  0  0  0  2  0  0  0  0  0  0
  179.5640  179.6130  139.1880 C   0  0  0  0  0  2  0  0  0  0  0  0
  181.2550  182.5870  137.8100 C   0  0  0  0  0  3  0  0  0  0  0  0
  180.7740  182.5710  136.4750 C   0  0  0  0  0  0  0  0  0  0  0  0
  179.7910  180.3920  136.8880 C   0  0  0  0  0  3  0  0  0  0  0  0
  180.9550  181.6110  138.6640 C   0  0  0  0  0  3  0  0  0  0  0  0
  180.1800  180.5060  138.2480 C   0  0  0  0  0  0  0  0  0  0  0  0
  180.1110  181.4270  136.0400 C   0  0  0  0  0  3  0  0  0  0  0  0
  181.0380  184.9000  136.0520 N   0  0  0  0  0  2  0  0  0  0  0  0
  180.8280  183.6940  135.5680 C   0  0  0  0  0  3  0  0  0  0  0  0
  1  7  2  0  0  0  0
  1  5  1  0  0  0  0
  2 10  2  0  0  0  0
  3 11  2  0  0  0  0
  3  7  1  0  0  0  0
  4  1  1  0  0  0  0
  6  8  1  6  0  0  0
  6  3  1  0  0  0  0
  8  4  2  0  0  0  0
  9 12  1  6  0  0  0
  9  2  1  0  0  0  0
  9  6  1  0  0  0  0
 10 11  1  0  0  0  0
 13 16  1  1  0  0  0
 13 12  1  0  0  0  0
 14 13  1  0  0  0  0
 15 14  1  0  0  0  0
 18 24  1  6  0  0  0
 19 23  1  0  0  0  0
 20 17  1  1  0  0  0
 20 22  1  0  0  0  0
 20 18  1  0  0  0  0
 21 25  1  0  0  0  0
 21 17  1  0  0  0  0
 22 16  1  6  0  0  0
 22 18  1  0  0  0  0
 23 24  1  0  0  0  0
 23 27  1  1  0  0  0
 25 19  1  0  0  0  0
 26 31  2  0  0  0  0
 26 32  1  0  0  0  0
 27 26  1  0  0  0  0
 29 30  1  0  0  0  0
 30 28  1  6  0  0  0
 31 29  1  0  0  0  0
 32 30  1  0  0  0  0
 33  2  1  0  0  0  0
 34 33  1  0  0  0  0
 35 34  1  0  0  0  0
 36 39  1  0  0  0  0
 37 36  2  0  0  0  0
 38 40  1  0  0  0  0
 40 39  2  0  0  0  0
 40 35  1  0  0  0  0
 41 37  1  0  0  0  0
 41 38  2  0  0  0  0
 43 42  2  0  0  0  0
 43 37  1  0  0  0  0
M  END
>  <MODEL>
3

>  <REMARK>
 VINA RESULT:      -8.9      2.811      8.282
  Name = 
  11 active torsions:
  status: ('A' for Active; 'I' for Inactive)
    1  A    between atoms: C_1  and  C_35
    2  A    between atoms: C_1  and  C_38
    3  A    between atoms: C_2  and  C_13
    4  A    between atoms: C_6  and  C_13
    5  A    between atoms: C_6  and  C_17
    6  A    between atoms: C_8  and  O_34
    7  A    between atoms: C_13  and  C_27
    8  A    between atoms: N_14  and  C_22
    9  A    between atoms: C_19  and  C_37
   10  A    between atoms: C_27  and  C_30
   11  A    between atoms: O_34  and  C_38
                            x       y       z     vdW  Elec       q    Type
                         _______ _______ _______ _____ _____    ______ ____

>  <TORSDO>
F 11

$$$$
=
 OpenBabel11052416353D

 43 48  0  0  1  0  0  0  0  0999 V2000
  191.1510  176.5620  146.7040 C   0  0  0  0  0  0  0  0  0  0  0  0
  188.8630  177.8530  142.3760 C   0  0  0  0  0  0  0  0  0  0  0  0
  190.5950  176.7240  144.3470 C   0  0  0  0  0  0  0  0  0  0  0  0
  189.7890  177.1030  147.0560 C   0  0  0  0  0  3  0  0  0  0  0  0
  192.0540  176.2490  147.7820 C   0  0  0  0  0  1  0  0  0  0  0  0
  189.0360  176.8770  144.6890 C   0  0  1  0  0  3  0  0  0  0  0  0
  191.5240  176.4080  145.4640 C   0  0  0  0  0  3  0  0  0  0  0  0
  188.8550  177.2890  146.1290 C   0  0  0  0  0  3  0  0  0  0  0  0
  188.3170  177.8400  143.7660 C   0  0  2  0  0  3  0  0  0  0  0  0
  190.1710  177.3760  142.1480 C   0  0  0  0  0  3  0  0  0  0  0  0
  191.0040  176.8830  143.1700 N   0  0  0  0  0  0  0  0  0  0  0  0
  186.7350  177.5020  143.6270 C   0  0  0  0  0  2  0  0  0  0  0  0
  185.6820  178.6730  143.8710 C   0  0  2  0  0  3  0  0  0  0  0  0
  185.4360  179.2830  145.1620 C   0  0  0  0  0  2  0  0  0  0  0  0
  185.2330  178.2200  146.2970 C   0  0  0  0  0  1  0  0  0  0  0  0
  184.9230  179.1330  142.7320 C   0  0  0  0  0  2  0  0  0  0  0  0
  181.5820  178.1240  141.5870 C   0  0  0  0  0  2  0  0  0  0  0  0
  183.9710  178.2490  140.5240 C   0  0  2  0  0  3  0  0  0  0  0  0
  180.9730  179.3650  139.0210 O   0  0  0  0  0  0  0  0  0  0  0  0
  182.9970  178.8270  141.5740 C   0  0  2  0  0  3  0  0  0  0  0  0
  180.6840  179.3170  141.4090 C   0  0  0  0  0  2  0  0  0  0  0  0
  184.0590  178.0340  142.0840 C   0  0  2  0  0  3  0  0  0  0  0  0
  182.3000  179.0290  138.5510 C   0  0  1  0  0  3  0  0  0  0  0  0
  183.6440  179.2730  139.3170 C   0  0  0  0  0  2  0  0  0  0  0  0
  180.9790  180.1690  140.1190 C   0  0  0  0  0  2  0  0  0  0  0  0
  182.1360  176.5160  137.9220 C   0  0  0  0  0  0  0  0  0  0  0  0
  182.2710  177.9570  137.5710 N   0  0  0  0  0  2  0  0  0  0  0  0
  179.9920  173.8480  136.8460 C   0  0  0  0  0  1  0  0  0  0  0  0
  182.4560  174.3680  137.2110 C   0  0  0  0  0  2  0  0  0  0  0  0
  181.0870  174.4100  137.7860 C   0  0  1  0  0  3  0  0  0  0  0  0
  182.9550  175.7400  137.3340 N   0  0  0  0  0  0  0  0  0  0  0  0
  180.7680  175.8580  138.1010 C   0  0  0  0  0  2  0  0  0  0  0  0
  188.2270  178.5730  141.3400 O   0  0  0  0  0  0  0  0  0  0  0  0
  188.4740  178.3220  139.9520 C   0  0  0  0  0  2  0  0  0  0  0  0
  187.1600  178.2540  139.1110 C   0  0  0  0  0  2  0  0  0  0  0  0
  186.1460  176.6080  135.9690 C   0  0  0  0  0  3  0  0  0  0  0  0
  187.1510  175.6130  135.8540 C   0  0  0  0  0  0  0  0  0  0  0  0
  188.3300  176.6330  137.7120 C   0  0  0  0  0  3  0  0  0  0  0  0
  186.1770  177.5120  136.9460 C   0  0  0  0  0  3  0  0  0  0  0  0
  187.2420  177.5300  137.8730 C   0  0  0  0  0  0  0  0  0  0  0  0
  188.2550  175.7080  136.6980 C   0  0  0  0  0  3  0  0  0  0  0  0
  185.9100  173.8280  134.8820 N   0  0  0  0  0  2  0  0  0  0  0  0
  187.0630  174.4510  135.0010 C   0  0  0  0  0  3  0  0  0  0  0  0
  1  4  1  0  0  0  0
  1  5  1  0  0  0  0
  2  9  1  0  0  0  0
  3  6  1  0  0  0  0
  3  7  1  0  0  0  0
  6  8  1  1  0  0  0
  7  1  2  0  0  0  0
  8  4  2  0  0  0  0
  9 12  1  6  0  0  0
  9  6  1  0  0  0  0
 10  2  2  0  0  0  0
 10 11  1  0  0  0  0
 11  3  2  0  0  0  0
 12 13  1  0  0  0  0
 13 16  1  1  0  0  0
 13 14  1  0  0  0  0
 14 15  1  0  0  0  0
 18 24  1  1  0  0  0
 18 20  1  0  0  0  0
 18 22  1  0  0  0  0
 19 25  1  0  0  0  0
 20 17  1  6  0  0  0
 20 22  1  0  0  0  0
 21 17  1  0  0  0  0
 22 16  1  1  0  0  0
 23 27  1  1  0  0  0
 23 19  1  0  0  0  0
 23 24  1  0  0  0  0
 25 21  1  0  0  0  0
 26 32  1  0  0  0  0
 27 26  1  0  0  0  0
 29 31  1  0  0  0  0
 29 30  1  0  0  0  0
 30 28  1  6  0  0  0
 30 32  1  0  0  0  0
 31 26  2  0  0  0  0
 33  2  1  0  0  0  0
 34 33  1  0  0  0  0
 35 34  1  0  0  0  0
 36 39  1  0  0  0  0
 37 36  2  0  0  0  0
 37 41  1  0  0  0  0
 38 40  1  0  0  0  0
 39 40  2  0  0  0  0
 40 35  1  0  0  0  0
 41 38  2  0  0  0  0
 42 43  2  0  0  0  0
 43 37  1  0  0  0  0
M  END
>  <MODEL>
4

>  <REMARK>
 VINA RESULT:      -8.8      1.312      1.737
  Name = 
  11 active torsions:
  status: ('A' for Active; 'I' for Inactive)
    1  A    between atoms: C_1  and  C_35
    2  A    between atoms: C_1  and  C_38
    3  A    between atoms: C_2  and  C_13
    4  A    between atoms: C_6  and  C_13
    5  A    between atoms: C_6  and  C_17
    6  A    between atoms: C_8  and  O_34
    7  A    between atoms: C_13  and  C_27
    8  A    between atoms: N_14  and  C_22
    9  A    between atoms: C_19  and  C_37
   10  A    between atoms: C_27  and  C_30
   11  A    between atoms: O_34  and  C_38
                            x       y       z     vdW  Elec       q    Type
                         _______ _______ _______ _____ _____    ______ ____

>  <TORSDO>
F 11

$$$$
=
 OpenBabel11052416353D

 43 48  0  0  1  0  0  0  0  0999 V2000
  191.3630  176.3490  146.8760 C   0  0  0  0  0  0  0  0  0  0  0  0
  187.3820  177.7440  144.0760 C   0  0  0  0  0  0  0  0  0  0  0  0
  189.2520  177.3360  146.1960 C   0  0  0  0  0  0  0  0  0  0  0  0
  191.7570  176.2090  145.4280 C   0  0  0  0  0  3  0  0  0  0  0  0
  192.2880  175.8810  147.8770 C   0  0  0  0  0  1  0  0  0  0  0  0
  189.8120  177.5980  144.7160 C   0  0  1  0  0  3  0  0  0  0  0  0
  190.2090  176.8470  147.2240 C   0  0  0  0  0  3  0  0  0  0  0  0
  191.0210  176.7360  144.4550 C   0  0  0  0  0  3  0  0  0  0  0  0
  188.7650  177.3880  143.6410 C   0  0  2  0  0  3  0  0  0  0  0  0
  187.0900  177.7980  145.4560 C   0  0  0  0  0  3  0  0  0  0  0  0
  188.0400  177.5300  146.4600 N   0  0  0  0  0  0  0  0  0  0  0  0
  189.0600  178.2670  142.3080 C   0  0  0  0  0  2  0  0  0  0  0  0
  189.7870  177.5630  141.0770 C   0  0  2  0  0  3  0  0  0  0  0  0
  191.2250  177.5020  140.9150 C   0  0  0  0  0  2  0  0  0  0  0  0
  191.6460  176.8770  139.5390 C   0  0  0  0  0  1  0  0  0  0  0  0
  188.9500  176.9700  140.0600 C   0  0  0  0  0  2  0  0  0  0  0  0
  188.7100  178.6490  136.8030 C   0  0  0  0  0  2  0  0  0  0  0  0
  187.0780  177.3030  138.3450 C   0  0  2  0  0  3  0  0  0  0  0  0
  187.4370  176.8970  134.8520 O   0  0  0  0  0  0  0  0  0  0  0  0
  188.5400  177.5250  137.9000 C   0  0  2  0  0  3  0  0  0  0  0  0
  189.4450  177.8820  135.7390 C   0  0  0  0  0  2  0  0  0  0  0  0
  188.2060  178.0040  139.1940 C   0  0  2  0  0  3  0  0  0  0  0  0
  186.4350  176.5420  135.8350 C   0  0  1  0  0  3  0  0  0  0  0  0
  186.7020  176.1130  137.3170 C   0  0  0  0  0  2  0  0  0  0  0  0
  188.7040  176.5860  135.2390 C   0  0  0  0  0  2  0  0  0  0  0  0
  183.9350  176.9740  136.3840 C   0  0  0  0  0  0  0  0  0  0  0  0
  185.1440  177.1340  135.5290 N   0  0  0  0  0  2  0  0  0  0  0  0
  181.5480  179.2300  137.8260 C   0  0  0  0  0  1  0  0  0  0  0  0
  181.6540  177.0880  136.4560 C   0  0  0  0  0  2  0  0  0  0  0  0
  182.1400  177.8090  137.6620 C   0  0  1  0  0  3  0  0  0  0  0  0
  182.8710  176.6680  135.7570 N   0  0  0  0  0  0  0  0  0  0  0  0
  183.6480  177.9140  137.5540 C   0  0  0  0  0  2  0  0  0  0  0  0
  186.3010  177.7580  143.1660 O   0  0  0  0  0  0  0  0  0  0  0  0
  185.4170  178.8740  143.0250 C   0  0  0  0  0  2  0  0  0  0  0  0
  184.1520  178.7580  143.9340 C   0  0  0  0  0  2  0  0  0  0  0  0
  180.5060  178.8060  143.3760 C   0  0  0  0  0  3  0  0  0  0  0  0
  180.4420  178.4250  142.0100 C   0  0  0  0  0  0  0  0  0  0  0  0
  182.8550  178.6280  141.8720 C   0  0  0  0  0  3  0  0  0  0  0  0
  181.6740  179.0020  143.9830 C   0  0  0  0  0  3  0  0  0  0  0  0
  182.8850  178.8790  143.2680 C   0  0  0  0  0  0  0  0  0  0  0  0
  181.6300  178.4190  141.2840 C   0  0  0  0  0  3  0  0  0  0  0  0
  179.1120  176.6510  141.1430 N   0  0  0  0  0  2  0  0  0  0  0  0
  179.2530  177.9430  141.3460 C   0  0  0  0  0  3  0  0  0  0  0  0
  1  7  2  0  0  0  0
  1  5  1  0  0  0  0
  2 10  2  0  0  0  0
  3 11  2  0  0  0  0
  3  7  1  0  0  0  0
  4  1  1  0  0  0  0
  6  8  1  6  0  0  0
  6  3  1  0  0  0  0
  8  4  2  0  0  0  0
  9 12  1  6  0  0  0
  9  2  1  0  0  0  0
  9  6  1  0  0  0  0
 10 11  1  0  0  0  0
 13 16  1  6  0  0  0
 13 12  1  0  0  0  0
 14 13  1  0  0  0  0
 15 14  1  0  0  0  0
 18 24  1  1  0  0  0
 18 22  1  0  0  0  0
 19 25  1  0  0  0  0
 19 23  1  0  0  0  0
 20 17  1  6  0  0  0
 20 18  1  0  0  0  0
 20 22  1  0  0  0  0
 21 17  1  0  0  0  0
 22 16  1  1  0  0  0
 23 27  1  1  0  0  0
 23 24  1  0  0  0  0
 25 21  1  0  0  0  0
 26 32  1  0  0  0  0
 27 26  1  0  0  0  0
 29 30  1  0  0  0  0
 30 28  1  6  0  0  0
 31 26  2  0  0  0  0
 31 29  1  0  0  0  0
 32 30  1  0  0  0  0
 33  2  1  0  0  0  0
 34 33  1  0  0  0  0
 34 35  1  0  0  0  0
 36 39  1  0  0  0  0
 37 36  2  0  0  0  0
 38 40  1  0  0  0  0
 40 35  1  0  0  0  0
 40 39  2  0  0  0  0
 41 38  2  0  0  0  0
 41 37  1  0  0  0  0
 42 43  2  0  0  0  0
 43 37  1  0  0  0  0
M  END
>  <MODEL>
5

>  <REMARK>
 VINA RESULT:      -8.7      2.292      6.431
  Name = 
  11 active torsions:
  status: ('A' for Active; 'I' for Inactive)
    1  A    between atoms: C_1  and  C_35
    2  A    between atoms: C_1  and  C_38
    3  A    between atoms: C_2  and  C_13
    4  A    between atoms: C_6  and  C_13
    5  A    between atoms: C_6  and  C_17
    6  A    between atoms: C_8  and  O_34
    7  A    between atoms: C_13  and  C_27
    8  A    between atoms: N_14  and  C_22
    9  A    between atoms: C_19  and  C_37
   10  A    between atoms: C_27  and  C_30
   11  A    between atoms: O_34  and  C_38
                            x       y       z     vdW  Elec       q    Type
                         _______ _______ _______ _____ _____    ______ ____

>  <TORSDO>
F 11

$$$$
=
 OpenBabel11052416353D

 43 48  0  0  1  0  0  0  0  0999 V2000
  188.3110  177.8730  147.2870 C   0  0  0  0  0  0  0  0  0  0  0  0
  187.9240  178.1680  142.2470 C   0  0  0  0  0  0  0  0  0  0  0  0
  188.7670  177.6040  144.9180 C   0  0  0  0  0  0  0  0  0  0  0  0
  186.8910  178.2570  146.9640 C   0  0  0  0  0  3  0  0  0  0  0  0
  188.7110  177.8560  148.6720 C   0  0  0  0  0  1  0  0  0  0  0  0
  187.1980  177.5780  144.5840 C   0  0  1  0  0  3  0  0  0  0  0  0
  189.1730  177.5940  146.3480 C   0  0  0  0  0  3  0  0  0  0  0  0
  186.4110  178.1670  145.7280 C   0  0  0  0  0  3  0  0  0  0  0  0
  186.8560  178.2800  143.2850 C   0  0  2  0  0  3  0  0  0  0  0  0
  189.2410  177.8570  142.6490 C   0  0  0  0  0  3  0  0  0  0  0  0
  189.6120  177.6450  143.9900 N   0  0  0  0  0  0  0  0  0  0  0  0
  185.5020  177.7010  142.6050 C   0  0  0  0  0  2  0  0  0  0  0  0
  184.2010  178.6210  142.5930 C   0  0  2  0  0  3  0  0  0  0  0  0
  183.8920  179.5970  143.6180 C   0  0  0  0  0  2  0  0  0  0  0  0
  183.1270  178.9650  144.8340 C   0  0  0  0  0  1  0  0  0  0  0  0
  183.2750  178.4500  141.4980 C   0  0  0  0  0  2  0  0  0  0  0  0
  184.2700  177.8940  138.0060 C   0  0  0  0  0  2  0  0  0  0  0  0
  182.5320  179.4120  139.2430 C   0  0  2  0  0  3  0  0  0  0  0  0
  181.9170  177.5030  136.3320 O   0  0  0  0  0  0  0  0  0  0  0  0
  183.3280  178.0880  139.2600 C   0  0  2  0  0  3  0  0  0  0  0  0
  183.7910  176.5590  137.5090 C   0  0  0  0  0  2  0  0  0  0  0  0
  183.7580  179.0810  140.1780 C   0  0  2  0  0  3  0  0  0  0  0  0
  181.2720  178.6200  136.9890 C   0  0  1  0  0  3  0  0  0  0  0  0
  181.1870  178.8630  138.5340 C   0  0  0  0  0  2  0  0  0  0  0  0
  182.2520  176.4970  137.1860 C   0  0  0  0  0  2  0  0  0  0  0  0
  180.4230  181.0150  136.4590 C   0  0  0  0  0  0  0  0  0  0  0  0
  181.1860  179.7810  136.1210 N   0  0  0  0  0  2  0  0  0  0  0  0
  181.1800  184.5210  136.4930 C   0  0  0  0  0  1  0  0  0  0  0  0
  179.4240  182.8950  135.6300 C   0  0  0  0  0  2  0  0  0  0  0  0
  180.2290  183.3390  136.7980 C   0  0  1  0  0  3  0  0  0  0  0  0
  179.6750  181.4560  135.5280 N   0  0  0  0  0  0  0  0  0  0  0  0
  181.0500  182.1530  137.2630 C   0  0  0  0  0  2  0  0  0  0  0  0
  187.7220  178.6270  140.9270 O   0  0  0  0  0  0  0  0  0  0  0  0
  188.6830  178.4430  139.8830 C   0  0  0  0  0  2  0  0  0  0  0  0
  188.3970  177.1740  139.0180 C   0  0  0  0  0  2  0  0  0  0  0  0
  191.8410  176.0160  138.3830 C   0  0  0  0  0  3  0  0  0  0  0  0
  191.9080  176.1460  136.9710 C   0  0  0  0  0  0  0  0  0  0  0  0
  189.5280  176.6120  136.9310 C   0  0  0  0  0  3  0  0  0  0  0  0
  190.7110  176.2540  139.0450 C   0  0  0  0  0  3  0  0  0  0  0  0
  189.5310  176.5990  138.3500 C   0  0  0  0  0  0  0  0  0  0  0  0
  190.7180  176.3720  136.2850 C   0  0  0  0  0  3  0  0  0  0  0  0
  194.2080  176.7130  136.7270 N   0  0  0  0  0  2  0  0  0  0  0  0
  193.1320  176.1640  136.2040 C   0  0  0  0  0  3  0  0  0  0  0  0
  1  5  1  0  0  0  0
  2 10  2  0  0  0  0
  2  9  1  0  0  0  0
  3  7  1  0  0  0  0
  4  1  1  0  0  0  0
  6  3  1  0  0  0  0
  6  8  1  1  0  0  0
  7  1  2  0  0  0  0
  8  4  2  0  0  0  0
  9 12  1  6  0  0  0
  9  6  1  0  0  0  0
 10 11  1  0  0  0  0
 11  3  2  0  0  0  0
 13 16  1  1  0  0  0
 13 12  1  0  0  0  0
 13 14  1  0  0  0  0
 14 15  1  0  0  0  0
 18 24  1  1  0  0  0
 18 20  1  0  0  0  0
 18 22  1  0  0  0  0
 19 23  1  0  0  0  0
 19 25  1  0  0  0  0
 20 17  1  6  0  0  0
 20 22  1  0  0  0  0
 21 17  1  0  0  0  0
 22 16  1  1  0  0  0
 23 27  1  6  0  0  0
 23 24  1  0  0  0  0
 25 21  1  0  0  0  0
 26 32  1  0  0  0  0
 27 26  1  0  0  0  0
 29 30  1  0  0  0  0
 30 28  1  6  0  0  0
 30 32  1  0  0  0  0
 31 29  1  0  0  0  0
 31 26  2  0  0  0  0
 33  2  1  0  0  0  0
 34 33  1  0  0  0  0
 35 34  1  0  0  0  0
 36 39  1  0  0  0  0
 37 36  2  0  0  0  0
 38 40  1  0  0  0  0
 40 35  1  0  0  0  0
 40 39  2  0  0  0  0
 41 38  2  0  0  0  0
 41 37  1  0  0  0  0
 43 42  2  0  0  0  0
 43 37  1  0  0  0  0
M  END
>  <MODEL>
6

>  <REMARK>
 VINA RESULT:      -8.7      2.399      4.188
  Name = 
  11 active torsions:
  status: ('A' for Active; 'I' for Inactive)
    1  A    between atoms: C_1  and  C_35
    2  A    between atoms: C_1  and  C_38
    3  A    between atoms: C_2  and  C_13
    4  A    between atoms: C_6  and  C_13
    5  A    between atoms: C_6  and  C_17
    6  A    between atoms: C_8  and  O_34
    7  A    between atoms: C_13  and  C_27
    8  A    between atoms: N_14  and  C_22
    9  A    between atoms: C_19  and  C_37
   10  A    between atoms: C_27  and  C_30
   11  A    between atoms: O_34  and  C_38
                            x       y       z     vdW  Elec       q    Type
                         _______ _______ _______ _____ _____    ______ ____

>  <TORSDO>
F 11

$$$$
=
 OpenBabel11052416353D

 43 48  0  0  1  0  0  0  0  0999 V2000
  191.1740  176.7110  146.9770 C   0  0  0  0  0  0  0  0  0  0  0  0
  188.9100  178.0080  142.6380 C   0  0  0  0  0  0  0  0  0  0  0  0
  190.7210  177.0170  144.6120 C   0  0  0  0  0  0  0  0  0  0  0  0
  189.7180  176.9490  147.2810 C   0  0  0  0  0  3  0  0  0  0  0  0
  192.0640  176.4580  148.0820 C   0  0  0  0  0  1  0  0  0  0  0  0
  189.1460  176.8410  144.8550 C   0  0  1  0  0  3  0  0  0  0  0  0
  191.6340  176.7610  145.7570 C   0  0  0  0  0  3  0  0  0  0  0  0
  188.8150  177.0560  146.3110 C   0  0  0  0  0  3  0  0  0  0  0  0
  188.3050  177.7460  143.9780 C   0  0  2  0  0  3  0  0  0  0  0  0
  190.2960  177.8080  142.4600 C   0  0  0  0  0  3  0  0  0  0  0  0
  191.1540  177.3730  143.4870 N   0  0  0  0  0  0  0  0  0  0  0  0
  186.8270  177.1380  143.6960 C   0  0  0  0  0  2  0  0  0  0  0  0
  185.5870  178.1380  143.6580 C   0  0  2  0  0  3  0  0  0  0  0  0
  185.4340  179.2710  144.5470 C   0  0  0  0  0  2  0  0  0  0  0  0
  185.4070  178.8460  146.0570 C   0  0  0  0  0  1  0  0  0  0  0  0
  184.5520  177.8770  142.6840 C   0  0  0  0  0  2  0  0  0  0  0  0
  184.4900  179.0110  139.1910 C   0  0  0  0  0  2  0  0  0  0  0  0
  182.8180  179.0470  141.2060 C   0  0  2  0  0  3  0  0  0  0  0  0
  182.0400  178.1260  137.8830 O   0  0  0  0  0  0  0  0  0  0  0  0
  184.0050  178.3250  140.5290 C   0  0  2  0  0  3  0  0  0  0  0  0
  184.4020  177.8480  138.2420 C   0  0  0  0  0  2  0  0  0  0  0  0
  184.3110  179.0480  141.7120 C   0  0  2  0  0  3  0  0  0  0  0  0
  181.2800  178.5320  139.0460 C   0  0  1  0  0  3  0  0  0  0  0  0
  181.6180  178.1940  140.5380 C   0  0  0  0  0  2  0  0  0  0  0  0
  182.9800  177.1810  138.1570 C   0  0  0  0  0  2  0  0  0  0  0  0
  180.9810  180.8800  137.9820 C   0  0  0  0  0  0  0  0  0  0  0  0
  180.4950  179.7270  138.7890 N   0  0  0  0  0  2  0  0  0  0  0  0
  179.6720  182.7540  135.2170 C   0  0  0  0  0  1  0  0  0  0  0  0
  180.7040  183.1000  137.5170 C   0  0  0  0  0  2  0  0  0  0  0  0
  180.8170  182.4160  136.2020 C   0  0  1  0  0  3  0  0  0  0  0  0
  180.7860  182.0230  138.5060 N   0  0  0  0  0  0  0  0  0  0  0  0
  180.8170  180.9230  136.4630 C   0  0  0  0  0  2  0  0  0  0  0  0
  188.2030  178.7040  141.6320 O   0  0  0  0  0  0  0  0  0  0  0  0
  187.9800  178.1670  140.3240 C   0  0  0  0  0  2  0  0  0  0  0  0
  189.0610  178.6240  139.2940 C   0  0  0  0  0  2  0  0  0  0  0  0
  187.5730  177.2800  136.1980 C   0  0  0  0  0  3  0  0  0  0  0  0
  188.5990  176.3980  135.7710 C   0  0  0  0  0  0  0  0  0  0  0  0
  190.0450  177.2910  137.5020 C   0  0  0  0  0  3  0  0  0  0  0  0
  187.7320  178.0610  137.2650 C   0  0  0  0  0  3  0  0  0  0  0  0
  188.9520  178.0630  137.9760 C   0  0  0  0  0  0  0  0  0  0  0  0
  189.8360  176.4900  136.4050 C   0  0  0  0  0  3  0  0  0  0  0  0
  189.2210  174.2950  134.8430 N   0  0  0  0  0  2  0  0  0  0  0  0
  188.4250  175.3430  134.8010 C   0  0  0  0  0  3  0  0  0  0  0  0
  1  4  1  0  0  0  0
  1  5  1  0  0  0  0
  2  9  1  0  0  0  0
  3  6  1  0  0  0  0
  3  7  1  0  0  0  0
  6  8  1  1  0  0  0
  7  1  2  0  0  0  0
  8  4  2  0  0  0  0
  9 12  1  6  0  0  0
  9  6  1  0  0  0  0
 10  2  2  0  0  0  0
 10 11  1  0  0  0  0
 11  3  2  0  0  0  0
 13 16  1  1  0  0  0
 13 12  1  0  0  0  0
 13 14  1  0  0  0  0
 14 15  1  0  0  0  0
 18 24  1  1  0  0  0
 18 22  1  0  0  0  0
 19 25  1  0  0  0  0
 19 23  1  0  0  0  0
 20 17  1  6  0  0  0
 20 18  1  0  0  0  0
 20 22  1  0  0  0  0
 21 17  1  0  0  0  0
 22 16  1  1  0  0  0
 23 27  1  1  0  0  0
 23 24  1  0  0  0  0
 25 21  1  0  0  0  0
 26 31  2  0  0  0  0
 26 27  1  0  0  0  0
 29 31  1  0  0  0  0
 30 28  1  6  0  0  0
 30 32  1  0  0  0  0
 30 29  1  0  0  0  0
 32 26  1  0  0  0  0
 33  2  1  0  0  0  0
 34 33  1  0  0  0  0
 35 34  1  0  0  0  0
 36 39  1  0  0  0  0
 37 36  2  0  0  0  0
 37 41  1  0  0  0  0
 38 40  1  0  0  0  0
 39 40  2  0  0  0  0
 40 35  1  0  0  0  0
 41 38  2  0  0  0  0
 43 42  2  0  0  0  0
 43 37  1  0  0  0  0
M  END
>  <MODEL>
7

>  <REMARK>
 VINA RESULT:      -8.6      1.884      3.447
  Name = 
  11 active torsions:
  status: ('A' for Active; 'I' for Inactive)
    1  A    between atoms: C_1  and  C_35
    2  A    between atoms: C_1  and  C_38
    3  A    between atoms: C_2  and  C_13
    4  A    between atoms: C_6  and  C_13
    5  A    between atoms: C_6  and  C_17
    6  A    between atoms: C_8  and  O_34
    7  A    between atoms: C_13  and  C_27
    8  A    between atoms: N_14  and  C_22
    9  A    between atoms: C_19  and  C_37
   10  A    between atoms: C_27  and  C_30
   11  A    between atoms: O_34  and  C_38
                            x       y       z     vdW  Elec       q    Type
                         _______ _______ _______ _____ _____    ______ ____

>  <TORSDO>
F 11

$$$$
=
 OpenBabel11052416353D

 43 48  0  0  1  0  0  0  0  0999 V2000
  191.1060  176.4910  146.3960 C   0  0  0  0  0  0  0  0  0  0  0  0
  187.0250  177.9080  143.7550 C   0  0  0  0  0  0  0  0  0  0  0  0
  188.9620  177.4650  145.8070 C   0  0  0  0  0  0  0  0  0  0  0  0
  191.4600  176.4010  144.9340 C   0  0  0  0  0  3  0  0  0  0  0  0
  192.0660  176.0080  147.3560 C   0  0  0  0  0  1  0  0  0  0  0  0
  189.4740  177.7810  144.3210 C   0  0  1  0  0  3  0  0  0  0  0  0
  189.9550  176.9600  146.7920 C   0  0  0  0  0  3  0  0  0  0  0  0
  190.6880  176.9460  143.9990 C   0  0  0  0  0  3  0  0  0  0  0  0
  188.4010  177.5870  143.2690 C   0  0  2  0  0  3  0  0  0  0  0  0
  186.7720  177.9160  145.1440 C   0  0  0  0  0  3  0  0  0  0  0  0
  187.7540  177.6320  146.1110 N   0  0  0  0  0  0  0  0  0  0  0  0
  188.6430  178.5100  141.9570 C   0  0  0  0  0  2  0  0  0  0  0  0
  189.4090  177.8770  140.7110 C   0  0  2  0  0  3  0  0  0  0  0  0
  190.4110  176.8370  140.8210 C   0  0  0  0  0  2  0  0  0  0  0  0
  191.6870  177.1420  139.9610 C   0  0  0  0  0  1  0  0  0  0  0  0
  189.0860  178.3920  139.4010 C   0  0  0  0  0  2  0  0  0  0  0  0
  186.9720  177.9960  136.4240 C   0  0  0  0  0  2  0  0  0  0  0  0
  188.0830  176.3860  138.1640 C   0  0  2  0  0  3  0  0  0  0  0  0
  188.0850  175.9650  134.6540 O   0  0  0  0  0  0  0  0  0  0  0  0
  188.1610  177.7450  137.4340 C   0  0  2  0  0  3  0  0  0  0  0  0
  187.7420  178.2900  135.1660 C   0  0  0  0  0  2  0  0  0  0  0  0
  187.7960  177.7980  138.8050 C   0  0  2  0  0  3  0  0  0  0  0  0
  188.3190  175.1070  135.7970 C   0  0  1  0  0  3  0  0  0  0  0  0
  188.9970  175.5250  137.1460 C   0  0  0  0  0  2  0  0  0  0  0  0
  188.7410  177.1540  134.7320 C   0  0  0  0  0  2  0  0  0  0  0  0
  186.1510  173.9570  136.6420 C   0  0  0  0  0  0  0  0  0  0  0  0
  187.3980  173.9840  135.8280 N   0  0  0  0  0  2  0  0  0  0  0  0
  182.7070  173.2220  135.9580 C   0  0  0  0  0  1  0  0  0  0  0  0
  184.5580  172.6270  137.5990 C   0  0  0  0  0  2  0  0  0  0  0  0
  183.8220  173.7180  136.9100 C   0  0  1  0  0  3  0  0  0  0  0  0
  185.9700  172.8900  137.3120 N   0  0  0  0  0  0  0  0  0  0  0  0
  184.8310  174.5170  136.1100 C   0  0  0  0  0  2  0  0  0  0  0  0
  185.9190  177.9320  142.8770 O   0  0  0  0  0  0  0  0  0  0  0  0
  184.5870  178.2290  143.3100 C   0  0  0  0  0  2  0  0  0  0  0  0
  183.7480  178.9620  142.2150 C   0  0  0  0  0  2  0  0  0  0  0  0
  184.3760  178.7980  138.5840 C   0  0  0  0  0  3  0  0  0  0  0  0
  183.4820  177.7630  138.2070 C   0  0  0  0  0  0  0  0  0  0  0  0
  183.0580  177.3150  140.5530 C   0  0  0  0  0  3  0  0  0  0  0  0
  184.5410  179.1360  139.8610 C   0  0  0  0  0  3  0  0  0  0  0  0
  183.8590  178.4390  140.8830 C   0  0  0  0  0  0  0  0  0  0  0  0
  182.9040  177.0050  139.2220 C   0  0  0  0  0  3  0  0  0  0  0  0
  181.8660  176.9600  136.6530 N   0  0  0  0  0  2  0  0  0  0  0  0
  183.0470  177.5050  136.8540 C   0  0  0  0  0  3  0  0  0  0  0  0
  1  7  2  0  0  0  0
  1  5  1  0  0  0  0
  2 10  2  0  0  0  0
  3 11  2  0  0  0  0
  3  7  1  0  0  0  0
  4  1  1  0  0  0  0
  6  8  1  6  0  0  0
  6  3  1  0  0  0  0
  8  4  2  0  0  0  0
  9 12  1  6  0  0  0
  9  2  1  0  0  0  0
  9  6  1  0  0  0  0
 10 11  1  0  0  0  0
 13 16  1  1  0  0  0
 13 14  1  0  0  0  0
 13 12  1  0  0  0  0
 15 14  1  0  0  0  0
 18 24  1  1  0  0  0
 18 22  1  0  0  0  0
 19 25  1  0  0  0  0
 19 23  1  0  0  0  0
 20 17  1  6  0  0  0
 20 18  1  0  0  0  0
 20 22  1  0  0  0  0
 21 17  1  0  0  0  0
 22 16  1  1  0  0  0
 23 27  1  1  0  0  0
 23 24  1  0  0  0  0
 25 21  1  0  0  0  0
 26 31  2  0  0  0  0
 27 26  1  0  0  0  0
 30 28  1  6  0  0  0
 30 29  1  0  0  0  0
 31 29  1  0  0  0  0
 32 26  1  0  0  0  0
 32 30  1  0  0  0  0
 33 34  1  0  0  0  0
 33  2  1  0  0  0  0
 35 34  1  0  0  0  0
 36 39  1  0  0  0  0
 37 36  2  0  0  0  0
 37 41  1  0  0  0  0
 38 40  1  0  0  0  0
 39 40  2  0  0  0  0
 40 35  1  0  0  0  0
 41 38  2  0  0  0  0
 42 43  2  0  0  0  0
 43 37  1  0  0  0  0
M  END
>  <MODEL>
8

>  <REMARK>
 VINA RESULT:      -8.5      1.979      5.506
  Name = 
  11 active torsions:
  status: ('A' for Active; 'I' for Inactive)
    1  A    between atoms: C_1  and  C_35
    2  A    between atoms: C_1  and  C_38
    3  A    between atoms: C_2  and  C_13
    4  A    between atoms: C_6  and  C_13
    5  A    between atoms: C_6  and  C_17
    6  A    between atoms: C_8  and  O_34
    7  A    between atoms: C_13  and  C_27
    8  A    between atoms: N_14  and  C_22
    9  A    between atoms: C_19  and  C_37
   10  A    between atoms: C_27  and  C_30
   11  A    between atoms: O_34  and  C_38
                            x       y       z     vdW  Elec       q    Type
                         _______ _______ _______ _____ _____    ______ ____

>  <TORSDO>
F 11

$$$$
=
 OpenBabel11052416353D

 43 48  0  0  1  0  0  0  0  0999 V2000
  191.4800  173.9050  136.5900 C   0  0  0  0  0  0  0  0  0  0  0  0
  189.2000  177.6590  139.1090 C   0  0  0  0  0  0  0  0  0  0  0  0
  191.1130  175.9020  137.9210 C   0  0  0  0  0  0  0  0  0  0  0  0
  190.0520  173.9670  136.1140 C   0  0  0  0  0  3  0  0  0  0  0  0
  192.3060  172.8230  136.1160 C   0  0  0  0  0  1  0  0  0  0  0  0
  189.7680  176.2350  137.1130 C   0  0  1  0  0  3  0  0  0  0  0  0
  191.9580  174.7800  137.4310 C   0  0  0  0  0  3  0  0  0  0  0  0
  189.2700  175.0030  136.3980 C   0  0  0  0  0  3  0  0  0  0  0  0
  188.6790  176.8190  137.9900 C   0  0  2  0  0  3  0  0  0  0  0  0
  190.5390  177.4940  139.5250 C   0  0  0  0  0  3  0  0  0  0  0  0
  191.4230  176.5680  138.9400 N   0  0  0  0  0  0  0  0  0  0  0  0
  187.6510  177.7600  137.1590 C   0  0  0  0  0  2  0  0  0  0  0  0
  186.2410  177.1550  136.7280 C   0  0  2  0  0  3  0  0  0  0  0  0
  186.0060  176.4660  135.4760 C   0  0  0  0  0  2  0  0  0  0  0  0
  185.9890  174.9070  135.6450 C   0  0  0  0  0  1  0  0  0  0  0  0
  185.1370  177.3260  137.6430 C   0  0  0  0  0  2  0  0  0  0  0  0
  183.3700  180.2000  139.0940 C   0  0  0  0  0  2  0  0  0  0  0  0
  184.9050  178.2860  140.0060 C   0  0  2  0  0  3  0  0  0  0  0  0
  181.8730  179.3820  141.4570 O   0  0  0  0  0  0  0  0  0  0  0  0
  183.8880  178.7170  138.9270 C   0  0  2  0  0  3  0  0  0  0  0  0
  181.8850  179.9680  139.1240 C   0  0  0  0  0  2  0  0  0  0  0  0
  185.2370  178.6030  138.4980 C   0  0  2  0  0  3  0  0  0  0  0  0
  183.0180  178.6200  141.9100 C   0  0  1  0  0  3  0  0  0  0  0  0
  183.8650  177.6210  141.0510 C   0  0  0  0  0  2  0  0  0  0  0  0
  181.4020  178.9760  140.2460 C   0  0  0  0  0  2  0  0  0  0  0  0
  184.1930  178.4930  144.2200 C   0  0  0  0  0  0  0  0  0  0  0  0
  183.6690  179.2460  143.0470 N   0  0  0  0  0  2  0  0  0  0  0  0
  187.3230  178.4100  145.9710 C   0  0  0  0  0  1  0  0  0  0  0  0
  184.8270  178.6280  146.4120 C   0  0  0  0  0  2  0  0  0  0  0  0
  185.8970  177.8630  145.7210 C   0  0  1  0  0  3  0  0  0  0  0  0
  183.8750  178.9760  145.3540 N   0  0  0  0  0  0  0  0  0  0  0  0
  185.6060  177.9090  144.2350 C   0  0  0  0  0  2  0  0  0  0  0  0
  188.3330  178.4060  139.9380 O   0  0  0  0  0  0  0  0  0  0  0  0
  188.0120  178.0200  141.2780 C   0  0  0  0  0  2  0  0  0  0  0  0
  188.8010  178.8420  142.3460 C   0  0  0  0  0  2  0  0  0  0  0  0
  190.6330  176.0590  143.9290 C   0  0  0  0  0  3  0  0  0  0  0  0
  191.3020  176.7430  144.9760 C   0  0  0  0  0  0  0  0  0  0  0  0
  190.5720  178.8520  144.0240 C   0  0  0  0  0  3  0  0  0  0  0  0
  189.9040  176.7160  143.0300 C   0  0  0  0  0  3  0  0  0  0  0  0
  189.8130  178.1250  143.0700 C   0  0  0  0  0  0  0  0  0  0  0  0
  191.3040  178.1350  144.9420 C   0  0  0  0  0  3  0  0  0  0  0  0
  191.4920  176.4610  147.3330 N   0  0  0  0  0  2  0  0  0  0  0  0
  191.8910  176.1050  146.1310 C   0  0  0  0  0  3  0  0  0  0  0  0
  1  7  2  0  0  0  0
  2 10  2  0  0  0  0
  2 33  1  0  0  0  0
  3 11  2  0  0  0  0
  4  8  2  0  0  0  0
  4  1  1  0  0  0  0
  5  1  1  0  0  0  0
  6  8  1  1  0  0  0
  6  3  1  0  0  0  0
  6  9  1  0  0  0  0
  7  3  1  0  0  0  0
  9 12  1  6  0  0  0
  9  2  1  0  0  0  0
 11 10  1  0  0  0  0
 13 14  1  6  0  0  0
 13 12  1  0  0  0  0
 13 16  1  0  0  0  0
 14 15  1  0  0  0  0
 17 21  1  0  0  0  0
 18 24  1  6  0  0  0
 19 23  1  0  0  0  0
 20 17  1  1  0  0  0
 20 18  1  0  0  0  0
 21 25  1  0  0  0  0
 22 16  1  6  0  0  0
 22 20  1  0  0  0  0
 22 18  1  0  0  0  0
 23 27  1  6  0  0  0
 24 23  1  0  0  0  0
 25 19  1  0  0  0  0
 26 32  1  0  0  0  0
 26 31  2  0  0  0  0
 27 26  1  0  0  0  0
 30 28  1  6  0  0  0
 30 29  1  0  0  0  0
 31 29  1  0  0  0  0
 32 30  1  0  0  0  0
 33 34  1  0  0  0  0
 34 35  1  0  0  0  0
 35 40  1  0  0  0  0
 36 37  1  0  0  0  0
 37 43  1  0  0  0  0
 38 41  1  0  0  0  0
 39 40  1  0  0  0  0
 39 36  2  0  0  0  0
 40 38  2  0  0  0  0
 41 37  2  0  0  0  0
 43 42  2  0  0  0  0
M  END
>  <MODEL>
9

>  <REMARK>
 VINA RESULT:      -8.4      2.213      7.161
  Name = 
  11 active torsions:
  status: ('A' for Active; 'I' for Inactive)
    1  A    between atoms: C_1  and  C_35
    2  A    between atoms: C_1  and  C_38
    3  A    between atoms: C_2  and  C_13
    4  A    between atoms: C_6  and  C_13
    5  A    between atoms: C_6  and  C_17
    6  A    between atoms: C_8  and  O_34
    7  A    between atoms: C_13  and  C_27
    8  A    between atoms: N_14  and  C_22
    9  A    between atoms: C_19  and  C_37
   10  A    between atoms: C_27  and  C_30
   11  A    between atoms: O_34  and  C_38
                            x       y       z     vdW  Elec       q    Type
                         _______ _______ _______ _____ _____    ______ ____

>  <TORSDO>
F 11

$$$$
