=
 OpenBabel11052415223D

 37 44  0  0  1  0  0  0  0  0999 V2000
  189.4520  176.7870  141.8100 O   0  0  0  0  0  0  0  0  0  0  0  0
  190.5880  175.9550  146.3390 C   0  0  0  0  0  2  0  0  0  0  0  0
  187.2250  178.3420  145.3070 C   0  0  2  0  0  3  0  0  0  0  0  0
  190.1960  177.3550  140.7570 C   0  0  2  0  0  3  0  0  0  0  0  0
  185.4850  177.9570  141.9650 C   0  0  0  0  0  2  0  0  0  0  0  0
  188.6290  177.4680  146.9430 C   0  0  1  0  0  0  0  0  0  0  0  0
  186.9920  178.4320  144.0200 C   0  0  2  0  0  3  0  0  0  0  0  0
  188.6340  178.3400  145.6840 C   0  0  1  0  0  3  0  0  0  0  0  0
  185.6130  178.3550  143.4200 C   0  0  0  0  0  0  0  0  0  0  0  0
  187.9730  178.2030  148.0980 C   0  0  0  0  0  2  0  0  0  0  0  0
  189.4490  177.2060  139.4230 C   0  0  0  0  0  2  0  0  0  0  0  0
  189.2550  177.8140  144.4000 C   0  0  2  0  0  3  0  0  0  0  0  0
  191.6790  177.2270  144.4730 C   0  0  0  0  0  2  0  0  0  0  0  0
  185.2000  178.5120  146.5560 C   0  0  0  0  0  3  0  0  0  0  0  0
  187.2070  177.1040  147.3720 C   0  0  1  0  0  3  0  0  0  0  0  0
  190.6690  178.3430  144.2420 C   0  0  0  0  0  2  0  0  0  0  0  0
  187.9810  177.6390  139.5450 C   0  0  1  0  0  3  0  0  0  0  0  0
  186.2950  178.8590  141.0450 C   0  0  0  0  0  2  0  0  0  0  0  0
  186.3310  177.6170  146.2180 C   0  0  2  0  0  3  0  0  0  0  0  0
  188.3230  178.3860  143.3140 C   0  0  1  0  0  3  0  0  0  0  0  0
  189.8010  176.6270  147.4500 C   0  0  0  0  0  2  0  0  0  0  0  0
  184.4640  178.6210  144.1270 C   0  0  0  0  0  0  0  0  0  0  0  0
  191.7610  176.8360  145.9410 C   0  0  0  0  0  2  0  0  0  0  0  0
  187.7450  178.3820  140.8630 C   0  0  1  0  0  3  0  0  0  0  0  0
  188.2630  177.5330  142.0490 C   0  0  1  0  0  3  0  0  0  0  0  0
  184.3820  178.9460  145.5880 C   0  0  0  0  0  3  0  0  0  0  0  0
  183.0890  178.6480  142.0470 C   0  0  0  0  0  3  0  0  0  0  0  0
  183.1530  178.6300  143.4470 C   0  0  0  0  0  0  0  0  0  0  0  0
  181.9640  178.6530  144.1940 C   0  0  0  0  0  3  0  0  0  0  0  0
  179.4720  178.6980  144.3410 C   0  0  0  0  0  1  0  0  0  0  0  0
  180.6700  178.6820  142.1480 C   0  0  0  0  0  3  0  0  0  0  0  0
  180.7270  178.6760  143.5460 C   0  0  0  0  0  0  0  0  0  0  0  0
  181.8510  178.6700  141.3990 C   0  0  0  0  0  3  0  0  0  0  0  0
  187.6150  178.5120  138.3540 C   0  0  0  0  0  2  0  0  0  0  0  0
  188.6980  179.3130  137.9960 O   0  0  0  0  0  1  0  0  0  0  0  0
  192.6570  177.4870  140.5510 C   0  0  0  0  0  2  0  0  0  0  0  0
  191.5600  176.7420  140.6860 C   0  0  0  0  0  3  0  0  0  0  0  0
  1 25  1  0  0  0  0
  2 21  1  0  0  0  0
  3  8  1  0  0  0  0
  3 19  1  0  0  0  0
  4  1  1  0  0  0  0
  5  9  1  0  0  0  0
  6 15  1  0  0  0  0
  6 21  1  0  0  0  0
  6 10  1  0  0  0  0
  7  3  1  0  0  0  0
  8  6  1  0  0  0  0
  9  7  1  0  0  0  0
  9 22  2  0  0  0  0
 11 17  1  0  0  0  0
 11  4  1  0  0  0  0
 12  8  1  0  0  0  0
 13 23  1  0  0  0  0
 15 10  1  0  0  0  0
 16 12  1  0  0  0  0
 16 13  1  0  0  0  0
 17 24  1  0  0  0  0
 18  5  1  0  0  0  0
 19 14  1  0  0  0  0
 19 15  1  0  0  0  0
 20  7  1  0  0  0  0
 20 12  1  0  0  0  0
 22 26  1  0  0  0  0
 23  2  1  0  0  0  0
 24 18  1  0  0  0  0
 24 25  1  0  0  0  0
 25 20  1  0  0  0  0
 26 14  2  0  0  0  0
 27 28  1  0  0  0  0
 28 22  1  0  0  0  0
 28 29  2  0  0  0  0
 31 32  2  0  0  0  0
 32 29  1  0  0  0  0
 32 30  1  0  0  0  0
 33 27  2  0  0  0  0
 33 31  1  0  0  0  0
 34 17  1  0  0  0  0
 35 34  1  0  0  0  0
 36 37  2  0  0  0  0
 37  4  1  0  0  0  0
M  END
>  <MODEL>
1

>  <REMARK>
 VINA RESULT:     -12.0      0.000      0.000
  Name = 
  3 active torsions:
  status: ('A' for Active; 'I' for Inactive)
    1  A    between atoms: C_5  and  C_23
    2  A    between atoms: C_6  and  C_31
    3  A    between atoms: C_11  and  C_26
                            x       y       z     vdW  Elec       q    Type
                         _______ _______ _______ _____ _____    ______ ____

>  <TORSDO>
F 3

$$$$
=
 OpenBabel11052415223D

 37 44  0  0  1  0  0  0  0  0999 V2000
  186.8430  177.3260  144.4270 O   0  0  0  0  0  0  0  0  0  0  0  0
  182.6930  178.1240  142.2750 C   0  0  0  0  0  2  0  0  0  0  0  0
  186.3790  178.5860  140.2080 C   0  0  2  0  0  3  0  0  0  0  0  0
  187.4070  177.8880  145.5890 C   0  0  2  0  0  3  0  0  0  0  0  0
  189.5000  176.7450  141.3070 C   0  0  0  0  0  2  0  0  0  0  0  0
  184.0610  178.7830  140.2290 C   0  0  1  0  0  0  0  0  0  0  0  0
  187.4410  178.2680  140.9060 C   0  0  2  0  0  3  0  0  0  0  0  0
  185.3220  179.2570  140.9570 C   0  0  1  0  0  3  0  0  0  0  0  0
  188.6000  177.4880  140.3440 C   0  0  0  0  0  0  0  0  0  0  0  0
  183.9620  179.4270  138.8570 C   0  0  0  0  0  2  0  0  0  0  0  0
  188.6850  177.1360  145.9900 C   0  0  0  0  0  2  0  0  0  0  0  0
  185.6240  178.7530  142.3590 C   0  0  2  0  0  3  0  0  0  0  0  0
  183.9410  179.2590  144.1300 C   0  0  0  0  0  2  0  0  0  0  0  0
  186.7330  178.1870  137.8830 C   0  0  0  0  0  3  0  0  0  0  0  0
  184.4020  177.9740  138.9770 C   0  0  1  0  0  3  0  0  0  0  0  0
  185.1730  179.7680  143.3930 C   0  0  0  0  0  2  0  0  0  0  0  0
  189.6240  176.9350  144.7910 C   0  0  1  0  0  3  0  0  0  0  0  0
  190.0860  177.6590  142.3740 C   0  0  0  0  0  2  0  0  0  0  0  0
  185.9250  177.7910  139.0600 C   0  0  2  0  0  3  0  0  0  0  0  0
  187.1590  178.6150  142.3450 C   0  0  1  0  0  3  0  0  0  0  0  0
  182.6700  178.6490  140.8500 C   0  0  0  0  0  2  0  0  0  0  0  0
  188.8780  177.4100  138.9990 C   0  0  0  0  0  0  0  0  0  0  0  0
  182.7030  179.2930  143.2470 C   0  0  0  0  0  2  0  0  0  0  0  0
  189.1790  177.7990  143.6070 C   0  0  1  0  0  3  0  0  0  0  0  0
  187.6830  177.5450  143.2990 C   0  0  1  0  0  3  0  0  0  0  0  0
  188.0590  178.0040  137.8920 C   0  0  0  0  0  3  0  0  0  0  0  0
  191.3570  177.2690  138.7660 C   0  0  0  0  0  3  0  0  0  0  0  0
  190.0920  176.7140  138.5260 C   0  0  0  0  0  0  0  0  0  0  0  0
  189.9900  175.5140  137.8060 C   0  0  0  0  0  3  0  0  0  0  0  0
  191.0260  173.5950  136.5880 C   0  0  0  0  0  1  0  0  0  0  0  0
  192.4000  175.4200  137.6020 C   0  0  0  0  0  3  0  0  0  0  0  0
  191.1400  174.8670  137.3480 C   0  0  0  0  0  0  0  0  0  0  0  0
  192.5080  176.6220  138.3090 C   0  0  0  0  0  3  0  0  0  0  0  0
  191.0480  177.2720  145.2070 C   0  0  0  0  0  2  0  0  0  0  0  0
  191.3160  176.7480  146.4700 O   0  0  0  0  0  1  0  0  0  0  0  0
  185.8520  179.0290  147.1360 C   0  0  0  0  0  2  0  0  0  0  0  0
  186.4120  177.8980  146.7060 C   0  0  0  0  0  3  0  0  0  0  0  0
  1  4  1  0  0  0  0
  2 23  1  0  0  0  0
  3  7  1  0  0  0  0
  3  8  1  0  0  0  0
  4 11  1  0  0  0  0
  4 37  1  0  0  0  0
  5 18  1  0  0  0  0
  6 21  1  0  0  0  0
  6  8  1  0  0  0  0
  7 20  1  0  0  0  0
  8 12  1  0  0  0  0
  9  7  1  0  0  0  0
  9  5  1  0  0  0  0
 10 15  1  0  0  0  0
 10  6  1  0  0  0  0
 12 16  1  0  0  0  0
 14 26  2  0  0  0  0
 14 19  1  0  0  0  0
 15 19  1  0  0  0  0
 15  6  1  0  0  0  0
 16 13  1  0  0  0  0
 17 34  1  0  0  0  0
 17 11  1  0  0  0  0
 18 24  1  0  0  0  0
 19  3  1  0  0  0  0
 20 12  1  0  0  0  0
 20 25  1  0  0  0  0
 21  2  1  0  0  0  0
 22  9  2  0  0  0  0
 23 13  1  0  0  0  0
 24 17  1  0  0  0  0
 25 24  1  0  0  0  0
 25  1  1  0  0  0  0
 26 22  1  0  0  0  0
 28 27  1  0  0  0  0
 28 22  1  0  0  0  0
 29 28  2  0  0  0  0
 30 32  1  0  0  0  0
 31 33  1  0  0  0  0
 32 31  2  0  0  0  0
 32 29  1  0  0  0  0
 33 27  2  0  0  0  0
 34 35  1  0  0  0  0
 37 36  2  0  0  0  0
M  END
>  <MODEL>
2

>  <REMARK>
 VINA RESULT:     -11.3      2.050      8.059
  Name = 
  3 active torsions:
  status: ('A' for Active; 'I' for Inactive)
    1  A    between atoms: C_5  and  C_23
    2  A    between atoms: C_6  and  C_31
    3  A    between atoms: C_11  and  C_26
                            x       y       z     vdW  Elec       q    Type
                         _______ _______ _______ _____ _____    ______ ____

>  <TORSDO>
F 3

$$$$
=
 OpenBabel11052415223D

 37 44  0  0  1  0  0  0  0  0999 V2000
  184.3320  177.6310  141.3720 O   0  0  0  0  0  0  0  0  0  0  0  0
  186.4240  176.4690  137.2780 C   0  0  0  0  0  2  0  0  0  0  0  0
  188.6790  177.9180  140.5780 C   0  0  2  0  0  3  0  0  0  0  0  0
  183.2990  178.5440  141.6590 C   0  0  2  0  0  3  0  0  0  0  0  0
  187.4170  177.5710  144.1320 C   0  0  0  0  0  2  0  0  0  0  0  0
  188.6010  177.2430  138.3530 C   0  0  1  0  0  0  0  0  0  0  0  0
  187.9790  178.1350  141.6650 C   0  0  2  0  0  3  0  0  0  0  0  0
  188.0080  178.2630  139.3300 C   0  0  1  0  0  3  0  0  0  0  0  0
  188.4520  177.7590  143.0440 C   0  0  0  0  0  0  0  0  0  0  0  0
  190.0540  177.5700  138.0560 C   0  0  0  0  0  2  0  0  0  0  0  0
  182.8310  178.3960  143.1140 C   0  0  0  0  0  2  0  0  0  0  0  0
  186.5550  178.1440  139.7620 C   0  0  2  0  0  3  0  0  0  0  0  0
  184.8260  178.2740  137.9690 C   0  0  0  0  0  2  0  0  0  0  0  0
  190.9200  177.3030  141.1130 C   0  0  0  0  0  3  0  0  0  0  0  0
  189.7170  176.4230  139.0020 C   0  0  1  0  0  3  0  0  0  0  0  0
  185.6820  179.0750  138.9410 C   0  0  0  0  0  2  0  0  0  0  0  0
  184.0160  178.3630  144.0900 C   0  0  1  0  0  3  0  0  0  0  0  0
  186.5350  178.8000  144.3100 C   0  0  0  0  0  2  0  0  0  0  0  0
  189.6640  176.8340  140.4810 C   0  0  2  0  0  3  0  0  0  0  0  0
  186.6050  178.5840  141.2380 C   0  0  1  0  0  3  0  0  0  0  0  0
  187.9130  176.7070  137.0970 C   0  0  0  0  0  2  0  0  0  0  0  0
  189.7760  177.5700  143.3650 C   0  0  0  0  0  0  0  0  0  0  0  0
  185.6550  177.7010  136.8290 C   0  0  0  0  0  2  0  0  0  0  0  0
  185.3070  178.7940  143.3850 C   0  0  1  0  0  3  0  0  0  0  0  0
  185.5120  177.9570  142.0990 C   0  0  1  0  0  3  0  0  0  0  0  0
  190.9320  177.6280  142.4120 C   0  0  0  0  0  3  0  0  0  0  0  0
  191.3440  176.5790  145.0310 C   0  0  0  0  0  3  0  0  0  0  0  0
  190.1770  177.3070  144.7620 C   0  0  0  0  0  0  0  0  0  0  0  0
  189.3790  177.7530  145.8270 C   0  0  0  0  0  3  0  0  0  0  0  0
  188.9080  177.9650  148.2710 C   0  0  0  0  0  1  0  0  0  0  0  0
  190.9280  176.7720  147.4090 C   0  0  0  0  0  3  0  0  0  0  0  0
  189.7550  177.4880  147.1470 C   0  0  0  0  0  0  0  0  0  0  0  0
  191.7200  176.3160  146.3510 C   0  0  0  0  0  3  0  0  0  0  0  0
  183.7160  179.2680  145.2750 C   0  0  0  0  0  2  0  0  0  0  0  0
  184.1320  178.6610  146.4600 O   0  0  0  0  0  1  0  0  0  0  0  0
  181.9480  177.2150  140.0700 C   0  0  0  0  0  2  0  0  0  0  0  0
  182.1600  178.3690  140.7030 C   0  0  0  0  0  3  0  0  0  0  0  0
  1  4  1  0  0  0  0
  1 25  1  0  0  0  0
  3  7  1  0  0  0  0
  4 11  1  0  0  0  0
  5 18  1  0  0  0  0
  6 15  1  0  0  0  0
  6  8  1  0  0  0  0
  7  9  1  0  0  0  0
  8 12  1  0  0  0  0
  8  3  1  0  0  0  0
  9 22  2  0  0  0  0
  9  5  1  0  0  0  0
 10  6  1  0  0  0  0
 10 15  1  0  0  0  0
 11 17  1  0  0  0  0
 12 20  1  0  0  0  0
 13 16  1  0  0  0  0
 14 26  2  0  0  0  0
 15 19  1  0  0  0  0
 16 12  1  0  0  0  0
 17 34  1  0  0  0  0
 19  3  1  0  0  0  0
 19 14  1  0  0  0  0
 20  7  1  0  0  0  0
 20 25  1  0  0  0  0
 21  2  1  0  0  0  0
 21  6  1  0  0  0  0
 22 28  1  0  0  0  0
 23  2  1  0  0  0  0
 23 13  1  0  0  0  0
 24 17  1  0  0  0  0
 24 18  1  0  0  0  0
 25 24  1  0  0  0  0
 26 22  1  0  0  0  0
 27 33  1  0  0  0  0
 28 27  2  0  0  0  0
 28 29  1  0  0  0  0
 29 32  2  0  0  0  0
 32 31  1  0  0  0  0
 32 30  1  0  0  0  0
 33 31  2  0  0  0  0
 34 35  1  0  0  0  0
 36 37  2  0  0  0  0
 37  4  1  0  0  0  0
M  END
>  <MODEL>
3

>  <REMARK>
 VINA RESULT:     -11.2      1.958      7.839
  Name = 
  3 active torsions:
  status: ('A' for Active; 'I' for Inactive)
    1  A    between atoms: C_5  and  C_23
    2  A    between atoms: C_6  and  C_31
    3  A    between atoms: C_11  and  C_26
                            x       y       z     vdW  Elec       q    Type
                         _______ _______ _______ _____ _____    ______ ____

>  <TORSDO>
F 3

$$$$
=
 OpenBabel11052415223D

 37 44  0  0  1  0  0  0  0  0999 V2000
  184.2400  177.6790  140.9580 O   0  0  0  0  0  0  0  0  0  0  0  0
  186.7660  176.3620  137.1670 C   0  0  0  0  0  2  0  0  0  0  0  0
  188.6480  177.9380  140.6380 C   0  0  2  0  0  3  0  0  0  0  0  0
  183.1850  178.6020  141.0940 C   0  0  2  0  0  3  0  0  0  0  0  0
  187.0020  177.7280  144.0410 C   0  0  0  0  0  2  0  0  0  0  0  0
  188.8140  177.1780  138.4450 C   0  0  1  0  0  0  0  0  0  0  0  0
  187.8340  178.1970  141.6320 C   0  0  2  0  0  3  0  0  0  0  0  0
  188.1200  178.2340  139.3100 C   0  0  1  0  0  3  0  0  0  0  0  0
  188.1510  177.8750  143.0680 C   0  0  0  0  0  0  0  0  0  0  0  0
  190.2920  177.4940  138.2980 C   0  0  0  0  0  2  0  0  0  0  0  0
  182.5590  178.5100  142.4930 C   0  0  0  0  0  2  0  0  0  0  0  0
  186.6290  178.1310  139.5850 C   0  0  2  0  0  3  0  0  0  0  0  0
  185.1080  178.1910  137.6070 C   0  0  0  0  0  2  0  0  0  0  0  0
  190.8150  177.3460  141.4390 C   0  0  0  0  0  3  0  0  0  0  0  0
  189.8490  176.3840  139.2440 C   0  0  1  0  0  3  0  0  0  0  0  0
  185.8540  179.0290  138.6370 C   0  0  0  0  0  2  0  0  0  0  0  0
  183.6290  178.5150  143.5940 C   0  0  1  0  0  3  0  0  0  0  0  0
  186.1100  178.9620  144.0730 C   0  0  0  0  0  2  0  0  0  0  0  0
  189.6350  176.8520  140.6920 C   0  0  2  0  0  3  0  0  0  0  0  0
  186.5170  178.6280  141.0390 C   0  0  1  0  0  3  0  0  0  0  0  0
  188.2670  176.5930  137.1430 C   0  0  0  0  0  2  0  0  0  0  0  0
  189.4310  177.6990  143.5390 C   0  0  0  0  0  0  0  0  0  0  0  0
  186.0560  177.5750  136.5890 C   0  0  0  0  0  2  0  0  0  0  0  0
  184.9910  178.9200  143.0200 C   0  0  1  0  0  3  0  0  0  0  0  0
  185.3340  178.0340  141.7980 C   0  0  1  0  0  3  0  0  0  0  0  0
  190.6850  177.7200  142.7180 C   0  0  0  0  0  3  0  0  0  0  0  0
  188.8140  178.0620  145.9280 C   0  0  0  0  0  3  0  0  0  0  0  0
  189.6740  177.4900  144.9810 C   0  0  0  0  0  0  0  0  0  0  0  0
  190.7840  176.7460  145.4150 C   0  0  0  0  0  3  0  0  0  0  0  0
  192.1920  175.7730  147.2340 C   0  0  0  0  0  1  0  0  0  0  0  0
  190.1480  177.1280  147.7200 C   0  0  0  0  0  3  0  0  0  0  0  0
  191.0180  176.5640  146.7800 C   0  0  0  0  0  0  0  0  0  0  0  0
  189.0480  177.8780  147.2930 C   0  0  0  0  0  3  0  0  0  0  0  0
  183.2030  179.4650  144.7040 C   0  0  0  0  0  2  0  0  0  0  0  0
  183.6620  179.0000  145.9360 O   0  0  0  0  0  1  0  0  0  0  0  0
  181.9750  177.1980  139.4560 C   0  0  0  0  0  2  0  0  0  0  0  0
  182.1580  178.3890  140.0260 C   0  0  0  0  0  3  0  0  0  0  0  0
  1  4  1  0  0  0  0
  1 25  1  0  0  0  0
  3 19  1  0  0  0  0
  3  7  1  0  0  0  0
  4 11  1  0  0  0  0
  5 18  1  0  0  0  0
  6 15  1  0  0  0  0
  6  8  1  0  0  0  0
  7  9  1  0  0  0  0
  8 12  1  0  0  0  0
  8  3  1  0  0  0  0
  9 22  2  0  0  0  0
  9  5  1  0  0  0  0
 10  6  1  0  0  0  0
 10 15  1  0  0  0  0
 11 17  1  0  0  0  0
 12 20  1  0  0  0  0
 13 16  1  0  0  0  0
 14 26  2  0  0  0  0
 15 19  1  0  0  0  0
 16 12  1  0  0  0  0
 17 34  1  0  0  0  0
 19 14  1  0  0  0  0
 20  7  1  0  0  0  0
 20 25  1  0  0  0  0
 21  2  1  0  0  0  0
 21  6  1  0  0  0  0
 22 28  1  0  0  0  0
 23  2  1  0  0  0  0
 23 13  1  0  0  0  0
 24 17  1  0  0  0  0
 24 18  1  0  0  0  0
 25 24  1  0  0  0  0
 26 22  1  0  0  0  0
 27 33  1  0  0  0  0
 28 29  1  0  0  0  0
 28 27  2  0  0  0  0
 29 32  2  0  0  0  0
 32 30  1  0  0  0  0
 32 31  1  0  0  0  0
 33 31  2  0  0  0  0
 34 35  1  0  0  0  0
 36 37  2  0  0  0  0
 37  4  1  0  0  0  0
M  END
>  <MODEL>
4

>  <REMARK>
 VINA RESULT:     -10.7      2.002      7.833
  Name = 
  3 active torsions:
  status: ('A' for Active; 'I' for Inactive)
    1  A    between atoms: C_5  and  C_23
    2  A    between atoms: C_6  and  C_31
    3  A    between atoms: C_11  and  C_26
                            x       y       z     vdW  Elec       q    Type
                         _______ _______ _______ _____ _____    ______ ____

>  <TORSDO>
F 3

$$$$
=
 OpenBabel11052415223D

 37 44  0  0  1  0  0  0  0  0999 V2000
  183.2310  177.7790  141.4980 O   0  0  0  0  0  0  0  0  0  0  0  0
  183.7760  176.6950  136.9130 C   0  0  0  0  0  2  0  0  0  0  0  0
  187.0060  178.2090  139.2260 C   0  0  2  0  0  3  0  0  0  0  0  0
  182.3380  178.6570  142.1430 C   0  0  2  0  0  3  0  0  0  0  0  0
  187.0910  177.8140  142.9900 C   0  0  0  0  0  2  0  0  0  0  0  0
  186.1680  177.5370  137.1620 C   0  0  1  0  0  0  0  0  0  0  0  0
  186.7290  178.4010  140.4920 C   0  0  2  0  0  3  0  0  0  0  0  0
  185.9280  178.5350  138.2980 C   0  0  1  0  0  3  0  0  0  0  0  0
  187.6700  178.0380  141.6100 C   0  0  0  0  0  0  0  0  0  0  0  0
  187.4120  177.9120  136.3760 C   0  0  0  0  0  2  0  0  0  0  0  0
  182.4190  178.4900  143.6670 C   0  0  0  0  0  2  0  0  0  0  0  0
  184.7260  178.3670  139.2140 C   0  0  2  0  0  3  0  0  0  0  0  0
  182.4720  178.4450  138.1480 C   0  0  0  0  0  2  0  0  0  0  0  0
  189.3090  177.6660  138.9260 C   0  0  0  0  0  3  0  0  0  0  0  0
  187.4650  176.7530  137.3640 C   0  0  1  0  0  3  0  0  0  0  0  0
  183.5910  179.2710  138.7670 C   0  0  0  0  0  2  0  0  0  0  0  0
  183.8730  178.4940  144.1620 C   0  0  1  0  0  3  0  0  0  0  0  0
  186.2920  179.0120  143.4850 C   0  0  0  0  0  2  0  0  0  0  0  0
  187.9260  177.1590  138.7720 C   0  0  2  0  0  3  0  0  0  0  0  0
  185.2800  178.8050  140.5830 C   0  0  1  0  0  3  0  0  0  0  0  0
  185.0980  176.9810  136.2220 C   0  0  0  0  0  2  0  0  0  0  0  0
  189.0260  177.8910  141.4400 C   0  0  0  0  0  0  0  0  0  0  0  0
  182.8620  177.9020  136.7810 C   0  0  0  0  0  2  0  0  0  0  0  0
  184.8180  178.9680  143.0530 C   0  0  1  0  0  3  0  0  0  0  0  0
  184.5810  178.1410  141.7660 C   0  0  1  0  0  3  0  0  0  0  0  0
  189.7700  177.9890  140.1420 C   0  0  0  0  0  3  0  0  0  0  0  0
  190.2090  178.6780  143.4900 C   0  0  0  0  0  3  0  0  0  0  0  0
  189.9020  177.6380  142.6030 C   0  0  0  0  0  0  0  0  0  0  0  0
  190.4600  176.3660  142.8100 C   0  0  0  0  0  3  0  0  0  0  0  0
  191.8840  174.7870  144.1190 C   0  0  0  0  0  1  0  0  0  0  0  0
  191.5910  177.1760  144.7910 C   0  0  0  0  0  3  0  0  0  0  0  0
  191.2990  176.1350  143.9020 C   0  0  0  0  0  0  0  0  0  0  0  0
  191.0480  178.4470  144.5830 C   0  0  0  0  0  3  0  0  0  0  0  0
  183.9830  179.3860  145.3890 C   0  0  0  0  0  2  0  0  0  0  0  0
  184.3960  178.6370  146.4910 O   0  0  0  0  0  1  0  0  0  0  0  0
  180.2860  179.3910  140.9730 C   0  0  0  0  0  2  0  0  0  0  0  0
  180.9410  178.4460  141.6480 C   0  0  0  0  0  3  0  0  0  0  0  0
  1 25  1  0  0  0  0
  1  4  1  0  0  0  0
  3  7  1  0  0  0  0
  4 11  1  0  0  0  0
  5 18  1  0  0  0  0
  6 15  1  0  0  0  0
  6  8  1  0  0  0  0
  7 20  1  0  0  0  0
  7  9  1  0  0  0  0
  8 12  1  0  0  0  0
  8  3  1  0  0  0  0
  9  5  1  0  0  0  0
 10  6  1  0  0  0  0
 10 15  1  0  0  0  0
 11 17  1  0  0  0  0
 12 20  1  0  0  0  0
 13 16  1  0  0  0  0
 14 26  2  0  0  0  0
 15 19  1  0  0  0  0
 16 12  1  0  0  0  0
 17 34  1  0  0  0  0
 19 14  1  0  0  0  0
 19  3  1  0  0  0  0
 20 25  1  0  0  0  0
 21  2  1  0  0  0  0
 21  6  1  0  0  0  0
 22  9  2  0  0  0  0
 22 28  1  0  0  0  0
 23  2  1  0  0  0  0
 23 13  1  0  0  0  0
 24 18  1  0  0  0  0
 24 17  1  0  0  0  0
 25 24  1  0  0  0  0
 26 22  1  0  0  0  0
 27 33  1  0  0  0  0
 28 29  1  0  0  0  0
 28 27  2  0  0  0  0
 29 32  2  0  0  0  0
 32 30  1  0  0  0  0
 32 31  1  0  0  0  0
 33 31  2  0  0  0  0
 34 35  1  0  0  0  0
 36 37  2  0  0  0  0
 37  4  1  0  0  0  0
M  END
>  <MODEL>
5

>  <REMARK>
 VINA RESULT:     -10.4      2.455      8.653
  Name = 
  3 active torsions:
  status: ('A' for Active; 'I' for Inactive)
    1  A    between atoms: C_5  and  C_23
    2  A    between atoms: C_6  and  C_31
    3  A    between atoms: C_11  and  C_26
                            x       y       z     vdW  Elec       q    Type
                         _______ _______ _______ _____ _____    ______ ____

>  <TORSDO>
F 3

$$$$
=
 OpenBabel11052415223D

 37 44  0  0  1  0  0  0  0  0999 V2000
  186.2010  178.9590  144.9740 O   0  0  0  0  0  0  0  0  0  0  0  0
  190.5080  177.9950  146.7090 C   0  0  0  0  0  2  0  0  0  0  0  0
  189.3820  176.7850  142.7920 C   0  0  2  0  0  3  0  0  0  0  0  0
  184.9160  178.6450  145.4560 C   0  0  2  0  0  3  0  0  0  0  0  0
  186.6610  178.5920  140.8770 C   0  0  0  0  0  2  0  0  0  0  0  0
  190.9440  176.7730  144.5160 C   0  0  1  0  0  0  0  0  0  0  0  0
  188.1870  177.1770  142.4210 C   0  0  2  0  0  3  0  0  0  0  0  0
  189.4970  176.3900  144.1920 C   0  0  1  0  0  3  0  0  0  0  0  0
  187.8810  177.7140  141.0480 C   0  0  0  0  0  0  0  0  0  0  0  0
  191.9140  175.8350  143.8200 C   0  0  0  0  0  2  0  0  0  0  0  0
  183.8360  179.3710  144.6390 C   0  0  0  0  0  2  0  0  0  0  0  0
  188.3490  177.1840  144.7920 C   0  0  2  0  0  3  0  0  0  0  0  0
  188.1870  177.2350  147.2810 C   0  0  0  0  0  2  0  0  0  0  0  0
  190.8430  176.6000  140.9170 C   0  0  0  0  0  3  0  0  0  0  0  0
  191.6970  177.2390  143.2700 C   0  0  1  0  0  3  0  0  0  0  0  0
  187.8010  176.4770  146.0180 C   0  0  0  0  0  2  0  0  0  0  0  0
  184.0670  179.2150  143.1290 C   0  0  1  0  0  3  0  0  0  0  0  0
  185.3860  177.9120  141.3570 C   0  0  0  0  0  2  0  0  0  0  0  0
  190.6080  177.3210  142.1890 C   0  0  2  0  0  3  0  0  0  0  0  0
  187.3150  177.1990  143.6490 C   0  0  1  0  0  3  0  0  0  0  0  0
  191.4780  177.1540  145.8970 C   0  0  0  0  0  2  0  0  0  0  0  0
  188.6580  177.4540  139.9430 C   0  0  0  0  0  0  0  0  0  0  0  0
  189.6680  177.0890  147.5960 C   0  0  0  0  0  2  0  0  0  0  0  0
  185.1160  178.1330  142.8540 C   0  0  1  0  0  3  0  0  0  0  0  0
  186.3990  178.4200  143.6710 C   0  0  1  0  0  3  0  0  0  0  0  0
  189.9420  176.6800  139.9290 C   0  0  0  0  0  3  0  0  0  0  0  0
  188.9780  178.9180  137.9510 C   0  0  0  0  0  3  0  0  0  0  0  0
  188.2390  177.9250  138.6070 C   0  0  0  0  0  0  0  0  0  0  0  0
  187.0830  177.4090  138.0000 C   0  0  0  0  0  3  0  0  0  0  0  0
  185.4610  177.3160  136.1040 C   0  0  0  0  0  1  0  0  0  0  0  0
  187.4340  178.8520  136.0880 C   0  0  0  0  0  3  0  0  0  0  0  0
  186.6840  177.8680  136.7430 C   0  0  0  0  0  0  0  0  0  0  0  0
  188.5790  179.3770  136.6920 C   0  0  0  0  0  3  0  0  0  0  0  0
  182.7470  178.8780  142.4520 C   0  0  0  0  0  2  0  0  0  0  0  0
  181.6970  178.9970  143.3620 O   0  0  0  0  0  1  0  0  0  0  0  0
  185.8300  179.4750  147.5980 C   0  0  0  0  0  2  0  0  0  0  0  0
  184.8040  178.9710  146.9120 C   0  0  0  0  0  3  0  0  0  0  0  0
  1  4  1  0  0  0  0
  2 23  1  0  0  0  0
  3  8  1  0  0  0  0
  4 37  1  0  0  0  0
  5  9  1  0  0  0  0
  5 18  1  0  0  0  0
  6 21  1  0  0  0  0
  7  3  1  0  0  0  0
  7 20  1  0  0  0  0
  8  6  1  0  0  0  0
  8 12  1  0  0  0  0
  9  7  1  0  0  0  0
 10  6  1  0  0  0  0
 11  4  1  0  0  0  0
 12 16  1  0  0  0  0
 13 23  1  0  0  0  0
 14 19  1  0  0  0  0
 15 10  1  0  0  0  0
 15  6  1  0  0  0  0
 16 13  1  0  0  0  0
 17 11  1  0  0  0  0
 18 24  1  0  0  0  0
 19  3  1  0  0  0  0
 19 15  1  0  0  0  0
 20 25  1  0  0  0  0
 20 12  1  0  0  0  0
 21  2  1  0  0  0  0
 22  9  2  0  0  0  0
 24 17  1  0  0  0  0
 24 25  1  0  0  0  0
 25  1  1  0  0  0  0
 26 22  1  0  0  0  0
 26 14  2  0  0  0  0
 27 28  1  0  0  0  0
 28 22  1  0  0  0  0
 29 28  2  0  0  0  0
 30 32  1  0  0  0  0
 31 33  1  0  0  0  0
 31 32  2  0  0  0  0
 32 29  1  0  0  0  0
 33 27  2  0  0  0  0
 34 17  1  0  0  0  0
 34 35  1  0  0  0  0
 37 36  2  0  0  0  0
M  END
>  <MODEL>
6

>  <REMARK>
 VINA RESULT:     -10.1      2.036      6.140
  Name = 
  3 active torsions:
  status: ('A' for Active; 'I' for Inactive)
    1  A    between atoms: C_5  and  C_23
    2  A    between atoms: C_6  and  C_31
    3  A    between atoms: C_11  and  C_26
                            x       y       z     vdW  Elec       q    Type
                         _______ _______ _______ _____ _____    ______ ____

>  <TORSDO>
F 3

$$$$
=
 OpenBabel11052415223D

 37 44  0  0  1  0  0  0  0  0999 V2000
  184.6210  177.4630  139.1930 O   0  0  0  0  0  0  0  0  0  0  0  0
  188.3240  176.1410  136.5410 C   0  0  0  0  0  2  0  0  0  0  0  0
  188.8670  177.9520  140.3490 C   0  0  2  0  0  3  0  0  0  0  0  0
  183.5470  178.3310  138.9170 C   0  0  2  0  0  3  0  0  0  0  0  0
  186.1820  177.7840  143.0130 C   0  0  0  0  0  2  0  0  0  0  0  0
  189.7890  177.1180  138.3830 C   0  0  1  0  0  0  0  0  0  0  0  0
  187.7570  178.2040  140.9980 C   0  0  2  0  0  3  0  0  0  0  0  0
  188.8050  178.1670  138.9070 C   0  0  1  0  0  3  0  0  0  0  0  0
  187.5850  177.9560  142.4730 C   0  0  0  0  0  0  0  0  0  0  0  0
  191.2180  177.5090  138.7200 C   0  0  0  0  0  2  0  0  0  0  0  0
  182.4910  178.2590  140.0300 C   0  0  0  0  0  2  0  0  0  0  0  0
  187.3140  177.9920  138.6730 C   0  0  2  0  0  3  0  0  0  0  0  0
  186.5450  177.8910  136.3010 C   0  0  0  0  0  2  0  0  0  0  0  0
  190.6600  177.5120  141.8590 C   0  0  0  0  0  3  0  0  0  0  0  0
  190.5260  176.4140  139.5240 C   0  0  1  0  0  3  0  0  0  0  0  0
  186.8680  178.8090  137.4730 C   0  0  0  0  0  2  0  0  0  0  0  0
  183.1280  178.3660  141.4230 C   0  0  1  0  0  3  0  0  0  0  0  0
  185.2840  178.9670  142.6780 C   0  0  0  0  0  2  0  0  0  0  0  0
  189.8200  176.9250  140.7890 C   0  0  2  0  0  3  0  0  0  0  0  0
  186.7000  178.5380  139.9770 C   0  0  1  0  0  3  0  0  0  0  0  0
  189.7360  176.4530  137.0070 C   0  0  0  0  0  2  0  0  0  0  0  0
  188.6380  177.8700  143.3530 C   0  0  0  0  0  0  0  0  0  0  0  0
  187.8030  177.2900  135.6930 C   0  0  0  0  0  2  0  0  0  0  0  0
  184.5870  178.8220  141.3150 C   0  0  1  0  0  3  0  0  0  0  0  0
  185.3540  177.9100  140.3280 C   0  0  1  0  0  3  0  0  0  0  0  0
  190.0930  177.9280  142.9990 C   0  0  0  0  0  3  0  0  0  0  0  0
  189.3470  177.1150  145.6220 C   0  0  0  0  0  3  0  0  0  0  0  0
  188.3900  177.7300  144.8030 C   0  0  0  0  0  0  0  0  0  0  0  0
  187.1860  178.1820  145.3660 C   0  0  0  0  0  3  0  0  0  0  0  0
  185.6750  178.5170  147.3260 C   0  0  0  0  0  1  0  0  0  0  0  0
  187.9150  177.4310  147.5490 C   0  0  0  0  0  3  0  0  0  0  0  0
  186.9510  178.0350  146.7350 C   0  0  0  0  0  0  0  0  0  0  0  0
  189.1120  176.9700  146.9920 C   0  0  0  0  0  3  0  0  0  0  0  0
  182.3170  179.3330  142.2730 C   0  0  0  0  0  2  0  0  0  0  0  0
  180.9560  179.1740  142.0140 O   0  0  0  0  0  1  0  0  0  0  0  0
  183.0930  176.8250  137.0080 C   0  0  0  0  0  2  0  0  0  0  0  0
  182.9480  178.0200  137.5810 C   0  0  0  0  0  3  0  0  0  0  0  0
  1 25  1  0  0  0  0
  2 21  1  0  0  0  0
  3 19  1  0  0  0  0
  3  7  1  0  0  0  0
  4  1  1  0  0  0  0
  4 11  1  0  0  0  0
  6 10  1  0  0  0  0
  6  8  1  0  0  0  0
  6 15  1  0  0  0  0
  7  9  1  0  0  0  0
  8  3  1  0  0  0  0
  9  5  1  0  0  0  0
  9 22  2  0  0  0  0
 10 15  1  0  0  0  0
 11 17  1  0  0  0  0
 12  8  1  0  0  0  0
 12 20  1  0  0  0  0
 13 16  1  0  0  0  0
 14 26  2  0  0  0  0
 15 19  1  0  0  0  0
 16 12  1  0  0  0  0
 17 34  1  0  0  0  0
 18  5  1  0  0  0  0
 19 14  1  0  0  0  0
 20 25  1  0  0  0  0
 20  7  1  0  0  0  0
 21  6  1  0  0  0  0
 22 28  1  0  0  0  0
 23 13  1  0  0  0  0
 23  2  1  0  0  0  0
 24 17  1  0  0  0  0
 24 18  1  0  0  0  0
 25 24  1  0  0  0  0
 26 22  1  0  0  0  0
 27 33  1  0  0  0  0
 28 29  1  0  0  0  0
 28 27  2  0  0  0  0
 29 32  2  0  0  0  0
 32 30  1  0  0  0  0
 32 31  1  0  0  0  0
 33 31  2  0  0  0  0
 35 34  1  0  0  0  0
 36 37  2  0  0  0  0
 37  4  1  0  0  0  0
M  END
>  <MODEL>
7

>  <REMARK>
 VINA RESULT:      -9.6      2.390      7.163
  Name = 
  3 active torsions:
  status: ('A' for Active; 'I' for Inactive)
    1  A    between atoms: C_5  and  C_23
    2  A    between atoms: C_6  and  C_31
    3  A    between atoms: C_11  and  C_26
                            x       y       z     vdW  Elec       q    Type
                         _______ _______ _______ _____ _____    ______ ____

>  <TORSDO>
F 3

$$$$
=
 OpenBabel11052415223D

 37 44  0  0  1  0  0  0  0  0999 V2000
  186.9590  178.9430  139.5690 O   0  0  0  0  0  0  0  0  0  0  0  0
  182.4250  180.3240  139.7200 C   0  0  0  0  0  2  0  0  0  0  0  0
  184.1810  178.1500  142.9240 C   0  0  2  0  0  3  0  0  0  0  0  0
  187.6580  178.1560  138.6330 C   0  0  2  0  0  3  0  0  0  0  0  0
  187.9180  178.2030  143.5270 C   0  0  0  0  0  2  0  0  0  0  0  0
  182.2960  179.1150  141.9590 C   0  0  1  0  0  0  0  0  0  0  0  0
  185.4580  177.8930  142.7760 C   0  0  2  0  0  3  0  0  0  0  0  0
  183.3860  178.0710  141.7030 C   0  0  1  0  0  3  0  0  0  0  0  0
  186.4620  178.0140  143.8910 C   0  0  0  0  0  0  0  0  0  0  0  0
  181.3280  178.6280  143.0230 C   0  0  0  0  0  2  0  0  0  0  0  0
  189.1660  178.1770  138.9240 C   0  0  0  0  0  2  0  0  0  0  0  0
  184.4630  178.3360  140.6630 C   0  0  2  0  0  3  0  0  0  0  0  0
  183.7030  178.6890  138.3130 C   0  0  0  0  0  2  0  0  0  0  0  0
  183.6140  178.3660  145.2300 C   0  0  0  0  0  3  0  0  0  0  0  0
  182.3750  179.6760  143.3800 C   0  0  1  0  0  3  0  0  0  0  0  0
  184.1120  177.6550  139.3530 C   0  0  0  0  0  2  0  0  0  0  0  0
  189.4610  177.9130  140.4080 C   0  0  1  0  0  3  0  0  0  0  0  0
  188.4340  177.0990  142.6130 C   0  0  0  0  0  2  0  0  0  0  0  0
  183.6800  179.0860  143.9380 C   0  0  2  0  0  3  0  0  0  0  0  0
  185.7140  177.7040  141.3030 C   0  0  1  0  0  3  0  0  0  0  0  0
  181.5460  179.9040  140.8850 C   0  0  0  0  0  2  0  0  0  0  0  0
  186.1230  177.9700  145.2230 C   0  0  0  0  0  0  0  0  0  0  0  0
  182.3360  179.2830  138.6160 C   0  0  0  0  0  2  0  0  0  0  0  0
  188.2070  177.4000  141.1230 C   0  0  1  0  0  3  0  0  0  0  0  0
  187.0210  178.3610  140.8670 C   0  0  1  0  0  3  0  0  0  0  0  0
  184.7330  177.8750  145.7780 C   0  0  0  0  0  3  0  0  0  0  0  0
  186.9350  178.6280  147.4870 C   0  0  0  0  0  3  0  0  0  0  0  0
  187.1720  177.9880  146.2620 C   0  0  0  0  0  0  0  0  0  0  0  0
  188.4220  177.3960  146.0220 C   0  0  0  0  0  3  0  0  0  0  0  0
  190.7370  176.7980  146.7450 C   0  0  0  0  0  1  0  0  0  0  0  0
  189.1690  178.0590  148.2280 C   0  0  0  0  0  3  0  0  0  0  0  0
  189.4160  177.4290  147.0030 C   0  0  0  0  0  0  0  0  0  0  0  0
  187.9290  178.6590  148.4680 C   0  0  0  0  0  3  0  0  0  0  0  0
  190.6010  176.9130  140.5230 C   0  0  0  0  0  2  0  0  0  0  0  0
  190.5490  176.0030  139.4670 O   0  0  0  0  0  1  0  0  0  0  0  0
  186.8210  177.8050  136.3320 C   0  0  0  0  0  2  0  0  0  0  0  0
  187.3690  178.6150  137.2380 C   0  0  0  0  0  3  0  0  0  0  0  0
  1 25  1  0  0  0  0
  2 21  1  0  0  0  0
  3 19  1  0  0  0  0
  4 11  1  0  0  0  0
  4  1  1  0  0  0  0
  5  9  1  0  0  0  0
  6 10  1  0  0  0  0
  6 15  1  0  0  0  0
  7  3  1  0  0  0  0
  7  9  1  0  0  0  0
  8  6  1  0  0  0  0
  8  3  1  0  0  0  0
  9 22  2  0  0  0  0
 10 15  1  0  0  0  0
 11 17  1  0  0  0  0
 12 20  1  0  0  0  0
 12  8  1  0  0  0  0
 13 23  1  0  0  0  0
 13 16  1  0  0  0  0
 14 26  2  0  0  0  0
 15 19  1  0  0  0  0
 16 12  1  0  0  0  0
 17 34  1  0  0  0  0
 17 24  1  0  0  0  0
 18  5  1  0  0  0  0
 19 14  1  0  0  0  0
 20  7  1  0  0  0  0
 21  6  1  0  0  0  0
 22 26  1  0  0  0  0
 22 28  1  0  0  0  0
 23  2  1  0  0  0  0
 24 18  1  0  0  0  0
 25 24  1  0  0  0  0
 25 20  1  0  0  0  0
 27 33  1  0  0  0  0
 28 27  2  0  0  0  0
 29 28  1  0  0  0  0
 29 32  2  0  0  0  0
 30 32  1  0  0  0  0
 31 33  2  0  0  0  0
 32 31  1  0  0  0  0
 35 34  1  0  0  0  0
 36 37  2  0  0  0  0
 37  4  1  0  0  0  0
M  END
>  <MODEL>
8

>  <REMARK>
 VINA RESULT:      -9.6      1.498      6.579
  Name = 
  3 active torsions:
  status: ('A' for Active; 'I' for Inactive)
    1  A    between atoms: C_5  and  C_23
    2  A    between atoms: C_6  and  C_31
    3  A    between atoms: C_11  and  C_26
                            x       y       z     vdW  Elec       q    Type
                         _______ _______ _______ _____ _____    ______ ____

>  <TORSDO>
F 3

$$$$
=
 OpenBabel11052415223D

 37 44  0  0  1  0  0  0  0  0999 V2000
  188.3330  178.4390  144.7150 O   0  0  0  0  0  0  0  0  0  0  0  0
  191.9770  177.9420  141.7220 C   0  0  0  0  0  2  0  0  0  0  0  0
  187.9620  177.4490  140.4160 C   0  0  2  0  0  3  0  0  0  0  0  0
  188.0340  177.7870  145.9280 C   0  0  2  0  0  3  0  0  0  0  0  0
  185.0790  179.0920  142.2420 C   0  0  0  0  0  2  0  0  0  0  0  0
  190.2400  177.3470  139.9560 C   0  0  1  0  0  0  0  0  0  0  0  0
  187.0550  177.6810  141.3340 C   0  0  2  0  0  3  0  0  0  0  0  0
  189.1680  176.7800  140.8900 C   0  0  1  0  0  3  0  0  0  0  0  0
  185.7840  178.4440  141.0700 C   0  0  0  0  0  0  0  0  0  0  0  0
  190.0750  176.7890  138.5530 C   0  0  0  0  0  2  0  0  0  0  0  0
  186.8440  178.4610  146.6270 C   0  0  0  0  0  2  0  0  0  0  0  0
  189.1440  177.1880  142.3540 C   0  0  2  0  0  3  0  0  0  0  0  0
  191.1670  176.6490  143.7120 C   0  0  0  0  0  2  0  0  0  0  0  0
  187.1290  177.9680  138.2420 C   0  0  0  0  0  3  0  0  0  0  0  0
  189.6270  178.2140  138.8550 C   0  0  1  0  0  3  0  0  0  0  0  0
  189.8260  176.1340  143.2080 C   0  0  0  0  0  2  0  0  0  0  0  0
  185.6750  178.6930  145.6590 C   0  0  1  0  0  3  0  0  0  0  0  0
  184.7500  178.0930  143.3430 C   0  0  0  0  0  2  0  0  0  0  0  0
  188.1480  178.3280  139.2560 C   0  0  2  0  0  3  0  0  0  0  0  0
  187.6360  177.2630  142.6600 C   0  0  1  0  0  3  0  0  0  0  0  0
  191.7240  177.5030  140.2900 C   0  0  0  0  0  2  0  0  0  0  0  0
  185.2360  178.5890  139.8180 C   0  0  0  0  0  0  0  0  0  0  0  0
  192.1990  176.7190  142.5970 C   0  0  0  0  0  2  0  0  0  0  0  0
  185.8930  177.9190  144.3550 C   0  0  1  0  0  3  0  0  0  0  0  0
  187.2860  178.2520  143.7690 C   0  0  1  0  0  3  0  0  0  0  0  0
  185.8280  178.0960  138.5310 C   0  0  0  0  0  3  0  0  0  0  0  0
  183.8360  180.4230  138.8700 C   0  0  0  0  0  3  0  0  0  0  0  0
  183.9310  179.2600  139.6460 C   0  0  0  0  0  0  0  0  0  0  0  0
  182.7840  178.7590  140.2830 C   0  0  0  0  0  3  0  0  0  0  0  0
  180.3440  178.8690  140.8040 C   0  0  0  0  0  1  0  0  0  0  0  0
  181.4660  180.5590  139.3430 C   0  0  0  0  0  3  0  0  0  0  0  0
  181.5550  179.4050  140.1300 C   0  0  0  0  0  0  0  0  0  0  0  0
  182.6070  181.0680  138.7150 C   0  0  0  0  0  3  0  0  0  0  0  0
  184.3760  178.2720  146.3310 C   0  0  0  0  0  2  0  0  0  0  0  0
  183.3340  179.1050  145.9240 O   0  0  0  0  0  1  0  0  0  0  0  0
  189.1360  177.9010  148.1390 C   0  0  0  0  0  2  0  0  0  0  0  0
  189.2370  177.7530  146.8180 C   0  0  0  0  0  3  0  0  0  0  0  0
  1  4  1  0  0  0  0
  2 23  1  0  0  0  0
  3  8  1  0  0  0  0
  3  7  1  0  0  0  0
  4 11  1  0  0  0  0
  4 37  1  0  0  0  0
  5 18  1  0  0  0  0
  6 21  1  0  0  0  0
  6  8  1  0  0  0  0
  7 20  1  0  0  0  0
  8 12  1  0  0  0  0
  9  7  1  0  0  0  0
  9  5  1  0  0  0  0
 10 15  1  0  0  0  0
 10  6  1  0  0  0  0
 12 20  1  0  0  0  0
 12 16  1  0  0  0  0
 14 26  2  0  0  0  0
 14 19  1  0  0  0  0
 15 19  1  0  0  0  0
 15  6  1  0  0  0  0
 16 13  1  0  0  0  0
 17 34  1  0  0  0  0
 17 11  1  0  0  0  0
 18 24  1  0  0  0  0
 19  3  1  0  0  0  0
 20 25  1  0  0  0  0
 21  2  1  0  0  0  0
 22  9  2  0  0  0  0
 23 13  1  0  0  0  0
 24 17  1  0  0  0  0
 25 24  1  0  0  0  0
 25  1  1  0  0  0  0
 26 22  1  0  0  0  0
 27 28  1  0  0  0  0
 28 22  1  0  0  0  0
 28 29  2  0  0  0  0
 31 32  2  0  0  0  0
 32 29  1  0  0  0  0
 32 30  1  0  0  0  0
 33 27  2  0  0  0  0
 33 31  1  0  0  0  0
 35 34  1  0  0  0  0
 37 36  2  0  0  0  0
M  END
>  <MODEL>
9

>  <REMARK>
 VINA RESULT:      -9.6      2.067      5.585
  Name = 
  3 active torsions:
  status: ('A' for Active; 'I' for Inactive)
    1  A    between atoms: C_5  and  C_23
    2  A    between atoms: C_6  and  C_31
    3  A    between atoms: C_11  and  C_26
                            x       y       z     vdW  Elec       q    Type
                         _______ _______ _______ _____ _____    ______ ____

>  <TORSDO>
F 3

$$$$
