=
 OpenBabel11052416373D

 43 48  0  0  1  0  0  0  0  0999 V2000
  187.8520  177.3980  145.1690 C   0  0  0  0  0  0  0  0  0  0  0  0
  190.1030  177.2320  140.6230 C   0  0  1  0  0  3  0  0  0  0  0  0
  188.0710  178.6100  140.1750 C   0  0  0  0  0  2  0  0  0  0  0  0
  189.3390  176.9620  143.3070 C   0  0  0  0  0  0  0  0  0  0  0  0
  186.8700  177.8520  144.2840 C   0  0  0  0  0  3  0  0  0  0  0  0
  187.6020  177.3850  146.5340 O   0  0  0  0  0  1  0  0  0  0  0  0
  188.3660  177.4580  142.4120 C   0  0  0  0  0  0  0  0  0  0  0  0
  189.0840  176.9550  144.6810 C   0  0  0  0  0  3  0  0  0  0  0  0
  187.1230  177.8730  142.9090 C   0  0  0  0  0  3  0  0  0  0  0  0
  188.3170  178.5260  138.7220 N   0  0  0  0  0  0  0  0  0  0  0  0
  188.6130  177.3930  140.9250 C   0  0  2  0  0  3  0  0  0  0  0  0
  190.6230  176.1080  141.3990 N   0  0  0  0  0  2  0  0  0  0  0  0
  190.2800  177.0150  139.1210 C   0  0  1  0  0  3  0  0  0  0  0  0
  189.7130  178.2250  138.3710 C   0  0  0  0  0  2  0  0  0  0  0  0
  190.6870  176.5210  142.8020 C   0  0  0  0  0  2  0  0  0  0  0  0
  187.3580  177.6900  137.9770 C   0  0  1  0  0  3  0  0  0  0  0  0
  187.7220  176.2110  137.9520 C   0  0  0  0  0  1  0  0  0  0  0  0
  185.9440  177.8650  138.5150 C   0  0  0  0  0  2  0  0  0  0  0  0
  184.4180  175.8610  137.5990 O   0  0  0  0  0  0  0  0  0  0  0  0
  184.7270  177.3070  137.3290 S   0  0  0  0  0  0  0  0  0  0  0  0
  185.2860  177.4290  135.9380 O   0  0  0  0  0  0  0  0  0  0  0  0
  183.2500  178.2360  137.4640 N   0  0  0  0  0  0  0  0  0  0  0  0
  181.1200  178.1400  136.2850 C   0  0  0  0  0  2  0  0  0  0  0  0
  182.1100  177.3790  137.1500 C   0  0  0  0  0  3  0  0  0  0  0  0
  182.0530  177.1350  135.6530 C   0  0  0  0  0  2  0  0  0  0  0  0
  183.0560  178.8320  138.8010 C   0  0  1  0  0  3  0  0  0  0  0  0
  182.4860  180.2460  138.7810 C   0  0  0  0  0  1  0  0  0  0  0  0
  182.2330  177.9260  139.7090 C   0  0  0  0  0  2  0  0  0  0  0  0
  182.3320  178.3630  141.1310 C   0  0  0  0  0  0  0  0  0  0  0  0
  183.6590  178.7590  143.1190 C   0  0  0  0  0  3  0  0  0  0  0  0
  181.2650  179.1210  143.1710 C   0  0  0  0  0  3  0  0  0  0  0  0
  182.5060  179.1340  143.8150 C   0  0  0  0  0  3  0  0  0  0  0  0
  181.1770  178.7340  141.8300 C   0  0  0  0  0  3  0  0  0  0  0  0
  183.5730  178.3720  141.7780 C   0  0  0  0  0  3  0  0  0  0  0  0
  191.7500  176.8700  138.7450 C   0  0  0  0  0  2  0  0  0  0  0  0
  193.5080  174.0830  136.8650 C   0  0  0  0  0  3  0  0  0  0  0  0
  192.4200  173.3170  136.4320 C   0  0  0  0  0  0  0  0  0  0  0  0
  190.9020  174.8620  137.5170 C   0  0  0  0  0  3  0  0  0  0  0  0
  193.2920  175.2420  137.6170 C   0  0  0  0  0  3  0  0  0  0  0  0
  191.9870  175.6370  137.9390 C   0  0  0  0  0  0  0  0  0  0  0  0
  191.1170  173.7030  136.7660 C   0  0  0  0  0  3  0  0  0  0  0  0
  193.7660  171.3350  136.2140 N   0  0  0  0  0  1  0  0  0  0  0  0
  192.6500  172.0730  135.6490 C   0  0  0  0  0  2  0  0  0  0  0  0
  1  6  1  0  0  0  0
  2 11  1  0  0  0  0
  2 12  1  1  0  0  0
  4  8  2  0  0  0  0
  5  1  2  0  0  0  0
  7  9  2  0  0  0  0
  7  4  1  0  0  0  0
  8  1  1  0  0  0  0
  9  5  1  0  0  0  0
 10  3  1  0  0  0  0
 11  3  1  6  0  0  0
 11  7  1  0  0  0  0
 12 15  1  0  0  0  0
 13 35  1  1  0  0  0
 13  2  1  0  0  0  0
 14 10  1  0  0  0  0
 14 13  1  0  0  0  0
 15  4  1  0  0  0  0
 16 17  1  1  0  0  0
 16 18  1  0  0  0  0
 16 10  1  0  0  0  0
 20 22  1  0  0  0  0
 20 19  2  0  0  0  0
 20 18  1  0  0  0  0
 21 20  2  0  0  0  0
 22 26  1  0  0  0  0
 23 24  1  0  0  0  0
 24 22  1  0  0  0  0
 25 23  1  0  0  0  0
 25 24  1  0  0  0  0
 26 27  1  6  0  0  0
 26 28  1  0  0  0  0
 28 29  1  0  0  0  0
 29 34  2  0  0  0  0
 29 33  1  0  0  0  0
 30 32  2  0  0  0  0
 31 32  1  0  0  0  0
 33 31  2  0  0  0  0
 34 30  1  0  0  0  0
 36 39  1  0  0  0  0
 37 41  1  0  0  0  0
 37 36  2  0  0  0  0
 38 40  1  0  0  0  0
 39 40  2  0  0  0  0
 40 35  1  0  0  0  0
 41 38  2  0  0  0  0
 43 42  1  0  0  0  0
 43 37  1  0  0  0  0
M  END
>  <MODEL>
1

>  <REMARK>
 VINA RESULT:      -7.9      0.000      0.000
  Name = 
  11 active torsions:
  status: ('A' for Active; 'I' for Inactive)
    1  A    between atoms: C_1  and  C_34
    2  A    between atoms: C_1  and  C_35
    3  A    between atoms: C_2  and  C_6
    4  A    between atoms: C_2  and  N_27
    5  A    between atoms: N_4  and  S_12
    6  A    between atoms: N_4  and  C_15
    7  A    between atoms: N_4  and  C_22
    8  A    between atoms: C_6  and  S_12
    9  A    between atoms: C_11  and  C_14
   10  A    between atoms: C_14  and  C_22
   11  A    between atoms: C_19  and  C_37
                            x       y       z     vdW  Elec       q    Type
                         _______ _______ _______ _____ _____    ______ ____

>  <TORSDO>
F 11

$$$$
=
 OpenBabel11052416373D

 43 48  0  0  1  0  0  0  0  0999 V2000
  192.0630  176.2220  147.6560 C   0  0  0  0  0  0  0  0  0  0  0  0
  187.7020  177.5210  145.4090 C   0  0  1  0  0  3  0  0  0  0  0  0
  188.9220  176.3340  143.5840 C   0  0  0  0  0  2  0  0  0  0  0  0
  189.8650  177.1010  147.1420 C   0  0  0  0  0  0  0  0  0  0  0  0
  192.3080  176.0260  146.2940 C   0  0  0  0  0  3  0  0  0  0  0  0
  193.0340  175.8870  148.5890 O   0  0  0  0  0  1  0  0  0  0  0  0
  190.0910  176.8670  145.7680 C   0  0  0  0  0  0  0  0  0  0  0  0
  190.8440  176.7580  148.0780 C   0  0  0  0  0  3  0  0  0  0  0  0
  191.3290  176.3560  145.3530 C   0  0  0  0  0  3  0  0  0  0  0  0
  187.9200  176.7860  142.6000 N   0  0  0  0  0  0  0  0  0  0  0  0
  189.0660  177.3090  144.7540 C   0  0  2  0  0  3  0  0  0  0  0  0
  187.8650  178.3990  146.5650 N   0  0  0  0  0  2  0  0  0  0  0  0
  186.7460  178.1140  144.3760 C   0  0  1  0  0  3  0  0  0  0  0  0
  186.6230  177.1470  143.1940 C   0  0  0  0  0  2  0  0  0  0  0  0
  188.5410  177.6380  147.6170 C   0  0  0  0  0  2  0  0  0  0  0  0
  188.4000  177.7990  141.6430 C   0  0  1  0  0  3  0  0  0  0  0  0
  189.5540  178.6430  142.1690 C   0  0  0  0  0  1  0  0  0  0  0  0
  188.7910  177.1600  140.3180 C   0  0  0  0  0  2  0  0  0  0  0  0
  189.0340  179.1840  138.5780 O   0  0  0  0  0  0  0  0  0  0  0  0
  188.1010  178.0620  138.9360 S   0  0  0  0  0  0  0  0  0  0  0  0
  186.7720  178.6470  139.3290 O   0  0  0  0  0  0  0  0  0  0  0  0
  187.9080  177.0210  137.5420 N   0  0  0  0  0  0  0  0  0  0  0  0
  186.7450  177.3890  135.4330 C   0  0  0  0  0  2  0  0  0  0  0  0
  187.8870  177.8350  136.3300 C   0  0  0  0  0  3  0  0  0  0  0  0
  186.5970  178.6340  136.2760 C   0  0  0  0  0  2  0  0  0  0  0  0
  188.9700  176.0030  137.4240 C   0  0  1  0  0  3  0  0  0  0  0  0
  188.4600  174.5930  137.1440 C   0  0  0  0  0  1  0  0  0  0  0  0
  190.0320  176.4090  136.4090 C   0  0  0  0  0  2  0  0  0  0  0  0
  191.3990  176.0720  136.9020 C   0  0  0  0  0  0  0  0  0  0  0  0
  193.4780  174.8520  136.6570 C   0  0  0  0  0  3  0  0  0  0  0  0
  193.1320  176.2810  138.5820 C   0  0  0  0  0  3  0  0  0  0  0  0
  193.9400  175.4000  137.8580 C   0  0  0  0  0  3  0  0  0  0  0  0
  191.8610  176.6160  138.1060 C   0  0  0  0  0  3  0  0  0  0  0  0
  192.2070  175.1860  136.1800 C   0  0  0  0  0  3  0  0  0  0  0  0
  185.3530  178.3300  144.9580 C   0  0  0  0  0  2  0  0  0  0  0  0
  183.7460  178.6030  141.5330 C   0  0  0  0  0  3  0  0  0  0  0  0
  182.4220  178.8970  141.8750 C   0  0  0  0  0  0  0  0  0  0  0  0
  183.0100  178.8080  144.2240 C   0  0  0  0  0  3  0  0  0  0  0  0
  184.7030  178.4200  142.5360 C   0  0  0  0  0  3  0  0  0  0  0  0
  184.3380  178.5290  143.8830 C   0  0  0  0  0  0  0  0  0  0  0  0
  182.0530  178.9910  143.2220 C   0  0  0  0  0  3  0  0  0  0  0  0
  182.0460  179.1530  139.5130 N   0  0  0  0  0  1  0  0  0  0  0  0
  181.3980  179.0720  140.8090 C   0  0  0  0  0  2  0  0  0  0  0  0
  1  8  1  0  0  0  0
  1  6  1  0  0  0  0
  2 12  1  1  0  0  0
  4 15  1  0  0  0  0
  4  8  2  0  0  0  0
  5  1  2  0  0  0  0
  7  4  1  0  0  0  0
  9  7  2  0  0  0  0
  9  5  1  0  0  0  0
 10 14  1  0  0  0  0
 10  3  1  0  0  0  0
 11  3  1  6  0  0  0
 11  2  1  0  0  0  0
 11  7  1  0  0  0  0
 12 15  1  0  0  0  0
 13 35  1  1  0  0  0
 13  2  1  0  0  0  0
 14 13  1  0  0  0  0
 16 17  1  1  0  0  0
 16 10  1  0  0  0  0
 18 16  1  0  0  0  0
 19 20  2  0  0  0  0
 20 21  2  0  0  0  0
 20 18  1  0  0  0  0
 22 20  1  0  0  0  0
 23 25  1  0  0  0  0
 23 24  1  0  0  0  0
 24 22  1  0  0  0  0
 25 24  1  0  0  0  0
 26 27  1  6  0  0  0
 26 22  1  0  0  0  0
 28 29  1  0  0  0  0
 28 26  1  0  0  0  0
 29 33  1  0  0  0  0
 30 32  2  0  0  0  0
 32 31  1  0  0  0  0
 33 31  2  0  0  0  0
 34 30  1  0  0  0  0
 34 29  2  0  0  0  0
 36 37  2  0  0  0  0
 36 39  1  0  0  0  0
 37 41  1  0  0  0  0
 39 40  2  0  0  0  0
 40 38  1  0  0  0  0
 40 35  1  0  0  0  0
 41 38  2  0  0  0  0
 42 43  1  0  0  0  0
 43 37  1  0  0  0  0
M  END
>  <MODEL>
2

>  <REMARK>
 VINA RESULT:      -7.8      2.661      8.276
  Name = 
  11 active torsions:
  status: ('A' for Active; 'I' for Inactive)
    1  A    between atoms: C_1  and  C_34
    2  A    between atoms: C_1  and  C_35
    3  A    between atoms: C_2  and  C_6
    4  A    between atoms: C_2  and  N_27
    5  A    between atoms: N_4  and  S_12
    6  A    between atoms: N_4  and  C_15
    7  A    between atoms: N_4  and  C_22
    8  A    between atoms: C_6  and  S_12
    9  A    between atoms: C_11  and  C_14
   10  A    between atoms: C_14  and  C_22
   11  A    between atoms: C_19  and  C_37
                            x       y       z     vdW  Elec       q    Type
                         _______ _______ _______ _____ _____    ______ ____

>  <TORSDO>
F 11

$$$$
=
 OpenBabel11052416373D

 43 48  0  0  1  0  0  0  0  0999 V2000
  191.9300  176.3120  147.4140 C   0  0  0  0  0  0  0  0  0  0  0  0
  187.5210  177.6840  145.3080 C   0  0  1  0  0  3  0  0  0  0  0  0
  188.6470  176.4470  143.4560 C   0  0  0  0  0  2  0  0  0  0  0  0
  189.7350  177.2350  146.9680 C   0  0  0  0  0  0  0  0  0  0  0  0
  192.1210  176.0930  146.0470 C   0  0  0  0  0  3  0  0  0  0  0  0
  192.9250  175.9650  148.3160 O   0  0  0  0  0  1  0  0  0  0  0  0
  189.9060  176.9800  145.5900 C   0  0  0  0  0  0  0  0  0  0  0  0
  190.7390  176.8800  147.8730 C   0  0  0  0  0  3  0  0  0  0  0  0
  191.1160  176.4340  145.1370 C   0  0  0  0  0  3  0  0  0  0  0  0
  187.6210  176.9100  142.5030 N   0  0  0  0  0  0  0  0  0  0  0  0
  188.8550  177.4330  144.6070 C   0  0  2  0  0  3  0  0  0  0  0  0
  187.7460  178.5720  146.4470 N   0  0  0  0  0  2  0  0  0  0  0  0
  186.5420  178.2880  144.3020 C   0  0  1  0  0  3  0  0  0  0  0  0
  186.3550  177.3090  143.1380 C   0  0  0  0  0  2  0  0  0  0  0  0
  188.4420  177.8090  147.4830 C   0  0  0  0  0  2  0  0  0  0  0  0
  188.0890  177.9010  141.5170 C   0  0  1  0  0  3  0  0  0  0  0  0
  188.9810  178.9840  142.1090 C   0  0  0  0  0  1  0  0  0  0  0  0
  188.8030  177.2220  140.3560 C   0  0  0  0  0  2  0  0  0  0  0  0
  189.0770  179.3750  138.7830 O   0  0  0  0  0  0  0  0  0  0  0  0
  188.4200  178.0230  138.8030 S   0  0  0  0  0  0  0  0  0  0  0  0
  186.9320  178.2090  138.6850 O   0  0  0  0  0  0  0  0  0  0  0  0
  189.0150  177.0850  137.4500 N   0  0  0  0  0  0  0  0  0  0  0  0
  191.1380  175.9640  137.0360 C   0  0  0  0  0  2  0  0  0  0  0  0
  189.9210  176.0500  137.9410 C   0  0  0  0  0  3  0  0  0  0  0  0
  191.2360  176.6820  138.3610 C   0  0  0  0  0  2  0  0  0  0  0  0
  187.9380  176.4530  136.6620 C   0  0  1  0  0  3  0  0  0  0  0  0
  188.0060  176.7370  135.1660 C   0  0  0  0  0  1  0  0  0  0  0  0
  187.8470  174.9550  136.9290 C   0  0  0  0  0  2  0  0  0  0  0  0
  186.4320  174.5360  137.1440 C   0  0  0  0  0  0  0  0  0  0  0  0
  184.8010  172.8030  137.6000 C   0  0  0  0  0  3  0  0  0  0  0  0
  184.0710  175.0800  137.2110 C   0  0  0  0  0  3  0  0  0  0  0  0
  183.7720  173.7440  137.4950 C   0  0  0  0  0  3  0  0  0  0  0  0
  185.4010  175.4760  137.0340 C   0  0  0  0  0  3  0  0  0  0  0  0
  186.1310  173.1980  137.4230 C   0  0  0  0  0  3  0  0  0  0  0  0
  185.1770  178.5430  144.9310 C   0  0  0  0  0  2  0  0  0  0  0  0
  183.4530  178.8330  141.5650 C   0  0  0  0  0  3  0  0  0  0  0  0
  182.1110  178.9140  141.9520 C   0  0  0  0  0  0  0  0  0  0  0  0
  182.7710  178.7400  144.2760 C   0  0  0  0  0  3  0  0  0  0  0  0
  184.4540  178.7140  142.5340 C   0  0  0  0  0  3  0  0  0  0  0  0
  184.1140  178.6750  143.8930 C   0  0  0  0  0  0  0  0  0  0  0  0
  181.7700  178.8590  143.3080 C   0  0  0  0  0  3  0  0  0  0  0  0
  181.6280  178.9180  139.5950 N   0  0  0  0  0  1  0  0  0  0  0  0
  181.0430  179.0200  140.9200 C   0  0  0  0  0  2  0  0  0  0  0  0
  1  8  1  0  0  0  0
  1  6  1  0  0  0  0
  2 12  1  1  0  0  0
  4 15  1  0  0  0  0
  4  8  2  0  0  0  0
  5  1  2  0  0  0  0
  7  4  1  0  0  0  0
  9  7  2  0  0  0  0
  9  5  1  0  0  0  0
 10 14  1  0  0  0  0
 10  3  1  0  0  0  0
 11  3  1  6  0  0  0
 11  2  1  0  0  0  0
 11  7  1  0  0  0  0
 12 15  1  0  0  0  0
 13 35  1  1  0  0  0
 13  2  1  0  0  0  0
 14 13  1  0  0  0  0
 16 17  1  1  0  0  0
 16 10  1  0  0  0  0
 18 16  1  0  0  0  0
 19 20  2  0  0  0  0
 20 18  1  0  0  0  0
 21 20  2  0  0  0  0
 22 24  1  0  0  0  0
 22 20  1  0  0  0  0
 23 24  1  0  0  0  0
 23 25  1  0  0  0  0
 24 25  1  0  0  0  0
 26 27  1  6  0  0  0
 26 28  1  0  0  0  0
 26 22  1  0  0  0  0
 28 29  1  0  0  0  0
 29 34  1  0  0  0  0
 31 32  2  0  0  0  0
 32 30  1  0  0  0  0
 33 29  2  0  0  0  0
 33 31  1  0  0  0  0
 34 30  2  0  0  0  0
 36 37  2  0  0  0  0
 36 39  1  0  0  0  0
 37 41  1  0  0  0  0
 39 40  2  0  0  0  0
 40 38  1  0  0  0  0
 40 35  1  0  0  0  0
 41 38  2  0  0  0  0
 42 43  1  0  0  0  0
 43 37  1  0  0  0  0
M  END
>  <MODEL>
3

>  <REMARK>
 VINA RESULT:      -7.8      2.682      7.776
  Name = 
  11 active torsions:
  status: ('A' for Active; 'I' for Inactive)
    1  A    between atoms: C_1  and  C_34
    2  A    between atoms: C_1  and  C_35
    3  A    between atoms: C_2  and  C_6
    4  A    between atoms: C_2  and  N_27
    5  A    between atoms: N_4  and  S_12
    6  A    between atoms: N_4  and  C_15
    7  A    between atoms: N_4  and  C_22
    8  A    between atoms: C_6  and  S_12
    9  A    between atoms: C_11  and  C_14
   10  A    between atoms: C_14  and  C_22
   11  A    between atoms: C_19  and  C_37
                            x       y       z     vdW  Elec       q    Type
                         _______ _______ _______ _____ _____    ______ ____

>  <TORSDO>
F 11

$$$$
=
 OpenBabel11052416373D

 43 48  0  0  1  0  0  0  0  0999 V2000
  191.8450  176.3310  147.4820 C   0  0  0  0  0  0  0  0  0  0  0  0
  187.3680  177.6770  145.5060 C   0  0  1  0  0  3  0  0  0  0  0  0
  188.5790  176.7500  143.5310 C   0  0  0  0  0  2  0  0  0  0  0  0
  189.5980  177.1650  147.1260 C   0  0  0  0  0  0  0  0  0  0  0  0
  192.0550  176.2960  146.1010 C   0  0  0  0  0  3  0  0  0  0  0  0
  192.8560  175.9390  148.3480 O   0  0  0  0  0  1  0  0  0  0  0  0
  189.7910  177.0920  145.7290 C   0  0  0  0  0  0  0  0  0  0  0  0
  190.6180  176.7640  147.9930 C   0  0  0  0  0  3  0  0  0  0  0  0
  191.0360  176.6830  145.2280 C   0  0  0  0  0  3  0  0  0  0  0  0
  187.5300  177.2630  142.6290 N   0  0  0  0  0  0  0  0  0  0  0  0
  188.7190  177.5970  144.7970 C   0  0  2  0  0  3  0  0  0  0  0  0
  187.5300  178.4290  146.7480 N   0  0  0  0  0  2  0  0  0  0  0  0
  186.3580  178.3370  144.5700 C   0  0  1  0  0  3  0  0  0  0  0  0
  186.2380  177.5000  143.2920 C   0  0  0  0  0  2  0  0  0  0  0  0
  188.2690  177.5890  147.6910 C   0  0  0  0  0  2  0  0  0  0  0  0
  187.9390  178.3940  141.7780 C   0  0  1  0  0  3  0  0  0  0  0  0
  189.3400  178.2510  141.1950 C   0  0  0  0  0  1  0  0  0  0  0  0
  186.9360  178.6280  140.6560 C   0  0  0  0  0  2  0  0  0  0  0  0
  188.2380  176.8670  139.1110 O   0  0  0  0  0  0  0  0  0  0  0  0
  187.6490  178.2480  139.0600 S   0  0  0  0  0  0  0  0  0  0  0  0
  188.7470  179.2300  138.7530 O   0  0  0  0  0  0  0  0  0  0  0  0
  186.4320  178.2990  137.8030 N   0  0  0  0  0  0  0  0  0  0  0  0
  186.7100  177.9170  135.4130 C   0  0  0  0  0  2  0  0  0  0  0  0
  186.7370  177.2870  136.7950 C   0  0  0  0  0  3  0  0  0  0  0  0
  188.0330  177.6460  136.0900 C   0  0  0  0  0  2  0  0  0  0  0  0
  185.0620  178.0810  138.3090 C   0  0  1  0  0  3  0  0  0  0  0  0
  184.2640  179.3620  138.5270 C   0  0  0  0  0  1  0  0  0  0  0  0
  184.2880  177.0980  137.4390 C   0  0  0  0  0  2  0  0  0  0  0  0
  182.9520  176.8000  138.0320 C   0  0  0  0  0  0  0  0  0  0  0  0
  181.6080  175.9120  139.8420 C   0  0  0  0  0  3  0  0  0  0  0  0
  180.5350  176.7730  137.8480 C   0  0  0  0  0  3  0  0  0  0  0  0
  180.4460  176.1920  139.1160 C   0  0  0  0  0  3  0  0  0  0  0  0
  181.7880  177.0750  137.3040 C   0  0  0  0  0  3  0  0  0  0  0  0
  182.8610  176.2140  139.2990 C   0  0  0  0  0  3  0  0  0  0  0  0
  184.9760  178.4280  145.2080 C   0  0  0  0  0  2  0  0  0  0  0  0
  181.5880  179.0000  143.6010 C   0  0  0  0  0  3  0  0  0  0  0  0
  181.9280  179.0140  142.2450 C   0  0  0  0  0  0  0  0  0  0  0  0
  184.2540  178.6590  142.8240 C   0  0  0  0  0  3  0  0  0  0  0  0
  182.5790  178.8070  144.5690 C   0  0  0  0  0  3  0  0  0  0  0  0
  183.9130  178.6290  144.1810 C   0  0  0  0  0  0  0  0  0  0  0  0
  183.2630  178.8520  141.8570 C   0  0  0  0  0  3  0  0  0  0  0  0
  180.0790  180.3990  141.5730 N   0  0  0  0  0  1  0  0  0  0  0  0
  180.8770  179.2400  141.2150 C   0  0  0  0  0  2  0  0  0  0  0  0
  1  8  1  0  0  0  0
  1  6  1  0  0  0  0
  2 12  1  1  0  0  0
  4 15  1  0  0  0  0
  4  8  2  0  0  0  0
  5  1  2  0  0  0  0
  7  4  1  0  0  0  0
  9  7  2  0  0  0  0
  9  5  1  0  0  0  0
 10 14  1  0  0  0  0
 10  3  1  0  0  0  0
 11  3  1  6  0  0  0
 11  2  1  0  0  0  0
 11  7  1  0  0  0  0
 12 15  1  0  0  0  0
 13 35  1  1  0  0  0
 13  2  1  0  0  0  0
 14 13  1  0  0  0  0
 16 17  1  6  0  0  0
 16 10  1  0  0  0  0
 18 16  1  0  0  0  0
 20 19  2  0  0  0  0
 20 18  1  0  0  0  0
 21 20  2  0  0  0  0
 22 26  1  0  0  0  0
 22 20  1  0  0  0  0
 23 25  1  0  0  0  0
 23 24  1  0  0  0  0
 24 22  1  0  0  0  0
 25 24  1  0  0  0  0
 26 27  1  6  0  0  0
 28 29  1  0  0  0  0
 28 26  1  0  0  0  0
 29 34  1  0  0  0  0
 31 32  2  0  0  0  0
 32 30  1  0  0  0  0
 33 31  1  0  0  0  0
 33 29  2  0  0  0  0
 34 30  2  0  0  0  0
 36 39  1  0  0  0  0
 37 36  2  0  0  0  0
 38 40  1  0  0  0  0
 40 39  2  0  0  0  0
 40 35  1  0  0  0  0
 41 37  1  0  0  0  0
 41 38  2  0  0  0  0
 43 42  1  0  0  0  0
 43 37  1  0  0  0  0
M  END
>  <MODEL>
4

>  <REMARK>
 VINA RESULT:      -7.7      3.475      7.196
  Name = 
  11 active torsions:
  status: ('A' for Active; 'I' for Inactive)
    1  A    between atoms: C_1  and  C_34
    2  A    between atoms: C_1  and  C_35
    3  A    between atoms: C_2  and  C_6
    4  A    between atoms: C_2  and  N_27
    5  A    between atoms: N_4  and  S_12
    6  A    between atoms: N_4  and  C_15
    7  A    between atoms: N_4  and  C_22
    8  A    between atoms: C_6  and  S_12
    9  A    between atoms: C_11  and  C_14
   10  A    between atoms: C_14  and  C_22
   11  A    between atoms: C_19  and  C_37
                            x       y       z     vdW  Elec       q    Type
                         _______ _______ _______ _____ _____    ______ ____

>  <TORSDO>
F 11

$$$$
=
 OpenBabel11052416373D

 43 48  0  0  1  0  0  0  0  0999 V2000
  187.9600  177.5840  147.0310 C   0  0  0  0  0  0  0  0  0  0  0  0
  187.4780  178.1950  142.0160 C   0  0  1  0  0  3  0  0  0  0  0  0
  185.3340  179.1270  142.8860 C   0  0  0  0  0  2  0  0  0  0  0  0
  188.2910  177.5980  144.6310 C   0  0  0  0  0  0  0  0  0  0  0  0
  186.6040  177.8690  146.8490 C   0  0  0  0  0  3  0  0  0  0  0  0
  188.4700  177.4300  148.3120 O   0  0  0  0  0  1  0  0  0  0  0  0
  186.9310  177.9270  144.4430 C   0  0  0  0  0  0  0  0  0  0  0  0
  188.8010  177.4490  145.9240 C   0  0  0  0  0  3  0  0  0  0  0  0
  186.0900  178.0320  145.5600 C   0  0  0  0  0  3  0  0  0  0  0  0
  184.7880  179.1900  141.5170 N   0  0  0  0  0  0  0  0  0  0  0  0
  186.3660  178.0110  143.0480 C   0  0  2  0  0  3  0  0  0  0  0  0
  188.4920  177.1630  142.2250 N   0  0  0  0  0  2  0  0  0  0  0  0
  186.8690  178.1160  140.6170 C   0  0  1  0  0  3  0  0  0  0  0  0
  185.8180  179.2200  140.4660 C   0  0  0  0  0  2  0  0  0  0  0  0
  189.2200  177.4900  143.4510 C   0  0  0  0  0  2  0  0  0  0  0  0
  183.7200  178.2160  141.2270 C   0  0  1  0  0  3  0  0  0  0  0  0
  182.5940  178.2150  142.2530 C   0  0  0  0  0  1  0  0  0  0  0  0
  183.1470  178.4290  139.8330 C   0  0  0  0  0  2  0  0  0  0  0  0
  180.6000  177.7800  140.3570 O   0  0  0  0  0  0  0  0  0  0  0  0
  181.7690  177.3320  139.5250 S   0  0  0  0  0  0  0  0  0  0  0  0
  182.1400  175.9310  139.9280 O   0  0  0  0  0  0  0  0  0  0  0  0
  181.3070  177.3660  137.8370 N   0  0  0  0  0  0  0  0  0  0  0  0
  181.1040  179.1760  136.2190 C   0  0  0  0  0  2  0  0  0  0  0  0
  182.0390  178.4310  137.1560 C   0  0  0  0  0  3  0  0  0  0  0  0
  181.4650  179.7780  137.5560 C   0  0  0  0  0  2  0  0  0  0  0  0
  181.5530  176.0870  137.1400 C   0  0  1  0  0  3  0  0  0  0  0  0
  180.4270  175.6540  136.2070 C   0  0  0  0  0  1  0  0  0  0  0  0
  182.8920  176.0880  136.4140 C   0  0  0  0  0  2  0  0  0  0  0  0
  183.5550  174.7560  136.5160 C   0  0  0  0  0  0  0  0  0  0  0  0
  184.9440  173.1900  137.7370 C   0  0  0  0  0  3  0  0  0  0  0  0
  184.1010  172.6040  135.5430 C   0  0  0  0  0  3  0  0  0  0  0  0
  184.8430  172.2770  136.6820 C   0  0  0  0  0  3  0  0  0  0  0  0
  183.4590  173.8440  135.4580 C   0  0  0  0  0  3  0  0  0  0  0  0
  184.3020  174.4290  137.6540 C   0  0  0  0  0  3  0  0  0  0  0  0
  187.9240  178.3160  139.5340 C   0  0  0  0  0  2  0  0  0  0  0  0
  186.3160  177.3400  136.2400 C   0  0  0  0  0  3  0  0  0  0  0  0
  186.9600  176.1280  135.9700 C   0  0  0  0  0  0  0  0  0  0  0  0
  188.2390  176.3530  138.0150 C   0  0  0  0  0  3  0  0  0  0  0  0
  186.6260  178.0530  137.4020 C   0  0  0  0  0  3  0  0  0  0  0  0
  187.5840  177.5570  138.2950 C   0  0  0  0  0  0  0  0  0  0  0  0
  187.9290  175.6390  136.8540 C   0  0  0  0  0  3  0  0  0  0  0  0
  187.3260  174.0950  134.7360 N   0  0  0  0  0  1  0  0  0  0  0  0
  186.6450  175.3780  134.7240 C   0  0  0  0  0  2  0  0  0  0  0  0
  1  6  1  0  0  0  0
  2 12  1  6  0  0  0
  2 11  1  0  0  0  0
  4  8  1  0  0  0  0
  5  1  1  0  0  0  0
  7  4  2  0  0  0  0
  7  9  1  0  0  0  0
  8  1  2  0  0  0  0
  9  5  2  0  0  0  0
 10  3  1  0  0  0  0
 11  3  1  1  0  0  0
 11  7  1  0  0  0  0
 12 15  1  0  0  0  0
 13 35  1  6  0  0  0
 13  2  1  0  0  0  0
 14 13  1  0  0  0  0
 14 10  1  0  0  0  0
 15  4  1  0  0  0  0
 16 10  1  0  0  0  0
 16 17  1  1  0  0  0
 18 16  1  0  0  0  0
 20 18  1  0  0  0  0
 20 21  2  0  0  0  0
 20 19  2  0  0  0  0
 22 20  1  0  0  0  0
 23 24  1  0  0  0  0
 23 25  1  0  0  0  0
 24 25  1  0  0  0  0
 24 22  1  0  0  0  0
 26 27  1  6  0  0  0
 26 22  1  0  0  0  0
 28 29  1  0  0  0  0
 28 26  1  0  0  0  0
 29 34  1  0  0  0  0
 31 32  2  0  0  0  0
 32 30  1  0  0  0  0
 33 31  1  0  0  0  0
 33 29  2  0  0  0  0
 34 30  2  0  0  0  0
 36 39  1  0  0  0  0
 37 36  2  0  0  0  0
 37 41  1  0  0  0  0
 38 40  1  0  0  0  0
 39 40  2  0  0  0  0
 40 35  1  0  0  0  0
 41 38  2  0  0  0  0
 43 42  1  0  0  0  0
 43 37  1  0  0  0  0
M  END
>  <MODEL>
5

>  <REMARK>
 VINA RESULT:      -7.7      2.894      5.036
  Name = 
  11 active torsions:
  status: ('A' for Active; 'I' for Inactive)
    1  A    between atoms: C_1  and  C_34
    2  A    between atoms: C_1  and  C_35
    3  A    between atoms: C_2  and  C_6
    4  A    between atoms: C_2  and  N_27
    5  A    between atoms: N_4  and  S_12
    6  A    between atoms: N_4  and  C_15
    7  A    between atoms: N_4  and  C_22
    8  A    between atoms: C_6  and  S_12
    9  A    between atoms: C_11  and  C_14
   10  A    between atoms: C_14  and  C_22
   11  A    between atoms: C_19  and  C_37
                            x       y       z     vdW  Elec       q    Type
                         _______ _______ _______ _____ _____    ______ ____

>  <TORSDO>
F 11

$$$$
=
 OpenBabel11052416373D

 43 48  0  0  1  0  0  0  0  0999 V2000
  187.6920  177.5040  147.0220 C   0  0  0  0  0  0  0  0  0  0  0  0
  188.2610  177.9170  141.9950 C   0  0  1  0  0  3  0  0  0  0  0  0
  186.0980  179.0950  142.3970 C   0  0  0  0  0  2  0  0  0  0  0  0
  188.4830  177.3700  144.7360 C   0  0  0  0  0  0  0  0  0  0  0  0
  186.4340  177.9110  146.5670 C   0  0  0  0  0  3  0  0  0  0  0  0
  187.9240  177.3630  148.3820 O   0  0  0  0  0  1  0  0  0  0  0  0
  187.2270  177.8210  144.2730 C   0  0  0  0  0  0  0  0  0  0  0  0
  188.7130  177.2340  146.1080 C   0  0  0  0  0  3  0  0  0  0  0  0
  186.2010  178.0610  145.1970 C   0  0  0  0  0  3  0  0  0  0  0  0
  185.8380  179.1450  140.9460 N   0  0  0  0  0  0  0  0  0  0  0  0
  186.9560  177.8920  142.7910 C   0  0  2  0  0  3  0  0  0  0  0  0
  189.1000  176.8030  142.4310 N   0  0  0  0  0  2  0  0  0  0  0  0
  187.9300  177.8310  140.5070 C   0  0  1  0  0  3  0  0  0  0  0  0
  187.0500  179.0240  140.1200 C   0  0  0  0  0  2  0  0  0  0  0  0
  189.6070  177.1160  143.7670 C   0  0  0  0  0  2  0  0  0  0  0  0
  184.7510  178.2670  140.4780 C   0  0  1  0  0  3  0  0  0  0  0  0
  183.7610  177.8780  141.5690 C   0  0  0  0  0  1  0  0  0  0  0  0
  184.0070  178.8930  139.3060 C   0  0  0  0  0  2  0  0  0  0  0  0
  183.2410  176.4030  138.6770 O   0  0  0  0  0  0  0  0  0  0  0  0
  183.6790  177.6860  138.0280 S   0  0  0  0  0  0  0  0  0  0  0  0
  184.9380  177.4250  137.2460 O   0  0  0  0  0  0  0  0  0  0  0  0
  182.4120  178.2380  136.9540 N   0  0  0  0  0  0  0  0  0  0  0  0
  181.4800  177.2600  134.9270 C   0  0  0  0  0  2  0  0  0  0  0  0
  181.6940  177.0840  136.4200 C   0  0  0  0  0  3  0  0  0  0  0  0
  182.5770  176.3500  135.4270 C   0  0  0  0  0  2  0  0  0  0  0  0
  181.4490  179.1470  137.6090 C   0  0  1  0  0  3  0  0  0  0  0  0
  181.0070  180.3210  136.7420 C   0  0  0  0  0  1  0  0  0  0  0  0
  180.2450  178.3940  138.1600 C   0  0  0  0  0  2  0  0  0  0  0  0
  180.2030  178.4720  139.6490 C   0  0  0  0  0  0  0  0  0  0  0  0
  180.4300  179.7540  141.6920 C   0  0  0  0  0  3  0  0  0  0  0  0
  179.9400  177.3840  141.7990 C   0  0  0  0  0  3  0  0  0  0  0  0
  180.1770  178.6020  142.4440 C   0  0  0  0  0  3  0  0  0  0  0  0
  179.9550  177.3180  140.4020 C   0  0  0  0  0  3  0  0  0  0  0  0
  180.4440  179.6890  140.2960 C   0  0  0  0  0  3  0  0  0  0  0  0
  189.1910  177.8750  139.6490 C   0  0  0  0  0  2  0  0  0  0  0  0
  190.4250  174.9520  137.5700 C   0  0  0  0  0  3  0  0  0  0  0  0
  189.2740  174.6290  136.8430 C   0  0  0  0  0  0  0  0  0  0  0  0
  188.0710  176.4130  137.9550 C   0  0  0  0  0  3  0  0  0  0  0  0
  190.4000  176.0100  138.4840 C   0  0  0  0  0  3  0  0  0  0  0  0
  189.2250  176.7480  138.6730 C   0  0  0  0  0  0  0  0  0  0  0  0
  188.0950  175.3550  137.0420 C   0  0  0  0  0  3  0  0  0  0  0  0
  187.9860  173.3400  135.2720 N   0  0  0  0  0  1  0  0  0  0  0  0
  189.2940  173.4890  135.8860 C   0  0  0  0  0  2  0  0  0  0  0  0
  1  6  1  0  0  0  0
  2 12  1  1  0  0  0
  2 11  1  0  0  0  0
  4  8  1  0  0  0  0
  5  1  1  0  0  0  0
  7  4  2  0  0  0  0
  7  9  1  0  0  0  0
  8  1  2  0  0  0  0
  9  5  2  0  0  0  0
 10  3  1  0  0  0  0
 11  3  1  1  0  0  0
 11  7  1  0  0  0  0
 12 15  1  0  0  0  0
 13 35  1  6  0  0  0
 13  2  1  0  0  0  0
 14 13  1  0  0  0  0
 14 10  1  0  0  0  0
 15  4  1  0  0  0  0
 16 10  1  0  0  0  0
 16 17  1  1  0  0  0
 18 16  1  0  0  0  0
 20 19  2  0  0  0  0
 20 18  1  0  0  0  0
 21 20  2  0  0  0  0
 22 26  1  0  0  0  0
 22 20  1  0  0  0  0
 23 25  1  0  0  0  0
 23 24  1  0  0  0  0
 24 22  1  0  0  0  0
 25 24  1  0  0  0  0
 26 27  1  6  0  0  0
 26 28  1  0  0  0  0
 28 29  1  0  0  0  0
 29 34  2  0  0  0  0
 29 33  1  0  0  0  0
 30 32  2  0  0  0  0
 31 32  1  0  0  0  0
 33 31  2  0  0  0  0
 34 30  1  0  0  0  0
 36 39  1  0  0  0  0
 37 41  1  0  0  0  0
 37 36  2  0  0  0  0
 38 40  1  0  0  0  0
 39 40  2  0  0  0  0
 40 35  1  0  0  0  0
 41 38  2  0  0  0  0
 42 43  1  0  0  0  0
 43 37  1  0  0  0  0
M  END
>  <MODEL>
6

>  <REMARK>
 VINA RESULT:      -7.5      1.938      2.827
  Name = 
  11 active torsions:
  status: ('A' for Active; 'I' for Inactive)
    1  A    between atoms: C_1  and  C_34
    2  A    between atoms: C_1  and  C_35
    3  A    between atoms: C_2  and  C_6
    4  A    between atoms: C_2  and  N_27
    5  A    between atoms: N_4  and  S_12
    6  A    between atoms: N_4  and  C_15
    7  A    between atoms: N_4  and  C_22
    8  A    between atoms: C_6  and  S_12
    9  A    between atoms: C_11  and  C_14
   10  A    between atoms: C_14  and  C_22
   11  A    between atoms: C_19  and  C_37
                            x       y       z     vdW  Elec       q    Type
                         _______ _______ _______ _____ _____    ______ ____

>  <TORSDO>
F 11

$$$$
=
 OpenBabel11052416373D

 43 48  0  0  1  0  0  0  0  0999 V2000
  187.4560  177.5000  145.6200 C   0  0  0  0  0  0  0  0  0  0  0  0
  189.9950  177.3750  141.2270 C   0  0  1  0  0  3  0  0  0  0  0  0
  187.9320  178.6440  140.6280 C   0  0  0  0  0  2  0  0  0  0  0  0
  189.0770  177.1090  143.8630 C   0  0  0  0  0  0  0  0  0  0  0  0
  186.5110  177.8900  144.6670 C   0  0  0  0  0  3  0  0  0  0  0  0
  187.1210  177.4950  146.9660 O   0  0  0  0  0  1  0  0  0  0  0  0
  188.1400  177.5420  142.9000 C   0  0  0  0  0  0  0  0  0  0  0  0
  188.7360  177.1110  145.2180 C   0  0  0  0  0  3  0  0  0  0  0  0
  186.8490  177.9030  143.3110 C   0  0  0  0  0  3  0  0  0  0  0  0
  188.2720  178.5500  139.1950 N   0  0  0  0  0  0  0  0  0  0  0  0
  188.4840  177.4670  141.4330 C   0  0  2  0  0  3  0  0  0  0  0  0
  190.5190  176.2910  142.0550 N   0  0  0  0  0  2  0  0  0  0  0  0
  190.2770  177.1440  139.7440 C   0  0  1  0  0  3  0  0  0  0  0  0
  189.7010  178.3130  138.9370 C   0  0  0  0  0  2  0  0  0  0  0  0
  190.4740  176.7270  143.4510 C   0  0  0  0  0  2  0  0  0  0  0  0
  187.4050  177.6560  138.4070 C   0  0  1  0  0  3  0  0  0  0  0  0
  185.9510  178.1090  138.3430 C   0  0  0  0  0  1  0  0  0  0  0  0
  187.9490  177.4680  136.9970 C   0  0  0  0  0  2  0  0  0  0  0  0
  188.1590  174.8430  137.4950 O   0  0  0  0  0  0  0  0  0  0  0  0
  187.6980  175.7920  136.4250 S   0  0  0  0  0  0  0  0  0  0  0  0
  188.5160  175.5550  135.1850 O   0  0  0  0  0  0  0  0  0  0  0  0
  186.0060  175.4900  136.0920 N   0  0  0  0  0  0  0  0  0  0  0  0
  184.3800  176.5980  134.6560 C   0  0  0  0  0  2  0  0  0  0  0  0
  185.7100  175.8670  134.7130 C   0  0  0  0  0  3  0  0  0  0  0  0
  185.6710  177.3800  134.5960 C   0  0  0  0  0  2  0  0  0  0  0  0
  185.6130  174.0830  136.3050 C   0  0  1  0  0  3  0  0  0  0  0  0
  186.7570  173.0840  136.1630 C   0  0  0  0  0  1  0  0  0  0  0  0
  184.8860  173.8930  137.6320 C   0  0  0  0  0  2  0  0  0  0  0  0
  183.4590  174.3110  137.5230 C   0  0  0  0  0  0  0  0  0  0  0  0
  181.2840  174.1040  136.4760 C   0  0  0  0  0  3  0  0  0  0  0  0
  181.6400  175.7580  138.2090 C   0  0  0  0  0  3  0  0  0  0  0  0
  180.7960  175.1360  137.2840 C   0  0  0  0  0  3  0  0  0  0  0  0
  182.9720  175.3480  138.3270 C   0  0  0  0  0  3  0  0  0  0  0  0
  182.6150  173.6920  136.5940 C   0  0  0  0  0  3  0  0  0  0  0  0
  191.7740  177.0660  139.4630 C   0  0  0  0  0  2  0  0  0  0  0  0
  193.3390  175.9600  136.1900 C   0  0  0  0  0  3  0  0  0  0  0  0
  192.5790  174.8240  135.8930 C   0  0  0  0  0  0  0  0  0  0  0  0
  191.3060  175.1460  137.9290 C   0  0  0  0  0  3  0  0  0  0  0  0
  193.0770  176.6930  137.3510 C   0  0  0  0  0  3  0  0  0  0  0  0
  192.0550  176.2910  138.2190 C   0  0  0  0  0  0  0  0  0  0  0  0
  191.5670  174.4130  136.7680 C   0  0  0  0  0  3  0  0  0  0  0  0
  193.7710  172.9390  134.9910 N   0  0  0  0  0  1  0  0  0  0  0  0
  192.8700  174.0310  134.6670 C   0  0  0  0  0  2  0  0  0  0  0  0
  1  6  1  0  0  0  0
  2 11  1  0  0  0  0
  2 12  1  1  0  0  0
  4  8  2  0  0  0  0
  5  1  2  0  0  0  0
  7  9  2  0  0  0  0
  7  4  1  0  0  0  0
  8  1  1  0  0  0  0
  9  5  1  0  0  0  0
 10  3  1  0  0  0  0
 11  3  1  6  0  0  0
 11  7  1  0  0  0  0
 12 15  1  0  0  0  0
 13 35  1  1  0  0  0
 13  2  1  0  0  0  0
 14 10  1  0  0  0  0
 14 13  1  0  0  0  0
 15  4  1  0  0  0  0
 16 17  1  6  0  0  0
 16 10  1  0  0  0  0
 18 16  1  0  0  0  0
 20 18  1  0  0  0  0
 20 19  2  0  0  0  0
 21 20  2  0  0  0  0
 22 26  1  0  0  0  0
 22 20  1  0  0  0  0
 23 24  1  0  0  0  0
 24 22  1  0  0  0  0
 25 23  1  0  0  0  0
 25 24  1  0  0  0  0
 26 27  1  1  0  0  0
 26 28  1  0  0  0  0
 29 28  1  0  0  0  0
 29 33  1  0  0  0  0
 30 34  1  0  0  0  0
 30 32  2  0  0  0  0
 31 33  2  0  0  0  0
 32 31  1  0  0  0  0
 34 29  2  0  0  0  0
 36 39  1  0  0  0  0
 37 36  2  0  0  0  0
 37 41  1  0  0  0  0
 38 40  1  0  0  0  0
 39 40  2  0  0  0  0
 40 35  1  0  0  0  0
 41 38  2  0  0  0  0
 43 42  1  0  0  0  0
 43 37  1  0  0  0  0
M  END
>  <MODEL>
7

>  <REMARK>
 VINA RESULT:      -7.3      2.409      3.622
  Name = 
  11 active torsions:
  status: ('A' for Active; 'I' for Inactive)
    1  A    between atoms: C_1  and  C_34
    2  A    between atoms: C_1  and  C_35
    3  A    between atoms: C_2  and  C_6
    4  A    between atoms: C_2  and  N_27
    5  A    between atoms: N_4  and  S_12
    6  A    between atoms: N_4  and  C_15
    7  A    between atoms: N_4  and  C_22
    8  A    between atoms: C_6  and  S_12
    9  A    between atoms: C_11  and  C_14
   10  A    between atoms: C_14  and  C_22
   11  A    between atoms: C_19  and  C_37
                            x       y       z     vdW  Elec       q    Type
                         _______ _______ _______ _____ _____    ______ ____

>  <TORSDO>
F 11

$$$$
=
 OpenBabel11052416373D

 43 48  0  0  1  0  0  0  0  0999 V2000
  187.7900  177.6240  146.8910 C   0  0  0  0  0  0  0  0  0  0  0  0
  187.5430  178.1630  141.8500 C   0  0  1  0  0  3  0  0  0  0  0  0
  185.3370  179.0560  142.6030 C   0  0  0  0  0  2  0  0  0  0  0  0
  188.2390  177.6160  144.5110 C   0  0  0  0  0  0  0  0  0  0  0  0
  186.4390  177.8760  146.6390 C   0  0  0  0  0  3  0  0  0  0  0  0
  188.2400  177.4980  148.1980 O   0  0  0  0  0  1  0  0  0  0  0  0
  186.8830  177.9120  144.2520 C   0  0  0  0  0  0  0  0  0  0  0  0
  188.6880  177.4950  145.8290 C   0  0  0  0  0  3  0  0  0  0  0  0
  185.9850  178.0100  145.3240 C   0  0  0  0  0  3  0  0  0  0  0  0
  184.8580  179.0890  141.2080 N   0  0  0  0  0  0  0  0  0  0  0  0
  186.3860  177.9660  142.8290 C   0  0  2  0  0  3  0  0  0  0  0  0
  188.5680  177.1580  142.1230 N   0  0  0  0  0  2  0  0  0  0  0  0
  187.0050  178.0530  140.4250 C   0  0  1  0  0  3  0  0  0  0  0  0
  185.9370  179.1310  140.2090 C   0  0  0  0  0  2  0  0  0  0  0  0
  189.2280  177.5170  143.3790 C   0  0  0  0  0  2  0  0  0  0  0  0
  183.8280  178.0870  140.8790 C   0  0  1  0  0  3  0  0  0  0  0  0
  182.6010  178.1480  141.7800 C   0  0  0  0  0  1  0  0  0  0  0  0
  183.4040  178.1960  139.4210 C   0  0  0  0  0  2  0  0  0  0  0  0
  180.8520  177.4020  139.2060 O   0  0  0  0  0  0  0  0  0  0  0  0
  182.2520  176.8990  138.9840 S   0  0  0  0  0  0  0  0  0  0  0  0
  182.4790  175.7040  139.8690 O   0  0  0  0  0  0  0  0  0  0  0  0
  182.4290  176.4430  137.3040 N   0  0  0  0  0  0  0  0  0  0  0  0
  181.5340  174.5490  136.0590 C   0  0  0  0  0  2  0  0  0  0  0  0
  181.1980  175.8060  136.8430 C   0  0  0  0  0  3  0  0  0  0  0  0
  181.0590  174.4390  137.4890 C   0  0  0  0  0  2  0  0  0  0  0  0
  182.7450  177.5840  136.4210 C   0  0  1  0  0  3  0  0  0  0  0  0
  184.0270  177.4150  135.6130 C   0  0  0  0  0  1  0  0  0  0  0  0
  181.5730  177.9380  135.5140 C   0  0  0  0  0  2  0  0  0  0  0  0
  181.1680  179.3620  135.6970 C   0  0  0  0  0  0  0  0  0  0  0  0
  180.7730  181.2630  137.1460 C   0  0  0  0  0  3  0  0  0  0  0  0
  180.3440  181.4430  134.7690 C   0  0  0  0  0  3  0  0  0  0  0  0
  180.3580  182.0170  136.0430 C   0  0  0  0  0  3  0  0  0  0  0  0
  180.7480  180.1150  134.5950 C   0  0  0  0  0  3  0  0  0  0  0  0
  181.1770  179.9360  136.9730 C   0  0  0  0  0  3  0  0  0  0  0  0
  188.1070  178.2650  139.3920 C   0  0  0  0  0  2  0  0  0  0  0  0
  187.2090  175.6290  136.8160 C   0  0  0  0  0  3  0  0  0  0  0  0
  188.4160  174.9320  136.7060 C   0  0  0  0  0  0  0  0  0  0  0  0
  189.4210  176.4160  138.3360 C   0  0  0  0  0  3  0  0  0  0  0  0
  187.1050  176.7140  137.6920 C   0  0  0  0  0  3  0  0  0  0  0  0
  188.2100  177.1050  138.4590 C   0  0  0  0  0  0  0  0  0  0  0  0
  189.5250  175.3320  137.4610 C   0  0  0  0  0  3  0  0  0  0  0  0
  187.2300  173.4780  135.2000 N   0  0  0  0  0  1  0  0  0  0  0  0
  188.5340  173.7900  135.7580 C   0  0  0  0  0  2  0  0  0  0  0  0
  1  6  1  0  0  0  0
  2 12  1  1  0  0  0
  2 11  1  0  0  0  0
  4  8  1  0  0  0  0
  5  1  1  0  0  0  0
  7  4  2  0  0  0  0
  7  9  1  0  0  0  0
  8  1  2  0  0  0  0
  9  5  2  0  0  0  0
 10  3  1  0  0  0  0
 11  3  1  1  0  0  0
 11  7  1  0  0  0  0
 12 15  1  0  0  0  0
 13 35  1  6  0  0  0
 13  2  1  0  0  0  0
 14 13  1  0  0  0  0
 14 10  1  0  0  0  0
 15  4  1  0  0  0  0
 16 10  1  0  0  0  0
 16 17  1  1  0  0  0
 18 16  1  0  0  0  0
 20 19  2  0  0  0  0
 20 18  1  0  0  0  0
 20 21  2  0  0  0  0
 22 20  1  0  0  0  0
 23 24  1  0  0  0  0
 23 25  1  0  0  0  0
 24 22  1  0  0  0  0
 24 25  1  0  0  0  0
 26 27  1  6  0  0  0
 26 22  1  0  0  0  0
 28 29  1  0  0  0  0
 28 26  1  0  0  0  0
 29 34  1  0  0  0  0
 31 32  2  0  0  0  0
 32 30  1  0  0  0  0
 33 31  1  0  0  0  0
 33 29  2  0  0  0  0
 34 30  2  0  0  0  0
 36 39  1  0  0  0  0
 37 36  2  0  0  0  0
 37 41  1  0  0  0  0
 38 40  1  0  0  0  0
 39 40  2  0  0  0  0
 40 35  1  0  0  0  0
 41 38  2  0  0  0  0
 42 43  1  0  0  0  0
 43 37  1  0  0  0  0
M  END
>  <MODEL>
8

>  <REMARK>
 VINA RESULT:      -7.1      2.454      4.461
  Name = 
  11 active torsions:
  status: ('A' for Active; 'I' for Inactive)
    1  A    between atoms: C_1  and  C_34
    2  A    between atoms: C_1  and  C_35
    3  A    between atoms: C_2  and  C_6
    4  A    between atoms: C_2  and  N_27
    5  A    between atoms: N_4  and  S_12
    6  A    between atoms: N_4  and  C_15
    7  A    between atoms: N_4  and  C_22
    8  A    between atoms: C_6  and  S_12
    9  A    between atoms: C_11  and  C_14
   10  A    between atoms: C_14  and  C_22
   11  A    between atoms: C_19  and  C_37
                            x       y       z     vdW  Elec       q    Type
                         _______ _______ _______ _____ _____    ______ ____

>  <TORSDO>
F 11

$$$$
=
 OpenBabel11052416373D

 43 48  0  0  1  0  0  0  0  0999 V2000
  194.0230  175.1760  137.9690 C   0  0  0  0  0  0  0  0  0  0  0  0
  189.3070  174.8910  136.1170 C   0  0  1  0  0  3  0  0  0  0  0  0
  189.5480  177.3240  136.6190 C   0  0  0  0  0  2  0  0  0  0  0  0
  191.9090  174.4300  137.0510 C   0  0  0  0  0  0  0  0  0  0  0  0
  193.4470  176.4040  138.3090 C   0  0  0  0  0  3  0  0  0  0  0  0
  195.3580  174.9340  138.2600 O   0  0  0  0  0  1  0  0  0  0  0  0
  191.3330  175.6830  137.3540 C   0  0  0  0  0  0  0  0  0  0  0  0
  193.2560  174.1930  137.3410 C   0  0  0  0  0  3  0  0  0  0  0  0
  192.1040  176.6530  138.0100 C   0  0  0  0  0  3  0  0  0  0  0  0
  188.1050  177.5290  136.3920 N   0  0  0  0  0  0  0  0  0  0  0  0
  189.8620  175.9100  137.1110 C   0  0  2  0  0  3  0  0  0  0  0  0
  189.6730  173.5490  136.5620 N   0  0  0  0  0  2  0  0  0  0  0  0
  187.7920  175.0660  136.0270 C   0  0  1  0  0  3  0  0  0  0  0  0
  187.4800  176.4910  135.5570 C   0  0  0  0  0  2  0  0  0  0  0  0
  191.1080  173.3740  136.3360 C   0  0  0  0  0  2  0  0  0  0  0  0
  187.3200  177.8210  137.6050 C   0  0  1  0  0  3  0  0  0  0  0  0
  185.8470  177.4500  137.4890 C   0  0  0  0  0  1  0  0  0  0  0  0
  187.9270  177.1440  138.8270 C   0  0  0  0  0  2  0  0  0  0  0  0
  186.6460  178.9590  140.3260 O   0  0  0  0  0  0  0  0  0  0  0  0
  187.9690  178.2540  140.2280 S   0  0  0  0  0  0  0  0  0  0  0  0
  189.0490  179.2820  140.0240 O   0  0  0  0  0  0  0  0  0  0  0  0
  188.2540  177.3760  141.7150 N   0  0  0  0  0  0  0  0  0  0  0  0
  190.2230  176.1530  142.4630 C   0  0  0  0  0  2  0  0  0  0  0  0
  189.6570  177.5140  142.0970 C   0  0  0  0  0  3  0  0  0  0  0  0
  190.5290  176.7550  141.1120 C   0  0  0  0  0  2  0  0  0  0  0  0
  187.4010  177.8300  142.8320 C   0  0  1  0  0  3  0  0  0  0  0  0
  186.0440  178.3770  142.4020 C   0  0  0  0  0  1  0  0  0  0  0  0
  187.2410  176.7510  143.8960 C   0  0  0  0  0  2  0  0  0  0  0  0
  187.5530  177.2890  145.2520 C   0  0  0  0  0  0  0  0  0  0  0  0
  189.1540  177.7450  147.0120 C   0  0  0  0  0  3  0  0  0  0  0  0
  186.8130  178.2700  147.3410 C   0  0  0  0  0  3  0  0  0  0  0  0
  188.1270  178.2490  147.8160 C   0  0  0  0  0  3  0  0  0  0  0  0
  186.5250  177.7880  146.0590 C   0  0  0  0  0  3  0  0  0  0  0  0
  188.8680  177.2640  145.7310 C   0  0  0  0  0  3  0  0  0  0  0  0
  187.1730  174.0930  135.0300 C   0  0  0  0  0  2  0  0  0  0  0  0
  183.5010  173.1470  135.1360 C   0  0  0  0  0  3  0  0  0  0  0  0
  183.3920  172.6150  136.4250 C   0  0  0  0  0  0  0  0  0  0  0  0
  185.7490  173.0360  136.7960 C   0  0  0  0  0  3  0  0  0  0  0  0
  184.7310  173.6310  134.6800 C   0  0  0  0  0  3  0  0  0  0  0  0
  185.8560  173.5830  135.5120 C   0  0  0  0  0  0  0  0  0  0  0  0
  184.5200  172.5520  137.2520 C   0  0  0  0  0  3  0  0  0  0  0  0
  181.0240  172.5090  136.0120 N   0  0  0  0  0  1  0  0  0  0  0  0
  182.0880  172.0820  136.9040 C   0  0  0  0  0  2  0  0  0  0  0  0
  1  6  1  0  0  0  0
  1  5  1  0  0  0  0
  2 12  1  1  0  0  0
  2 11  1  0  0  0  0
  4  8  1  0  0  0  0
  4  7  2  0  0  0  0
  7  9  1  0  0  0  0
  8  1  2  0  0  0  0
  9  5  2  0  0  0  0
 10  3  1  0  0  0  0
 10 16  1  0  0  0  0
 11  3  1  6  0  0  0
 11  7  1  0  0  0  0
 13 35  1  6  0  0  0
 13  2  1  0  0  0  0
 14 13  1  0  0  0  0
 14 10  1  0  0  0  0
 15 12  1  0  0  0  0
 15  4  1  0  0  0  0
 16 17  1  6  0  0  0
 16 18  1  0  0  0  0
 18 20  1  0  0  0  0
 20 19  2  0  0  0  0
 20 22  1  0  0  0  0
 21 20  2  0  0  0  0
 22 24  1  0  0  0  0
 22 26  1  0  0  0  0
 24 23  1  0  0  0  0
 25 24  1  0  0  0  0
 25 23  1  0  0  0  0
 26 27  1  6  0  0  0
 26 28  1  0  0  0  0
 28 29  1  0  0  0  0
 29 34  2  0  0  0  0
 29 33  1  0  0  0  0
 30 32  2  0  0  0  0
 31 32  1  0  0  0  0
 33 31  2  0  0  0  0
 34 30  1  0  0  0  0
 35 40  1  0  0  0  0
 36 37  1  0  0  0  0
 37 43  1  0  0  0  0
 37 41  2  0  0  0  0
 38 41  1  0  0  0  0
 39 36  2  0  0  0  0
 39 40  1  0  0  0  0
 40 38  2  0  0  0  0
 42 43  1  0  0  0  0
M  END
>  <MODEL>
9

>  <REMARK>
 VINA RESULT:      -7.0      3.349      7.245
  Name = 
  11 active torsions:
  status: ('A' for Active; 'I' for Inactive)
    1  A    between atoms: C_1  and  C_34
    2  A    between atoms: C_1  and  C_35
    3  A    between atoms: C_2  and  C_6
    4  A    between atoms: C_2  and  N_27
    5  A    between atoms: N_4  and  S_12
    6  A    between atoms: N_4  and  C_15
    7  A    between atoms: N_4  and  C_22
    8  A    between atoms: C_6  and  S_12
    9  A    between atoms: C_11  and  C_14
   10  A    between atoms: C_14  and  C_22
   11  A    between atoms: C_19  and  C_37
                            x       y       z     vdW  Elec       q    Type
                         _______ _______ _______ _____ _____    ______ ____

>  <TORSDO>
F 11

$$$$
