=
 OpenBabel11052412463D

 25 28  0  0  1  0  0  0  0  0999 V2000
  187.1700  177.8590  145.4110 C   0  0  0  0  0  0  0  0  0  0  0  0
  188.4680  177.4440  145.0640 C   0  0  0  0  0  0  0  0  0  0  0  0
  187.7420  177.7950  147.7830 C   0  0  0  0  0  3  0  0  0  0  0  0
  186.0930  178.1490  144.5560 C   0  0  0  0  0  0  0  0  0  0  0  0
  183.7490  178.8080  143.1880 C   0  0  0  0  0  3  0  0  0  0  0  0
  189.0360  177.3820  147.4470 C   0  0  0  0  0  3  0  0  0  0  0  0
  184.9470  178.5350  145.2470 C   0  0  0  0  0  0  0  0  0  0  0  0
  183.7640  178.8680  144.5890 C   0  0  0  0  0  3  0  0  0  0  0  0
  190.6990  176.7920  145.7320 C   0  0  0  0  0  0  0  0  0  0  0  0
  191.7520  176.5180  146.7540 C   0  0  0  0  0  1  0  0  0  0  0  0
  188.8340  177.2710  143.7680 N   0  0  0  0  0  0  0  0  0  0  0  0
  184.9000  178.4210  142.4760 C   0  0  0  0  0  3  0  0  0  0  0  0
  186.8320  178.0250  146.7550 C   0  0  0  0  0  0  0  0  0  0  0  0
  185.2290  178.5250  146.9080 S   0  0  0  0  0  0  0  0  0  0  0  0
  191.0070  176.6370  144.4180 N   0  0  0  0  0  0  0  0  0  0  0  0
  186.0810  178.0890  143.1580 C   0  0  0  0  0  3  0  0  0  0  0  0
  190.0910  176.8720  143.4430 C   0  0  0  0  0  0  0  0  0  0  0  0
  189.4080  177.2050  146.0970 C   0  0  0  0  0  0  0  0  0  0  0  0
  190.5380  176.6560  141.7280 S   0  0  0  0  0  0  0  0  0  0  0  0
  189.0980  177.6180  141.1550 C   0  0  0  0  0  2  0  0  0  0  0  0
  188.7420  177.3170  139.6950 C   0  0  2  0  0  3  0  0  0  0  0  0
  189.9780  176.7700  138.9840 C   0  0  0  0  0  1  0  0  0  0  0  0
  188.1980  178.4960  139.0050 N   0  0  0  0  0  0  0  0  0  0  0  0
  186.9330  178.1290  138.3840 C   0  0  0  0  0  1  0  0  0  0  0  0
  189.0780  178.8340  137.8940 C   0  0  0  0  0  1  0  0  0  0  0  0
  1 13  1  0  0  0  0
  2  1  2  0  0  0  0
  2 18  1  0  0  0  0
  4  7  1  0  0  0  0
  4  1  1  0  0  0  0
  5  8  1  0  0  0  0
  6  3  1  0  0  0  0
  7 14  1  0  0  0  0
  8  7  2  0  0  0  0
  9 18  1  0  0  0  0
  9 10  1  0  0  0  0
 11  2  1  0  0  0  0
 12 16  1  0  0  0  0
 12  5  2  0  0  0  0
 13 14  1  0  0  0  0
 13  3  2  0  0  0  0
 15  9  2  0  0  0  0
 16  4  2  0  0  0  0
 17 11  2  0  0  0  0
 17 15  1  0  0  0  0
 18  6  2  0  0  0  0
 19 17  1  0  0  0  0
 20 19  1  0  0  0  0
 21 22  1  6  0  0  0
 21 20  1  0  0  0  0
 23 21  1  0  0  0  0
 24 23  1  0  0  0  0
 25 23  1  0  0  0  0
M  END
>  <MODEL>
1

>  <REMARK>
 VINA RESULT:      -9.9      0.000      0.000
  Name = 
  4 active torsions:
  status: ('A' for Active; 'I' for Inactive)
    1  A    between atoms: N_2  and  C_21
    2  A    between atoms: S_6  and  C_15
    3  A    between atoms: S_6  and  C_23
    4  A    between atoms: C_15  and  C_21
                            x       y       z     vdW  Elec       q    Type
                         _______ _______ _______ _____ _____    ______ ____

>  <TORSDO>
F 4

$$$$
=
 OpenBabel11052412463D

 25 28  0  0  1  0  0  0  0  0999 V2000
  187.3520  177.8400  145.6710 C   0  0  0  0  0  0  0  0  0  0  0  0
  188.6750  177.3990  145.4860 C   0  0  0  0  0  0  0  0  0  0  0  0
  187.6870  177.9520  148.0860 C   0  0  0  0  0  3  0  0  0  0  0  0
  186.3680  178.0680  144.6940 C   0  0  0  0  0  0  0  0  0  0  0  0
  184.1760  178.6250  143.0560 C   0  0  0  0  0  3  0  0  0  0  0  0
  189.0050  177.5130  147.9110 C   0  0  0  0  0  3  0  0  0  0  0  0
  185.1620  178.5040  145.2380 C   0  0  0  0  0  0  0  0  0  0  0  0
  184.0530  178.7890  144.4440 C   0  0  0  0  0  3  0  0  0  0  0  0
  190.8240  176.7960  146.4170 C   0  0  0  0  0  0  0  0  0  0  0  0
  191.7680  176.5980  147.5550 C   0  0  0  0  0  1  0  0  0  0  0  0
  189.1650  177.1300  144.2480 N   0  0  0  0  0  0  0  0  0  0  0  0
  185.3880  178.1860  142.4920 C   0  0  0  0  0  3  0  0  0  0  0  0
  186.8860  178.1060  146.9590 C   0  0  0  0  0  0  0  0  0  0  0  0
  185.2790  178.6180  146.9150 S   0  0  0  0  0  0  0  0  0  0  0  0
  191.2590  176.5430  145.1550 N   0  0  0  0  0  0  0  0  0  0  0  0
  186.4930  177.9040  143.3100 C   0  0  0  0  0  3  0  0  0  0  0  0
  190.4450  176.7070  144.0790 C   0  0  0  0  0  0  0  0  0  0  0  0
  189.5070  177.2370  146.6210 C   0  0  0  0  0  0  0  0  0  0  0  0
  191.0570  176.3630  142.4380 S   0  0  0  0  0  0  0  0  0  0  0  0
  189.6790  177.2670  141.6560 C   0  0  0  0  0  2  0  0  0  0  0  0
  189.9430  177.5600  140.1740 C   0  0  2  0  0  3  0  0  0  0  0  0
  188.6700  178.1190  139.5430 C   0  0  0  0  0  1  0  0  0  0  0  0
  190.4290  176.3740  139.4540 N   0  0  0  0  0  0  0  0  0  0  0  0
  191.7340  176.6770  138.8850 C   0  0  0  0  0  1  0  0  0  0  0  0
  189.5620  176.1370  138.3070 C   0  0  0  0  0  1  0  0  0  0  0  0
  1 13  1  0  0  0  0
  2  1  2  0  0  0  0
  2 18  1  0  0  0  0
  4  7  1  0  0  0  0
  4  1  1  0  0  0  0
  5  8  1  0  0  0  0
  6  3  1  0  0  0  0
  7 14  1  0  0  0  0
  8  7  2  0  0  0  0
  9 18  1  0  0  0  0
  9 10  1  0  0  0  0
 11  2  1  0  0  0  0
 12  5  2  0  0  0  0
 12 16  1  0  0  0  0
 13  3  2  0  0  0  0
 14 13  1  0  0  0  0
 15  9  2  0  0  0  0
 16  4  2  0  0  0  0
 17 11  2  0  0  0  0
 17 15  1  0  0  0  0
 18  6  2  0  0  0  0
 19 17  1  0  0  0  0
 20 19  1  0  0  0  0
 21 22  1  6  0  0  0
 21 20  1  0  0  0  0
 23 21  1  0  0  0  0
 24 23  1  0  0  0  0
 25 23  1  0  0  0  0
M  END
>  <MODEL>
2

>  <REMARK>
 VINA RESULT:      -9.6      1.008      1.478
  Name = 
  4 active torsions:
  status: ('A' for Active; 'I' for Inactive)
    1  A    between atoms: N_2  and  C_21
    2  A    between atoms: S_6  and  C_15
    3  A    between atoms: S_6  and  C_23
    4  A    between atoms: C_15  and  C_21
                            x       y       z     vdW  Elec       q    Type
                         _______ _______ _______ _____ _____    ______ ____

>  <TORSDO>
F 4

$$$$
=
 OpenBabel11052412463D

 25 28  0  0  1  0  0  0  0  0999 V2000
  187.5500  177.8180  145.5930 C   0  0  0  0  0  0  0  0  0  0  0  0
  186.6850  178.1280  144.5290 C   0  0  0  0  0  0  0  0  0  0  0  0
  185.7710  178.2380  147.2110 C   0  0  0  0  0  3  0  0  0  0  0  0
  188.9000  177.4320  145.5320 C   0  0  0  0  0  0  0  0  0  0  0  0
  191.5650  176.6440  145.8070 C   0  0  0  0  0  3  0  0  0  0  0  0
  184.9030  178.5490  146.1570 C   0  0  0  0  0  3  0  0  0  0  0  0
  189.4500  177.2000  146.7900 C   0  0  0  0  0  0  0  0  0  0  0  0
  190.7770  176.8070  146.9560 C   0  0  0  0  0  3  0  0  0  0  0  0
  184.4990  178.8020  143.7430 C   0  0  0  0  0  0  0  0  0  0  0  0
  183.0770  179.1990  143.9570 C   0  0  0  0  0  1  0  0  0  0  0  0
  187.1060  178.0810  143.2380 N   0  0  0  0  0  0  0  0  0  0  0  0
  191.0220  176.8740  144.5290 C   0  0  0  0  0  3  0  0  0  0  0  0
  187.0800  177.8780  146.9060 C   0  0  0  0  0  0  0  0  0  0  0  0
  188.3010  177.4640  147.9940 S   0  0  0  0  0  0  0  0  0  0  0  0
  184.9760  178.7360  142.4730 N   0  0  0  0  0  0  0  0  0  0  0  0
  189.6840  177.2690  144.3850 C   0  0  0  0  0  3  0  0  0  0  0  0
  186.2620  178.3800  142.2160 C   0  0  0  0  0  0  0  0  0  0  0  0
  185.3480  178.4960  144.8190 C   0  0  0  0  0  0  0  0  0  0  0  0
  186.8470  178.3060  140.5310 S   0  0  0  0  0  0  0  0  0  0  0  0
  188.5790  178.0950  141.0650 C   0  0  0  0  0  2  0  0  0  0  0  0
  189.5250  177.8520  139.8840 C   0  0  2  0  0  3  0  0  0  0  0  0
  188.6980  177.5230  138.6430 C   0  0  0  0  0  1  0  0  0  0  0  0
  190.5100  176.7980  140.1730 N   0  0  0  0  0  0  0  0  0  0  0  0
  191.6340  177.3930  140.8800 C   0  0  0  0  0  1  0  0  0  0  0  0
  191.0660  176.3210  138.9130 C   0  0  0  0  0  1  0  0  0  0  0  0
  1 13  2  0  0  0  0
  2 18  2  0  0  0  0
  2  1  1  0  0  0  0
  4  1  1  0  0  0  0
  4  7  1  0  0  0  0
  5  8  1  0  0  0  0
  6  3  2  0  0  0  0
  7  8  2  0  0  0  0
  7 14  1  0  0  0  0
  9 10  1  0  0  0  0
  9 18  1  0  0  0  0
 11  2  1  0  0  0  0
 12  5  2  0  0  0  0
 13  3  1  0  0  0  0
 13 14  1  0  0  0  0
 15  9  2  0  0  0  0
 16 12  1  0  0  0  0
 16  4  2  0  0  0  0
 17 15  1  0  0  0  0
 17 11  2  0  0  0  0
 18  6  1  0  0  0  0
 19 20  1  0  0  0  0
 19 17  1  0  0  0  0
 21 22  1  6  0  0  0
 21 23  1  0  0  0  0
 21 20  1  0  0  0  0
 23 24  1  0  0  0  0
 25 23  1  0  0  0  0
M  END
>  <MODEL>
3

>  <REMARK>
 VINA RESULT:      -9.4      1.831      4.732
  Name = 
  4 active torsions:
  status: ('A' for Active; 'I' for Inactive)
    1  A    between atoms: N_2  and  C_21
    2  A    between atoms: S_6  and  C_15
    3  A    between atoms: S_6  and  C_23
    4  A    between atoms: C_15  and  C_21
                            x       y       z     vdW  Elec       q    Type
                         _______ _______ _______ _____ _____    ______ ____

>  <TORSDO>
F 4

$$$$
=
 OpenBabel11052412463D

 25 28  0  0  1  0  0  0  0  0999 V2000
  186.9010  177.9450  144.7450 C   0  0  0  0  0  0  0  0  0  0  0  0
  188.0400  177.6280  143.9840 C   0  0  0  0  0  0  0  0  0  0  0  0
  188.1140  177.5020  146.8170 C   0  0  0  0  0  3  0  0  0  0  0  0
  185.6340  178.3460  144.2870 C   0  0  0  0  0  0  0  0  0  0  0  0
  183.0160  179.1630  143.7620 C   0  0  0  0  0  3  0  0  0  0  0  0
  189.2530  177.1840  146.0660 C   0  0  0  0  0  3  0  0  0  0  0  0
  184.7370  178.5820  145.3260 C   0  0  0  0  0  0  0  0  0  0  0  0
  183.4250  178.9890  145.0920 C   0  0  0  0  0  3  0  0  0  0  0  0
  190.3540  176.9320  143.8810 C   0  0  0  0  0  0  0  0  0  0  0  0
  191.6440  176.5190  144.5060 C   0  0  0  0  0  1  0  0  0  0  0  0
  188.0230  177.6830  142.6270 N   0  0  0  0  0  0  0  0  0  0  0  0
  183.9120  178.9300  142.7020 C   0  0  0  0  0  3  0  0  0  0  0  0
  186.9580  177.8770  146.1380 C   0  0  0  0  0  0  0  0  0  0  0  0
  185.4740  178.3030  146.8160 S   0  0  0  0  0  0  0  0  0  0  0  0
  190.2770  177.0050  142.5260 N   0  0  0  0  0  0  0  0  0  0  0  0
  185.2290  178.5200  142.9600 C   0  0  0  0  0  3  0  0  0  0  0  0
  189.1290  177.3770  141.9010 C   0  0  0  0  0  0  0  0  0  0  0  0
  189.2270  177.2450  144.6570 C   0  0  0  0  0  0  0  0  0  0  0  0
  189.0720  177.4600  140.1180 S   0  0  0  0  0  0  0  0  0  0  0  0
  190.7400  176.7370  139.9590 C   0  0  0  0  0  2  0  0  0  0  0  0
  191.1210  176.4750  138.4980 C   0  0  2  0  0  3  0  0  0  0  0  0
  190.1000  177.1530  137.5870 C   0  0  0  0  0  1  0  0  0  0  0  0
  191.2360  175.0380  138.2060 N   0  0  0  0  0  0  0  0  0  0  0  0
  192.5280  174.7920  137.5820 C   0  0  0  0  0  1  0  0  0  0  0  0
  190.2530  174.6880  137.1900 C   0  0  0  0  0  1  0  0  0  0  0  0
  1 13  2  0  0  0  0
  2 18  2  0  0  0  0
  2  1  1  0  0  0  0
  4  1  1  0  0  0  0
  4  7  1  0  0  0  0
  5  8  1  0  0  0  0
  6  3  2  0  0  0  0
  7 14  1  0  0  0  0
  8  7  2  0  0  0  0
  9 10  1  0  0  0  0
  9 18  1  0  0  0  0
 11  2  1  0  0  0  0
 12 16  1  0  0  0  0
 12  5  2  0  0  0  0
 13 14  1  0  0  0  0
 13  3  1  0  0  0  0
 15  9  2  0  0  0  0
 16  4  2  0  0  0  0
 17 15  1  0  0  0  0
 17 11  2  0  0  0  0
 18  6  1  0  0  0  0
 19 17  1  0  0  0  0
 20 19  1  0  0  0  0
 21 22  1  6  0  0  0
 21 20  1  0  0  0  0
 23 21  1  0  0  0  0
 24 23  1  0  0  0  0
 25 23  1  0  0  0  0
M  END
>  <MODEL>
4

>  <REMARK>
 VINA RESULT:      -9.2      1.655      2.319
  Name = 
  4 active torsions:
  status: ('A' for Active; 'I' for Inactive)
    1  A    between atoms: N_2  and  C_21
    2  A    between atoms: S_6  and  C_15
    3  A    between atoms: S_6  and  C_23
    4  A    between atoms: C_15  and  C_21
                            x       y       z     vdW  Elec       q    Type
                         _______ _______ _______ _____ _____    ______ ____

>  <TORSDO>
F 4

$$$$
=
 OpenBabel11052412463D

 25 28  0  0  1  0  0  0  0  0999 V2000
  185.8460  178.3630  144.3840 C   0  0  0  0  0  0  0  0  0  0  0  0
  185.8410  178.5060  142.9850 C   0  0  0  0  0  0  0  0  0  0  0  0
  183.4580  178.8590  144.4820 C   0  0  0  0  0  3  0  0  0  0  0  0
  186.9300  178.0490  145.2200 C   0  0  0  0  0  0  0  0  0  0  0  0
  188.8230  177.4470  147.1830 C   0  0  0  0  0  3  0  0  0  0  0  0
  183.4440  179.0030  143.0890 C   0  0  0  0  0  3  0  0  0  0  0  0
  186.5720  177.9880  146.5650 C   0  0  0  0  0  0  0  0  0  0  0  0
  187.4960  177.6910  147.5640 C   0  0  0  0  0  3  0  0  0  0  0  0
  184.6370  178.9650  140.9380 C   0  0  0  0  0  0  0  0  0  0  0  0
  183.4010  179.3030  140.1730 C   0  0  0  0  0  1  0  0  0  0  0  0
  186.9720  178.3400  142.2510 N   0  0  0  0  0  0  0  0  0  0  0  0
  189.2010  177.5030  145.8290 C   0  0  0  0  0  3  0  0  0  0  0  0
  184.6630  178.5420  145.1020 C   0  0  0  0  0  0  0  0  0  0  0  0
  184.9300  178.3180  146.7520 S   0  0  0  0  0  0  0  0  0  0  0  0
  185.7990  178.7870  140.2580 N   0  0  0  0  0  0  0  0  0  0  0  0
  188.2540  177.8050  144.8380 C   0  0  0  0  0  3  0  0  0  0  0  0
  186.9560  178.4770  140.9000 C   0  0  0  0  0  0  0  0  0  0  0  0
  184.6230  178.8280  142.3350 C   0  0  0  0  0  0  0  0  0  0  0  0
  188.4610  178.2510  139.9670 S   0  0  0  0  0  0  0  0  0  0  0  0
  189.2760  177.3880  141.3520 C   0  0  0  0  0  2  0  0  0  0  0  0
  190.8020  177.5340  141.3100 C   0  0  2  0  0  3  0  0  0  0  0  0
  191.3020  177.1290  139.9250 C   0  0  0  0  0  1  0  0  0  0  0  0
  191.4600  176.7570  142.3710 N   0  0  0  0  0  0  0  0  0  0  0  0
  190.5350  175.7370  142.8440 C   0  0  0  0  0  1  0  0  0  0  0  0
  191.6810  177.6270  143.5190 C   0  0  0  0  0  1  0  0  0  0  0  0
  1 13  2  0  0  0  0
  1  4  1  0  0  0  0
  2  1  1  0  0  0  0
  3 13  1  0  0  0  0
  4  7  1  0  0  0  0
  5  8  1  0  0  0  0
  6  3  2  0  0  0  0
  7 14  1  0  0  0  0
  7  8  2  0  0  0  0
  9 18  1  0  0  0  0
 10  9  1  0  0  0  0
 11  2  1  0  0  0  0
 12  5  2  0  0  0  0
 13 14  1  0  0  0  0
 15 17  1  0  0  0  0
 15  9  2  0  0  0  0
 16  4  2  0  0  0  0
 16 12  1  0  0  0  0
 17 11  2  0  0  0  0
 18  2  2  0  0  0  0
 18  6  1  0  0  0  0
 19 17  1  0  0  0  0
 19 20  1  0  0  0  0
 21 22  1  6  0  0  0
 21 20  1  0  0  0  0
 21 23  1  0  0  0  0
 23 24  1  0  0  0  0
 23 25  1  0  0  0  0
M  END
>  <MODEL>
5

>  <REMARK>
 VINA RESULT:      -9.2      1.650      5.065
  Name = 
  4 active torsions:
  status: ('A' for Active; 'I' for Inactive)
    1  A    between atoms: N_2  and  C_21
    2  A    between atoms: S_6  and  C_15
    3  A    between atoms: S_6  and  C_23
    4  A    between atoms: C_15  and  C_21
                            x       y       z     vdW  Elec       q    Type
                         _______ _______ _______ _____ _____    ______ ____

>  <TORSDO>
F 4

$$$$
=
 OpenBabel11052412463D

 25 28  0  0  1  0  0  0  0  0999 V2000
  189.4240  177.4250  144.5070 C   0  0  0  0  0  0  0  0  0  0  0  0
  189.0440  177.6410  143.1710 C   0  0  0  0  0  0  0  0  0  0  0  0
  191.6350  176.6740  143.7970 C   0  0  0  0  0  3  0  0  0  0  0  0
  188.6630  177.6300  145.6700 C   0  0  0  0  0  0  0  0  0  0  0  0
  187.4720  177.9100  148.1810 C   0  0  0  0  0  3  0  0  0  0  0  0
  191.2650  176.8870  142.4640 C   0  0  0  0  0  3  0  0  0  0  0  0
  189.3610  177.3110  146.8330 C   0  0  0  0  0  0  0  0  0  0  0  0
  188.7910  177.4410  148.0970 C   0  0  0  0  0  3  0  0  0  0  0  0
  189.5820  177.5900  140.8130 C   0  0  0  0  0  0  0  0  0  0  0  0
  190.5010  177.3300  139.6670 C   0  0  0  0  0  1  0  0  0  0  0  0
  187.8070  178.1040  142.8520 N   0  0  0  0  0  0  0  0  0  0  0  0
  186.7540  178.2380  147.0160 C   0  0  0  0  0  3  0  0  0  0  0  0
  190.7040  176.9490  144.7940 C   0  0  0  0  0  0  0  0  0  0  0  0
  190.9140  176.7750  146.4590 S   0  0  0  0  0  0  0  0  0  0  0  0
  188.3310  178.0550  140.5550 N   0  0  0  0  0  0  0  0  0  0  0  0
  187.3470  178.0990  145.7510 C   0  0  0  0  0  3  0  0  0  0  0  0
  187.4500  178.3120  141.5580 C   0  0  0  0  0  0  0  0  0  0  0  0
  189.9790  177.3690  142.1410 C   0  0  0  0  0  0  0  0  0  0  0  0
  185.8170  178.9220  141.1740 S   0  0  0  0  0  0  0  0  0  0  0  0
  185.1280  178.2680  142.7320 C   0  0  0  0  0  2  0  0  0  0  0  0
  183.5950  178.2420  142.7230 C   0  0  2  0  0  3  0  0  0  0  0  0
  183.1020  178.4900  141.2990 C   0  0  0  0  0  1  0  0  0  0  0  0
  183.0210  179.2090  143.6710 N   0  0  0  0  0  0  0  0  0  0  0  0
  183.6190  178.9890  144.9800 C   0  0  0  0  0  1  0  0  0  0  0  0
  181.6070  178.9060  143.8470 C   0  0  0  0  0  1  0  0  0  0  0  0
  1 13  2  0  0  0  0
  1  4  1  0  0  0  0
  2  1  1  0  0  0  0
  3 13  1  0  0  0  0
  4 16  2  0  0  0  0
  4  7  1  0  0  0  0
  6  3  2  0  0  0  0
  7  8  2  0  0  0  0
  8  5  1  0  0  0  0
  9 18  1  0  0  0  0
 10  9  1  0  0  0  0
 11  2  1  0  0  0  0
 12  5  2  0  0  0  0
 13 14  1  0  0  0  0
 14  7  1  0  0  0  0
 15  9  2  0  0  0  0
 15 17  1  0  0  0  0
 16 12  1  0  0  0  0
 17 11  2  0  0  0  0
 18  6  1  0  0  0  0
 18  2  2  0  0  0  0
 19 17  1  0  0  0  0
 19 20  1  0  0  0  0
 21 22  1  6  0  0  0
 21 20  1  0  0  0  0
 21 23  1  0  0  0  0
 23 25  1  0  0  0  0
 23 24  1  0  0  0  0
M  END
>  <MODEL>
6

>  <REMARK>
 VINA RESULT:      -9.0      2.194      5.437
  Name = 
  4 active torsions:
  status: ('A' for Active; 'I' for Inactive)
    1  A    between atoms: N_2  and  C_21
    2  A    between atoms: S_6  and  C_15
    3  A    between atoms: S_6  and  C_23
    4  A    between atoms: C_15  and  C_21
                            x       y       z     vdW  Elec       q    Type
                         _______ _______ _______ _____ _____    ______ ____

>  <TORSDO>
F 4

$$$$
=
 OpenBabel11052412463D

 25 28  0  0  1  0  0  0  0  0999 V2000
  188.0970  177.6180  145.5850 C   0  0  0  0  0  0  0  0  0  0  0  0
  187.5140  177.8320  144.3230 C   0  0  0  0  0  0  0  0  0  0  0  0
  186.0140  178.2420  146.6950 C   0  0  0  0  0  3  0  0  0  0  0  0
  189.4060  177.2010  145.8770 C   0  0  0  0  0  0  0  0  0  0  0  0
  191.9000  176.3950  146.8410 C   0  0  0  0  0  3  0  0  0  0  0  0
  185.4260  178.4570  145.4420 C   0  0  0  0  0  3  0  0  0  0  0  0
  189.6430  177.0930  147.2460 C   0  0  0  0  0  0  0  0  0  0  0  0
  190.8780  176.6940  147.7530 C   0  0  0  0  0  3  0  0  0  0  0  0
  185.5980  178.4610  142.9880 C   0  0  0  0  0  0  0  0  0  0  0  0
  184.1830  178.9070  142.8250 C   0  0  0  0  0  1  0  0  0  0  0  0
  188.2160  177.6400  143.1760 N   0  0  0  0  0  0  0  0  0  0  0  0
  191.6760  176.4990  145.4560 C   0  0  0  0  0  3  0  0  0  0  0  0
  187.3420  177.8270  146.7400 C   0  0  0  0  0  0  0  0  0  0  0  0
  188.2610  177.5050  148.1170 S   0  0  0  0  0  0  0  0  0  0  0  0
  186.3500  178.2520  141.8760 N   0  0  0  0  0  0  0  0  0  0  0  0
  190.4250  176.9030  144.9660 C   0  0  0  0  0  3  0  0  0  0  0  0
  187.6440  177.8450  141.9620 C   0  0  0  0  0  0  0  0  0  0  0  0
  186.1630  178.2540  144.2560 C   0  0  0  0  0  0  0  0  0  0  0  0
  188.5960  177.5830  140.4750 S   0  0  0  0  0  0  0  0  0  0  0  0
  187.2940  178.3130  139.4260 C   0  0  0  0  0  2  0  0  0  0  0  0
  187.3000  177.7330  138.0070 C   0  0  2  0  0  3  0  0  0  0  0  0
  188.3210  176.6000  137.9360 C   0  0  0  0  0  1  0  0  0  0  0  0
  187.5640  178.7630  136.9910 N   0  0  0  0  0  0  0  0  0  0  0  0
  187.2090  178.2280  135.6840 C   0  0  0  0  0  1  0  0  0  0  0  0
  189.0000  178.9970  136.9250 C   0  0  0  0  0  1  0  0  0  0  0  0
  1  4  1  0  0  0  0
  1 13  2  0  0  0  0
  2  1  1  0  0  0  0
  3 13  1  0  0  0  0
  4  7  1  0  0  0  0
  5  8  1  0  0  0  0
  6  3  2  0  0  0  0
  7  8  2  0  0  0  0
  7 14  1  0  0  0  0
  9 18  1  0  0  0  0
 10  9  1  0  0  0  0
 11  2  1  0  0  0  0
 12  5  2  0  0  0  0
 13 14  1  0  0  0  0
 15 17  1  0  0  0  0
 15  9  2  0  0  0  0
 16 12  1  0  0  0  0
 16  4  2  0  0  0  0
 17 11  2  0  0  0  0
 18  2  2  0  0  0  0
 18  6  1  0  0  0  0
 19 17  1  0  0  0  0
 20 19  1  0  0  0  0
 21 22  1  1  0  0  0
 21 20  1  0  0  0  0
 23 21  1  0  0  0  0
 24 23  1  0  0  0  0
 25 23  1  0  0  0  0
M  END
>  <MODEL>
7

>  <REMARK>
 VINA RESULT:      -8.9      1.532      4.548
  Name = 
  4 active torsions:
  status: ('A' for Active; 'I' for Inactive)
    1  A    between atoms: N_2  and  C_21
    2  A    between atoms: S_6  and  C_15
    3  A    between atoms: S_6  and  C_23
    4  A    between atoms: C_15  and  C_21
                            x       y       z     vdW  Elec       q    Type
                         _______ _______ _______ _____ _____    ______ ____

>  <TORSDO>
F 4

$$$$
=
 OpenBabel11052412463D

 25 28  0  0  1  0  0  0  0  0999 V2000
  186.4880  178.2300  144.2640 C   0  0  0  0  0  0  0  0  0  0  0  0
  186.5640  178.3630  142.8660 C   0  0  0  0  0  0  0  0  0  0  0  0
  184.1310  178.8660  144.2340 C   0  0  0  0  0  3  0  0  0  0  0  0
  187.5060  177.8570  145.1580 C   0  0  0  0  0  0  0  0  0  0  0  0
  189.2540  177.1580  147.2200 C   0  0  0  0  0  3  0  0  0  0  0  0
  184.1990  179.0010  142.8420 C   0  0  0  0  0  3  0  0  0  0  0  0
  187.0740  177.8270  146.4820 C   0  0  0  0  0  0  0  0  0  0  0  0
  187.9260  177.4830  147.5290 C   0  0  0  0  0  3  0  0  0  0  0  0
  185.4990  178.8790  140.7570 C   0  0  0  0  0  0  0  0  0  0  0  0
  184.3270  179.2830  139.9260 C   0  0  0  0  0  1  0  0  0  0  0  0
  187.7210  178.1250  142.1940 N   0  0  0  0  0  0  0  0  0  0  0  0
  189.7050  177.1830  145.8870 C   0  0  0  0  0  3  0  0  0  0  0  0
  185.2810  178.4820  144.9180 C   0  0  0  0  0  0  0  0  0  0  0  0
  185.4470  178.2550  146.5810 S   0  0  0  0  0  0  0  0  0  0  0  0
  186.6830  178.6270  140.1390 N   0  0  0  0  0  0  0  0  0  0  0  0
  188.8310  177.5330  144.8460 C   0  0  0  0  0  3  0  0  0  0  0  0
  187.7840  178.2540  140.8430 C   0  0  0  0  0  0  0  0  0  0  0  0
  185.4040  178.7510  142.1510 C   0  0  0  0  0  0  0  0  0  0  0  0
  189.3200  177.9330  139.9920 S   0  0  0  0  0  0  0  0  0  0  0  0
  188.4760  177.0010  138.6690 C   0  0  0  0  0  2  0  0  0  0  0  0
  188.8790  177.4830  137.2710 C   0  0  2  0  0  3  0  0  0  0  0  0
  189.0550  179.0000  137.3000 C   0  0  0  0  0  1  0  0  0  0  0  0
  187.9120  177.0700  136.2440 N   0  0  0  0  0  0  0  0  0  0  0  0
  187.1360  178.2340  135.8410 C   0  0  0  0  0  1  0  0  0  0  0  0
  186.9450  176.1640  136.8510 C   0  0  0  0  0  1  0  0  0  0  0  0
  1 13  2  0  0  0  0
  1  4  1  0  0  0  0
  2  1  1  0  0  0  0
  3 13  1  0  0  0  0
  4  7  1  0  0  0  0
  5  8  1  0  0  0  0
  6  3  2  0  0  0  0
  7 14  1  0  0  0  0
  7  8  2  0  0  0  0
  9 18  1  0  0  0  0
 10  9  1  0  0  0  0
 11  2  1  0  0  0  0
 12  5  2  0  0  0  0
 13 14  1  0  0  0  0
 15  9  2  0  0  0  0
 15 17  1  0  0  0  0
 16  4  2  0  0  0  0
 16 12  1  0  0  0  0
 17 11  2  0  0  0  0
 18  6  1  0  0  0  0
 18  2  2  0  0  0  0
 19 17  1  0  0  0  0
 20 19  1  0  0  0  0
 21 22  1  1  0  0  0
 21 20  1  0  0  0  0
 23 25  1  0  0  0  0
 23 21  1  0  0  0  0
 24 23  1  0  0  0  0
M  END
>  <MODEL>
8

>  <REMARK>
 VINA RESULT:      -8.9      1.510      4.648
  Name = 
  4 active torsions:
  status: ('A' for Active; 'I' for Inactive)
    1  A    between atoms: N_2  and  C_21
    2  A    between atoms: S_6  and  C_15
    3  A    between atoms: S_6  and  C_23
    4  A    between atoms: C_15  and  C_21
                            x       y       z     vdW  Elec       q    Type
                         _______ _______ _______ _____ _____    ______ ____

>  <TORSDO>
F 4

$$$$
=
 OpenBabel11052412463D

 25 28  0  0  1  0  0  0  0  0999 V2000
  187.8070  177.8200  144.6280 C   0  0  0  0  0  0  0  0  0  0  0  0
  188.4880  177.7310  143.4010 C   0  0  0  0  0  0  0  0  0  0  0  0
  189.8480  177.2640  145.8460 C   0  0  0  0  0  3  0  0  0  0  0  0
  186.4540  178.1270  144.8500 C   0  0  0  0  0  0  0  0  0  0  0  0
  183.8480  178.6980  145.6780 C   0  0  0  0  0  3  0  0  0  0  0  0
  190.5340  177.1740  144.6290 C   0  0  0  0  0  3  0  0  0  0  0  0
  186.1160  178.1280  146.2020 C   0  0  0  0  0  0  0  0  0  0  0  0
  184.8250  178.4080  146.6410 C   0  0  0  0  0  3  0  0  0  0  0  0
  190.5310  177.3220  142.1730 C   0  0  0  0  0  0  0  0  0  0  0  0
  191.9820  176.9850  142.0870 C   0  0  0  0  0  1  0  0  0  0  0  0
  187.8540  177.9520  142.2210 N   0  0  0  0  0  0  0  0  0  0  0  0
  184.1730  178.7020  144.3090 C   0  0  0  0  0  3  0  0  0  0  0  0
  188.4940  177.5860  145.8200 C   0  0  0  0  0  0  0  0  0  0  0  0
  187.4620  177.7520  147.1440 S   0  0  0  0  0  0  0  0  0  0  0  0
  189.8440  177.5540  141.0250 N   0  0  0  0  0  0  0  0  0  0  0  0
  185.4810  178.4170  143.8870 C   0  0  0  0  0  3  0  0  0  0  0  0
  188.5210  177.8670  141.0410 C   0  0  0  0  0  0  0  0  0  0  0  0
  189.8670  177.4060  143.4070 C   0  0  0  0  0  0  0  0  0  0  0  0
  187.6560  178.1640  139.5080 S   0  0  0  0  0  0  0  0  0  0  0  0
  189.2000  178.5950  138.6370 C   0  0  0  0  0  2  0  0  0  0  0  0
  189.0250  178.6030  137.1140 C   0  0  2  0  0  3  0  0  0  0  0  0
  187.5340  178.6100  136.7850 C   0  0  0  0  0  1  0  0  0  0  0  0
  189.7150  177.4730  136.4730 N   0  0  0  0  0  0  0  0  0  0  0  0
  188.7260  176.4650  136.1200 C   0  0  0  0  0  1  0  0  0  0  0  0
  190.5730  176.8300  137.4590 C   0  0  0  0  0  1  0  0  0  0  0  0
  1  4  1  0  0  0  0
  1 13  2  0  0  0  0
  2 18  2  0  0  0  0
  2  1  1  0  0  0  0
  4  7  1  0  0  0  0
  5  8  1  0  0  0  0
  6  3  2  0  0  0  0
  7  8  2  0  0  0  0
  7 14  1  0  0  0  0
  9 18  1  0  0  0  0
 10  9  1  0  0  0  0
 11  2  1  0  0  0  0
 12  5  2  0  0  0  0
 13  3  1  0  0  0  0
 13 14  1  0  0  0  0
 15 17  1  0  0  0  0
 15  9  2  0  0  0  0
 16 12  1  0  0  0  0
 16  4  2  0  0  0  0
 17 11  2  0  0  0  0
 18  6  1  0  0  0  0
 19 17  1  0  0  0  0
 20 19  1  0  0  0  0
 21 22  1  1  0  0  0
 21 20  1  0  0  0  0
 23 21  1  0  0  0  0
 23 25  1  0  0  0  0
 24 23  1  0  0  0  0
M  END
>  <MODEL>
9

>  <REMARK>
 VINA RESULT:      -8.7      1.771      2.781
  Name = 
  4 active torsions:
  status: ('A' for Active; 'I' for Inactive)
    1  A    between atoms: N_2  and  C_21
    2  A    between atoms: S_6  and  C_15
    3  A    between atoms: S_6  and  C_23
    4  A    between atoms: C_15  and  C_21
                            x       y       z     vdW  Elec       q    Type
                         _______ _______ _______ _____ _____    ______ ____

>  <TORSDO>
F 4

$$$$
