=
 OpenBabel11052413033D

 31 35  0  0  1  0  0  0  0  0999 V2000
  188.7200  176.5190  143.5730 C   0  0  0  0  0  3  0  0  0  0  0  0
  186.4190  177.5330  143.8580 C   0  0  2  0  0  3  0  0  0  0  0  0
  186.4600  177.3430  145.3220 N   0  0  1  0  0  0  0  0  0  0  0  0
  187.7350  177.4060  143.1130 C   0  0  0  0  0  0  0  0  0  0  0  0
  190.0870  176.9850  141.6340 C   0  0  0  0  0  3  0  0  0  0  0  0
  187.6420  177.6770  146.1320 C   0  0  1  0  0  3  0  0  0  0  0  0
  185.5470  178.8780  141.9410 C   0  0  0  0  0  0  0  0  0  0  0  0
  190.9410  175.3990  143.3620 C   0  0  0  0  0  1  0  0  0  0  0  0
  184.1380  178.6250  145.6660 C   0  0  0  0  0  2  0  0  0  0  0  0
  186.8790  178.9580  141.2500 C   0  0  0  0  0  2  0  0  0  0  0  0
  185.5820  178.7700  143.4290 C   0  0  1  0  0  3  0  0  0  0  0  0
  184.4110  178.8990  141.3040 N   0  0  0  0  0  0  0  0  0  0  0  0
  189.8960  176.3220  142.8480 C   0  0  0  0  0  0  0  0  0  0  0  0
  187.9110  178.0380  141.8550 C   0  0  0  0  0  0  0  0  0  0  0  0
  189.0970  177.8370  141.1400 C   0  0  0  0  0  3  0  0  0  0  0  0
  184.2300  179.0120  144.1610 C   0  0  0  0  0  2  0  0  0  0  0  0
  186.6520  178.7160  145.8580 C   0  0  2  0  0  3  0  0  0  0  0  0
  185.3380  179.0070  146.5720 C   0  0  0  0  0  2  0  0  0  0  0  0
  184.3270  180.0900  139.2740 O   0  0  0  0  0  0  0  0  0  0  0  0
  184.2070  178.9940  139.8840 C   0  0  0  0  0  0  0  0  0  0  0  0
  182.9050  176.3720  136.8000 C   0  0  0  0  0  0  0  0  0  0  0  0
  182.3620  177.8280  138.7170 C   0  0  0  0  0  2  0  0  0  0  0  0
  186.4260  178.0550  137.9140 Cl  0  0  0  0  0  0  0  0  0  0  0  0
  182.5490  175.4670  135.8580 F   0  0  0  0  0  0  0  0  0  0  0  0
  182.0110  176.7710  137.7070 C   0  0  0  0  0  3  0  0  0  0  0  0
  184.7340  177.5770  137.8920 C   0  0  0  0  0  0  0  0  0  0  0  0
  183.8460  177.7710  139.1060 C   0  0  1  0  0  3  0  0  0  0  0  0
  184.2910  176.8720  136.8460 C   0  0  0  0  0  3  0  0  0  0  0  0
  187.4830  177.1100  147.5330 C   0  0  0  0  0  2  0  0  0  0  0  0
  188.3450  177.8800  148.5160 C   0  0  0  0  0  2  0  0  0  0  0  0
  189.6780  177.8530  148.1050 O   0  0  0  0  0  1  0  0  0  0  0  0
  2  4  1  1  0  0  0
  2  3  1  0  0  0  0
  3 17  1  0  0  0  0
  3  6  1  0  0  0  0
  4  1  1  0  0  0  0
  5 13  1  0  0  0  0
  6 29  1  0  0  0  0
  7 11  1  0  0  0  0
  9 18  1  0  0  0  0
 10 14  1  0  0  0  0
 10  7  1  0  0  0  0
 11  2  1  0  0  0  0
 11 16  1  0  0  0  0
 12  7  2  0  0  0  0
 13  8  1  0  0  0  0
 13  1  2  0  0  0  0
 14  4  2  0  0  0  0
 15  5  2  0  0  0  0
 15 14  1  0  0  0  0
 16  9  1  0  0  0  0
 17  6  1  0  0  0  0
 17 18  1  0  0  0  0
 19 20  2  0  0  0  0
 20 12  1  0  0  0  0
 21 28  1  0  0  0  0
 21 25  2  0  0  0  0
 22 27  1  0  0  0  0
 24 21  1  0  0  0  0
 25 22  1  0  0  0  0
 26 23  1  0  0  0  0
 26 27  1  0  0  0  0
 27 20  1  0  0  0  0
 28 26  2  0  0  0  0
 29 30  1  0  0  0  0
 31 30  1  0  0  0  0
M  END
>  <MODEL>
1

>  <REMARK>
 VINA RESULT:      -9.6      0.000      0.000
  Name = 
  4 active torsions:
  status: ('A' for Active; 'I' for Inactive)
    1  A    between atoms: C_9  and  C_22
    2  A    between atoms: C_9  and  N_23
    3  A    between atoms: C_10  and  C_14
    4  A    between atoms: C_10  and  C_18
                            x       y       z     vdW  Elec       q    Type
                         _______ _______ _______ _____ _____    ______ ____

>  <TORSDO>
F 4

$$$$
=
 OpenBabel11052413033D

 31 35  0  0  1  0  0  0  0  0999 V2000
  188.5390  176.6150  143.4720 C   0  0  0  0  0  3  0  0  0  0  0  0
  186.2540  177.5760  143.9810 C   0  0  2  0  0  3  0  0  0  0  0  0
  186.4360  177.3760  145.4330 N   0  0  1  0  0  0  0  0  0  0  0  0
  187.4960  177.4830  143.1150 C   0  0  0  0  0  0  0  0  0  0  0  0
  189.7070  177.1250  141.4180 C   0  0  0  0  0  3  0  0  0  0  0  0
  187.6820  177.7300  146.1310 C   0  0  1  0  0  3  0  0  0  0  0  0
  185.1770  178.9150  142.1670 C   0  0  0  0  0  0  0  0  0  0  0  0
  190.7530  175.5460  143.0430 C   0  0  0  0  0  1  0  0  0  0  0  0
  184.1300  178.6040  146.0050 C   0  0  0  0  0  2  0  0  0  0  0  0
  186.4360  179.0300  141.3540 C   0  0  0  0  0  2  0  0  0  0  0  0
  185.3540  178.7960  143.6440 C   0  0  1  0  0  3  0  0  0  0  0  0
  183.9860  178.9150  141.6400 N   0  0  0  0  0  0  0  0  0  0  0  0
  189.6460  176.4490  142.6370 C   0  0  0  0  0  0  0  0  0  0  0  0
  187.5400  178.1290  141.8510 C   0  0  0  0  0  0  0  0  0  0  0  0
  188.6570  177.9580  141.0270 C   0  0  0  0  0  3  0  0  0  0  0  0
  184.0720  179.0030  144.5020 C   0  0  0  0  0  2  0  0  0  0  0  0
  186.6480  178.7490  145.9620 C   0  0  2  0  0  3  0  0  0  0  0  0
  185.4010  179.0050  146.7990 C   0  0  0  0  0  2  0  0  0  0  0  0
  184.2020  179.8630  139.4940 O   0  0  0  0  0  0  0  0  0  0  0  0
  183.6470  179.0170  140.2460 C   0  0  0  0  0  0  0  0  0  0  0  0
  180.8260  175.8780  139.7280 C   0  0  0  0  0  0  0  0  0  0  0  0
  183.1630  176.6670  139.6390 C   0  0  0  0  0  2  0  0  0  0  0  0
  180.7350  179.6930  141.1100 Cl  0  0  0  0  0  0  0  0  0  0  0  0
  179.8820  174.9360  139.4970 F   0  0  0  0  0  0  0  0  0  0  0  0
  182.0830  175.6690  139.3290 C   0  0  0  0  0  3  0  0  0  0  0  0
  181.2960  178.1820  140.4050 C   0  0  0  0  0  0  0  0  0  0  0  0
  182.6170  178.1020  139.6670 C   0  0  1  0  0  3  0  0  0  0  0  0
  180.4490  177.1480  140.3740 C   0  0  0  0  0  3  0  0  0  0  0  0
  187.6670  177.1490  147.5360 C   0  0  0  0  0  2  0  0  0  0  0  0
  188.6300  177.9060  148.4310 C   0  0  0  0  0  2  0  0  0  0  0  0
  189.9450  177.6660  148.0290 O   0  0  0  0  0  1  0  0  0  0  0  0
  2  4  1  6  0  0  0
  2  3  1  0  0  0  0
  3 17  1  0  0  0  0
  3  6  1  0  0  0  0
  4  1  1  0  0  0  0
  5 13  1  0  0  0  0
  6 29  1  0  0  0  0
  7 11  1  0  0  0  0
  9 18  1  0  0  0  0
 10 14  1  0  0  0  0
 10  7  1  0  0  0  0
 11  2  1  0  0  0  0
 11 16  1  0  0  0  0
 12  7  2  0  0  0  0
 13  8  1  0  0  0  0
 13  1  2  0  0  0  0
 14  4  2  0  0  0  0
 15  5  2  0  0  0  0
 15 14  1  0  0  0  0
 16  9  1  0  0  0  0
 17  6  1  0  0  0  0
 17 18  1  0  0  0  0
 19 20  2  0  0  0  0
 20 12  1  0  0  0  0
 21 28  1  0  0  0  0
 22 27  1  0  0  0  0
 24 21  1  0  0  0  0
 25 22  1  0  0  0  0
 25 21  2  0  0  0  0
 26 23  1  0  0  0  0
 27 20  1  0  0  0  0
 27 26  1  0  0  0  0
 28 26  2  0  0  0  0
 29 30  1  0  0  0  0
 31 30  1  0  0  0  0
M  END
>  <MODEL>
2

>  <REMARK>
 VINA RESULT:      -9.6      1.785      2.098
  Name = 
  4 active torsions:
  status: ('A' for Active; 'I' for Inactive)
    1  A    between atoms: C_9  and  C_22
    2  A    between atoms: C_9  and  N_23
    3  A    between atoms: C_10  and  C_14
    4  A    between atoms: C_10  and  C_18
                            x       y       z     vdW  Elec       q    Type
                         _______ _______ _______ _____ _____    ______ ____

>  <TORSDO>
F 4

$$$$
=
 OpenBabel11052413033D

 31 35  0  0  1  0  0  0  0  0999 V2000
  188.6040  176.8600  143.2600 C   0  0  0  0  0  3  0  0  0  0  0  0
  186.3050  177.4880  144.1090 C   0  0  2  0  0  3  0  0  0  0  0  0
  186.7340  177.3640  145.5170 N   0  0  1  0  0  0  0  0  0  0  0  0
  187.4000  177.5520  143.0620 C   0  0  0  0  0  0  0  0  0  0  0  0
  189.3550  177.4700  141.0450 C   0  0  0  0  0  3  0  0  0  0  0  0
  188.0030  177.9200  146.0100 C   0  0  1  0  0  3  0  0  0  0  0  0
  184.7740  178.5940  142.4720 C   0  0  0  0  0  0  0  0  0  0  0  0
  190.8630  176.1160  142.5020 C   0  0  0  0  0  1  0  0  0  0  0  0
  184.3820  178.2550  146.4290 C   0  0  0  0  0  2  0  0  0  0  0  0
  185.8630  178.8670  141.4730 C   0  0  0  0  0  2  0  0  0  0  0  0
  185.1890  178.5500  143.9050 C   0  0  1  0  0  3  0  0  0  0  0  0
  183.5300  178.4010  142.1370 N   0  0  0  0  0  0  0  0  0  0  0  0
  189.5830  176.8320  142.2650 C   0  0  0  0  0  0  0  0  0  0  0  0
  187.1530  178.1560  141.8010 C   0  0  0  0  0  0  0  0  0  0  0  0
  188.1440  178.1260  140.8140 C   0  0  0  0  0  3  0  0  0  0  0  0
  184.0370  178.5930  144.9500 C   0  0  0  0  0  2  0  0  0  0  0  0
  186.8140  178.7690  145.9940 C   0  0  2  0  0  3  0  0  0  0  0  0
  185.6850  178.8650  147.0120 C   0  0  0  0  0  2  0  0  0  0  0  0
  183.0970  177.4190  140.0400 O   0  0  0  0  0  0  0  0  0  0  0  0
  182.9720  178.4070  140.8110 C   0  0  0  0  0  0  0  0  0  0  0  0
  180.4460  181.0030  138.5840 C   0  0  0  0  0  0  0  0  0  0  0  0
  182.6500  179.9360  138.8920 C   0  0  0  0  0  2  0  0  0  0  0  0
  180.0070  178.5040  141.7520 Cl  0  0  0  0  0  0  0  0  0  0  0  0
  179.6300  181.8840  137.9580 F   0  0  0  0  0  0  0  0  0  0  0  0
  181.7410  180.9540  138.2630 C   0  0  0  0  0  3  0  0  0  0  0  0
  180.7220  179.4350  140.4420 C   0  0  0  0  0  0  0  0  0  0  0  0
  182.2250  179.6080  140.3300 C   0  0  1  0  0  3  0  0  0  0  0  0
  179.9080  180.1400  139.6510 C   0  0  0  0  0  3  0  0  0  0  0  0
  188.2900  177.3890  147.4050 C   0  0  0  0  0  2  0  0  0  0  0  0
  189.7500  176.9980  147.5310 C   0  0  0  0  0  2  0  0  0  0  0  0
  190.3930  177.1450  146.3010 O   0  0  0  0  0  1  0  0  0  0  0  0
  2  4  1  6  0  0  0
  2  3  1  0  0  0  0
  3 17  1  0  0  0  0
  3  6  1  0  0  0  0
  4  1  1  0  0  0  0
  5 13  1  0  0  0  0
  6 29  1  0  0  0  0
  7 11  1  0  0  0  0
  9 18  1  0  0  0  0
 10 14  1  0  0  0  0
 10  7  1  0  0  0  0
 11  2  1  0  0  0  0
 11 16  1  0  0  0  0
 12  7  2  0  0  0  0
 13  8  1  0  0  0  0
 13  1  2  0  0  0  0
 14  4  2  0  0  0  0
 15  5  2  0  0  0  0
 15 14  1  0  0  0  0
 16  9  1  0  0  0  0
 17  6  1  0  0  0  0
 17 18  1  0  0  0  0
 19 20  2  0  0  0  0
 20 12  1  0  0  0  0
 21 28  1  0  0  0  0
 22 27  1  0  0  0  0
 24 21  1  0  0  0  0
 25 21  2  0  0  0  0
 25 22  1  0  0  0  0
 26 23  1  0  0  0  0
 27 26  1  0  0  0  0
 27 20  1  0  0  0  0
 28 26  2  0  0  0  0
 29 30  1  0  0  0  0
 31 30  1  0  0  0  0
M  END
>  <MODEL>
3

>  <REMARK>
 VINA RESULT:      -9.1      2.558      2.935
  Name = 
  4 active torsions:
  status: ('A' for Active; 'I' for Inactive)
    1  A    between atoms: C_9  and  C_22
    2  A    between atoms: C_9  and  N_23
    3  A    between atoms: C_10  and  C_14
    4  A    between atoms: C_10  and  C_18
                            x       y       z     vdW  Elec       q    Type
                         _______ _______ _______ _____ _____    ______ ____

>  <TORSDO>
F 4

$$$$
=
 OpenBabel11052413033D

 31 35  0  0  1  0  0  0  0  0999 V2000
  188.4910  177.3530  144.8690 C   0  0  0  0  0  3  0  0  0  0  0  0
  186.9320  177.7490  142.9150 C   0  0  2  0  0  3  0  0  0  0  0  0
  185.7620  177.8770  143.8080 N   0  0  1  0  0  0  0  0  0  0  0  0
  188.3010  177.8300  143.5630 C   0  0  0  0  0  0  0  0  0  0  0  0
  190.8670  177.7650  144.7070 C   0  0  0  0  0  3  0  0  0  0  0  0
  185.7940  178.6720  145.0450 C   0  0  1  0  0  3  0  0  0  0  0  0
  187.9990  178.3940  140.7490 C   0  0  0  0  0  0  0  0  0  0  0  0
  189.9420  176.8500  146.8370 C   0  0  0  0  0  1  0  0  0  0  0  0
  184.1460  178.5320  141.7800 C   0  0  0  0  0  2  0  0  0  0  0  0
  189.3360  178.6870  141.3700 C   0  0  0  0  0  2  0  0  0  0  0  0
  186.8070  178.6020  141.6230 C   0  0  1  0  0  3  0  0  0  0  0  0
  187.8570  177.9800  139.5220 N   0  0  0  0  0  0  0  0  0  0  0  0
  189.7630  177.3350  145.4440 C   0  0  0  0  0  0  0  0  0  0  0  0
  189.4340  178.2190  142.8010 C   0  0  0  0  0  0  0  0  0  0  0  0
  190.7020  178.2020  143.3910 C   0  0  0  0  0  3  0  0  0  0  0  0
  185.4280  178.6170  140.9020 C   0  0  0  0  0  2  0  0  0  0  0  0
  185.4510  179.3300  143.7860 C   0  0  2  0  0  3  0  0  0  0  0  0
  184.1090  179.3970  143.0670 C   0  0  0  0  0  2  0  0  0  0  0  0
  189.4110  178.6610  137.8880 O   0  0  0  0  0  0  0  0  0  0  0  0
  188.8960  177.7290  138.5600 C   0  0  0  0  0  0  0  0  0  0  0  0
  190.8930  174.3080  137.0130 C   0  0  0  0  0  0  0  0  0  0  0  0
  188.9680  175.8500  136.9500 C   0  0  0  0  0  2  0  0  0  0  0  0
  191.7150  177.1810  139.7590 Cl  0  0  0  0  0  0  0  0  0  0  0  0
  191.5250  173.1800  136.6110 F   0  0  0  0  0  0  0  0  0  0  0  0
  189.6590  174.5690  136.5760 C   0  0  0  0  0  3  0  0  0  0  0  0
  190.8780  176.2040  138.5610 C   0  0  0  0  0  0  0  0  0  0  0  0
  189.3830  176.3310  138.3470 C   0  0  1  0  0  3  0  0  0  0  0  0
  191.5550  175.2150  137.9680 C   0  0  0  0  0  3  0  0  0  0  0  0
  184.5550  178.3790  145.8760 C   0  0  0  0  0  2  0  0  0  0  0  0
  184.9200  178.2530  147.3430 C   0  0  0  0  0  2  0  0  0  0  0  0
  186.2770  178.5240  147.5220 O   0  0  0  0  0  1  0  0  0  0  0  0
  1 13  1  0  0  0  0
  2  4  1  1  0  0  0
  2  3  1  0  0  0  0
  3  6  1  0  0  0  0
  4  1  2  0  0  0  0
  5 13  2  0  0  0  0
  6 29  1  0  0  0  0
  7 10  1  0  0  0  0
  7 11  1  0  0  0  0
  9 18  1  0  0  0  0
 10 14  1  0  0  0  0
 11  2  1  0  0  0  0
 12  7  2  0  0  0  0
 13  8  1  0  0  0  0
 14 15  2  0  0  0  0
 14  4  1  0  0  0  0
 15  5  1  0  0  0  0
 16 11  1  0  0  0  0
 16  9  1  0  0  0  0
 17  3  1  0  0  0  0
 17  6  1  0  0  0  0
 18 17  1  0  0  0  0
 19 20  2  0  0  0  0
 20 12  1  0  0  0  0
 21 28  1  0  0  0  0
 22 27  1  0  0  0  0
 24 21  1  0  0  0  0
 25 22  1  0  0  0  0
 25 21  2  0  0  0  0
 26 23  1  0  0  0  0
 27 20  1  0  0  0  0
 27 26  1  0  0  0  0
 28 26  2  0  0  0  0
 29 30  1  0  0  0  0
 30 31  1  0  0  0  0
M  END
>  <MODEL>
4

>  <REMARK>
 VINA RESULT:      -8.8      3.351      4.632
  Name = 
  4 active torsions:
  status: ('A' for Active; 'I' for Inactive)
    1  A    between atoms: C_9  and  C_22
    2  A    between atoms: C_9  and  N_23
    3  A    between atoms: C_10  and  C_14
    4  A    between atoms: C_10  and  C_18
                            x       y       z     vdW  Elec       q    Type
                         _______ _______ _______ _____ _____    ______ ____

>  <TORSDO>
F 4

$$$$
=
 OpenBabel11052413033D

 31 35  0  0  1  0  0  0  0  0999 V2000
  188.6950  177.0300  142.7320 C   0  0  0  0  0  3  0  0  0  0  0  0
  186.5370  177.4630  143.9800 C   0  0  2  0  0  3  0  0  0  0  0  0
  187.1920  177.2590  145.2880 N   0  0  1  0  0  0  0  0  0  0  0  0
  187.4460  177.6660  142.7830 C   0  0  0  0  0  0  0  0  0  0  0  0
  189.0530  177.8440  140.4840 C   0  0  0  0  0  3  0  0  0  0  0  0
  188.4990  177.8480  145.6200 C   0  0  1  0  0  3  0  0  0  0  0  0
  184.7170  178.6010  142.7010 C   0  0  0  0  0  0  0  0  0  0  0  0
  190.8330  176.4720  141.5700 C   0  0  0  0  0  1  0  0  0  0  0  0
  184.9820  177.9470  146.6290 C   0  0  0  0  0  2  0  0  0  0  0  0
  185.6180  179.0080  141.5690 C   0  0  0  0  0  2  0  0  0  0  0  0
  185.3590  178.4740  144.0420 C   0  0  1  0  0  3  0  0  0  0  0  0
  183.4450  178.3640  142.5500 N   0  0  0  0  0  0  0  0  0  0  0  0
  189.5020  177.1310  141.5970 C   0  0  0  0  0  0  0  0  0  0  0  0
  186.9730  178.3480  141.6300 C   0  0  0  0  0  0  0  0  0  0  0  0
  187.7930  178.4470  140.5020 C   0  0  0  0  0  3  0  0  0  0  0  0
  184.3890  178.3750  145.2550 C   0  0  0  0  0  2  0  0  0  0  0  0
  187.2870  178.6280  145.8610 C   0  0  2  0  0  3  0  0  0  0  0  0
  186.3330  178.5840  147.0480 C   0  0  0  0  0  2  0  0  0  0  0  0
  181.6670  179.1780  141.2360 O   0  0  0  0  0  0  0  0  0  0  0  0
  182.6810  178.4370  141.3330 C   0  0  0  0  0  0  0  0  0  0  0  0
  182.6980  176.4070  137.5970 C   0  0  0  0  0  0  0  0  0  0  0  0
  182.1510  176.4180  140.0030 C   0  0  0  0  0  2  0  0  0  0  0  0
  183.6440  180.1300  138.9060 Cl  0  0  0  0  0  0  0  0  0  0  0  0
  182.8020  175.7710  136.4060 F   0  0  0  0  0  0  0  0  0  0  0  0
  182.3430  175.7210  138.6860 C   0  0  0  0  0  3  0  0  0  0  0  0
  183.1590  178.4400  138.8780 C   0  0  0  0  0  0  0  0  0  0  0  0
  183.0940  177.6200  140.1520 C   0  0  1  0  0  3  0  0  0  0  0  0
  183.0250  177.8410  137.6910 C   0  0  0  0  0  3  0  0  0  0  0  0
  189.0290  177.2310  146.9040 C   0  0  0  0  0  2  0  0  0  0  0  0
  190.5200  176.9720  146.7900 C   0  0  0  0  0  2  0  0  0  0  0  0
  190.9100  176.0080  147.7210 O   0  0  0  0  0  1  0  0  0  0  0  0
  1  4  1  0  0  0  0
  2  4  1  6  0  0  0
  2 11  1  0  0  0  0
  2  3  1  0  0  0  0
  3  6  1  0  0  0  0
  3 17  1  0  0  0  0
  5 15  2  0  0  0  0
  5 13  1  0  0  0  0
  6 17  1  0  0  0  0
  6 29  1  0  0  0  0
  7 11  1  0  0  0  0
  8 13  1  0  0  0  0
  9 18  1  0  0  0  0
 10 14  1  0  0  0  0
 10  7  1  0  0  0  0
 11 16  1  0  0  0  0
 12  7  2  0  0  0  0
 13  1  2  0  0  0  0
 14  4  2  0  0  0  0
 15 14  1  0  0  0  0
 16  9  1  0  0  0  0
 17 18  1  0  0  0  0
 19 20  2  0  0  0  0
 20 12  1  0  0  0  0
 21 28  1  0  0  0  0
 21 25  2  0  0  0  0
 22 27  1  0  0  0  0
 24 21  1  0  0  0  0
 25 22  1  0  0  0  0
 26 23  1  0  0  0  0
 26 27  1  0  0  0  0
 27 20  1  0  0  0  0
 28 26  2  0  0  0  0
 30 29  1  0  0  0  0
 30 31  1  0  0  0  0
M  END
>  <MODEL>
5

>  <REMARK>
 VINA RESULT:      -8.6      1.520      1.705
  Name = 
  4 active torsions:
  status: ('A' for Active; 'I' for Inactive)
    1  A    between atoms: C_9  and  C_22
    2  A    between atoms: C_9  and  N_23
    3  A    between atoms: C_10  and  C_14
    4  A    between atoms: C_10  and  C_18
                            x       y       z     vdW  Elec       q    Type
                         _______ _______ _______ _____ _____    ______ ____

>  <TORSDO>
F 4

$$$$
=
 OpenBabel11052413033D

 31 35  0  0  1  0  0  0  0  0999 V2000
  188.1480  178.1460  146.4340 C   0  0  0  0  0  3  0  0  0  0  0  0
  188.8390  177.9730  144.0070 C   0  0  2  0  0  3  0  0  0  0  0  0
  190.2060  177.5480  144.3720 N   0  0  1  0  0  0  0  0  0  0  0  0
  187.7880  177.9140  145.0980 C   0  0  0  0  0  0  0  0  0  0  0  0
  185.8300  178.0310  147.1110 C   0  0  0  0  0  3  0  0  0  0  0  0
  190.4700  176.5340  145.4060 C   0  0  1  0  0  3  0  0  0  0  0  0
  186.9940  177.8820  142.3240 C   0  0  0  0  0  0  0  0  0  0  0  0
  187.5790  178.4080  148.8510 C   0  0  0  0  0  1  0  0  0  0  0  0
  190.8800  177.1310  141.8180 C   0  0  0  0  0  2  0  0  0  0  0  0
  185.9260  177.6200  143.3490 C   0  0  0  0  0  2  0  0  0  0  0  0
  188.3600  177.3800  142.6530 C   0  0  1  0  0  3  0  0  0  0  0  0
  186.7700  178.5090  141.2050 N   0  0  0  0  0  0  0  0  0  0  0  0
  187.1770  178.1880  147.4370 C   0  0  0  0  0  0  0  0  0  0  0  0
  186.4120  177.8060  144.7650 C   0  0  0  0  0  0  0  0  0  0  0  0
  185.4500  177.8440  145.7800 C   0  0  0  0  0  3  0  0  0  0  0  0
  189.3790  177.3580  141.4770 C   0  0  0  0  0  2  0  0  0  0  0  0
  190.2370  176.1020  144.0290 C   0  0  2  0  0  3  0  0  0  0  0  0
  191.2130  176.0330  142.8620 C   0  0  0  0  0  2  0  0  0  0  0  0
  184.8100  179.7870  141.4820 O   0  0  0  0  0  0  0  0  0  0  0  0
  185.5210  179.0540  140.7440 C   0  0  0  0  0  0  0  0  0  0  0  0
  184.5730  177.0440  137.1190 C   0  0  0  0  0  0  0  0  0  0  0  0
  186.2240  178.2290  138.5190 C   0  0  0  0  0  2  0  0  0  0  0  0
  182.6800  177.7900  140.6310 Cl  0  0  0  0  0  0  0  0  0  0  0  0
  184.2000  176.4720  135.9500 F   0  0  0  0  0  0  0  0  0  0  0  0
  185.7580  177.6510  137.2120 C   0  0  0  0  0  3  0  0  0  0  0  0
  183.8810  177.7840  139.3470 C   0  0  0  0  0  0  0  0  0  0  0  0
  185.0490  178.7510  139.3590 C   0  0  1  0  0  3  0  0  0  0  0  0
  183.6460  177.0340  138.2650 C   0  0  0  0  0  3  0  0  0  0  0  0
  191.9510  176.5250  145.7490 C   0  0  0  0  0  2  0  0  0  0  0  0
  192.1930  175.7300  147.0190 C   0  0  0  0  0  2  0  0  0  0  0  0
  192.3660  176.5970  148.0990 O   0  0  0  0  0  1  0  0  0  0  0  0
  1 13  1  0  0  0  0
  2  3  1  0  0  0  0
  2  4  1  1  0  0  0
  3  6  1  0  0  0  0
  4  1  2  0  0  0  0
  5 13  2  0  0  0  0
  6 29  1  0  0  0  0
  7 11  1  0  0  0  0
  7 10  1  0  0  0  0
  9 18  1  0  0  0  0
 10 14  1  0  0  0  0
 11  2  1  0  0  0  0
 12  7  2  0  0  0  0
 13  8  1  0  0  0  0
 14  4  1  0  0  0  0
 14 15  2  0  0  0  0
 15  5  1  0  0  0  0
 16  9  1  0  0  0  0
 16 11  1  0  0  0  0
 17  3  1  0  0  0  0
 17  6  1  0  0  0  0
 18 17  1  0  0  0  0
 20 12  1  0  0  0  0
 20 19  2  0  0  0  0
 21 25  2  0  0  0  0
 21 28  1  0  0  0  0
 22 27  1  0  0  0  0
 24 21  1  0  0  0  0
 25 22  1  0  0  0  0
 26 27  1  0  0  0  0
 26 23  1  0  0  0  0
 27 20  1  0  0  0  0
 28 26  2  0  0  0  0
 29 30  1  0  0  0  0
 30 31  1  0  0  0  0
M  END
>  <MODEL>
6

>  <REMARK>
 VINA RESULT:      -8.5      1.912      4.239
  Name = 
  4 active torsions:
  status: ('A' for Active; 'I' for Inactive)
    1  A    between atoms: C_9  and  C_22
    2  A    between atoms: C_9  and  N_23
    3  A    between atoms: C_10  and  C_14
    4  A    between atoms: C_10  and  C_18
                            x       y       z     vdW  Elec       q    Type
                         _______ _______ _______ _____ _____    ______ ____

>  <TORSDO>
F 4

$$$$
=
 OpenBabel11052413033D

 31 35  0  0  1  0  0  0  0  0999 V2000
  186.9040  178.6290  139.1430 C   0  0  0  0  0  3  0  0  0  0  0  0
  186.3050  178.8270  141.5930 C   0  0  2  0  0  3  0  0  0  0  0  0
  184.8920  179.1230  141.2770 N   0  0  1  0  0  0  0  0  0  0  0  0
  187.1530  178.2570  140.4730 C   0  0  0  0  0  0  0  0  0  0  0  0
  188.8450  177.3930  138.4020 C   0  0  0  0  0  3  0  0  0  0  0  0
  184.1300  178.3630  140.2740 C   0  0  1  0  0  3  0  0  0  0  0  0
  187.9300  177.8530  143.2220 C   0  0  0  0  0  0  0  0  0  0  0  0
  187.4410  178.5690  136.7060 C   0  0  0  0  0  1  0  0  0  0  0  0
  184.1930  179.1000  143.8590 C   0  0  0  0  0  2  0  0  0  0  0  0
  188.6960  177.0970  142.1730 C   0  0  0  0  0  2  0  0  0  0  0  0
  186.4820  178.0810  142.9450 C   0  0  1  0  0  3  0  0  0  0  0  0
  188.4720  178.2960  144.3210 N   0  0  0  0  0  0  0  0  0  0  0  0
  187.7340  178.1870  138.1110 C   0  0  0  0  0  0  0  0  0  0  0  0
  188.3120  177.4920  140.7680 C   0  0  0  0  0  0  0  0  0  0  0  0
  189.1320  177.0500  139.7250 C   0  0  0  0  0  3  0  0  0  0  0  0
  185.6250  178.5660  144.1510 C   0  0  0  0  0  2  0  0  0  0  0  0
  184.1720  177.8780  141.6520 C   0  0  2  0  0  3  0  0  0  0  0  0
  183.3290  178.3000  142.8490 C   0  0  0  0  0  2  0  0  0  0  0  0
  190.7210  178.9960  144.3810 O   0  0  0  0  0  0  0  0  0  0  0  0
  189.8440  178.1630  144.7330 C   0  0  0  0  0  0  0  0  0  0  0  0
  191.8730  175.7090  147.5510 C   0  0  0  0  0  0  0  0  0  0  0  0
  191.6800  176.5870  145.2530 C   0  0  0  0  0  2  0  0  0  0  0  0
  188.8120  178.3710  147.6610 Cl  0  0  0  0  0  0  0  0  0  0  0  0
  192.4330  174.8780  148.4620 F   0  0  0  0  0  0  0  0  0  0  0  0
  192.2350  175.6280  146.2690 C   0  0  0  0  0  3  0  0  0  0  0  0
  190.0970  177.3250  147.0750 C   0  0  0  0  0  0  0  0  0  0  0  0
  190.2470  177.0130  145.5990 C   0  0  1  0  0  3  0  0  0  0  0  0
  190.8310  176.6620  147.9750 C   0  0  0  0  0  3  0  0  0  0  0  0
  182.8220  179.0770  139.9750 C   0  0  0  0  0  2  0  0  0  0  0  0
  182.9540  179.9170  138.7180 C   0  0  0  0  0  2  0  0  0  0  0  0
  184.1690  180.6020  138.7270 O   0  0  0  0  0  1  0  0  0  0  0  0
  1  4  1  0  0  0  0
  2  4  1  6  0  0  0
  2 11  1  0  0  0  0
  3  2  1  0  0  0  0
  3 17  1  0  0  0  0
  4 14  2  0  0  0  0
  5 15  2  0  0  0  0
  6  3  1  0  0  0  0
  6 17  1  0  0  0  0
  7 12  2  0  0  0  0
  8 13  1  0  0  0  0
  9 16  1  0  0  0  0
 10  7  1  0  0  0  0
 11  7  1  0  0  0  0
 11 16  1  0  0  0  0
 12 20  1  0  0  0  0
 13  5  1  0  0  0  0
 13  1  2  0  0  0  0
 14 10  1  0  0  0  0
 15 14  1  0  0  0  0
 17 18  1  0  0  0  0
 18  9  1  0  0  0  0
 19 20  2  0  0  0  0
 20 27  1  0  0  0  0
 21 28  1  0  0  0  0
 21 24  1  0  0  0  0
 22 27  1  0  0  0  0
 22 25  1  0  0  0  0
 25 21  2  0  0  0  0
 26 23  1  0  0  0  0
 26 28  2  0  0  0  0
 27 26  1  0  0  0  0
 29  6  1  0  0  0  0
 30 31  1  0  0  0  0
 30 29  1  0  0  0  0
M  END
>  <MODEL>
7

>  <REMARK>
 VINA RESULT:      -8.5      3.986      8.046
  Name = 
  4 active torsions:
  status: ('A' for Active; 'I' for Inactive)
    1  A    between atoms: C_9  and  C_22
    2  A    between atoms: C_9  and  N_23
    3  A    between atoms: C_10  and  C_14
    4  A    between atoms: C_10  and  C_18
                            x       y       z     vdW  Elec       q    Type
                         _______ _______ _______ _____ _____    ______ ____

>  <TORSDO>
F 4

$$$$
=
 OpenBabel11052413033D

 31 35  0  0  1  0  0  0  0  0999 V2000
  189.4470  176.6970  143.8320 C   0  0  0  0  0  3  0  0  0  0  0  0
  187.1300  177.4310  143.1300 C   0  0  2  0  0  3  0  0  0  0  0  0
  186.6380  177.3880  144.5220 N   0  0  1  0  0  0  0  0  0  0  0  0
  188.6330  177.4020  142.9330 C   0  0  0  0  0  0  0  0  0  0  0  0
  191.3930  177.1460  142.4700 C   0  0  0  0  0  3  0  0  0  0  0  0
  187.4020  177.9460  145.6490 C   0  0  1  0  0  3  0  0  0  0  0  0
  186.9240  178.4650  140.8640 C   0  0  0  0  0  0  0  0  0  0  0  0
  191.6720  175.8540  144.5870 C   0  0  0  0  0  1  0  0  0  0  0  0
  184.2570  178.3910  143.8310 C   0  0  0  0  0  2  0  0  0  0  0  0
  188.4060  178.6480  140.6940 C   0  0  0  0  0  2  0  0  0  0  0  0
  186.4120  178.5040  142.2650 C   0  0  1  0  0  3  0  0  0  0  0  0
  186.1090  178.2800  139.8650 N   0  0  0  0  0  0  0  0  0  0  0  0
  190.8210  176.5830  143.6110 C   0  0  0  0  0  0  0  0  0  0  0  0
  189.2120  177.9300  141.7480 C   0  0  0  0  0  0  0  0  0  0  0  0
  190.5910  177.8130  141.5420 C   0  0  0  0  0  3  0  0  0  0  0  0
  184.8700  178.6410  142.4230 C   0  0  0  0  0  2  0  0  0  0  0  0
  186.5010  178.8190  144.9000 C   0  0  2  0  0  3  0  0  0  0  0  0
  184.9970  179.0070  145.0480 C   0  0  0  0  0  2  0  0  0  0  0  0
  185.9550  179.0240  137.6360 O   0  0  0  0  0  0  0  0  0  0  0  0
  186.4420  178.2130  138.4680 C   0  0  0  0  0  0  0  0  0  0  0  0
  188.6040  175.5170  135.9900 C   0  0  0  0  0  0  0  0  0  0  0  0
  186.5950  176.0190  137.3330 C   0  0  0  0  0  2  0  0  0  0  0  0
  189.0670  179.3500  137.2420 Cl  0  0  0  0  0  0  0  0  0  0  0  0
  189.3660  174.6620  135.2680 F   0  0  0  0  0  0  0  0  0  0  0  0
  187.4950  175.0740  136.5870 C   0  0  0  0  0  3  0  0  0  0  0  0
  188.4360  177.7210  137.0410 C   0  0  0  0  0  0  0  0  0  0  0  0
  187.3870  177.1620  137.9830 C   0  0  1  0  0  3  0  0  0  0  0  0
  189.0310  176.9180  136.1530 C   0  0  0  0  0  3  0  0  0  0  0  0
  186.7800  177.4990  146.9630 C   0  0  0  0  0  2  0  0  0  0  0  0
  187.8250  177.4800  148.0620 C   0  0  0  0  0  2  0  0  0  0  0  0
  189.0470  177.9390  147.5680 O   0  0  0  0  0  1  0  0  0  0  0  0
  2  4  1  1  0  0  0
  2  3  1  0  0  0  0
  3 17  1  0  0  0  0
  3  6  1  0  0  0  0
  4  1  2  0  0  0  0
  5 13  2  0  0  0  0
  6 29  1  0  0  0  0
  7 11  1  0  0  0  0
  9 18  1  0  0  0  0
 10  7  1  0  0  0  0
 10 14  1  0  0  0  0
 11 16  1  0  0  0  0
 11  2  1  0  0  0  0
 12  7  2  0  0  0  0
 13  1  1  0  0  0  0
 13  8  1  0  0  0  0
 14  4  1  0  0  0  0
 15 14  2  0  0  0  0
 15  5  1  0  0  0  0
 16  9  1  0  0  0  0
 17 18  1  0  0  0  0
 17  6  1  0  0  0  0
 19 20  2  0  0  0  0
 20 12  1  0  0  0  0
 21 28  1  0  0  0  0
 21 25  2  0  0  0  0
 22 27  1  0  0  0  0
 24 21  1  0  0  0  0
 25 22  1  0  0  0  0
 26 23  1  0  0  0  0
 26 27  1  0  0  0  0
 27 20  1  0  0  0  0
 28 26  2  0  0  0  0
 29 30  1  0  0  0  0
 31 30  1  0  0  0  0
M  END
>  <MODEL>
8

>  <REMARK>
 VINA RESULT:      -8.3      2.378      2.859
  Name = 
  4 active torsions:
  status: ('A' for Active; 'I' for Inactive)
    1  A    between atoms: C_9  and  C_22
    2  A    between atoms: C_9  and  N_23
    3  A    between atoms: C_10  and  C_14
    4  A    between atoms: C_10  and  C_18
                            x       y       z     vdW  Elec       q    Type
                         _______ _______ _______ _____ _____    ______ ____

>  <TORSDO>
F 4

$$$$
=
 OpenBabel11052413033D

 31 35  0  0  1  0  0  0  0  0999 V2000
  189.5590  176.6290  143.5040 C   0  0  0  0  0  3  0  0  0  0  0  0
  187.3890  177.3910  142.4490 C   0  0  2  0  0  3  0  0  0  0  0  0
  186.6820  177.3440  143.7450 N   0  0  1  0  0  0  0  0  0  0  0  0
  188.9040  177.3480  142.4930 C   0  0  0  0  0  0  0  0  0  0  0  0
  191.7010  177.0680  142.4730 C   0  0  0  0  0  3  0  0  0  0  0  0
  187.2610  177.8860  144.9840 C   0  0  1  0  0  3  0  0  0  0  0  0
  187.5560  178.4420  140.1890 C   0  0  0  0  0  0  0  0  0  0  0  0
  191.6280  175.7590  144.5970 C   0  0  0  0  0  1  0  0  0  0  0  0
  184.4490  178.3740  142.6930 C   0  0  0  0  0  2  0  0  0  0  0  0
  189.0470  178.6120  140.2580 C   0  0  0  0  0  2  0  0  0  0  0  0
  186.8270  178.4770  141.4900 C   0  0  1  0  0  3  0  0  0  0  0  0
  186.9080  178.2720  139.0710 N   0  0  0  0  0  0  0  0  0  0  0  0
  190.9490  176.5030  143.5040 C   0  0  0  0  0  0  0  0  0  0  0  0
  189.6690  177.8780  141.4210 C   0  0  0  0  0  0  0  0  0  0  0  0
  191.0620  177.7500  141.4350 C   0  0  0  0  0  3  0  0  0  0  0  0
  185.2810  178.6280  141.4020 C   0  0  0  0  0  2  0  0  0  0  0  0
  186.4990  178.7730  144.1080 C   0  0  2  0  0  3  0  0  0  0  0  0
  184.9920  178.9750  144.0170 C   0  0  0  0  0  2  0  0  0  0  0  0
  187.9250  179.2360  137.1770 O   0  0  0  0  0  0  0  0  0  0  0  0
  187.4580  178.2120  137.7430 C   0  0  0  0  0  0  0  0  0  0  0  0
  187.2980  174.0650  136.8170 C   0  0  0  0  0  0  0  0  0  0  0  0
  188.5950  176.0190  137.5850 C   0  0  0  0  0  2  0  0  0  0  0  0
  184.6340  177.1190  137.0270 Cl  0  0  0  0  0  0  0  0  0  0  0  0
  187.2190  172.7700  136.4300 F   0  0  0  0  0  0  0  0  0  0  0  0
  188.4890  174.6060  137.0840 C   0  0  0  0  0  3  0  0  0  0  0  0
  186.1370  176.2080  137.0410 C   0  0  0  0  0  0  0  0  0  0  0  0
  187.4820  176.9080  137.0130 C   0  0  1  0  0  3  0  0  0  0  0  0
  186.0730  174.8810  136.8920 C   0  0  0  0  0  3  0  0  0  0  0  0
  186.4350  177.4360  146.1780 C   0  0  0  0  0  2  0  0  0  0  0  0
  186.6500  178.3730  147.3520 C   0  0  0  0  0  2  0  0  0  0  0  0
  185.6810  179.3780  147.3450 O   0  0  0  0  0  1  0  0  0  0  0  0
  2  4  1  1  0  0  0
  2  3  1  0  0  0  0
  3 17  1  0  0  0  0
  3  6  1  0  0  0  0
  4  1  2  0  0  0  0
  5 13  2  0  0  0  0
  6 29  1  0  0  0  0
  7 10  1  0  0  0  0
  7 11  1  0  0  0  0
  9 18  1  0  0  0  0
 10 14  1  0  0  0  0
 11  2  1  0  0  0  0
 12  7  2  0  0  0  0
 13  1  1  0  0  0  0
 13  8  1  0  0  0  0
 14 15  2  0  0  0  0
 14  4  1  0  0  0  0
 15  5  1  0  0  0  0
 16 11  1  0  0  0  0
 16  9  1  0  0  0  0
 17  6  1  0  0  0  0
 18 17  1  0  0  0  0
 19 20  2  0  0  0  0
 20 12  1  0  0  0  0
 21 28  1  0  0  0  0
 21 25  2  0  0  0  0
 23 26  1  0  0  0  0
 24 21  1  0  0  0  0
 25 22  1  0  0  0  0
 27 26  1  0  0  0  0
 27 22  1  0  0  0  0
 27 20  1  0  0  0  0
 28 26  2  0  0  0  0
 29 30  1  0  0  0  0
 31 30  1  0  0  0  0
M  END
>  <MODEL>
9

>  <REMARK>
 VINA RESULT:      -8.3      2.500      3.218
  Name = 
  4 active torsions:
  status: ('A' for Active; 'I' for Inactive)
    1  A    between atoms: C_9  and  C_22
    2  A    between atoms: C_9  and  N_23
    3  A    between atoms: C_10  and  C_14
    4  A    between atoms: C_10  and  C_18
                            x       y       z     vdW  Elec       q    Type
                         _______ _______ _______ _____ _____    ______ ____

>  <TORSDO>
F 4

$$$$
