=
 OpenBabel11052412363D

 30 34  0  0  1  0  0  0  0  0999 V2000
  191.5580  175.9860  138.1080 C   0  0  2  0  0  3  0  0  0  0  0  0
  194.0130  176.6590  135.5910 C   0  0  0  0  0  3  0  0  0  0  0  0
  191.2440  173.3910  136.9260 C   0  0  0  0  0  2  0  0  0  0  0  0
  190.5450  176.8670  137.3780 C   0  0  2  0  0  3  0  0  0  0  0  0
  192.0730  176.7510  139.3330 C   0  0  0  0  0  2  0  0  0  0  0  0
  186.9320  178.8860  135.9910 C   0  0  0  0  0  2  0  0  0  0  0  0
  189.7480  177.8280  139.5370 C   0  0  1  0  0  3  0  0  0  0  0  0
  188.8270  175.5490  135.9350 C   0  0  1  0  0  3  0  0  0  0  0  0
  189.0620  174.1250  136.4520 C   0  0  0  0  0  2  0  0  0  0  0  0
  190.9100  177.1270  140.2690 C   0  0  0  0  0  2  0  0  0  0  0  0
  189.3570  176.9740  138.3300 C   0  0  1  0  0  3  0  0  0  0  0  0
  194.1510  175.7890  134.5940 C   0  0  0  0  0  3  0  0  0  0  0  0
  187.7110  176.1620  136.6970 N   0  0  2  0  0  0  0  0  0  0  0  0
  186.7660  177.7310  135.0210 C   0  0  0  0  0  2  0  0  0  0  0  0
  193.8880  176.2250  137.0130 C   0  0  0  0  0  2  0  0  0  0  0  0
  192.4710  174.2150  136.6290 C   0  0  0  0  0  0  0  0  0  0  0  0
  194.1270  174.3230  134.7540 C   0  0  0  0  0  3  0  0  0  0  0  0
  192.6430  175.4200  137.2250 C   0  0  0  0  0  0  0  0  0  0  0  0
  190.7640  176.5660  135.0400 O   0  0  0  0  0  0  0  0  0  0  0  0
  190.2580  173.5330  135.8600 N   0  0  0  0  0  2  0  0  0  0  0  0
  190.1010  176.3420  136.0400 C   0  0  0  0  0  0  0  0  0  0  0  0
  186.5730  176.4410  135.8120 C   0  0  0  0  0  2  0  0  0  0  0  0
  188.1620  178.6420  136.8470 C   0  0  0  0  0  2  0  0  0  0  0  0
  193.4490  173.6260  135.6770 C   0  0  0  0  0  0  0  0  0  0  0  0
  193.5380  172.2750  135.6170 F   0  0  0  0  0  0  0  0  0  0  0  0
  188.0510  177.3030  137.5930 C   0  0  2  0  0  3  0  0  0  0  0  0
  188.5720  177.9860  140.4930 C   0  0  0  0  0  2  0  0  0  0  0  0
  189.0470  178.0920  141.9330 C   0  0  0  0  0  2  0  0  0  0  0  0
  188.1010  177.3460  142.8550 C   0  0  0  0  0  2  0  0  0  0  0  0
  188.7030  176.0040  143.2160 C   0  0  0  0  0  1  0  0  0  0  0  0
  1  5  1  1  0  0  0
  2 15  1  0  0  0  0
  4 21  1  6  0  0  0
  4  1  1  0  0  0  0
  4 11  1  0  0  0  0
  5 10  1  0  0  0  0
  6 23  1  0  0  0  0
  7 10  1  0  0  0  0
  7 27  1  1  0  0  0
  8 21  1  0  0  0  0
  8  9  1  1  0  0  0
  8 13  1  0  0  0  0
 11  7  1  0  0  0  0
 12 17  1  0  0  0  0
 12  2  2  0  0  0  0
 13 26  1  0  0  0  0
 14 22  1  0  0  0  0
 14  6  1  0  0  0  0
 15 18  1  0  0  0  0
 16  3  1  0  0  0  0
 16 18  2  0  0  0  0
 17 24  2  0  0  0  0
 18  1  1  0  0  0  0
 19 21  2  0  0  0  0
 20  9  1  0  0  0  0
 20  3  1  0  0  0  0
 22 13  1  0  0  0  0
 23 26  1  0  0  0  0
 24 16  1  0  0  0  0
 25 24  1  0  0  0  0
 26 11  1  0  0  0  0
 27 28  1  0  0  0  0
 28 29  1  0  0  0  0
 29 30  1  0  0  0  0
M  END
>  <MODEL>
1

>  <REMARK>
 VINA RESULT:      -6.0      0.000      0.000
  Name = 
  3 active torsions:
  status: ('A' for Active; 'I' for Inactive)
    1  A    between atoms: C_6  and  C_8
    2  A    between atoms: C_6  and  C_21
    3  A    between atoms: C_9  and  C_21
                            x       y       z     vdW  Elec       q    Type
                         _______ _______ _______ _____ _____    ______ ____

>  <TORSDO>
F 3

$$$$
=
 OpenBabel11052412363D

 30 34  0  0  1  0  0  0  0  0999 V2000
  184.4210  177.8430  137.7940 C   0  0  2  0  0  3  0  0  0  0  0  0
  183.5150  178.1810  141.2400 C   0  0  0  0  0  3  0  0  0  0  0  0
  181.7590  178.6890  137.1430 C   0  0  0  0  0  2  0  0  0  0  0  0
  184.3270  176.3220  137.9020 C   0  0  2  0  0  3  0  0  0  0  0  0
  185.9030  178.2370  137.7670 C   0  0  0  0  0  2  0  0  0  0  0  0
  184.0900  172.0390  137.0920 C   0  0  0  0  0  2  0  0  0  0  0  0
  186.3790  176.0450  136.5120 C   0  0  1  0  0  3  0  0  0  0  0  0
  182.1050  175.3220  136.9880 C   0  0  1  0  0  3  0  0  0  0  0  0
  181.5430  176.5330  136.2330 C   0  0  0  0  0  2  0  0  0  0  0  0
  186.6230  177.5660  136.5830 C   0  0  0  0  0  2  0  0  0  0  0  0
  184.8710  175.7980  136.5750 C   0  0  1  0  0  3  0  0  0  0  0  0
  182.2370  178.3990  141.5400 C   0  0  0  0  0  3  0  0  0  0  0  0
  182.8710  174.4750  136.0410 N   0  0  2  0  0  0  0  0  0  0  0  0
  182.5850  172.2220  137.0430 C   0  0  0  0  0  2  0  0  0  0  0  0
  184.2090  178.9100  140.1400 C   0  0  0  0  0  2  0  0  0  0  0  0
  182.3220  178.9490  138.5180 C   0  0  0  0  0  0  0  0  0  0  0  0
  181.3480  179.3110  140.7960 C   0  0  0  0  0  3  0  0  0  0  0  0
  183.5960  178.5930  138.8110 C   0  0  0  0  0  0  0  0  0  0  0  0
  182.4970  175.7320  139.2830 O   0  0  0  0  0  0  0  0  0  0  0  0
  180.9260  177.4910  137.1460 N   0  0  0  0  0  2  0  0  0  0  0  0
  182.9410  175.7920  138.1470 C   0  0  0  0  0  0  0  0  0  0  0  0
  182.2350  173.1600  135.8920 C   0  0  0  0  0  2  0  0  0  0  0  0
  184.7460  173.3860  137.3360 C   0  0  0  0  0  2  0  0  0  0  0  0
  181.4120  179.6090  139.4910 C   0  0  0  0  0  0  0  0  0  0  0  0
  180.4640  180.4480  139.0030 F   0  0  0  0  0  0  0  0  0  0  0  0
  184.3450  174.3940  136.2470 C   0  0  2  0  0  3  0  0  0  0  0  0
  186.9630  175.5010  135.2140 C   0  0  0  0  0  2  0  0  0  0  0  0
  188.3030  174.8250  135.4560 C   0  0  0  0  0  2  0  0  0  0  0  0
  188.3670  174.2780  136.8700 C   0  0  0  0  0  2  0  0  0  0  0  0
  188.3290  172.7650  136.8280 C   0  0  0  0  0  1  0  0  0  0  0  0
  1  5  1  1  0  0  0
  1  4  1  0  0  0  0
  1 18  1  0  0  0  0
  2 12  2  0  0  0  0
  3 20  1  0  0  0  0
  3 16  1  0  0  0  0
  4 21  1  6  0  0  0
  6 23  1  0  0  0  0
  7 27  1  6  0  0  0
  7 11  1  0  0  0  0
  7 10  1  0  0  0  0
  8  9  1  6  0  0  0
  8 21  1  0  0  0  0
  9 20  1  0  0  0  0
 10  5  1  0  0  0  0
 11  4  1  0  0  0  0
 13 26  1  0  0  0  0
 13  8  1  0  0  0  0
 14  6  1  0  0  0  0
 15  2  1  0  0  0  0
 16 18  2  0  0  0  0
 16 24  1  0  0  0  0
 17 12  1  0  0  0  0
 18 15  1  0  0  0  0
 21 19  2  0  0  0  0
 22 13  1  0  0  0  0
 22 14  1  0  0  0  0
 24 17  2  0  0  0  0
 25 24  1  0  0  0  0
 26 11  1  0  0  0  0
 26 23  1  0  0  0  0
 27 28  1  0  0  0  0
 28 29  1  0  0  0  0
 30 29  1  0  0  0  0
M  END
>  <MODEL>
2

>  <REMARK>
 VINA RESULT:      -5.5      5.430      9.038
  Name = 
  3 active torsions:
  status: ('A' for Active; 'I' for Inactive)
    1  A    between atoms: C_6  and  C_8
    2  A    between atoms: C_6  and  C_21
    3  A    between atoms: C_9  and  C_21
                            x       y       z     vdW  Elec       q    Type
                         _______ _______ _______ _____ _____    ______ ____

>  <TORSDO>
F 3

$$$$
=
 OpenBabel11052412363D

 30 34  0  0  1  0  0  0  0  0999 V2000
  182.3210  177.8310  136.5230 C   0  0  2  0  0  3  0  0  0  0  0  0
  181.5200  174.3420  136.5300 C   0  0  0  0  0  3  0  0  0  0  0  0
  185.0430  177.0750  136.0310 C   0  0  0  0  0  2  0  0  0  0  0  0
  182.2030  177.8770  138.0460 C   0  0  2  0  0  3  0  0  0  0  0  0
  181.0740  178.4890  135.9200 C   0  0  0  0  0  2  0  0  0  0  0  0
  182.3710  179.0000  142.2610 C   0  0  0  0  0  2  0  0  0  0  0  0
  181.0340  180.0780  137.9400 C   0  0  1  0  0  3  0  0  0  0  0  0
  184.4820  177.7790  139.2970 C   0  0  1  0  0  3  0  0  0  0  0  0
  185.4490  178.0380  138.1360 C   0  0  0  0  0  2  0  0  0  0  0  0
  180.9360  179.9430  136.4070 C   0  0  0  0  0  2  0  0  0  0  0  0
  182.3010  179.3580  138.4050 C   0  0  1  0  0  3  0  0  0  0  0  0
  182.5200  173.4640  136.5170 C   0  0  0  0  0  3  0  0  0  0  0  0
  184.1750  179.0680  139.9660 N   0  0  2  0  0  0  0  0  0  0  0  0
  183.7310  178.3280  142.2930 C   0  0  0  0  0  2  0  0  0  0  0  0
  181.5040  175.5410  135.6430 C   0  0  0  0  0  2  0  0  0  0  0  0
  183.9270  176.0940  135.7770 C   0  0  0  0  0  0  0  0  0  0  0  0
  183.7400  173.5980  135.6980 C   0  0  0  0  0  3  0  0  0  0  0  0
  182.6370  176.4660  135.9630 C   0  0  0  0  0  0  0  0  0  0  0  0
  183.0950  175.8920  138.9770 O   0  0  0  0  0  0  0  0  0  0  0  0
  185.6530  176.8350  137.3340 N   0  0  0  0  0  2  0  0  0  0  0  0
  183.2490  177.0880  138.7840 C   0  0  0  0  0  0  0  0  0  0  0  0
  184.6730  179.0650  141.3470 C   0  0  0  0  0  2  0  0  0  0  0  0
  181.8140  178.9230  140.8510 C   0  0  0  0  0  2  0  0  0  0  0  0
  184.3290  174.7390  135.3150 C   0  0  0  0  0  0  0  0  0  0  0  0
  185.4720  174.6300  134.5940 F   0  0  0  0  0  0  0  0  0  0  0  0
  182.7790  179.5750  139.8460 C   0  0  2  0  0  3  0  0  0  0  0  0
  181.0810  181.5540  138.3140 C   0  0  0  0  0  2  0  0  0  0  0  0
  180.6670  182.4300  137.1430 C   0  0  0  0  0  2  0  0  0  0  0  0
  181.1720  183.8470  137.3410 C   0  0  0  0  0  2  0  0  0  0  0  0
  181.0390  184.6160  136.0430 C   0  0  0  0  0  1  0  0  0  0  0  0
  1  5  1  6  0  0  0
  1  4  1  0  0  0  0
  3 20  1  0  0  0  0
  4 11  1  0  0  0  0
  4 21  1  1  0  0  0
  5 10  1  0  0  0  0
  6 14  1  0  0  0  0
  7 27  1  6  0  0  0
  7 11  1  0  0  0  0
  8  9  1  6  0  0  0
  8 13  1  0  0  0  0
 10  7  1  0  0  0  0
 11 26  1  0  0  0  0
 12  2  2  0  0  0  0
 13 22  1  0  0  0  0
 15 18  1  0  0  0  0
 15  2  1  0  0  0  0
 16 18  2  0  0  0  0
 16  3  1  0  0  0  0
 17 12  1  0  0  0  0
 18  1  1  0  0  0  0
 20  9  1  0  0  0  0
 21 19  2  0  0  0  0
 21  8  1  0  0  0  0
 22 14  1  0  0  0  0
 23  6  1  0  0  0  0
 24 17  2  0  0  0  0
 24 16  1  0  0  0  0
 25 24  1  0  0  0  0
 26 13  1  0  0  0  0
 26 23  1  0  0  0  0
 28 29  1  0  0  0  0
 28 27  1  0  0  0  0
 30 29  1  0  0  0  0
M  END
>  <MODEL>
3

>  <REMARK>
 VINA RESULT:      -5.4      6.183      9.185
  Name = 
  3 active torsions:
  status: ('A' for Active; 'I' for Inactive)
    1  A    between atoms: C_6  and  C_8
    2  A    between atoms: C_6  and  C_21
    3  A    between atoms: C_9  and  C_21
                            x       y       z     vdW  Elec       q    Type
                         _______ _______ _______ _____ _____    ______ ____

>  <TORSDO>
F 3

$$$$
=
 OpenBabel11052412363D

 30 34  0  0  1  0  0  0  0  0999 V2000
  187.3570  177.4860  138.9480 C   0  0  2  0  0  3  0  0  0  0  0  0
  189.0490  178.6280  136.0070 C   0  0  0  0  0  3  0  0  0  0  0  0
  186.9570  174.9900  137.5930 C   0  0  0  0  0  2  0  0  0  0  0  0
  186.1300  178.3230  138.5860 C   0  0  2  0  0  3  0  0  0  0  0  0
  188.1020  178.1860  140.0910 C   0  0  0  0  0  2  0  0  0  0  0  0
  182.1440  180.0830  138.3430 C   0  0  0  0  0  2  0  0  0  0  0  0
  185.8270  179.0000  140.9670 C   0  0  1  0  0  3  0  0  0  0  0  0
  184.2120  176.9730  137.4600 C   0  0  1  0  0  3  0  0  0  0  0  0
  184.6760  175.5390  137.7430 C   0  0  0  0  0  2  0  0  0  0  0  0
  187.1840  178.3560  141.3160 C   0  0  0  0  0  2  0  0  0  0  0  0
  185.2130  178.2230  139.8020 C   0  0  1  0  0  3  0  0  0  0  0  0
  189.0000  177.8700  134.9150 C   0  0  0  0  0  3  0  0  0  0  0  0
  183.2780  177.3990  138.5310 N   0  0  2  0  0  0  0  0  0  0  0  0
  181.8300  179.0090  137.3190 C   0  0  0  0  0  2  0  0  0  0  0  0
  189.3160  178.0580  137.3590 C   0  0  0  0  0  2  0  0  0  0  0  0
  188.0050  175.9570  137.1050 C   0  0  0  0  0  0  0  0  0  0  0  0
  189.1280  176.4000  134.9110 C   0  0  0  0  0  3  0  0  0  0  0  0
  188.2280  177.1150  137.7730 C   0  0  0  0  0  0  0  0  0  0  0  0
  185.7820  178.2570  136.2450 O   0  0  0  0  0  0  0  0  0  0  0  0
  185.7280  175.1270  136.8180 N   0  0  0  0  0  2  0  0  0  0  0  0
  185.4080  177.8780  137.3440 C   0  0  0  0  0  0  0  0  0  0  0  0
  181.9380  177.6400  137.9830 C   0  0  0  0  0  2  0  0  0  0  0  0
  183.5630  179.8880  138.8460 C   0  0  0  0  0  2  0  0  0  0  0  0
  188.7560  175.5580  135.8860 C   0  0  0  0  0  0  0  0  0  0  0  0
  188.9300  174.2330  135.6550 F   0  0  0  0  0  0  0  0  0  0  0  0
  183.7440  178.4830  139.4420 C   0  0  2  0  0  3  0  0  0  0  0  0
  184.9180  178.9520  142.1890 C   0  0  0  0  0  2  0  0  0  0  0  0
  185.6010  178.2530  143.3530 C   0  0  0  0  0  2  0  0  0  0  0  0
  184.9310  178.6310  144.6610 C   0  0  0  0  0  2  0  0  0  0  0  0
  183.4870  179.0020  144.3980 C   0  0  0  0  0  1  0  0  0  0  0  0
  1  5  1  1  0  0  0
  2 15  1  0  0  0  0
  4 21  1  6  0  0  0
  4  1  1  0  0  0  0
  4 11  1  0  0  0  0
  5 10  1  0  0  0  0
  6 23  1  0  0  0  0
  7 10  1  0  0  0  0
  7 27  1  1  0  0  0
  8  9  1  1  0  0  0
  8 13  1  0  0  0  0
 11  7  1  0  0  0  0
 12  2  2  0  0  0  0
 13 26  1  0  0  0  0
 14 22  1  0  0  0  0
 14  6  1  0  0  0  0
 15 18  1  0  0  0  0
 16  3  1  0  0  0  0
 16 18  2  0  0  0  0
 17 12  1  0  0  0  0
 17 24  2  0  0  0  0
 18  1  1  0  0  0  0
 19 21  2  0  0  0  0
 20  3  1  0  0  0  0
 20  9  1  0  0  0  0
 21  8  1  0  0  0  0
 22 13  1  0  0  0  0
 23 26  1  0  0  0  0
 24 16  1  0  0  0  0
 25 24  1  0  0  0  0
 26 11  1  0  0  0  0
 27 28  1  0  0  0  0
 28 29  1  0  0  0  0
 30 29  1  0  0  0  0
M  END
>  <MODEL>
4

>  <REMARK>
 VINA RESULT:      -5.3      3.392      4.914
  Name = 
  3 active torsions:
  status: ('A' for Active; 'I' for Inactive)
    1  A    between atoms: C_6  and  C_8
    2  A    between atoms: C_6  and  C_21
    3  A    between atoms: C_9  and  C_21
                            x       y       z     vdW  Elec       q    Type
                         _______ _______ _______ _____ _____    ______ ____

>  <TORSDO>
F 3

$$$$
=
 OpenBabel11052412363D

 30 34  0  0  1  0  0  0  0  0999 V2000
  183.1590  177.5360  136.2500 C   0  0  2  0  0  3  0  0  0  0  0  0
  184.1390  174.0990  136.4430 C   0  0  0  0  0  3  0  0  0  0  0  0
  185.6130  178.1780  137.5890 C   0  0  0  0  0  2  0  0  0  0  0  0
  182.1480  177.3280  137.3760 C   0  0  2  0  0  3  0  0  0  0  0  0
  182.3960  177.6230  134.9220 C   0  0  0  0  0  2  0  0  0  0  0  0
  179.2470  177.8530  140.5950 C   0  0  0  0  0  2  0  0  0  0  0  0
  180.4670  178.7440  136.1970 C   0  0  1  0  0  3  0  0  0  0  0  0
  182.9720  178.1240  139.7120 C   0  0  1  0  0  3  0  0  0  0  0  0
  184.2040  178.9420  139.3100 C   0  0  0  0  0  2  0  0  0  0  0  0
  181.3770  178.7780  134.9540 C   0  0  0  0  0  2  0  0  0  0  0  0
  181.3530  178.6300  137.4390 C   0  0  1  0  0  3  0  0  0  0  0  0
  185.2010  173.7840  137.1810 C   0  0  0  0  0  3  0  0  0  0  0  0
  181.8030  179.0310  139.8200 N   0  0  2  0  0  0  0  0  0  0  0  0
  180.4340  177.8790  141.5400 C   0  0  0  0  0  2  0  0  0  0  0  0
  184.1360  175.2600  135.5070 C   0  0  0  0  0  2  0  0  0  0  0  0
  185.4420  176.8370  136.9220 C   0  0  0  0  0  0  0  0  0  0  0  0
  186.4520  174.5650  137.2190 C   0  0  0  0  0  3  0  0  0  0  0  0
  184.3030  176.5510  136.2470 C   0  0  0  0  0  0  0  0  0  0  0  0
  183.0560  175.8690  139.0040 O   0  0  0  0  0  0  0  0  0  0  0  0
  185.3460  178.0790  139.0200 N   0  0  0  0  0  2  0  0  0  0  0  0
  182.7530  177.0170  138.7170 C   0  0  0  0  0  0  0  0  0  0  0  0
  181.3120  179.0790  141.2020 C   0  0  0  0  0  2  0  0  0  0  0  0
  179.7510  177.7120  139.1700 C   0  0  0  0  0  2  0  0  0  0  0  0
  186.5800  175.8880  137.0450 C   0  0  0  0  0  0  0  0  0  0  0  0
  187.8270  176.4070  137.1620 F   0  0  0  0  0  0  0  0  0  0  0  0
  180.7160  178.8550  138.8160 C   0  0  2  0  0  3  0  0  0  0  0  0
  179.6310  180.0170  136.2440 C   0  0  0  0  0  2  0  0  0  0  0  0
  180.4680  181.2360  135.8920 C   0  0  0  0  0  2  0  0  0  0  0  0
  180.1640  182.3760  136.8450 C   0  0  0  0  0  2  0  0  0  0  0  0
  181.1810  182.3780  137.9690 C   0  0  0  0  0  1  0  0  0  0  0  0
  1  5  1  6  0  0  0
  1  4  1  0  0  0  0
  2 12  2  0  0  0  0
  3 20  1  0  0  0  0
  4 11  1  0  0  0  0
  4 21  1  1  0  0  0
  5 10  1  0  0  0  0
  6 14  1  0  0  0  0
  7 27  1  1  0  0  0
  7 11  1  0  0  0  0
  8  9  1  6  0  0  0
  8 13  1  0  0  0  0
 10  7  1  0  0  0  0
 11 26  1  0  0  0  0
 12 17  1  0  0  0  0
 13 22  1  0  0  0  0
 15 18  1  0  0  0  0
 15  2  1  0  0  0  0
 16 24  1  0  0  0  0
 16  3  1  0  0  0  0
 18  1  1  0  0  0  0
 18 16  2  0  0  0  0
 20  9  1  0  0  0  0
 21 19  2  0  0  0  0
 21  8  1  0  0  0  0
 22 14  1  0  0  0  0
 23  6  1  0  0  0  0
 24 25  1  0  0  0  0
 24 17  2  0  0  0  0
 26 23  1  0  0  0  0
 26 13  1  0  0  0  0
 28 27  1  0  0  0  0
 28 29  1  0  0  0  0
 29 30  1  0  0  0  0
M  END
>  <MODEL>
5

>  <REMARK>
 VINA RESULT:      -5.0      5.729      8.917
  Name = 
  3 active torsions:
  status: ('A' for Active; 'I' for Inactive)
    1  A    between atoms: C_6  and  C_8
    2  A    between atoms: C_6  and  C_21
    3  A    between atoms: C_9  and  C_21
                            x       y       z     vdW  Elec       q    Type
                         _______ _______ _______ _____ _____    ______ ____

>  <TORSDO>
F 3

$$$$
=
 OpenBabel11052412363D

 30 34  0  0  1  0  0  0  0  0999 V2000
  182.1870  179.7590  138.7580 C   0  0  2  0  0  3  0  0  0  0  0  0
  180.6210  182.8430  137.8370 C   0  0  0  0  0  3  0  0  0  0  0  0
  180.1380  178.4200  137.2630 C   0  0  0  0  0  2  0  0  0  0  0  0
  181.6190  179.8750  140.1720 C   0  0  2  0  0  3  0  0  0  0  0  0
  183.6790  180.1080  138.8040 C   0  0  0  0  0  2  0  0  0  0  0  0
  180.3170  179.1340  144.2710 C   0  0  0  0  0  2  0  0  0  0  0  0
  183.7670  179.0720  141.1540 C   0  0  1  0  0  3  0  0  0  0  0  0
  179.4890  178.4390  140.5880 C   0  0  1  0  0  3  0  0  0  0  0  0
  179.5140  177.5370  139.3500 C   0  0  0  0  0  2  0  0  0  0  0  0
  184.4300  179.1680  139.7650 C   0  0  0  0  0  2  0  0  0  0  0  0
  182.2850  178.7480  140.9570 C   0  0  1  0  0  3  0  0  0  0  0  0
  179.4330  182.7960  137.2380 C   0  0  0  0  0  3  0  0  0  0  0  0
  180.1720  177.7440  141.7070 N   0  0  2  0  0  0  0  0  0  0  0  0
  178.9930  178.6910  143.6760 C   0  0  0  0  0  2  0  0  0  0  0  0
  181.7450  181.9440  137.4460 C   0  0  0  0  0  2  0  0  0  0  0  0
  180.4040  179.8870  137.0370 C   0  0  0  0  0  0  0  0  0  0  0  0
  179.0640  181.8250  136.1900 C   0  0  0  0  0  3  0  0  0  0  0  0
  181.4040  180.5090  137.7080 C   0  0  0  0  0  0  0  0  0  0  0  0
  179.4210  180.7470  140.0800 O   0  0  0  0  0  0  0  0  0  0  0  0
  179.0110  178.2340  138.1700 N   0  0  0  0  0  2  0  0  0  0  0  0
  180.1220  179.7640  140.2610 C   0  0  0  0  0  0  0  0  0  0  0  0
  179.2280  177.4670  142.7970 C   0  0  0  0  0  2  0  0  0  0  0  0
  181.2660  179.5070  143.1470 C   0  0  0  0  0  2  0  0  0  0  0  0
  179.5270  180.5740  136.0530 C   0  0  0  0  0  0  0  0  0  0  0  0
  179.0200  179.8380  135.0350 F   0  0  0  0  0  0  0  0  0  0  0  0
  181.4600  178.3270  142.1800 C   0  0  2  0  0  3  0  0  0  0  0  0
  184.4570  177.9840  141.9670 C   0  0  0  0  0  2  0  0  0  0  0  0
  185.4290  178.5820  142.9700 C   0  0  0  0  0  2  0  0  0  0  0  0
  184.7150  179.5730  143.8690 C   0  0  0  0  0  2  0  0  0  0  0  0
  184.3230  178.8890  145.1630 C   0  0  0  0  0  1  0  0  0  0  0  0
  1  5  1  1  0  0  0
  1  4  1  0  0  0  0
  3 20  1  0  0  0  0
  4 21  1  6  0  0  0
  4 11  1  0  0  0  0
  5 10  1  0  0  0  0
  7 27  1  1  0  0  0
  8  9  1  6  0  0  0
  8 13  1  0  0  0  0
 10  7  1  0  0  0  0
 11  7  1  0  0  0  0
 11 26  1  0  0  0  0
 12  2  2  0  0  0  0
 13 26  1  0  0  0  0
 13 22  1  0  0  0  0
 14  6  1  0  0  0  0
 15 18  1  0  0  0  0
 15  2  1  0  0  0  0
 16  3  1  0  0  0  0
 16 18  2  0  0  0  0
 17 12  1  0  0  0  0
 18  1  1  0  0  0  0
 19 21  2  0  0  0  0
 20  9  1  0  0  0  0
 21  8  1  0  0  0  0
 22 14  1  0  0  0  0
 23  6  1  0  0  0  0
 24 17  2  0  0  0  0
 24 16  1  0  0  0  0
 25 24  1  0  0  0  0
 26 23  1  0  0  0  0
 27 28  1  0  0  0  0
 28 29  1  0  0  0  0
 29 30  1  0  0  0  0
M  END
>  <MODEL>
6

>  <REMARK>
 VINA RESULT:      -4.7      8.537     11.156
  Name = 
  3 active torsions:
  status: ('A' for Active; 'I' for Inactive)
    1  A    between atoms: C_6  and  C_8
    2  A    between atoms: C_6  and  C_21
    3  A    between atoms: C_9  and  C_21
                            x       y       z     vdW  Elec       q    Type
                         _______ _______ _______ _____ _____    ______ ____

>  <TORSDO>
F 3

$$$$
=
 OpenBabel11052412363D

 30 34  0  0  1  0  0  0  0  0999 V2000
  184.4940  177.4810  138.1010 C   0  0  2  0  0  3  0  0  0  0  0  0
  186.7920  177.8800  135.3860 C   0  0  0  0  0  3  0  0  0  0  0  0
  184.4980  174.6720  137.5230 C   0  0  0  0  0  2  0  0  0  0  0  0
  183.3610  178.0490  137.2460 C   0  0  2  0  0  3  0  0  0  0  0  0
  184.9280  178.5550  139.1060 C   0  0  0  0  0  2  0  0  0  0  0  0
  179.4910  179.2550  135.6280 C   0  0  0  0  0  2  0  0  0  0  0  0
  182.4880  179.3570  139.1820 C   0  0  1  0  0  3  0  0  0  0  0  0
  181.8020  176.2450  136.2050 C   0  0  1  0  0  3  0  0  0  0  0  0
  182.2300  175.0100  137.0050 C   0  0  0  0  0  2  0  0  0  0  0  0
  183.7440  178.9820  139.9930 C   0  0  0  0  0  2  0  0  0  0  0  0
  182.1870  178.2170  138.2080 C   0  0  1  0  0  3  0  0  0  0  0  0
  187.0230  176.8360  134.5940 C   0  0  0  0  0  3  0  0  0  0  0  0
  180.6300  176.8690  136.8680 N   0  0  2  0  0  0  0  0  0  0  0  0
  179.4580  177.9030  134.9400 C   0  0  0  0  0  2  0  0  0  0  0  0
  186.7520  177.7580  136.8710 C   0  0  0  0  0  2  0  0  0  0  0  0
  185.6010  175.5550  136.9980 C   0  0  0  0  0  0  0  0  0  0  0  0
  187.1930  175.4490  135.0680 C   0  0  0  0  0  3  0  0  0  0  0  0
  185.6270  176.8730  137.3110 C   0  0  0  0  0  0  0  0  0  0  0  0
  183.5730  177.2710  135.0210 O   0  0  0  0  0  0  0  0  0  0  0  0
  183.4810  174.4540  136.4990 N   0  0  0  0  0  2  0  0  0  0  0  0
  182.9640  177.1920  136.0760 C   0  0  0  0  0  0  0  0  0  0  0  0
  179.4490  176.8050  135.9980 C   0  0  0  0  0  2  0  0  0  0  0  0
  180.7580  179.3580  136.4570 C   0  0  0  0  0  2  0  0  0  0  0  0
  186.6290  174.8950  136.1500 C   0  0  0  0  0  0  0  0  0  0  0  0
  186.8920  173.5850  136.3790 F   0  0  0  0  0  0  0  0  0  0  0  0
  180.8360  178.2120  137.4800 C   0  0  2  0  0  3  0  0  0  0  0  0
  181.3200  179.5760  140.1360 C   0  0  0  0  0  2  0  0  0  0  0  0
  181.3300  178.5530  141.2600 C   0  0  0  0  0  2  0  0  0  0  0  0
  181.1220  179.2380  142.5970 C   0  0  0  0  0  2  0  0  0  0  0  0
  182.3210  178.9820  143.4870 C   0  0  0  0  0  1  0  0  0  0  0  0
  1  5  1  6  0  0  0
  2 15  1  0  0  0  0
  4 21  1  6  0  0  0
  4  1  1  0  0  0  0
  4 11  1  0  0  0  0
  5 10  1  0  0  0  0
  6 23  1  0  0  0  0
  7 10  1  0  0  0  0
  7 27  1  1  0  0  0
  8 13  1  0  0  0  0
  8  9  1  1  0  0  0
 11  7  1  0  0  0  0
 12 17  1  0  0  0  0
 12  2  2  0  0  0  0
 13 26  1  0  0  0  0
 14  6  1  0  0  0  0
 14 22  1  0  0  0  0
 15 18  1  0  0  0  0
 16 18  2  0  0  0  0
 16  3  1  0  0  0  0
 17 24  2  0  0  0  0
 18  1  1  0  0  0  0
 19 21  2  0  0  0  0
 20  9  1  0  0  0  0
 20  3  1  0  0  0  0
 21  8  1  0  0  0  0
 22 13  1  0  0  0  0
 23 26  1  0  0  0  0
 24 25  1  0  0  0  0
 24 16  1  0  0  0  0
 26 11  1  0  0  0  0
 27 28  1  0  0  0  0
 28 29  1  0  0  0  0
 29 30  1  0  0  0  0
M  END
>  <MODEL>
7

>  <REMARK>
 VINA RESULT:      -4.7      5.166      7.209
  Name = 
  3 active torsions:
  status: ('A' for Active; 'I' for Inactive)
    1  A    between atoms: C_6  and  C_8
    2  A    between atoms: C_6  and  C_21
    3  A    between atoms: C_9  and  C_21
                            x       y       z     vdW  Elec       q    Type
                         _______ _______ _______ _____ _____    ______ ____

>  <TORSDO>
F 3

$$$$
=
 OpenBabel11052412363D

 30 34  0  0  1  0  0  0  0  0999 V2000
  183.4750  178.0320  137.9840 C   0  0  2  0  0  3  0  0  0  0  0  0
  181.3630  177.9810  140.8730 C   0  0  0  0  0  3  0  0  0  0  0  0
  181.1090  178.4590  136.4200 C   0  0  0  0  0  2  0  0  0  0  0  0
  183.6260  176.5130  138.0480 C   0  0  2  0  0  3  0  0  0  0  0  0
  184.7730  178.6700  138.4930 C   0  0  0  0  0  2  0  0  0  0  0  0
  184.4710  172.3150  137.2000 C   0  0  0  0  0  2  0  0  0  0  0  0
  186.0510  176.6790  137.4900 C   0  0  1  0  0  3  0  0  0  0  0  0
  182.0920  175.2170  136.3930 C   0  0  1  0  0  3  0  0  0  0  0  0
  181.6240  176.3630  135.4900 C   0  0  0  0  0  2  0  0  0  0  0  0
  185.9750  178.2110  137.6470 C   0  0  0  0  0  2  0  0  0  0  0  0
  184.6890  176.1770  137.0060 C   0  0  1  0  0  3  0  0  0  0  0  0
  180.0450  177.9600  140.6930 C   0  0  0  0  0  3  0  0  0  0  0  0
  183.2830  174.5760  135.7850 N   0  0  2  0  0  0  0  0  0  0  0  0
  183.0740  172.2450  136.6130 C   0  0  0  0  0  2  0  0  0  0  0  0
  182.2570  178.8890  140.0980 C   0  0  0  0  0  2  0  0  0  0  0  0
  181.0920  178.7170  137.9050 C   0  0  0  0  0  0  0  0  0  0  0  0
  179.3270  178.7580  139.6810 C   0  0  0  0  0  3  0  0  0  0  0  0
  182.2220  178.5630  138.6370 C   0  0  0  0  0  0  0  0  0  0  0  0
  181.5650  175.5320  138.6770 O   0  0  0  0  0  0  0  0  0  0  0  0
  180.5620  177.1410  136.1200 N   0  0  0  0  0  2  0  0  0  0  0  0
  182.3630  175.7420  137.7770 C   0  0  0  0  0  0  0  0  0  0  0  0
  182.9910  173.1860  135.4150 C   0  0  0  0  0  2  0  0  0  0  0  0
  184.7420  173.7340  137.6660 C   0  0  0  0  0  2  0  0  0  0  0  0
  179.7940  179.1490  138.4860 C   0  0  0  0  0  0  0  0  0  0  0  0
  178.9450  179.8460  137.6920 F   0  0  0  0  0  0  0  0  0  0  0  0
  184.5780  174.7310  136.5070 C   0  0  2  0  0  3  0  0  0  0  0  0
  187.1450  176.3290  136.4890 C   0  0  0  0  0  2  0  0  0  0  0  0
  188.4170  175.8900  137.1960 C   0  0  0  0  0  2  0  0  0  0  0  0
  189.4660  176.9830  137.1180 C   0  0  0  0  0  2  0  0  0  0  0  0
  190.5340  176.7320  138.1620 C   0  0  0  0  0  1  0  0  0  0  0  0
  1  4  1  0  0  0  0
  1  5  1  1  0  0  0
  1 18  1  0  0  0  0
  3 16  1  0  0  0  0
  4 21  1  6  0  0  0
  6 23  1  0  0  0  0
  7 27  1  6  0  0  0
  7 10  1  0  0  0  0
  8  9  1  6  0  0  0
  8 21  1  0  0  0  0
  9 20  1  0  0  0  0
 10  5  1  0  0  0  0
 11  7  1  0  0  0  0
 11  4  1  0  0  0  0
 12  2  2  0  0  0  0
 13  8  1  0  0  0  0
 13 26  1  0  0  0  0
 14  6  1  0  0  0  0
 15  2  1  0  0  0  0
 16 24  1  0  0  0  0
 16 18  2  0  0  0  0
 17 12  1  0  0  0  0
 18 15  1  0  0  0  0
 20  3  1  0  0  0  0
 21 19  2  0  0  0  0
 22 13  1  0  0  0  0
 22 14  1  0  0  0  0
 24 17  2  0  0  0  0
 25 24  1  0  0  0  0
 26 11  1  0  0  0  0
 26 23  1  0  0  0  0
 27 28  1  0  0  0  0
 29 28  1  0  0  0  0
 29 30  1  0  0  0  0
M  END
>  <MODEL>
8

>  <REMARK>
 VINA RESULT:      -4.7      5.950      9.462
  Name = 
  3 active torsions:
  status: ('A' for Active; 'I' for Inactive)
    1  A    between atoms: C_6  and  C_8
    2  A    between atoms: C_6  and  C_21
    3  A    between atoms: C_9  and  C_21
                            x       y       z     vdW  Elec       q    Type
                         _______ _______ _______ _____ _____    ______ ____

>  <TORSDO>
F 3

$$$$
=
 OpenBabel11052412363D

 30 34  0  0  1  0  0  0  0  0999 V2000
  191.1820  175.8880  135.5590 C   0  0  2  0  0  3  0  0  0  0  0  0
  191.5400  172.3270  135.5050 C   0  0  0  0  0  3  0  0  0  0  0  0
  194.0250  176.0410  135.9020 C   0  0  0  0  0  2  0  0  0  0  0  0
  190.6250  175.8260  136.9810 C   0  0  2  0  0  3  0  0  0  0  0  0
  190.0190  176.1510  134.5940 C   0  0  0  0  0  2  0  0  0  0  0  0
  189.2220  176.7530  141.0090 C   0  0  0  0  0  2  0  0  0  0  0  0
  188.9110  177.5550  136.4390 C   0  0  1  0  0  3  0  0  0  0  0  0
  192.3630  176.3870  138.8340 C   0  0  1  0  0  3  0  0  0  0  0  0
  193.4910  176.9860  137.9870 C   0  0  0  0  0  2  0  0  0  0  0  0
  189.3020  177.4670  134.9510 C   0  0  0  0  0  2  0  0  0  0  0  0
  190.1500  177.2450  137.2810 C   0  0  1  0  0  3  0  0  0  0  0  0
  192.7230  171.8050  135.8210 C   0  0  0  0  0  3  0  0  0  0  0  0
  191.4920  177.4840  139.3250 N   0  0  2  0  0  0  0  0  0  0  0  0
  190.6540  176.5370  141.4610 C   0  0  0  0  0  2  0  0  0  0  0  0
  191.4060  173.4990  134.5940 C   0  0  0  0  0  2  0  0  0  0  0  0
  193.3910  174.7730  135.3880 C   0  0  0  0  0  0  0  0  0  0  0  0
  194.0210  172.3500  135.3790 C   0  0  0  0  0  3  0  0  0  0  0  0
  192.0540  174.7160  135.1790 C   0  0  0  0  0  0  0  0  0  0  0  0
  191.7850  174.1780  138.2220 O   0  0  0  0  0  0  0  0  0  0  0  0
  194.2800  175.9440  137.3350 N   0  0  0  0  0  2  0  0  0  0  0  0
  191.6070  175.3690  138.0240 C   0  0  0  0  0  0  0  0  0  0  0  0
  191.5490  177.5740  140.7890 C   0  0  0  0  0  2  0  0  0  0  0  0
  189.1440  176.5710  139.5040 C   0  0  0  0  0  2  0  0  0  0  0  0
  194.3090  173.6340  135.1250 C   0  0  0  0  0  0  0  0  0  0  0  0
  195.5860  173.9190  134.7670 F   0  0  0  0  0  0  0  0  0  0  0  0
  190.1030  177.5350  138.7870 C   0  0  2  0  0  3  0  0  0  0  0  0
  188.3870  178.9540  136.7400 C   0  0  0  0  0  2  0  0  0  0  0  0
  186.8810  179.0290  136.5490 C   0  0  0  0  0  2  0  0  0  0  0  0
  186.2020  177.8800  137.2680 C   0  0  0  0  0  2  0  0  0  0  0  0
  185.8290  178.3120  138.6710 C   0  0  0  0  0  1  0  0  0  0  0  0
  1  5  1  6  0  0  0
  1  4  1  0  0  0  0
  2 12  2  0  0  0  0
  3 20  1  0  0  0  0
  4 11  1  0  0  0  0
  4 21  1  1  0  0  0
  5 10  1  0  0  0  0
  6 14  1  0  0  0  0
  7 27  1  1  0  0  0
  7 11  1  0  0  0  0
  8  9  1  6  0  0  0
  8 13  1  0  0  0  0
 10  7  1  0  0  0  0
 11 26  1  0  0  0  0
 13 22  1  0  0  0  0
 15 18  1  0  0  0  0
 15  2  1  0  0  0  0
 16  3  1  0  0  0  0
 17 12  1  0  0  0  0
 18 16  2  0  0  0  0
 18  1  1  0  0  0  0
 20  9  1  0  0  0  0
 21 19  2  0  0  0  0
 21  8  1  0  0  0  0
 22 14  1  0  0  0  0
 23  6  1  0  0  0  0
 24 17  2  0  0  0  0
 24 16  1  0  0  0  0
 25 24  1  0  0  0  0
 26 13  1  0  0  0  0
 26 23  1  0  0  0  0
 28 27  1  0  0  0  0
 28 29  1  0  0  0  0
 29 30  1  0  0  0  0
M  END
>  <MODEL>
9

>  <REMARK>
 VINA RESULT:      -4.6      2.045      4.405
  Name = 
  3 active torsions:
  status: ('A' for Active; 'I' for Inactive)
    1  A    between atoms: C_6  and  C_8
    2  A    between atoms: C_6  and  C_21
    3  A    between atoms: C_9  and  C_21
                            x       y       z     vdW  Elec       q    Type
                         _______ _______ _______ _____ _____    ______ ____

>  <TORSDO>
F 3

$$$$
