=
 OpenBabel11052414063D

 34 39  0  0  1  0  0  0  0  0999 V2000
  185.5890  178.9540  146.1760 C   0  0  0  0  0  0  0  0  0  0  0  0
  187.3340  177.4020  145.3340 C   0  0  0  0  0  0  0  0  0  0  0  0
  185.6570  178.5000  143.6960 C   0  0  0  0  0  0  0  0  0  0  0  0
  185.4940  178.4940  141.3180 N   0  0  0  0  0  0  0  0  0  0  0  0
  187.2870  178.1320  147.6850 C   0  0  0  0  0  3  0  0  0  0  0  0
  187.7850  177.2680  146.5890 C   0  0  0  0  0  3  0  0  0  0  0  0
  187.6340  178.5980  142.2440 N   0  0  0  0  0  2  0  0  0  0  0  0
  186.4480  178.5900  144.9830 C   0  0  1  0  0  3  0  0  0  0  0  0
  186.3760  178.5790  140.1740 C   0  0  0  0  0  2  0  0  0  0  0  0
  186.2250  178.9240  147.4990 C   0  0  0  0  0  3  0  0  0  0  0  0
  184.1760  178.6330  143.7130 C   0  0  0  0  0  0  0  0  0  0  0  0
  184.3050  179.1230  146.0830 N   0  0  0  0  0  0  0  0  0  0  0  0
  187.8580  176.4640  144.3010 C   0  0  0  0  0  1  0  0  0  0  0  0
  184.0910  178.4990  141.3010 N   0  0  0  0  0  0  0  0  0  0  0  0
  183.4150  178.5440  142.4180 C   0  0  0  0  0  0  0  0  0  0  0  0
  187.7980  178.6350  140.7880 C   0  0  2  0  0  3  0  0  0  0  0  0
  186.2470  178.5030  142.4980 C   0  0  0  0  0  0  0  0  0  0  0  0
  183.5750  178.9750  144.8560 C   0  0  0  0  0  3  0  0  0  0  0  0
  179.7450  178.5900  143.3890 C   0  0  0  0  0  0  0  0  0  0  0  0
  179.1600  178.4000  142.1760 N   0  0  0  0  0  0  0  0  0  0  0  0
  181.9300  178.5150  142.3450 C   0  0  0  0  0  0  0  0  0  0  0  0
  179.9010  178.2580  141.0450 C   0  0  0  0  0  3  0  0  0  0  0  0
  181.1360  178.6470  143.4940 C   0  0  0  0  0  3  0  0  0  0  0  0
  181.2960  178.3110  141.1110 C   0  0  0  0  0  3  0  0  0  0  0  0
  178.9780  178.7220  144.4960 F   0  0  0  0  0  0  0  0  0  0  0  0
  188.6110  177.4300  140.3400 C   0  0  0  0  0  2  0  0  0  0  0  0
  189.9720  177.5220  140.8470 N   0  0  0  0  0  2  0  0  0  0  0  0
  189.9800  176.9610  142.1900 C   0  0  0  0  0  2  0  0  0  0  0  0
  190.6400  179.3070  143.7330 C   0  0  0  0  0  1  0  0  0  0  0  0
  191.6110  178.1370  143.8090 C   0  0  2  0  0  3  0  0  0  0  0  0
  191.5460  176.1420  144.9940 C   0  0  0  0  0  2  0  0  0  0  0  0
  191.6330  175.7310  143.5650 C   0  0  0  0  0  2  0  0  0  0  0  0
  191.3900  177.0120  142.7790 C   0  0  1  0  0  3  0  0  0  0  0  0
  191.5260  177.4590  145.1280 C   0  0  0  0  0  2  0  0  0  0  0  0
  1 10  1  0  0  0  0
  2  6  2  0  0  0  0
  3 11  1  0  0  0  0
  4 17  1  0  0  0  0
  6  5  1  0  0  0  0
  7 17  1  0  0  0  0
  8  3  1  6  0  0  0
  8  2  1  0  0  0  0
  8  1  1  0  0  0  0
  9 16  1  0  0  0  0
  9  4  1  0  0  0  0
 10  5  2  0  0  0  0
 11 18  2  0  0  0  0
 12  1  2  0  0  0  0
 13  2  1  0  0  0  0
 14  4  1  0  0  0  0
 14 15  2  0  0  0  0
 15 11  1  0  0  0  0
 16 26  1  6  0  0  0
 16  7  1  0  0  0  0
 17  3  2  0  0  0  0
 18 12  1  0  0  0  0
 19 23  1  0  0  0  0
 19 25  1  0  0  0  0
 20 19  2  0  0  0  0
 21 15  1  0  0  0  0
 21 23  2  0  0  0  0
 22 24  2  0  0  0  0
 22 20  1  0  0  0  0
 24 21  1  0  0  0  0
 26 27  1  0  0  0  0
 27 28  1  0  0  0  0
 30 29  1  1  0  0  0
 30 34  1  0  0  0  0
 31 34  1  0  0  0  0
 32 31  1  0  0  0  0
 33 28  1  1  0  0  0
 33 32  1  0  0  0  0
 33 30  1  0  0  0  0
M  END
>  <MODEL>
1

>  <REMARK>
 VINA RESULT:     -10.7      0.000      0.000
  Name = 
  5 active torsions:
  status: ('A' for Active; 'I' for Inactive)
    1  A    between atoms: N_3  and  C_13
    2  A    between atoms: N_3  and  C_17
    3  A    between atoms: C_12  and  C_28
    4  A    between atoms: C_13  and  C_33
    5  A    between atoms: C_17  and  C_29
                            x       y       z     vdW  Elec       q    Type
                         _______ _______ _______ _____ _____    ______ ____

>  <TORSDO>
F 5

$$$$
=
 OpenBabel11052414063D

 34 39  0  0  1  0  0  0  0  0999 V2000
  184.9280  179.0010  144.9040 C   0  0  0  0  0  0  0  0  0  0  0  0
  186.8380  177.4420  144.6110 C   0  0  0  0  0  0  0  0  0  0  0  0
  185.6460  178.4540  142.5490 C   0  0  0  0  0  0  0  0  0  0  0  0
  186.1120  178.3540  140.2130 N   0  0  0  0  0  0  0  0  0  0  0  0
  186.1740  178.2610  146.8360 C   0  0  0  0  0  3  0  0  0  0  0  0
  186.9440  177.3620  145.9450 C   0  0  0  0  0  3  0  0  0  0  0  0
  187.9340  178.5220  141.6620 N   0  0  0  0  0  2  0  0  0  0  0  0
  186.0710  178.6030  143.9930 C   0  0  1  0  0  3  0  0  0  0  0  0
  187.2620  178.4070  139.3370 C   0  0  0  0  0  2  0  0  0  0  0  0
  185.1960  179.0310  146.3470 C   0  0  0  0  0  3  0  0  0  0  0  0
  184.2110  178.5670  142.1710 C   0  0  0  0  0  0  0  0  0  0  0  0
  183.7130  179.1500  144.4700 N   0  0  0  0  0  0  0  0  0  0  0  0
  187.6170  176.4720  143.7910 C   0  0  0  0  0  1  0  0  0  0  0  0
  184.7630  178.3390  139.8290 N   0  0  0  0  0  0  0  0  0  0  0  0
  183.8170  178.4180  140.7270 C   0  0  0  0  0  0  0  0  0  0  0  0
  188.4730  178.5050  140.3000 C   0  0  2  0  0  3  0  0  0  0  0  0
  186.5300  178.4180  141.5480 C   0  0  0  0  0  0  0  0  0  0  0  0
  183.3310  178.9450  143.1030 C   0  0  0  0  0  3  0  0  0  0  0  0
  180.3680  177.1510  139.7740 C   0  0  0  0  0  0  0  0  0  0  0  0
  179.7820  178.3040  139.3540 N   0  0  0  0  0  0  0  0  0  0  0  0
  182.4030  178.3670  140.2690 C   0  0  0  0  0  0  0  0  0  0  0  0
  180.4530  179.4860  139.3660 C   0  0  0  0  0  3  0  0  0  0  0  0
  181.6860  177.1630  140.2330 C   0  0  0  0  0  3  0  0  0  0  0  0
  181.7730  179.5370  139.8200 C   0  0  0  0  0  3  0  0  0  0  0  0
  179.6730  175.9890  139.7440 F   0  0  0  0  0  0  0  0  0  0  0  0
  189.3800  177.2960  140.1290 C   0  0  0  0  0  2  0  0  0  0  0  0
  190.6070  177.4710  140.8920 N   0  0  0  0  0  2  0  0  0  0  0  0
  190.4250  176.8110  142.1770 C   0  0  0  0  0  2  0  0  0  0  0  0
  190.6780  179.1830  143.7990 C   0  0  0  0  0  1  0  0  0  0  0  0
  191.6690  178.0580  144.0630 C   0  0  2  0  0  3  0  0  0  0  0  0
  191.4740  176.0610  145.2300 C   0  0  0  0  0  2  0  0  0  0  0  0
  191.8450  175.6560  143.8450 C   0  0  0  0  0  2  0  0  0  0  0  0
  191.6960  176.9260  143.0180 C   0  0  1  0  0  3  0  0  0  0  0  0
  191.3700  177.3760  145.3480 C   0  0  0  0  0  2  0  0  0  0  0  0
  1 10  1  0  0  0  0
  2  6  2  0  0  0  0
  4 17  1  0  0  0  0
  6  5  1  0  0  0  0
  8  3  1  6  0  0  0
  8  2  1  0  0  0  0
  8  1  1  0  0  0  0
  9  4  1  0  0  0  0
  9 16  1  0  0  0  0
 10  5  2  0  0  0  0
 11  3  1  0  0  0  0
 11 18  2  0  0  0  0
 12  1  2  0  0  0  0
 13  2  1  0  0  0  0
 14  4  1  0  0  0  0
 14 15  2  0  0  0  0
 15 11  1  0  0  0  0
 16 26  1  1  0  0  0
 16  7  1  0  0  0  0
 17  7  1  0  0  0  0
 17  3  2  0  0  0  0
 18 12  1  0  0  0  0
 19 23  1  0  0  0  0
 20 22  1  0  0  0  0
 20 19  2  0  0  0  0
 21 15  1  0  0  0  0
 22 24  2  0  0  0  0
 23 21  2  0  0  0  0
 24 21  1  0  0  0  0
 25 19  1  0  0  0  0
 26 27  1  0  0  0  0
 27 28  1  0  0  0  0
 30 29  1  6  0  0  0
 30 34  1  0  0  0  0
 31 34  1  0  0  0  0
 32 31  1  0  0  0  0
 33 28  1  1  0  0  0
 33 32  1  0  0  0  0
 33 30  1  0  0  0  0
M  END
>  <MODEL>
2

>  <REMARK>
 VINA RESULT:     -10.5      1.598      1.819
  Name = 
  5 active torsions:
  status: ('A' for Active; 'I' for Inactive)
    1  A    between atoms: N_3  and  C_13
    2  A    between atoms: N_3  and  C_17
    3  A    between atoms: C_12  and  C_28
    4  A    between atoms: C_13  and  C_33
    5  A    between atoms: C_17  and  C_29
                            x       y       z     vdW  Elec       q    Type
                         _______ _______ _______ _____ _____    ______ ____

>  <TORSDO>
F 5

$$$$
=
 OpenBabel11052414063D

 34 39  0  0  1  0  0  0  0  0999 V2000
  185.6860  178.8450  146.0580 C   0  0  0  0  0  0  0  0  0  0  0  0
  187.3430  177.3070  145.0330 C   0  0  0  0  0  0  0  0  0  0  0  0
  185.5730  178.4920  143.5630 C   0  0  0  0  0  0  0  0  0  0  0  0
  185.2430  178.5850  141.2050 N   0  0  0  0  0  0  0  0  0  0  0  0
  187.4720  177.9410  147.4090 C   0  0  0  0  0  3  0  0  0  0  0  0
  187.8780  177.1160  146.2480 C   0  0  0  0  0  3  0  0  0  0  0  0
  187.4450  178.6230  141.9800 N   0  0  0  0  0  2  0  0  0  0  0  0
  186.4530  178.5190  144.7940 C   0  0  1  0  0  3  0  0  0  0  0  0
  186.0440  178.7050  140.0050 C   0  0  0  0  0  2  0  0  0  0  0  0
  186.4130  178.7530  147.3300 C   0  0  0  0  0  3  0  0  0  0  0  0
  184.0980  178.6430  143.6900 C   0  0  0  0  0  0  0  0  0  0  0  0
  184.4010  179.0350  146.0620 N   0  0  0  0  0  0  0  0  0  0  0  0
  187.7780  176.4040  143.9300 C   0  0  0  0  0  1  0  0  0  0  0  0
  183.8430  178.6080  141.2870 N   0  0  0  0  0  0  0  0  0  0  0  0
  183.2470  178.6160  142.4490 C   0  0  0  0  0  0  0  0  0  0  0  0
  187.5060  178.7170  140.5190 C   0  0  2  0  0  3  0  0  0  0  0  0
  186.0780  178.5360  142.3270 C   0  0  0  0  0  0  0  0  0  0  0  0
  183.5850  178.9460  144.8860 C   0  0  0  0  0  3  0  0  0  0  0  0
  179.6560  178.6230  143.6800 C   0  0  0  0  0  0  0  0  0  0  0  0
  178.9840  178.5390  142.5010 N   0  0  0  0  0  0  0  0  0  0  0  0
  181.7600  178.6100  142.4810 C   0  0  0  0  0  0  0  0  0  0  0  0
  179.6420  178.4820  141.3120 C   0  0  0  0  0  3  0  0  0  0  0  0
  181.0510  178.6560  143.6900 C   0  0  0  0  0  3  0  0  0  0  0  0
  181.0380  178.5140  141.2820 C   0  0  0  0  0  3  0  0  0  0  0  0
  178.9710  178.6720  144.8460 F   0  0  0  0  0  0  0  0  0  0  0  0
  188.2670  177.5220  139.9670 C   0  0  0  0  0  2  0  0  0  0  0  0
  189.5560  177.9430  139.4380 N   0  0  0  0  0  2  0  0  0  0  0  0
  189.3800  178.2270  138.0220 C   0  0  0  0  0  2  0  0  0  0  0  0
  186.9740  178.3450  136.4350 C   0  0  0  0  0  1  0  0  0  0  0  0
  187.8750  177.1350  136.2310 C   0  0  2  0  0  3  0  0  0  0  0  0
  189.8480  176.8560  135.0410 C   0  0  0  0  0  2  0  0  0  0  0  0
  190.1990  176.5020  136.4440 C   0  0  0  0  0  2  0  0  0  0  0  0
  189.0000  176.9520  137.2680 C   0  0  1  0  0  3  0  0  0  0  0  0
  188.5780  177.2100  134.9250 C   0  0  0  0  0  2  0  0  0  0  0  0
  1 12  2  0  0  0  0
  1 10  1  0  0  0  0
  2  6  2  0  0  0  0
  3 11  1  0  0  0  0
  4 14  1  0  0  0  0
  4 17  1  0  0  0  0
  6  5  1  0  0  0  0
  7 17  1  0  0  0  0
  8  3  1  6  0  0  0
  8  2  1  0  0  0  0
  8  1  1  0  0  0  0
  9 16  1  0  0  0  0
  9  4  1  0  0  0  0
 10  5  2  0  0  0  0
 11 18  2  0  0  0  0
 13  2  1  0  0  0  0
 14 15  2  0  0  0  0
 15 21  1  0  0  0  0
 15 11  1  0  0  0  0
 16 26  1  6  0  0  0
 16  7  1  0  0  0  0
 17  3  2  0  0  0  0
 18 12  1  0  0  0  0
 19 23  1  0  0  0  0
 19 25  1  0  0  0  0
 20 19  2  0  0  0  0
 21 23  2  0  0  0  0
 22 20  1  0  0  0  0
 24 22  2  0  0  0  0
 24 21  1  0  0  0  0
 27 26  1  0  0  0  0
 28 27  1  0  0  0  0
 30 29  1  1  0  0  0
 30 33  1  0  0  0  0
 31 32  1  0  0  0  0
 32 33  1  0  0  0  0
 33 28  1  6  0  0  0
 34 31  1  0  0  0  0
 34 30  1  0  0  0  0
M  END
>  <MODEL>
3

>  <REMARK>
 VINA RESULT:      -9.8      1.963      3.714
  Name = 
  5 active torsions:
  status: ('A' for Active; 'I' for Inactive)
    1  A    between atoms: N_3  and  C_13
    2  A    between atoms: N_3  and  C_17
    3  A    between atoms: C_12  and  C_28
    4  A    between atoms: C_13  and  C_33
    5  A    between atoms: C_17  and  C_29
                            x       y       z     vdW  Elec       q    Type
                         _______ _______ _______ _____ _____    ______ ____

>  <TORSDO>
F 5

$$$$
=
 OpenBabel11052414063D

 34 39  0  0  1  0  0  0  0  0999 V2000
  186.0590  178.8790  140.5940 C   0  0  0  0  0  0  0  0  0  0  0  0
  186.4840  177.7750  142.7770 C   0  0  0  0  0  0  0  0  0  0  0  0
  188.3510  177.9020  140.9890 C   0  0  0  0  0  0  0  0  0  0  0  0
  190.6550  177.2930  141.0250 N   0  0  0  0  0  0  0  0  0  0  0  0
  184.3850  178.9840  142.3320 C   0  0  0  0  0  3  0  0  0  0  0  0
  185.2310  178.0800  143.1460 C   0  0  0  0  0  3  0  0  0  0  0  0
  189.7710  178.2500  142.9610 N   0  0  0  0  0  2  0  0  0  0  0  0
  187.1210  178.5240  141.6140 C   0  0  0  0  0  0  0  0  0  0  0  0
  191.7800  177.3700  141.9320 C   0  0  0  0  0  2  0  0  0  0  0  0
  184.7660  179.3520  141.1040 C   0  0  0  0  0  2  0  0  0  0  0  0
  188.3760  177.5810  139.5370 C   0  0  0  0  0  0  0  0  0  0  0  0
  186.1990  178.6260  139.3280 N   0  0  0  0  0  0  0  0  0  0  0  0
  187.2500  176.8250  143.6320 C   0  0  0  0  0  1  0  0  0  0  0  0
  190.6810  176.8690  139.6870 N   0  0  0  0  0  0  0  0  0  0  0  0
  189.6140  176.9670  138.9400 C   0  0  0  0  0  0  0  0  0  0  0  0
  191.1900  177.9940  143.2220 C   0  0  2  0  0  3  0  0  0  0  0  0
  189.5100  177.8030  141.6470 C   0  0  0  0  0  0  0  0  0  0  0  0
  187.3560  177.9830  138.7730 C   0  0  0  0  0  3  0  0  0  0  0  0
  190.1110  174.7320  135.9130 C   0  0  0  0  0  0  0  0  0  0  0  0
  189.8650  175.6120  134.9060 N   0  0  0  0  0  0  0  0  0  0  0  0
  189.6860  176.4760  137.5390 C   0  0  0  0  0  0  0  0  0  0  0  0
  189.5400  176.9070  135.1590 C   0  0  0  0  0  3  0  0  0  0  0  0
  190.0290  175.1490  137.2420 C   0  0  0  0  0  3  0  0  0  0  0  0
  189.4480  177.3610  136.4770 C   0  0  0  0  0  3  0  0  0  0  0  0
  190.4370  173.4500  135.6260 F   0  0  0  0  0  0  0  0  0  0  0  0
  191.3230  177.0220  144.3850 C   0  0  0  0  0  2  0  0  0  0  0  0
  190.0180  176.7490  144.9680 N   0  0  0  0  0  2  0  0  0  0  0  0
  189.8850  177.5800  146.1560 C   0  0  0  0  0  2  0  0  0  0  0  0
  189.8270  178.6270  148.8430 C   0  0  0  0  0  1  0  0  0  0  0  0
  188.6400  177.7790  148.4080 C   0  0  2  0  0  3  0  0  0  0  0  0
  186.7830  178.2650  147.1020 C   0  0  0  0  0  2  0  0  0  0  0  0
  187.4590  177.1410  146.3970 C   0  0  0  0  0  2  0  0  0  0  0  0
  188.8110  177.0110  147.0840 C   0  0  1  0  0  3  0  0  0  0  0  0
  187.4330  178.6200  148.2000 C   0  0  0  0  0  2  0  0  0  0  0  0
  1 10  1  0  0  0  0
  1  8  1  0  0  0  0
  2  6  1  0  0  0  0
  2 13  1  0  0  0  0
  3  8  1  0  0  0  0
  3 17  2  0  0  0  0
  4 17  1  0  0  0  0
  4  9  1  0  0  0  0
  5  6  2  0  0  0  0
  7 16  1  0  0  0  0
  8  2  2  0  0  0  0
  9 16  1  0  0  0  0
 10  5  1  0  0  0  0
 11  3  1  0  0  0  0
 12  1  2  0  0  0  0
 14  4  1  0  0  0  0
 15 11  1  0  0  0  0
 15 14  2  0  0  0  0
 16 26  1  1  0  0  0
 17  7  1  0  0  0  0
 18 12  1  0  0  0  0
 18 11  2  0  0  0  0
 19 23  1  0  0  0  0
 20 22  1  0  0  0  0
 20 19  2  0  0  0  0
 21 15  1  0  0  0  0
 22 24  2  0  0  0  0
 23 21  2  0  0  0  0
 24 21  1  0  0  0  0
 25 19  1  0  0  0  0
 26 27  1  0  0  0  0
 27 28  1  0  0  0  0
 30 29  1  6  0  0  0
 31 34  1  0  0  0  0
 32 33  1  0  0  0  0
 32 31  1  0  0  0  0
 33 28  1  6  0  0  0
 33 30  1  0  0  0  0
 34 30  1  0  0  0  0
M  END
>  <MODEL>
4

>  <REMARK>
 VINA RESULT:      -9.4      3.685      7.189
  Name = 
  5 active torsions:
  status: ('A' for Active; 'I' for Inactive)
    1  A    between atoms: N_3  and  C_13
    2  A    between atoms: N_3  and  C_17
    3  A    between atoms: C_12  and  C_28
    4  A    between atoms: C_13  and  C_33
    5  A    between atoms: C_17  and  C_29
                            x       y       z     vdW  Elec       q    Type
                         _______ _______ _______ _____ _____    ______ ____

>  <TORSDO>
F 5

$$$$
=
 OpenBabel11052414063D

 34 39  0  0  1  0  0  0  0  0999 V2000
  190.0980  177.4710  146.1200 C   0  0  0  0  0  0  0  0  0  0  0  0
  191.1150  175.8600  144.5280 C   0  0  0  0  0  0  0  0  0  0  0  0
  189.2870  177.5120  143.7320 C   0  0  0  0  0  0  0  0  0  0  0  0
  188.3920  178.0020  141.5780 N   0  0  0  0  0  0  0  0  0  0  0  0
  191.9630  176.1090  146.8260 C   0  0  0  0  0  3  0  0  0  0  0  0
  191.8950  175.4110  145.5210 C   0  0  0  0  0  3  0  0  0  0  0  0
  190.6840  177.5800  141.7130 N   0  0  0  0  0  2  0  0  0  0  0  0
  190.4410  177.2190  144.6670 C   0  0  1  0  0  3  0  0  0  0  0  0
  188.8680  178.1710  140.2220 C   0  0  0  0  0  2  0  0  0  0  0  0
  191.0930  177.0800  147.1250 C   0  0  0  0  0  3  0  0  0  0  0  0
  187.9510  177.8710  144.2760 C   0  0  0  0  0  0  0  0  0  0  0  0
  188.9170  177.8560  146.4990 N   0  0  0  0  0  0  0  0  0  0  0  0
  191.0740  175.0730  143.2630 C   0  0  0  0  0  1  0  0  0  0  0  0
  187.0900  178.2320  142.0470 N   0  0  0  0  0  0  0  0  0  0  0  0
  186.8230  178.1620  143.3230 C   0  0  0  0  0  0  0  0  0  0  0  0
  190.3880  177.8780  140.3100 C   0  0  2  0  0  3  0  0  0  0  0  0
  189.4600  177.6580  142.4150 C   0  0  0  0  0  0  0  0  0  0  0  0
  187.8260  178.0710  145.5910 C   0  0  0  0  0  3  0  0  0  0  0  0
  183.0560  178.6350  143.3000 C   0  0  0  0  0  0  0  0  0  0  0  0
  182.8220  178.8590  144.6210 N   0  0  0  0  0  0  0  0  0  0  0  0
  185.4200  178.3840  143.7650 C   0  0  0  0  0  0  0  0  0  0  0  0
  183.8310  178.8620  145.5310 C   0  0  0  0  0  3  0  0  0  0  0  0
  184.3560  178.3980  142.8510 C   0  0  0  0  0  3  0  0  0  0  0  0
  185.1450  178.6280  145.1180 C   0  0  0  0  0  3  0  0  0  0  0  0
  182.0280  178.6430  142.4200 F   0  0  0  0  0  0  0  0  0  0  0  0
  190.7410  176.6730  139.4510 C   0  0  0  0  0  2  0  0  0  0  0  0
  190.6150  177.0030  138.0390 N   0  0  0  0  0  2  0  0  0  0  0  0
  189.7030  176.0390  137.4420 C   0  0  0  0  0  2  0  0  0  0  0  0
  186.9730  175.1890  137.0560 C   0  0  0  0  0  1  0  0  0  0  0  0
  187.4370  176.4020  136.2600 C   0  0  2  0  0  3  0  0  0  0  0  0
  187.7210  178.6280  136.8520 C   0  0  0  0  0  2  0  0  0  0  0  0
  189.0640  178.1860  136.3860 C   0  0  0  0  0  2  0  0  0  0  0  0
  188.9540  176.6720  136.2690 C   0  0  1  0  0  3  0  0  0  0  0  0
  186.8310  177.6500  136.7910 C   0  0  0  0  0  2  0  0  0  0  0  0
  1 12  2  0  0  0  0
  1 10  1  0  0  0  0
  2  8  1  0  0  0  0
  2  6  2  0  0  0  0
  3 11  1  0  0  0  0
  4 14  1  0  0  0  0
  4 17  1  0  0  0  0
  5 10  2  0  0  0  0
  6  5  1  0  0  0  0
  7 17  1  0  0  0  0
  8  3  1  6  0  0  0
  8  1  1  0  0  0  0
  9 16  1  0  0  0  0
  9  4  1  0  0  0  0
 11 18  2  0  0  0  0
 13  2  1  0  0  0  0
 14 15  2  0  0  0  0
 15 21  1  0  0  0  0
 15 11  1  0  0  0  0
 16 26  1  6  0  0  0
 16  7  1  0  0  0  0
 17  3  2  0  0  0  0
 18 12  1  0  0  0  0
 19 20  1  0  0  0  0
 20 22  2  0  0  0  0
 21 24  2  0  0  0  0
 23 19  2  0  0  0  0
 23 21  1  0  0  0  0
 24 22  1  0  0  0  0
 25 19  1  0  0  0  0
 27 26  1  0  0  0  0
 28 27  1  0  0  0  0
 30 33  1  0  0  0  0
 30 34  1  0  0  0  0
 30 29  1  1  0  0  0
 32 31  1  0  0  0  0
 33 32  1  0  0  0  0
 33 28  1  1  0  0  0
 34 31  1  0  0  0  0
M  END
>  <MODEL>
5

>  <REMARK>
 VINA RESULT:      -9.3      2.388      5.152
  Name = 
  5 active torsions:
  status: ('A' for Active; 'I' for Inactive)
    1  A    between atoms: N_3  and  C_13
    2  A    between atoms: N_3  and  C_17
    3  A    between atoms: C_12  and  C_28
    4  A    between atoms: C_13  and  C_33
    5  A    between atoms: C_17  and  C_29
                            x       y       z     vdW  Elec       q    Type
                         _______ _______ _______ _____ _____    ______ ____

>  <TORSDO>
F 5

$$$$
=
 OpenBabel11052414063D

 34 39  0  0  1  0  0  0  0  0999 V2000
  184.9410  179.3680  142.0550 C   0  0  0  0  0  0  0  0  0  0  0  0
  186.0500  177.8310  143.6580 C   0  0  0  0  0  0  0  0  0  0  0  0
  187.1020  178.2840  141.3370 C   0  0  0  0  0  0  0  0  0  0  0  0
  189.1750  177.6330  140.3570 N   0  0  0  0  0  0  0  0  0  0  0  0
  184.0700  179.1480  144.2970 C   0  0  0  0  0  3  0  0  0  0  0  0
  185.0680  178.0790  144.5360 C   0  0  0  0  0  3  0  0  0  0  0  0
  189.1910  178.1900  142.6240 N   0  0  0  0  0  2  0  0  0  0  0  0
  186.2690  178.7890  142.4950 C   0  0  1  0  0  3  0  0  0  0  0  0
  190.5620  177.4990  140.7490 C   0  0  0  0  0  2  0  0  0  0  0  0
  183.9920  179.7530  143.1070 C   0  0  0  0  0  3  0  0  0  0  0  0
  186.5430  178.2680  139.9590 C   0  0  0  0  0  0  0  0  0  0  0  0
  184.5650  179.3780  140.8120 N   0  0  0  0  0  0  0  0  0  0  0  0
  186.9850  176.7090  143.9570 C   0  0  0  0  0  1  0  0  0  0  0  0
  188.6500  177.4930  139.0640 N   0  0  0  0  0  0  0  0  0  0  0  0
  187.3950  177.7640  138.8250 C   0  0  0  0  0  0  0  0  0  0  0  0
  190.5700  177.8570  142.2580 C   0  0  2  0  0  3  0  0  0  0  0  0
  188.4080  178.0280  141.4590 C   0  0  0  0  0  0  0  0  0  0  0  0
  185.3540  178.8390  139.7420 C   0  0  0  0  0  3  0  0  0  0  0  0
  185.5830  176.3430  135.8070 C   0  0  0  0  0  0  0  0  0  0  0  0
  185.9880  177.2080  134.8390 N   0  0  0  0  0  0  0  0  0  0  0  0
  186.8810  177.5700  137.4440 C   0  0  0  0  0  0  0  0  0  0  0  0
  186.8250  178.2420  135.1160 C   0  0  0  0  0  3  0  0  0  0  0  0
  186.0250  176.5070  137.1210 C   0  0  0  0  0  3  0  0  0  0  0  0
  187.2870  178.4380  136.4200 C   0  0  0  0  0  3  0  0  0  0  0  0
  184.7520  175.3210  135.4960 F   0  0  0  0  0  0  0  0  0  0  0  0
  191.0370  176.6640  143.0780 C   0  0  0  0  0  2  0  0  0  0  0  0
  192.0550  177.0750  144.0330 N   0  0  0  0  0  2  0  0  0  0  0  0
  191.3890  177.8070  145.1000 C   0  0  0  0  0  2  0  0  0  0  0  0
  192.0560  176.2080  147.4070 C   0  0  0  0  0  1  0  0  0  0  0  0
  190.5780  176.3460  147.0680 C   0  0  2  0  0  3  0  0  0  0  0  0
  189.0560  178.0580  147.4410 C   0  0  0  0  0  2  0  0  0  0  0  0
  189.0680  177.8780  145.9630 C   0  0  0  0  0  2  0  0  0  0  0  0
  190.2580  176.9660  145.6950 C   0  0  1  0  0  3  0  0  0  0  0  0
  189.8880  177.2260  148.0470 C   0  0  0  0  0  2  0  0  0  0  0  0
  1  8  1  0  0  0  0
  1 10  1  0  0  0  0
  2 13  1  0  0  0  0
  2  6  2  0  0  0  0
  3 17  2  0  0  0  0
  4  9  1  0  0  0  0
  4 17  1  0  0  0  0
  5  6  1  0  0  0  0
  8  3  1  6  0  0  0
  8  2  1  0  0  0  0
  9 16  1  0  0  0  0
 10  5  2  0  0  0  0
 11  3  1  0  0  0  0
 12  1  2  0  0  0  0
 14  4  1  0  0  0  0
 15 14  2  0  0  0  0
 15 11  1  0  0  0  0
 16  7  1  0  0  0  0
 16 26  1  1  0  0  0
 17  7  1  0  0  0  0
 18 11  2  0  0  0  0
 18 12  1  0  0  0  0
 19 23  1  0  0  0  0
 20 22  1  0  0  0  0
 20 19  2  0  0  0  0
 21 15  1  0  0  0  0
 22 24  2  0  0  0  0
 23 21  2  0  0  0  0
 24 21  1  0  0  0  0
 25 19  1  0  0  0  0
 26 27  1  0  0  0  0
 27 28  1  0  0  0  0
 30 29  1  1  0  0  0
 30 34  1  0  0  0  0
 31 34  1  0  0  0  0
 32 31  1  0  0  0  0
 33 28  1  1  0  0  0
 33 32  1  0  0  0  0
 33 30  1  0  0  0  0
M  END
>  <MODEL>
6

>  <REMARK>
 VINA RESULT:      -9.0      3.101      5.427
  Name = 
  5 active torsions:
  status: ('A' for Active; 'I' for Inactive)
    1  A    between atoms: N_3  and  C_13
    2  A    between atoms: N_3  and  C_17
    3  A    between atoms: C_12  and  C_28
    4  A    between atoms: C_13  and  C_33
    5  A    between atoms: C_17  and  C_29
                            x       y       z     vdW  Elec       q    Type
                         _______ _______ _______ _____ _____    ______ ____

>  <TORSDO>
F 5

$$$$
=
 OpenBabel11052414063D

 34 39  0  0  1  0  0  0  0  0999 V2000
  189.7250  177.2590  137.0530 C   0  0  0  0  0  0  0  0  0  0  0  0
  187.4300  176.4070  136.6420 C   0  0  0  0  0  0  0  0  0  0  0  0
  187.9740  177.7090  138.8120 C   0  0  0  0  0  0  0  0  0  0  0  0
  186.6070  178.4980  140.5980 N   0  0  0  0  0  0  0  0  0  0  0  0
  189.1850  176.2600  134.9220 C   0  0  0  0  0  3  0  0  0  0  0  0
  187.8480  175.9230  135.4640 C   0  0  0  0  0  3  0  0  0  0  0  0
  185.7280  178.6290  138.4400 N   0  0  0  0  0  2  0  0  0  0  0  0
  188.2550  177.4780  137.3430 C   0  0  0  0  0  0  0  0  0  0  0  0
  185.3120  179.1180  140.7760 C   0  0  0  0  0  2  0  0  0  0  0  0
  190.0930  176.8800  135.6830 C   0  0  0  0  0  2  0  0  0  0  0  0
  189.0640  177.5800  139.8160 C   0  0  0  0  0  0  0  0  0  0  0  0
  190.6220  177.2350  137.9920 N   0  0  0  0  0  0  0  0  0  0  0  0
  186.0870  175.9830  137.1320 C   0  0  0  0  0  1  0  0  0  0  0  0
  187.5760  178.2760  141.5880 N   0  0  0  0  0  0  0  0  0  0  0  0
  188.7580  177.8200  141.2690 C   0  0  0  0  0  0  0  0  0  0  0  0
  184.7230  179.1930  139.3440 C   0  0  2  0  0  3  0  0  0  0  0  0
  186.8180  178.2230  139.2420 C   0  0  0  0  0  0  0  0  0  0  0  0
  190.3160  177.4010  139.3830 C   0  0  0  0  0  3  0  0  0  0  0  0
  191.3930  178.3440  143.9500 C   0  0  0  0  0  0  0  0  0  0  0  0
  191.6010  177.0630  144.3550 N   0  0  0  0  0  0  0  0  0  0  0  0
  189.7380  177.5720  142.3600 C   0  0  0  0  0  0  0  0  0  0  0  0
  190.9210  176.0240  143.8010 C   0  0  0  0  0  3  0  0  0  0  0  0
  190.4640  178.6190  142.9460 C   0  0  0  0  0  3  0  0  0  0  0  0
  189.9820  176.2610  142.7940 C   0  0  0  0  0  3  0  0  0  0  0  0
  192.0910  179.3550  144.5200 F   0  0  0  0  0  0  0  0  0  0  0  0
  183.4460  178.3710  139.2580 C   0  0  0  0  0  2  0  0  0  0  0  0
  183.1980  177.6890  140.5200 N   0  0  0  0  0  2  0  0  0  0  0  0
  181.7740  177.7910  140.8020 C   0  0  0  0  0  2  0  0  0  0  0  0
  178.9950  178.3830  141.3030 C   0  0  0  0  0  1  0  0  0  0  0  0
  180.0230  179.1770  142.0970 C   0  0  2  0  0  3  0  0  0  0  0  0
  181.2870  178.6400  143.9690 C   0  0  0  0  0  2  0  0  0  0  0  0
  182.2890  178.9720  142.9180 C   0  0  0  0  0  2  0  0  0  0  0  0
  181.4840  179.0450  141.6270 C   0  0  1  0  0  3  0  0  0  0  0  0
  180.0460  178.7450  143.5180 C   0  0  0  0  0  2  0  0  0  0  0  0
  1  8  1  0  0  0  0
  1 12  2  0  0  0  0
  2 13  1  0  0  0  0
  2  8  2  0  0  0  0
  3 17  2  0  0  0  0
  3 11  1  0  0  0  0
  4  9  1  0  0  0  0
  4 14  1  0  0  0  0
  5  6  2  0  0  0  0
  5 10  1  0  0  0  0
  6  2  1  0  0  0  0
  7 17  1  0  0  0  0
  7 16  1  0  0  0  0
  8  3  1  0  0  0  0
 10  1  1  0  0  0  0
 11 15  1  0  0  0  0
 12 18  1  0  0  0  0
 15 14  2  0  0  0  0
 15 21  1  0  0  0  0
 16 26  1  1  0  0  0
 16  9  1  0  0  0  0
 17  4  1  0  0  0  0
 18 11  2  0  0  0  0
 19 20  1  0  0  0  0
 19 25  1  0  0  0  0
 21 24  2  0  0  0  0
 21 23  1  0  0  0  0
 22 20  2  0  0  0  0
 23 19  2  0  0  0  0
 24 22  1  0  0  0  0
 26 27  1  0  0  0  0
 27 28  1  0  0  0  0
 30 29  1  6  0  0  0
 30 34  1  0  0  0  0
 32 31  1  0  0  0  0
 33 28  1  6  0  0  0
 33 30  1  0  0  0  0
 33 32  1  0  0  0  0
 34 31  1  0  0  0  0
M  END
>  <MODEL>
7

>  <REMARK>
 VINA RESULT:      -8.9      3.524      9.086
  Name = 
  5 active torsions:
  status: ('A' for Active; 'I' for Inactive)
    1  A    between atoms: N_3  and  C_13
    2  A    between atoms: N_3  and  C_17
    3  A    between atoms: C_12  and  C_28
    4  A    between atoms: C_13  and  C_33
    5  A    between atoms: C_17  and  C_29
                            x       y       z     vdW  Elec       q    Type
                         _______ _______ _______ _____ _____    ______ ____

>  <TORSDO>
F 5

$$$$
=
 OpenBabel11052414063D

 34 39  0  0  1  0  0  0  0  0999 V2000
  190.2290  177.3360  146.4300 C   0  0  0  0  0  0  0  0  0  0  0  0
  191.3100  175.7360  144.8700 C   0  0  0  0  0  0  0  0  0  0  0  0
  189.5130  177.3900  144.0120 C   0  0  0  0  0  0  0  0  0  0  0  0
  188.7030  177.8930  141.8280 N   0  0  0  0  0  0  0  0  0  0  0  0
  192.0660  175.9710  147.2010 C   0  0  0  0  0  3  0  0  0  0  0  0
  192.0500  175.2810  145.8910 C   0  0  0  0  0  3  0  0  0  0  0  0
  190.9880  177.4720  142.0510 N   0  0  0  0  0  2  0  0  0  0  0  0
  190.6290  177.0930  144.9900 C   0  0  1  0  0  3  0  0  0  0  0  0
  189.2320  178.0690  140.4930 C   0  0  0  0  0  2  0  0  0  0  0  0
  191.1840  176.9400  147.4720 C   0  0  0  0  0  3  0  0  0  0  0  0
  188.1560  177.7460  144.5050 C   0  0  0  0  0  0  0  0  0  0  0  0
  189.0330  177.7190  146.7640 N   0  0  0  0  0  0  0  0  0  0  0  0
  191.3200  174.9560  143.6000 C   0  0  0  0  0  1  0  0  0  0  0  0
  187.3830  178.1190  142.2460 N   0  0  0  0  0  0  0  0  0  0  0  0
  187.0660  178.0410  143.5110 C   0  0  0  0  0  0  0  0  0  0  0  0
  190.7480  177.7770  140.6380 C   0  0  2  0  0  3  0  0  0  0  0  0
  189.7370  177.5440  142.7040 C   0  0  0  0  0  0  0  0  0  0  0  0
  187.9790  177.9380  145.8160 C   0  0  0  0  0  3  0  0  0  0  0  0
  183.3170  178.6090  143.3370 C   0  0  0  0  0  0  0  0  0  0  0  0
  183.0170  178.7250  144.6580 N   0  0  0  0  0  0  0  0  0  0  0  0
  185.6470  178.2600  143.8970 C   0  0  0  0  0  0  0  0  0  0  0  0
  183.9770  178.6240  145.6150 C   0  0  0  0  0  3  0  0  0  0  0  0
  184.6330  178.3790  142.9360 C   0  0  0  0  0  3  0  0  0  0  0  0
  185.3060  178.3940  145.2510 C   0  0  0  0  0  3  0  0  0  0  0  0
  182.3370  178.7190  142.4090 F   0  0  0  0  0  0  0  0  0  0  0  0
  191.1360  176.5770  139.7880 C   0  0  0  0  0  2  0  0  0  0  0  0
  191.2360  176.9610  138.3880 N   0  0  0  0  0  2  0  0  0  0  0  0
  190.8870  175.7970  137.5860 C   0  0  0  0  0  2  0  0  0  0  0  0
  190.4720  173.3830  136.0630 C   0  0  0  0  0  1  0  0  0  0  0  0
  191.8920  173.6640  136.5360 C   0  0  2  0  0  3  0  0  0  0  0  0
  193.5400  175.0870  135.7310 C   0  0  0  0  0  2  0  0  0  0  0  0
  193.3080  175.5310  137.1330 C   0  0  0  0  0  2  0  0  0  0  0  0
  192.0450  174.7990  137.5660 C   0  0  1  0  0  3  0  0  0  0  0  0
  192.7600  174.0690  135.4010 C   0  0  0  0  0  2  0  0  0  0  0  0
  1 12  2  0  0  0  0
  1 10  1  0  0  0  0
  2  8  1  0  0  0  0
  2  6  2  0  0  0  0
  3 11  1  0  0  0  0
  4 14  1  0  0  0  0
  4 17  1  0  0  0  0
  5 10  2  0  0  0  0
  6  5  1  0  0  0  0
  7 17  1  0  0  0  0
  8  3  1  6  0  0  0
  8  1  1  0  0  0  0
  9 16  1  0  0  0  0
  9  4  1  0  0  0  0
 11 18  2  0  0  0  0
 13  2  1  0  0  0  0
 14 15  2  0  0  0  0
 15 21  1  0  0  0  0
 15 11  1  0  0  0  0
 16 26  1  6  0  0  0
 16  7  1  0  0  0  0
 17  3  2  0  0  0  0
 18 12  1  0  0  0  0
 19 20  1  0  0  0  0
 20 22  2  0  0  0  0
 21 24  2  0  0  0  0
 23 19  2  0  0  0  0
 23 21  1  0  0  0  0
 24 22  1  0  0  0  0
 25 19  1  0  0  0  0
 27 26  1  0  0  0  0
 28 27  1  0  0  0  0
 30 29  1  6  0  0  0
 30 33  1  0  0  0  0
 31 32  1  0  0  0  0
 32 33  1  0  0  0  0
 33 28  1  6  0  0  0
 34 31  1  0  0  0  0
 34 30  1  0  0  0  0
M  END
>  <MODEL>
8

>  <REMARK>
 VINA RESULT:      -8.8      3.240      5.279
  Name = 
  5 active torsions:
  status: ('A' for Active; 'I' for Inactive)
    1  A    between atoms: N_3  and  C_13
    2  A    between atoms: N_3  and  C_17
    3  A    between atoms: C_12  and  C_28
    4  A    between atoms: C_13  and  C_33
    5  A    between atoms: C_17  and  C_29
                            x       y       z     vdW  Elec       q    Type
                         _______ _______ _______ _____ _____    ______ ____

>  <TORSDO>
F 5

$$$$
=
 OpenBabel11052414063D

 34 39  0  0  1  0  0  0  0  0999 V2000
  191.6430  177.4860  140.4750 C   0  0  0  0  0  0  0  0  0  0  0  0
  190.1140  176.4850  138.7940 C   0  0  0  0  0  0  0  0  0  0  0  0
  189.1610  177.7040  140.8690 C   0  0  0  0  0  0  0  0  0  0  0  0
  186.9420  178.2890  141.5120 N   0  0  0  0  0  0  0  0  0  0  0  0
  192.5480  176.5670  138.4330 C   0  0  0  0  0  3  0  0  0  0  0  0
  191.1860  176.1000  138.0860 C   0  0  0  0  0  3  0  0  0  0  0  0
  187.4830  178.4700  139.2490 N   0  0  0  0  0  2  0  0  0  0  0  0
  190.2690  177.5760  139.8460 C   0  0  0  0  0  0  0  0  0  0  0  0
  185.7360  178.7970  140.8950 C   0  0  0  0  0  2  0  0  0  0  0  0
  192.7760  177.2110  139.5830 C   0  0  0  0  0  2  0  0  0  0  0  0
  189.4650  177.6040  142.3220 C   0  0  0  0  0  0  0  0  0  0  0  0
  191.8190  177.4790  141.7610 N   0  0  0  0  0  0  0  0  0  0  0  0
  188.7850  175.9350  138.4020 C   0  0  0  0  0  1  0  0  0  0  0  0
  187.1640  178.0860  142.8820 N   0  0  0  0  0  0  0  0  0  0  0  0
  188.3450  177.7390  143.3180 C   0  0  0  0  0  0  0  0  0  0  0  0
  186.0920  178.9060  139.3900 C   0  0  2  0  0  3  0  0  0  0  0  0
  187.9310  178.1050  140.5380 C   0  0  0  0  0  0  0  0  0  0  0  0
  190.7430  177.5450  142.7080 C   0  0  0  0  0  3  0  0  0  0  0  0
  189.8510  176.8160  146.6780 C   0  0  0  0  0  0  0  0  0  0  0  0
  188.7890  177.0330  147.5000 N   0  0  0  0  0  0  0  0  0  0  0  0
  188.5200  177.5080  144.7770 C   0  0  0  0  0  0  0  0  0  0  0  0
  187.5960  177.4710  147.0170 C   0  0  0  0  0  3  0  0  0  0  0  0
  189.7330  177.0450  145.3070 C   0  0  0  0  0  3  0  0  0  0  0  0
  187.4410  177.7120  145.6490 C   0  0  0  0  0  3  0  0  0  0  0  0
  191.0230  176.3750  147.1920 F   0  0  0  0  0  0  0  0  0  0  0  0
  185.1900  177.9950  138.5700 C   0  0  0  0  0  2  0  0  0  0  0  0
  184.0110  178.7200  138.1210 N   0  0  0  0  0  2  0  0  0  0  0  0
  182.8890  177.7930  138.1430 C   0  0  0  0  0  2  0  0  0  0  0  0
  181.1300  179.1390  139.9910 C   0  0  0  0  0  1  0  0  0  0  0  0
  181.6070  177.7470  140.3830 C   0  0  2  0  0  3  0  0  0  0  0  0
  180.9290  175.6300  139.7130 C   0  0  0  0  0  2  0  0  0  0  0  0
  182.3730  175.6960  139.3560 C   0  0  0  0  0  2  0  0  0  0  0  0
  182.7480  177.1620  139.5280 C   0  0  1  0  0  3  0  0  0  0  0  0
  180.5070  176.7560  140.2680 C   0  0  0  0  0  2  0  0  0  0  0  0
  1 12  2  0  0  0  0
  2  8  2  0  0  0  0
  3 11  1  0  0  0  0
  4 14  1  0  0  0  0
  5 10  1  0  0  0  0
  6  5  2  0  0  0  0
  6  2  1  0  0  0  0
  7 16  1  0  0  0  0
  7 17  1  0  0  0  0
  8  1  1  0  0  0  0
  8  3  1  0  0  0  0
  9  4  1  0  0  0  0
 10  1  1  0  0  0  0
 11 18  2  0  0  0  0
 11 15  1  0  0  0  0
 12 18  1  0  0  0  0
 13  2  1  0  0  0  0
 14 15  2  0  0  0  0
 15 21  1  0  0  0  0
 16 26  1  6  0  0  0
 16  9  1  0  0  0  0
 17  3  2  0  0  0  0
 17  4  1  0  0  0  0
 19 25  1  0  0  0  0
 19 20  1  0  0  0  0
 21 23  1  0  0  0  0
 21 24  2  0  0  0  0
 22 20  2  0  0  0  0
 23 19  2  0  0  0  0
 24 22  1  0  0  0  0
 27 28  1  0  0  0  0
 27 26  1  0  0  0  0
 30 29  1  6  0  0  0
 31 34  1  0  0  0  0
 32 33  1  0  0  0  0
 32 31  1  0  0  0  0
 33 28  1  6  0  0  0
 33 30  1  0  0  0  0
 34 30  1  0  0  0  0
M  END
>  <MODEL>
9

>  <REMARK>
 VINA RESULT:      -8.7      3.202      8.152
  Name = 
  5 active torsions:
  status: ('A' for Active; 'I' for Inactive)
    1  A    between atoms: N_3  and  C_13
    2  A    between atoms: N_3  and  C_17
    3  A    between atoms: C_12  and  C_28
    4  A    between atoms: C_13  and  C_33
    5  A    between atoms: C_17  and  C_29
                            x       y       z     vdW  Elec       q    Type
                         _______ _______ _______ _____ _____    ______ ____

>  <TORSDO>
F 5

$$$$
