=
 OpenBabel11052413113D

 31 33  0  0  1  0  0  0  0  0999 V2000
  189.7110  177.3070  146.7800 C   0  0  0  0  0  0  0  0  0  0  0  0
  188.8540  177.8210  144.3680 C   0  0  0  0  0  0  0  0  0  0  0  0
  190.9840  176.5670  146.9780 C   0  0  0  0  0  1  0  0  0  0  0  0
  189.2850  177.5620  145.5750 C   0  0  0  0  0  0  0  0  0  0  0  0
  187.4520  177.4960  143.9980 C   0  0  0  0  0  0  0  0  0  0  0  0
  187.1830  176.3560  143.5280 O   0  0  0  0  0  0  0  0  0  0  0  0
  186.3160  178.4660  144.1610 C   0  0  2  0  0  3  0  0  0  0  0  0
  184.3090  179.0450  145.5560 C   0  0  0  0  0  2  0  0  0  0  0  0
  185.6660  178.3640  145.5460 C   0  0  0  0  0  2  0  0  0  0  0  0
  183.4450  178.3720  144.5000 C   0  0  0  0  0  2  0  0  0  0  0  0
  184.0580  178.4700  143.1910 N   0  0  0  0  0  0  0  0  0  0  0  0
  185.3390  178.4390  142.9980 C   0  0  0  0  0  0  0  0  0  0  0  0
  186.6580  179.7420  141.5140 O   0  0  0  0  0  1  0  0  0  0  0  0
  184.7410  178.6690  140.6000 C   0  0  0  0  0  1  0  0  0  0  0  0
  185.8720  178.5940  141.6050 C   0  0  2  0  0  3  0  0  0  0  0  0
  188.9570  177.7580  147.9160 C   0  0  0  0  0  0  0  0  0  0  0  0
  188.3240  178.1410  148.8670 C   0  0  0  0  0  3  0  0  0  0  0  0
  189.8540  178.2980  143.3610 C   0  0  0  0  0  2  0  0  0  0  0  0
  190.7610  177.1740  142.8780 C   0  0  0  0  0  2  0  0  0  0  0  0
  190.2710  176.6030  141.5590 C   0  0  0  0  0  2  0  0  0  0  0  0
  189.4150  177.6210  140.8260 C   0  0  0  0  0  2  0  0  0  0  0  0
  186.9560  176.3440  136.3320 C   0  0  1  0  0  3  0  0  0  0  0  0
  187.6220  177.9960  138.1340 C   0  0  0  0  0  2  0  0  0  0  0  0
  190.3540  175.6370  138.0050 C   0  0  0  0  0  2  0  0  0  0  0  0
  190.8410  176.6040  139.0710 C   0  0  0  0  0  2  0  0  0  0  0  0
  185.9020  175.5630  135.8620 O   0  0  0  0  0  1  0  0  0  0  0  0
  189.6720  177.5540  139.3310 C   0  0  1  0  0  3  0  0  0  0  0  0
  186.4490  177.2950  137.4320 C   0  0  0  0  0  2  0  0  0  0  0  0
  189.1200  176.3260  137.4970 C   0  0  2  0  0  3  0  0  0  0  0  0
  188.5250  176.9730  138.6480 N   0  0  2  0  0  0  0  0  0  0  0  0
  188.0870  175.4350  136.8300 C   0  0  0  0  0  2  0  0  0  0  0  0
  1  3  1  0  0  0  0
  1 16  1  0  0  0  0
  2  4  2  0  0  0  0
  4  1  2  0  0  0  0
  5  2  1  0  0  0  0
  6  5  2  0  0  0  0
  7  5  1  6  0  0  0
  7  9  1  0  0  0  0
  9  8  1  0  0  0  0
 10  8  1  0  0  0  0
 11 10  1  0  0  0  0
 12 11  2  0  0  0  0
 12  7  1  0  0  0  0
 13 15  1  0  0  0  0
 15 14  1  6  0  0  0
 15 12  1  0  0  0  0
 16 17  3  0  0  0  0
 18  2  1  0  0  0  0
 19 18  1  0  0  0  0
 20 19  1  0  0  0  0
 21 20  1  0  0  0  0
 22 26  1  1  0  0  0
 22 31  1  0  0  0  0
 22 28  1  0  0  0  0
 24 25  1  0  0  0  0
 25 27  1  0  0  0  0
 27 21  1  1  0  0  0
 28 23  1  0  0  0  0
 29 31  1  1  0  0  0
 29 24  1  0  0  0  0
 29 30  1  0  0  0  0
 30 23  1  6  0  0  0
 30 27  1  0  0  0  0
M  END
>  <MODEL>
1

>  <REMARK>
 VINA RESULT:      -8.0      0.000      0.000
  Name = 
  9 active torsions:
  status: ('A' for Active; 'I' for Inactive)
    1  A    between atoms: C_2  and  C_13
    2  A    between atoms: C_4  and  C_5
    3  A    between atoms: C_4  and  C_12
    4  A    between atoms: C_9  and  C_23
    5  A    between atoms: C_12  and  C_27
    6  A    between atoms: C_15  and  C_20
    7  A    between atoms: C_15  and  C_23
    8  A    between atoms: C_20  and  C_27
    9  A    between atoms: C_30  and  C_31
                            x       y       z     vdW  Elec       q    Type
                         _______ _______ _______ _____ _____    ______ ____

>  <TORSDO>
F 9

$$$$
=
 OpenBabel11052413113D

 31 33  0  0  1  0  0  0  0  0999 V2000
  183.9040  178.4940  140.8950 C   0  0  0  0  0  0  0  0  0  0  0  0
  182.0000  178.9010  142.6350 C   0  0  0  0  0  0  0  0  0  0  0  0
  185.2720  179.0110  141.1510 C   0  0  0  0  0  1  0  0  0  0  0  0
  182.9550  178.6990  141.7650 C   0  0  0  0  0  0  0  0  0  0  0  0
  180.6950  179.4510  142.1860 C   0  0  0  0  0  0  0  0  0  0  0  0
  180.3260  180.5870  142.5950 O   0  0  0  0  0  0  0  0  0  0  0  0
  179.7760  178.7180  141.2490 C   0  0  2  0  0  3  0  0  0  0  0  0
  179.0490  176.4460  140.4630 C   0  0  0  0  0  2  0  0  0  0  0  0
  179.6430  177.2350  141.6160 C   0  0  0  0  0  2  0  0  0  0  0  0
  179.9620  176.6280  139.2590 C   0  0  0  0  0  2  0  0  0  0  0  0
  180.0860  178.0280  138.9110 N   0  0  0  0  0  0  0  0  0  0  0  0
  180.0830  178.9850  139.7850 C   0  0  0  0  0  0  0  0  0  0  0  0
  179.1640  180.6730  138.3900 O   0  0  0  0  0  1  0  0  0  0  0  0
  181.5250  180.6820  138.6890 C   0  0  0  0  0  1  0  0  0  0  0  0
  180.1730  180.4050  139.3150 C   0  0  2  0  0  3  0  0  0  0  0  0
  183.6280  177.7520  139.6970 C   0  0  0  0  0  0  0  0  0  0  0  0
  183.3920  177.1300  138.6920 C   0  0  0  0  0  3  0  0  0  0  0  0
  182.3280  178.7080  144.0830 C   0  0  0  0  0  2  0  0  0  0  0  0
  183.6270  179.4030  144.4730 C   0  0  0  0  0  2  0  0  0  0  0  0
  184.2730  178.7260  145.6690 C   0  0  0  0  0  2  0  0  0  0  0  0
  185.7650  179.0040  145.6920 C   0  0  0  0  0  2  0  0  0  0  0  0
  190.3960  176.8460  147.0240 C   0  0  1  0  0  3  0  0  0  0  0  0
  187.9490  177.3450  147.4480 C   0  0  0  0  0  2  0  0  0  0  0  0
  188.2380  177.1940  143.8510 C   0  0  0  0  0  2  0  0  0  0  0  0
  186.7510  177.4570  144.0230 C   0  0  0  0  0  2  0  0  0  0  0  0
  191.6920  177.2080  147.3850 O   0  0  0  0  0  1  0  0  0  0  0  0
  186.5490  177.7140  145.5160 C   0  0  1  0  0  3  0  0  0  0  0  0
  189.3840  177.5300  147.9620 C   0  0  0  0  0  2  0  0  0  0  0  0
  188.6800  176.9630  145.2670 C   0  0  2  0  0  3  0  0  0  0  0  0
  187.8820  177.8530  146.0840 N   0  0  2  0  0  0  0  0  0  0  0  0
  190.1530  177.2040  145.5520 C   0  0  0  0  0  2  0  0  0  0  0  0
  1  3  1  0  0  0  0
  1  4  2  0  0  0  0
  2 18  1  0  0  0  0
  4  2  2  0  0  0  0
  5  6  2  0  0  0  0
  5  2  1  0  0  0  0
  7  9  1  0  0  0  0
  7  5  1  1  0  0  0
  8  9  1  0  0  0  0
 10  8  1  0  0  0  0
 11 10  1  0  0  0  0
 11 12  2  0  0  0  0
 12  7  1  0  0  0  0
 13 15  1  0  0  0  0
 15 14  1  6  0  0  0
 15 12  1  0  0  0  0
 16  1  1  0  0  0  0
 17 16  3  0  0  0  0
 18 19  1  0  0  0  0
 19 20  1  0  0  0  0
 20 21  1  0  0  0  0
 22 26  1  1  0  0  0
 22 28  1  0  0  0  0
 23 28  1  0  0  0  0
 24 25  1  0  0  0  0
 25 27  1  0  0  0  0
 27 21  1  6  0  0  0
 27 30  1  0  0  0  0
 29 24  1  6  0  0  0
 29 31  1  0  0  0  0
 29 30  1  0  0  0  0
 30 23  1  1  0  0  0
 31 22  1  0  0  0  0
M  END
>  <MODEL>
2

>  <REMARK>
 VINA RESULT:      -7.9      3.951      8.121
  Name = 
  9 active torsions:
  status: ('A' for Active; 'I' for Inactive)
    1  A    between atoms: C_2  and  C_13
    2  A    between atoms: C_4  and  C_5
    3  A    between atoms: C_4  and  C_12
    4  A    between atoms: C_9  and  C_23
    5  A    between atoms: C_12  and  C_27
    6  A    between atoms: C_15  and  C_20
    7  A    between atoms: C_15  and  C_23
    8  A    between atoms: C_20  and  C_27
    9  A    between atoms: C_30  and  C_31
                            x       y       z     vdW  Elec       q    Type
                         _______ _______ _______ _____ _____    ______ ____

>  <TORSDO>
F 9

$$$$
=
 OpenBabel11052413113D

 31 33  0  0  1  0  0  0  0  0999 V2000
  189.3660  177.6220  147.1700 C   0  0  0  0  0  0  0  0  0  0  0  0
  187.5170  177.1260  145.3930 C   0  0  0  0  0  0  0  0  0  0  0  0
  189.2780  178.8370  148.0200 C   0  0  0  0  0  1  0  0  0  0  0  0
  188.4420  177.3770  146.2830 C   0  0  0  0  0  0  0  0  0  0  0  0
  187.9050  176.8010  143.9960 C   0  0  0  0  0  0  0  0  0  0  0  0
  187.7470  175.6260  143.5660 O   0  0  0  0  0  0  0  0  0  0  0  0
  188.4780  177.8170  143.0480 C   0  0  2  0  0  3  0  0  0  0  0  0
  188.3200  178.7610  140.7260 C   0  0  0  0  0  2  0  0  0  0  0  0
  187.5660  178.0550  141.8390 C   0  0  0  0  0  2  0  0  0  0  0  0
  189.5080  177.8900  140.3470 C   0  0  0  0  0  2  0  0  0  0  0  0
  190.3710  177.6670  141.4890 N   0  0  0  0  0  0  0  0  0  0  0  0
  189.9340  177.5540  142.7030 C   0  0  0  0  0  0  0  0  0  0  0  0
  191.8200  178.4290  143.8490 O   0  0  0  0  0  1  0  0  0  0  0  0
  191.6700  176.0620  143.6640 C   0  0  0  0  0  1  0  0  0  0  0  0
  190.9170  177.3680  143.8200 C   0  0  2  0  0  3  0  0  0  0  0  0
  190.4590  176.7060  147.3360 C   0  0  0  0  0  0  0  0  0  0  0  0
  191.3790  175.9410  147.4760 C   0  0  0  0  0  3  0  0  0  0  0  0
  186.0910  177.3340  145.7970 C   0  0  0  0  0  2  0  0  0  0  0  0
  185.6740  178.7960  145.6970 C   0  0  0  0  0  2  0  0  0  0  0  0
  185.1150  179.1130  144.3220 C   0  0  0  0  0  2  0  0  0  0  0  0
  183.6440  179.4780  144.4190 C   0  0  0  0  0  2  0  0  0  0  0  0
  182.3920  178.8120  139.3330 C   0  0  1  0  0  3  0  0  0  0  0  0
  183.8540  178.3870  141.3570 C   0  0  0  0  0  2  0  0  0  0  0  0
  180.5500  178.9210  142.7160 C   0  0  0  0  0  2  0  0  0  0  0  0
  181.3520  178.6400  143.9760 C   0  0  0  0  0  2  0  0  0  0  0  0
  182.3120  179.5250  138.1380 O   0  0  0  0  0  1  0  0  0  0  0  0
  182.8120  178.5710  143.5280 C   0  0  1  0  0  3  0  0  0  0  0  0
  183.8030  178.9580  139.9330 C   0  0  0  0  0  2  0  0  0  0  0  0
  181.5510  178.6280  141.6360 C   0  0  2  0  0  3  0  0  0  0  0  0
  182.8340  179.0560  142.1560 N   0  0  2  0  0  0  0  0  0  0  0  0
  181.3020  179.2990  140.2970 C   0  0  0  0  0  2  0  0  0  0  0  0
  1 16  1  0  0  0  0
  1  3  1  0  0  0  0
  2 18  1  0  0  0  0
  2  4  2  0  0  0  0
  4  1  2  0  0  0  0
  5  2  1  0  0  0  0
  6  5  2  0  0  0  0
  7  5  1  6  0  0  0
  8  9  1  0  0  0  0
  9  7  1  0  0  0  0
 10  8  1  0  0  0  0
 10 11  1  0  0  0  0
 11 12  2  0  0  0  0
 12  7  1  0  0  0  0
 12 15  1  0  0  0  0
 15 14  1  6  0  0  0
 15 13  1  0  0  0  0
 16 17  3  0  0  0  0
 19 18  1  0  0  0  0
 20 21  1  0  0  0  0
 20 19  1  0  0  0  0
 22 26  1  6  0  0  0
 22 28  1  0  0  0  0
 22 31  1  0  0  0  0
 24 25  1  0  0  0  0
 27 25  1  0  0  0  0
 27 21  1  1  0  0  0
 28 23  1  0  0  0  0
 29 31  1  6  0  0  0
 29 30  1  0  0  0  0
 29 24  1  0  0  0  0
 30 23  1  6  0  0  0
 30 27  1  0  0  0  0
M  END
>  <MODEL>
3

>  <REMARK>
 VINA RESULT:      -7.6      2.498      6.014
  Name = 
  9 active torsions:
  status: ('A' for Active; 'I' for Inactive)
    1  A    between atoms: C_2  and  C_13
    2  A    between atoms: C_4  and  C_5
    3  A    between atoms: C_4  and  C_12
    4  A    between atoms: C_9  and  C_23
    5  A    between atoms: C_12  and  C_27
    6  A    between atoms: C_15  and  C_20
    7  A    between atoms: C_15  and  C_23
    8  A    between atoms: C_20  and  C_27
    9  A    between atoms: C_30  and  C_31
                            x       y       z     vdW  Elec       q    Type
                         _______ _______ _______ _____ _____    ______ ____

>  <TORSDO>
F 9

$$$$
=
 OpenBabel11052413113D

 31 33  0  0  1  0  0  0  0  0999 V2000
  180.6970  178.9670  143.2660 C   0  0  0  0  0  0  0  0  0  0  0  0
  183.1350  178.6700  142.3800 C   0  0  0  0  0  0  0  0  0  0  0  0
  180.1750  178.0710  144.3300 C   0  0  0  0  0  1  0  0  0  0  0  0
  181.9140  178.8160  142.8250 C   0  0  0  0  0  0  0  0  0  0  0  0
  183.3850  178.5930  140.9170 C   0  0  0  0  0  0  0  0  0  0  0  0
  184.4210  179.1280  140.4350 O   0  0  0  0  0  0  0  0  0  0  0  0
  182.4560  177.8930  139.9640 C   0  0  2  0  0  3  0  0  0  0  0  0
  182.2920  176.0830  138.2310 C   0  0  0  0  0  2  0  0  0  0  0  0
  183.0390  176.5680  139.4610 C   0  0  0  0  0  2  0  0  0  0  0  0
  182.4020  177.1640  137.1670 C   0  0  0  0  0  2  0  0  0  0  0  0
  181.8500  178.4160  137.6420 N   0  0  0  0  0  0  0  0  0  0  0  0
  181.9230  178.8070  138.8740 C   0  0  0  0  0  0  0  0  0  0  0  0
  179.9200  180.0800  138.9560 O   0  0  0  0  0  1  0  0  0  0  0  0
  181.9440  181.2720  138.5750 C   0  0  0  0  0  1  0  0  0  0  0  0
  181.2780  180.1010  139.2710 C   0  0  2  0  0  3  0  0  0  0  0  0
  179.8680  180.0120  142.7360 C   0  0  0  0  0  0  0  0  0  0  0  0
  179.1690  180.8860  142.2890 C   0  0  0  0  0  3  0  0  0  0  0  0
  184.2170  178.4290  143.3870 C   0  0  0  0  0  2  0  0  0  0  0  0
  183.9040  179.0760  144.7300 C   0  0  0  0  0  2  0  0  0  0  0  0
  184.6850  178.4160  145.8520 C   0  0  0  0  0  2  0  0  0  0  0  0
  185.9840  177.8340  145.3220 C   0  0  0  0  0  2  0  0  0  0  0  0
  191.1070  176.8820  146.1680 C   0  0  1  0  0  3  0  0  0  0  0  0
  189.2070  177.9370  144.8680 C   0  0  0  0  0  2  0  0  0  0  0  0
  188.0050  177.7760  148.2700 C   0  0  0  0  0  2  0  0  0  0  0  0
  186.8350  178.4470  147.5690 C   0  0  0  0  0  2  0  0  0  0  0  0
  192.0280  175.8360  146.1560 O   0  0  0  0  0  1  0  0  0  0  0  0
  187.1710  178.4060  146.0780 C   0  0  1  0  0  3  0  0  0  0  0  0
  190.3860  176.9570  144.8090 C   0  0  0  0  0  2  0  0  0  0  0  0
  189.0440  177.7460  147.1860 C   0  0  2  0  0  3  0  0  0  0  0  0
  188.3220  177.5240  145.9500 N   0  0  2  0  0  0  0  0  0  0  0  0
  190.1270  176.6910  147.3320 C   0  0  0  0  0  2  0  0  0  0  0  0
  1  3  1  0  0  0  0
  2  4  2  0  0  0  0
  2 18  1  0  0  0  0
  4  1  2  0  0  0  0
  5  2  1  0  0  0  0
  6  5  2  0  0  0  0
  7  5  1  6  0  0  0
  8  9  1  0  0  0  0
  9  7  1  0  0  0  0
 10 11  1  0  0  0  0
 10  8  1  0  0  0  0
 11 12  2  0  0  0  0
 12 15  1  0  0  0  0
 12  7  1  0  0  0  0
 13 15  1  0  0  0  0
 15 14  1  6  0  0  0
 16  1  1  0  0  0  0
 17 16  3  0  0  0  0
 18 19  1  0  0  0  0
 19 20  1  0  0  0  0
 21 20  1  0  0  0  0
 22 26  1  6  0  0  0
 22 31  1  0  0  0  0
 25 24  1  0  0  0  0
 27 21  1  6  0  0  0
 27 25  1  0  0  0  0
 28 23  1  0  0  0  0
 28 22  1  0  0  0  0
 29 31  1  1  0  0  0
 29 24  1  0  0  0  0
 30 23  1  6  0  0  0
 30 27  1  0  0  0  0
 30 29  1  0  0  0  0
M  END
>  <MODEL>
4

>  <REMARK>
 VINA RESULT:      -7.6      3.794      8.158
  Name = 
  9 active torsions:
  status: ('A' for Active; 'I' for Inactive)
    1  A    between atoms: C_2  and  C_13
    2  A    between atoms: C_4  and  C_5
    3  A    between atoms: C_4  and  C_12
    4  A    between atoms: C_9  and  C_23
    5  A    between atoms: C_12  and  C_27
    6  A    between atoms: C_15  and  C_20
    7  A    between atoms: C_15  and  C_23
    8  A    between atoms: C_20  and  C_27
    9  A    between atoms: C_30  and  C_31
                            x       y       z     vdW  Elec       q    Type
                         _______ _______ _______ _____ _____    ______ ____

>  <TORSDO>
F 9

$$$$
=
 OpenBabel11052413113D

 31 33  0  0  1  0  0  0  0  0999 V2000
  186.8520  178.2260  142.2530 C   0  0  0  0  0  0  0  0  0  0  0  0
  189.1120  177.2930  143.1690 C   0  0  0  0  0  0  0  0  0  0  0  0
  186.7600  178.7210  140.8550 C   0  0  0  0  0  1  0  0  0  0  0  0
  187.9810  177.7610  142.7080 C   0  0  0  0  0  0  0  0  0  0  0  0
  189.6440  177.7870  144.4650 C   0  0  0  0  0  0  0  0  0  0  0  0
  190.4550  178.7530  144.4750 O   0  0  0  0  0  0  0  0  0  0  0  0
  189.2550  177.1920  145.7900 C   0  0  2  0  0  3  0  0  0  0  0  0
  187.7550  177.4570  147.7870 C   0  0  0  0  0  2  0  0  0  0  0  0
  187.9290  177.7590  146.3090 C   0  0  0  0  0  2  0  0  0  0  0  0
  188.9350  178.0710  148.5260 C   0  0  0  0  0  2  0  0  0  0  0  0
  190.1880  177.5330  148.0370 N   0  0  0  0  0  0  0  0  0  0  0  0
  190.3890  177.2000  146.8010 C   0  0  0  0  0  0  0  0  0  0  0  0
  191.5520  175.7590  145.3160 O   0  0  0  0  0  1  0  0  0  0  0  0
  192.3270  175.8490  147.5640 C   0  0  0  0  0  1  0  0  0  0  0  0
  191.7100  176.6110  146.4080 C   0  0  2  0  0  3  0  0  0  0  0  0
  185.6920  178.2430  143.0990 C   0  0  0  0  0  0  0  0  0  0  0  0
  184.7170  178.2620  143.8070 C   0  0  0  0  0  3  0  0  0  0  0  0
  189.9000  176.3820  142.2790 C   0  0  0  0  0  2  0  0  0  0  0  0
  190.7730  177.1540  141.2980 C   0  0  0  0  0  2  0  0  0  0  0  0
  190.5350  176.6940  139.8720 C   0  0  0  0  0  2  0  0  0  0  0  0
  189.7770  177.7540  139.0920 C   0  0  0  0  0  2  0  0  0  0  0  0
  185.4230  176.0220  136.6610 C   0  0  1  0  0  3  0  0  0  0  0  0
  187.0380  177.8540  137.3330 C   0  0  0  0  0  2  0  0  0  0  0  0
  189.0820  174.8860  137.0750 C   0  0  0  0  0  2  0  0  0  0  0  0
  190.1180  175.9350  137.4410 C   0  0  0  0  0  2  0  0  0  0  0  0
  184.1760  175.4680  136.9430 O   0  0  0  0  0  1  0  0  0  0  0  0
  189.3270  177.2060  137.7480 C   0  0  1  0  0  3  0  0  0  0  0  0
  185.5940  177.3430  137.4340 C   0  0  0  0  0  2  0  0  0  0  0  0
  187.8560  175.7240  136.8490 C   0  0  2  0  0  3  0  0  0  0  0  0
  187.9300  176.8040  137.8110 N   0  0  2  0  0  0  0  0  0  0  0  0
  186.5240  175.0090  136.9970 C   0  0  0  0  0  2  0  0  0  0  0  0
  1  4  2  0  0  0  0
  1 16  1  0  0  0  0
  2  5  1  0  0  0  0
  3  1  1  0  0  0  0
  4  2  2  0  0  0  0
  5  6  2  0  0  0  0
  7  5  1  6  0  0  0
  7  9  1  0  0  0  0
  7 12  1  0  0  0  0
  8 10  1  0  0  0  0
  9  8  1  0  0  0  0
 11 10  1  0  0  0  0
 12 11  2  0  0  0  0
 13 15  1  0  0  0  0
 15 12  1  0  0  0  0
 15 14  1  1  0  0  0
 16 17  3  0  0  0  0
 18  2  1  0  0  0  0
 19 18  1  0  0  0  0
 20 19  1  0  0  0  0
 21 20  1  0  0  0  0
 22 26  1  1  0  0  0
 22 31  1  0  0  0  0
 22 28  1  0  0  0  0
 23 28  1  0  0  0  0
 24 25  1  0  0  0  0
 25 27  1  0  0  0  0
 27 30  1  0  0  0  0
 27 21  1  1  0  0  0
 29 31  1  1  0  0  0
 29 24  1  0  0  0  0
 29 30  1  0  0  0  0
 30 23  1  6  0  0  0
M  END
>  <MODEL>
5

>  <REMARK>
 VINA RESULT:      -7.5      2.091      4.584
  Name = 
  9 active torsions:
  status: ('A' for Active; 'I' for Inactive)
    1  A    between atoms: C_2  and  C_13
    2  A    between atoms: C_4  and  C_5
    3  A    between atoms: C_4  and  C_12
    4  A    between atoms: C_9  and  C_23
    5  A    between atoms: C_12  and  C_27
    6  A    between atoms: C_15  and  C_20
    7  A    between atoms: C_15  and  C_23
    8  A    between atoms: C_20  and  C_27
    9  A    between atoms: C_30  and  C_31
                            x       y       z     vdW  Elec       q    Type
                         _______ _______ _______ _____ _____    ______ ____

>  <TORSDO>
F 9

$$$$
=
 OpenBabel11052413113D

 31 33  0  0  1  0  0  0  0  0999 V2000
  187.6620  177.9260  137.9010 C   0  0  0  0  0  0  0  0  0  0  0  0
  186.3450  178.5460  140.0680 C   0  0  0  0  0  0  0  0  0  0  0  0
  188.9550  178.5920  137.5960 C   0  0  0  0  0  1  0  0  0  0  0  0
  187.0070  178.2380  138.9830 C   0  0  0  0  0  0  0  0  0  0  0  0
  184.9000  178.8830  139.9820 C   0  0  0  0  0  0  0  0  0  0  0  0
  184.5520  180.0260  139.5760 O   0  0  0  0  0  0  0  0  0  0  0  0
  183.8110  177.9160  140.3540 C   0  0  2  0  0  3  0  0  0  0  0  0
  181.7330  176.7670  139.5350 C   0  0  0  0  0  2  0  0  0  0  0  0
  183.0460  177.4100  139.1250 C   0  0  0  0  0  2  0  0  0  0  0  0
  180.9220  177.8100  140.2890 C   0  0  0  0  0  2  0  0  0  0  0  0
  181.6440  178.2860  141.4510 N   0  0  0  0  0  0  0  0  0  0  0  0
  182.9320  178.4170  141.4870 C   0  0  0  0  0  0  0  0  0  0  0  0
  184.5010  177.9250  143.2000 O   0  0  0  0  0  1  0  0  0  0  0  0
  182.5490  179.1310  143.8340 C   0  0  0  0  0  1  0  0  0  0  0  0
  183.5840  178.8770  142.7560 C   0  0  2  0  0  3  0  0  0  0  0  0
  187.1430  176.9240  137.0120 C   0  0  0  0  0  0  0  0  0  0  0  0
  186.7090  176.0870  136.2630 C   0  0  0  0  0  3  0  0  0  0  0  0
  187.1250  178.6960  141.3370 C   0  0  0  0  0  2  0  0  0  0  0  0
  188.5660  178.2280  141.1830 C   0  0  0  0  0  2  0  0  0  0  0  0
  188.8240  176.9710  141.9940 C   0  0  0  0  0  2  0  0  0  0  0  0
  187.8390  176.8710  143.1450 C   0  0  0  0  0  2  0  0  0  0  0  0
  191.4250  176.7420  147.0190 C   0  0  1  0  0  3  0  0  0  0  0  0
  190.6790  177.3350  144.6720 C   0  0  0  0  0  2  0  0  0  0  0  0
  187.6670  177.5120  146.6580 C   0  0  0  0  0  2  0  0  0  0  0  0
  187.1470  177.9120  145.2870 C   0  0  0  0  0  2  0  0  0  0  0  0
  192.1840  175.8370  147.7580 O   0  0  0  0  0  1  0  0  0  0  0  0
  188.3170  177.7000  144.3260 C   0  0  1  0  0  3  0  0  0  0  0  0
  191.6710  176.5220  145.5140 C   0  0  0  0  0  2  0  0  0  0  0  0
  189.1500  177.4630  146.4280 C   0  0  2  0  0  3  0  0  0  0  0  0
  189.3270  176.9700  145.0780 N   0  0  2  0  0  0  0  0  0  0  0  0
  189.9430  176.5940  147.3890 C   0  0  0  0  0  2  0  0  0  0  0  0
  1  4  2  0  0  0  0
  2 18  1  0  0  0  0
  3  1  1  0  0  0  0
  4  2  2  0  0  0  0
  5  2  1  0  0  0  0
  6  5  2  0  0  0  0
  7  5  1  6  0  0  0
  7 12  1  0  0  0  0
  8 10  1  0  0  0  0
  9  8  1  0  0  0  0
  9  7  1  0  0  0  0
 10 11  1  0  0  0  0
 11 12  2  0  0  0  0
 12 15  1  0  0  0  0
 15 13  1  0  0  0  0
 15 14  1  1  0  0  0
 16  1  1  0  0  0  0
 17 16  3  0  0  0  0
 19 18  1  0  0  0  0
 19 20  1  0  0  0  0
 20 21  1  0  0  0  0
 22 31  1  0  0  0  0
 22 26  1  1  0  0  0
 23 28  1  0  0  0  0
 25 24  1  0  0  0  0
 27 21  1  6  0  0  0
 27 30  1  0  0  0  0
 27 25  1  0  0  0  0
 28 22  1  0  0  0  0
 29 24  1  1  0  0  0
 29 31  1  0  0  0  0
 30 23  1  6  0  0  0
 30 29  1  0  0  0  0
M  END
>  <MODEL>
6

>  <REMARK>
 VINA RESULT:      -7.5      2.388      7.392
  Name = 
  9 active torsions:
  status: ('A' for Active; 'I' for Inactive)
    1  A    between atoms: C_2  and  C_13
    2  A    between atoms: C_4  and  C_5
    3  A    between atoms: C_4  and  C_12
    4  A    between atoms: C_9  and  C_23
    5  A    between atoms: C_12  and  C_27
    6  A    between atoms: C_15  and  C_20
    7  A    between atoms: C_15  and  C_23
    8  A    between atoms: C_20  and  C_27
    9  A    between atoms: C_30  and  C_31
                            x       y       z     vdW  Elec       q    Type
                         _______ _______ _______ _____ _____    ______ ____

>  <TORSDO>
F 9

$$$$
=
 OpenBabel11052413113D

 31 33  0  0  1  0  0  0  0  0999 V2000
  191.2420  177.1050  139.6320 C   0  0  0  0  0  0  0  0  0  0  0  0
  188.8600  178.1110  139.2670 C   0  0  0  0  0  0  0  0  0  0  0  0
  192.0440  177.4960  140.8200 C   0  0  0  0  0  1  0  0  0  0  0  0
  190.0540  177.6090  139.4520 C   0  0  0  0  0  0  0  0  0  0  0  0
  188.5020  178.7040  137.9530 C   0  0  0  0  0  0  0  0  0  0  0  0
  189.0520  179.7790  137.5870 O   0  0  0  0  0  0  0  0  0  0  0  0
  187.5080  178.0770  137.0150 C   0  0  2  0  0  3  0  0  0  0  0  0
  185.1980  177.1050  136.8390 C   0  0  0  0  0  2  0  0  0  0  0  0
  186.0910  178.0700  137.6000 C   0  0  0  0  0  2  0  0  0  0  0  0
  185.8290  175.7240  136.9270 C   0  0  0  0  0  2  0  0  0  0  0  0
  187.1680  175.7300  136.3730 N   0  0  0  0  0  0  0  0  0  0  0  0
  187.9730  176.7410  136.4610 C   0  0  0  0  0  0  0  0  0  0  0  0
  189.3830  177.5180  134.7160 O   0  0  0  0  0  1  0  0  0  0  0  0
  189.6240  175.2420  135.3690 C   0  0  0  0  0  1  0  0  0  0  0  0
  189.3220  176.6600  135.8130 C   0  0  2  0  0  3  0  0  0  0  0  0
  191.7680  176.1580  138.6900 C   0  0  0  0  0  0  0  0  0  0  0  0
  192.2130  175.3620  137.9020 C   0  0  0  0  0  3  0  0  0  0  0  0
  187.9540  178.2010  140.4560 C   0  0  0  0  0  2  0  0  0  0  0  0
  188.7140  178.0590  141.7680 C   0  0  0  0  0  2  0  0  0  0  0  0
  188.5190  176.6780  142.3680 C   0  0  0  0  0  2  0  0  0  0  0  0
  187.6200  176.7540  143.5900 C   0  0  0  0  0  2  0  0  0  0  0  0
  191.6070  176.7350  147.0500 C   0  0  1  0  0  3  0  0  0  0  0  0
  190.6220  177.2120  144.7660 C   0  0  0  0  0  2  0  0  0  0  0  0
  187.8550  177.6080  147.0530 C   0  0  0  0  0  2  0  0  0  0  0  0
  187.1980  177.9430  145.7250 C   0  0  0  0  0  2  0  0  0  0  0  0
  192.4190  175.8500  147.7570 O   0  0  0  0  0  1  0  0  0  0  0  0
  188.2470  177.6350  144.6570 C   0  0  1  0  0  3  0  0  0  0  0  0
  191.6800  176.4180  145.5440 C   0  0  0  0  0  2  0  0  0  0  0  0
  189.3020  177.4950  146.6670 C   0  0  2  0  0  3  0  0  0  0  0  0
  189.3140  176.9170  145.3380 N   0  0  2  0  0  0  0  0  0  0  0  0
  190.1730  176.6590  147.5870 C   0  0  0  0  0  2  0  0  0  0  0  0
  1  3  1  0  0  0  0
  2  4  2  0  0  0  0
  2 18  1  0  0  0  0
  4  1  2  0  0  0  0
  5  2  1  0  0  0  0
  6  5  2  0  0  0  0
  7  9  1  0  0  0  0
  7  5  1  1  0  0  0
  8 10  1  0  0  0  0
  8  9  1  0  0  0  0
 11 12  2  0  0  0  0
 11 10  1  0  0  0  0
 12  7  1  0  0  0  0
 13 15  1  0  0  0  0
 15 14  1  6  0  0  0
 15 12  1  0  0  0  0
 16  1  1  0  0  0  0
 17 16  3  0  0  0  0
 18 19  1  0  0  0  0
 19 20  1  0  0  0  0
 20 21  1  0  0  0  0
 22 31  1  0  0  0  0
 22 26  1  1  0  0  0
 23 28  1  0  0  0  0
 25 24  1  0  0  0  0
 27 21  1  6  0  0  0
 27 30  1  0  0  0  0
 27 25  1  0  0  0  0
 28 22  1  0  0  0  0
 29 24  1  1  0  0  0
 29 31  1  0  0  0  0
 30 23  1  6  0  0  0
 30 29  1  0  0  0  0
M  END
>  <MODEL>
7

>  <REMARK>
 VINA RESULT:      -7.4      2.639      7.983
  Name = 
  9 active torsions:
  status: ('A' for Active; 'I' for Inactive)
    1  A    between atoms: C_2  and  C_13
    2  A    between atoms: C_4  and  C_5
    3  A    between atoms: C_4  and  C_12
    4  A    between atoms: C_9  and  C_23
    5  A    between atoms: C_12  and  C_27
    6  A    between atoms: C_15  and  C_20
    7  A    between atoms: C_15  and  C_23
    8  A    between atoms: C_20  and  C_27
    9  A    between atoms: C_30  and  C_31
                            x       y       z     vdW  Elec       q    Type
                         _______ _______ _______ _____ _____    ______ ____

>  <TORSDO>
F 9

$$$$
=
 OpenBabel11052413113D

 31 33  0  0  1  0  0  0  0  0999 V2000
  187.3510  178.3300  140.2010 C   0  0  0  0  0  0  0  0  0  0  0  0
  184.7930  178.6840  140.5910 C   0  0  0  0  0  0  0  0  0  0  0  0
  188.3340  178.8300  141.1970 C   0  0  0  0  0  1  0  0  0  0  0  0
  186.0750  178.5080  140.3980 C   0  0  0  0  0  0  0  0  0  0  0  0
  183.9540  179.2570  139.5080 C   0  0  0  0  0  0  0  0  0  0  0  0
  184.1880  180.4260  139.0940 O   0  0  0  0  0  0  0  0  0  0  0  0
  182.8240  178.5040  138.8620 C   0  0  2  0  0  3  0  0  0  0  0  0
  181.8880  177.7120  136.6710 C   0  0  0  0  0  2  0  0  0  0  0  0
  183.1500  178.1060  137.4180 C   0  0  0  0  0  2  0  0  0  0  0  0
  180.9380  178.8990  136.7060 C   0  0  0  0  0  2  0  0  0  0  0  0
  180.6290  179.2740  138.0710 N   0  0  0  0  0  0  0  0  0  0  0  0
  181.4770  179.1810  139.0470 C   0  0  0  0  0  0  0  0  0  0  0  0
  180.5750  178.4290  141.1110 O   0  0  0  0  0  1  0  0  0  0  0  0
  179.9560  180.6110  140.3900 C   0  0  0  0  0  1  0  0  0  0  0  0
  181.0410  179.5540  140.4320 C   0  0  2  0  0  3  0  0  0  0  0  0
  187.8040  177.6340  139.0310 C   0  0  0  0  0  0  0  0  0  0  0  0
  188.1890  177.0490  138.0500 C   0  0  0  0  0  3  0  0  0  0  0  0
  184.2590  178.4370  141.9680 C   0  0  0  0  0  2  0  0  0  0  0  0
  185.1040  179.1140  143.0400 C   0  0  0  0  0  2  0  0  0  0  0  0
  185.2210  178.2420  144.2780 C   0  0  0  0  0  2  0  0  0  0  0  0
  186.5560  177.5180  144.2910 C   0  0  0  0  0  2  0  0  0  0  0  0
  191.3150  176.7670  146.4480 C   0  0  1  0  0  3  0  0  0  0  0  0
  189.7840  177.7200  144.6700 C   0  0  0  0  0  2  0  0  0  0  0  0
  187.7560  177.6110  147.6570 C   0  0  0  0  0  2  0  0  0  0  0  0
  186.7870  178.2210  146.6580 C   0  0  0  0  0  2  0  0  0  0  0  0
  192.2360  175.7540  146.7080 O   0  0  0  0  0  1  0  0  0  0  0  0
  187.4940  178.1510  145.3040 C   0  0  1  0  0  3  0  0  0  0  0  0
  190.9650  176.7800  144.9490 C   0  0  0  0  0  2  0  0  0  0  0  0
  189.0380  177.5870  146.8760 C   0  0  2  0  0  3  0  0  0  0  0  0
  188.6620  177.3070  145.5050 N   0  0  2  0  0  0  0  0  0  0  0  0
  190.0750  176.5750  147.3300 C   0  0  0  0  0  2  0  0  0  0  0  0
  1  4  2  0  0  0  0
  1  3  1  0  0  0  0
  2 18  1  0  0  0  0
  4  2  2  0  0  0  0
  5  2  1  0  0  0  0
  6  5  2  0  0  0  0
  7 12  1  0  0  0  0
  7  5  1  6  0  0  0
  8 10  1  0  0  0  0
  8  9  1  0  0  0  0
  9  7  1  0  0  0  0
 10 11  1  0  0  0  0
 11 12  2  0  0  0  0
 12 15  1  0  0  0  0
 15 14  1  6  0  0  0
 15 13  1  0  0  0  0
 16  1  1  0  0  0  0
 17 16  3  0  0  0  0
 18 19  1  0  0  0  0
 19 20  1  0  0  0  0
 20 21  1  0  0  0  0
 22 26  1  6  0  0  0
 22 31  1  0  0  0  0
 23 28  1  0  0  0  0
 25 24  1  0  0  0  0
 27 21  1  6  0  0  0
 27 30  1  0  0  0  0
 27 25  1  0  0  0  0
 28 22  1  0  0  0  0
 29 31  1  1  0  0  0
 29 24  1  0  0  0  0
 30 23  1  6  0  0  0
 30 29  1  0  0  0  0
M  END
>  <MODEL>
8

>  <REMARK>
 VINA RESULT:      -7.4      3.154      7.775
  Name = 
  9 active torsions:
  status: ('A' for Active; 'I' for Inactive)
    1  A    between atoms: C_2  and  C_13
    2  A    between atoms: C_4  and  C_5
    3  A    between atoms: C_4  and  C_12
    4  A    between atoms: C_9  and  C_23
    5  A    between atoms: C_12  and  C_27
    6  A    between atoms: C_15  and  C_20
    7  A    between atoms: C_15  and  C_23
    8  A    between atoms: C_20  and  C_27
    9  A    between atoms: C_30  and  C_31
                            x       y       z     vdW  Elec       q    Type
                         _______ _______ _______ _____ _____    ______ ____

>  <TORSDO>
F 9

$$$$
=
 OpenBabel11052413113D

 31 33  0  0  1  0  0  0  0  0999 V2000
  182.2730  178.8930  143.0400 C   0  0  0  0  0  0  0  0  0  0  0  0
  183.8040  178.4940  140.9630 C   0  0  0  0  0  0  0  0  0  0  0  0
  182.7860  178.6240  144.4080 C   0  0  0  0  0  1  0  0  0  0  0  0
  183.0390  178.6930  142.0050 C   0  0  0  0  0  0  0  0  0  0  0  0
  183.2970  177.6990  139.8140 C   0  0  0  0  0  0  0  0  0  0  0  0
  182.9620  176.4960  139.9920 O   0  0  0  0  0  0  0  0  0  0  0  0
  183.1540  178.2630  138.4280 C   0  0  2  0  0  3  0  0  0  0  0  0
  181.5560  178.6180  136.5230 C   0  0  0  0  0  2  0  0  0  0  0  0
  181.6840  178.4320  138.0250 C   0  0  0  0  0  2  0  0  0  0  0  0
  182.1670  177.3980  135.8510 C   0  0  0  0  0  2  0  0  0  0  0  0
  183.5560  177.2400  136.2310 N   0  0  0  0  0  0  0  0  0  0  0  0
  184.0160  177.5470  137.4030 C   0  0  0  0  0  0  0  0  0  0  0  0
  186.1020  178.6330  137.7280 O   0  0  0  0  0  1  0  0  0  0  0  0
  186.1390  176.5300  136.6150 C   0  0  0  0  0  1  0  0  0  0  0  0
  185.4800  177.3860  137.6790 C   0  0  2  0  0  3  0  0  0  0  0  0
  180.9390  179.3930  142.8570 C   0  0  0  0  0  0  0  0  0  0  0  0
  179.8210  179.8160  142.7070 C   0  0  0  0  0  3  0  0  0  0  0  0
  185.2260  178.9540  141.0480 C   0  0  0  0  0  2  0  0  0  0  0  0
  185.7650  178.8900  142.4710 C   0  0  0  0  0  2  0  0  0  0  0  0
  187.0410  178.0700  142.5390 C   0  0  0  0  0  2  0  0  0  0  0  0
  187.0500  177.2040  143.7860 C   0  0  0  0  0  2  0  0  0  0  0  0
  191.4580  176.7540  146.6560 C   0  0  1  0  0  3  0  0  0  0  0  0
  190.1670  177.5920  144.6440 C   0  0  0  0  0  2  0  0  0  0  0  0
  187.7160  177.4170  147.2920 C   0  0  0  0  0  2  0  0  0  0  0  0
  186.8810  177.9570  146.1430 C   0  0  0  0  0  2  0  0  0  0  0  0
  192.3800  175.7970  147.0760 O   0  0  0  0  0  1  0  0  0  0  0  0
  187.7880  177.9050  144.9140 C   0  0  1  0  0  3  0  0  0  0  0  0
  191.3400  176.7240  145.1200 C   0  0  0  0  0  2  0  0  0  0  0  0
  189.1020  177.4520  146.7140 C   0  0  2  0  0  3  0  0  0  0  0  0
  188.9550  177.1300  145.3090 N   0  0  2  0  0  0  0  0  0  0  0  0
  190.1100  176.5070  147.3440 C   0  0  0  0  0  2  0  0  0  0  0  0
  1  3  1  0  0  0  0
  2 18  1  0  0  0  0
  2  4  2  0  0  0  0
  4  1  2  0  0  0  0
  5  6  2  0  0  0  0
  5  2  1  0  0  0  0
  7  5  1  1  0  0  0
  8  9  1  0  0  0  0
  9  7  1  0  0  0  0
 10 11  1  0  0  0  0
 10  8  1  0  0  0  0
 11 12  2  0  0  0  0
 12 15  1  0  0  0  0
 12  7  1  0  0  0  0
 15 14  1  6  0  0  0
 15 13  1  0  0  0  0
 16  1  1  0  0  0  0
 17 16  3  0  0  0  0
 18 19  1  0  0  0  0
 19 20  1  0  0  0  0
 20 21  1  0  0  0  0
 22 26  1  1  0  0  0
 22 31  1  0  0  0  0
 23 28  1  0  0  0  0
 25 24  1  0  0  0  0
 27 21  1  6  0  0  0
 27 30  1  0  0  0  0
 27 25  1  0  0  0  0
 28 22  1  0  0  0  0
 29 24  1  1  0  0  0
 29 31  1  0  0  0  0
 30 23  1  6  0  0  0
 30 29  1  0  0  0  0
M  END
>  <MODEL>
9

>  <REMARK>
 VINA RESULT:      -7.4      2.990      7.805
  Name = 
  9 active torsions:
  status: ('A' for Active; 'I' for Inactive)
    1  A    between atoms: C_2  and  C_13
    2  A    between atoms: C_4  and  C_5
    3  A    between atoms: C_4  and  C_12
    4  A    between atoms: C_9  and  C_23
    5  A    between atoms: C_12  and  C_27
    6  A    between atoms: C_15  and  C_20
    7  A    between atoms: C_15  and  C_23
    8  A    between atoms: C_20  and  C_27
    9  A    between atoms: C_30  and  C_31
                            x       y       z     vdW  Elec       q    Type
                         _______ _______ _______ _____ _____    ______ ____

>  <TORSDO>
F 9

$$$$
