=
 OpenBabel11052416473D

 32 37  0  0  1  0  0  0  0  0999 V2000
  188.8170  176.7740  137.0800 C   0  0  0  0  0  2  0  0  0  0  0  0
  188.6130  177.5570  142.2590 C   0  0  0  0  0  0  0  0  0  0  0  0
  183.8580  178.7390  142.7100 C   0  0  0  0  0  3  0  0  0  0  0  0
  183.9420  178.7560  144.0050 N   0  0  0  0  0  0  0  0  0  0  0  0
  189.9360  177.2030  144.3200 C   0  0  0  0  0  0  0  0  0  0  0  0
  189.9180  177.2120  145.7120 C   0  0  0  0  0  0  0  0  0  0  0  0
  189.7200  177.7690  140.0830 N   0  0  2  0  0  0  0  0  0  0  0  0
  187.3330  178.2350  140.1780 C   0  0  0  0  0  2  0  0  0  0  0  0
  189.0580  177.4730  147.7100 N   0  0  0  0  0  0  0  0  0  0  0  0
  188.4110  177.9450  137.9670 C   0  0  0  0  0  2  0  0  0  0  0  0
  185.0360  178.4820  141.8740 C   0  0  0  0  0  3  0  0  0  0  0  0
  187.3750  177.9400  141.6170 N   0  0  0  0  0  0  0  0  0  0  0  0
  186.2250  178.2180  142.4240 C   0  0  2  0  0  3  0  0  0  0  0  0
  187.5560  177.8700  144.4370 C   0  0  0  0  0  0  0  0  0  0  0  0
  190.3600  177.1150  147.7950 C   0  0  0  0  0  3  0  0  0  0  0  0
  190.6760  176.0970  138.4430 C   0  0  0  0  0  2  0  0  0  0  0  0
  188.4310  177.4980  139.4250 C   0  0  1  0  0  3  0  0  0  0  0  0
  190.9260  176.9450  146.5680 N   0  0  0  0  0  0  0  0  0  0  0  0
  190.9110  177.3090  139.3470 C   0  0  0  0  0  2  0  0  0  0  0  0
  190.2640  176.5590  137.1190 N   0  0  0  0  0  0  0  0  0  0  0  0
  185.1850  178.5570  144.7590 C   0  0  0  0  0  3  0  0  0  0  0  0
  186.3670  178.1870  143.8860 C   0  0  0  0  0  0  0  0  0  0  0  0
  187.6430  177.8550  145.8040 N   0  0  0  0  0  0  0  0  0  0  0  0
  189.7160  177.0600  141.3580 C   0  0  0  0  0  2  0  0  0  0  0  0
  191.2430  176.8880  143.6630 C   0  0  0  0  0  1  0  0  0  0  0  0
  188.1480  177.7430  148.8090 C   0  0  0  0  0  1  0  0  0  0  0  0
  188.7140  177.5380  143.6270 C   0  0  0  0  0  0  0  0  0  0  0  0
  188.8060  177.5280  146.4000 C   0  0  0  0  0  0  0  0  0  0  0  0
  190.6470  175.5690  136.1030 C   0  0  0  0  0  2  0  0  0  0  0  0
  192.1050  175.2060  136.1270 C   0  0  0  0  0  0  0  0  0  0  0  0
  192.4960  173.9150  136.4550 O   0  0  0  0  0  1  0  0  0  0  0  0
  192.9740  176.0680  135.8350 O   0  0  0  0  0  0  0  0  0  0  0  0
  1 20  1  0  0  0  0
  1 10  1  0  0  0  0
  2 27  2  0  0  0  0
  3  4  1  0  0  0  0
  4 21  2  0  0  0  0
  5  6  2  0  0  0  0
  6 28  1  0  0  0  0
  6 18  1  0  0  0  0
  7 19  1  6  0  0  0
  7 24  1  0  0  0  0
  8 12  1  0  0  0  0
  9 15  1  0  0  0  0
  9 26  1  0  0  0  0
 11  3  2  0  0  0  0
 12  2  1  0  0  0  0
 12 13  1  0  0  0  0
 13 11  1  1  0  0  0
 13 22  1  0  0  0  0
 14 23  1  0  0  0  0
 16 19  1  0  0  0  0
 17 10  1  6  0  0  0
 17  7  1  0  0  0  0
 17  8  1  0  0  0  0
 18 15  2  0  0  0  0
 20 16  1  0  0  0  0
 22 14  2  0  0  0  0
 22 21  1  0  0  0  0
 23 28  2  0  0  0  0
 24  2  1  0  0  0  0
 25  5  1  0  0  0  0
 27  5  1  0  0  0  0
 27 14  1  0  0  0  0
 28  9  1  0  0  0  0
 29 30  1  0  0  0  0
 29 20  1  0  0  0  0
 30 31  1  0  0  0  0
 32 30  2  0  0  0  0
M  END
>  <MODEL>
1

>  <REMARK>
 VINA RESULT:      -9.9      0.000      0.000
  Name = 
  2 active torsions:
  status: ('A' for Active; 'I' for Inactive)
    1  A    between atoms: C_1  and  C_10
    2  A    between atoms: C_10  and  N_24
                            x       y       z     vdW  Elec       q    Type
                         _______ _______ _______ _____ _____    ______ ____

>  <TORSDO>
F 2

$$$$
=
 OpenBabel11052416473D

 32 37  0  0  1  0  0  0  0  0999 V2000
  186.5360  177.5050  137.1940 C   0  0  0  0  0  2  0  0  0  0  0  0
  187.3800  177.9550  142.3480 C   0  0  0  0  0  0  0  0  0  0  0  0
  182.8180  179.0690  143.8180 C   0  0  0  0  0  3  0  0  0  0  0  0
  183.1610  179.0040  145.0680 N   0  0  0  0  0  0  0  0  0  0  0  0
  189.0870  177.4790  144.0750 C   0  0  0  0  0  0  0  0  0  0  0  0
  189.3490  177.4000  145.4390 C   0  0  0  0  0  0  0  0  0  0  0  0
  188.0290  178.3130  140.0120 N   0  0  2  0  0  0  0  0  0  0  0  0
  185.7120  178.7540  140.6140 C   0  0  0  0  0  2  0  0  0  0  0  0
  188.9090  177.5270  147.5820 N   0  0  0  0  0  0  0  0  0  0  0  0
  186.3230  178.6130  138.2180 C   0  0  0  0  0  2  0  0  0  0  0  0
  183.8030  178.8750  142.7480 C   0  0  0  0  0  3  0  0  0  0  0  0
  186.0400  178.3690  141.9930 N   0  0  0  0  0  0  0  0  0  0  0  0
  185.0770  178.5860  143.0300 C   0  0  2  0  0  3  0  0  0  0  0  0
  186.7820  178.1200  144.7090 C   0  0  0  0  0  0  0  0  0  0  0  0
  190.2000  177.1740  147.3810 C   0  0  0  0  0  3  0  0  0  0  0  0
  188.6270  176.7570  138.1100 C   0  0  0  0  0  2  0  0  0  0  0  0
  186.6320  178.0750  139.6100 C   0  0  1  0  0  3  0  0  0  0  0  0
  190.5070  177.0860  146.0570 N   0  0  0  0  0  0  0  0  0  0  0  0
  189.0450  177.9100  139.0240 C   0  0  0  0  0  2  0  0  0  0  0  0
  187.9600  177.2990  136.9280 N   0  0  0  0  0  0  0  0  0  0  0  0
  184.5290  178.7670  145.5430 C   0  0  0  0  0  3  0  0  0  0  0  0
  185.5090  178.4620  144.4290 C   0  0  0  0  0  0  0  0  0  0  0  0
  187.1420  178.0190  146.0270 N   0  0  0  0  0  0  0  0  0  0  0  0
  188.2770  177.5240  141.2140 C   0  0  0  0  0  2  0  0  0  0  0  0
  190.2350  177.2170  143.1500 C   0  0  0  0  0  1  0  0  0  0  0  0
  188.2400  177.7190  148.8560 C   0  0  0  0  0  1  0  0  0  0  0  0
  187.7530  177.8490  143.6640 C   0  0  0  0  0  0  0  0  0  0  0  0
  188.3990  177.6630  146.3550 C   0  0  0  0  0  0  0  0  0  0  0  0
  188.1260  176.3790  135.7950 C   0  0  0  0  0  2  0  0  0  0  0  0
  189.5430  175.9260  135.5810 C   0  0  0  0  0  0  0  0  0  0  0  0
  189.8920  174.6000  135.8050 O   0  0  0  0  0  1  0  0  0  0  0  0
  190.4130  176.7430  135.1850 O   0  0  0  0  0  0  0  0  0  0  0  0
  1 10  1  0  0  0  0
  2 27  2  0  0  0  0
  3  4  1  0  0  0  0
  4 21  2  0  0  0  0
  5  6  2  0  0  0  0
  6 18  1  0  0  0  0
  6 28  1  0  0  0  0
  7 19  1  6  0  0  0
  7 24  1  0  0  0  0
  8 12  1  0  0  0  0
  9 26  1  0  0  0  0
 11  3  2  0  0  0  0
 12  2  1  0  0  0  0
 12 13  1  0  0  0  0
 13 11  1  6  0  0  0
 13 22  1  0  0  0  0
 14 23  1  0  0  0  0
 15  9  1  0  0  0  0
 16 19  1  0  0  0  0
 17 10  1  6  0  0  0
 17  7  1  0  0  0  0
 17  8  1  0  0  0  0
 18 15  2  0  0  0  0
 20  1  1  0  0  0  0
 20 16  1  0  0  0  0
 22 14  2  0  0  0  0
 22 21  1  0  0  0  0
 23 28  2  0  0  0  0
 24  2  1  0  0  0  0
 25  5  1  0  0  0  0
 27  5  1  0  0  0  0
 27 14  1  0  0  0  0
 28  9  1  0  0  0  0
 29 20  1  0  0  0  0
 30 29  1  0  0  0  0
 30 31  1  0  0  0  0
 32 30  2  0  0  0  0
M  END
>  <MODEL>
2

>  <REMARK>
 VINA RESULT:      -9.7      1.394      1.650
  Name = 
  2 active torsions:
  status: ('A' for Active; 'I' for Inactive)
    1  A    between atoms: C_1  and  C_10
    2  A    between atoms: C_10  and  N_24
                            x       y       z     vdW  Elec       q    Type
                         _______ _______ _______ _____ _____    ______ ____

>  <TORSDO>
F 2

$$$$
=
 OpenBabel11052416473D

 32 37  0  0  1  0  0  0  0  0999 V2000
  191.6810  176.6110  144.5130 C   0  0  0  0  0  2  0  0  0  0  0  0
  186.9030  178.1420  142.9950 C   0  0  0  0  0  0  0  0  0  0  0  0
  187.6010  178.2530  138.1250 C   0  0  0  0  0  3  0  0  0  0  0  0
  186.3440  178.4950  137.9090 N   0  0  0  0  0  0  0  0  0  0  0  0
  184.6020  178.4350  143.8580 C   0  0  0  0  0  0  0  0  0  0  0  0
  183.2700  178.6620  143.5240 C   0  0  0  0  0  0  0  0  0  0  0  0
  188.8300  178.2530  144.5040 N   0  0  2  0  0  0  0  0  0  0  0  0
  189.2800  178.1660  142.1140 C   0  0  0  0  0  2  0  0  0  0  0  0
  181.5650  179.0330  142.1990 N   0  0  0  0  0  0  0  0  0  0  0  0
  191.1430  177.7830  143.7010 C   0  0  0  0  0  2  0  0  0  0  0  0
  188.1310  178.1440  139.4890 C   0  0  0  0  0  3  0  0  0  0  0  0
  187.8300  178.1220  141.8840 N   0  0  0  0  0  0  0  0  0  0  0  0
  187.3260  178.2530  140.5500 C   0  0  0  0  0  0  0  0  0  0  0  0
  185.0720  178.5460  141.4310 C   0  0  0  0  0  0  0  0  0  0  0  0
  181.1660  179.0030  143.4930 C   0  0  0  0  0  3  0  0  0  0  0  0
  189.8840  176.6070  146.1090 C   0  0  0  0  0  2  0  0  0  0  0  0
  189.6480  177.5910  143.4740 C   0  0  1  0  0  3  0  0  0  0  0  0
  182.2040  178.7740  144.3430 N   0  0  0  0  0  0  0  0  0  0  0  0
  189.2200  177.9690  145.8970 C   0  0  0  0  0  2  0  0  0  0  0  0
  191.3280  176.7440  145.9270 N   0  0  0  0  0  0  0  0  0  0  0  0
  185.3470  178.7110  138.9630 C   0  0  0  0  0  2  0  0  0  0  0  0
  185.8890  178.4880  140.3600 C   0  0  0  0  0  0  0  0  0  0  0  0
  183.7390  178.7700  141.2070 N   0  0  0  0  0  0  0  0  0  0  0  0
  187.4600  177.7750  144.3470 C   0  0  0  0  0  2  0  0  0  0  0  0
  184.9240  178.3290  145.3160 C   0  0  0  0  0  1  0  0  0  0  0  0
  180.7340  179.2580  141.0300 C   0  0  0  0  0  1  0  0  0  0  0  0
  185.5650  178.3650  142.7850 C   0  0  0  0  0  0  0  0  0  0  0  0
  182.8820  178.8190  142.2450 C   0  0  0  0  0  0  0  0  0  0  0  0
  192.0300  175.7200  146.7130 C   0  0  0  0  0  2  0  0  0  0  0  0
  192.4510  176.1840  148.0790 C   0  0  0  0  0  0  0  0  0  0  0  0
  192.0560  177.4310  148.5450 O   0  0  0  0  0  0  0  0  0  0  0  0
  193.1520  175.4360  148.8100 O   0  0  0  0  0  1  0  0  0  0  0  0
  1 20  1  0  0  0  0
  2 24  1  0  0  0  0
  3 11  1  0  0  0  0
  4  3  2  0  0  0  0
  4 21  1  0  0  0  0
  5 25  1  0  0  0  0
  6  5  2  0  0  0  0
  6 18  1  0  0  0  0
  7 24  1  1  0  0  0
  7 19  1  0  0  0  0
  9 28  1  0  0  0  0
  9 15  1  0  0  0  0
 10  1  1  0  0  0  0
 11 13  2  0  0  0  0
 12  8  1  0  0  0  0
 12  2  1  0  0  0  0
 13 12  1  0  0  0  0
 14 27  1  0  0  0  0
 15 18  2  0  0  0  0
 17  8  1  6  0  0  0
 17 10  1  0  0  0  0
 17  7  1  0  0  0  0
 19 16  1  0  0  0  0
 20 16  1  0  0  0  0
 20 29  1  0  0  0  0
 21 22  1  0  0  0  0
 22 13  1  0  0  0  0
 22 14  2  0  0  0  0
 23 14  1  0  0  0  0
 23 28  2  0  0  0  0
 26  9  1  0  0  0  0
 27  2  2  0  0  0  0
 27  5  1  0  0  0  0
 28  6  1  0  0  0  0
 29 30  1  0  0  0  0
 30 31  2  0  0  0  0
 30 32  1  0  0  0  0
M  END
>  <MODEL>
3

>  <REMARK>
 VINA RESULT:      -9.7      3.816      7.344
  Name = 
  2 active torsions:
  status: ('A' for Active; 'I' for Inactive)
    1  A    between atoms: C_1  and  C_10
    2  A    between atoms: C_10  and  N_24
                            x       y       z     vdW  Elec       q    Type
                         _______ _______ _______ _____ _____    ______ ____

>  <TORSDO>
F 2

$$$$
=
 OpenBabel11052416473D

 32 37  0  0  1  0  0  0  0  0999 V2000
  185.2410  177.9120  137.5990 C   0  0  0  0  0  2  0  0  0  0  0  0
  187.5320  177.9640  142.3130 C   0  0  0  0  0  0  0  0  0  0  0  0
  183.6040  178.9540  145.1070 C   0  0  0  0  0  3  0  0  0  0  0  0
  184.2880  178.7940  146.1980 N   0  0  0  0  0  0  0  0  0  0  0  0
  189.6510  177.3590  143.4390 C   0  0  0  0  0  0  0  0  0  0  0  0
  190.2900  177.1750  144.6610 C   0  0  0  0  0  0  0  0  0  0  0  0
  187.4930  178.5020  139.9230 N   0  0  2  0  0  0  0  0  0  0  0  0
  185.4550  178.8920  141.1940 C   0  0  0  0  0  2  0  0  0  0  0  0
  190.4820  177.1350  146.8430 N   0  0  0  0  0  0  0  0  0  0  0  0
  185.3530  178.9370  138.7200 C   0  0  0  0  0  2  0  0  0  0  0  0
  184.2380  178.8440  143.7880 C   0  0  0  0  0  3  0  0  0  0  0  0
  186.1550  178.4010  142.3890 N   0  0  0  0  0  0  0  0  0  0  0  0
  185.5330  178.5360  143.6720 C   0  0  2  0  0  3  0  0  0  0  0  0
  187.6370  177.9450  144.7520 C   0  0  0  0  0  0  0  0  0  0  0  0
  191.6550  176.8000  146.2560 C   0  0  0  0  0  3  0  0  0  0  0  0
  187.4910  177.0980  137.8190 C   0  0  0  0  0  2  0  0  0  0  0  0
  186.0350  178.2940  139.9210 C   0  0  1  0  0  3  0  0  0  0  0  0
  191.5690  176.8160  144.8970 N   0  0  0  0  0  0  0  0  0  0  0  0
  188.1770  178.1780  138.6580 C   0  0  0  0  0  2  0  0  0  0  0  0
  186.5260  177.7290  136.9210 N   0  0  0  0  0  0  0  0  0  0  0  0
  185.7290  178.5230  146.2430 C   0  0  0  0  0  3  0  0  0  0  0  0
  186.3440  178.3060  144.8750 C   0  0  0  0  0  0  0  0  0  0  0  0
  188.3550  177.7430  145.9010 N   0  0  0  0  0  0  0  0  0  0  0  0
  188.0580  177.6230  140.9410 C   0  0  0  0  0  2  0  0  0  0  0  0
  190.4810  177.1700  142.2070 C   0  0  0  0  0  1  0  0  0  0  0  0
  190.2090  177.2280  148.2670 C   0  0  0  0  0  1  0  0  0  0  0  0
  188.2630  177.7570  143.4560 C   0  0  0  0  0  0  0  0  0  0  0  0
  189.6470  177.3650  145.8280 C   0  0  0  0  0  0  0  0  0  0  0  0
  186.3420  176.8990  135.7230 C   0  0  0  0  0  2  0  0  0  0  0  0
  187.6070  176.6610  134.9470 C   0  0  0  0  0  0  0  0  0  0  0  0
  187.9830  175.3680  134.6060 O   0  0  0  0  0  1  0  0  0  0  0  0
  188.3230  177.6340  134.5940 O   0  0  0  0  0  0  0  0  0  0  0  0
  1 10  1  0  0  0  0
  2 12  1  0  0  0  0
  2 27  2  0  0  0  0
  3  4  1  0  0  0  0
  4 21  2  0  0  0  0
  5 27  1  0  0  0  0
  5  6  2  0  0  0  0
  6 18  1  0  0  0  0
  6 28  1  0  0  0  0
  7 19  1  6  0  0  0
  7 24  1  0  0  0  0
  8 12  1  0  0  0  0
  9 26  1  0  0  0  0
 11  3  2  0  0  0  0
 12 13  1  0  0  0  0
 13 11  1  6  0  0  0
 13 22  1  0  0  0  0
 14 22  2  0  0  0  0
 14 23  1  0  0  0  0
 15  9  1  0  0  0  0
 16 19  1  0  0  0  0
 17 10  1  6  0  0  0
 17  7  1  0  0  0  0
 17  8  1  0  0  0  0
 18 15  2  0  0  0  0
 20  1  1  0  0  0  0
 20 16  1  0  0  0  0
 22 21  1  0  0  0  0
 24  2  1  0  0  0  0
 25  5  1  0  0  0  0
 27 14  1  0  0  0  0
 28 23  2  0  0  0  0
 28  9  1  0  0  0  0
 29 20  1  0  0  0  0
 30 29  1  0  0  0  0
 31 30  1  0  0  0  0
 32 30  2  0  0  0  0
M  END
>  <MODEL>
4

>  <REMARK>
 VINA RESULT:      -9.5      2.244      2.642
  Name = 
  2 active torsions:
  status: ('A' for Active; 'I' for Inactive)
    1  A    between atoms: C_1  and  C_10
    2  A    between atoms: C_10  and  N_24
                            x       y       z     vdW  Elec       q    Type
                         _______ _______ _______ _____ _____    ______ ____

>  <TORSDO>
F 2

$$$$
=
 OpenBabel11052416473D

 32 37  0  0  1  0  0  0  0  0999 V2000
  190.4710  176.6180  136.6950 C   0  0  0  0  0  2  0  0  0  0  0  0
  188.2000  177.7250  141.2870 C   0  0  0  0  0  0  0  0  0  0  0  0
  183.7200  178.9820  139.6890 C   0  0  0  0  0  3  0  0  0  0  0  0
  183.2690  179.0790  140.9030 N   0  0  0  0  0  0  0  0  0  0  0  0
  188.5530  177.4870  143.7250 C   0  0  0  0  0  0  0  0  0  0  0  0
  187.9690  177.5830  144.9850 C   0  0  0  0  0  0  0  0  0  0  0  0
  190.1050  177.7890  139.7480 N   0  0  2  0  0  0  0  0  0  0  0  0
  187.9050  178.2850  138.8330 C   0  0  0  0  0  2  0  0  0  0  0  0
  186.3790  177.9780  146.4390 N   0  0  0  0  0  0  0  0  0  0  0  0
  189.7810  177.8450  137.2760 C   0  0  0  0  0  2  0  0  0  0  0  0
  185.1260  178.6610  139.4240 C   0  0  0  0  0  3  0  0  0  0  0  0
  187.3460  178.0800  140.1750 N   0  0  0  0  0  0  0  0  0  0  0  0
  185.9770  178.4200  140.4250 C   0  0  2  0  0  3  0  0  0  0  0  0
  186.3580  178.1840  142.8210 C   0  0  0  0  0  0  0  0  0  0  0  0
  187.5200  177.6120  147.0690 C   0  0  0  0  0  3  0  0  0  0  0  0
  191.5880  176.0080  138.7340 C   0  0  0  0  0  2  0  0  0  0  0  0
  189.1880  177.4910  138.6340 C   0  0  1  0  0  3  0  0  0  0  0  0
  188.5300  177.3600  146.1920 N   0  0  0  0  0  0  0  0  0  0  0  0
  191.4760  177.2720  139.5890 C   0  0  0  0  0  2  0  0  0  0  0  0
  191.7680  176.3900  137.3350 N   0  0  0  0  0  0  0  0  0  0  0  0
  184.0880  178.9150  142.1080 C   0  0  0  0  0  3  0  0  0  0  0  0
  185.5090  178.4780  141.8160 C   0  0  0  0  0  0  0  0  0  0  0  0
  185.8790  178.2540  144.1030 N   0  0  0  0  0  0  0  0  0  0  0  0
  189.5570  177.1610  140.9450 C   0  0  0  0  0  2  0  0  0  0  0  0
  190.0030  177.1170  143.6790 C   0  0  0  0  0  1  0  0  0  0  0  0
  185.1100  178.3250  147.0540 C   0  0  0  0  0  1  0  0  0  0  0  0
  187.7330  177.7900  142.5760 C   0  0  0  0  0  0  0  0  0  0  0  0
  186.6850  177.9530  145.1400 C   0  0  0  0  0  0  0  0  0  0  0  0
  192.4970  175.3350  136.6180 C   0  0  0  0  0  2  0  0  0  0  0  0
  193.9680  175.2950  136.9260 C   0  0  0  0  0  0  0  0  0  0  0  0
  194.5110  174.2020  137.5880 O   0  0  0  0  0  1  0  0  0  0  0  0
  194.7120  176.2460  136.5720 O   0  0  0  0  0  0  0  0  0  0  0  0
  1 10  1  0  0  0  0
  1 20  1  0  0  0  0
  2 27  2  0  0  0  0
  3  4  1  0  0  0  0
  4 21  2  0  0  0  0
  5  6  2  0  0  0  0
  6 28  1  0  0  0  0
  6 18  1  0  0  0  0
  7 19  1  6  0  0  0
  7 24  1  0  0  0  0
  8 12  1  0  0  0  0
  9 26  1  0  0  0  0
  9 15  1  0  0  0  0
 11  3  2  0  0  0  0
 12 13  1  0  0  0  0
 12  2  1  0  0  0  0
 13 11  1  6  0  0  0
 13 22  1  0  0  0  0
 14 23  1  0  0  0  0
 16 19  1  0  0  0  0
 17 10  1  6  0  0  0
 17  8  1  0  0  0  0
 17  7  1  0  0  0  0
 18 15  2  0  0  0  0
 20 16  1  0  0  0  0
 22 21  1  0  0  0  0
 22 14  2  0  0  0  0
 23 28  2  0  0  0  0
 24  2  1  0  0  0  0
 25  5  1  0  0  0  0
 27 14  1  0  0  0  0
 27  5  1  0  0  0  0
 28  9  1  0  0  0  0
 29 30  1  0  0  0  0
 29 20  1  0  0  0  0
 30 31  1  0  0  0  0
 32 30  2  0  0  0  0
M  END
>  <MODEL>
5

>  <REMARK>
 VINA RESULT:      -9.0      1.479      2.088
  Name = 
  2 active torsions:
  status: ('A' for Active; 'I' for Inactive)
    1  A    between atoms: C_1  and  C_10
    2  A    between atoms: C_10  and  N_24
                            x       y       z     vdW  Elec       q    Type
                         _______ _______ _______ _____ _____    ______ ____

>  <TORSDO>
F 2

$$$$
=
 OpenBabel11052416473D

 32 37  0  0  1  0  0  0  0  0999 V2000
  183.2540  178.6110  145.0570 C   0  0  0  0  0  2  0  0  0  0  0  0
  187.6380  177.9260  142.2670 C   0  0  0  0  0  0  0  0  0  0  0  0
  190.7170  176.6810  145.8980 C   0  0  0  0  0  3  0  0  0  0  0  0
  191.6700  176.4170  145.0560 N   0  0  0  0  0  0  0  0  0  0  0  0
  188.4300  177.7150  139.9320 C   0  0  0  0  0  0  0  0  0  0  0  0
  189.4990  177.3750  139.1090 C   0  0  0  0  0  0  0  0  0  0  0  0
  185.5730  179.1390  142.7840 N   0  0  2  0  0  0  0  0  0  0  0  0
  186.9610  178.4370  144.6560 C   0  0  0  0  0  2  0  0  0  0  0  0
  191.5320  176.7220  138.6200 N   0  0  0  0  0  0  0  0  0  0  0  0
  184.6520  179.2160  145.1000 C   0  0  0  0  0  2  0  0  0  0  0  0
  189.4210  177.1970  145.4440 C   0  0  0  0  0  3  0  0  0  0  0  0
  187.8980  177.8520  143.6890 N   0  0  0  0  0  0  0  0  0  0  0  0
  189.1690  177.3730  144.1440 C   0  0  0  0  0  0  0  0  0  0  0  0
  189.9230  177.1840  141.8330 C   0  0  0  0  0  0  0  0  0  0  0  0
  190.8320  176.9820  137.4910 C   0  0  0  0  0  3  0  0  0  0  0  0
  183.1200  178.5370  142.6590 C   0  0  0  0  0  2  0  0  0  0  0  0
  185.5440  178.4850  144.1030 C   0  0  1  0  0  3  0  0  0  0  0  0
  189.5610  177.3920  137.7610 N   0  0  0  0  0  0  0  0  0  0  0  0
  184.2540  179.4620  142.2130 C   0  0  0  0  0  2  0  0  0  0  0  0
  182.5170  179.0710  143.8790 N   0  0  0  0  0  0  0  0  0  0  0  0
  191.5770  176.6240  143.6070 C   0  0  0  0  0  2  0  0  0  0  0  0
  190.1990  177.0530  143.1460 C   0  0  0  0  0  0  0  0  0  0  0  0
  190.9140  176.8760  140.9380 N   0  0  0  0  0  0  0  0  0  0  0  0
  186.2170  178.2170  141.8540 C   0  0  0  0  0  2  0  0  0  0  0  0
  187.1830  178.1960  139.2580 C   0  0  0  0  0  1  0  0  0  0  0  0
  192.9110  176.2740  138.7130 C   0  0  0  0  0  1  0  0  0  0  0  0
  188.6210  177.6200  141.3600 C   0  0  0  0  0  0  0  0  0  0  0  0
  190.6800  176.9760  139.6150 C   0  0  0  0  0  0  0  0  0  0  0  0
  181.1150  178.6430  143.9710 C   0  0  0  0  0  2  0  0  0  0  0  0
  180.2130  179.2850  142.9540 C   0  0  0  0  0  0  0  0  0  0  0  0
  179.4510  178.4960  142.1020 O   0  0  0  0  0  0  0  0  0  0  0  0
  180.1380  180.5390  142.8810 O   0  0  0  0  0  1  0  0  0  0  0  0
  1 10  1  0  0  0  0
  2 12  1  0  0  0  0
  4  3  2  0  0  0  0
  5 27  1  0  0  0  0
  6 28  1  0  0  0  0
  6  5  2  0  0  0  0
  7 24  1  6  0  0  0
  7 17  1  0  0  0  0
  9 26  1  0  0  0  0
  9 28  1  0  0  0  0
 11  3  1  0  0  0  0
 12 13  1  0  0  0  0
 12  8  1  0  0  0  0
 13 11  2  0  0  0  0
 14 22  2  0  0  0  0
 15 18  2  0  0  0  0
 15  9  1  0  0  0  0
 16 20  1  0  0  0  0
 17  8  1  1  0  0  0
 17 10  1  0  0  0  0
 18  6  1  0  0  0  0
 19 16  1  0  0  0  0
 19  7  1  0  0  0  0
 20 29  1  0  0  0  0
 20  1  1  0  0  0  0
 21  4  1  0  0  0  0
 22 21  1  0  0  0  0
 22 13  1  0  0  0  0
 23 14  1  0  0  0  0
 24  2  1  0  0  0  0
 25  5  1  0  0  0  0
 27 14  1  0  0  0  0
 27  2  2  0  0  0  0
 28 23  2  0  0  0  0
 30 29  1  0  0  0  0
 31 30  2  0  0  0  0
 32 30  1  0  0  0  0
M  END
>  <MODEL>
6

>  <REMARK>
 VINA RESULT:      -8.8      4.076      8.255
  Name = 
  2 active torsions:
  status: ('A' for Active; 'I' for Inactive)
    1  A    between atoms: C_1  and  C_10
    2  A    between atoms: C_10  and  N_24
                            x       y       z     vdW  Elec       q    Type
                         _______ _______ _______ _____ _____    ______ ____

>  <TORSDO>
F 2

$$$$
=
 OpenBabel11052416473D

 32 37  0  0  1  0  0  0  0  0999 V2000
  191.6120  176.6220  145.0990 C   0  0  0  0  0  2  0  0  0  0  0  0
  187.5620  178.0650  142.1010 C   0  0  0  0  0  0  0  0  0  0  0  0
  189.6990  177.7970  137.6760 C   0  0  0  0  0  3  0  0  0  0  0  0
  188.5740  178.0310  137.0730 N   0  0  0  0  0  0  0  0  0  0  0  0
  185.1180  178.4390  142.2030 C   0  0  0  0  0  0  0  0  0  0  0  0
  183.9570  178.6490  141.4660 C   0  0  0  0  0  0  0  0  0  0  0  0
  188.9470  178.2780  144.1110 N   0  0  2  0  0  0  0  0  0  0  0  0
  190.0940  178.0040  141.9820 C   0  0  0  0  0  2  0  0  0  0  0  0
  182.7420  178.9300  139.6650 N   0  0  0  0  0  0  0  0  0  0  0  0
  191.3800  177.7310  144.0810 C   0  0  0  0  0  2  0  0  0  0  0  0
  189.7900  177.7890  139.1410 C   0  0  0  0  0  3  0  0  0  0  0  0
  188.7800  177.9530  141.3270 N   0  0  0  0  0  0  0  0  0  0  0  0
  188.7060  177.9850  139.8980 C   0  0  0  0  0  0  0  0  0  0  0  0
  186.3010  178.3600  140.0310 C   0  0  0  0  0  0  0  0  0  0  0  0
  181.9710  179.0020  140.7750 C   0  0  0  0  0  3  0  0  0  0  0  0
  189.4190  176.7520  146.0730 C   0  0  0  0  0  2  0  0  0  0  0  0
  190.0170  177.5330  143.4270 C   0  0  1  0  0  3  0  0  0  0  0  0
  182.6970  178.8320  141.9140 N   0  0  0  0  0  0  0  0  0  0  0  0
  188.8900  178.0990  145.5730 C   0  0  0  0  0  2  0  0  0  0  0  0
  190.8530  176.8650  146.3270 N   0  0  0  0  0  0  0  0  0  0  0  0
  187.3120  178.3340  137.7570 C   0  0  0  0  0  2  0  0  0  0  0  0
  187.4010  178.2150  139.2650 C   0  0  0  0  0  0  0  0  0  0  0  0
  185.1050  178.5760  139.3990 N   0  0  0  0  0  0  0  0  0  0  0  0
  187.6740  177.7980  143.5810 C   0  0  0  0  0  2  0  0  0  0  0  0
  184.9820  178.4430  143.6940 C   0  0  0  0  0  1  0  0  0  0  0  0
  182.3090  179.0700  138.2850 C   0  0  0  0  0  1  0  0  0  0  0  0
  186.3570  178.2800  141.4800 C   0  0  0  0  0  0  0  0  0  0  0  0
  183.9770  178.7110  140.1220 C   0  0  0  0  0  0  0  0  0  0  0  0
  191.2550  175.9000  147.3590 C   0  0  0  0  0  2  0  0  0  0  0  0
  192.4630  176.3190  148.1480 C   0  0  0  0  0  0  0  0  0  0  0  0
  193.6250  175.5590  148.1010 O   0  0  0  0  0  0  0  0  0  0  0  0
  192.4300  177.3670  148.8440 O   0  0  0  0  0  1  0  0  0  0  0  0
  1 20  1  0  0  0  0
  2 24  1  0  0  0  0
  3 11  1  0  0  0  0
  4  3  2  0  0  0  0
  4 21  1  0  0  0  0
  5 25  1  0  0  0  0
  6 18  1  0  0  0  0
  6  5  2  0  0  0  0
  7 24  1  6  0  0  0
  7 19  1  0  0  0  0
  9 28  1  0  0  0  0
  9 15  1  0  0  0  0
 10  1  1  0  0  0  0
 11 13  2  0  0  0  0
 12  8  1  0  0  0  0
 12  2  1  0  0  0  0
 13 12  1  0  0  0  0
 14 27  1  0  0  0  0
 15 18  2  0  0  0  0
 16 20  1  0  0  0  0
 17  8  1  6  0  0  0
 17 10  1  0  0  0  0
 17  7  1  0  0  0  0
 19 16  1  0  0  0  0
 20 29  1  0  0  0  0
 21 22  1  0  0  0  0
 22 13  1  0  0  0  0
 22 14  2  0  0  0  0
 23 14  1  0  0  0  0
 23 28  2  0  0  0  0
 26  9  1  0  0  0  0
 27  2  2  0  0  0  0
 27  5  1  0  0  0  0
 28  6  1  0  0  0  0
 29 30  1  0  0  0  0
 30 32  1  0  0  0  0
 31 30  2  0  0  0  0
M  END
>  <MODEL>
7

>  <REMARK>
 VINA RESULT:      -8.6      3.595      7.787
  Name = 
  2 active torsions:
  status: ('A' for Active; 'I' for Inactive)
    1  A    between atoms: C_1  and  C_10
    2  A    between atoms: C_10  and  N_24
                            x       y       z     vdW  Elec       q    Type
                         _______ _______ _______ _____ _____    ______ ____

>  <TORSDO>
F 2

$$$$
=
 OpenBabel11052416473D

 32 37  0  0  1  0  0  0  0  0999 V2000
  191.7760  177.2800  141.8460 C   0  0  0  0  0  2  0  0  0  0  0  0
  186.6080  177.9780  142.3770 C   0  0  0  0  0  0  0  0  0  0  0  0
  186.3490  178.3880  147.2740 C   0  0  0  0  0  3  0  0  0  0  0  0
  185.0870  178.6880  147.2230 N   0  0  0  0  0  0  0  0  0  0  0  0
  184.5770  178.4630  141.0490 C   0  0  0  0  0  0  0  0  0  0  0  0
  183.2340  178.8250  141.0960 C   0  0  0  0  0  0  0  0  0  0  0  0
  188.5480  176.8920  141.3470 N   0  0  2  0  0  0  0  0  0  0  0  0
  188.5750  177.1790  143.7630 C   0  0  0  0  0  2  0  0  0  0  0  0
  181.3270  179.3580  142.0320 N   0  0  0  0  0  0  0  0  0  0  0  0
  190.6730  176.5540  142.6060 C   0  0  0  0  0  2  0  0  0  0  0  0
  187.1030  178.0640  146.0580 C   0  0  0  0  0  3  0  0  0  0  0  0
  187.2550  177.8170  143.6610 N   0  0  0  0  0  0  0  0  0  0  0  0
  186.5210  178.1060  144.8560 C   0  0  2  0  0  3  0  0  0  0  0  0
  184.5340  178.5690  143.5210 C   0  0  0  0  0  0  0  0  0  0  0  0
  181.2050  179.3330  140.6840 C   0  0  0  0  0  3  0  0  0  0  0  0
  190.4450  177.7220  139.8950 C   0  0  0  0  0  2  0  0  0  0  0  0
  189.3750  177.3410  142.4790 C   0  0  1  0  0  3  0  0  0  0  0  0
  182.3750  179.0030  140.0710 N   0  0  0  0  0  0  0  0  0  0  0  0
  189.2540  176.7760  140.0580 C   0  0  0  0  0  2  0  0  0  0  0  0
  191.6500  177.0690  140.4030 N   0  0  0  0  0  0  0  0  0  0  0  0
  184.2870  178.7080  145.9940 C   0  0  0  0  0  3  0  0  0  0  0  0
  185.1050  178.4780  144.7390 C   0  0  0  0  0  0  0  0  0  0  0  0
  183.2110  178.9160  143.4600 N   0  0  0  0  0  0  0  0  0  0  0  0
  187.4910  177.8800  141.1580 C   0  0  0  0  0  2  0  0  0  0  0  0
  185.1600  178.2010  139.6960 C   0  0  0  0  0  1  0  0  0  0  0  0
  180.2890  179.6620  143.0010 C   0  0  0  0  0  1  0  0  0  0  0  0
  185.2830  178.3270  142.3010 C   0  0  0  0  0  0  0  0  0  0  0  0
  182.6020  179.0370  142.2640 C   0  0  0  0  0  0  0  0  0  0  0  0
  192.8340  177.6020  139.7170 C   0  0  0  0  0  2  0  0  0  0  0  0
  193.3590  176.7110  138.6270 C   0  0  0  0  0  0  0  0  0  0  0  0
  192.7480  176.7010  137.3800 O   0  0  0  0  0  0  0  0  0  0  0  0
  194.3620  175.9810  138.8380 O   0  0  0  0  0  1  0  0  0  0  0  0
  1 10  1  0  0  0  0
  2 12  1  0  0  0  0
  4  3  1  0  0  0  0
  5  6  2  0  0  0  0
  5 27  1  0  0  0  0
  6 28  1  0  0  0  0
  7 19  1  6  0  0  0
  7 17  1  0  0  0  0
  9 28  1  0  0  0  0
  9 26  1  0  0  0  0
 11  3  2  0  0  0  0
 12  8  1  0  0  0  0
 12 13  1  0  0  0  0
 13 11  1  6  0  0  0
 14 22  2  0  0  0  0
 15  9  1  0  0  0  0
 16 19  1  0  0  0  0
 16 20  1  0  0  0  0
 17 10  1  1  0  0  0
 17  8  1  0  0  0  0
 18 15  2  0  0  0  0
 18  6  1  0  0  0  0
 20  1  1  0  0  0  0
 21  4  2  0  0  0  0
 22 13  1  0  0  0  0
 22 21  1  0  0  0  0
 23 14  1  0  0  0  0
 24  7  1  0  0  0  0
 24  2  1  0  0  0  0
 25  5  1  0  0  0  0
 27  2  2  0  0  0  0
 27 14  1  0  0  0  0
 28 23  2  0  0  0  0
 29 20  1  0  0  0  0
 30 32  1  0  0  0  0
 30 29  1  0  0  0  0
 31 30  2  0  0  0  0
M  END
>  <MODEL>
8

>  <REMARK>
 VINA RESULT:      -8.6      2.269      5.519
  Name = 
  2 active torsions:
  status: ('A' for Active; 'I' for Inactive)
    1  A    between atoms: C_1  and  C_10
    2  A    between atoms: C_10  and  N_24
                            x       y       z     vdW  Elec       q    Type
                         _______ _______ _______ _____ _____    ______ ____

>  <TORSDO>
F 2

$$$$
=
 OpenBabel11052416473D

 32 37  0  0  1  0  0  0  0  0999 V2000
  189.4740  177.4940  147.7270 C   0  0  0  0  0  2  0  0  0  0  0  0
  188.3380  177.6810  142.6140 C   0  0  0  0  0  0  0  0  0  0  0  0
  183.6100  179.0160  142.8860 C   0  0  0  0  0  3  0  0  0  0  0  0
  183.5320  179.1520  141.5970 N   0  0  0  0  0  0  0  0  0  0  0  0
  189.4250  177.6560  140.3900 C   0  0  0  0  0  0  0  0  0  0  0  0
  189.2520  177.8620  139.0250 C   0  0  0  0  0  0  0  0  0  0  0  0
  189.4250  176.6440  144.5490 N   0  0  2  0  0  0  0  0  0  0  0  0
  187.1290  177.4040  144.8240 C   0  0  0  0  0  2  0  0  0  0  0  0
  188.1610  178.3460  137.1870 N   0  0  0  0  0  0  0  0  0  0  0  0
  188.4450  176.8090  146.8370 C   0  0  0  0  0  2  0  0  0  0  0  0
  184.8440  178.5480  143.5280 C   0  0  0  0  0  3  0  0  0  0  0  0
  187.1530  177.8520  143.4260 N   0  0  0  0  0  0  0  0  0  0  0  0
  185.9370  178.2840  142.8060 C   0  0  0  0  0  0  0  0  0  0  0  0
  187.0330  178.2420  140.6290 C   0  0  0  0  0  0  0  0  0  0  0  0
  189.4510  178.0410  136.9100 C   0  0  0  0  0  3  0  0  0  0  0  0
  191.2600  177.3850  146.1230 C   0  0  0  0  0  2  0  0  0  0  0  0
  188.5230  177.4010  145.4340 C   0  0  1  0  0  3  0  0  0  0  0  0
  190.1570  177.7340  138.0330 N   0  0  0  0  0  0  0  0  0  0  0  0
  190.7590  176.3590  145.1060 C   0  0  0  0  0  2  0  0  0  0  0  0
  190.8220  176.9890  147.4600 N   0  0  0  0  0  0  0  0  0  0  0  0
  184.6160  178.8370  140.6620 C   0  0  0  0  0  2  0  0  0  0  0  0
  185.9130  178.4600  141.3480 C   0  0  0  0  0  0  0  0  0  0  0  0
  186.9640  178.4150  139.2710 N   0  0  0  0  0  0  0  0  0  0  0  0
  189.6340  177.4470  143.3490 C   0  0  0  0  0  2  0  0  0  0  0  0
  190.7790  177.2010  140.8380 C   0  0  0  0  0  1  0  0  0  0  0  0
  187.1240  178.7130  136.2400 C   0  0  0  0  0  1  0  0  0  0  0  0
  188.2840  177.8520  141.2530 C   0  0  0  0  0  0  0  0  0  0  0  0
  188.0620  178.2260  138.5130 C   0  0  0  0  0  0  0  0  0  0  0  0
  191.7560  177.5090  148.4670 C   0  0  0  0  0  2  0  0  0  0  0  0
  192.8650  176.5570  148.8190 C   0  0  0  0  0  0  0  0  0  0  0  0
  193.9150  176.9780  149.6240 O   0  0  0  0  0  1  0  0  0  0  0  0
  192.8360  175.3720  148.3970 O   0  0  0  0  0  0  0  0  0  0  0  0
  2 24  1  0  0  0  0
  2 12  1  0  0  0  0
  3 11  1  0  0  0  0
  4  3  2  0  0  0  0
  5 25  1  0  0  0  0
  5 27  1  0  0  0  0
  6  5  2  0  0  0  0
  7 24  1  6  0  0  0
  7 19  1  0  0  0  0
  7 17  1  0  0  0  0
  9 28  1  0  0  0  0
 10  1  1  0  0  0  0
 12  8  1  0  0  0  0
 13 12  1  0  0  0  0
 13 11  2  0  0  0  0
 14 27  1  0  0  0  0
 14 22  2  0  0  0  0
 15  9  1  0  0  0  0
 15 18  2  0  0  0  0
 16 20  1  0  0  0  0
 17  8  1  6  0  0  0
 17 10  1  0  0  0  0
 18  6  1  0  0  0  0
 19 16  1  0  0  0  0
 20  1  1  0  0  0  0
 20 29  1  0  0  0  0
 21 22  1  0  0  0  0
 21  4  1  0  0  0  0
 22 13  1  0  0  0  0
 23 14  1  0  0  0  0
 26  9  1  0  0  0  0
 27  2  2  0  0  0  0
 28  6  1  0  0  0  0
 28 23  2  0  0  0  0
 29 30  1  0  0  0  0
 30 31  1  0  0  0  0
 32 30  2  0  0  0  0
M  END
>  <MODEL>
9

>  <REMARK>
 VINA RESULT:      -8.5      3.528      7.595
  Name = 
  2 active torsions:
  status: ('A' for Active; 'I' for Inactive)
    1  A    between atoms: C_1  and  C_10
    2  A    between atoms: C_10  and  N_24
                            x       y       z     vdW  Elec       q    Type
                         _______ _______ _______ _____ _____    ______ ____

>  <TORSDO>
F 2

$$$$
