=
 OpenBabel11052413503D

 27 31  0  0  0  0  0  0  0  0999 V2000
  186.4810  178.7520  141.0830 C   0  0  0  0  0  3  0  0  0  0  0  0
  185.9400  178.4410  143.4950 C   0  0  0  0  0  0  0  0  0  0  0  0
  188.0670  177.1870  143.0760 N   0  0  0  0  0  0  0  0  0  0  0  0
  186.7460  178.4350  147.6010 C   0  0  0  0  0  3  0  0  0  0  0  0
  188.1400  177.8070  149.4290 F   0  0  0  0  0  0  0  0  0  0  0  0
  185.1060  179.0390  144.3950 N   0  0  0  0  0  0  0  0  0  0  0  0
  188.7820  177.1810  147.2210 C   0  0  0  0  0  3  0  0  0  0  0  0
  191.2310  176.3960  139.7430 F   0  0  0  0  0  0  0  0  0  0  0  0
  188.5290  177.1800  145.8460 C   0  0  0  0  0  3  0  0  0  0  0  0
  190.0960  177.0210  140.1370 C   0  0  0  0  0  0  0  0  0  0  0  0
  187.3800  177.8040  145.3330 C   0  0  0  0  0  0  0  0  0  0  0  0
  185.5540  178.4080  142.1160 N   0  0  0  0  0  0  0  0  0  0  0  0
  187.8910  177.8080  148.0970 C   0  0  0  0  0  0  0  0  0  0  0  0
  186.4890  178.4340  146.2270 C   0  0  0  0  0  0  0  0  0  0  0  0
  187.7220  178.2870  140.9480 C   0  0  0  0  0  0  0  0  0  0  0  0
  187.1200  177.8210  143.9480 C   0  0  0  0  0  0  0  0  0  0  0  0
  189.5340  176.7280  141.3790 C   0  0  0  0  0  3  0  0  0  0  0  0
  185.3530  179.0550  145.7280 C   0  0  0  0  0  3  0  0  0  0  0  0
  189.5160  177.9910  139.3270 C   0  0  0  0  0  3  0  0  0  0  0  0
  188.3330  178.6090  139.7290 C   0  0  0  0  0  3  0  0  0  0  0  0
  188.3720  177.3740  141.8240 C   0  0  0  0  0  0  0  0  0  0  0  0
  181.4820  178.0850  141.0400 N   0  0  0  0  0  0  0  0  0  0  0  0
  184.1580  178.2830  141.7600 C   0  0  0  0  0  0  0  0  0  0  0  0
  183.7780  177.6150  140.5850 C   0  0  0  0  0  3  0  0  0  0  0  0
  182.4280  177.5230  140.2420 C   0  0  0  0  0  3  0  0  0  0  0  0
  181.8160  178.7480  142.1790 C   0  0  0  0  0  3  0  0  0  0  0  0
  183.1560  178.8610  142.5560 C   0  0  0  0  0  3  0  0  0  0  0  0
  1 12  1  0  0  0  0
  2 16  2  0  0  0  0
  2  6  1  0  0  0  0
  3 16  1  0  0  0  0
  4 13  1  0  0  0  0
  6 18  2  0  0  0  0
  7 13  2  0  0  0  0
  8 10  1  0  0  0  0
  9  7  1  0  0  0  0
 10 17  2  0  0  0  0
 11  9  2  0  0  0  0
 11 14  1  0  0  0  0
 12  2  1  0  0  0  0
 13  5  1  0  0  0  0
 14  4  2  0  0  0  0
 15  1  2  0  0  0  0
 15 21  1  0  0  0  0
 16 11  1  0  0  0  0
 17 21  1  0  0  0  0
 18 14  1  0  0  0  0
 19 20  2  0  0  0  0
 19 10  1  0  0  0  0
 20 15  1  0  0  0  0
 21  3  2  0  0  0  0
 22 26  1  0  0  0  0
 23 12  1  0  0  0  0
 23 27  1  0  0  0  0
 24 23  2  0  0  0  0
 25 24  1  0  0  0  0
 25 22  2  0  0  0  0
 26 27  2  0  0  0  0
M  END
>  <MODEL>
1

>  <REMARK>
 VINA RESULT:     -10.2      0.000      0.000
  Name = 
  1 active torsions:
  status: ('A' for Active; 'I' for Inactive)
    1  A    between atoms: C_9  and  N_15
                            x       y       z     vdW  Elec       q    Type
                         _______ _______ _______ _____ _____    ______ ____

>  <TORSDO>
F 1

$$$$
=
 OpenBabel11052413503D

 27 31  0  0  0  0  0  0  0  0999 V2000
  189.9660  178.0520  142.3540 C   0  0  0  0  0  3  0  0  0  0  0  0
  187.5500  178.1650  141.7600 C   0  0  0  0  0  0  0  0  0  0  0  0
  187.6610  177.3890  144.1380 N   0  0  0  0  0  0  0  0  0  0  0  0
  183.5480  179.2610  142.3050 C   0  0  0  0  0  3  0  0  0  0  0  0
  181.6190  179.4030  143.6970 F   0  0  0  0  0  0  0  0  0  0  0  0
  186.8140  178.7330  140.7600 N   0  0  0  0  0  0  0  0  0  0  0  0
  183.6230  178.4730  144.5930 C   0  0  0  0  0  3  0  0  0  0  0  0
  190.7100  176.6500  147.5880 F   0  0  0  0  0  0  0  0  0  0  0  0
  184.9610  178.1070  144.4270 C   0  0  0  0  0  3  0  0  0  0  0  0
  190.4740  177.0600  146.3190 C   0  0  0  0  0  0  0  0  0  0  0  0
  185.6090  178.3110  143.1970 C   0  0  0  0  0  0  0  0  0  0  0  0
  188.8860  177.7360  141.4720 N   0  0  0  0  0  0  0  0  0  0  0  0
  182.9170  179.0490  143.5330 C   0  0  0  0  0  0  0  0  0  0  0  0
  184.8870  178.8950  142.1360 C   0  0  0  0  0  0  0  0  0  0  0  0
  189.9860  177.8750  143.6740 C   0  0  0  0  0  0  0  0  0  0  0  0
  186.9620  177.9590  143.0210 C   0  0  0  0  0  0  0  0  0  0  0  0
  189.2000  176.9250  145.7670 C   0  0  0  0  0  3  0  0  0  0  0  0
  185.5190  179.1030  140.9180 C   0  0  0  0  0  3  0  0  0  0  0  0
  191.4880  177.6600  145.5800 C   0  0  0  0  0  3  0  0  0  0  0  0
  191.2440  178.0540  144.2650 C   0  0  0  0  0  3  0  0  0  0  0  0
  188.9210  177.3600  144.4640 C   0  0  0  0  0  0  0  0  0  0  0  0
  189.8590  176.2420  137.6430 N   0  0  0  0  0  0  0  0  0  0  0  0
  189.2100  177.2090  140.1660 C   0  0  0  0  0  0  0  0  0  0  0  0
  190.4820  176.6720  139.9070 C   0  0  0  0  0  3  0  0  0  0  0  0
  190.7880  176.1880  138.6340 C   0  0  0  0  0  3  0  0  0  0  0  0
  188.6220  176.7640  137.8560 C   0  0  0  0  0  3  0  0  0  0  0  0
  188.2780  177.2590  139.1170 C   0  0  0  0  0  3  0  0  0  0  0  0
  1 15  2  0  0  0  0
  2 16  1  0  0  0  0
  3 21  2  0  0  0  0
  4 13  2  0  0  0  0
  6 18  1  0  0  0  0
  6  2  2  0  0  0  0
  9  7  2  0  0  0  0
 10  8  1  0  0  0  0
 11  9  1  0  0  0  0
 12  2  1  0  0  0  0
 12  1  1  0  0  0  0
 13  5  1  0  0  0  0
 13  7  1  0  0  0  0
 14  4  1  0  0  0  0
 14 11  1  0  0  0  0
 15 20  1  0  0  0  0
 15 21  1  0  0  0  0
 16 11  2  0  0  0  0
 16  3  1  0  0  0  0
 17 10  2  0  0  0  0
 18 14  2  0  0  0  0
 19 10  1  0  0  0  0
 20 19  2  0  0  0  0
 21 17  1  0  0  0  0
 22 26  2  0  0  0  0
 22 25  1  0  0  0  0
 23 12  1  0  0  0  0
 24 23  1  0  0  0  0
 25 24  2  0  0  0  0
 26 27  1  0  0  0  0
 27 23  2  0  0  0  0
M  END
>  <MODEL>
2

>  <REMARK>
 VINA RESULT:      -9.7      2.649      5.684
  Name = 
  1 active torsions:
  status: ('A' for Active; 'I' for Inactive)
    1  A    between atoms: C_9  and  N_15
                            x       y       z     vdW  Elec       q    Type
                         _______ _______ _______ _____ _____    ______ ____

>  <TORSDO>
F 1

$$$$
=
 OpenBabel11052413503D

 27 31  0  0  0  0  0  0  0  0999 V2000
  186.7770  178.8680  140.1620 C   0  0  0  0  0  3  0  0  0  0  0  0
  185.8790  178.6180  142.4710 C   0  0  0  0  0  0  0  0  0  0  0  0
  187.9770  177.2540  142.3730 N   0  0  0  0  0  0  0  0  0  0  0  0
  186.0820  178.6300  146.6510 C   0  0  0  0  0  3  0  0  0  0  0  0
  187.1630  177.9600  148.6660 F   0  0  0  0  0  0  0  0  0  0  0  0
  184.9550  179.2690  143.2370 N   0  0  0  0  0  0  0  0  0  0  0  0
  188.0850  177.2720  146.5780 C   0  0  0  0  0  3  0  0  0  0  0  0
  191.5440  176.2600  139.5390 F   0  0  0  0  0  0  0  0  0  0  0  0
  188.0320  177.2640  145.1810 C   0  0  0  0  0  3  0  0  0  0  0  0
  190.3980  176.9470  139.7610 C   0  0  0  0  0  0  0  0  0  0  0  0
  187.0030  177.9370  144.5030 C   0  0  0  0  0  0  0  0  0  0  0  0
  185.6940  178.5850  141.0520 N   0  0  0  0  0  0  0  0  0  0  0  0
  187.1100  177.9540  147.3120 C   0  0  0  0  0  0  0  0  0  0  0  0
  186.0270  178.6230  145.2540 C   0  0  0  0  0  0  0  0  0  0  0  0
  187.9990  178.3400  140.2100 C   0  0  0  0  0  0  0  0  0  0  0  0
  186.9470  177.9470  143.0950 C   0  0  0  0  0  0  0  0  0  0  0  0
  189.6470  176.6990  140.9110 C   0  0  0  0  0  3  0  0  0  0  0  0
  185.0080  179.2920  144.5920 C   0  0  0  0  0  3  0  0  0  0  0  0
  189.9910  177.9320  138.8690 C   0  0  0  0  0  3  0  0  0  0  0  0
  188.7950  178.6140  139.0900 C   0  0  0  0  0  3  0  0  0  0  0  0
  188.4680  177.4080  141.1780 C   0  0  0  0  0  0  0  0  0  0  0  0
  181.8130  178.3720  139.3980 N   0  0  0  0  0  0  0  0  0  0  0  0
  184.3600  178.5250  140.4970 C   0  0  0  0  0  0  0  0  0  0  0  0
  183.4660  177.5170  140.8930 C   0  0  0  0  0  3  0  0  0  0  0  0
  182.1890  177.4590  140.3320 C   0  0  0  0  0  3  0  0  0  0  0  0
  182.6570  179.3550  138.9850 C   0  0  0  0  0  3  0  0  0  0  0  0
  183.9420  179.4460  139.5230 C   0  0  0  0  0  3  0  0  0  0  0  0
  1 15  2  0  0  0  0
  1 12  1  0  0  0  0
  2 16  2  0  0  0  0
  2  6  1  0  0  0  0
  3 16  1  0  0  0  0
  4 13  1  0  0  0  0
  6 18  2  0  0  0  0
  7 13  2  0  0  0  0
  8 10  1  0  0  0  0
  9  7  1  0  0  0  0
 10 17  2  0  0  0  0
 11  9  2  0  0  0  0
 11 14  1  0  0  0  0
 12  2  1  0  0  0  0
 13  5  1  0  0  0  0
 14  4  2  0  0  0  0
 15 21  1  0  0  0  0
 16 11  1  0  0  0  0
 17 21  1  0  0  0  0
 18 14  1  0  0  0  0
 19 20  2  0  0  0  0
 19 10  1  0  0  0  0
 20 15  1  0  0  0  0
 21  3  2  0  0  0  0
 22 25  1  0  0  0  0
 23 24  1  0  0  0  0
 23 12  1  0  0  0  0
 25 24  2  0  0  0  0
 26 22  2  0  0  0  0
 26 27  1  0  0  0  0
 27 23  2  0  0  0  0
M  END
>  <MODEL>
3

>  <REMARK>
 VINA RESULT:      -9.5      1.047      1.280
  Name = 
  1 active torsions:
  status: ('A' for Active; 'I' for Inactive)
    1  A    between atoms: C_9  and  N_15
                            x       y       z     vdW  Elec       q    Type
                         _______ _______ _______ _____ _____    ______ ____

>  <TORSDO>
F 1

$$$$
=
 OpenBabel11052413503D

 27 31  0  0  0  0  0  0  0  0999 V2000
  187.8500  178.6890  141.3440 C   0  0  0  0  0  3  0  0  0  0  0  0
  188.2560  177.8740  143.6620 C   0  0  0  0  0  0  0  0  0  0  0  0
  189.7800  176.5610  142.1690 N   0  0  0  0  0  0  0  0  0  0  0  0
  190.5980  176.8320  146.9690 C   0  0  0  0  0  3  0  0  0  0  0  0
  192.4600  175.6670  147.8940 F   0  0  0  0  0  0  0  0  0  0  0  0
  187.9680  178.3190  144.9200 N   0  0  0  0  0  0  0  0  0  0  0  0
  192.0560  175.5190  145.5500 C   0  0  0  0  0  3  0  0  0  0  0  0
  191.1740  176.2820  137.7280 F   0  0  0  0  0  0  0  0  0  0  0  0
  191.2850  175.8630  144.4350 C   0  0  0  0  0  3  0  0  0  0  0  0
  190.4200  176.9000  138.6690 C   0  0  0  0  0  0  0  0  0  0  0  0
  190.1610  176.6940  144.5740 C   0  0  0  0  0  0  0  0  0  0  0  0
  187.3590  178.2000  142.5940 N   0  0  0  0  0  0  0  0  0  0  0  0
  191.7120  176.0030  146.8150 C   0  0  0  0  0  0  0  0  0  0  0  0
  189.8260  177.1770  145.8570 C   0  0  0  0  0  0  0  0  0  0  0  0
  188.8300  178.1560  140.6160 C   0  0  0  0  0  0  0  0  0  0  0  0
  189.3850  177.0590  143.4570 C   0  0  0  0  0  0  0  0  0  0  0  0
  190.3490  176.3780  139.9600 C   0  0  0  0  0  3  0  0  0  0  0  0
  188.7180  178.0000  146.0030 C   0  0  0  0  0  3  0  0  0  0  0  0
  189.7540  178.0820  138.3640 C   0  0  0  0  0  3  0  0  0  0  0  0
  188.9580  178.6960  139.3300 C   0  0  0  0  0  3  0  0  0  0  0  0
  189.5950  177.0070  140.9610 C   0  0  0  0  0  0  0  0  0  0  0  0
  183.2100  178.5230  143.3190 N   0  0  0  0  0  0  0  0  0  0  0  0
  185.9380  178.2930  142.8470 C   0  0  0  0  0  0  0  0  0  0  0  0
  185.0190  178.2530  141.7860 C   0  0  0  0  0  3  0  0  0  0  0  0
  183.6520  178.3660  142.0440 C   0  0  0  0  0  3  0  0  0  0  0  0
  184.0730  178.5750  144.3690 C   0  0  0  0  0  3  0  0  0  0  0  0
  185.4480  178.4650  144.1510 C   0  0  0  0  0  3  0  0  0  0  0  0
  1 12  1  0  0  0  0
  2  6  1  0  0  0  0
  3 16  1  0  0  0  0
  6 18  2  0  0  0  0
  7 13  2  0  0  0  0
  8 10  1  0  0  0  0
  9 11  2  0  0  0  0
  9  7  1  0  0  0  0
 10 17  2  0  0  0  0
 11 14  1  0  0  0  0
 12 23  1  0  0  0  0
 12  2  1  0  0  0  0
 13  4  1  0  0  0  0
 13  5  1  0  0  0  0
 14 18  1  0  0  0  0
 14  4  2  0  0  0  0
 15 21  1  0  0  0  0
 15  1  2  0  0  0  0
 16  2  2  0  0  0  0
 16 11  1  0  0  0  0
 17 21  1  0  0  0  0
 19 10  1  0  0  0  0
 19 20  2  0  0  0  0
 20 15  1  0  0  0  0
 21  3  2  0  0  0  0
 22 26  1  0  0  0  0
 23 27  1  0  0  0  0
 24 25  1  0  0  0  0
 24 23  2  0  0  0  0
 25 22  2  0  0  0  0
 27 26  2  0  0  0  0
M  END
>  <MODEL>
4

>  <REMARK>
 VINA RESULT:      -9.2      2.016      2.786
  Name = 
  1 active torsions:
  status: ('A' for Active; 'I' for Inactive)
    1  A    between atoms: C_9  and  N_15
                            x       y       z     vdW  Elec       q    Type
                         _______ _______ _______ _____ _____    ______ ____

>  <TORSDO>
F 1

$$$$
=
 OpenBabel11052413503D

 27 31  0  0  0  0  0  0  0  0999 V2000
  189.8440  176.8550  140.8000 C   0  0  0  0  0  3  0  0  0  0  0  0
  187.9360  177.7140  142.1510 C   0  0  0  0  0  0  0  0  0  0  0  0
  187.6000  178.5690  139.8220 N   0  0  0  0  0  0  0  0  0  0  0  0
  183.9040  178.4430  143.0010 C   0  0  0  0  0  3  0  0  0  0  0  0
  181.7640  179.2400  142.3210 F   0  0  0  0  0  0  0  0  0  0  0  0
  187.3900  177.4240  143.3690 N   0  0  0  0  0  0  0  0  0  0  0  0
  183.5710  179.3180  140.7680 C   0  0  0  0  0  3  0  0  0  0  0  0
  189.3990  178.2530  135.5320 F   0  0  0  0  0  0  0  0  0  0  0  0
  184.9140  179.0750  140.4690 C   0  0  0  0  0  3  0  0  0  0  0  0
  189.4310  177.8730  136.8320 C   0  0  0  0  0  0  0  0  0  0  0  0
  185.7690  178.5150  141.4320 C   0  0  0  0  0  0  0  0  0  0  0  0
  189.3420  177.5180  141.9630 N   0  0  0  0  0  0  0  0  0  0  0  0
  183.0670  179.0030  142.0330 C   0  0  0  0  0  0  0  0  0  0  0  0
  185.2480  178.2000  142.7050 C   0  0  0  0  0  0  0  0  0  0  0  0
  189.5150  177.1170  139.5370 C   0  0  0  0  0  0  0  0  0  0  0  0
  187.1220  178.2530  141.1380 C   0  0  0  0  0  0  0  0  0  0  0  0
  188.5830  178.4820  137.7570 C   0  0  0  0  0  3  0  0  0  0  0  0
  186.0850  177.6450  143.6610 C   0  0  0  0  0  3  0  0  0  0  0  0
  190.2720  176.8440  137.2380 C   0  0  0  0  0  3  0  0  0  0  0  0
  190.3190  176.4790  138.5830 C   0  0  0  0  0  3  0  0  0  0  0  0
  188.5770  178.0960  139.1040 C   0  0  0  0  0  0  0  0  0  0  0  0
  192.0550  178.1890  145.1310 N   0  0  0  0  0  0  0  0  0  0  0  0
  190.2570  177.7480  143.0590 C   0  0  0  0  0  0  0  0  0  0  0  0
  190.7810  179.0290  143.2960 C   0  0  0  0  0  3  0  0  0  0  0  0
  191.6810  179.2320  144.3440 C   0  0  0  0  0  3  0  0  0  0  0  0
  191.5750  176.9330  144.9240 C   0  0  0  0  0  3  0  0  0  0  0  0
  190.6720  176.6920  143.8860 C   0  0  0  0  0  3  0  0  0  0  0  0
  1 12  1  0  0  0  0
  2  6  1  0  0  0  0
  3 16  1  0  0  0  0
  6 18  2  0  0  0  0
  7 13  1  0  0  0  0
  8 10  1  0  0  0  0
  9  7  2  0  0  0  0
  9 11  1  0  0  0  0
 10 19  1  0  0  0  0
 10 17  2  0  0  0  0
 11 14  2  0  0  0  0
 12  2  1  0  0  0  0
 12 23  1  0  0  0  0
 13  5  1  0  0  0  0
 13  4  2  0  0  0  0
 14  4  1  0  0  0  0
 14 18  1  0  0  0  0
 15  1  2  0  0  0  0
 16 11  1  0  0  0  0
 16  2  2  0  0  0  0
 17 21  1  0  0  0  0
 19 20  2  0  0  0  0
 20 15  1  0  0  0  0
 21 15  1  0  0  0  0
 21  3  2  0  0  0  0
 23 24  2  0  0  0  0
 23 27  1  0  0  0  0
 24 25  1  0  0  0  0
 25 22  2  0  0  0  0
 26 22  1  0  0  0  0
 27 26  2  0  0  0  0
M  END
>  <MODEL>
5

>  <REMARK>
 VINA RESULT:      -8.9      3.160      6.064
  Name = 
  1 active torsions:
  status: ('A' for Active; 'I' for Inactive)
    1  A    between atoms: C_9  and  N_15
                            x       y       z     vdW  Elec       q    Type
                         _______ _______ _______ _____ _____    ______ ____

>  <TORSDO>
F 1

$$$$
=
 OpenBabel11052413503D

 27 31  0  0  0  0  0  0  0  0999 V2000
  184.3620  177.8370  141.2200 C   0  0  0  0  0  3  0  0  0  0  0  0
  186.2860  177.8850  142.8010 C   0  0  0  0  0  0  0  0  0  0  0  0
  184.4070  179.0980  143.9300 N   0  0  0  0  0  0  0  0  0  0  0  0
  188.1830  177.3830  146.4970 C   0  0  0  0  0  3  0  0  0  0  0  0
  188.2390  177.7390  148.8520 F   0  0  0  0  0  0  0  0  0  0  0  0
  187.4720  177.2190  142.9190 N   0  0  0  0  0  0  0  0  0  0  0  0
  186.3990  178.5930  147.6000 C   0  0  0  0  0  3  0  0  0  0  0  0
  179.8990  180.1500  143.3750 F   0  0  0  0  0  0  0  0  0  0  0  0
  185.7520  178.7640  146.3730 C   0  0  0  0  0  3  0  0  0  0  0  0
  181.0080  179.5270  142.9110 C   0  0  0  0  0  0  0  0  0  0  0  0
  186.3130  178.2480  145.1930 C   0  0  0  0  0  0  0  0  0  0  0  0
  185.7420  178.0940  141.4930 N   0  0  0  0  0  0  0  0  0  0  0  0
  187.6130  177.9030  147.6610 C   0  0  0  0  0  0  0  0  0  0  0  0
  187.5380  177.5530  145.2680 C   0  0  0  0  0  0  0  0  0  0  0  0
  183.3220  178.2670  141.9320 C   0  0  0  0  0  0  0  0  0  0  0  0
  185.6630  178.4020  143.9520 C   0  0  0  0  0  0  0  0  0  0  0  0
  182.2280  179.6950  143.5650 C   0  0  0  0  0  3  0  0  0  0  0  0
  188.0980  177.0380  144.1080 C   0  0  0  0  0  3  0  0  0  0  0  0
  180.9250  178.6810  141.8100 C   0  0  0  0  0  3  0  0  0  0  0  0
  182.0770  178.0660  141.3220 C   0  0  0  0  0  3  0  0  0  0  0  0
  183.3890  179.0460  143.1210 C   0  0  0  0  0  0  0  0  0  0  0  0
  188.3240  178.6780  138.2010 N   0  0  0  0  0  0  0  0  0  0  0  0
  186.6250  178.3120  140.3690 C   0  0  0  0  0  0  0  0  0  0  0  0
  186.1270  178.3020  139.0560 C   0  0  0  0  0  3  0  0  0  0  0  0
  186.9960  178.4910  137.9800 C   0  0  0  0  0  3  0  0  0  0  0  0
  188.8410  178.6840  139.4590 C   0  0  0  0  0  3  0  0  0  0  0  0
  188.0030  178.4980  140.5610 C   0  0  0  0  0  3  0  0  0  0  0  0
  1 12  1  0  0  0  0
  1 15  2  0  0  0  0
  2  6  2  0  0  0  0
  2 16  1  0  0  0  0
  3 16  1  0  0  0  0
  4 13  2  0  0  0  0
  6 18  1  0  0  0  0
  7 13  1  0  0  0  0
  9  7  2  0  0  0  0
 10  8  1  0  0  0  0
 10 17  2  0  0  0  0
 11 14  1  0  0  0  0
 11  9  1  0  0  0  0
 12  2  1  0  0  0  0
 13  5  1  0  0  0  0
 14  4  1  0  0  0  0
 15 21  1  0  0  0  0
 16 11  2  0  0  0  0
 18 14  2  0  0  0  0
 19 10  1  0  0  0  0
 20 19  2  0  0  0  0
 20 15  1  0  0  0  0
 21 17  1  0  0  0  0
 21  3  2  0  0  0  0
 22 26  1  0  0  0  0
 23 27  1  0  0  0  0
 23 12  1  0  0  0  0
 24 23  2  0  0  0  0
 25 22  2  0  0  0  0
 25 24  1  0  0  0  0
 26 27  2  0  0  0  0
M  END
>  <MODEL>
6

>  <REMARK>
 VINA RESULT:      -8.8      2.432      5.284
  Name = 
  1 active torsions:
  status: ('A' for Active; 'I' for Inactive)
    1  A    between atoms: C_9  and  N_15
                            x       y       z     vdW  Elec       q    Type
                         _______ _______ _______ _____ _____    ______ ____

>  <TORSDO>
F 1

$$$$
=
 OpenBabel11052413503D

 27 31  0  0  0  0  0  0  0  0999 V2000
  187.1950  177.1660  142.2910 C   0  0  0  0  0  3  0  0  0  0  0  0
  189.4680  176.8050  143.2440 C   0  0  0  0  0  0  0  0  0  0  0  0
  188.1510  178.0270  144.9890 N   0  0  0  0  0  0  0  0  0  0  0  0
  192.2210  175.6090  146.1590 C   0  0  0  0  0  3  0  0  0  0  0  0
  192.9690  175.6280  148.4220 F   0  0  0  0  0  0  0  0  0  0  0  0
  190.5400  176.0150  142.9440 N   0  0  0  0  0  0  0  0  0  0  0  0
  190.9880  176.8240  147.8520 C   0  0  0  0  0  3  0  0  0  0  0  0
  183.8460  179.5840  145.8750 F   0  0  0  0  0  0  0  0  0  0  0  0
  190.0570  177.2270  146.8890 C   0  0  0  0  0  3  0  0  0  0  0  0
  184.6920  178.9250  145.0470 C   0  0  0  0  0  0  0  0  0  0  0  0
  190.1990  176.8270  145.5500 C   0  0  0  0  0  0  0  0  0  0  0  0
  188.6180  177.2450  142.1780 N   0  0  0  0  0  0  0  0  0  0  0  0
  192.0680  176.0170  147.4860 C   0  0  0  0  0  0  0  0  0  0  0  0
  191.2930  176.0110  145.1950 C   0  0  0  0  0  0  0  0  0  0  0  0
  186.4580  177.5920  143.3150 C   0  0  0  0  0  0  0  0  0  0  0  0
  189.2600  177.2150  144.5740 C   0  0  0  0  0  0  0  0  0  0  0  0
  186.0560  178.8800  145.3350 C   0  0  0  0  0  3  0  0  0  0  0  0
  191.4390  175.6100  143.8750 C   0  0  0  0  0  3  0  0  0  0  0  0
  184.1970  178.2530  143.9350 C   0  0  0  0  0  3  0  0  0  0  0  0
  185.0780  177.6020  143.0730 C   0  0  0  0  0  3  0  0  0  0  0  0
  186.9520  178.1880  144.5080 C   0  0  0  0  0  0  0  0  0  0  0  0
  190.2260  178.0400  138.3540 N   0  0  0  0  0  0  0  0  0  0  0  0
  189.1800  177.5300  140.8770 C   0  0  0  0  0  0  0  0  0  0  0  0
  188.5120  178.3810  139.9810 C   0  0  0  0  0  3  0  0  0  0  0  0
  189.0560  178.6280  138.7190 C   0  0  0  0  0  3  0  0  0  0  0  0
  190.8930  177.2030  139.1930 C   0  0  0  0  0  3  0  0  0  0  0  0
  190.3810  176.9320  140.4640 C   0  0  0  0  0  3  0  0  0  0  0  0
  1 15  2  0  0  0  0
  2 16  1  0  0  0  0
  4 13  2  0  0  0  0
  6  2  2  0  0  0  0
  6 18  1  0  0  0  0
  9  7  2  0  0  0  0
 10 17  2  0  0  0  0
 10  8  1  0  0  0  0
 11  9  1  0  0  0  0
 12  1  1  0  0  0  0
 12  2  1  0  0  0  0
 13  7  1  0  0  0  0
 13  5  1  0  0  0  0
 14 11  1  0  0  0  0
 14  4  1  0  0  0  0
 15 21  1  0  0  0  0
 16  3  1  0  0  0  0
 16 11  2  0  0  0  0
 18 14  2  0  0  0  0
 19 10  1  0  0  0  0
 20 15  1  0  0  0  0
 20 19  2  0  0  0  0
 21  3  2  0  0  0  0
 21 17  1  0  0  0  0
 22 25  2  0  0  0  0
 22 26  1  0  0  0  0
 23 12  1  0  0  0  0
 24 23  2  0  0  0  0
 25 24  1  0  0  0  0
 26 27  2  0  0  0  0
 27 23  1  0  0  0  0
M  END
>  <MODEL>
7

>  <REMARK>
 VINA RESULT:      -8.7      3.057      5.734
  Name = 
  1 active torsions:
  status: ('A' for Active; 'I' for Inactive)
    1  A    between atoms: C_9  and  N_15
                            x       y       z     vdW  Elec       q    Type
                         _______ _______ _______ _____ _____    ______ ____

>  <TORSDO>
F 1

$$$$
=
 OpenBabel11052413503D

 27 31  0  0  0  0  0  0  0  0999 V2000
  189.6260  176.4750  142.9270 C   0  0  0  0  0  3  0  0  0  0  0  0
  187.7160  177.2980  144.2980 C   0  0  0  0  0  0  0  0  0  0  0  0
  187.5890  178.5030  142.1060 N   0  0  0  0  0  0  0  0  0  0  0  0
  183.7130  178.2530  145.0540 C   0  0  0  0  0  3  0  0  0  0  0  0
  181.6880  179.3240  144.3980 F   0  0  0  0  0  0  0  0  0  0  0  0
  187.0780  176.8870  145.4320 N   0  0  0  0  0  0  0  0  0  0  0  0
  183.5840  179.4620  142.9610 C   0  0  0  0  0  3  0  0  0  0  0  0
  189.6090  178.6420  137.9050 F   0  0  0  0  0  0  0  0  0  0  0  0
  184.9200  179.1460  142.6920 C   0  0  0  0  0  3  0  0  0  0  0  0
  189.5330  178.0800  139.1360 C   0  0  0  0  0  0  0  0  0  0  0  0
  185.6680  178.3820  143.6030 C   0  0  0  0  0  0  0  0  0  0  0  0
  189.1110  177.0070  144.1500 N   0  0  0  0  0  0  0  0  0  0  0  0
  182.9820  179.0160  144.1410 C   0  0  0  0  0  0  0  0  0  0  0  0
  185.0480  177.9360  144.7890 C   0  0  0  0  0  0  0  0  0  0  0  0
  189.3950  176.9420  141.7010 C   0  0  0  0  0  0  0  0  0  0  0  0
  187.0100  178.0460  143.3370 C   0  0  0  0  0  0  0  0  0  0  0  0
  188.6830  178.6230  140.0990 C   0  0  0  0  0  3  0  0  0  0  0  0
  185.7790  177.1790  145.6920 C   0  0  0  0  0  3  0  0  0  0  0  0
  190.2630  176.9330  139.4260 C   0  0  0  0  0  3  0  0  0  0  0  0
  190.1990  176.3780  140.7030 C   0  0  0  0  0  3  0  0  0  0  0  0
  188.5660  178.0510  141.3740 C   0  0  0  0  0  0  0  0  0  0  0  0
  191.6180  176.9280  147.5480 N   0  0  0  0  0  0  0  0  0  0  0  0
  189.9740  176.9980  145.3090 C   0  0  0  0  0  0  0  0  0  0  0  0
  191.2420  176.3980  145.2510 C   0  0  0  0  0  3  0  0  0  0  0  0
  192.0560  176.3760  146.3860 C   0  0  0  0  0  3  0  0  0  0  0  0
  190.3920  177.5090  147.6420 C   0  0  0  0  0  3  0  0  0  0  0  0
  189.5500  177.5500  146.5290 C   0  0  0  0  0  3  0  0  0  0  0  0
  1 12  1  0  0  0  0
  2  6  1  0  0  0  0
  3 16  1  0  0  0  0
  6 18  2  0  0  0  0
  7 13  1  0  0  0  0
  8 10  1  0  0  0  0
  9  7  2  0  0  0  0
  9 11  1  0  0  0  0
 10 19  1  0  0  0  0
 10 17  2  0  0  0  0
 11 14  2  0  0  0  0
 12  2  1  0  0  0  0
 12 23  1  0  0  0  0
 13  5  1  0  0  0  0
 13  4  2  0  0  0  0
 14  4  1  0  0  0  0
 14 18  1  0  0  0  0
 15  1  2  0  0  0  0
 16 11  1  0  0  0  0
 16  2  2  0  0  0  0
 17 21  1  0  0  0  0
 19 20  2  0  0  0  0
 20 15  1  0  0  0  0
 21 15  1  0  0  0  0
 21  3  2  0  0  0  0
 22 26  1  0  0  0  0
 23 27  1  0  0  0  0
 24 23  2  0  0  0  0
 24 25  1  0  0  0  0
 25 22  2  0  0  0  0
 27 26  2  0  0  0  0
M  END
>  <MODEL>
8

>  <REMARK>
 VINA RESULT:      -8.7      2.660      5.702
  Name = 
  1 active torsions:
  status: ('A' for Active; 'I' for Inactive)
    1  A    between atoms: C_9  and  N_15
                            x       y       z     vdW  Elec       q    Type
                         _______ _______ _______ _____ _____    ______ ____

>  <TORSDO>
F 1

$$$$
=
 OpenBabel11052413503D

 27 31  0  0  0  0  0  0  0  0999 V2000
  187.9340  177.0090  143.2470 C   0  0  0  0  0  3  0  0  0  0  0  0
  185.6980  178.0840  143.0250 C   0  0  0  0  0  0  0  0  0  0  0  0
  186.9890  178.6970  140.9690 N   0  0  0  0  0  0  0  0  0  0  0  0
  182.1270  179.0630  141.0750 C   0  0  0  0  0  3  0  0  0  0  0  0
  180.9850  179.8680  139.1450 F   0  0  0  0  0  0  0  0  0  0  0  0
  184.4830  177.9490  143.6320 N   0  0  0  0  0  0  0  0  0  0  0  0
  183.3620  179.7060  139.0930 C   0  0  0  0  0  3  0  0  0  0  0  0
  191.0440  177.8490  138.8280 F   0  0  0  0  0  0  0  0  0  0  0  0
  184.5620  179.3780  139.7310 C   0  0  0  0  0  3  0  0  0  0  0  0
  190.2130  177.6110  139.8710 C   0  0  0  0  0  0  0  0  0  0  0  0
  184.5600  178.8910  141.0480 C   0  0  0  0  0  0  0  0  0  0  0  0
  186.8810  177.8130  143.7850 N   0  0  0  0  0  0  0  0  0  0  0  0
  182.1470  179.5490  139.7650 C   0  0  0  0  0  0  0  0  0  0  0  0
  183.3260  178.7350  141.7150 C   0  0  0  0  0  0  0  0  0  0  0  0
  188.5010  177.1470  142.0500 C   0  0  0  0  0  0  0  0  0  0  0  0
  185.7620  178.5440  141.6970 C   0  0  0  0  0  0  0  0  0  0  0  0
  189.0380  178.3490  140.0090 C   0  0  0  0  0  3  0  0  0  0  0  0
  183.3140  178.2530  143.0150 C   0  0  0  0  0  3  0  0  0  0  0  0
  190.5040  176.5980  140.7780 C   0  0  0  0  0  3  0  0  0  0  0  0
  189.6570  176.3780  141.8630 C   0  0  0  0  0  3  0  0  0  0  0  0
  188.1470  178.1100  141.0650 C   0  0  0  0  0  0  0  0  0  0  0  0
  186.9700  178.6700  147.9210 N   0  0  0  0  0  0  0  0  0  0  0  0
  186.9190  178.1220  145.1970 C   0  0  0  0  0  0  0  0  0  0  0  0
  187.9250  177.5880  146.0190 C   0  0  0  0  0  3  0  0  0  0  0  0
  187.9360  177.8780  147.3840 C   0  0  0  0  0  3  0  0  0  0  0  0
  185.9760  179.1960  147.1560 C   0  0  0  0  0  3  0  0  0  0  0  0
  185.9320  178.9290  145.7860 C   0  0  0  0  0  3  0  0  0  0  0  0
  1 12  1  0  0  0  0
  2  6  1  0  0  0  0
  2 12  1  0  0  0  0
  3 21  2  0  0  0  0
  3 16  1  0  0  0  0
  4 14  1  0  0  0  0
  5 13  1  0  0  0  0
  7  9  2  0  0  0  0
  7 13  1  0  0  0  0
  8 10  1  0  0  0  0
  9 11  1  0  0  0  0
 10 17  2  0  0  0  0
 10 19  1  0  0  0  0
 11 16  1  0  0  0  0
 11 14  2  0  0  0  0
 12 23  1  0  0  0  0
 13  4  2  0  0  0  0
 14 18  1  0  0  0  0
 15  1  2  0  0  0  0
 16  2  2  0  0  0  0
 17 21  1  0  0  0  0
 18  6  2  0  0  0  0
 19 20  2  0  0  0  0
 20 15  1  0  0  0  0
 21 15  1  0  0  0  0
 23 27  2  0  0  0  0
 23 24  1  0  0  0  0
 24 25  2  0  0  0  0
 25 22  1  0  0  0  0
 26 22  2  0  0  0  0
 27 26  1  0  0  0  0
M  END
>  <MODEL>
9

>  <REMARK>
 VINA RESULT:      -8.6      2.529      5.800
  Name = 
  1 active torsions:
  status: ('A' for Active; 'I' for Inactive)
    1  A    between atoms: C_9  and  N_15
                            x       y       z     vdW  Elec       q    Type
                         _______ _______ _______ _____ _____    ______ ____

>  <TORSDO>
F 1

$$$$
