=
 OpenBabel11052412183D

 30 34  0  0  1  0  0  0  0  0999 V2000
  186.3670  175.3520  136.6870 C   0  0  0  0  0  0  0  0  0  0  0  0
  186.0580  173.1190  135.4540 C   0  0  0  0  0  0  0  0  0  0  0  0
  183.4880  174.5370  137.6310 C   0  0  1  0  0  3  0  0  0  0  0  0
  185.8950  176.7830  136.4470 C   0  0  2  0  0  3  0  0  0  0  0  0
  187.5940  175.0950  137.1730 C   0  0  0  0  0  3  0  0  0  0  0  0
  190.0890  177.6640  138.0880 N   0  0  0  0  0  0  0  0  0  0  0  0
  188.8200  177.3410  137.7840 C   0  0  0  0  0  0  0  0  0  0  0  0
  189.9600  175.4420  137.7140 N   0  0  0  0  0  2  0  0  0  0  0  0
  182.6400  175.8190  137.6140 C   0  0  2  0  0  3  0  0  0  0  0  0
  188.7350  175.9710  137.5430 C   0  0  0  0  0  0  0  0  0  0  0  0
  187.7360  178.3630  137.7690 C   0  0  0  0  0  2  0  0  0  0  0  0
  185.5340  171.8870  135.3070 C   0  0  0  0  0  3  0  0  0  0  0  0
  192.1980  176.3580  138.3090 C   0  0  0  0  0  1  0  0  0  0  0  0
  187.1370  173.4520  134.6960 F   0  0  0  0  0  0  0  0  0  0  0  0
  183.0620  173.3420  136.7810 C   0  0  2  0  0  3  0  0  0  0  0  0
  184.3010  171.3100  135.9790 C   0  0  0  0  0  2  0  0  0  0  0  0
  190.7420  176.4890  138.0340 C   0  0  0  0  0  0  0  0  0  0  0  0
  185.5200  174.1090  136.4560 C   0  0  2  0  0  3  0  0  0  0  0  0
  184.4080  177.1160  136.2260 C   0  0  0  0  0  2  0  0  0  0  0  0
  181.4880  175.8380  136.6120 C   0  0  0  0  0  1  0  0  0  0  0  0
  183.5170  177.0800  137.4900 C   0  0  2  0  0  3  0  0  0  0  0  0
  186.9160  177.6150  135.1960 S   0  0  0  0  0  0  0  0  0  0  0  0
  183.7860  172.0640  137.2070 C   0  0  0  0  0  2  0  0  0  0  0  0
  184.0490  174.3660  136.2370 C   0  0  2  0  0  3  0  0  0  0  0  0
  187.4970  178.9020  136.3600 C   0  0  0  0  0  2  0  0  0  0  0  0
  184.2830  177.3090  138.7090 N   0  0  0  0  0  2  0  0  0  0  0  0
  184.2460  178.7370  138.9800 C   0  0  1  0  0  3  0  0  0  0  0  0
  182.8090  179.2140  138.9440 C   0  0  0  0  0  1  0  0  0  0  0  0
  184.8310  179.0190  140.3530 C   0  0  0  0  0  2  0  0  0  0  0  0
  184.0610  178.2630  141.4210 C   0  0  0  0  0  1  0  0  0  0  0  0
  1  5  2  0  0  0  0
  2 18  1  0  0  0  0
  4  1  1  0  0  0  0
  5 10  1  0  0  0  0
  7  6  1  0  0  0  0
  8 17  1  0  0  0  0
  9  3  1  0  0  0  0
 10  8  1  0  0  0  0
 10  7  2  0  0  0  0
 11  7  1  0  0  0  0
 12  2  2  0  0  0  0
 12 16  1  0  0  0  0
 14  2  1  0  0  0  0
 15 23  1  0  0  0  0
 15  3  1  0  0  0  0
 16 23  1  0  0  0  0
 17  6  2  0  0  0  0
 17 13  1  0  0  0  0
 18  1  1  0  0  0  0
 19  4  1  0  0  0  0
 19 21  1  0  0  0  0
 20  9  1  0  0  0  0
 21  9  1  0  0  0  0
 21 26  1  0  0  0  0
 22 25  1  0  0  0  0
 22  4  1  0  0  0  0
 24 18  1  0  0  0  0
 24 15  1  0  0  0  0
 24  3  1  0  0  0  0
 25 11  1  0  0  0  0
 26 27  1  0  0  0  0
 27 29  1  0  0  0  0
 28 27  1  0  0  0  0
 29 30  1  0  0  0  0
M  END
>  <MODEL>
1

>  <REMARK>
 VINA RESULT:      -5.5      0.000      0.000
  Name = 
  3 active torsions:
  status: ('A' for Active; 'I' for Inactive)
    1  A    between atoms: C_7  and  N_10
    2  A    between atoms: C_7  and  C_15
    3  A    between atoms: N_10  and  C_25
                            x       y       z     vdW  Elec       q    Type
                         _______ _______ _______ _____ _____    ______ ____

>  <TORSDO>
F 3

$$$$
=
 OpenBabel11052412183D

 30 34  0  0  1  0  0  0  0  0999 V2000
  188.2780  177.9730  143.7200 C   0  0  0  0  0  0  0  0  0  0  0  0
  186.0090  179.1780  143.6750 C   0  0  0  0  0  0  0  0  0  0  0  0
  187.1090  177.1590  146.5160 C   0  0  1  0  0  3  0  0  0  0  0  0
  189.6330  178.2620  144.3590 C   0  0  2  0  0  3  0  0  0  0  0  0
  188.1880  177.4220  142.4980 C   0  0  0  0  0  3  0  0  0  0  0  0
  191.0690  176.4300  140.4050 N   0  0  0  0  0  0  0  0  0  0  0  0
  190.5810  176.7910  141.6040 C   0  0  0  0  0  0  0  0  0  0  0  0
  188.8450  176.7690  140.2270 N   0  0  0  0  0  2  0  0  0  0  0  0
  188.2690  177.2420  147.5200 C   0  0  2  0  0  3  0  0  0  0  0  0
  189.2080  177.0110  141.5000 C   0  0  0  0  0  0  0  0  0  0  0  0
  191.4540  176.8800  142.8080 C   0  0  0  0  0  2  0  0  0  0  0  0
  184.7180  179.3280  144.0280 C   0  0  0  0  0  3  0  0  0  0  0  0
  190.0500  176.0800  138.1600 C   0  0  0  0  0  1  0  0  0  0  0  0
  186.4710  179.8870  142.6100 F   0  0  0  0  0  0  0  0  0  0  0  0
  185.8590  178.0070  146.7400 C   0  0  2  0  0  3  0  0  0  0  0  0
  183.9950  178.7080  145.2100 C   0  0  0  0  0  2  0  0  0  0  0  0
  189.9880  176.4300  139.6040 C   0  0  0  0  0  0  0  0  0  0  0  0
  186.9330  178.2230  144.3870 C   0  0  2  0  0  3  0  0  0  0  0  0
  189.7680  178.5630  145.8640 C   0  0  0  0  0  2  0  0  0  0  0  0
  188.1280  178.3010  148.6110 C   0  0  0  0  0  1  0  0  0  0  0  0
  189.6320  177.3460  146.8070 C   0  0  2  0  0  3  0  0  0  0  0  0
  190.5750  179.4760  143.3900 S   0  0  0  0  0  0  0  0  0  0  0  0
  184.6900  177.5210  145.8800 C   0  0  0  0  0  2  0  0  0  0  0  0
  186.9950  178.5200  145.8660 C   0  0  2  0  0  3  0  0  0  0  0  0
  191.9400  178.3090  143.0410 C   0  0  0  0  0  2  0  0  0  0  0  0
  189.9730  176.0950  146.1410 N   0  0  0  0  0  2  0  0  0  0  0  0
  191.1130  175.5280  146.8430 C   0  0  1  0  0  3  0  0  0  0  0  0
  192.1440  175.0710  145.8310 C   0  0  0  0  0  1  0  0  0  0  0  0
  191.7350  176.5740  147.7510 C   0  0  0  0  0  2  0  0  0  0  0  0
  192.8760  175.9710  148.5490 C   0  0  0  0  0  1  0  0  0  0  0  0
  1  4  1  0  0  0  0
  1 18  1  0  0  0  0
  2 12  2  0  0  0  0
  2 18  1  0  0  0  0
  3 15  1  0  0  0  0
  3  9  1  0  0  0  0
  4 19  1  0  0  0  0
  5  1  2  0  0  0  0
  6  7  1  0  0  0  0
  7 11  1  0  0  0  0
  8 10  1  0  0  0  0
  9 20  1  0  0  0  0
 10  7  2  0  0  0  0
 10  5  1  0  0  0  0
 11 25  1  0  0  0  0
 12 16  1  0  0  0  0
 13 17  1  0  0  0  0
 14  2  1  0  0  0  0
 16 23  1  0  0  0  0
 17  8  1  0  0  0  0
 17  6  2  0  0  0  0
 18 24  1  0  0  0  0
 19 21  1  0  0  0  0
 21  9  1  0  0  0  0
 22  4  1  0  0  0  0
 23 15  1  0  0  0  0
 24  3  1  0  0  0  0
 24 15  1  0  0  0  0
 25 22  1  0  0  0  0
 26 21  1  0  0  0  0
 26 27  1  0  0  0  0
 27 29  1  0  0  0  0
 28 27  1  0  0  0  0
 29 30  1  0  0  0  0
M  END
>  <MODEL>
2

>  <REMARK>
 VINA RESULT:      -5.4      6.224      9.335
  Name = 
  3 active torsions:
  status: ('A' for Active; 'I' for Inactive)
    1  A    between atoms: C_7  and  N_10
    2  A    between atoms: C_7  and  C_15
    3  A    between atoms: N_10  and  C_25
                            x       y       z     vdW  Elec       q    Type
                         _______ _______ _______ _____ _____    ______ ____

>  <TORSDO>
F 3

$$$$
=
 OpenBabel11052412183D

 30 34  0  0  1  0  0  0  0  0999 V2000
  187.6630  177.6320  139.2810 C   0  0  0  0  0  0  0  0  0  0  0  0
  186.3930  178.6260  141.2800 C   0  0  0  0  0  0  0  0  0  0  0  0
  189.3970  176.5830  141.6780 C   0  0  1  0  0  3  0  0  0  0  0  0
  188.9290  178.0120  138.5190 C   0  0  2  0  0  3  0  0  0  0  0  0
  186.5900  177.1330  138.6440 C   0  0  0  0  0  3  0  0  0  0  0  0
  186.3880  176.5080  135.0070 N   0  0  0  0  0  0  0  0  0  0  0  0
  187.1320  176.7660  136.0960 C   0  0  0  0  0  0  0  0  0  0  0  0
  185.0370  176.6510  136.8090 N   0  0  0  0  0  2  0  0  0  0  0  0
  190.8670  176.7230  141.2530 C   0  0  2  0  0  3  0  0  0  0  0  0
  186.3030  176.8650  137.2120 C   0  0  0  0  0  0  0  0  0  0  0  0
  188.6160  176.8760  136.0200 C   0  0  0  0  0  2  0  0  0  0  0  0
  185.9930  178.6410  142.5660 C   0  0  0  0  0  3  0  0  0  0  0  0
  183.9510  176.1730  134.6200 C   0  0  0  0  0  1  0  0  0  0  0  0
  185.7380  179.4240  140.3950 F   0  0  0  0  0  0  0  0  0  0  0  0
  188.9040  177.3030  142.9310 C   0  0  2  0  0  3  0  0  0  0  0  0
  186.6050  177.9030  143.7430 C   0  0  0  0  0  2  0  0  0  0  0  0
  185.1310  176.4470  135.4820 C   0  0  0  0  0  0  0  0  0  0  0  0
  187.4990  177.7260  140.7910 C   0  0  2  0  0  3  0  0  0  0  0  0
  190.2670  178.2530  139.2440 C   0  0  0  0  0  2  0  0  0  0  0  0
  191.7000  177.7120  142.0650 C   0  0  0  0  0  1  0  0  0  0  0  0
  191.0000  176.9850  139.7400 C   0  0  2  0  0  3  0  0  0  0  0  0
  188.6090  179.3520  137.3340 S   0  0  0  0  0  0  0  0  0  0  0  0
  187.5550  176.7540  143.3990 C   0  0  0  0  0  2  0  0  0  0  0  0
  188.7760  177.9570  141.5630 C   0  0  2  0  0  3  0  0  0  0  0  0
  189.0610  178.3310  135.8840 C   0  0  0  0  0  2  0  0  0  0  0  0
  190.6330  175.8020  138.9690 N   0  0  0  0  0  2  0  0  0  0  0  0
  191.5300  175.7370  137.8260 C   0  0  1  0  0  3  0  0  0  0  0  0
  192.9410  176.0450  138.2820 C   0  0  0  0  0  1  0  0  0  0  0  0
  191.4940  174.3460  137.2180 C   0  0  0  0  0  2  0  0  0  0  0  0
  190.0760  173.8050  137.2190 C   0  0  0  0  0  1  0  0  0  0  0  0
  1 18  1  0  0  0  0
  2 12  2  0  0  0  0
  3 15  1  0  0  0  0
  4 19  1  0  0  0  0
  4  1  1  0  0  0  0
  5  1  2  0  0  0  0
  6 17  2  0  0  0  0
  6  7  1  0  0  0  0
  7 10  2  0  0  0  0
  8 10  1  0  0  0  0
  9  3  1  0  0  0  0
  9 20  1  0  0  0  0
 10  5  1  0  0  0  0
 11  7  1  0  0  0  0
 12 16  1  0  0  0  0
 13 17  1  0  0  0  0
 14  2  1  0  0  0  0
 15 23  1  0  0  0  0
 17  8  1  0  0  0  0
 18  2  1  0  0  0  0
 18 24  1  0  0  0  0
 19 21  1  0  0  0  0
 21  9  1  0  0  0  0
 22  4  1  0  0  0  0
 23 16  1  0  0  0  0
 24  3  1  0  0  0  0
 24 15  1  0  0  0  0
 25 11  1  0  0  0  0
 25 22  1  0  0  0  0
 26 21  1  0  0  0  0
 27 28  1  0  0  0  0
 27 26  1  0  0  0  0
 29 30  1  0  0  0  0
 29 27  1  0  0  0  0
M  END
>  <MODEL>
3

>  <REMARK>
 VINA RESULT:      -5.4      3.133      7.285
  Name = 
  3 active torsions:
  status: ('A' for Active; 'I' for Inactive)
    1  A    between atoms: C_7  and  N_10
    2  A    between atoms: C_7  and  C_15
    3  A    between atoms: N_10  and  C_25
                            x       y       z     vdW  Elec       q    Type
                         _______ _______ _______ _____ _____    ______ ____

>  <TORSDO>
F 3

$$$$
=
 OpenBabel11052412183D

 30 34  0  0  1  0  0  0  0  0999 V2000
  183.4400  177.5660  139.0140 C   0  0  0  0  0  0  0  0  0  0  0  0
  185.5380  177.7360  137.5420 C   0  0  0  0  0  0  0  0  0  0  0  0
  183.0540  175.0870  137.1300 C   0  0  1  0  0  3  0  0  0  0  0  0
  181.9720  177.9430  138.8360 C   0  0  2  0  0  3  0  0  0  0  0  0
  184.0610  177.7270  140.1950 C   0  0  0  0  0  3  0  0  0  0  0  0
  182.4730  179.0330  143.2660 N   0  0  0  0  0  0  0  0  0  0  0  0
  182.3510  178.5310  142.0250 C   0  0  0  0  0  0  0  0  0  0  0  0
  184.5270  178.6070  142.4350 N   0  0  0  0  0  2  0  0  0  0  0  0
  181.5640  175.0470  136.7530 C   0  0  2  0  0  3  0  0  0  0  0  0
  183.6170  178.2740  141.5020 C   0  0  0  0  0  0  0  0  0  0  0  0
  181.0170  178.2920  141.4060 C   0  0  0  0  0  2  0  0  0  0  0  0
  186.5080  177.2190  136.7640 C   0  0  0  0  0  3  0  0  0  0  0  0
  184.4130  179.5470  144.7390 C   0  0  0  0  0  1  0  0  0  0  0  0
  185.7020  178.9990  138.0190 F   0  0  0  0  0  0  0  0  0  0  0  0
  184.1050  175.1980  136.0270 C   0  0  2  0  0  3  0  0  0  0  0  0
  186.5230  175.8750  136.0590 C   0  0  0  0  0  2  0  0  0  0  0  0
  183.8020  179.0620  143.4730 C   0  0  0  0  0  0  0  0  0  0  0  0
  184.3130  176.9480  137.9320 C   0  0  2  0  0  3  0  0  0  0  0  0
  181.1550  177.4570  137.6240 C   0  0  0  0  0  2  0  0  0  0  0  0
  181.2470  175.2700  135.2770 C   0  0  0  0  0  1  0  0  0  0  0  0
  180.7240  175.9720  137.6560 C   0  0  2  0  0  3  0  0  0  0  0  0
  181.7100  179.7220  139.0970 S   0  0  0  0  0  0  0  0  0  0  0  0
  185.5000  174.8460  136.5460 C   0  0  0  0  0  2  0  0  0  0  0  0
  183.5720  176.4470  136.7170 C   0  0  2  0  0  3  0  0  0  0  0  0
  180.5930  179.4650  140.5240 C   0  0  0  0  0  2  0  0  0  0  0  0
  180.6480  175.4520  139.0150 N   0  0  0  0  0  2  0  0  0  0  0  0
  179.2520  175.1480  139.2840 C   0  0  1  0  0  3  0  0  0  0  0  0
  178.9320  173.7650  138.7550 C   0  0  0  0  0  1  0  0  0  0  0  0
  178.9920  175.1820  140.7800 C   0  0  0  0  0  2  0  0  0  0  0  0
  179.2330  173.8140  141.3900 C   0  0  0  0  0  1  0  0  0  0  0  0
  1  5  2  0  0  0  0
  2 18  1  0  0  0  0
  2 14  1  0  0  0  0
  4  1  1  0  0  0  0
  4 22  1  0  0  0  0
  5 10  1  0  0  0  0
  6 17  2  0  0  0  0
  7  6  1  0  0  0  0
  8 17  1  0  0  0  0
  9  3  1  0  0  0  0
  9 21  1  0  0  0  0
 10  7  2  0  0  0  0
 10  8  1  0  0  0  0
 11  7  1  0  0  0  0
 12  2  2  0  0  0  0
 15 23  1  0  0  0  0
 15 24  1  0  0  0  0
 15  3  1  0  0  0  0
 16 23  1  0  0  0  0
 16 12  1  0  0  0  0
 17 13  1  0  0  0  0
 18  1  1  0  0  0  0
 19 21  1  0  0  0  0
 19  4  1  0  0  0  0
 20  9  1  0  0  0  0
 21 26  1  0  0  0  0
 22 25  1  0  0  0  0
 24  3  1  0  0  0  0
 24 18  1  0  0  0  0
 25 11  1  0  0  0  0
 26 27  1  0  0  0  0
 27 29  1  0  0  0  0
 28 27  1  0  0  0  0
 29 30  1  0  0  0  0
M  END
>  <MODEL>
4

>  <REMARK>
 VINA RESULT:      -5.4      3.438      5.978
  Name = 
  3 active torsions:
  status: ('A' for Active; 'I' for Inactive)
    1  A    between atoms: C_7  and  N_10
    2  A    between atoms: C_7  and  C_15
    3  A    between atoms: N_10  and  C_25
                            x       y       z     vdW  Elec       q    Type
                         _______ _______ _______ _____ _____    ______ ____

>  <TORSDO>
F 3

$$$$
=
 OpenBabel11052412183D

 30 34  0  0  1  0  0  0  0  0999 V2000
  185.7080  176.5890  137.2810 C   0  0  0  0  0  0  0  0  0  0  0  0
  183.9430  175.7290  135.6240 C   0  0  0  0  0  0  0  0  0  0  0  0
  183.0790  176.9690  138.9520 C   0  0  1  0  0  3  0  0  0  0  0  0
  186.1930  177.9710  137.7100 C   0  0  2  0  0  3  0  0  0  0  0  0
  186.5640  175.5610  137.1480 C   0  0  0  0  0  3  0  0  0  0  0  0
  190.1990  175.7340  137.7940 N   0  0  0  0  0  0  0  0  0  0  0  0
  188.9750  176.2760  137.9180 C   0  0  0  0  0  0  0  0  0  0  0  0
  188.6840  174.3770  136.8140 N   0  0  0  0  0  2  0  0  0  0  0  0
  183.2060  178.3220  139.6710 C   0  0  2  0  0  3  0  0  0  0  0  0
  188.0360  175.4480  137.3060 C   0  0  0  0  0  0  0  0  0  0  0  0
  188.7600  177.5580  138.6470 C   0  0  0  0  0  2  0  0  0  0  0  0
  182.7590  175.1720  135.3080 C   0  0  0  0  0  3  0  0  0  0  0  0
  191.0630  173.6410  136.7580 C   0  0  0  0  0  1  0  0  0  0  0  0
  184.8960  175.8030  134.6570 F   0  0  0  0  0  0  0  0  0  0  0  0
  181.9090  176.7310  138.0000 C   0  0  2  0  0  3  0  0  0  0  0  0
  181.5250  175.0410  136.1830 C   0  0  0  0  0  2  0  0  0  0  0  0
  189.9770  174.5890  137.1220 C   0  0  0  0  0  0  0  0  0  0  0  0
  184.2550  176.2240  137.0140 C   0  0  2  0  0  3  0  0  0  0  0  0
  185.2130  179.0540  138.1980 C   0  0  0  0  0  2  0  0  0  0  0  0
  182.2010  179.3920  139.2540 C   0  0  0  0  0  1  0  0  0  0  0  0
  184.6510  178.8570  139.6250 C   0  0  2  0  0  3  0  0  0  0  0  0
  187.3490  178.6710  136.4960 S   0  0  0  0  0  0  0  0  0  0  0  0
  181.7370  175.2440  137.6850 C   0  0  0  0  0  2  0  0  0  0  0  0
  183.2420  177.2450  137.4730 C   0  0  2  0  0  3  0  0  0  0  0  0
  188.7340  178.7480  137.6890 C   0  0  0  0  0  2  0  0  0  0  0  0
  185.5360  178.0520  140.4580 N   0  0  0  0  0  2  0  0  0  0  0  0
  186.1320  178.9420  141.4420 C   0  0  1  0  0  3  0  0  0  0  0  0
  185.1580  179.1450  142.5840 C   0  0  0  0  0  1  0  0  0  0  0  0
  187.4150  178.3350  141.9800 C   0  0  0  0  0  2  0  0  0  0  0  0
  187.1230  177.4770  143.1980 C   0  0  0  0  0  1  0  0  0  0  0  0
  1  4  1  0  0  0  0
  2 18  1  0  0  0  0
  3  9  1  0  0  0  0
  4 19  1  0  0  0  0
  5  1  2  0  0  0  0
  5 10  1  0  0  0  0
  6  7  1  0  0  0  0
  7 11  1  0  0  0  0
  8 17  1  0  0  0  0
  8 10  1  0  0  0  0
 10  7  2  0  0  0  0
 12  2  2  0  0  0  0
 12 16  1  0  0  0  0
 13 17  1  0  0  0  0
 14  2  1  0  0  0  0
 15  3  1  0  0  0  0
 16 23  1  0  0  0  0
 17  6  2  0  0  0  0
 18  1  1  0  0  0  0
 18 24  1  0  0  0  0
 19 21  1  0  0  0  0
 20  9  1  0  0  0  0
 21  9  1  0  0  0  0
 21 26  1  0  0  0  0
 22 25  1  0  0  0  0
 22  4  1  0  0  0  0
 23 15  1  0  0  0  0
 24 15  1  0  0  0  0
 24  3  1  0  0  0  0
 25 11  1  0  0  0  0
 26 27  1  0  0  0  0
 27 29  1  0  0  0  0
 27 28  1  0  0  0  0
 29 30  1  0  0  0  0
M  END
>  <MODEL>
5

>  <REMARK>
 VINA RESULT:      -5.3      2.037      2.951
  Name = 
  3 active torsions:
  status: ('A' for Active; 'I' for Inactive)
    1  A    between atoms: C_7  and  N_10
    2  A    between atoms: C_7  and  C_15
    3  A    between atoms: N_10  and  C_25
                            x       y       z     vdW  Elec       q    Type
                         _______ _______ _______ _____ _____    ______ ____

>  <TORSDO>
F 3

$$$$
=
 OpenBabel11052412183D

 30 34  0  0  1  0  0  0  0  0999 V2000
  183.0990  175.3380  137.6550 C   0  0  0  0  0  0  0  0  0  0  0  0
  180.9530  174.0210  137.1490 C   0  0  0  0  0  0  0  0  0  0  0  0
  181.1930  176.4050  139.9080 C   0  0  1  0  0  3  0  0  0  0  0  0
  183.5770  176.7590  137.3720 C   0  0  2  0  0  3  0  0  0  0  0  0
  183.9440  174.2940  137.5930 C   0  0  0  0  0  3  0  0  0  0  0  0
  187.5450  174.5280  136.7950 N   0  0  0  0  0  0  0  0  0  0  0  0
  186.3980  175.1320  137.1500 C   0  0  0  0  0  0  0  0  0  0  0  0
  185.9130  172.9780  136.9600 N   0  0  0  0  0  2  0  0  0  0  0  0
  181.4400  177.9180  140.0140 C   0  0  2  0  0  3  0  0  0  0  0  0
  185.3830  174.1820  137.2440 C   0  0  0  0  0  0  0  0  0  0  0  0
  186.3350  176.5970  137.4120 C   0  0  0  0  0  2  0  0  0  0  0  0
  179.7880  173.4390  137.4920 C   0  0  0  0  0  3  0  0  0  0  0  0
  188.1790  172.1680  136.3190 C   0  0  0  0  0  1  0  0  0  0  0  0
  181.4990  173.7020  135.9450 F   0  0  0  0  0  0  0  0  0  0  0  0
  179.7910  175.8930  139.5840 C   0  0  2  0  0  3  0  0  0  0  0  0
  178.9520  173.6840  138.7350 C   0  0  0  0  0  2  0  0  0  0  0  0
  187.2070  173.2300  136.6910 C   0  0  0  0  0  0  0  0  0  0  0  0
  181.6830  174.9650  138.0690 C   0  0  2  0  0  3  0  0  0  0  0  0
  182.7350  177.9870  137.7670 C   0  0  0  0  0  2  0  0  0  0  0  0
  180.2610  178.8110  139.6380 C   0  0  0  0  0  1  0  0  0  0  0  0
  182.7240  178.3380  139.2720 C   0  0  2  0  0  3  0  0  0  0  0  0
  184.1700  176.9280  135.6630 S   0  0  0  0  0  0  0  0  0  0  0  0
  179.6550  174.4010  139.8900 C   0  0  0  0  0  2  0  0  0  0  0  0
  180.8060  176.1260  138.4720 C   0  0  2  0  0  3  0  0  0  0  0  0
  185.8710  177.3660  136.1760 C   0  0  0  0  0  2  0  0  0  0  0  0
  183.9120  177.8460  139.9590 N   0  0  0  0  0  2  0  0  0  0  0  0
  184.3340  178.8820  140.8890 C   0  0  1  0  0  3  0  0  0  0  0  0
  183.7920  178.5650  142.2670 C   0  0  0  0  0  1  0  0  0  0  0  0
  185.8500  178.9390  140.9500 C   0  0  0  0  0  2  0  0  0  0  0  0
  186.3480  178.3680  142.2650 C   0  0  0  0  0  1  0  0  0  0  0  0
  1 18  1  0  0  0  0
  2 12  2  0  0  0  0
  2 18  1  0  0  0  0
  3  9  1  0  0  0  0
  4  1  1  0  0  0  0
  4 19  1  0  0  0  0
  5  1  2  0  0  0  0
  6  7  1  0  0  0  0
  7 10  2  0  0  0  0
  7 11  1  0  0  0  0
  8 10  1  0  0  0  0
 10  5  1  0  0  0  0
 12 16  1  0  0  0  0
 13 17  1  0  0  0  0
 14  2  1  0  0  0  0
 15 23  1  0  0  0  0
 15  3  1  0  0  0  0
 16 23  1  0  0  0  0
 17  6  2  0  0  0  0
 17  8  1  0  0  0  0
 18 24  1  0  0  0  0
 19 21  1  0  0  0  0
 20  9  1  0  0  0  0
 21 26  1  0  0  0  0
 21  9  1  0  0  0  0
 22 25  1  0  0  0  0
 22  4  1  0  0  0  0
 24 15  1  0  0  0  0
 24  3  1  0  0  0  0
 25 11  1  0  0  0  0
 26 27  1  0  0  0  0
 27 29  1  0  0  0  0
 27 28  1  0  0  0  0
 29 30  1  0  0  0  0
M  END
>  <MODEL>
6

>  <REMARK>
 VINA RESULT:      -5.1      2.520      4.075
  Name = 
  3 active torsions:
  status: ('A' for Active; 'I' for Inactive)
    1  A    between atoms: C_7  and  N_10
    2  A    between atoms: C_7  and  C_15
    3  A    between atoms: N_10  and  C_25
                            x       y       z     vdW  Elec       q    Type
                         _______ _______ _______ _____ _____    ______ ____

>  <TORSDO>
F 3

$$$$
=
 OpenBabel11052412183D

 30 34  0  0  1  0  0  0  0  0999 V2000
  184.4330  178.8730  139.5300 C   0  0  0  0  0  0  0  0  0  0  0  0
  186.0640  178.0560  137.7210 C   0  0  0  0  0  0  0  0  0  0  0  0
  187.1530  178.9500  141.0940 C   0  0  1  0  0  3  0  0  0  0  0  0
  183.7500  178.2230  140.7300 C   0  0  2  0  0  3  0  0  0  0  0  0
  183.7920  179.7760  138.7690 C   0  0  0  0  0  3  0  0  0  0  0  0
  180.3380  180.9580  139.3400 N   0  0  0  0  0  0  0  0  0  0  0  0
  181.4310  180.3200  139.7920 C   0  0  0  0  0  0  0  0  0  0  0  0
  181.9290  180.9920  137.7400 N   0  0  0  0  0  2  0  0  0  0  0  0
  186.8660  178.4100  142.5040 C   0  0  2  0  0  3  0  0  0  0  0  0
  182.4150  180.3290  138.8050 C   0  0  0  0  0  0  0  0  0  0  0  0
  181.4910  179.7530  141.1680 C   0  0  0  0  0  2  0  0  0  0  0  0
  187.2750  177.9820  137.1370 C   0  0  0  0  0  3  0  0  0  0  0  0
  179.7670  182.1080  137.2070 C   0  0  0  0  0  1  0  0  0  0  0  0
  184.9810  177.6480  137.0080 F   0  0  0  0  0  0  0  0  0  0  0  0
  188.1900  178.2500  140.2170 C   0  0  2  0  0  3  0  0  0  0  0  0
  188.6280  178.3050  137.7450 C   0  0  0  0  0  2  0  0  0  0  0  0
  180.6810  181.3470  138.0990 C   0  0  0  0  0  0  0  0  0  0  0  0
  185.8730  178.6160  139.1080 C   0  0  2  0  0  3  0  0  0  0  0  0
  184.5530  177.4640  141.8030 C   0  0  0  0  0  2  0  0  0  0  0  0
  187.5600  177.0990  142.8660 C   0  0  0  0  0  1  0  0  0  0  0  0
  185.3530  178.3440  142.7910 C   0  0  2  0  0  3  0  0  0  0  0  0
  182.3070  177.2450  140.2180 S   0  0  0  0  0  0  0  0  0  0  0  0
  188.6090  179.1270  139.0360 C   0  0  0  0  0  2  0  0  0  0  0  0
  186.7160  177.8780  140.1190 C   0  0  2  0  0  3  0  0  0  0  0  0
  181.1310  178.2680  141.1770 C   0  0  0  0  0  2  0  0  0  0  0  0
  184.7850  179.6810  142.9190 N   0  0  0  0  0  2  0  0  0  0  0  0
  184.2850  179.8090  144.2790 C   0  0  1  0  0  3  0  0  0  0  0  0
  183.0100  179.0030  144.4180 C   0  0  0  0  0  1  0  0  0  0  0  0
  185.3170  179.2850  145.2630 C   0  0  0  0  0  2  0  0  0  0  0  0
  184.6370  178.5210  146.3840 C   0  0  0  0  0  1  0  0  0  0  0  0
  1  4  1  0  0  0  0
  2 18  1  0  0  0  0
  3  9  1  0  0  0  0
  4 19  1  0  0  0  0
  5 10  1  0  0  0  0
  5  1  2  0  0  0  0
  6  7  1  0  0  0  0
  7 11  1  0  0  0  0
  8 17  1  0  0  0  0
  8 10  1  0  0  0  0
  9 21  1  0  0  0  0
  9 20  1  0  0  0  0
 10  7  2  0  0  0  0
 11 25  1  0  0  0  0
 12  2  2  0  0  0  0
 12 16  1  0  0  0  0
 13 17  1  0  0  0  0
 14  2  1  0  0  0  0
 15  3  1  0  0  0  0
 16 23  1  0  0  0  0
 17  6  2  0  0  0  0
 18  1  1  0  0  0  0
 18 24  1  0  0  0  0
 19 21  1  0  0  0  0
 21 26  1  0  0  0  0
 22  4  1  0  0  0  0
 22 25  1  0  0  0  0
 23 15  1  0  0  0  0
 24 15  1  0  0  0  0
 24  3  1  0  0  0  0
 26 27  1  0  0  0  0
 27 28  1  0  0  0  0
 27 29  1  0  0  0  0
 29 30  1  0  0  0  0
M  END
>  <MODEL>
7

>  <REMARK>
 VINA RESULT:      -4.8      4.419      7.384
  Name = 
  3 active torsions:
  status: ('A' for Active; 'I' for Inactive)
    1  A    between atoms: C_7  and  N_10
    2  A    between atoms: C_7  and  C_15
    3  A    between atoms: N_10  and  C_25
                            x       y       z     vdW  Elec       q    Type
                         _______ _______ _______ _____ _____    ______ ____

>  <TORSDO>
F 3

$$$$
=
 OpenBabel11052412183D

 30 34  0  0  1  0  0  0  0  0999 V2000
  186.8030  175.1510  136.4150 C   0  0  0  0  0  0  0  0  0  0  0  0
  187.2130  173.0250  135.0330 C   0  0  0  0  0  0  0  0  0  0  0  0
  183.9770  173.7930  136.5480 C   0  0  1  0  0  3  0  0  0  0  0  0
  186.1510  176.5020  136.1350 C   0  0  2  0  0  3  0  0  0  0  0  0
  187.9000  175.0530  137.1850 C   0  0  0  0  0  3  0  0  0  0  0  0
  189.5890  177.8950  138.8380 N   0  0  0  0  0  0  0  0  0  0  0  0
  188.5120  177.4000  138.2030 C   0  0  0  0  0  0  0  0  0  0  0  0
  189.9590  175.7270  138.3310 N   0  0  0  0  0  2  0  0  0  0  0  0
  182.9400  174.9150  136.3790 C   0  0  2  0  0  3  0  0  0  0  0  0
  188.7380  176.0640  137.8790 C   0  0  0  0  0  0  0  0  0  0  0  0
  187.2980  178.2290  137.9630 C   0  0  0  0  0  2  0  0  0  0  0  0
  186.9730  171.7440  134.6940 C   0  0  0  0  0  3  0  0  0  0  0  0
  191.7810  176.9350  139.5260 C   0  0  0  0  0  1  0  0  0  0  0  0
  188.3640  173.6000  134.5940 F   0  0  0  0  0  0  0  0  0  0  0  0
  183.9950  172.6310  135.5570 C   0  0  2  0  0  3  0  0  0  0  0  0
  185.7390  170.9130  134.9970 C   0  0  0  0  0  2  0  0  0  0  0  0
  190.4370  176.8520  138.8930 C   0  0  0  0  0  0  0  0  0  0  0  0
  186.2770  173.8140  135.9120 C   0  0  2  0  0  3  0  0  0  0  0  0
  184.7270  176.6080  135.5580 C   0  0  0  0  0  2  0  0  0  0  0  0
  182.0830  174.8420  135.1180 C   0  0  0  0  0  1  0  0  0  0  0  0
  183.5780  176.3080  136.5470 C   0  0  2  0  0  3  0  0  0  0  0  0
  187.2780  177.6040  135.2310 S   0  0  0  0  0  0  0  0  0  0  0  0
  184.8130  171.4530  136.0900 C   0  0  0  0  0  2  0  0  0  0  0  0
  184.8820  173.8490  135.3370 C   0  0  2  0  0  3  0  0  0  0  0  0
  187.3150  178.8530  136.5680 C   0  0  0  0  0  2  0  0  0  0  0  0
  183.9700  176.5420  137.9320 N   0  0  0  0  0  2  0  0  0  0  0  0
  182.9000  177.3010  138.5620 C   0  0  1  0  0  3  0  0  0  0  0  0
  182.9910  177.1350  140.0650 C   0  0  0  0  0  1  0  0  0  0  0  0
  183.0330  178.7730  138.2130 C   0  0  0  0  0  2  0  0  0  0  0  0
  181.6940  179.3340  137.7710 C   0  0  0  0  0  1  0  0  0  0  0  0
  1  5  2  0  0  0  0
  2 18  1  0  0  0  0
  4  1  1  0  0  0  0
  5 10  1  0  0  0  0
  6 17  2  0  0  0  0
  7  6  1  0  0  0  0
  8 17  1  0  0  0  0
  9 21  1  0  0  0  0
  9  3  1  0  0  0  0
 10  7  2  0  0  0  0
 10  8  1  0  0  0  0
 11  7  1  0  0  0  0
 12 16  1  0  0  0  0
 12  2  2  0  0  0  0
 14  2  1  0  0  0  0
 15 23  1  0  0  0  0
 15  3  1  0  0  0  0
 16 23  1  0  0  0  0
 17 13  1  0  0  0  0
 18  1  1  0  0  0  0
 19  4  1  0  0  0  0
 19 21  1  0  0  0  0
 20  9  1  0  0  0  0
 21 26  1  0  0  0  0
 22  4  1  0  0  0  0
 22 25  1  0  0  0  0
 24 15  1  0  0  0  0
 24 18  1  0  0  0  0
 24  3  1  0  0  0  0
 25 11  1  0  0  0  0
 26 27  1  0  0  0  0
 27 28  1  0  0  0  0
 29 27  1  0  0  0  0
 30 29  1  0  0  0  0
M  END
>  <MODEL>
8

>  <REMARK>
 VINA RESULT:      -4.8      1.148      1.548
  Name = 
  3 active torsions:
  status: ('A' for Active; 'I' for Inactive)
    1  A    between atoms: C_7  and  N_10
    2  A    between atoms: C_7  and  C_15
    3  A    between atoms: N_10  and  C_25
                            x       y       z     vdW  Elec       q    Type
                         _______ _______ _______ _____ _____    ______ ____

>  <TORSDO>
F 3

$$$$
=
 OpenBabel11052412183D

 30 34  0  0  1  0  0  0  0  0999 V2000
  183.8640  174.9310  136.7920 C   0  0  0  0  0  0  0  0  0  0  0  0
  182.3420  173.0360  135.9600 C   0  0  0  0  0  0  0  0  0  0  0  0
  181.2960  175.4160  138.5300 C   0  0  1  0  0  3  0  0  0  0  0  0
  183.9660  176.4270  136.5080 C   0  0  2  0  0  3  0  0  0  0  0  0
  184.9640  174.1810  136.9770 C   0  0  0  0  0  3  0  0  0  0  0  0
  188.4330  175.4540  136.9080 N   0  0  0  0  0  0  0  0  0  0  0  0
  187.1130  175.6980  136.9790 C   0  0  0  0  0  0  0  0  0  0  0  0
  187.3140  173.4950  136.8530 N   0  0  0  0  0  2  0  0  0  0  0  0
  181.0740  176.9360  138.5730 C   0  0  2  0  0  3  0  0  0  0  0  0
  186.4150  174.4920  136.9360 C   0  0  0  0  0  0  0  0  0  0  0  0
  186.5810  177.0830  137.1150 C   0  0  0  0  0  2  0  0  0  0  0  0
  181.3450  172.1420  136.1030 C   0  0  0  0  0  3  0  0  0  0  0  0
  189.7990  173.3780  136.7430 C   0  0  0  0  0  1  0  0  0  0  0  0
  183.2010  172.8800  134.9180 F   0  0  0  0  0  0  0  0  0  0  0  0
  180.2020  174.5110  137.9680 C   0  0  2  0  0  3  0  0  0  0  0  0
  180.2280  172.1440  137.1310 C   0  0  0  0  0  2  0  0  0  0  0  0
  188.5090  174.1120  136.8330 C   0  0  0  0  0  0  0  0  0  0  0  0
  182.5580  174.1640  136.9380 C   0  0  2  0  0  3  0  0  0  0  0  0
  182.7460  177.3580  136.6340 C   0  0  0  0  0  2  0  0  0  0  0  0
  179.7980  177.4390  137.9020 C   0  0  0  0  0  1  0  0  0  0  0  0
  182.3130  177.7070  138.0770 C   0  0  2  0  0  3  0  0  0  0  0  0
  184.8390  176.7450  134.9460 S   0  0  0  0  0  0  0  0  0  0  0  0
  180.4330  173.0480  138.3490 C   0  0  0  0  0  2  0  0  0  0  0  0
  181.3220  175.0200  137.0700 C   0  0  2  0  0  3  0  0  0  0  0  0
  186.1940  177.6680  135.7580 C   0  0  0  0  0  2  0  0  0  0  0  0
  183.4160  177.5930  139.0230 N   0  0  0  0  0  2  0  0  0  0  0  0
  184.0540  178.8970  139.1020 C   0  0  1  0  0  3  0  0  0  0  0  0
  182.9890  179.9740  139.0940 C   0  0  0  0  0  1  0  0  0  0  0  0
  184.8610  179.0030  140.3840 C   0  0  0  0  0  2  0  0  0  0  0  0
  184.0930  178.3970  141.5440 C   0  0  0  0  0  1  0  0  0  0  0  0
  1 18  1  0  0  0  0
  1  5  2  0  0  0  0
  2 12  2  0  0  0  0
  2 18  1  0  0  0  0
  3  9  1  0  0  0  0
  4 19  1  0  0  0  0
  4  1  1  0  0  0  0
  6  7  1  0  0  0  0
  7 11  1  0  0  0  0
  8 10  1  0  0  0  0
 10  5  1  0  0  0  0
 10  7  2  0  0  0  0
 12 16  1  0  0  0  0
 13 17  1  0  0  0  0
 14  2  1  0  0  0  0
 15 23  1  0  0  0  0
 15  3  1  0  0  0  0
 16 23  1  0  0  0  0
 17  8  1  0  0  0  0
 17  6  2  0  0  0  0
 18 24  1  0  0  0  0
 19 21  1  0  0  0  0
 20  9  1  0  0  0  0
 21  9  1  0  0  0  0
 21 26  1  0  0  0  0
 22 25  1  0  0  0  0
 22  4  1  0  0  0  0
 24 15  1  0  0  0  0
 24  3  1  0  0  0  0
 25 11  1  0  0  0  0
 26 27  1  0  0  0  0
 27 29  1  0  0  0  0
 28 27  1  0  0  0  0
 29 30  1  0  0  0  0
M  END
>  <MODEL>
9

>  <REMARK>
 VINA RESULT:      -4.7      1.955      2.756
  Name = 
  3 active torsions:
  status: ('A' for Active; 'I' for Inactive)
    1  A    between atoms: C_7  and  N_10
    2  A    between atoms: C_7  and  C_15
    3  A    between atoms: N_10  and  C_25
                            x       y       z     vdW  Elec       q    Type
                         _______ _______ _______ _____ _____    ______ ____

>  <TORSDO>
F 3

$$$$
