=
 OpenBabel11052413423D

 27 30  0  0  1  0  0  0  0  0999 V2000
  189.4390  177.2080  144.1370 C   0  0  1  0  0  3  0  0  0  0  0  0
  188.0050  177.5880  144.3970 C   0  0  0  0  0  0  0  0  0  0  0  0
  183.9530  178.6690  145.2360 C   0  0  0  0  0  3  0  0  0  0  0  0
  181.8140  179.2250  144.5160 F   0  0  0  0  0  0  0  0  0  0  0  0
  187.6190  177.9170  145.7030 C   0  0  0  0  0  3  0  0  0  0  0  0
  184.6930  177.9050  142.5560 C   0  0  0  0  0  2  0  0  0  0  0  0
  183.5720  178.9230  142.8040 C   0  0  0  0  0  2  0  0  0  0  0  0
  187.0510  177.6060  143.3690 C   0  0  0  0  0  3  0  0  0  0  0  0
  183.0980  178.8990  144.2350 C   0  0  0  0  0  0  0  0  0  0  0  0
  185.3490  178.2970  144.9530 C   0  0  0  0  0  0  0  0  0  0  0  0
  185.7310  177.9710  143.6390 C   0  0  0  0  0  0  0  0  0  0  0  0
  186.2940  178.2690  145.9820 C   0  0  0  0  0  3  0  0  0  0  0  0
  190.1850  178.0350  143.0590 C   0  0  2  0  0  0  0  0  0  0  0  0
  192.1090  176.6650  142.6180 O   0  0  0  0  0  0  0  0  0  0  0  0
  190.4240  175.9360  140.3620 O   0  0  0  0  0  1  0  0  0  0  0  0
  191.6030  177.8740  140.0160 O   0  0  0  0  0  1  0  0  0  0  0  0
  190.9710  179.1630  143.7150 C   0  0  0  0  0  1  0  0  0  0  0  0
  190.6670  177.2290  140.8250 C   0  0  0  0  0  0  0  0  0  0  0  0
  189.3830  178.0250  140.9010 C   0  0  0  0  0  2  0  0  0  0  0  0
  189.2390  178.6180  142.1830 O   0  0  0  0  0  0  0  0  0  0  0  0
  191.0970  177.2220  142.2180 C   0  0  0  0  0  0  0  0  0  0  0  0
  191.6540  176.4650  147.7210 C   0  0  0  0  0  3  0  0  0  0  0  0
  190.2240  176.9510  145.3930 C   0  0  0  0  0  0  0  0  0  0  0  0
  191.3260  176.1510  145.3770 N   0  0  0  0  0  0  0  0  0  0  0  0
  192.0430  175.8990  146.5050 C   0  0  0  0  0  3  0  0  0  0  0  0
  190.5270  177.2860  147.7600 C   0  0  0  0  0  3  0  0  0  0  0  0
  189.8050  177.5330  146.5920 C   0  0  0  0  0  3  0  0  0  0  0  0
  1  2  1  1  0  0  0
  1 23  1  0  0  0  0
  2  5  1  0  0  0  0
  5 12  2  0  0  0  0
  6  7  1  0  0  0  0
  6 11  1  0  0  0  0
  7  9  1  0  0  0  0
  8 11  1  0  0  0  0
  8  2  2  0  0  0  0
  9  4  1  0  0  0  0
  9  3  2  0  0  0  0
 10  3  1  0  0  0  0
 10 12  1  0  0  0  0
 11 10  2  0  0  0  0
 13 17  1  1  0  0  0
 13  1  1  0  0  0  0
 15 18  1  0  0  0  0
 16 18  1  0  0  0  0
 18 19  1  0  0  0  0
 18 21  1  0  0  0  0
 19 20  1  0  0  0  0
 20 13  1  0  0  0  0
 21 14  2  0  0  0  0
 21 13  1  0  0  0  0
 22 26  1  0  0  0  0
 23 27  1  0  0  0  0
 24 23  2  0  0  0  0
 24 25  1  0  0  0  0
 25 22  2  0  0  0  0
 27 26  2  0  0  0  0
M  END
>  <MODEL>
1

>  <REMARK>
 VINA RESULT:     -10.3      0.000      0.000
  Name = 
  3 active torsions:
  status: ('A' for Active; 'I' for Inactive)
    1  A    between atoms: C_1  and  C_15
    2  A    between atoms: C_2  and  C_15
    3  A    between atoms: C_9  and  C_15
                            x       y       z     vdW  Elec       q    Type
                         _______ _______ _______ _____ _____    ______ ____

>  <TORSDO>
F 3

$$$$
=
 OpenBabel11052413423D

 27 30  0  0  1  0  0  0  0  0999 V2000
  182.7240  179.2340  142.1990 C   0  0  1  0  0  3  0  0  0  0  0  0
  183.8660  178.8560  143.1060 C   0  0  0  0  0  0  0  0  0  0  0  0
  187.0540  177.8240  145.7620 C   0  0  0  0  0  3  0  0  0  0  0  0
  189.1260  176.8470  146.1570 F   0  0  0  0  0  0  0  0  0  0  0  0
  183.7130  179.0200  144.4890 C   0  0  0  0  0  3  0  0  0  0  0  0
  187.4370  177.5640  142.9160 C   0  0  0  0  0  2  0  0  0  0  0  0
  188.1510  176.6240  143.8950 C   0  0  0  0  0  2  0  0  0  0  0  0
  185.0760  178.3600  142.5980 C   0  0  0  0  0  3  0  0  0  0  0  0
  188.1170  177.1520  145.3070 C   0  0  0  0  0  0  0  0  0  0  0  0
  185.9540  178.1810  144.8530 C   0  0  0  0  0  0  0  0  0  0  0  0
  186.1130  178.0110  143.4650 C   0  0  0  0  0  0  0  0  0  0  0  0
  184.7540  178.6850  145.3610 C   0  0  0  0  0  3  0  0  0  0  0  0
  182.7370  178.6080  140.7800 C   0  0  2  0  0  0  0  0  0  0  0  0
  180.5060  179.0610  140.0110 O   0  0  0  0  0  0  0  0  0  0  0  0
  181.9600  181.1990  138.6780 O   0  0  0  0  0  1  0  0  0  0  0  0
  182.0500  179.2060  137.5450 O   0  0  0  0  0  1  0  0  0  0  0  0
  182.5440  177.1000  140.8710 C   0  0  0  0  0  1  0  0  0  0  0  0
  182.3410  179.8590  138.7430 C   0  0  0  0  0  0  0  0  0  0  0  0
  183.8100  179.7310  139.0820 C   0  0  0  0  0  2  0  0  0  0  0  0
  183.9940  178.8480  140.1770 O   0  0  0  0  0  0  0  0  0  0  0  0
  181.7140  179.1830  139.8720 C   0  0  0  0  0  0  0  0  0  0  0  0
  178.9310  179.1860  144.1750 C   0  0  0  0  0  3  0  0  0  0  0  0
  181.3870  179.2160  142.8850 C   0  0  0  0  0  0  0  0  0  0  0  0
  180.5430  180.2820  142.7970 N   0  0  0  0  0  0  0  0  0  0  0  0
  179.3340  180.2880  143.4200 C   0  0  0  0  0  3  0  0  0  0  0  0
  179.7810  178.0850  144.2810 C   0  0  0  0  0  3  0  0  0  0  0  0
  181.0180  178.0960  143.6340 C   0  0  0  0  0  3  0  0  0  0  0  0
  1 23  1  1  0  0  0
  1  2  1  0  0  0  0
  2  5  1  0  0  0  0
  5 12  2  0  0  0  0
  6 11  1  0  0  0  0
  6  7  1  0  0  0  0
  7  9  1  0  0  0  0
  8  2  2  0  0  0  0
  8 11  1  0  0  0  0
  9  3  2  0  0  0  0
  9  4  1  0  0  0  0
 10 12  1  0  0  0  0
 10  3  1  0  0  0  0
 11 10  2  0  0  0  0
 13 17  1  1  0  0  0
 13  1  1  0  0  0  0
 15 18  1  0  0  0  0
 16 18  1  0  0  0  0
 18 19  1  0  0  0  0
 18 21  1  0  0  0  0
 19 20  1  0  0  0  0
 20 13  1  0  0  0  0
 21 14  2  0  0  0  0
 21 13  1  0  0  0  0
 22 26  1  0  0  0  0
 23 27  1  0  0  0  0
 24 23  2  0  0  0  0
 24 25  1  0  0  0  0
 25 22  2  0  0  0  0
 27 26  2  0  0  0  0
M  END
>  <MODEL>
2

>  <REMARK>
 VINA RESULT:      -9.3      4.639      8.148
  Name = 
  3 active torsions:
  status: ('A' for Active; 'I' for Inactive)
    1  A    between atoms: C_1  and  C_15
    2  A    between atoms: C_2  and  C_15
    3  A    between atoms: C_9  and  C_15
                            x       y       z     vdW  Elec       q    Type
                         _______ _______ _______ _____ _____    ______ ____

>  <TORSDO>
F 3

$$$$
=
 OpenBabel11052413423D

 27 30  0  0  1  0  0  0  0  0999 V2000
  188.5110  177.4180  143.9290 C   0  0  1  0  0  3  0  0  0  0  0  0
  187.1160  177.7890  143.4990 C   0  0  0  0  0  0  0  0  0  0  0  0
  183.1850  178.8350  142.1810 C   0  0  0  0  0  3  0  0  0  0  0  0
  180.9640  179.3470  142.6370 F   0  0  0  0  0  0  0  0  0  0  0  0
  186.7940  177.7460  142.1360 C   0  0  0  0  0  3  0  0  0  0  0  0
  183.8390  179.0250  144.9820 C   0  0  0  0  0  2  0  0  0  0  0  0
  182.4140  178.6860  144.5280 C   0  0  0  0  0  2  0  0  0  0  0  0
  186.1410  178.1860  144.4270 C   0  0  0  0  0  3  0  0  0  0  0  0
  182.2000  179.0000  143.0690 C   0  0  0  0  0  0  0  0  0  0  0  0
  184.5390  178.4740  142.6290 C   0  0  0  0  0  0  0  0  0  0  0  0
  184.8540  178.5160  143.9990 C   0  0  0  0  0  0  0  0  0  0  0  0
  185.5110  178.0900  141.7010 C   0  0  0  0  0  3  0  0  0  0  0  0
  189.6720  178.0820  143.1430 C   0  0  2  0  0  0  0  0  0  0  0  0
  191.3550  176.3680  143.1930 O   0  0  0  0  0  0  0  0  0  0  0  0
  190.2760  175.9590  140.5240 O   0  0  0  0  0  1  0  0  0  0  0  0
  191.8400  177.6340  140.6150 O   0  0  0  0  0  1  0  0  0  0  0  0
  190.4330  179.0440  144.0460 C   0  0  0  0  0  1  0  0  0  0  0  0
  190.6110  177.1850  141.0980 C   0  0  0  0  0  0  0  0  0  0  0  0
  189.5280  178.2110  140.8500 C   0  0  0  0  0  2  0  0  0  0  0  0
  189.1380  178.8290  142.0670 O   0  0  0  0  0  0  0  0  0  0  0  0
  190.6190  177.1040  142.5530 C   0  0  0  0  0  0  0  0  0  0  0  0
  188.9970  177.3390  148.1780 C   0  0  0  0  0  3  0  0  0  0  0  0
  188.6890  177.3960  145.4210 C   0  0  0  0  0  0  0  0  0  0  0  0
  189.7710  176.7910  145.9870 N   0  0  0  0  0  0  0  0  0  0  0  0
  189.9420  176.7520  147.3350 C   0  0  0  0  0  3  0  0  0  0  0  0
  187.8800  177.9620  147.6200 C   0  0  0  0  0  3  0  0  0  0  0  0
  187.7210  177.9920  146.2330 C   0  0  0  0  0  3  0  0  0  0  0  0
  1  2  1  1  0  0  0
  1 23  1  0  0  0  0
  2  8  1  0  0  0  0
  3 10  1  0  0  0  0
  3  9  2  0  0  0  0
  4  9  1  0  0  0  0
  5  2  2  0  0  0  0
  7  6  1  0  0  0  0
  9  7  1  0  0  0  0
 10 11  1  0  0  0  0
 11  8  2  0  0  0  0
 11  6  1  0  0  0  0
 12  5  1  0  0  0  0
 12 10  2  0  0  0  0
 13  1  1  0  0  0  0
 13 17  1  1  0  0  0
 15 18  1  0  0  0  0
 16 18  1  0  0  0  0
 18 21  1  0  0  0  0
 19 18  1  0  0  0  0
 19 20  1  0  0  0  0
 20 13  1  0  0  0  0
 21 13  1  0  0  0  0
 21 14  2  0  0  0  0
 23 24  2  0  0  0  0
 23 27  1  0  0  0  0
 24 25  1  0  0  0  0
 25 22  2  0  0  0  0
 26 22  1  0  0  0  0
 27 26  2  0  0  0  0
M  END
>  <MODEL>
3

>  <REMARK>
 VINA RESULT:      -9.3      1.075      1.997
  Name = 
  3 active torsions:
  status: ('A' for Active; 'I' for Inactive)
    1  A    between atoms: C_1  and  C_15
    2  A    between atoms: C_2  and  C_15
    3  A    between atoms: C_9  and  C_15
                            x       y       z     vdW  Elec       q    Type
                         _______ _______ _______ _____ _____    ______ ____

>  <TORSDO>
F 3

$$$$
=
 OpenBabel11052413423D

 27 30  0  0  1  0  0  0  0  0999 V2000
  188.3570  178.4070  140.9210 C   0  0  1  0  0  3  0  0  0  0  0  0
  186.9090  178.5270  141.3160 C   0  0  0  0  0  0  0  0  0  0  0  0
  182.7690  178.8580  142.3390 C   0  0  0  0  0  3  0  0  0  0  0  0
  181.0870  179.0850  143.9260 F   0  0  0  0  0  0  0  0  0  0  0  0
  185.9220  178.3060  140.3460 C   0  0  0  0  0  3  0  0  0  0  0  0
  184.7730  179.4130  144.3360 C   0  0  0  0  0  2  0  0  0  0  0  0
  183.4110  178.8290  144.7290 C   0  0  0  0  0  2  0  0  0  0  0  0
  186.5280  178.8670  142.6230 C   0  0  0  0  0  3  0  0  0  0  0  0
  182.4000  178.9640  143.6190 C   0  0  0  0  0  0  0  0  0  0  0  0
  184.1920  178.7430  141.9810 C   0  0  0  0  0  0  0  0  0  0  0  0
  185.1770  178.9640  142.9610 C   0  0  0  0  0  0  0  0  0  0  0  0
  184.5670  178.4150  140.6760 C   0  0  0  0  0  3  0  0  0  0  0  0
  189.2310  177.4680  141.7920 C   0  0  2  0  0  0  0  0  0  0  0  0
  190.3620  179.0270  143.2290 O   0  0  0  0  0  0  0  0  0  0  0  0
  188.2550  178.1090  145.0120 O   0  0  0  0  0  1  0  0  0  0  0  0
  190.0640  176.6990  144.9560 O   0  0  0  0  0  1  0  0  0  0  0  0
  190.4830  177.0580  141.0270 C   0  0  0  0  0  1  0  0  0  0  0  0
  189.0580  177.3060  144.2030 C   0  0  0  0  0  0  0  0  0  0  0  0
  188.2280  176.2670  143.4800 C   0  0  0  0  0  2  0  0  0  0  0  0
  188.5010  176.2930  142.0870 O   0  0  0  0  0  0  0  0  0  0  0  0
  189.6210  178.0640  143.0930 C   0  0  0  0  0  0  0  0  0  0  0  0
  188.9100  178.0020  136.6980 C   0  0  0  0  0  3  0  0  0  0  0  0
  188.5600  178.2660  139.4390 C   0  0  0  0  0  0  0  0  0  0  0  0
  188.9280  179.3350  138.6790 N   0  0  0  0  0  0  0  0  0  0  0  0
  189.1060  179.2290  137.3350 C   0  0  0  0  0  3  0  0  0  0  0  0
  188.5310  176.8940  137.4570 C   0  0  0  0  0  3  0  0  0  0  0  0
  188.3540  177.0230  138.8360 C   0  0  0  0  0  3  0  0  0  0  0  0
  1 23  1  6  0  0  0
  1  2  1  0  0  0  0
  1 13  1  0  0  0  0
  2  8  1  0  0  0  0
  3  9  2  0  0  0  0
  5 12  1  0  0  0  0
  5  2  2  0  0  0  0
  6  7  1  0  0  0  0
  8 11  2  0  0  0  0
  9  4  1  0  0  0  0
  9  7  1  0  0  0  0
 10  3  1  0  0  0  0
 10 11  1  0  0  0  0
 11  6  1  0  0  0  0
 12 10  2  0  0  0  0
 13 17  1  6  0  0  0
 13 20  1  0  0  0  0
 13 21  1  0  0  0  0
 18 16  1  0  0  0  0
 18 15  1  0  0  0  0
 19 18  1  0  0  0  0
 20 19  1  0  0  0  0
 21 14  2  0  0  0  0
 21 18  1  0  0  0  0
 22 25  2  0  0  0  0
 22 26  1  0  0  0  0
 24 23  2  0  0  0  0
 25 24  1  0  0  0  0
 26 27  2  0  0  0  0
 27 23  1  0  0  0  0
M  END
>  <MODEL>
4

>  <REMARK>
 VINA RESULT:      -9.1      2.593      5.267
  Name = 
  3 active torsions:
  status: ('A' for Active; 'I' for Inactive)
    1  A    between atoms: C_1  and  C_15
    2  A    between atoms: C_2  and  C_15
    3  A    between atoms: C_9  and  C_15
                            x       y       z     vdW  Elec       q    Type
                         _______ _______ _______ _____ _____    ______ ____

>  <TORSDO>
F 3

$$$$
=
 OpenBabel11052413423D

 27 30  0  0  1  0  0  0  0  0999 V2000
  182.3630  178.4520  139.9850 C   0  0  1  0  0  3  0  0  0  0  0  0
  182.9180  178.5330  141.3830 C   0  0  0  0  0  0  0  0  0  0  0  0
  184.4040  178.8030  145.3840 C   0  0  0  0  0  3  0  0  0  0  0  0
  186.0810  178.4380  146.9510 F   0  0  0  0  0  0  0  0  0  0  0  0
  182.0650  178.9100  142.4280 C   0  0  0  0  0  3  0  0  0  0  0  0
  186.2090  178.1170  143.2440 C   0  0  0  0  0  2  0  0  0  0  0  0
  186.4260  177.5730  144.6610 C   0  0  0  0  0  2  0  0  0  0  0  0
  184.2660  178.2540  141.6570 C   0  0  0  0  0  3  0  0  0  0  0  0
  185.6180  178.3310  145.6840 C   0  0  0  0  0  0  0  0  0  0  0  0
  183.8870  178.7120  144.0090 C   0  0  0  0  0  0  0  0  0  0  0  0
  184.7480  178.3300  142.9650 C   0  0  0  0  0  0  0  0  0  0  0  0
  182.5470  179.0020  143.7380 C   0  0  0  0  0  3  0  0  0  0  0  0
  181.6920  177.1110  139.5880 C   0  0  2  0  0  0  0  0  0  0  0  0
  180.5130  177.7150  137.5840 O   0  0  0  0  0  0  0  0  0  0  0  0
  182.8680  176.4480  136.4400 O   0  0  0  0  0  1  0  0  0  0  0  0
  181.2480  174.9460  137.0570 O   0  0  0  0  0  1  0  0  0  0  0  0
  180.4360  176.8880  140.4210 C   0  0  0  0  0  1  0  0  0  0  0  0
  182.1000  175.9590  137.4960 C   0  0  0  0  0  0  0  0  0  0  0  0
  182.9830  175.4680  138.6230 C   0  0  0  0  0  2  0  0  0  0  0  0
  182.5850  176.0470  139.8560 O   0  0  0  0  0  0  0  0  0  0  0  0
  181.3510  177.0270  138.1470 C   0  0  0  0  0  0  0  0  0  0  0  0
  180.2110  181.9490  138.7860 C   0  0  0  0  0  3  0  0  0  0  0  0
  181.6080  179.6840  139.5720 C   0  0  0  0  0  0  0  0  0  0  0  0
  180.3780  179.9550  140.0900 N   0  0  0  0  0  0  0  0  0  0  0  0
  179.6760  181.0600  139.7200 C   0  0  0  0  0  3  0  0  0  0  0  0
  181.4690  181.6890  138.2420 C   0  0  0  0  0  3  0  0  0  0  0  0
  182.1750  180.5500  138.6340 C   0  0  0  0  0  3  0  0  0  0  0  0
  1 23  1  1  0  0  0
  1  2  1  0  0  0  0
  2  8  2  0  0  0  0
  2  5  1  0  0  0  0
  3  9  2  0  0  0  0
  5 12  2  0  0  0  0
  6  7  1  0  0  0  0
  7  9  1  0  0  0  0
  8 11  1  0  0  0  0
  9  4  1  0  0  0  0
 10  3  1  0  0  0  0
 11  6  1  0  0  0  0
 11 10  2  0  0  0  0
 12 10  1  0  0  0  0
 13 20  1  0  0  0  0
 13  1  1  0  0  0  0
 13 17  1  1  0  0  0
 14 21  2  0  0  0  0
 15 18  1  0  0  0  0
 16 18  1  0  0  0  0
 18 21  1  0  0  0  0
 18 19  1  0  0  0  0
 19 20  1  0  0  0  0
 21 13  1  0  0  0  0
 22 25  1  0  0  0  0
 23 24  1  0  0  0  0
 25 24  2  0  0  0  0
 26 27  1  0  0  0  0
 26 22  2  0  0  0  0
 27 23  2  0  0  0  0
M  END
>  <MODEL>
5

>  <REMARK>
 VINA RESULT:      -9.1      5.422      8.979
  Name = 
  3 active torsions:
  status: ('A' for Active; 'I' for Inactive)
    1  A    between atoms: C_1  and  C_15
    2  A    between atoms: C_2  and  C_15
    3  A    between atoms: C_9  and  C_15
                            x       y       z     vdW  Elec       q    Type
                         _______ _______ _______ _____ _____    ______ ____

>  <TORSDO>
F 3

$$$$
=
 OpenBabel11052413423D

 27 30  0  0  1  0  0  0  0  0999 V2000
  187.6800  177.2390  144.4690 C   0  0  1  0  0  3  0  0  0  0  0  0
  186.2770  177.7200  144.2020 C   0  0  0  0  0  0  0  0  0  0  0  0
  182.2840  179.1020  143.5440 C   0  0  0  0  0  3  0  0  0  0  0  0
  180.5370  179.6410  142.1090 F   0  0  0  0  0  0  0  0  0  0  0  0
  185.5350  178.2610  145.2600 C   0  0  0  0  0  3  0  0  0  0  0  0
  183.7490  177.9090  141.3670 C   0  0  0  0  0  2  0  0  0  0  0  0
  182.7060  179.0030  141.1080 C   0  0  0  0  0  2  0  0  0  0  0  0
  185.6980  177.6270  142.9270 C   0  0  0  0  0  3  0  0  0  0  0  0
  181.8090  179.2180  142.3010 C   0  0  0  0  0  0  0  0  0  0  0  0
  183.6570  178.6280  143.7760 C   0  0  0  0  0  0  0  0  0  0  0  0
  184.3990  178.0890  142.7090 C   0  0  0  0  0  0  0  0  0  0  0  0
  184.2270  178.7110  145.0500 C   0  0  0  0  0  3  0  0  0  0  0  0
  188.7300  177.5370  143.3680 C   0  0  2  0  0  0  0  0  0  0  0  0
  190.2640  178.9860  144.5170 O   0  0  0  0  0  0  0  0  0  0  0  0
  191.7040  176.4650  144.6880 O   0  0  0  0  0  1  0  0  0  0  0  0
  192.0220  177.5490  142.6920 O   0  0  0  0  0  1  0  0  0  0  0  0
  188.2090  178.6130  142.4240 C   0  0  0  0  0  1  0  0  0  0  0  0
  191.0820  176.9830  143.5530 C   0  0  0  0  0  0  0  0  0  0  0  0
  190.2770  175.9150  142.8430 C   0  0  0  0  0  2  0  0  0  0  0  0
  188.9520  176.3640  142.6070 O   0  0  0  0  0  0  0  0  0  0  0  0
  190.0490  177.9490  143.9070 C   0  0  0  0  0  0  0  0  0  0  0  0
  188.9760  177.9900  148.4760 C   0  0  0  0  0  3  0  0  0  0  0  0
  188.1430  177.5060  145.8730 C   0  0  0  0  0  0  0  0  0  0  0  0
  189.1250  176.7510  146.4400 N   0  0  0  0  0  0  0  0  0  0  0  0
  189.5500  176.9710  147.7130 C   0  0  0  0  0  3  0  0  0  0  0  0
  187.9670  178.7730  147.9160 C   0  0  0  0  0  3  0  0  0  0  0  0
  187.5450  178.5330  146.6070 C   0  0  0  0  0  3  0  0  0  0  0  0
  1  2  1  6  0  0  0
  1 23  1  0  0  0  0
  2  5  1  0  0  0  0
  3 10  1  0  0  0  0
  4  9  1  0  0  0  0
  6 11  1  0  0  0  0
  7  6  1  0  0  0  0
  7  9  1  0  0  0  0
  8  2  2  0  0  0  0
  9  3  2  0  0  0  0
 10 12  1  0  0  0  0
 11  8  1  0  0  0  0
 11 10  2  0  0  0  0
 12  5  2  0  0  0  0
 13 17  1  6  0  0  0
 13 21  1  0  0  0  0
 13  1  1  0  0  0  0
 16 18  1  0  0  0  0
 18 21  1  0  0  0  0
 18 15  1  0  0  0  0
 19 18  1  0  0  0  0
 20 19  1  0  0  0  0
 20 13  1  0  0  0  0
 21 14  2  0  0  0  0
 23 24  2  0  0  0  0
 23 27  1  0  0  0  0
 24 25  1  0  0  0  0
 25 22  2  0  0  0  0
 26 22  1  0  0  0  0
 27 26  2  0  0  0  0
M  END
>  <MODEL>
6

>  <REMARK>
 VINA RESULT:      -9.0      1.678      2.540
  Name = 
  3 active torsions:
  status: ('A' for Active; 'I' for Inactive)
    1  A    between atoms: C_1  and  C_15
    2  A    between atoms: C_2  and  C_15
    3  A    between atoms: C_9  and  C_15
                            x       y       z     vdW  Elec       q    Type
                         _______ _______ _______ _____ _____    ______ ____

>  <TORSDO>
F 3

$$$$
=
 OpenBabel11052413423D

 27 30  0  0  1  0  0  0  0  0999 V2000
  188.2180  177.1470  145.1250 C   0  0  1  0  0  3  0  0  0  0  0  0
  188.7320  177.0560  143.7120 C   0  0  0  0  0  0  0  0  0  0  0  0
  190.2610  176.7290  139.7320 C   0  0  0  0  0  3  0  0  0  0  0  0
  190.1650  177.2720  137.4740 F   0  0  0  0  0  0  0  0  0  0  0  0
  189.7220  176.1110  143.4120 C   0  0  0  0  0  3  0  0  0  0  0  0
  188.2920  178.7470  140.3340 C   0  0  0  0  0  2  0  0  0  0  0  0
  188.3600  178.1030  138.9440 C   0  0  0  0  0  2  0  0  0  0  0  0
  188.2520  177.9000  142.6990 C   0  0  0  0  0  3  0  0  0  0  0  0
  189.6600  177.3720  138.7260 C   0  0  0  0  0  0  0  0  0  0  0  0
  189.7380  176.8370  141.1030 C   0  0  0  0  0  0  0  0  0  0  0  0
  188.7420  177.7860  141.3960 C   0  0  0  0  0  0  0  0  0  0  0  0
  190.2270  176.0030  142.1120 C   0  0  0  0  0  3  0  0  0  0  0  0
  189.2000  177.7220  146.1780 C   0  0  2  0  0  0  0  0  0  0  0  0
  189.4130  175.8910  147.7180 O   0  0  0  0  0  0  0  0  0  0  0  0
  191.8520  175.5530  146.1710 O   0  0  0  0  0  1  0  0  0  0  0  0
  192.0550  177.1110  147.8430 O   0  0  0  0  0  1  0  0  0  0  0  0
  188.4560  178.6290  147.1490 C   0  0  0  0  0  1  0  0  0  0  0  0
  191.3620  176.7530  146.6860 C   0  0  0  0  0  0  0  0  0  0  0  0
  191.4370  177.8550  145.6520 C   0  0  0  0  0  2  0  0  0  0  0  0
  190.1810  178.5030  145.5220 O   0  0  0  0  0  0  0  0  0  0  0  0
  189.9290  176.6770  146.9380 C   0  0  0  0  0  0  0  0  0  0  0  0
  184.2120  178.6280  145.3710 C   0  0  0  0  0  3  0  0  0  0  0  0
  186.8140  177.6740  145.2150 C   0  0  0  0  0  0  0  0  0  0  0  0
  186.1860  177.7870  146.4190 N   0  0  0  0  0  0  0  0  0  0  0  0
  184.9120  178.2530  146.5190 C   0  0  0  0  0  3  0  0  0  0  0  0
  184.8360  178.5180  144.1270 C   0  0  0  0  0  3  0  0  0  0  0  0
  186.1440  178.0390  144.0450 C   0  0  0  0  0  3  0  0  0  0  0  0
  1  2  1  6  0  0  0
  1 23  1  0  0  0  0
  1 13  1  0  0  0  0
  3 10  1  0  0  0  0
  4  9  1  0  0  0  0
  5  2  1  0  0  0  0
  6 11  1  0  0  0  0
  7  6  1  0  0  0  0
  8  2  2  0  0  0  0
  9  7  1  0  0  0  0
  9  3  2  0  0  0  0
 10 11  2  0  0  0  0
 10 12  1  0  0  0  0
 11  8  1  0  0  0  0
 12  5  2  0  0  0  0
 13 21  1  0  0  0  0
 13 17  1  1  0  0  0
 15 18  1  0  0  0  0
 18 21  1  0  0  0  0
 18 16  1  0  0  0  0
 19 18  1  0  0  0  0
 20 19  1  0  0  0  0
 20 13  1  0  0  0  0
 21 14  2  0  0  0  0
 22 25  1  0  0  0  0
 23 24  1  0  0  0  0
 24 25  2  0  0  0  0
 26 22  2  0  0  0  0
 27 26  1  0  0  0  0
 27 23  2  0  0  0  0
M  END
>  <MODEL>
7

>  <REMARK>
 VINA RESULT:      -8.9      3.225      5.853
  Name = 
  3 active torsions:
  status: ('A' for Active; 'I' for Inactive)
    1  A    between atoms: C_1  and  C_15
    2  A    between atoms: C_2  and  C_15
    3  A    between atoms: C_9  and  C_15
                            x       y       z     vdW  Elec       q    Type
                         _______ _______ _______ _____ _____    ______ ____

>  <TORSDO>
F 3

$$$$
=
 OpenBabel11052413423D

 27 30  0  0  1  0  0  0  0  0999 V2000
  190.4160  176.1890  138.3780 C   0  0  1  0  0  3  0  0  0  0  0  0
  190.4820  176.6280  139.8170 C   0  0  0  0  0  0  0  0  0  0  0  0
  190.7700  177.9000  143.8900 C   0  0  0  0  0  3  0  0  0  0  0  0
  189.8060  178.2520  145.9750 F   0  0  0  0  0  0  0  0  0  0  0  0
  191.6310  177.2890  140.2700 C   0  0  0  0  0  3  0  0  0  0  0  0
  188.4310  176.4580  143.0160 C   0  0  0  0  0  2  0  0  0  0  0  0
  188.3380  177.5070  144.1300 C   0  0  0  0  0  2  0  0  0  0  0  0
  189.4310  176.3780  140.7120 C   0  0  0  0  0  3  0  0  0  0  0  0
  189.6950  177.8620  144.6840 C   0  0  0  0  0  0  0  0  0  0  0  0
  190.6760  177.4640  142.4880 C   0  0  0  0  0  0  0  0  0  0  0  0
  189.5190  176.8040  142.0390 C   0  0  0  0  0  0  0  0  0  0  0  0
  191.7300  177.7050  141.6020 C   0  0  0  0  0  3  0  0  0  0  0  0
  189.5480  177.0620  137.4330 C   0  0  2  0  0  0  0  0  0  0  0  0
  187.3990  176.0010  137.6050 O   0  0  0  0  0  0  0  0  0  0  0  0
  187.0190  178.2430  139.4180 O   0  0  0  0  0  1  0  0  0  0  0  0
  186.6780  178.7970  137.2180 O   0  0  0  0  0  1  0  0  0  0  0  0
  189.7830  176.6560  135.9840 C   0  0  0  0  0  1  0  0  0  0  0  0
  187.5910  178.2980  138.1480 C   0  0  0  0  0  0  0  0  0  0  0  0
  188.8540  179.1320  138.1610 C   0  0  0  0  0  2  0  0  0  0  0  0
  189.9290  178.4170  137.5710 O   0  0  0  0  0  0  0  0  0  0  0  0
  188.0970  176.9950  137.7360 C   0  0  0  0  0  0  0  0  0  0  0  0
  194.2010  175.0260  136.7600 C   0  0  0  0  0  3  0  0  0  0  0  0
  191.7490  175.7830  137.8170 C   0  0  0  0  0  0  0  0  0  0  0  0
  192.6930  176.7170  137.5130 N   0  0  0  0  0  0  0  0  0  0  0  0
  193.9020  176.3690  136.9960 C   0  0  0  0  0  3  0  0  0  0  0  0
  193.2480  174.0530  137.0620 C   0  0  0  0  0  3  0  0  0  0  0  0
  192.0130  174.4300  137.5940 C   0  0  0  0  0  3  0  0  0  0  0  0
  1 23  1  6  0  0  0
  1  2  1  0  0  0  0
  2  5  2  0  0  0  0
  2  8  1  0  0  0  0
  3  9  2  0  0  0  0
  5 12  1  0  0  0  0
  6  7  1  0  0  0  0
  7  9  1  0  0  0  0
  8 11  2  0  0  0  0
  9  4  1  0  0  0  0
 10  3  1  0  0  0  0
 11 10  1  0  0  0  0
 11  6  1  0  0  0  0
 12 10  2  0  0  0  0
 13 17  1  6  0  0  0
 13 20  1  0  0  0  0
 13 21  1  0  0  0  0
 13  1  1  0  0  0  0
 14 21  2  0  0  0  0
 16 18  1  0  0  0  0
 18 19  1  0  0  0  0
 18 15  1  0  0  0  0
 20 19  1  0  0  0  0
 21 18  1  0  0  0  0
 22 25  2  0  0  0  0
 22 26  1  0  0  0  0
 24 23  2  0  0  0  0
 25 24  1  0  0  0  0
 26 27  2  0  0  0  0
 27 23  1  0  0  0  0
M  END
>  <MODEL>
8

>  <REMARK>
 VINA RESULT:      -8.6      3.919      6.890
  Name = 
  3 active torsions:
  status: ('A' for Active; 'I' for Inactive)
    1  A    between atoms: C_1  and  C_15
    2  A    between atoms: C_2  and  C_15
    3  A    between atoms: C_9  and  C_15
                            x       y       z     vdW  Elec       q    Type
                         _______ _______ _______ _____ _____    ______ ____

>  <TORSDO>
F 3

$$$$
=
 OpenBabel11052413423D

 27 30  0  0  1  0  0  0  0  0999 V2000
  190.5110  177.0000  138.2450 C   0  0  1  0  0  3  0  0  0  0  0  0
  190.6560  177.0800  139.7420 C   0  0  0  0  0  0  0  0  0  0  0  0
  191.1710  177.3290  143.9800 C   0  0  0  0  0  3  0  0  0  0  0  0
  190.2980  177.2800  146.1330 F   0  0  0  0  0  0  0  0  0  0  0  0
  191.8810  177.4970  140.2810 C   0  0  0  0  0  3  0  0  0  0  0  0
  188.6700  176.3780  142.9080 C   0  0  0  0  0  2  0  0  0  0  0  0
  188.7170  177.1410  144.2370 C   0  0  0  0  0  2  0  0  0  0  0  0
  189.6030  176.7370  140.6030 C   0  0  0  0  0  3  0  0  0  0  0  0
  190.1170  177.2150  144.7930 C   0  0  0  0  0  0  0  0  0  0  0  0
  191.0000  177.2450  142.5210 C   0  0  0  0  0  0  0  0  0  0  0  0
  189.7670  176.8290  141.9870 C   0  0  0  0  0  0  0  0  0  0  0  0
  192.0540  177.5770  141.6660 C   0  0  0  0  0  3  0  0  0  0  0  0
  191.0680  175.7220  137.5670 C   0  0  2  0  0  0  0  0  0  0  0  0
  191.4230  176.4650  135.3100 O   0  0  0  0  0  0  0  0  0  0  0  0
  194.1330  176.6480  136.3490 O   0  0  0  0  0  1  0  0  0  0  0  0
  193.5710  174.5310  135.6670 O   0  0  0  0  0  1  0  0  0  0  0  0
  189.9280  174.7740  137.2190 C   0  0  0  0  0  1  0  0  0  0  0  0
  193.2520  175.5820  136.5270 C   0  0  0  0  0  0  0  0  0  0  0  0
  193.2520  175.1160  137.9670 C   0  0  0  0  0  2  0  0  0  0  0  0
  191.9270  175.0530  138.4700 O   0  0  0  0  0  0  0  0  0  0  0  0
  191.8680  176.0010  136.3490 C   0  0  0  0  0  0  0  0  0  0  0  0
  186.6720  178.2440  136.8250 C   0  0  0  0  0  3  0  0  0  0  0  0
  189.1600  177.4390  137.7540 C   0  0  0  0  0  0  0  0  0  0  0  0
  188.0440  176.7110  138.0370 N   0  0  0  0  0  0  0  0  0  0  0  0
  186.8140  177.0870  137.5930 C   0  0  0  0  0  3  0  0  0  0  0  0
  187.8020  179.0030  136.5210 C   0  0  0  0  0  3  0  0  0  0  0  0
  189.0560  178.6010  136.9870 C   0  0  0  0  0  3  0  0  0  0  0  0
  1 23  1  1  0  0  0
  1  2  1  0  0  0  0
  2  5  2  0  0  0  0
  2  8  1  0  0  0  0
  3  9  2  0  0  0  0
  5 12  1  0  0  0  0
  6  7  1  0  0  0  0
  7  9  1  0  0  0  0
  8 11  2  0  0  0  0
  9  4  1  0  0  0  0
 10  3  1  0  0  0  0
 11 10  1  0  0  0  0
 11  6  1  0  0  0  0
 12 10  2  0  0  0  0
 13 17  1  6  0  0  0
 13  1  1  0  0  0  0
 13 20  1  0  0  0  0
 14 21  2  0  0  0  0
 15 18  1  0  0  0  0
 16 18  1  0  0  0  0
 18 19  1  0  0  0  0
 19 20  1  0  0  0  0
 21 18  1  0  0  0  0
 21 13  1  0  0  0  0
 22 25  1  0  0  0  0
 23 24  1  0  0  0  0
 25 24  2  0  0  0  0
 26 22  2  0  0  0  0
 26 27  1  0  0  0  0
 27 23  2  0  0  0  0
M  END
>  <MODEL>
9

>  <REMARK>
 VINA RESULT:      -8.6      4.055      7.285
  Name = 
  3 active torsions:
  status: ('A' for Active; 'I' for Inactive)
    1  A    between atoms: C_1  and  C_15
    2  A    between atoms: C_2  and  C_15
    3  A    between atoms: C_9  and  C_15
                            x       y       z     vdW  Elec       q    Type
                         _______ _______ _______ _____ _____    ______ ____

>  <TORSDO>
F 3

$$$$
