=
 OpenBabel11052414573D

 55 59  0  0  1  0  0  0  0  0999 V2000
  186.5700  178.1800  137.4700 C   0  0  0  0  0  3  0  0  0  0  0  0
  183.5750  177.8200  141.6920 C   0  0  0  0  0  2  0  0  0  0  0  0
  182.7580  176.4080  139.3830 O   0  0  0  0  0  0  0  0  0  0  0  0
  180.6040  177.7010  136.3820 C   0  0  0  0  0  2  0  0  0  0  0  0
  179.4170  176.8160  136.0250 C   0  0  0  0  0  2  0  0  0  0  0  0
  182.0580  175.8550  135.4500 C   0  0  0  0  0  0  0  0  0  0  0  0
  181.0510  175.4640  134.6600 C   0  0  0  0  0  3  0  0  0  0  0  0
  182.9660  178.3410  138.1240 O   0  0  0  0  0  0  0  0  0  0  0  0
  179.6900  176.1080  134.6960 C   0  0  0  0  0  2  0  0  0  0  0  0
  188.7270  177.1710  138.0760 C   0  0  0  0  0  2  0  0  0  0  0  0
  181.8420  176.8230  136.5880 C   0  0  1  0  0  3  0  0  0  0  0  0
  188.2920  178.4390  140.6560 C   0  0  1  0  0  3  0  0  0  0  0  0
  185.4850  177.5360  137.1310 C   0  0  0  0  0  0  0  0  0  0  0  0
  187.6560  178.8580  139.4560 O   0  0  0  0  0  0  0  0  0  0  0  0
  184.4700  175.6620  135.9130 C   0  0  0  0  0  0  0  0  0  0  0  0
  184.0290  178.8020  142.5780 O   0  0  0  0  0  0  0  0  0  0  0  0
  183.3610  175.2050  135.3090 C   0  0  0  0  0  3  0  0  0  0  0  0
  182.7280  178.4620  140.6030 C   0  0  0  0  0  2  0  0  0  0  0  0
  182.8260  177.6650  139.3460 C   0  0  0  0  0  0  0  0  0  0  0  0
  189.9090  177.4850  138.9860 C   0  0  0  0  0  2  0  0  0  0  0  0
  185.2780  178.3320  143.0000 C   0  0  1  0  0  3  0  0  0  0  0  0
  187.4130  177.7480  138.6180 C   0  0  1  0  0  3  0  0  0  0  0  0
  183.0850  177.6790  136.8600 C   0  0  2  0  0  3  0  0  0  0  0  0
  184.3950  176.9150  136.7440 C   0  0  0  0  0  0  0  0  0  0  0  0
  186.3740  178.9590  142.1570 C   0  0  0  0  0  2  0  0  0  0  0  0
  187.2990  177.8620  141.6550 C   0  0  0  0  0  2  0  0  0  0  0  0
  189.4680  177.4710  140.4400 C   0  0  0  0  0  2  0  0  0  0  0  0
  186.7990  175.4960  134.9780 C   0  0  0  0  0  3  0  0  0  0  0  0
  188.1890  173.5260  135.3110 C   0  0  0  0  0  0  0  0  0  0  0  0
  185.9260  173.6140  136.2040 C   0  0  0  0  0  3  0  0  0  0  0  0
  187.1330  172.9320  136.0210 C   0  0  0  0  0  3  0  0  0  0  0  0
  188.0100  174.8170  134.7940 C   0  0  0  0  0  3  0  0  0  0  0  0
  185.7350  174.9000  135.6750 C   0  0  0  0  0  0  0  0  0  0  0  0
  189.4380  172.8300  135.1350 N   0  0  0  0  0  0  0  0  0  0  0  0
  189.4630  171.3950  134.8410 C   0  0  0  0  0  1  0  0  0  0  0  0
  190.7170  173.5160  135.2800 C   0  0  0  0  0  1  0  0  0  0  0  0
  184.8900  179.9230  144.9390 C   0  0  0  0  0  1  0  0  0  0  0  0
  185.5290  178.6170  144.4820 C   0  0  2  0  0  3  0  0  0  0  0  0
  186.8990  178.4640  144.8780 O   0  0  0  0  0  0  0  0  0  0  0  0
  187.5250  177.2560  145.2570 C   0  0  0  0  0  0  0  0  0  0  0  0
  187.2900  176.2220  144.5770 O   0  0  0  0  0  0  0  0  0  0  0  0
  188.4540  177.1770  146.4410 C   0  0  2  0  0  3  0  0  0  0  0  0
  187.8940  177.8620  147.6740 C   0  0  0  0  0  1  0  0  0  0  0  0
  189.9310  177.5190  146.1560 C   0  0  1  0  0  3  0  0  0  0  0  0
  190.8210  176.7430  147.0870 C   0  0  0  0  0  0  0  0  0  0  0  0
  190.5520  175.5390  147.3500 O   0  0  0  0  0  0  0  0  0  0  0  0
  191.9430  177.3370  147.6660 O   0  0  0  0  0  1  0  0  0  0  0  0
  190.4100  177.4260  144.6860 C   0  0  2  0  0  3  0  0  0  0  0  0
  190.5380  175.9560  144.2550 C   0  0  1  0  0  3  0  0  0  0  0  0
  189.7510  175.6950  143.1390 O   0  0  0  0  0  1  0  0  0  0  0  0
  191.9810  175.5590  143.9780 C   0  0  0  0  0  2  0  0  0  0  0  0
  192.3240  174.4330  144.7420 O   0  0  0  0  0  1  0  0  0  0  0  0
  191.7050  178.1950  144.3970 C   0  0  0  0  0  2  0  0  0  0  0  0
  190.2070  179.3820  143.4160 O   0  0  0  0  0  1  0  0  0  0  0  0
  191.3970  179.4940  143.9680 O   0  0  0  0  0  0  0  0  0  0  0  0
  2 16  1  0  0  0  0
  5  4  1  0  0  0  0
  6 11  1  0  0  0  0
  7  9  1  0  0  0  0
  7  6  2  0  0  0  0
  8 19  1  0  0  0  0
  9  5  1  0  0  0  0
 10 22  1  0  0  0  0
 10 20  1  0  0  0  0
 11  4  1  6  0  0  0
 11 23  1  0  0  0  0
 12 27  1  6  0  0  0
 12 26  1  0  0  0  0
 13  1  2  0  0  0  0
 14 12  1  0  0  0  0
 15 24  1  0  0  0  0
 16 21  1  0  0  0  0
 17  6  1  0  0  0  0
 17 15  2  0  0  0  0
 18  2  1  0  0  0  0
 19  3  2  0  0  0  0
 19 18  1  0  0  0  0
 20 27  1  0  0  0  0
 21 38  1  1  0  0  0
 22  1  1  6  0  0  0
 22 14  1  0  0  0  0
 23 24  1  1  0  0  0
 23  8  1  0  0  0  0
 24 13  2  0  0  0  0
 25 21  1  0  0  0  0
 26 25  1  0  0  0  0
 28 33  1  0  0  0  0
 29 31  2  0  0  0  0
 31 30  1  0  0  0  0
 32 28  2  0  0  0  0
 32 29  1  0  0  0  0
 33 15  1  0  0  0  0
 33 30  2  0  0  0  0
 34 36  1  0  0  0  0
 34 29  1  0  0  0  0
 35 34  1  0  0  0  0
 38 39  1  0  0  0  0
 38 37  1  6  0  0  0
 39 40  1  0  0  0  0
 40 42  1  0  0  0  0
 41 40  2  0  0  0  0
 42 43  1  1  0  0  0
 44 42  1  0  0  0  0
 44 45  1  1  0  0  0
 45 46  2  0  0  0  0
 45 47  1  0  0  0  0
 48 53  1  1  0  0  0
 48 44  1  0  0  0  0
 49 50  1  6  0  0  0
 49 48  1  0  0  0  0
 51 49  1  0  0  0  0
 51 52  1  0  0  0  0
 54 55  1  0  0  0  0
 55 53  1  0  0  0  0
M  END
>  <MODEL>
1

>  <REMARK>
 VINA RESULT:      -7.2      0.000      0.000
  Name = 
  13 active torsions:
  status: ('A' for Active; 'I' for Inactive)
    1  A    between atoms: C_1  and  C_53
    2  A    between atoms: C_3  and  O_14
    3  A    between atoms: C_3  and  C_38
    4  A    between atoms: C_6  and  C_20
    5  A    between atoms: C_6  and  C_53
    6  A    between atoms: C_8  and  O_22
    7  A    between atoms: C_8  and  C_43
    8  A    between atoms: N_10  and  C_32
    9  A    between atoms: C_11  and  C_29
   10  A    between atoms: C_20  and  O_22
   11  A    between atoms: C_29  and  C_38
   12  A    between atoms: C_33  and  C_52
   13  A    between atoms: C_38  and  C_53
                            x       y       z     vdW  Elec       q    Type
                         _______ _______ _______ _____ _____    ______ ____

>  <TORSDO>
F 13

$$$$
=
 OpenBabel11052414573D

 55 59  0  0  1  0  0  0  0  0999 V2000
  185.9730  178.8930  137.8800 C   0  0  0  0  0  3  0  0  0  0  0  0
  189.7950  176.7100  140.6290 C   0  0  0  0  0  2  0  0  0  0  0  0
  187.2230  176.7930  141.7990 O   0  0  0  0  0  0  0  0  0  0  0  0
  185.6040  179.6690  143.9020 C   0  0  0  0  0  2  0  0  0  0  0  0
  185.0120  179.2270  145.2330 C   0  0  0  0  0  2  0  0  0  0  0  0
  183.6830  178.4350  142.8170 C   0  0  0  0  0  0  0  0  0  0  0  0
  182.9470  178.6170  143.9200 C   0  0  0  0  0  3  0  0  0  0  0  0
  187.0960  179.0640  141.3650 O   0  0  0  0  0  0  0  0  0  0  0  0
  183.4850  179.2860  145.1570 C   0  0  0  0  0  2  0  0  0  0  0  0
  185.6930  177.4980  135.8760 C   0  0  0  0  0  2  0  0  0  0  0  0
  185.1710  178.6890  142.8070 C   0  0  1  0  0  3  0  0  0  0  0  0
  188.5910  177.2830  135.9460 C   0  0  1  0  0  3  0  0  0  0  0  0
  185.5050  178.6340  139.0710 C   0  0  0  0  0  0  0  0  0  0  0  0
  187.8650  178.3260  136.5810 O   0  0  0  0  0  0  0  0  0  0  0  0
  183.6560  177.7800  140.4430 C   0  0  0  0  0  0  0  0  0  0  0  0
  190.9850  177.0380  139.9710 O   0  0  0  0  0  0  0  0  0  0  0  0
  183.0600  177.8210  141.6450 C   0  0  0  0  0  3  0  0  0  0  0  0
  189.3030  177.9080  141.4290 C   0  0  0  0  0  2  0  0  0  0  0  0
  187.8160  177.8720  141.5360 C   0  0  0  0  0  0  0  0  0  0  0  0
  186.4680  177.1700  134.6060 C   0  0  0  0  0  2  0  0  0  0  0  0
  190.9410  176.2900  138.7890 C   0  0  1  0  0  3  0  0  0  0  0  0
  186.6220  177.8440  137.0470 C   0  0  1  0  0  3  0  0  0  0  0  0
  185.6680  179.1450  141.4310 C   0  0  2  0  0  3  0  0  0  0  0  0
  185.0080  178.4210  140.2670 C   0  0  0  0  0  0  0  0  0  0  0  0
  190.3910  177.1450  137.6620 C   0  0  0  0  0  2  0  0  0  0  0  0
  189.2850  176.3780  136.9540 C   0  0  0  0  0  2  0  0  0  0  0  0
  187.7610  176.4500  134.9540 C   0  0  0  0  0  2  0  0  0  0  0  0
  183.0490  175.7500  139.0900 C   0  0  0  0  0  3  0  0  0  0  0  0
  181.3930  175.8300  137.3080 C   0  0  0  0  0  0  0  0  0  0  0  0
  181.9710  177.8370  138.5570 C   0  0  0  0  0  3  0  0  0  0  0  0
  181.2310  177.2030  137.5560 C   0  0  0  0  0  3  0  0  0  0  0  0
  182.3090  175.1090  138.0880 C   0  0  0  0  0  3  0  0  0  0  0  0
  182.9000  177.1250  139.3310 C   0  0  0  0  0  0  0  0  0  0  0  0
  180.6200  175.1720  136.2860 N   0  0  0  0  0  0  0  0  0  0  0  0
  180.9950  173.8430  135.7990 C   0  0  0  0  0  1  0  0  0  0  0  0
  179.4620  175.8170  135.6750 C   0  0  0  0  0  1  0  0  0  0  0  0
  193.0480  176.6380  137.4190 C   0  0  0  0  0  1  0  0  0  0  0  0
  192.3150  175.7370  138.4060 C   0  0  2  0  0  3  0  0  0  0  0  0
  192.3000  174.3510  138.0370 O   0  0  0  0  0  0  0  0  0  0  0  0
  192.2460  173.8420  136.7210 C   0  0  0  0  0  0  0  0  0  0  0  0
  191.1180  173.7040  136.1790 O   0  0  0  0  0  0  0  0  0  0  0  0
  193.4910  173.4640  135.9610 C   0  0  2  0  0  3  0  0  0  0  0  0
  193.2120  172.5150  134.8100 C   0  0  0  0  0  1  0  0  0  0  0  0
  194.7040  173.0560  136.8230 C   0  0  1  0  0  3  0  0  0  0  0  0
  195.0790  171.6300  136.5320 C   0  0  0  0  0  0  0  0  0  0  0  0
  195.9840  171.3820  135.6890 O   0  0  0  0  0  0  0  0  0  0  0  0
  194.4380  170.5730  137.1800 O   0  0  0  0  0  1  0  0  0  0  0  0
  195.9360  173.9940  136.8020 C   0  0  2  0  0  3  0  0  0  0  0  0
  196.2740  174.4670  138.2260 C   0  0  1  0  0  3  0  0  0  0  0  0
  195.6020  173.7040  139.1760 O   0  0  0  0  0  1  0  0  0  0  0  0
  197.7700  174.4410  138.5040 C   0  0  0  0  0  2  0  0  0  0  0  0
  198.1680  175.6460  139.1020 O   0  0  0  0  0  1  0  0  0  0  0  0
  195.8050  175.1860  135.8480 C   0  0  0  0  0  2  0  0  0  0  0  0
  196.5530  177.1870  135.6170 O   0  0  0  0  0  1  0  0  0  0  0  0
  196.9650  175.9710  135.9100 O   0  0  0  0  0  0  0  0  0  0  0  0
  1 13  2  0  0  0  0
  2 18  1  0  0  0  0
  4  5  1  0  0  0  0
  6  7  2  0  0  0  0
  7  9  1  0  0  0  0
  8 23  1  0  0  0  0
  8 19  1  0  0  0  0
  9  5  1  0  0  0  0
 11  6  1  0  0  0  0
 11  4  1  1  0  0  0
 12 27  1  1  0  0  0
 12 14  1  0  0  0  0
 12 26  1  0  0  0  0
 13 24  2  0  0  0  0
 14 22  1  0  0  0  0
 15 17  2  0  0  0  0
 16  2  1  0  0  0  0
 17  6  1  0  0  0  0
 18 19  1  0  0  0  0
 19  3  2  0  0  0  0
 20 27  1  0  0  0  0
 20 10  1  0  0  0  0
 21 38  1  6  0  0  0
 21 16  1  0  0  0  0
 22 10  1  6  0  0  0
 22  1  1  0  0  0  0
 23 24  1  6  0  0  0
 23 11  1  0  0  0  0
 24 15  1  0  0  0  0
 25 21  1  0  0  0  0
 26 25  1  0  0  0  0
 28 33  1  0  0  0  0
 29 31  2  0  0  0  0
 29 32  1  0  0  0  0
 30 33  2  0  0  0  0
 31 30  1  0  0  0  0
 32 28  2  0  0  0  0
 33 15  1  0  0  0  0
 34 29  1  0  0  0  0
 35 34  1  0  0  0  0
 36 34  1  0  0  0  0
 38 37  1  6  0  0  0
 39 38  1  0  0  0  0
 40 39  1  0  0  0  0
 41 40  2  0  0  0  0
 42 43  1  6  0  0  0
 42 40  1  0  0  0  0
 42 44  1  0  0  0  0
 44 45  1  6  0  0  0
 45 47  1  0  0  0  0
 46 45  2  0  0  0  0
 48 53  1  6  0  0  0
 48 44  1  0  0  0  0
 48 49  1  0  0  0  0
 49 51  1  0  0  0  0
 49 50  1  1  0  0  0
 51 52  1  0  0  0  0
 53 55  1  0  0  0  0
 54 55  1  0  0  0  0
M  END
>  <MODEL>
2

>  <REMARK>
 VINA RESULT:      -6.9      4.265      8.403
  Name = 
  13 active torsions:
  status: ('A' for Active; 'I' for Inactive)
    1  A    between atoms: C_1  and  C_53
    2  A    between atoms: C_3  and  O_14
    3  A    between atoms: C_3  and  C_38
    4  A    between atoms: C_6  and  C_20
    5  A    between atoms: C_6  and  C_53
    6  A    between atoms: C_8  and  O_22
    7  A    between atoms: C_8  and  C_43
    8  A    between atoms: N_10  and  C_32
    9  A    between atoms: C_11  and  C_29
   10  A    between atoms: C_20  and  O_22
   11  A    between atoms: C_29  and  C_38
   12  A    between atoms: C_33  and  C_52
   13  A    between atoms: C_38  and  C_53
                            x       y       z     vdW  Elec       q    Type
                         _______ _______ _______ _____ _____    ______ ____

>  <TORSDO>
F 13

$$$$
=
 OpenBabel11052414573D

 55 59  0  0  1  0  0  0  0  0999 V2000
  184.0080  177.9500  137.0770 C   0  0  0  0  0  3  0  0  0  0  0  0
  186.9430  178.1130  141.3530 C   0  0  0  0  0  2  0  0  0  0  0  0
  184.2120  177.4530  141.6640 O   0  0  0  0  0  0  0  0  0  0  0  0
  181.1650  179.8690  142.1010 C   0  0  0  0  0  2  0  0  0  0  0  0
  180.2630  179.5470  143.2850 C   0  0  0  0  0  2  0  0  0  0  0  0
  180.2420  177.7730  141.0300 C   0  0  0  0  0  0  0  0  0  0  0  0
  179.1230  177.9000  141.7520 C   0  0  0  0  0  3  0  0  0  0  0  0
  183.6170  179.3330  140.4500 O   0  0  0  0  0  0  0  0  0  0  0  0
  178.9330  178.9880  142.7760 C   0  0  0  0  0  2  0  0  0  0  0  0
  184.9240  176.1390  135.6910 C   0  0  0  0  0  2  0  0  0  0  0  0
  181.4820  178.5770  141.3420 C   0  0  1  0  0  3  0  0  0  0  0  0
  187.5070  177.0910  136.6260 C   0  0  1  0  0  3  0  0  0  0  0  0
  183.2160  177.8080  138.1060 C   0  0  0  0  0  0  0  0  0  0  0  0
  186.3280  177.8840  136.6310 O   0  0  0  0  0  0  0  0  0  0  0  0
  181.3120  176.6380  139.1230 C   0  0  0  0  0  0  0  0  0  0  0  0
  188.1470  178.7200  140.9770 O   0  0  0  0  0  0  0  0  0  0  0  0
  180.3180  176.7160  140.0220 C   0  0  0  0  0  3  0  0  0  0  0  0
  185.8630  179.1740  141.5170 C   0  0  0  0  0  2  0  0  0  0  0  0
  184.5250  178.5880  141.2160 C   0  0  0  0  0  0  0  0  0  0  0  0
  186.1840  175.8590  134.8800 C   0  0  0  0  0  2  0  0  0  0  0  0
  188.7720  177.7670  140.1660 C   0  0  1  0  0  3  0  0  0  0  0  0
  185.1950  177.0760  136.8750 C   0  0  1  0  0  3  0  0  0  0  0  0
  182.3130  178.8640  140.0870 C   0  0  2  0  0  3  0  0  0  0  0  0
  182.3840  177.6960  139.1150 C   0  0  0  0  0  0  0  0  0  0  0  0
  188.4750  178.0590  138.7070 C   0  0  0  0  0  2  0  0  0  0  0  0
  187.9910  176.7830  138.0360 C   0  0  0  0  0  2  0  0  0  0  0  0
  187.3940  175.7990  135.7980 C   0  0  0  0  0  2  0  0  0  0  0  0
  182.4010  174.7250  137.9080 C   0  0  0  0  0  3  0  0  0  0  0  0
  181.1600  173.2800  136.3930 C   0  0  0  0  0  0  0  0  0  0  0  0
  180.0620  175.1440  137.5100 C   0  0  0  0  0  3  0  0  0  0  0  0
  180.0110  174.0500  136.6400 C   0  0  0  0  0  3  0  0  0  0  0  0
  182.3550  173.6280  137.0380 C   0  0  0  0  0  3  0  0  0  0  0  0
  181.2590  175.5060  138.1470 C   0  0  0  0  0  0  0  0  0  0  0  0
  181.1050  172.1450  135.5080 N   0  0  0  0  0  0  0  0  0  0  0  0
  179.8230  171.6400  135.0130 C   0  0  0  0  0  1  0  0  0  0  0  0
  182.3150  171.4360  135.1050 C   0  0  0  0  0  1  0  0  0  0  0  0
  191.0440  177.2660  139.1530 C   0  0  0  0  0  1  0  0  0  0  0  0
  190.2850  177.7210  140.3930 C   0  0  2  0  0  3  0  0  0  0  0  0
  190.6700  177.0450  141.5990 O   0  0  0  0  0  0  0  0  0  0  0  0
  191.2520  177.6440  142.7380 C   0  0  0  0  0  0  0  0  0  0  0  0
  191.6400  178.8400  142.6520 O   0  0  0  0  0  0  0  0  0  0  0  0
  191.4190  176.8960  144.0350 C   0  0  2  0  0  3  0  0  0  0  0  0
  191.6380  175.4080  143.8300 C   0  0  0  0  0  1  0  0  0  0  0  0
  190.3910  177.2280  145.1360 C   0  0  1  0  0  3  0  0  0  0  0  0
  189.0010  177.1840  144.5640 C   0  0  0  0  0  0  0  0  0  0  0  0
  188.5210  176.0840  144.1740 O   0  0  0  0  0  0  0  0  0  0  0  0
  188.2320  178.3430  144.4580 O   0  0  0  0  0  1  0  0  0  0  0  0
  190.4950  176.4390  146.4650 C   0  0  2  0  0  3  0  0  0  0  0  0
  189.7800  177.1960  147.5950 C   0  0  1  0  0  3  0  0  0  0  0  0
  189.8060  178.5690  147.3690 O   0  0  0  0  0  1  0  0  0  0  0  0
  188.3440  176.7290  147.7860 C   0  0  0  0  0  2  0  0  0  0  0  0
  187.5350  177.8090  148.1690 O   0  0  0  0  0  1  0  0  0  0  0  0
  191.9290  176.0770  146.8710 C   0  0  0  0  0  2  0  0  0  0  0  0
  192.9820  176.0980  148.7430 O   0  0  0  0  0  1  0  0  0  0  0  0
  192.3450  176.9060  147.9230 O   0  0  0  0  0  0  0  0  0  0  0  0
  1 13  2  0  0  0  0
  2 18  1  0  0  0  0
  4  5  1  0  0  0  0
  6 11  1  0  0  0  0
  6  7  2  0  0  0  0
  7  9  1  0  0  0  0
  8 19  1  0  0  0  0
  9  5  1  0  0  0  0
 11  4  1  6  0  0  0
 12 27  1  1  0  0  0
 12 14  1  0  0  0  0
 12 26  1  0  0  0  0
 13 24  2  0  0  0  0
 14 22  1  0  0  0  0
 15 17  2  0  0  0  0
 16  2  1  0  0  0  0
 17  6  1  0  0  0  0
 19 18  1  0  0  0  0
 19  3  2  0  0  0  0
 20 10  1  0  0  0  0
 20 27  1  0  0  0  0
 21 38  1  6  0  0  0
 21 16  1  0  0  0  0
 22 10  1  6  0  0  0
 22  1  1  0  0  0  0
 23 24  1  1  0  0  0
 23  8  1  0  0  0  0
 23 11  1  0  0  0  0
 24 15  1  0  0  0  0
 25 21  1  0  0  0  0
 26 25  1  0  0  0  0
 28 33  1  0  0  0  0
 29 31  2  0  0  0  0
 29 32  1  0  0  0  0
 30 33  2  0  0  0  0
 31 30  1  0  0  0  0
 32 28  2  0  0  0  0
 33 15  1  0  0  0  0
 34 29  1  0  0  0  0
 35 34  1  0  0  0  0
 36 34  1  0  0  0  0
 38 37  1  6  0  0  0
 38 39  1  0  0  0  0
 39 40  1  0  0  0  0
 40 42  1  0  0  0  0
 41 40  2  0  0  0  0
 42 43  1  6  0  0  0
 42 44  1  0  0  0  0
 44 45  1  6  0  0  0
 44 48  1  0  0  0  0
 46 45  2  0  0  0  0
 47 45  1  0  0  0  0
 48 53  1  1  0  0  0
 48 49  1  0  0  0  0
 49 50  1  6  0  0  0
 49 51  1  0  0  0  0
 51 52  1  0  0  0  0
 53 55  1  0  0  0  0
 55 54  1  0  0  0  0
M  END
>  <MODEL>
3

>  <REMARK>
 VINA RESULT:      -6.8      2.324      5.383
  Name = 
  13 active torsions:
  status: ('A' for Active; 'I' for Inactive)
    1  A    between atoms: C_1  and  C_53
    2  A    between atoms: C_3  and  O_14
    3  A    between atoms: C_3  and  C_38
    4  A    between atoms: C_6  and  C_20
    5  A    between atoms: C_6  and  C_53
    6  A    between atoms: C_8  and  O_22
    7  A    between atoms: C_8  and  C_43
    8  A    between atoms: N_10  and  C_32
    9  A    between atoms: C_11  and  C_29
   10  A    between atoms: C_20  and  O_22
   11  A    between atoms: C_29  and  C_38
   12  A    between atoms: C_33  and  C_52
   13  A    between atoms: C_38  and  C_53
                            x       y       z     vdW  Elec       q    Type
                         _______ _______ _______ _____ _____    ______ ____

>  <TORSDO>
F 13

$$$$
=
 OpenBabel11052414573D

 55 59  0  0  1  0  0  0  0  0999 V2000
  185.2810  177.4000  136.8230 C   0  0  0  0  0  3  0  0  0  0  0  0
  187.0820  178.3390  141.5980 C   0  0  0  0  0  2  0  0  0  0  0  0
  184.3960  177.4930  141.3550 O   0  0  0  0  0  0  0  0  0  0  0  0
  181.2100  179.6780  140.7270 C   0  0  0  0  0  2  0  0  0  0  0  0
  180.0660  179.4290  141.7020 C   0  0  0  0  0  2  0  0  0  0  0  0
  180.6860  177.3950  139.7760 C   0  0  0  0  0  0  0  0  0  0  0  0
  179.4200  177.5140  140.1930 C   0  0  0  0  0  3  0  0  0  0  0  0
  184.0130  179.1510  139.7840 O   0  0  0  0  0  0  0  0  0  0  0  0
  178.9310  178.7000  140.9810 C   0  0  0  0  0  2  0  0  0  0  0  0
  186.6000  175.5170  135.9560 C   0  0  0  0  0  2  0  0  0  0  0  0
  181.7690  178.3330  140.2520 C   0  0  1  0  0  3  0  0  0  0  0  0
  188.8260  176.7930  137.3240 C   0  0  1  0  0  3  0  0  0  0  0  0
  184.2720  177.3200  137.6490 C   0  0  0  0  0  0  0  0  0  0  0  0
  187.6410  177.4770  136.9430 O   0  0  0  0  0  0  0  0  0  0  0  0
  182.2440  176.1280  138.3490 C   0  0  0  0  0  0  0  0  0  0  0  0
  188.3070  178.9950  141.4320 O   0  0  0  0  0  0  0  0  0  0  0  0
  181.0590  176.2310  138.9720 C   0  0  0  0  0  3  0  0  0  0  0  0
  185.9400  179.3160  141.3560 C   0  0  0  0  0  2  0  0  0  0  0  0
  184.7480  178.5860  140.8370 C   0  0  0  0  0  0  0  0  0  0  0  0
  188.0320  175.2470  135.5080 C   0  0  0  0  0  2  0  0  0  0  0  0
  189.1600  178.0050  140.9310 C   0  0  1  0  0  3  0  0  0  0  0  0
  186.5270  176.6120  137.0280 C   0  0  1  0  0  3  0  0  0  0  0  0
  182.8620  178.5330  139.1970 C   0  0  2  0  0  3  0  0  0  0  0  0
  183.2280  177.2640  138.4420 C   0  0  0  0  0  0  0  0  0  0  0  0
  189.2090  178.0890  139.4160 C   0  0  0  0  0  2  0  0  0  0  0  0
  188.9700  176.7030  138.8360 C   0  0  0  0  0  2  0  0  0  0  0  0
  188.9850  175.4040  136.6820 C   0  0  0  0  0  2  0  0  0  0  0  0
  183.6040  174.0760  137.8330 C   0  0  0  0  0  3  0  0  0  0  0  0
  182.9160  172.4570  136.1510 C   0  0  0  0  0  0  0  0  0  0  0  0
  181.5810  174.4470  136.5790 C   0  0  0  0  0  3  0  0  0  0  0  0
  181.7920  173.2540  135.8800 C   0  0  0  0  0  3  0  0  0  0  0  0
  183.8180  172.8800  137.1370 C   0  0  0  0  0  3  0  0  0  0  0  0
  182.4880  174.8830  137.5560 C   0  0  0  0  0  0  0  0  0  0  0  0
  183.1260  171.2210  135.4430 N   0  0  0  0  0  0  0  0  0  0  0  0
  184.4790  170.7420  135.1530 C   0  0  0  0  0  1  0  0  0  0  0  0
  182.0050  170.4230  134.9570 C   0  0  0  0  0  1  0  0  0  0  0  0
  191.6240  177.5020  140.5910 C   0  0  0  0  0  1  0  0  0  0  0  0
  190.5720  178.1160  141.5080 C   0  0  2  0  0  3  0  0  0  0  0  0
  190.6730  177.7020  142.8780 O   0  0  0  0  0  0  0  0  0  0  0  0
  190.4930  178.5270  144.0100 C   0  0  0  0  0  0  0  0  0  0  0  0
  190.8980  179.7180  143.9540 O   0  0  0  0  0  0  0  0  0  0  0  0
  189.8350  178.0200  145.2680 C   0  0  2  0  0  3  0  0  0  0  0  0
  190.4900  176.7610  145.8070 C   0  0  0  0  0  1  0  0  0  0  0  0
  188.2940  177.9560  145.2390 C   0  0  1  0  0  3  0  0  0  0  0  0
  187.8490  176.7870  144.4050 C   0  0  0  0  0  0  0  0  0  0  0  0
  186.6270  176.6540  144.1190 O   0  0  0  0  0  1  0  0  0  0  0  0
  188.7670  175.8450  143.9430 O   0  0  0  0  0  0  0  0  0  0  0  0
  187.5560  178.0110  146.5990 C   0  0  2  0  0  3  0  0  0  0  0  0
  186.2820  178.8630  146.4830 C   0  0  1  0  0  3  0  0  0  0  0  0
  186.1670  179.4170  145.2120 O   0  0  0  0  0  1  0  0  0  0  0  0
  185.0250  178.0720  146.8200 C   0  0  0  0  0  2  0  0  0  0  0  0
  183.9010  178.6950  146.2580 O   0  0  0  0  0  1  0  0  0  0  0  0
  188.4260  178.4870  147.7690 C   0  0  0  0  0  2  0  0  0  0  0  0
  187.9770  176.4350  148.2200 O   0  0  0  0  0  1  0  0  0  0  0  0
  188.8350  177.3840  148.5320 O   0  0  0  0  0  0  0  0  0  0  0  0
  1 22  1  0  0  0  0
  1 13  2  0  0  0  0
  4  5  1  0  0  0  0
  6  7  2  0  0  0  0
  6 11  1  0  0  0  0
  7  9  1  0  0  0  0
  8 19  1  0  0  0  0
  9  5  1  0  0  0  0
 11  4  1  6  0  0  0
 12 27  1  6  0  0  0
 12 26  1  0  0  0  0
 13 24  2  0  0  0  0
 14 22  1  0  0  0  0
 14 12  1  0  0  0  0
 15 24  1  0  0  0  0
 15 17  2  0  0  0  0
 16  2  1  0  0  0  0
 17  6  1  0  0  0  0
 18  2  1  0  0  0  0
 19  3  2  0  0  0  0
 19 18  1  0  0  0  0
 20 10  1  0  0  0  0
 20 27  1  0  0  0  0
 21 16  1  0  0  0  0
 21 38  1  1  0  0  0
 22 10  1  6  0  0  0
 23 24  1  1  0  0  0
 23  8  1  0  0  0  0
 23 11  1  0  0  0  0
 25 21  1  0  0  0  0
 26 25  1  0  0  0  0
 29 32  1  0  0  0  0
 30 33  2  0  0  0  0
 31 29  2  0  0  0  0
 31 30  1  0  0  0  0
 32 28  2  0  0  0  0
 33 28  1  0  0  0  0
 33 15  1  0  0  0  0
 34 29  1  0  0  0  0
 35 34  1  0  0  0  0
 36 34  1  0  0  0  0
 38 37  1  6  0  0  0
 38 39  1  0  0  0  0
 39 40  1  0  0  0  0
 40 42  1  0  0  0  0
 41 40  2  0  0  0  0
 42 43  1  6  0  0  0
 44 45  1  1  0  0  0
 44 42  1  0  0  0  0
 44 48  1  0  0  0  0
 46 45  1  0  0  0  0
 47 45  2  0  0  0  0
 48 53  1  1  0  0  0
 49 50  1  6  0  0  0
 49 48  1  0  0  0  0
 49 51  1  0  0  0  0
 52 51  1  0  0  0  0
 53 55  1  0  0  0  0
 54 55  1  0  0  0  0
M  END
>  <MODEL>
4

>  <REMARK>
 VINA RESULT:      -6.8      2.213      4.828
  Name = 
  13 active torsions:
  status: ('A' for Active; 'I' for Inactive)
    1  A    between atoms: C_1  and  C_53
    2  A    between atoms: C_3  and  O_14
    3  A    between atoms: C_3  and  C_38
    4  A    between atoms: C_6  and  C_20
    5  A    between atoms: C_6  and  C_53
    6  A    between atoms: C_8  and  O_22
    7  A    between atoms: C_8  and  C_43
    8  A    between atoms: N_10  and  C_32
    9  A    between atoms: C_11  and  C_29
   10  A    between atoms: C_20  and  O_22
   11  A    between atoms: C_29  and  C_38
   12  A    between atoms: C_33  and  C_52
   13  A    between atoms: C_38  and  C_53
                            x       y       z     vdW  Elec       q    Type
                         _______ _______ _______ _____ _____    ______ ____

>  <TORSDO>
F 13

$$$$
=
 OpenBabel11052414573D

 55 59  0  0  1  0  0  0  0  0999 V2000
  187.8750  179.2300  140.9600 C   0  0  0  0  0  3  0  0  0  0  0  0
  185.3990  176.2930  137.4720 C   0  0  0  0  0  2  0  0  0  0  0  0
  188.0870  175.6420  138.0590 O   0  0  0  0  0  0  0  0  0  0  0  0
  191.3440  177.0900  136.4440 C   0  0  0  0  0  2  0  0  0  0  0  0
  192.3300  176.0400  135.9520 C   0  0  0  0  0  2  0  0  0  0  0  0
  191.9870  176.3700  138.7810 C   0  0  0  0  0  0  0  0  0  0  0  0
  193.1790  175.9670  138.3260 C   0  0  0  0  0  3  0  0  0  0  0  0
  188.7060  177.8390  137.6710 O   0  0  0  0  0  0  0  0  0  0  0  0
  193.5550  176.0200  136.8680 C   0  0  0  0  0  2  0  0  0  0  0  0
  186.6860  178.9100  143.0870 C   0  0  0  0  0  2  0  0  0  0  0  0
  190.8520  176.7030  137.8430 C   0  0  1  0  0  3  0  0  0  0  0  0
  184.2910  178.8900  141.4380 C   0  0  1  0  0  3  0  0  0  0  0  0
  188.7510  178.4150  140.4370 C   0  0  0  0  0  0  0  0  0  0  0  0
  185.5240  179.4650  141.0280 O   0  0  0  0  0  0  0  0  0  0  0  0
  190.6480  176.8940  140.7810 C   0  0  0  0  0  0  0  0  0  0  0  0
  184.2160  176.9710  137.1600 O   0  0  0  0  0  0  0  0  0  0  0  0
  191.7290  176.3300  140.2200 C   0  0  0  0  0  3  0  0  0  0  0  0
  186.5700  176.9440  136.7500 C   0  0  0  0  0  2  0  0  0  0  0  0
  187.8220  176.7590  137.5400 C   0  0  0  0  0  0  0  0  0  0  0  0
  185.3330  179.2650  143.6940 C   0  0  0  0  0  2  0  0  0  0  0  0
  183.4400  176.8580  138.3180 C   0  0  1  0  0  3  0  0  0  0  0  0
  186.6080  178.7360  141.5650 C   0  0  1  0  0  3  0  0  0  0  0  0
  189.9270  177.7810  138.4180 C   0  0  2  0  0  3  0  0  0  0  0  0
  189.6670  177.6360  139.9110 C   0  0  0  0  0  0  0  0  0  0  0  0
  183.6140  178.0970  139.1760 C   0  0  0  0  0  2  0  0  0  0  0  0
  183.9260  177.6720  140.6020 C   0  0  0  0  0  2  0  0  0  0  0  0
  184.2190  178.5590  142.9380 C   0  0  0  0  0  2  0  0  0  0  0  0
  191.6550  176.8320  143.0840 C   0  0  0  0  0  3  0  0  0  0  0  0
  190.2870  176.6840  145.0910 C   0  0  0  0  0  0  0  0  0  0  0  0
  189.2580  176.6980  142.8850 C   0  0  0  0  0  3  0  0  0  0  0  0
  189.1430  176.6440  144.2770 C   0  0  0  0  0  3  0  0  0  0  0  0
  191.5450  176.7810  144.4790 C   0  0  0  0  0  3  0  0  0  0  0  0
  190.5150  176.7800  142.2660 C   0  0  0  0  0  0  0  0  0  0  0  0
  190.1680  176.6440  146.5260 N   0  0  0  0  0  0  0  0  0  0  0  0
  188.9860  177.1880  147.1980 C   0  0  0  0  0  1  0  0  0  0  0  0
  191.2320  176.0970  147.3620 C   0  0  0  0  0  1  0  0  0  0  0  0
  181.7460  175.9790  136.6450 C   0  0  0  0  0  1  0  0  0  0  0  0
  181.9590  176.6440  138.0000 C   0  0  2  0  0  3  0  0  0  0  0  0
  181.1450  177.8060  138.2190 O   0  0  0  0  0  0  0  0  0  0  0  0
  179.7830  177.9440  137.8730 C   0  0  0  0  0  0  0  0  0  0  0  0
  178.9400  177.2130  138.4590 O   0  0  0  0  0  0  0  0  0  0  0  0
  179.3210  178.9310  136.8330 C   0  0  2  0  0  3  0  0  0  0  0  0
  179.2060  178.3170  135.4500 C   0  0  0  0  0  1  0  0  0  0  0  0
  180.0310  180.3000  136.8480 C   0  0  1  0  0  3  0  0  0  0  0  0
  180.0290  180.8900  135.4650 C   0  0  0  0  0  0  0  0  0  0  0  0
  179.0380  181.5670  135.0770 O   0  0  0  0  0  1  0  0  0  0  0  0
  181.1090  180.6980  134.6020 O   0  0  0  0  0  0  0  0  0  0  0  0
  179.5730  181.3260  137.9150 C   0  0  2  0  0  3  0  0  0  0  0  0
  180.7380  182.2480  138.3070 C   0  0  1  0  0  3  0  0  0  0  0  0
  181.9610  181.6090  138.1310 O   0  0  0  0  0  1  0  0  0  0  0  0
  180.7220  183.5600  137.5330 C   0  0  0  0  0  2  0  0  0  0  0  0
  179.9520  184.5110  138.2180 O   0  0  0  0  0  1  0  0  0  0  0  0
  178.9310  180.6970  139.1580 C   0  0  0  0  0  2  0  0  0  0  0  0
  179.9100  180.5420  141.0630 O   0  0  0  0  0  1  0  0  0  0  0  0
  179.3020  181.4230  140.2980 O   0  0  0  0  0  0  0  0  0  0  0  0
  5  4  1  0  0  0  0
  5  9  1  0  0  0  0
  6 17  1  0  0  0  0
  7  6  2  0  0  0  0
  9  7  1  0  0  0  0
 10 20  1  0  0  0  0
 11  4  1  6  0  0  0
 11 23  1  0  0  0  0
 11  6  1  0  0  0  0
 12 26  1  6  0  0  0
 12 27  1  0  0  0  0
 13  1  2  0  0  0  0
 14 12  1  0  0  0  0
 14 22  1  0  0  0  0
 15 33  1  0  0  0  0
 16  2  1  0  0  0  0
 16 21  1  0  0  0  0
 17 15  2  0  0  0  0
 18  2  1  0  0  0  0
 18 19  1  0  0  0  0
 19  8  1  0  0  0  0
 19  3  2  0  0  0  0
 21 38  1  6  0  0  0
 21 25  1  0  0  0  0
 22  1  1  6  0  0  0
 22 10  1  0  0  0  0
 23  8  1  6  0  0  0
 23 24  1  0  0  0  0
 24 13  2  0  0  0  0
 24 15  1  0  0  0  0
 25 26  1  0  0  0  0
 27 20  1  0  0  0  0
 28 32  1  0  0  0  0
 29 34  1  0  0  0  0
 30 31  2  0  0  0  0
 31 29  1  0  0  0  0
 32 29  2  0  0  0  0
 33 30  1  0  0  0  0
 33 28  2  0  0  0  0
 34 35  1  0  0  0  0
 34 36  1  0  0  0  0
 38 37  1  6  0  0  0
 38 39  1  0  0  0  0
 40 39  1  0  0  0  0
 40 41  2  0  0  0  0
 42 43  1  6  0  0  0
 42 44  1  0  0  0  0
 42 40  1  0  0  0  0
 44 45  1  6  0  0  0
 44 48  1  0  0  0  0
 46 45  1  0  0  0  0
 47 45  2  0  0  0  0
 48 49  1  0  0  0  0
 48 53  1  1  0  0  0
 49 50  1  6  0  0  0
 51 52  1  0  0  0  0
 51 49  1  0  0  0  0
 53 55  1  0  0  0  0
 55 54  1  0  0  0  0
M  END
>  <MODEL>
5

>  <REMARK>
 VINA RESULT:      -6.0      3.595     10.384
  Name = 
  13 active torsions:
  status: ('A' for Active; 'I' for Inactive)
    1  A    between atoms: C_1  and  C_53
    2  A    between atoms: C_3  and  O_14
    3  A    between atoms: C_3  and  C_38
    4  A    between atoms: C_6  and  C_20
    5  A    between atoms: C_6  and  C_53
    6  A    between atoms: C_8  and  O_22
    7  A    between atoms: C_8  and  C_43
    8  A    between atoms: N_10  and  C_32
    9  A    between atoms: C_11  and  C_29
   10  A    between atoms: C_20  and  O_22
   11  A    between atoms: C_29  and  C_38
   12  A    between atoms: C_33  and  C_52
   13  A    between atoms: C_38  and  C_53
                            x       y       z     vdW  Elec       q    Type
                         _______ _______ _______ _____ _____    ______ ____

>  <TORSDO>
F 13

$$$$
=
 OpenBabel11052414573D

 55 59  0  0  1  0  0  0  0  0999 V2000
  184.0460  178.2600  137.5210 C   0  0  0  0  0  3  0  0  0  0  0  0
  186.9220  177.8760  141.8230 C   0  0  0  0  0  2  0  0  0  0  0  0
  184.1590  177.3210  142.0420 O   0  0  0  0  0  0  0  0  0  0  0  0
  181.2210  179.8290  142.6750 C   0  0  0  0  0  2  0  0  0  0  0  0
  180.2880  179.4390  143.8140 C   0  0  0  0  0  2  0  0  0  0  0  0
  180.2180  177.8900  141.4000 C   0  0  0  0  0  0  0  0  0  0  0  0
  179.0950  178.0020  142.1190 C   0  0  0  0  0  3  0  0  0  0  0  0
  183.6700  179.3340  141.0060 O   0  0  0  0  0  0  0  0  0  0  0  0
  178.9410  178.9960  143.2400 C   0  0  0  0  0  2  0  0  0  0  0  0
  184.8970  176.5480  135.9780 C   0  0  0  0  0  2  0  0  0  0  0  0
  181.4890  178.6000  141.8000 C   0  0  1  0  0  3  0  0  0  0  0  0
  187.5080  177.2810  137.0260 C   0  0  1  0  0  3  0  0  0  0  0  0
  183.2330  178.0590  138.5230 C   0  0  0  0  0  0  0  0  0  0  0  0
  186.3670  178.1260  137.0950 O   0  0  0  0  0  0  0  0  0  0  0  0
  181.2620  176.8910  139.4040 C   0  0  0  0  0  0  0  0  0  0  0  0
  188.1580  178.4570  141.5190 O   0  0  0  0  0  0  0  0  0  0  0  0
  180.2590  176.9310  140.2960 C   0  0  0  0  0  3  0  0  0  0  0  0
  185.8910  178.9670  142.0760 C   0  0  0  0  0  2  0  0  0  0  0  0
  184.5310  178.4770  141.7070 C   0  0  0  0  0  0  0  0  0  0  0  0
  186.1540  176.2860  135.1570 C   0  0  0  0  0  2  0  0  0  0  0  0
  188.7500  177.5560  140.6280 C   0  0  1  0  0  3  0  0  0  0  0  0
  185.1940  177.3530  137.2480 C   0  0  1  0  0  3  0  0  0  0  0  0
  182.3510  178.9650  140.5870 C   0  0  2  0  0  3  0  0  0  0  0  0
  182.3820  177.8930  139.5080 C   0  0  0  0  0  0  0  0  0  0  0  0
  188.4880  178.0000  139.2000 C   0  0  0  0  0  2  0  0  0  0  0  0
  187.9560  176.8180  138.4050 C   0  0  0  0  0  2  0  0  0  0  0  0
  187.3460  176.0810  136.0780 C   0  0  0  0  0  2  0  0  0  0  0  0
  181.2060  176.2470  136.9740 C   0  0  0  0  0  3  0  0  0  0  0  0
  181.1160  173.9240  136.2540 C   0  0  0  0  0  0  0  0  0  0  0  0
  181.1260  174.4900  138.6210 C   0  0  0  0  0  3  0  0  0  0  0  0
  181.0930  173.5330  137.6020 C   0  0  0  0  0  3  0  0  0  0  0  0
  181.1760  175.2920  135.9510 C   0  0  0  0  0  3  0  0  0  0  0  0
  181.1700  175.8610  138.3240 C   0  0  0  0  0  0  0  0  0  0  0  0
  181.0980  172.9380  135.2040 N   0  0  0  0  0  0  0  0  0  0  0  0
  179.8360  172.3640  134.7340 C   0  0  0  0  0  1  0  0  0  0  0  0
  182.3330  172.4490  134.5990 C   0  0  0  0  0  1  0  0  0  0  0  0
  191.0630  177.5810  139.5830 C   0  0  0  0  0  1  0  0  0  0  0  0
  190.2550  177.4160  140.8650 C   0  0  2  0  0  3  0  0  0  0  0  0
  190.6150  176.2650  141.6430 O   0  0  0  0  0  0  0  0  0  0  0  0
  190.8060  176.2340  143.0420 C   0  0  0  0  0  0  0  0  0  0  0  0
  191.4500  175.2710  143.5360 O   0  0  0  0  0  0  0  0  0  0  0  0
  190.2640  177.3120  143.9440 C   0  0  2  0  0  3  0  0  0  0  0  0
  191.0690  178.5980  143.8720 C   0  0  0  0  0  1  0  0  0  0  0  0
  189.9220  176.8730  145.3820 C   0  0  1  0  0  3  0  0  0  0  0  0
  191.1700  176.8610  146.2210 C   0  0  0  0  0  0  0  0  0  0  0  0
  191.9360  175.8600  146.1870 O   0  0  0  0  0  0  0  0  0  0  0  0
  191.4930  177.9440  147.0400 O   0  0  0  0  0  1  0  0  0  0  0  0
  188.7560  177.6060  146.0900 C   0  0  2  0  0  3  0  0  0  0  0  0
  188.2860  176.8070  147.3160 C   0  0  1  0  0  3  0  0  0  0  0  0
  189.0130  175.6280  147.4510 O   0  0  0  0  0  1  0  0  0  0  0  0
  188.3720  177.6180  148.6020 C   0  0  0  0  0  2  0  0  0  0  0  0
  188.3930  178.9890  148.3040 O   0  0  0  0  0  1  0  0  0  0  0  0
  187.5750  177.9430  145.1720 C   0  0  0  0  0  2  0  0  0  0  0  0
  185.4420  178.1590  145.0360 O   0  0  0  0  0  1  0  0  0  0  0  0
  186.3700  177.6830  145.8400 O   0  0  0  0  0  0  0  0  0  0  0  0
  1 13  2  0  0  0  0
  2 18  1  0  0  0  0
  4  5  1  0  0  0  0
  6 11  1  0  0  0  0
  6  7  2  0  0  0  0
  7  9  1  0  0  0  0
  8 19  1  0  0  0  0
  9  5  1  0  0  0  0
 11  4  1  6  0  0  0
 12 27  1  6  0  0  0
 12 14  1  0  0  0  0
 12 26  1  0  0  0  0
 13 24  2  0  0  0  0
 14 22  1  0  0  0  0
 15 24  1  0  0  0  0
 15 17  2  0  0  0  0
 16  2  1  0  0  0  0
 17  6  1  0  0  0  0
 19  3  2  0  0  0  0
 19 18  1  0  0  0  0
 20 10  1  0  0  0  0
 20 27  1  0  0  0  0
 21 38  1  1  0  0  0
 21 16  1  0  0  0  0
 22 10  1  6  0  0  0
 22  1  1  0  0  0  0
 23 24  1  6  0  0  0
 23  8  1  0  0  0  0
 23 11  1  0  0  0  0
 25 21  1  0  0  0  0
 26 25  1  0  0  0  0
 28 33  1  0  0  0  0
 29 31  2  0  0  0  0
 31 30  1  0  0  0  0
 32 29  1  0  0  0  0
 32 28  2  0  0  0  0
 33 30  2  0  0  0  0
 33 15  1  0  0  0  0
 34 29  1  0  0  0  0
 35 34  1  0  0  0  0
 36 34  1  0  0  0  0
 38 37  1  6  0  0  0
 38 39  1  0  0  0  0
 39 40  1  0  0  0  0
 40 41  2  0  0  0  0
 40 42  1  0  0  0  0
 42 43  1  1  0  0  0
 42 44  1  0  0  0  0
 44 48  1  0  0  0  0
 44 45  1  1  0  0  0
 45 47  1  0  0  0  0
 46 45  2  0  0  0  0
 48 53  1  6  0  0  0
 48 49  1  0  0  0  0
 49 50  1  1  0  0  0
 49 51  1  0  0  0  0
 52 51  1  0  0  0  0
 53 55  1  0  0  0  0
 54 55  1  0  0  0  0
M  END
>  <MODEL>
6

>  <REMARK>
 VINA RESULT:      -5.9      2.257      5.299
  Name = 
  13 active torsions:
  status: ('A' for Active; 'I' for Inactive)
    1  A    between atoms: C_1  and  C_53
    2  A    between atoms: C_3  and  O_14
    3  A    between atoms: C_3  and  C_38
    4  A    between atoms: C_6  and  C_20
    5  A    between atoms: C_6  and  C_53
    6  A    between atoms: C_8  and  O_22
    7  A    between atoms: C_8  and  C_43
    8  A    between atoms: N_10  and  C_32
    9  A    between atoms: C_11  and  C_29
   10  A    between atoms: C_20  and  O_22
   11  A    between atoms: C_29  and  C_38
   12  A    between atoms: C_33  and  C_52
   13  A    between atoms: C_38  and  C_53
                            x       y       z     vdW  Elec       q    Type
                         _______ _______ _______ _____ _____    ______ ____

>  <TORSDO>
F 13

$$$$
=
 OpenBabel11052414573D

 55 59  0  0  1  0  0  0  0  0999 V2000
  186.8800  179.4110  140.9700 C   0  0  0  0  0  3  0  0  0  0  0  0
  184.4050  176.4150  137.5310 C   0  0  0  0  0  2  0  0  0  0  0  0
  187.1170  175.8240  138.0700 O   0  0  0  0  0  0  0  0  0  0  0  0
  190.3120  177.3400  136.3940 C   0  0  0  0  0  2  0  0  0  0  0  0
  191.3120  176.3110  135.8850 C   0  0  0  0  0  2  0  0  0  0  0  0
  191.0130  176.6380  138.7190 C   0  0  0  0  0  0  0  0  0  0  0  0
  192.2050  176.2600  138.2430 C   0  0  0  0  0  3  0  0  0  0  0  0
  187.6810  178.0340  137.6680 O   0  0  0  0  0  0  0  0  0  0  0  0
  192.5530  176.3190  136.7790 C   0  0  0  0  0  2  0  0  0  0  0  0
  185.7370  179.0680  143.1190 C   0  0  0  0  0  2  0  0  0  0  0  0
  189.8540  176.9450  137.8010 C   0  0  1  0  0  3  0  0  0  0  0  0
  183.3140  178.9940  141.5140 C   0  0  1  0  0  3  0  0  0  0  0  0
  187.7640  178.6140  140.4320 C   0  0  0  0  0  0  0  0  0  0  0  0
  184.5260  179.5960  141.0800 O   0  0  0  0  0  0  0  0  0  0  0  0
  189.6990  177.1360  140.7430 C   0  0  0  0  0  0  0  0  0  0  0  0
  183.2020  177.0680  137.2390 O   0  0  0  0  0  0  0  0  0  0  0  0
  190.7820  176.5940  140.1630 C   0  0  0  0  0  3  0  0  0  0  0  0
  185.5490  177.0910  136.7870 C   0  0  0  0  0  2  0  0  0  0  0  0
  186.8180  176.9340  137.5550 C   0  0  0  0  0  0  0  0  0  0  0  0
  184.3890  179.3950  143.7500 C   0  0  0  0  0  2  0  0  0  0  0  0
  182.4500  176.9390  138.4120 C   0  0  1  0  0  3  0  0  0  0  0  0
  185.6350  178.8900  141.5980 C   0  0  1  0  0  3  0  0  0  0  0  0
  188.9160  178.0030  138.3930 C   0  0  2  0  0  3  0  0  0  0  0  0
  188.6870  177.8550  139.8900 C   0  0  0  0  0  0  0  0  0  0  0  0
  182.6130  178.1840  139.2650 C   0  0  0  0  0  2  0  0  0  0  0  0
  182.9600  177.7670  140.6860 C   0  0  0  0  0  2  0  0  0  0  0  0
  183.2770  178.6640  143.0150 C   0  0  0  0  0  2  0  0  0  0  0  0
  190.6390  177.4830  143.0490 C   0  0  0  0  0  3  0  0  0  0  0  0
  189.3810  176.9240  145.0560 C   0  0  0  0  0  0  0  0  0  0  0  0
  188.4360  176.5270  142.8480 C   0  0  0  0  0  3  0  0  0  0  0  0
  188.3300  176.4730  144.2410 C   0  0  0  0  0  3  0  0  0  0  0  0
  190.5360  177.4320  144.4450 C   0  0  0  0  0  3  0  0  0  0  0  0
  189.5960  177.0200  142.2300 C   0  0  0  0  0  0  0  0  0  0  0  0
  189.2660  176.8830  146.4920 N   0  0  0  0  0  0  0  0  0  0  0  0
  190.3890  176.4470  147.3230 C   0  0  0  0  0  1  0  0  0  0  0  0
  188.0200  177.2360  147.1640 C   0  0  0  0  0  1  0  0  0  0  0  0
  180.0760  177.7930  138.6850 C   0  0  0  0  0  1  0  0  0  0  0  0
  180.9680  176.6930  138.1210 C   0  0  2  0  0  3  0  0  0  0  0  0
  180.5290  175.3630  138.4320 O   0  0  0  0  0  0  0  0  0  0  0  0
  181.1370  174.1650  137.9970 C   0  0  0  0  0  0  0  0  0  0  0  0
  182.3470  173.9690  138.2850 O   0  0  0  0  0  0  0  0  0  0  0  0
  180.3790  173.1290  137.2070 C   0  0  2  0  0  3  0  0  0  0  0  0
  180.2770  171.7980  137.9300 C   0  0  0  0  0  1  0  0  0  0  0  0
  180.7730  173.0010  135.7210 C   0  0  1  0  0  3  0  0  0  0  0  0
  180.9740  174.3680  135.1280 C   0  0  0  0  0  0  0  0  0  0  0  0
  179.9820  175.1300  134.9650 O   0  0  0  0  0  1  0  0  0  0  0  0
  182.2440  174.8070  134.7530 O   0  0  0  0  0  0  0  0  0  0  0  0
  181.9400  172.0430  135.3760 C   0  0  2  0  0  3  0  0  0  0  0  0
  181.4080  170.7770  134.6850 C   0  0  1  0  0  3  0  0  0  0  0  0
  181.8670  169.6300  135.3250 O   0  0  0  0  0  1  0  0  0  0  0  0
  179.8880  170.7550  134.6100 C   0  0  0  0  0  2  0  0  0  0  0  0
  179.3900  169.6280  135.2810 O   0  0  0  0  0  1  0  0  0  0  0  0
  182.8310  171.6810  136.5700 C   0  0  0  0  0  2  0  0  0  0  0  0
  184.4830  172.8890  135.9180 O   0  0  0  0  0  1  0  0  0  0  0  0
  184.1710  171.6340  136.1610 O   0  0  0  0  0  0  0  0  0  0  0  0
  5  4  1  0  0  0  0
  5  9  1  0  0  0  0
  6 17  1  0  0  0  0
  7  6  2  0  0  0  0
  9  7  1  0  0  0  0
 10 20  1  0  0  0  0
 11  4  1  6  0  0  0
 11 23  1  0  0  0  0
 11  6  1  0  0  0  0
 12 26  1  6  0  0  0
 12 27  1  0  0  0  0
 13  1  2  0  0  0  0
 14 12  1  0  0  0  0
 14 22  1  0  0  0  0
 15 33  1  0  0  0  0
 16  2  1  0  0  0  0
 16 21  1  0  0  0  0
 17 15  2  0  0  0  0
 18  2  1  0  0  0  0
 18 19  1  0  0  0  0
 19  8  1  0  0  0  0
 19  3  2  0  0  0  0
 21 38  1  6  0  0  0
 21 25  1  0  0  0  0
 22  1  1  6  0  0  0
 22 10  1  0  0  0  0
 23  8  1  6  0  0  0
 23 24  1  0  0  0  0
 24 13  2  0  0  0  0
 24 15  1  0  0  0  0
 25 26  1  0  0  0  0
 27 20  1  0  0  0  0
 28 32  1  0  0  0  0
 29 34  1  0  0  0  0
 30 31  2  0  0  0  0
 31 29  1  0  0  0  0
 32 29  2  0  0  0  0
 33 30  1  0  0  0  0
 33 28  2  0  0  0  0
 34 36  1  0  0  0  0
 34 35  1  0  0  0  0
 38 39  1  0  0  0  0
 38 37  1  1  0  0  0
 40 41  2  0  0  0  0
 40 39  1  0  0  0  0
 42 43  1  1  0  0  0
 42 40  1  0  0  0  0
 44 45  1  1  0  0  0
 44 42  1  0  0  0  0
 46 45  1  0  0  0  0
 47 45  2  0  0  0  0
 48 44  1  0  0  0  0
 48 53  1  1  0  0  0
 49 50  1  1  0  0  0
 49 48  1  0  0  0  0
 51 49  1  0  0  0  0
 51 52  1  0  0  0  0
 54 55  1  0  0  0  0
 55 53  1  0  0  0  0
M  END
>  <MODEL>
7

>  <REMARK>
 VINA RESULT:      -5.8      3.793     10.133
  Name = 
  13 active torsions:
  status: ('A' for Active; 'I' for Inactive)
    1  A    between atoms: C_1  and  C_53
    2  A    between atoms: C_3  and  O_14
    3  A    between atoms: C_3  and  C_38
    4  A    between atoms: C_6  and  C_20
    5  A    between atoms: C_6  and  C_53
    6  A    between atoms: C_8  and  O_22
    7  A    between atoms: C_8  and  C_43
    8  A    between atoms: N_10  and  C_32
    9  A    between atoms: C_11  and  C_29
   10  A    between atoms: C_20  and  O_22
   11  A    between atoms: C_29  and  C_38
   12  A    between atoms: C_33  and  C_52
   13  A    between atoms: C_38  and  C_53
                            x       y       z     vdW  Elec       q    Type
                         _______ _______ _______ _____ _____    ______ ____

>  <TORSDO>
F 13

$$$$
=
 OpenBabel11052414573D

 55 59  0  0  1  0  0  0  0  0999 V2000
  186.7820  179.5370  140.7890 C   0  0  0  0  0  3  0  0  0  0  0  0
  190.2020  175.6350  140.7220 C   0  0  0  0  0  2  0  0  0  0  0  0
  188.6440  175.9710  143.0580 O   0  0  0  0  0  0  0  0  0  0  0  0
  189.3640  178.2630  146.1470 C   0  0  0  0  0  2  0  0  0  0  0  0
  189.2780  177.5580  147.4950 C   0  0  0  0  0  2  0  0  0  0  0  0
  186.8510  178.0160  146.0350 C   0  0  0  0  0  0  0  0  0  0  0  0
  186.7960  177.9910  147.3720 C   0  0  0  0  0  3  0  0  0  0  0  0
  189.2530  178.2040  143.1460 O   0  0  0  0  0  0  0  0  0  0  0  0
  188.0270  178.0320  148.2380 C   0  0  0  0  0  2  0  0  0  0  0  0
  185.1450  179.0390  139.0250 C   0  0  0  0  0  2  0  0  0  0  0  0
  188.1570  177.8660  145.2930 C   0  0  1  0  0  3  0  0  0  0  0  0
  187.4470  178.0730  137.5330 C   0  0  1  0  0  3  0  0  0  0  0  0
  186.8080  179.0150  141.9860 C   0  0  0  0  0  0  0  0  0  0  0  0
  187.5390  178.9840  138.6200 O   0  0  0  0  0  0  0  0  0  0  0  0
  185.5550  178.2490  143.9530 C   0  0  0  0  0  0  0  0  0  0  0  0
  191.0180  175.8510  139.6070 O   0  0  0  0  0  0  0  0  0  0  0  0
  185.6000  178.0260  145.2760 C   0  0  0  0  0  3  0  0  0  0  0  0
  190.6180  176.5690  141.8510 C   0  0  0  0  0  2  0  0  0  0  0  0
  189.4410  176.8830  142.7110 C   0  0  0  0  0  0  0  0  0  0  0  0
  185.1030  178.9800  137.5020 C   0  0  0  0  0  2  0  0  0  0  0  0
  190.1810  175.5940  138.5150 C   0  0  1  0  0  3  0  0  0  0  0  0
  186.5380  178.7090  139.5770 C   0  0  1  0  0  3  0  0  0  0  0  0
  188.1520  178.6230  143.9600 C   0  0  2  0  0  3  0  0  0  0  0  0
  186.8320  178.5390  143.2090 C   0  0  0  0  0  0  0  0  0  0  0  0
  189.5900  176.8950  138.0040 C   0  0  0  0  0  2  0  0  0  0  0  0
  188.0850  176.7310  137.8610 C   0  0  0  0  0  2  0  0  0  0  0  0
  186.0180  177.8770  136.9960 C   0  0  0  0  0  2  0  0  0  0  0  0
  183.0780  178.6770  144.0180 C   0  0  0  0  0  3  0  0  0  0  0  0
  181.6540  178.3310  142.0750 C   0  0  0  0  0  0  0  0  0  0  0  0
  184.0390  177.8590  141.9660 C   0  0  0  0  0  3  0  0  0  0  0  0
  182.7810  177.9000  141.3570 C   0  0  0  0  0  3  0  0  0  0  0  0
  181.8160  178.7210  143.4120 C   0  0  0  0  0  3  0  0  0  0  0  0
  184.2060  178.2340  143.3080 C   0  0  0  0  0  0  0  0  0  0  0  0
  180.3600  178.3870  141.4440 N   0  0  0  0  0  0  0  0  0  0  0  0
  179.6370  177.1610  141.1010 C   0  0  0  0  0  1  0  0  0  0  0  0
  179.7420  179.6610  141.0910 C   0  0  0  0  0  1  0  0  0  0  0  0
  190.0280  173.8620  136.6660 C   0  0  0  0  0  1  0  0  0  0  0  0
  190.9160  174.8720  137.3840 C   0  0  2  0  0  3  0  0  0  0  0  0
  192.2020  174.3600  137.7610 O   0  0  0  0  0  0  0  0  0  0  0  0
  193.4460  174.7620  137.2270 C   0  0  0  0  0  0  0  0  0  0  0  0
  193.8010  175.9610  137.3750 O   0  0  0  0  0  0  0  0  0  0  0  0
  194.3450  173.8010  136.4930 C   0  0  2  0  0  3  0  0  0  0  0  0
  193.6040  172.5830  135.9720 C   0  0  0  0  0  1  0  0  0  0  0  0
  195.6780  173.4650  137.1930 C   0  0  1  0  0  3  0  0  0  0  0  0
  195.8610  171.9740  137.2520 C   0  0  0  0  0  0  0  0  0  0  0  0
  196.4270  171.3760  136.2960 O   0  0  0  0  0  0  0  0  0  0  0  0
  195.4110  171.2390  138.3490 O   0  0  0  0  0  1  0  0  0  0  0  0
  196.9500  174.1830  136.6790 C   0  0  2  0  0  3  0  0  0  0  0  0
  197.6880  174.8660  137.8420 C   0  0  1  0  0  3  0  0  0  0  0  0
  196.9860  174.7130  139.0340 O   0  0  0  0  0  1  0  0  0  0  0  0
  199.1100  174.3500  138.0070 C   0  0  0  0  0  2  0  0  0  0  0  0
  199.1790  173.0030  137.6220 O   0  0  0  0  0  1  0  0  0  0  0  0
  196.6960  175.1750  135.5370 C   0  0  0  0  0  2  0  0  0  0  0  0
  196.3530  177.2950  135.5700 O   0  0  0  0  0  1  0  0  0  0  0  0
  197.2880  176.4080  135.8420 O   0  0  0  0  0  0  0  0  0  0  0  0
  1 13  2  0  0  0  0
  2 18  1  0  0  0  0
  4  5  1  0  0  0  0
  5  9  1  0  0  0  0
  6  7  2  0  0  0  0
  7  9  1  0  0  0  0
 11  6  1  0  0  0  0
 11  4  1  1  0  0  0
 12 27  1  1  0  0  0
 12 26  1  0  0  0  0
 12 14  1  0  0  0  0
 13 24  2  0  0  0  0
 14 22  1  0  0  0  0
 15 17  2  0  0  0  0
 16  2  1  0  0  0  0
 17  6  1  0  0  0  0
 18 19  1  0  0  0  0
 19  3  2  0  0  0  0
 19  8  1  0  0  0  0
 20 10  1  0  0  0  0
 21 38  1  6  0  0  0
 21 16  1  0  0  0  0
 22 10  1  6  0  0  0
 22  1  1  0  0  0  0
 23  8  1  6  0  0  0
 23 11  1  0  0  0  0
 24 15  1  0  0  0  0
 24 23  1  0  0  0  0
 25 21  1  0  0  0  0
 26 25  1  0  0  0  0
 27 20  1  0  0  0  0
 29 32  2  0  0  0  0
 30 33  1  0  0  0  0
 31 30  2  0  0  0  0
 31 29  1  0  0  0  0
 32 28  1  0  0  0  0
 33 15  1  0  0  0  0
 33 28  2  0  0  0  0
 34 29  1  0  0  0  0
 35 34  1  0  0  0  0
 36 34  1  0  0  0  0
 38 37  1  1  0  0  0
 38 39  1  0  0  0  0
 40 41  2  0  0  0  0
 40 39  1  0  0  0  0
 42 43  1  1  0  0  0
 42 44  1  0  0  0  0
 42 40  1  0  0  0  0
 44 45  1  6  0  0  0
 45 47  1  0  0  0  0
 46 45  2  0  0  0  0
 48 53  1  6  0  0  0
 48 44  1  0  0  0  0
 48 49  1  0  0  0  0
 49 51  1  0  0  0  0
 49 50  1  1  0  0  0
 52 51  1  0  0  0  0
 53 55  1  0  0  0  0
 54 55  1  0  0  0  0
M  END
>  <MODEL>
8

>  <REMARK>
 VINA RESULT:      -5.7      4.631      9.820
  Name = 
  13 active torsions:
  status: ('A' for Active; 'I' for Inactive)
    1  A    between atoms: C_1  and  C_53
    2  A    between atoms: C_3  and  O_14
    3  A    between atoms: C_3  and  C_38
    4  A    between atoms: C_6  and  C_20
    5  A    between atoms: C_6  and  C_53
    6  A    between atoms: C_8  and  O_22
    7  A    between atoms: C_8  and  C_43
    8  A    between atoms: N_10  and  C_32
    9  A    between atoms: C_11  and  C_29
   10  A    between atoms: C_20  and  O_22
   11  A    between atoms: C_29  and  C_38
   12  A    between atoms: C_33  and  C_52
   13  A    between atoms: C_38  and  C_53
                            x       y       z     vdW  Elec       q    Type
                         _______ _______ _______ _____ _____    ______ ____

>  <TORSDO>
F 13

$$$$
=
 OpenBabel11052414573D

 55 59  0  0  1  0  0  0  0  0999 V2000
  186.8430  179.4580  140.8450 C   0  0  0  0  0  3  0  0  0  0  0  0
  190.0790  175.4690  140.1120 C   0  0  0  0  0  2  0  0  0  0  0  0
  188.9920  175.8140  142.6990 O   0  0  0  0  0  0  0  0  0  0  0  0
  190.3370  178.0440  145.6200 C   0  0  0  0  0  2  0  0  0  0  0  0
  190.4820  177.3240  146.9540 C   0  0  0  0  0  2  0  0  0  0  0  0
  187.8400  177.8650  145.9750 C   0  0  0  0  0  0  0  0  0  0  0  0
  188.0340  177.8230  147.2980 C   0  0  0  0  0  3  0  0  0  0  0  0
  189.6700  178.0280  142.6910 O   0  0  0  0  0  0  0  0  0  0  0  0
  189.4050  177.8190  147.9210 C   0  0  0  0  0  2  0  0  0  0  0  0
  184.8950  179.0270  139.4110 C   0  0  0  0  0  2  0  0  0  0  0  0
  188.9810  177.6900  145.0010 C   0  0  1  0  0  3  0  0  0  0  0  0
  186.8510  178.0210  137.5110 C   0  0  1  0  0  3  0  0  0  0  0  0
  187.0770  178.9190  142.0120 C   0  0  0  0  0  0  0  0  0  0  0  0
  187.1700  178.9150  138.5690 O   0  0  0  0  0  0  0  0  0  0  0  0
  186.1880  178.1600  144.1710 C   0  0  0  0  0  0  0  0  0  0  0  0
  190.6810  175.6770  138.8660 O   0  0  0  0  0  0  0  0  0  0  0  0
  186.4720  177.9180  145.4610 C   0  0  0  0  0  3  0  0  0  0  0  0
  190.7240  176.3750  141.1520 C   0  0  0  0  0  2  0  0  0  0  0  0
  189.7360  176.7090  142.2180 C   0  0  0  0  0  0  0  0  0  0  0  0
  184.5690  178.9900  137.9230 C   0  0  0  0  0  2  0  0  0  0  0  0
  189.6490  175.4570  137.9470 C   0  0  1  0  0  3  0  0  0  0  0  0
  186.3560  178.6530  139.6930 C   0  0  1  0  0  3  0  0  0  0  0  0
  188.7510  178.4650  143.6990 C   0  0  2  0  0  3  0  0  0  0  0  0
  187.3130  178.4270  143.2050 C   0  0  0  0  0  0  0  0  0  0  0  0
  189.0100  176.7800  137.5660 C   0  0  0  0  0  2  0  0  0  0  0  0
  187.5010  176.6580  137.7030 C   0  0  0  0  0  2  0  0  0  0  0  0
  185.3440  177.8700  137.2460 C   0  0  0  0  0  2  0  0  0  0  0  0
  183.7740  178.6070  144.7150 C   0  0  0  0  0  3  0  0  0  0  0  0
  182.0090  178.3710  143.0560 C   0  0  0  0  0  0  0  0  0  0  0  0
  184.3240  177.8830  142.4840 C   0  0  0  0  0  3  0  0  0  0  0  0
  182.9760  177.9660  142.1210 C   0  0  0  0  0  3  0  0  0  0  0  0
  182.4230  178.6930  144.3560 C   0  0  0  0  0  3  0  0  0  0  0  0
  184.7430  178.1900  143.7870 C   0  0  0  0  0  0  0  0  0  0  0  0
  180.6220  178.4700  142.6790 N   0  0  0  0  0  0  0  0  0  0  0  0
  179.6100  178.9010  143.6460 C   0  0  0  0  0  1  0  0  0  0  0  0
  180.1710  178.1120  141.3380 C   0  0  0  0  0  1  0  0  0  0  0  0
  189.0940  173.7810  136.1250 C   0  0  0  0  0  1  0  0  0  0  0  0
  190.1400  174.7320  136.6930 C   0  0  2  0  0  3  0  0  0  0  0  0
  191.4460  174.1540  136.8320 O   0  0  0  0  0  0  0  0  0  0  0  0
  192.6220  174.5920  136.1840 C   0  0  0  0  0  0  0  0  0  0  0  0
  192.6780  174.5140  134.9280 O   0  0  0  0  0  0  0  0  0  0  0  0
  193.7960  175.1430  136.9510 C   0  0  2  0  0  3  0  0  0  0  0  0
  193.6220  176.6060  137.3200 C   0  0  0  0  0  1  0  0  0  0  0  0
  195.1880  174.8090  136.3760 C   0  0  1  0  0  3  0  0  0  0  0  0
  195.7640  176.0210  135.6980 C   0  0  0  0  0  0  0  0  0  0  0  0
  196.9400  176.3870  135.9690 O   0  0  0  0  0  1  0  0  0  0  0  0
  195.0150  176.7480  134.7730 O   0  0  0  0  0  0  0  0  0  0  0  0
  196.2080  174.1410  137.3320 C   0  0  2  0  0  3  0  0  0  0  0  0
  196.7340  172.8320  136.7240 C   0  0  1  0  0  3  0  0  0  0  0  0
  197.9980  172.5250  137.2190 O   0  0  0  0  0  1  0  0  0  0  0  0
  195.7880  171.6630  136.9590 C   0  0  0  0  0  2  0  0  0  0  0  0
  196.4570  170.6320  137.6350 O   0  0  0  0  0  1  0  0  0  0  0  0
  195.6810  173.9100  138.7530 C   0  0  0  0  0  2  0  0  0  0  0  0
  197.3380  175.2400  139.0680 O   0  0  0  0  0  1  0  0  0  0  0  0
  196.1900  174.8950  139.6110 O   0  0  0  0  0  0  0  0  0  0  0  0
  1 13  2  0  0  0  0
  2 18  1  0  0  0  0
  4  5  1  0  0  0  0
  5  9  1  0  0  0  0
  6  7  2  0  0  0  0
  7  9  1  0  0  0  0
 11  4  1  1  0  0  0
 11  6  1  0  0  0  0
 12 27  1  1  0  0  0
 12 26  1  0  0  0  0
 12 14  1  0  0  0  0
 13 24  2  0  0  0  0
 14 22  1  0  0  0  0
 15 17  2  0  0  0  0
 16  2  1  0  0  0  0
 17  6  1  0  0  0  0
 18 19  1  0  0  0  0
 19  8  1  0  0  0  0
 19  3  2  0  0  0  0
 20 10  1  0  0  0  0
 21 38  1  6  0  0  0
 21 16  1  0  0  0  0
 22 10  1  6  0  0  0
 22  1  1  0  0  0  0
 23  8  1  6  0  0  0
 23 11  1  0  0  0  0
 24 23  1  0  0  0  0
 24 15  1  0  0  0  0
 25 26  1  0  0  0  0
 25 21  1  0  0  0  0
 27 20  1  0  0  0  0
 29 32  2  0  0  0  0
 30 33  1  0  0  0  0
 31 30  2  0  0  0  0
 31 29  1  0  0  0  0
 32 28  1  0  0  0  0
 33 15  1  0  0  0  0
 33 28  2  0  0  0  0
 34 29  1  0  0  0  0
 34 35  1  0  0  0  0
 36 34  1  0  0  0  0
 38 37  1  1  0  0  0
 38 39  1  0  0  0  0
 40 39  1  0  0  0  0
 40 42  1  0  0  0  0
 41 40  2  0  0  0  0
 42 43  1  6  0  0  0
 44 45  1  1  0  0  0
 44 42  1  0  0  0  0
 44 48  1  0  0  0  0
 45 46  1  0  0  0  0
 47 45  2  0  0  0  0
 48 53  1  1  0  0  0
 49 51  1  0  0  0  0
 49 50  1  1  0  0  0
 49 48  1  0  0  0  0
 51 52  1  0  0  0  0
 53 55  1  0  0  0  0
 54 55  1  0  0  0  0
M  END
>  <MODEL>
9

>  <REMARK>
 VINA RESULT:      -5.5      4.451      9.936
  Name = 
  13 active torsions:
  status: ('A' for Active; 'I' for Inactive)
    1  A    between atoms: C_1  and  C_53
    2  A    between atoms: C_3  and  O_14
    3  A    between atoms: C_3  and  C_38
    4  A    between atoms: C_6  and  C_20
    5  A    between atoms: C_6  and  C_53
    6  A    between atoms: C_8  and  O_22
    7  A    between atoms: C_8  and  C_43
    8  A    between atoms: N_10  and  C_32
    9  A    between atoms: C_11  and  C_29
   10  A    between atoms: C_20  and  O_22
   11  A    between atoms: C_29  and  C_38
   12  A    between atoms: C_33  and  C_52
   13  A    between atoms: C_38  and  C_53
                            x       y       z     vdW  Elec       q    Type
                         _______ _______ _______ _____ _____    ______ ____

>  <TORSDO>
F 13

$$$$
