=
 OpenBabel11052413393D

 27 31  0  0  1  0  0  0  0  0999 V2000
  187.3080  177.6680  143.9460 N   0  0  2  0  0  0  0  0  0  0  0  0
  187.2100  178.6950  141.9560 C   0  0  1  0  0  3  0  0  0  0  0  0
  188.6060  177.4480  143.3180 C   0  0  1  0  0  3  0  0  0  0  0  0
  188.9520  177.2230  138.0350 C   0  0  0  0  0  3  0  0  0  0  0  0
  191.1940  176.1600  138.2790 C   0  0  0  0  0  1  0  0  0  0  0  0
  186.7080  178.7520  140.6180 N   0  0  0  0  0  2  0  0  0  0  0  0
  189.9610  177.1400  140.2630 C   0  0  0  0  0  0  0  0  0  0  0  0
  191.0810  176.7710  141.1770 C   0  0  0  0  0  1  0  0  0  0  0  0
  188.8230  177.7960  140.7470 C   0  0  0  0  0  0  0  0  0  0  0  0
  186.4900  178.3910  143.0250 C   0  0  1  0  0  3  0  0  0  0  0  0
  190.0180  176.8530  138.8800 C   0  0  0  0  0  0  0  0  0  0  0  0
  187.8210  177.8770  138.5460 C   0  0  0  0  0  3  0  0  0  0  0  0
  187.4090  178.0690  145.3370 C   0  0  0  0  0  2  0  0  0  0  0  0
  188.5380  178.2150  142.0780 N   0  0  0  0  0  0  0  0  0  0  0  0
  187.7890  178.1580  139.9080 C   0  0  0  0  0  0  0  0  0  0  0  0
  188.8930  178.0570  145.6640 C   0  0  2  0  0  3  0  0  0  0  0  0
  189.5940  178.0680  144.2900 C   0  0  1  0  0  3  0  0  0  0  0  0
  182.2420  178.7950  143.4410 C   0  0  0  0  0  3  0  0  0  0  0  0
  185.0220  178.5210  143.1590 C   0  0  0  0  0  0  0  0  0  0  0  0
  184.1780  178.3970  142.0450 C   0  0  0  0  0  3  0  0  0  0  0  0
  182.7940  178.5320  142.1840 C   0  0  0  0  0  3  0  0  0  0  0  0
  183.0740  178.9240  144.5550 C   0  0  0  0  0  3  0  0  0  0  0  0
  184.4580  178.7880  144.4150 C   0  0  0  0  0  3  0  0  0  0  0  0
  191.9670  178.3370  144.2330 O   0  0  0  0  0  1  0  0  0  0  0  0
  190.9530  177.3800  144.2490 C   0  0  0  0  0  2  0  0  0  0  0  0
  188.4470  176.8340  147.6740 O   0  0  0  0  0  1  0  0  0  0  0  0
  189.1760  176.8020  146.4850 C   0  0  0  0  0  2  0  0  0  0  0  0
  1 13  1  1  0  0  0
  2  6  1  6  0  0  0
  2 14  1  0  0  0  0
  2 10  1  0  0  0  0
  3 14  1  6  0  0  0
  3  1  1  0  0  0  0
  3 17  1  0  0  0  0
  4 12  2  0  0  0  0
  4 11  1  0  0  0  0
  5 11  1  0  0  0  0
  7  9  1  0  0  0  0
  7  8  1  0  0  0  0
  9 14  1  0  0  0  0
 10 19  1  6  0  0  0
 10  1  1  0  0  0  0
 11  7  2  0  0  0  0
 12 15  1  0  0  0  0
 13 16  1  0  0  0  0
 15  6  1  0  0  0  0
 15  9  2  0  0  0  0
 16 27  1  6  0  0  0
 17 25  1  1  0  0  0
 17 16  1  0  0  0  0
 18 22  1  0  0  0  0
 19 23  1  0  0  0  0
 20 21  1  0  0  0  0
 20 19  2  0  0  0  0
 21 18  2  0  0  0  0
 23 22  2  0  0  0  0
 24 25  1  0  0  0  0
 27 26  1  0  0  0  0
M  END
>  <MODEL>
1

>  <REMARK>
 VINA RESULT:      -9.3      0.000      0.000
  Name = 
  3 active torsions:
  status: ('A' for Active; 'I' for Inactive)
    1  A    between atoms: C_9  and  C_15
    2  A    between atoms: C_20  and  C_26
    3  A    between atoms: C_22  and  C_24
                            x       y       z     vdW  Elec       q    Type
                         _______ _______ _______ _____ _____    ______ ____

>  <TORSDO>
F 3

$$$$
=
 OpenBabel11052413393D

 27 31  0  0  1  0  0  0  0  0999 V2000
  187.5930  178.0630  144.0360 N   0  0  2  0  0  0  0  0  0  0  0  0
  188.8800  176.6830  142.8280 C   0  0  1  0  0  3  0  0  0  0  0  0
  187.1490  178.2090  142.6550 C   0  0  1  0  0  3  0  0  0  0  0  0
  190.6010  177.4650  138.7030 C   0  0  0  0  0  3  0  0  0  0  0  0
  189.0200  178.6330  137.1710 C   0  0  0  0  0  1  0  0  0  0  0  0
  190.1520  176.3610  142.2570 N   0  0  0  0  0  2  0  0  0  0  0  0
  188.3600  177.9950  139.5320 C   0  0  0  0  0  0  0  0  0  0  0  0
  186.9960  178.5660  139.3350 C   0  0  0  0  0  1  0  0  0  0  0  0
  188.7230  177.3990  140.7460 C   0  0  0  0  0  0  0  0  0  0  0  0
  188.6930  177.1530  144.0500 C   0  0  1  0  0  3  0  0  0  0  0  0
  189.3230  178.0220  138.4970 C   0  0  0  0  0  0  0  0  0  0  0  0
  190.9400  176.8760  139.9310 C   0  0  0  0  0  3  0  0  0  0  0  0
  186.4950  177.9310  144.9750 C   0  0  0  0  0  2  0  0  0  0  0  0
  187.9350  177.2240  141.9190 N   0  0  0  0  0  0  0  0  0  0  0  0
  189.9750  176.8510  140.9320 C   0  0  0  0  0  0  0  0  0  0  0  0
  185.2260  178.0560  144.1500 C   0  0  2  0  0  3  0  0  0  0  0  0
  185.6820  177.8160  142.6960 C   0  0  1  0  0  3  0  0  0  0  0  0
  191.3290  176.6880  147.4000 C   0  0  0  0  0  3  0  0  0  0  0  0
  189.6130  176.9990  145.2000 C   0  0  0  0  0  0  0  0  0  0  0  0
  190.9560  176.6400  145.0090 C   0  0  0  0  0  3  0  0  0  0  0  0
  191.8120  176.4870  146.1040 C   0  0  0  0  0  3  0  0  0  0  0  0
  189.9920  177.0410  147.6000 C   0  0  0  0  0  3  0  0  0  0  0  0
  189.1380  177.1950  146.5040 C   0  0  0  0  0  3  0  0  0  0  0  0
  183.8070  177.7190  141.2190 O   0  0  0  0  0  1  0  0  0  0  0  0
  184.8620  178.5330  141.6310 C   0  0  0  0  0  2  0  0  0  0  0  0
  183.5670  179.3780  145.2600 O   0  0  0  0  0  1  0  0  0  0  0  0
  184.6530  179.4510  144.3880 C   0  0  0  0  0  2  0  0  0  0  0  0
  1 10  1  0  0  0  0
  1 13  1  1  0  0  0
  2  6  1  6  0  0  0
  2 10  1  0  0  0  0
  3 14  1  6  0  0  0
  3 17  1  0  0  0  0
  3  1  1  0  0  0  0
  4 12  1  0  0  0  0
  5 11  1  0  0  0  0
  7  9  2  0  0  0  0
  8  7  1  0  0  0  0
  9 15  1  0  0  0  0
  9 14  1  0  0  0  0
 10 19  1  6  0  0  0
 11  4  2  0  0  0  0
 11  7  1  0  0  0  0
 12 15  2  0  0  0  0
 14  2  1  0  0  0  0
 15  6  1  0  0  0  0
 16 27  1  6  0  0  0
 16 13  1  0  0  0  0
 17 25  1  6  0  0  0
 17 16  1  0  0  0  0
 18 22  1  0  0  0  0
 19 23  1  0  0  0  0
 20 19  2  0  0  0  0
 20 21  1  0  0  0  0
 21 18  2  0  0  0  0
 23 22  2  0  0  0  0
 24 25  1  0  0  0  0
 27 26  1  0  0  0  0
M  END
>  <MODEL>
2

>  <REMARK>
 VINA RESULT:      -9.2      2.341      5.118
  Name = 
  3 active torsions:
  status: ('A' for Active; 'I' for Inactive)
    1  A    between atoms: C_9  and  C_15
    2  A    between atoms: C_20  and  C_26
    3  A    between atoms: C_22  and  C_24
                            x       y       z     vdW  Elec       q    Type
                         _______ _______ _______ _____ _____    ______ ____

>  <TORSDO>
F 3

$$$$
=
 OpenBabel11052413393D

 27 31  0  0  1  0  0  0  0  0999 V2000
  188.4280  177.8340  142.1900 N   0  0  2  0  0  0  0  0  0  0  0  0
  187.1070  177.2390  143.9000 C   0  0  1  0  0  3  0  0  0  0  0  0
  189.3220  177.5540  143.3080 C   0  0  1  0  0  3  0  0  0  0  0  0
  187.6310  178.3390  148.2700 C   0  0  0  0  0  3  0  0  0  0  0  0
  190.0040  178.2790  149.0320 C   0  0  0  0  0  1  0  0  0  0  0  0
  186.1540  177.5910  144.9070 N   0  0  0  0  0  2  0  0  0  0  0  0
  189.3500  177.6660  146.6630 C   0  0  0  0  0  0  0  0  0  0  0  0
  190.7730  177.3820  146.3150 C   0  0  0  0  0  1  0  0  0  0  0  0
  188.3310  177.5070  145.7160 C   0  0  0  0  0  0  0  0  0  0  0  0
  187.0850  177.6720  142.6500 C   0  0  1  0  0  3  0  0  0  0  0  0
  188.9830  178.0890  147.9610 C   0  0  0  0  0  0  0  0  0  0  0  0
  186.6290  178.1750  147.3010 C   0  0  0  0  0  3  0  0  0  0  0  0
  188.8730  177.2400  140.9440 C   0  0  0  0  0  2  0  0  0  0  0  0
  188.4360  177.0730  144.3640 N   0  0  0  0  0  0  0  0  0  0  0  0
  187.0110  177.7500  146.0320 C   0  0  0  0  0  0  0  0  0  0  0  0
  190.1960  176.5610  141.2570 C   0  0  2  0  0  3  0  0  0  0  0  0
  190.2150  176.4390  142.7950 C   0  0  1  0  0  3  0  0  0  0  0  0
  183.6740  179.1130  140.4890 C   0  0  0  0  0  3  0  0  0  0  0  0
  185.9030  178.1750  141.9150 C   0  0  0  0  0  0  0  0  0  0  0  0
  184.6200  178.1160  142.4800 C   0  0  0  0  0  3  0  0  0  0  0  0
  183.5100  178.5840  141.7720 C   0  0  0  0  0  3  0  0  0  0  0  0
  184.9470  179.1720  139.9160 C   0  0  0  0  0  3  0  0  0  0  0  0
  186.0560  178.7040  140.6260 C   0  0  0  0  0  3  0  0  0  0  0  0
  191.9190  175.2040  143.9260 O   0  0  0  0  0  1  0  0  0  0  0  0
  191.5990  176.4690  143.4320 C   0  0  0  0  0  2  0  0  0  0  0  0
  191.6760  177.0040  139.4280 O   0  0  0  0  0  1  0  0  0  0  0  0
  191.3120  177.4420  140.7010 C   0  0  0  0  0  2  0  0  0  0  0  0
  1 13  1  6  0  0  0
  1 10  1  0  0  0  0
  1  3  1  0  0  0  0
  2 14  1  0  0  0  0
  2  6  1  1  0  0  0
  3 14  1  1  0  0  0
  6 15  1  0  0  0  0
  7 11  2  0  0  0  0
  8  7  1  0  0  0  0
  9 15  2  0  0  0  0
  9  7  1  0  0  0  0
 10 19  1  1  0  0  0
 10  2  1  0  0  0  0
 11  4  1  0  0  0  0
 11  5  1  0  0  0  0
 12  4  2  0  0  0  0
 13 16  1  0  0  0  0
 14  9  1  0  0  0  0
 15 12  1  0  0  0  0
 16 27  1  1  0  0  0
 16 17  1  0  0  0  0
 17  3  1  0  0  0  0
 17 25  1  1  0  0  0
 18 21  1  0  0  0  0
 19 20  1  0  0  0  0
 21 20  2  0  0  0  0
 22 18  2  0  0  0  0
 22 23  1  0  0  0  0
 23 19  2  0  0  0  0
 25 24  1  0  0  0  0
 26 27  1  0  0  0  0
M  END
>  <MODEL>
3

>  <REMARK>
 VINA RESULT:      -9.1      1.995      5.439
  Name = 
  3 active torsions:
  status: ('A' for Active; 'I' for Inactive)
    1  A    between atoms: C_9  and  C_15
    2  A    between atoms: C_20  and  C_26
    3  A    between atoms: C_22  and  C_24
                            x       y       z     vdW  Elec       q    Type
                         _______ _______ _______ _____ _____    ______ ____

>  <TORSDO>
F 3

$$$$
=
 OpenBabel11052413393D

 27 31  0  0  1  0  0  0  0  0999 V2000
  188.2600  177.8100  144.8890 N   0  0  2  0  0  0  0  0  0  0  0  0
  189.3380  176.4510  143.4700 C   0  0  1  0  0  3  0  0  0  0  0  0
  187.6800  178.0620  143.5750 C   0  0  1  0  0  3  0  0  0  0  0  0
  190.6490  177.4080  139.2340 C   0  0  0  0  0  3  0  0  0  0  0  0
  188.9770  178.7410  137.9530 C   0  0  0  0  0  1  0  0  0  0  0  0
  190.5230  176.1070  142.7470 N   0  0  0  0  0  2  0  0  0  0  0  0
  188.5390  177.9870  140.3320 C   0  0  0  0  0  0  0  0  0  0  0  0
  187.1940  178.6320  140.3170 C   0  0  0  0  0  1  0  0  0  0  0  0
  188.9980  177.3010  141.4620 C   0  0  0  0  0  0  0  0  0  0  0  0
  189.3070  176.8520  144.7310 C   0  0  1  0  0  3  0  0  0  0  0  0
  189.3870  178.0350  139.2010 C   0  0  0  0  0  0  0  0  0  0  0  0
  191.0860  176.7300  140.3820 C   0  0  0  0  0  3  0  0  0  0  0  0
  187.2630  177.6690  145.9340 C   0  0  0  0  0  2  0  0  0  0  0  0
  188.3320  177.0890  142.7030 N   0  0  0  0  0  0  0  0  0  0  0  0
  190.2330  176.6860  141.4800 C   0  0  0  0  0  0  0  0  0  0  0  0
  185.9220  177.9030  145.2600 C   0  0  2  0  0  3  0  0  0  0  0  0
  186.2080  177.7340  143.7540 C   0  0  1  0  0  3  0  0  0  0  0  0
  192.3120  176.0780  147.6900 C   0  0  0  0  0  3  0  0  0  0  0  0
  190.3350  176.5840  145.7620 C   0  0  0  0  0  0  0  0  0  0  0  0
  190.2510  177.1640  147.0370 C   0  0  0  0  0  3  0  0  0  0  0  0
  191.2340  176.9110  147.9980 C   0  0  0  0  0  3  0  0  0  0  0  0
  192.4070  175.4990  146.4220 C   0  0  0  0  0  3  0  0  0  0  0  0
  191.4230  175.7520  145.4620 C   0  0  0  0  0  3  0  0  0  0  0  0
  184.0770  177.9310  142.6940 O   0  0  0  0  0  1  0  0  0  0  0  0
  185.3180  178.5530  142.8270 C   0  0  0  0  0  2  0  0  0  0  0  0
  185.5290  179.4780  147.0200 O   0  0  0  0  0  1  0  0  0  0  0  0
  185.4520  179.3060  145.6390 C   0  0  0  0  0  2  0  0  0  0  0  0
  1 13  1  1  0  0  0
  2  6  1  6  0  0  0
  2 10  1  0  0  0  0
  3 14  1  6  0  0  0
  3 17  1  0  0  0  0
  3  1  1  0  0  0  0
  4 12  1  0  0  0  0
  5 11  1  0  0  0  0
  7  9  2  0  0  0  0
  8  7  1  0  0  0  0
  9 15  1  0  0  0  0
  9 14  1  0  0  0  0
 10  1  1  0  0  0  0
 10 19  1  6  0  0  0
 11  4  2  0  0  0  0
 11  7  1  0  0  0  0
 12 15  2  0  0  0  0
 14  2  1  0  0  0  0
 15  6  1  0  0  0  0
 16 27  1  6  0  0  0
 16 13  1  0  0  0  0
 17 25  1  6  0  0  0
 17 16  1  0  0  0  0
 18 21  1  0  0  0  0
 19 20  1  0  0  0  0
 20 21  2  0  0  0  0
 22 18  2  0  0  0  0
 23 19  2  0  0  0  0
 23 22  1  0  0  0  0
 24 25  1  0  0  0  0
 27 26  1  0  0  0  0
M  END
>  <MODEL>
4

>  <REMARK>
 VINA RESULT:      -8.9      2.230      5.370
  Name = 
  3 active torsions:
  status: ('A' for Active; 'I' for Inactive)
    1  A    between atoms: C_9  and  C_15
    2  A    between atoms: C_20  and  C_26
    3  A    between atoms: C_22  and  C_24
                            x       y       z     vdW  Elec       q    Type
                         _______ _______ _______ _____ _____    ______ ____

>  <TORSDO>
F 3

$$$$
=
 OpenBabel11052413393D

 27 31  0  0  1  0  0  0  0  0999 V2000
  187.1800  178.4050  141.9050 N   0  0  2  0  0  0  0  0  0  0  0  0
  186.7920  177.1770  143.7390 C   0  0  1  0  0  3  0  0  0  0  0  0
  188.4870  177.9570  142.3700 C   0  0  1  0  0  3  0  0  0  0  0  0
  189.2680  177.0870  147.5400 C   0  0  0  0  0  3  0  0  0  0  0  0
  191.7250  177.1580  147.1280 C   0  0  0  0  0  1  0  0  0  0  0  0
  186.4090  177.0970  145.1150 N   0  0  0  0  0  2  0  0  0  0  0  0
  190.0550  177.1380  145.2230 C   0  0  0  0  0  0  0  0  0  0  0  0
  191.1580  177.1670  144.2190 C   0  0  0  0  0  1  0  0  0  0  0  0
  188.7150  177.1040  144.8200 C   0  0  0  0  0  0  0  0  0  0  0  0
  186.1990  177.9320  142.8290 C   0  0  1  0  0  3  0  0  0  0  0  0
  190.3260  177.1280  146.6110 C   0  0  0  0  0  0  0  0  0  0  0  0
  187.9320  177.0570  147.1090 C   0  0  0  0  0  3  0  0  0  0  0  0
  187.0020  178.2490  140.4730 C   0  0  0  0  0  2  0  0  0  0  0  0
  188.1850  177.0800  143.4980 N   0  0  0  0  0  0  0  0  0  0  0  0
  187.6880  177.0580  145.7400 C   0  0  0  0  0  0  0  0  0  0  0  0
  188.3200  177.7060  139.9480 C   0  0  2  0  0  3  0  0  0  0  0  0
  189.0440  177.1670  141.1990 C   0  0  1  0  0  3  0  0  0  0  0  0
  182.1660  179.3820  142.9690 C   0  0  0  0  0  3  0  0  0  0  0  0
  184.8110  178.4440  142.8830 C   0  0  0  0  0  0  0  0  0  0  0  0
  184.3580  179.1980  143.9760 C   0  0  0  0  0  3  0  0  0  0  0  0
  183.0420  179.6660  144.0200 C   0  0  0  0  0  3  0  0  0  0  0  0
  182.6060  178.6280  141.8780 C   0  0  0  0  0  3  0  0  0  0  0  0
  183.9220  178.1610  141.8360 C   0  0  0  0  0  3  0  0  0  0  0  0
  191.0320  176.3130  140.1860 O   0  0  0  0  0  1  0  0  0  0  0  0
  190.5660  177.2160  141.1410 C   0  0  0  0  0  2  0  0  0  0  0  0
  188.5960  179.0080  137.9580 O   0  0  0  0  0  1  0  0  0  0  0  0
  189.0560  178.8570  139.2660 C   0  0  0  0  0  2  0  0  0  0  0  0
  1 13  1  6  0  0  0
  1  3  1  0  0  0  0
  1 10  1  0  0  0  0
  2  6  1  1  0  0  0
  3 14  1  1  0  0  0
  6 15  1  0  0  0  0
  7 11  1  0  0  0  0
  8  7  1  0  0  0  0
  9  7  2  0  0  0  0
  9 15  1  0  0  0  0
 10 19  1  1  0  0  0
 10  2  1  0  0  0  0
 11  5  1  0  0  0  0
 11  4  2  0  0  0  0
 12  4  1  0  0  0  0
 14  2  1  0  0  0  0
 14  9  1  0  0  0  0
 15 12  2  0  0  0  0
 16 27  1  1  0  0  0
 16 13  1  0  0  0  0
 16 17  1  0  0  0  0
 17 25  1  6  0  0  0
 17  3  1  0  0  0  0
 18 21  1  0  0  0  0
 19 20  1  0  0  0  0
 20 21  2  0  0  0  0
 22 18  2  0  0  0  0
 23 22  1  0  0  0  0
 23 19  2  0  0  0  0
 24 25  1  0  0  0  0
 26 27  1  0  0  0  0
M  END
>  <MODEL>
5

>  <REMARK>
 VINA RESULT:      -8.9      2.155      5.119
  Name = 
  3 active torsions:
  status: ('A' for Active; 'I' for Inactive)
    1  A    between atoms: C_9  and  C_15
    2  A    between atoms: C_20  and  C_26
    3  A    between atoms: C_22  and  C_24
                            x       y       z     vdW  Elec       q    Type
                         _______ _______ _______ _____ _____    ______ ____

>  <TORSDO>
F 3

$$$$
=
 OpenBabel11052413393D

 27 31  0  0  1  0  0  0  0  0999 V2000
  186.9330  177.8310  141.2660 N   0  0  2  0  0  0  0  0  0  0  0  0
  188.8370  178.4220  142.2910 C   0  0  1  0  0  3  0  0  0  0  0  0
  186.6040  177.9520  142.6810 C   0  0  1  0  0  3  0  0  0  0  0  0
  190.3270  176.9780  146.3250 C   0  0  0  0  0  3  0  0  0  0  0  0
  188.5260  176.7720  148.0360 C   0  0  0  0  0  1  0  0  0  0  0  0
  190.1500  178.0870  142.7490 N   0  0  0  0  0  2  0  0  0  0  0  0
  188.0480  177.6050  145.6910 C   0  0  0  0  0  0  0  0  0  0  0  0
  186.6040  177.7840  146.0200 C   0  0  0  0  0  1  0  0  0  0  0  0
  188.5420  177.9190  144.4200 C   0  0  0  0  0  0  0  0  0  0  0  0
  188.3320  178.0800  141.1170 C   0  0  1  0  0  3  0  0  0  0  0  0
  188.9650  177.1270  146.6560 C   0  0  0  0  0  0  0  0  0  0  0  0
  190.7960  177.2970  145.0420 C   0  0  0  0  0  3  0  0  0  0  0  0
  185.9600  178.4690  140.3990 C   0  0  0  0  0  2  0  0  0  0  0  0
  187.8370  178.4360  143.2960 N   0  0  0  0  0  0  0  0  0  0  0  0
  189.8790  177.7740  144.1110 C   0  0  0  0  0  0  0  0  0  0  0  0
  184.8740  179.0030  141.3180 C   0  0  2  0  0  3  0  0  0  0  0  0
  185.5220  179.0160  142.7180 C   0  0  1  0  0  3  0  0  0  0  0  0
  190.5510  177.0490  137.5960 C   0  0  0  0  0  3  0  0  0  0  0  0
  189.0990  177.7370  139.8980 C   0  0  0  0  0  0  0  0  0  0  0  0
  188.9120  178.4440  138.7010 C   0  0  0  0  0  3  0  0  0  0  0  0
  189.6350  178.1030  137.5550 C   0  0  0  0  0  3  0  0  0  0  0  0
  190.7410  176.3360  138.7820 C   0  0  0  0  0  3  0  0  0  0  0  0
  190.0180  176.6780  139.9280 C   0  0  0  0  0  3  0  0  0  0  0  0
  183.8720  180.0060  144.1340 O   0  0  0  0  0  1  0  0  0  0  0  0
  184.5580  178.8190  143.8820 C   0  0  0  0  0  2  0  0  0  0  0  0
  182.5110  178.8050  140.9870 O   0  0  0  0  0  1  0  0  0  0  0  0
  183.6730  178.0670  141.2100 C   0  0  0  0  0  2  0  0  0  0  0  0
  1 13  1  6  0  0  0
  1  3  1  0  0  0  0
  2  6  1  1  0  0  0
  2 14  1  0  0  0  0
  3 17  1  0  0  0  0
  3 14  1  1  0  0  0
  4 11  1  0  0  0  0
  6 15  1  0  0  0  0
  7  8  1  0  0  0  0
  7 11  2  0  0  0  0
  9  7  1  0  0  0  0
 10 19  1  1  0  0  0
 10  1  1  0  0  0  0
 10  2  1  0  0  0  0
 11  5  1  0  0  0  0
 12  4  2  0  0  0  0
 13 16  1  0  0  0  0
 14  9  1  0  0  0  0
 15  9  2  0  0  0  0
 15 12  1  0  0  0  0
 16 27  1  1  0  0  0
 16 17  1  0  0  0  0
 17 25  1  1  0  0  0
 18 22  1  0  0  0  0
 19 23  1  0  0  0  0
 20 19  2  0  0  0  0
 21 18  2  0  0  0  0
 21 20  1  0  0  0  0
 22 23  2  0  0  0  0
 25 24  1  0  0  0  0
 26 27  1  0  0  0  0
M  END
>  <MODEL>
6

>  <REMARK>
 VINA RESULT:      -8.8      2.416      6.579
  Name = 
  3 active torsions:
  status: ('A' for Active; 'I' for Inactive)
    1  A    between atoms: C_9  and  C_15
    2  A    between atoms: C_20  and  C_26
    3  A    between atoms: C_22  and  C_24
                            x       y       z     vdW  Elec       q    Type
                         _______ _______ _______ _____ _____    ______ ____

>  <TORSDO>
F 3

$$$$
=
 OpenBabel11052413393D

 27 31  0  0  1  0  0  0  0  0999 V2000
  187.9130  177.4540  142.8670 N   0  0  2  0  0  0  0  0  0  0  0  0
  186.9300  178.7030  141.2860 C   0  0  1  0  0  3  0  0  0  0  0  0
  188.6950  177.2520  141.6530 C   0  0  1  0  0  3  0  0  0  0  0  0
  186.3300  177.6120  136.9240 C   0  0  0  0  0  3  0  0  0  0  0  0
  188.2820  176.4350  135.9150 C   0  0  0  0  0  1  0  0  0  0  0  0
  185.8340  178.9330  140.3960 N   0  0  0  0  0  2  0  0  0  0  0  0
  188.3050  177.2350  138.3190 C   0  0  0  0  0  0  0  0  0  0  0  0
  189.6920  176.7180  138.5070 C   0  0  0  0  0  1  0  0  0  0  0  0
  187.6290  177.8800  139.3620 C   0  0  0  0  0  0  0  0  0  0  0  0
  186.8160  178.3110  142.5450 C   0  0  1  0  0  3  0  0  0  0  0  0
  187.6350  177.1040  137.0810 C   0  0  0  0  0  0  0  0  0  0  0  0
  185.6740  178.2520  137.9860 C   0  0  0  0  0  3  0  0  0  0  0  0
  188.7330  177.6900  144.0390 C   0  0  0  0  0  2  0  0  0  0  0  0
  188.0890  178.1570  140.6810 N   0  0  0  0  0  0  0  0  0  0  0  0
  186.3540  178.3780  139.1930 C   0  0  0  0  0  0  0  0  0  0  0  0
  190.1730  177.5790  143.5670 C   0  0  2  0  0  3  0  0  0  0  0  0
  190.0910  177.7150  142.0330 C   0  0  1  0  0  3  0  0  0  0  0  0
  183.4070  178.8410  145.0910 C   0  0  0  0  0  3  0  0  0  0  0  0
  185.6320  178.4870  143.4150 C   0  0  0  0  0  0  0  0  0  0  0  0
  184.3580  178.7060  142.8700 C   0  0  0  0  0  3  0  0  0  0  0  0
  183.2500  178.8810  143.7030 C   0  0  0  0  0  3  0  0  0  0  0  0
  184.6720  178.6270  145.6440 C   0  0  0  0  0  3  0  0  0  0  0  0
  185.7800  178.4520  144.8100 C   0  0  0  0  0  3  0  0  0  0  0  0
  192.1650  177.8780  140.8590 O   0  0  0  0  0  1  0  0  0  0  0  0
  191.1750  176.9790  141.2560 C   0  0  0  0  0  2  0  0  0  0  0  0
  191.6770  176.4120  145.0200 O   0  0  0  0  0  1  0  0  0  0  0  0
  190.7100  176.2270  144.0320 C   0  0  0  0  0  2  0  0  0  0  0  0
  1 13  1  1  0  0  0
  2  6  1  6  0  0  0
  2 10  1  0  0  0  0
  3 14  1  6  0  0  0
  3 17  1  0  0  0  0
  3  1  1  0  0  0  0
  4 11  2  0  0  0  0
  4 12  1  0  0  0  0
  5 11  1  0  0  0  0
  7  8  1  0  0  0  0
  7  9  2  0  0  0  0
  9 14  1  0  0  0  0
 10  1  1  0  0  0  0
 10 19  1  6  0  0  0
 11  7  1  0  0  0  0
 12 15  2  0  0  0  0
 14  2  1  0  0  0  0
 15  9  1  0  0  0  0
 15  6  1  0  0  0  0
 16 27  1  6  0  0  0
 16 13  1  0  0  0  0
 17 25  1  6  0  0  0
 17 16  1  0  0  0  0
 18 22  1  0  0  0  0
 19 23  1  0  0  0  0
 20 19  2  0  0  0  0
 20 21  1  0  0  0  0
 21 18  2  0  0  0  0
 23 22  2  0  0  0  0
 24 25  1  0  0  0  0
 27 26  1  0  0  0  0
M  END
>  <MODEL>
7

>  <REMARK>
 VINA RESULT:      -8.7      1.460      2.298
  Name = 
  3 active torsions:
  status: ('A' for Active; 'I' for Inactive)
    1  A    between atoms: C_9  and  C_15
    2  A    between atoms: C_20  and  C_26
    3  A    between atoms: C_22  and  C_24
                            x       y       z     vdW  Elec       q    Type
                         _______ _______ _______ _____ _____    ______ ____

>  <TORSDO>
F 3

$$$$
=
 OpenBabel11052413393D

 27 31  0  0  1  0  0  0  0  0999 V2000
  189.7210  176.8180  143.0890 N   0  0  2  0  0  0  0  0  0  0  0  0
  188.8070  178.0940  144.6890 C   0  0  1  0  0  3  0  0  0  0  0  0
  188.5100  177.3840  142.5060 C   0  0  1  0  0  3  0  0  0  0  0  0
  184.3930  178.5420  145.6360 C   0  0  0  0  0  3  0  0  0  0  0  0
  182.9460  178.6400  143.6090 C   0  0  0  0  0  1  0  0  0  0  0  0
  188.1140  178.2060  145.9350 N   0  0  0  0  0  2  0  0  0  0  0  0
  185.4660  178.4470  143.4380 C   0  0  0  0  0  0  0  0  0  0  0  0
  185.3930  178.4560  141.9480 C   0  0  0  0  0  1  0  0  0  0  0  0
  186.6970  178.3610  144.0990 C   0  0  0  0  0  0  0  0  0  0  0  0
  189.8020  177.2560  144.4460 C   0  0  1  0  0  3  0  0  0  0  0  0
  184.2980  178.5400  144.2300 C   0  0  0  0  0  0  0  0  0  0  0  0
  185.6400  178.4510  146.2740 C   0  0  0  0  0  3  0  0  0  0  0  0
  190.8680  176.8960  142.2040 C   0  0  0  0  0  2  0  0  0  0  0  0
  188.0030  178.2850  143.5370 N   0  0  0  0  0  0  0  0  0  0  0  0
  186.7770  178.3700  145.4760 C   0  0  0  0  0  0  0  0  0  0  0  0
  190.3550  177.5130  140.9140 C   0  0  2  0  0  3  0  0  0  0  0  0
  189.0100  178.1610  141.3010 C   0  0  1  0  0  3  0  0  0  0  0  0
  192.4260  175.4780  147.3330 C   0  0  0  0  0  3  0  0  0  0  0  0
  190.6980  176.6430  145.4520 C   0  0  0  0  0  0  0  0  0  0  0  0
  190.7040  177.0870  146.7830 C   0  0  0  0  0  3  0  0  0  0  0  0
  191.5630  176.5060  147.7210 C   0  0  0  0  0  3  0  0  0  0  0  0
  192.4300  175.0320  146.0090 C   0  0  0  0  0  3  0  0  0  0  0  0
  191.5700  175.6120  145.0730 C   0  0  0  0  0  3  0  0  0  0  0  0
  188.4580  179.0050  139.1350 O   0  0  0  0  0  1  0  0  0  0  0  0
  187.9750  178.2250  140.1850 C   0  0  0  0  0  2  0  0  0  0  0  0
  190.9230  176.7190  138.7270 O   0  0  0  0  0  1  0  0  0  0  0  0
  190.2200  176.3920  139.8860 C   0  0  0  0  0  2  0  0  0  0  0  0
  1 13  1  6  0  0  0
  1 10  1  0  0  0  0
  2  6  1  1  0  0  0
  3  1  1  0  0  0  0
  3 14  1  1  0  0  0
  4 12  1  0  0  0  0
  5 11  1  0  0  0  0
  7  9  2  0  0  0  0
  7 11  1  0  0  0  0
  8  7  1  0  0  0  0
  9 15  1  0  0  0  0
 10  2  1  0  0  0  0
 10 19  1  1  0  0  0
 11  4  2  0  0  0  0
 14  9  1  0  0  0  0
 14  2  1  0  0  0  0
 15  6  1  0  0  0  0
 15 12  2  0  0  0  0
 16 27  1  6  0  0  0
 16 17  1  0  0  0  0
 16 13  1  0  0  0  0
 17 25  1  6  0  0  0
 17  3  1  0  0  0  0
 18 21  1  0  0  0  0
 19 20  1  0  0  0  0
 20 21  2  0  0  0  0
 22 18  2  0  0  0  0
 23 19  2  0  0  0  0
 23 22  1  0  0  0  0
 24 25  1  0  0  0  0
 26 27  1  0  0  0  0
M  END
>  <MODEL>
8

>  <REMARK>
 VINA RESULT:      -8.7      2.420      6.836
  Name = 
  3 active torsions:
  status: ('A' for Active; 'I' for Inactive)
    1  A    between atoms: C_9  and  C_15
    2  A    between atoms: C_20  and  C_26
    3  A    between atoms: C_22  and  C_24
                            x       y       z     vdW  Elec       q    Type
                         _______ _______ _______ _____ _____    ______ ____

>  <TORSDO>
F 3

$$$$
=
 OpenBabel11052413393D

 27 31  0  0  1  0  0  0  0  0999 V2000
  187.7340  177.5960  143.2730 N   0  0  2  0  0  0  0  0  0  0  0  0
  186.0710  178.9170  143.9890 C   0  0  1  0  0  3  0  0  0  0  0  0
  186.8910  177.8440  142.1090 C   0  0  1  0  0  3  0  0  0  0  0  0
  181.7050  178.7140  142.7720 C   0  0  0  0  0  3  0  0  0  0  0  0
  181.3690  178.2460  140.3470 C   0  0  0  0  0  1  0  0  0  0  0  0
  184.8690  179.0920  144.7460 N   0  0  0  0  0  2  0  0  0  0  0  0
  183.6840  178.4800  141.3510 C   0  0  0  0  0  0  0  0  0  0  0  0
  184.3150  178.2510  140.0190 C   0  0  0  0  0  1  0  0  0  0  0  0
  184.4660  178.7140  142.4880 C   0  0  0  0  0  0  0  0  0  0  0  0
  187.1330  178.2420  144.3970 C   0  0  1  0  0  3  0  0  0  0  0  0
  182.2780  178.4830  141.5060 C   0  0  0  0  0  0  0  0  0  0  0  0
  182.5120  178.9430  143.8970 C   0  0  0  0  0  3  0  0  0  0  0  0
  189.1500  177.7420  142.9910 C   0  0  0  0  0  2  0  0  0  0  0  0
  185.8850  178.7870  142.5900 N   0  0  0  0  0  0  0  0  0  0  0  0
  183.8920  178.9450  143.7210 C   0  0  0  0  0  0  0  0  0  0  0  0
  189.2470  178.0560  141.5080 C   0  0  2  0  0  3  0  0  0  0  0  0
  187.8250  178.5060  141.1130 C   0  0  1  0  0  3  0  0  0  0  0  0
  188.2500  177.4190  148.4540 C   0  0  0  0  0  3  0  0  0  0  0  0
  187.5050  177.9560  145.8010 C   0  0  0  0  0  0  0  0  0  0  0  0
  186.7580  178.4750  146.8690 C   0  0  0  0  0  3  0  0  0  0  0  0
  187.1270  178.2070  148.1900 C   0  0  0  0  0  3  0  0  0  0  0  0
  189.0040  176.9020  147.3970 C   0  0  0  0  0  3  0  0  0  0  0  0
  188.6330  177.1700  146.0770 C   0  0  0  0  0  3  0  0  0  0  0  0
  188.2370  178.9500  138.8020 O   0  0  0  0  0  1  0  0  0  0  0  0
  187.4290  178.2170  139.6700 C   0  0  0  0  0  2  0  0  0  0  0  0
  190.3820  175.9550  141.6870 O   0  0  0  0  0  1  0  0  0  0  0  0
  189.7050  176.7860  140.7950 C   0  0  0  0  0  2  0  0  0  0  0  0
  1 13  1  6  0  0  0
  1 10  1  0  0  0  0
  2 10  1  0  0  0  0
  2  6  1  1  0  0  0
  3 14  1  1  0  0  0
  3  1  1  0  0  0  0
  4 12  1  0  0  0  0
  5 11  1  0  0  0  0
  7 11  1  0  0  0  0
  7  9  2  0  0  0  0
  8  7  1  0  0  0  0
  9 14  1  0  0  0  0
  9 15  1  0  0  0  0
 10 19  1  1  0  0  0
 11  4  2  0  0  0  0
 14  2  1  0  0  0  0
 15 12  2  0  0  0  0
 15  6  1  0  0  0  0
 16 27  1  6  0  0  0
 16 13  1  0  0  0  0
 17 25  1  6  0  0  0
 17 16  1  0  0  0  0
 17  3  1  0  0  0  0
 19 23  2  0  0  0  0
 19 20  1  0  0  0  0
 20 21  2  0  0  0  0
 21 18  1  0  0  0  0
 22 18  2  0  0  0  0
 23 22  1  0  0  0  0
 24 25  1  0  0  0  0
 27 26  1  0  0  0  0
M  END
>  <MODEL>
9

>  <REMARK>
 VINA RESULT:      -8.5      2.018      5.830
  Name = 
  3 active torsions:
  status: ('A' for Active; 'I' for Inactive)
    1  A    between atoms: C_9  and  C_15
    2  A    between atoms: C_20  and  C_26
    3  A    between atoms: C_22  and  C_24
                            x       y       z     vdW  Elec       q    Type
                         _______ _______ _______ _____ _____    ______ ____

>  <TORSDO>
F 3

$$$$
