=
 OpenBabel11052413103D

 31 33  0  0  1  0  0  0  0  0999 V2000
  180.1650  177.8320  139.8050 C   0  0  0  0  0  0  0  0  0  0  0  0
  181.4050  177.2300  139.3820 N   0  0  0  0  0  0  0  0  0  0  0  0
  179.1290  177.6960  139.1030 O   0  0  0  0  0  0  0  0  0  0  0  0
  180.0880  178.6430  141.0360 C   0  0  0  0  0  0  0  0  0  0  0  0
  179.9260  178.7140  143.4530 C   0  0  0  0  0  3  0  0  0  0  0  0
  180.0370  177.9870  142.2700 C   0  0  0  0  0  3  0  0  0  0  0  0
  181.1810  180.8180  138.9260 C   0  0  0  0  0  1  0  0  0  0  0  0
  179.8590  180.1050  143.3930 C   0  0  0  0  0  3  0  0  0  0  0  0
  179.9000  180.7380  142.1900 N   0  0  0  0  0  0  0  0  0  0  0  0
  178.9310  181.7190  139.5160 C   0  0  0  0  0  1  0  0  0  0  0  0
  180.0220  180.0550  141.0150 C   0  0  0  0  0  0  0  0  0  0  0  0
  180.0070  180.7850  139.7840 N   0  0  0  0  0  0  0  0  0  0  0  0
  181.4910  176.5420  138.0960 C   0  0  0  0  0  2  0  0  0  0  0  0
  181.4640  175.0390  138.3020 C   0  0  1  0  0  3  0  0  0  0  0  0
  180.0640  174.5170  138.0320 C   0  0  0  0  0  1  0  0  0  0  0  0
  182.4470  174.3890  137.3490 C   0  0  0  0  0  2  0  0  0  0  0  0
  183.7520  174.5870  137.7990 O   0  0  0  0  0  1  0  0  0  0  0  0
  182.6310  177.4390  140.1450 C   0  0  0  0  0  2  0  0  0  0  0  0
  183.8060  177.7080  139.2230 C   0  0  0  0  0  2  0  0  0  0  0  0
  184.1710  179.1510  139.3020 C   0  0  0  0  0  3  0  0  0  0  0  0
  185.0240  179.6500  140.1500 N   0  0  0  0  0  0  0  0  0  0  0  0
  185.0400  178.4030  145.1920 C   0  0  0  0  0  0  0  0  0  0  0  0
  184.2650  179.2530  143.0400 C   0  0  0  0  0  3  0  0  0  0  0  0
  187.5970  177.8020  142.5570 C   0  0  0  0  0  3  0  0  0  0  0  0
  187.3560  178.2950  140.9570 S   0  0  0  0  0  0  0  0  0  0  0  0
  184.7670  178.1560  146.9040 Cl  0  0  0  0  0  0  0  0  0  0  0  0
  185.8090  178.9510  141.1320 C   0  0  0  0  0  0  0  0  0  0  0  0
  184.0600  179.0460  144.4120 C   0  0  0  0  0  3  0  0  0  0  0  0
  186.4400  178.1710  143.2430 C   0  0  0  0  0  0  0  0  0  0  0  0
  185.4570  178.8100  142.4630 C   0  0  0  0  0  0  0  0  0  0  0  0
  186.2370  177.9620  144.6070 C   0  0  0  0  0  3  0  0  0  0  0  0
  1  4  1  0  0  0  0
  2  1  1  0  0  0  0
  2 18  1  0  0  0  0
  3  1  2  0  0  0  0
  4  6  1  0  0  0  0
  6  5  2  0  0  0  0
  7 12  1  0  0  0  0
  8  5  1  0  0  0  0
  9  8  2  0  0  0  0
 10 12  1  0  0  0  0
 11  4  2  0  0  0  0
 11  9  1  0  0  0  0
 12 11  1  0  0  0  0
 13 14  1  0  0  0  0
 13  2  1  0  0  0  0
 14 15  1  6  0  0  0
 16 17  1  0  0  0  0
 16 14  1  0  0  0  0
 19 20  1  0  0  0  0
 19 18  1  0  0  0  0
 20 21  2  0  0  0  0
 21 27  1  0  0  0  0
 22 26  1  0  0  0  0
 23 28  2  0  0  0  0
 24 29  2  0  0  0  0
 25 27  1  0  0  0  0
 25 24  1  0  0  0  0
 27 30  2  0  0  0  0
 28 22  1  0  0  0  0
 29 31  1  0  0  0  0
 30 23  1  0  0  0  0
 30 29  1  0  0  0  0
 31 22  2  0  0  0  0
M  END
>  <MODEL>
1

>  <REMARK>
 VINA RESULT:      -6.7      0.000      0.000
  Name = 
  8 active torsions:
  status: ('A' for Active; 'I' for Inactive)
    1  A    between atoms: C_2  and  C_13
    2  A    between atoms: C_2  and  C_25
    3  A    between atoms: C_4  and  C_5
    4  A    between atoms: C_9  and  N_23
    5  A    between atoms: N_12  and  C_25
    6  A    between atoms: N_12  and  C_27
    7  A    between atoms: C_15  and  C_20
    8  A    between atoms: C_20  and  C_27
                            x       y       z     vdW  Elec       q    Type
                         _______ _______ _______ _____ _____    ______ ____

>  <TORSDO>
F 8

$$$$
=
 OpenBabel11052413103D

 31 33  0  0  1  0  0  0  0  0999 V2000
  182.8650  178.7360  139.1960 C   0  0  0  0  0  0  0  0  0  0  0  0
  182.7390  178.7160  140.6320 N   0  0  0  0  0  0  0  0  0  0  0  0
  182.0120  179.3450  138.4980 O   0  0  0  0  0  0  0  0  0  0  0  0
  183.9620  178.0220  138.5120 C   0  0  0  0  0  0  0  0  0  0  0  0
  186.2670  178.0130  137.7640 C   0  0  0  0  0  3  0  0  0  0  0  0
  185.2150  178.6360  138.4330 C   0  0  0  0  0  3  0  0  0  0  0  0
  181.9270  175.6000  139.1220 C   0  0  0  0  0  1  0  0  0  0  0  0
  186.0530  176.7710  137.1680 C   0  0  0  0  0  3  0  0  0  0  0  0
  184.8300  176.1820  137.2410 N   0  0  0  0  0  0  0  0  0  0  0  0
  181.9240  175.6950  136.6300 C   0  0  0  0  0  1  0  0  0  0  0  0
  183.7840  176.7610  137.9000 C   0  0  0  0  0  0  0  0  0  0  0  0
  182.5110  176.1060  137.8900 N   0  0  0  0  0  0  0  0  0  0  0  0
  181.5760  179.3180  141.2800 C   0  0  0  0  0  2  0  0  0  0  0  0
  180.8030  178.2650  142.0520 C   0  0  1  0  0  3  0  0  0  0  0  0
  180.3780  178.8340  143.3940 C   0  0  0  0  0  1  0  0  0  0  0  0
  179.5790  177.8630  141.2550 C   0  0  0  0  0  2  0  0  0  0  0  0
  179.2070  176.5580  141.5760 O   0  0  0  0  0  1  0  0  0  0  0  0
  183.6780  177.9540  141.4500 C   0  0  0  0  0  2  0  0  0  0  0  0
  184.5710  178.8790  142.2550 C   0  0  0  0  0  2  0  0  0  0  0  0
  184.4000  178.5870  143.7060 C   0  0  0  0  0  3  0  0  0  0  0  0
  185.3300  178.0940  144.4730 N   0  0  0  0  0  0  0  0  0  0  0  0
  189.9440  177.0890  146.6370 C   0  0  0  0  0  0  0  0  0  0  0  0
  187.5510  177.5180  146.4290 C   0  0  0  0  0  3  0  0  0  0  0  0
  188.9890  177.4360  143.0580 C   0  0  0  0  0  3  0  0  0  0  0  0
  187.3950  177.7540  142.5910 S   0  0  0  0  0  0  0  0  0  0  0  0
  191.3430  176.8040  147.6500 Cl  0  0  0  0  0  0  0  0  0  0  0  0
  186.6890  177.7750  144.1250 C   0  0  0  0  0  0  0  0  0  0  0  0
  188.6810  177.2870  147.2270 C   0  0  0  0  0  3  0  0  0  0  0  0
  188.9650  177.3540  144.4490 C   0  0  0  0  0  0  0  0  0  0  0  0
  187.7020  177.5480  145.0410 C   0  0  0  0  0  0  0  0  0  0  0  0
  190.0890  177.1220  145.2420 C   0  0  0  0  0  3  0  0  0  0  0  0
  1  2  1  0  0  0  0
  2 13  1  0  0  0  0
  2 18  1  0  0  0  0
  3  1  2  0  0  0  0
  4  1  1  0  0  0  0
  5  6  2  0  0  0  0
  6  4  1  0  0  0  0
  8  9  2  0  0  0  0
  8  5  1  0  0  0  0
  9 11  1  0  0  0  0
 10 12  1  0  0  0  0
 11  4  2  0  0  0  0
 12 11  1  0  0  0  0
 12  7  1  0  0  0  0
 13 14  1  0  0  0  0
 14 15  1  1  0  0  0
 16 17  1  0  0  0  0
 16 14  1  0  0  0  0
 18 19  1  0  0  0  0
 19 20  1  0  0  0  0
 20 21  2  0  0  0  0
 22 28  1  0  0  0  0
 22 26  1  0  0  0  0
 23 28  2  0  0  0  0
 24 29  2  0  0  0  0
 25 24  1  0  0  0  0
 25 27  1  0  0  0  0
 27 21  1  0  0  0  0
 27 30  2  0  0  0  0
 29 30  1  0  0  0  0
 29 31  1  0  0  0  0
 30 23  1  0  0  0  0
 31 22  2  0  0  0  0
M  END
>  <MODEL>
2

>  <REMARK>
 VINA RESULT:      -6.6      2.644      5.307
  Name = 
  8 active torsions:
  status: ('A' for Active; 'I' for Inactive)
    1  A    between atoms: C_2  and  C_13
    2  A    between atoms: C_2  and  C_25
    3  A    between atoms: C_4  and  C_5
    4  A    between atoms: C_9  and  N_23
    5  A    between atoms: N_12  and  C_25
    6  A    between atoms: N_12  and  C_27
    7  A    between atoms: C_15  and  C_20
    8  A    between atoms: C_20  and  C_27
                            x       y       z     vdW  Elec       q    Type
                         _______ _______ _______ _____ _____    ______ ____

>  <TORSDO>
F 8

$$$$
=
 OpenBabel11052413103D

 31 33  0  0  1  0  0  0  0  0999 V2000
  188.9780  176.7400  142.4860 C   0  0  0  0  0  0  0  0  0  0  0  0
  188.5080  177.5080  141.3600 N   0  0  0  0  0  0  0  0  0  0  0  0
  189.6530  175.6940  142.2950 O   0  0  0  0  0  0  0  0  0  0  0  0
  188.6520  177.1320  143.8710 C   0  0  0  0  0  0  0  0  0  0  0  0
  187.0380  177.1720  145.6790 C   0  0  0  0  0  3  0  0  0  0  0  0
  187.3990  176.7880  144.3890 C   0  0  0  0  0  3  0  0  0  0  0  0
  191.8650  177.3540  143.9010 C   0  0  0  0  0  1  0  0  0  0  0  0
  187.9380  177.9090  146.4470 C   0  0  0  0  0  3  0  0  0  0  0  0
  189.1520  178.2480  145.9350 N   0  0  0  0  0  0  0  0  0  0  0  0
  191.1560  179.7210  144.2420 C   0  0  0  0  0  1  0  0  0  0  0  0
  189.5400  177.8770  144.6810 C   0  0  0  0  0  0  0  0  0  0  0  0
  190.8120  178.3130  144.1910 N   0  0  0  0  0  0  0  0  0  0  0  0
  188.7290  177.0320  139.9960 C   0  0  0  0  0  2  0  0  0  0  0  0
  189.8380  177.8300  139.3360 C   0  0  1  0  0  3  0  0  0  0  0  0
  191.1140  177.0080  139.3240 C   0  0  0  0  0  1  0  0  0  0  0  0
  189.4310  178.1650  137.9150 C   0  0  0  0  0  2  0  0  0  0  0  0
  188.9930  179.4870  137.8420 O   0  0  0  0  0  1  0  0  0  0  0  0
  187.6620  178.6800  141.5610 C   0  0  0  0  0  2  0  0  0  0  0  0
  186.1950  178.2930  141.5920 C   0  0  0  0  0  2  0  0  0  0  0  0
  185.3720  179.4480  141.1370 C   0  0  0  0  0  3  0  0  0  0  0  0
  184.6950  179.4780  140.0250 N   0  0  0  0  0  0  0  0  0  0  0  0
  181.6080  175.5000  138.7490 C   0  0  0  0  0  0  0  0  0  0  0  0
  182.4290  177.4930  139.8930 C   0  0  0  0  0  3  0  0  0  0  0  0
  184.8120  176.6390  137.2410 C   0  0  0  0  0  3  0  0  0  0  0  0
  185.6390  177.9920  137.8290 S   0  0  0  0  0  0  0  0  0  0  0  0
  180.4000  174.2430  138.5890 Cl  0  0  0  0  0  0  0  0  0  0  0  0
  184.5540  178.4340  139.0460 C   0  0  0  0  0  0  0  0  0  0  0  0
  181.4700  176.4800  139.7500 C   0  0  0  0  0  3  0  0  0  0  0  0
  183.6640  176.5290  138.0240 C   0  0  0  0  0  0  0  0  0  0  0  0
  183.5220  177.5110  139.0240 C   0  0  0  0  0  0  0  0  0  0  0  0
  182.7090  175.5220  137.8800 C   0  0  0  0  0  3  0  0  0  0  0  0
  1  4  1  0  0  0  0
  2 18  1  0  0  0  0
  2  1  1  0  0  0  0
  3  1  2  0  0  0  0
  4  6  2  0  0  0  0
  4 11  1  0  0  0  0
  5  8  2  0  0  0  0
  6  5  1  0  0  0  0
  7 12  1  0  0  0  0
  9  8  1  0  0  0  0
 11  9  2  0  0  0  0
 12 10  1  0  0  0  0
 12 11  1  0  0  0  0
 13  2  1  0  0  0  0
 14 15  1  6  0  0  0
 14 13  1  0  0  0  0
 16 14  1  0  0  0  0
 17 16  1  0  0  0  0
 18 19  1  0  0  0  0
 20 19  1  0  0  0  0
 21 20  2  0  0  0  0
 22 28  1  0  0  0  0
 24 25  1  0  0  0  0
 24 29  2  0  0  0  0
 25 27  1  0  0  0  0
 26 22  1  0  0  0  0
 27 21  1  0  0  0  0
 28 23  2  0  0  0  0
 29 30  1  0  0  0  0
 30 27  2  0  0  0  0
 30 23  1  0  0  0  0
 31 29  1  0  0  0  0
 31 22  2  0  0  0  0
M  END
>  <MODEL>
3

>  <REMARK>
 VINA RESULT:      -6.5      4.040      8.127
  Name = 
  8 active torsions:
  status: ('A' for Active; 'I' for Inactive)
    1  A    between atoms: C_2  and  C_13
    2  A    between atoms: C_2  and  C_25
    3  A    between atoms: C_4  and  C_5
    4  A    between atoms: C_9  and  N_23
    5  A    between atoms: N_12  and  C_25
    6  A    between atoms: N_12  and  C_27
    7  A    between atoms: C_15  and  C_20
    8  A    between atoms: C_20  and  C_27
                            x       y       z     vdW  Elec       q    Type
                         _______ _______ _______ _____ _____    ______ ____

>  <TORSDO>
F 8

$$$$
=
 OpenBabel11052413103D

 31 33  0  0  1  0  0  0  0  0999 V2000
  181.8240  179.0160  140.0120 C   0  0  0  0  0  0  0  0  0  0  0  0
  183.1910  178.5590  139.9910 N   0  0  0  0  0  0  0  0  0  0  0  0
  181.3670  179.6750  139.0420 O   0  0  0  0  0  0  0  0  0  0  0  0
  180.9470  178.7580  141.1720 C   0  0  0  0  0  0  0  0  0  0  0  0
  180.2610  179.3670  143.4150 C   0  0  0  0  0  3  0  0  0  0  0  0
  181.0440  179.5980  142.2850 C   0  0  0  0  0  3  0  0  0  0  0  0
  179.3980  177.1500  138.8500 C   0  0  0  0  0  1  0  0  0  0  0  0
  179.3840  178.2840  143.4250 C   0  0  0  0  0  3  0  0  0  0  0  0
  179.3000  177.4660  142.3420 N   0  0  0  0  0  0  0  0  0  0  0  0
  180.1100  175.3230  140.3920 C   0  0  0  0  0  1  0  0  0  0  0  0
  180.0430  177.6730  141.2170 C   0  0  0  0  0  0  0  0  0  0  0  0
  179.9390  176.7400  140.1360 N   0  0  0  0  0  0  0  0  0  0  0  0
  184.0800  178.9360  138.8940 C   0  0  0  0  0  2  0  0  0  0  0  0
  184.4930  177.7060  138.1080 C   0  0  1  0  0  3  0  0  0  0  0  0
  183.5690  177.5370  136.9150 C   0  0  0  0  0  1  0  0  0  0  0  0
  185.9210  177.8770  137.6310 C   0  0  0  0  0  2  0  0  0  0  0  0
  186.6460  178.6320  138.5530 O   0  0  0  0  0  1  0  0  0  0  0  0
  183.7580  177.8580  141.1390 C   0  0  0  0  0  2  0  0  0  0  0  0
  184.6950  178.7610  141.9190 C   0  0  0  0  0  2  0  0  0  0  0  0
  184.4880  178.5420  143.3780 C   0  0  0  0  0  3  0  0  0  0  0  0
  185.4060  178.1120  144.1960 N   0  0  0  0  0  0  0  0  0  0  0  0
  189.9220  177.0820  146.5460 C   0  0  0  0  0  0  0  0  0  0  0  0
  187.5390  177.5040  146.2390 C   0  0  0  0  0  3  0  0  0  0  0  0
  189.1290  177.5010  142.9360 C   0  0  0  0  0  3  0  0  0  0  0  0
  187.5560  177.8230  142.4030 S   0  0  0  0  0  0  0  0  0  0  0  0
  191.2750  176.7810  147.6160 Cl  0  0  0  0  0  0  0  0  0  0  0  0
  186.7810  177.8070  143.9040 C   0  0  0  0  0  0  0  0  0  0  0  0
  188.6330  177.2610  147.0820 C   0  0  0  0  0  3  0  0  0  0  0  0
  189.0420  177.3890  144.3220 C   0  0  0  0  0  0  0  0  0  0  0  0
  187.7520  177.5640  144.8600 C   0  0  0  0  0  0  0  0  0  0  0  0
  190.1310  177.1450  145.1600 C   0  0  0  0  0  3  0  0  0  0  0  0
  1  4  1  0  0  0  0
  2  1  1  0  0  0  0
  2 18  1  0  0  0  0
  3  1  2  0  0  0  0
  4 11  2  0  0  0  0
  4  6  1  0  0  0  0
  5  8  1  0  0  0  0
  6  5  2  0  0  0  0
  7 12  1  0  0  0  0
  9  8  2  0  0  0  0
 11  9  1  0  0  0  0
 12 10  1  0  0  0  0
 12 11  1  0  0  0  0
 13  2  1  0  0  0  0
 14 15  1  6  0  0  0
 14 13  1  0  0  0  0
 16 14  1  0  0  0  0
 16 17  1  0  0  0  0
 18 19  1  0  0  0  0
 19 20  1  0  0  0  0
 20 21  2  0  0  0  0
 22 28  1  0  0  0  0
 22 26  1  0  0  0  0
 23 28  2  0  0  0  0
 24 29  2  0  0  0  0
 25 24  1  0  0  0  0
 25 27  1  0  0  0  0
 27 21  1  0  0  0  0
 27 30  2  0  0  0  0
 29 30  1  0  0  0  0
 29 31  1  0  0  0  0
 30 23  1  0  0  0  0
 31 22  2  0  0  0  0
M  END
>  <MODEL>
4

>  <REMARK>
 VINA RESULT:      -6.5      2.627      3.804
  Name = 
  8 active torsions:
  status: ('A' for Active; 'I' for Inactive)
    1  A    between atoms: C_2  and  C_13
    2  A    between atoms: C_2  and  C_25
    3  A    between atoms: C_4  and  C_5
    4  A    between atoms: C_9  and  N_23
    5  A    between atoms: N_12  and  C_25
    6  A    between atoms: N_12  and  C_27
    7  A    between atoms: C_15  and  C_20
    8  A    between atoms: C_20  and  C_27
                            x       y       z     vdW  Elec       q    Type
                         _______ _______ _______ _____ _____    ______ ____

>  <TORSDO>
F 8

$$$$
=
 OpenBabel11052413103D

 31 33  0  0  1  0  0  0  0  0999 V2000
  188.9170  176.9580  136.6280 C   0  0  0  0  0  0  0  0  0  0  0  0
  189.8750  176.6210  137.6510 N   0  0  0  0  0  0  0  0  0  0  0  0
  189.3140  177.2660  135.4730 O   0  0  0  0  0  0  0  0  0  0  0  0
  187.4690  176.9860  136.9120 C   0  0  0  0  0  0  0  0  0  0  0  0
  185.5500  178.2230  137.7290 C   0  0  0  0  0  3  0  0  0  0  0  0
  186.9070  178.1650  137.4120 C   0  0  0  0  0  3  0  0  0  0  0  0
  187.6650  174.4520  134.9350 C   0  0  0  0  0  1  0  0  0  0  0  0
  184.7610  177.0880  137.5480 C   0  0  0  0  0  3  0  0  0  0  0  0
  185.3150  175.9420  137.0700 N   0  0  0  0  0  0  0  0  0  0  0  0
  186.9390  173.4090  137.0810 C   0  0  0  0  0  1  0  0  0  0  0  0
  186.6360  175.8580  136.7380 C   0  0  0  0  0  0  0  0  0  0  0  0
  187.1600  174.6030  136.2900 N   0  0  0  0  0  0  0  0  0  0  0  0
  191.3080  176.7260  137.3860 C   0  0  0  0  0  2  0  0  0  0  0  0
  191.9750  175.3760  137.5730 C   0  0  1  0  0  3  0  0  0  0  0  0
  191.8280  174.5600  136.3010 C   0  0  0  0  0  1  0  0  0  0  0  0
  193.4450  175.5870  137.8800 C   0  0  0  0  0  2  0  0  0  0  0  0
  193.6260  176.8020  138.5400 O   0  0  0  0  0  1  0  0  0  0  0  0
  189.4360  176.3340  139.0140 C   0  0  0  0  0  2  0  0  0  0  0  0
  189.6850  177.5200  139.9260 C   0  0  0  0  0  2  0  0  0  0  0  0
  188.3940  177.9590  140.5260 C   0  0  0  0  0  3  0  0  0  0  0  0
  188.1630  178.0360  141.8050 N   0  0  0  0  0  0  0  0  0  0  0  0
  188.2910  177.5490  146.9750 C   0  0  0  0  0  0  0  0  0  0  0  0
  187.4080  177.8020  144.7140 C   0  0  0  0  0  3  0  0  0  0  0  0
  191.0520  177.4730  144.4820 C   0  0  0  0  0  3  0  0  0  0  0  0
  190.7570  177.6410  142.8240 S   0  0  0  0  0  0  0  0  0  0  0  0
  188.0150  177.4570  148.7010 Cl  0  0  0  0  0  0  0  0  0  0  0  0
  189.0740  177.7710  142.8860 C   0  0  0  0  0  0  0  0  0  0  0  0
  187.2030  177.7250  146.1000 C   0  0  0  0  0  3  0  0  0  0  0  0
  189.8010  177.5300  145.0940 C   0  0  0  0  0  0  0  0  0  0  0  0
  188.7100  177.7010  144.2200 C   0  0  0  0  0  0  0  0  0  0  0  0
  189.5980  177.4510  146.4730 C   0  0  0  0  0  3  0  0  0  0  0  0
  1  4  1  0  0  0  0
  1  2  1  0  0  0  0
  2 18  1  0  0  0  0
  3  1  2  0  0  0  0
  4  6  1  0  0  0  0
  6  5  2  0  0  0  0
  7 12  1  0  0  0  0
  8  5  1  0  0  0  0
  9  8  2  0  0  0  0
 11  4  2  0  0  0  0
 11  9  1  0  0  0  0
 12 11  1  0  0  0  0
 12 10  1  0  0  0  0
 13 14  1  0  0  0  0
 13  2  1  0  0  0  0
 14 15  1  6  0  0  0
 14 16  1  0  0  0  0
 16 17  1  0  0  0  0
 18 19  1  0  0  0  0
 19 20  1  0  0  0  0
 20 21  2  0  0  0  0
 21 27  1  0  0  0  0
 22 26  1  0  0  0  0
 23 28  2  0  0  0  0
 24 29  2  0  0  0  0
 25 27  1  0  0  0  0
 25 24  1  0  0  0  0
 27 30  2  0  0  0  0
 28 22  1  0  0  0  0
 29 31  1  0  0  0  0
 30 23  1  0  0  0  0
 30 29  1  0  0  0  0
 31 22  2  0  0  0  0
M  END
>  <MODEL>
5

>  <REMARK>
 VINA RESULT:      -6.4      5.301      7.826
  Name = 
  8 active torsions:
  status: ('A' for Active; 'I' for Inactive)
    1  A    between atoms: C_2  and  C_13
    2  A    between atoms: C_2  and  C_25
    3  A    between atoms: C_4  and  C_5
    4  A    between atoms: C_9  and  N_23
    5  A    between atoms: N_12  and  C_25
    6  A    between atoms: N_12  and  C_27
    7  A    between atoms: C_15  and  C_20
    8  A    between atoms: C_20  and  C_27
                            x       y       z     vdW  Elec       q    Type
                         _______ _______ _______ _____ _____    ______ ____

>  <TORSDO>
F 8

$$$$
=
 OpenBabel11052413103D

 31 33  0  0  1  0  0  0  0  0999 V2000
  190.3120  176.4960  136.4420 C   0  0  0  0  0  0  0  0  0  0  0  0
  189.2830  176.9380  137.3500 N   0  0  0  0  0  0  0  0  0  0  0  0
  190.2190  176.7560  135.2130 O   0  0  0  0  0  0  0  0  0  0  0  0
  191.4660  175.7070  136.9160 C   0  0  0  0  0  0  0  0  0  0  0  0
  193.6840  175.6770  137.8930 C   0  0  0  0  0  3  0  0  0  0  0  0
  192.5590  176.3820  137.4680 C   0  0  0  0  0  3  0  0  0  0  0  0
  189.1670  173.4520  136.8210 C   0  0  0  0  0  1  0  0  0  0  0  0
  193.7100  174.2900  137.7540 C   0  0  0  0  0  3  0  0  0  0  0  0
  192.6480  173.6400  137.2080 N   0  0  0  0  0  0  0  0  0  0  0  0
  190.7650  172.6710  135.0710 C   0  0  0  0  0  1  0  0  0  0  0  0
  191.5270  174.3000  136.7950 C   0  0  0  0  0  0  0  0  0  0  0  0
  190.4700  173.5540  136.1830 N   0  0  0  0  0  0  0  0  0  0  0  0
  188.0850  177.6040  136.8440 C   0  0  0  0  0  2  0  0  0  0  0  0
  186.8560  176.7630  137.1330 C   0  0  1  0  0  3  0  0  0  0  0  0
  185.6870  177.6740  137.4600 C   0  0  0  0  0  1  0  0  0  0  0  0
  186.5280  175.9260  135.9130 C   0  0  0  0  0  2  0  0  0  0  0  0
  186.7450  176.6680  134.7520 O   0  0  0  0  0  1  0  0  0  0  0  0
  189.3390  176.5820  138.7650 C   0  0  0  0  0  2  0  0  0  0  0  0
  189.5430  177.8140  139.6280 C   0  0  0  0  0  2  0  0  0  0  0  0
  188.2580  178.1650  140.2950 C   0  0  0  0  0  3  0  0  0  0  0  0
  188.0590  178.1190  141.5810 N   0  0  0  0  0  0  0  0  0  0  0  0
  188.3800  177.4170  146.7180 C   0  0  0  0  0  0  0  0  0  0  0  0
  187.4150  177.7920  144.5080 C   0  0  0  0  0  3  0  0  0  0  0  0
  191.0320  177.3480  144.1100 C   0  0  0  0  0  3  0  0  0  0  0  0
  190.6760  177.5940  142.4740 S   0  0  0  0  0  0  0  0  0  0  0  0
  188.1710  177.2640  148.4490 Cl  0  0  0  0  0  0  0  0  0  0  0  0
  189.0020  177.7790  142.6120 C   0  0  0  0  0  0  0  0  0  0  0  0
  187.2640  177.6660  145.8970 C   0  0  0  0  0  3  0  0  0  0  0  0
  189.8100  177.4230  144.7760 C   0  0  0  0  0  0  0  0  0  0  0  0
  188.6920  177.6670  143.9560 C   0  0  0  0  0  0  0  0  0  0  0  0
  189.6600  177.2950  146.1580 C   0  0  0  0  0  3  0  0  0  0  0  0
  1  4  1  0  0  0  0
  1  2  1  0  0  0  0
  2 18  1  0  0  0  0
  3  1  2  0  0  0  0
  4  6  1  0  0  0  0
  6  5  2  0  0  0  0
  8  5  1  0  0  0  0
  9  8  2  0  0  0  0
 10 12  1  0  0  0  0
 11  4  2  0  0  0  0
 11  9  1  0  0  0  0
 12 11  1  0  0  0  0
 12  7  1  0  0  0  0
 13 14  1  0  0  0  0
 13  2  1  0  0  0  0
 14 15  1  6  0  0  0
 16 14  1  0  0  0  0
 17 16  1  0  0  0  0
 18 19  1  0  0  0  0
 19 20  1  0  0  0  0
 20 21  2  0  0  0  0
 21 27  1  0  0  0  0
 22 26  1  0  0  0  0
 23 28  2  0  0  0  0
 24 29  2  0  0  0  0
 25 27  1  0  0  0  0
 25 24  1  0  0  0  0
 27 30  2  0  0  0  0
 28 22  1  0  0  0  0
 29 31  1  0  0  0  0
 30 23  1  0  0  0  0
 30 29  1  0  0  0  0
 31 22  2  0  0  0  0
M  END
>  <MODEL>
6

>  <REMARK>
 VINA RESULT:      -6.4      5.589      9.027
  Name = 
  8 active torsions:
  status: ('A' for Active; 'I' for Inactive)
    1  A    between atoms: C_2  and  C_13
    2  A    between atoms: C_2  and  C_25
    3  A    between atoms: C_4  and  C_5
    4  A    between atoms: C_9  and  N_23
    5  A    between atoms: N_12  and  C_25
    6  A    between atoms: N_12  and  C_27
    7  A    between atoms: C_15  and  C_20
    8  A    between atoms: C_20  and  C_27
                            x       y       z     vdW  Elec       q    Type
                         _______ _______ _______ _____ _____    ______ ____

>  <TORSDO>
F 8

$$$$
=
 OpenBabel11052413103D

 31 33  0  0  1  0  0  0  0  0999 V2000
  189.8410  176.2520  142.3940 C   0  0  0  0  0  0  0  0  0  0  0  0
  189.7690  176.7310  141.0370 N   0  0  0  0  0  0  0  0  0  0  0  0
  190.6490  175.3340  142.6950 O   0  0  0  0  0  0  0  0  0  0  0  0
  188.9560  176.7920  143.4460 C   0  0  0  0  0  0  0  0  0  0  0  0
  186.7460  176.8830  144.4360 C   0  0  0  0  0  3  0  0  0  0  0  0
  187.6240  176.3700  143.4830 C   0  0  0  0  0  3  0  0  0  0  0  0
  191.8590  177.4150  144.6950 C   0  0  0  0  0  1  0  0  0  0  0  0
  187.2100  177.8280  145.3500 C   0  0  0  0  0  3  0  0  0  0  0  0
  188.5050  178.2400  145.3040 N   0  0  0  0  0  0  0  0  0  0  0  0
  190.9370  179.7000  144.3000 C   0  0  0  0  0  1  0  0  0  0  0  0
  189.3920  177.7480  144.3920 C   0  0  0  0  0  0  0  0  0  0  0  0
  190.7260  178.2670  144.3710 N   0  0  0  0  0  0  0  0  0  0  0  0
  190.5590  176.0950  139.9850 C   0  0  0  0  0  2  0  0  0  0  0  0
  191.5070  177.1010  139.3600 C   0  0  1  0  0  3  0  0  0  0  0  0
  192.5710  177.4880  140.3710 C   0  0  0  0  0  1  0  0  0  0  0  0
  192.1590  176.4790  138.1420 C   0  0  0  0  0  2  0  0  0  0  0  0
  193.5450  176.4550  138.3020 O   0  0  0  0  0  1  0  0  0  0  0  0
  188.7870  177.7420  140.6570 C   0  0  0  0  0  2  0  0  0  0  0  0
  187.9610  177.2790  139.4710 C   0  0  0  0  0  2  0  0  0  0  0  0
  187.6460  178.4490  138.6040 C   0  0  0  0  0  3  0  0  0  0  0  0
  186.4540  178.9430  138.4380 N   0  0  0  0  0  0  0  0  0  0  0  0
  184.0470  178.8790  143.0400 C   0  0  0  0  0  0  0  0  0  0  0  0
  185.7120  179.3780  141.3270 C   0  0  0  0  0  3  0  0  0  0  0  0
  183.0180  177.4420  139.7680 C   0  0  0  0  0  3  0  0  0  0  0  0
  183.9770  177.6080  138.3830 S   0  0  0  0  0  0  0  0  0  0  0  0
  183.5120  178.9960  144.7030 Cl  0  0  0  0  0  0  0  0  0  0  0  0
  185.2260  178.5230  139.0580 C   0  0  0  0  0  0  0  0  0  0  0  0
  185.2680  179.4650  142.6550 C   0  0  0  0  0  3  0  0  0  0  0  0
  183.7000  178.1130  140.7810 C   0  0  0  0  0  0  0  0  0  0  0  0
  184.9200  178.7020  140.3960 C   0  0  0  0  0  0  0  0  0  0  0  0
  183.2580  178.2000  142.1010 C   0  0  0  0  0  3  0  0  0  0  0  0
  1  3  2  0  0  0  0
  1  4  1  0  0  0  0
  2  1  1  0  0  0  0
  4  6  2  0  0  0  0
  4 11  1  0  0  0  0
  5  8  2  0  0  0  0
  6  5  1  0  0  0  0
  9  8  1  0  0  0  0
 10 12  1  0  0  0  0
 11  9  2  0  0  0  0
 12 11  1  0  0  0  0
 12  7  1  0  0  0  0
 13  2  1  0  0  0  0
 14 13  1  0  0  0  0
 14 15  1  1  0  0  0
 16 17  1  0  0  0  0
 16 14  1  0  0  0  0
 18  2  1  0  0  0  0
 19 18  1  0  0  0  0
 20 19  1  0  0  0  0
 21 20  2  0  0  0  0
 21 27  1  0  0  0  0
 22 26  1  0  0  0  0
 23 28  2  0  0  0  0
 24 29  2  0  0  0  0
 25 27  1  0  0  0  0
 25 24  1  0  0  0  0
 27 30  2  0  0  0  0
 28 22  1  0  0  0  0
 29 31  1  0  0  0  0
 30 29  1  0  0  0  0
 30 23  1  0  0  0  0
 31 22  2  0  0  0  0
M  END
>  <MODEL>
7

>  <REMARK>
 VINA RESULT:      -6.4      4.351      8.036
  Name = 
  8 active torsions:
  status: ('A' for Active; 'I' for Inactive)
    1  A    between atoms: C_2  and  C_13
    2  A    between atoms: C_2  and  C_25
    3  A    between atoms: C_4  and  C_5
    4  A    between atoms: C_9  and  N_23
    5  A    between atoms: N_12  and  C_25
    6  A    between atoms: N_12  and  C_27
    7  A    between atoms: C_15  and  C_20
    8  A    between atoms: C_20  and  C_27
                            x       y       z     vdW  Elec       q    Type
                         _______ _______ _______ _____ _____    ______ ____

>  <TORSDO>
F 8

$$$$
=
 OpenBabel11052413103D

 31 33  0  0  1  0  0  0  0  0999 V2000
  189.0660  178.3970  138.9680 C   0  0  0  0  0  0  0  0  0  0  0  0
  188.5670  178.2940  140.3170 N   0  0  0  0  0  0  0  0  0  0  0  0
  188.7380  179.3780  138.2500 O   0  0  0  0  0  0  0  0  0  0  0  0
  189.9330  177.3520  138.3890 C   0  0  0  0  0  0  0  0  0  0  0  0
  192.0900  176.2460  138.3540 C   0  0  0  0  0  3  0  0  0  0  0  0
  191.2260  177.1950  138.8980 C   0  0  0  0  0  3  0  0  0  0  0  0
  187.0250  176.3440  137.4400 C   0  0  0  0  0  1  0  0  0  0  0  0
  191.6510  175.4570  137.2910 C   0  0  0  0  0  3  0  0  0  0  0  0
  190.3960  175.6200  136.7950 N   0  0  0  0  0  0  0  0  0  0  0  0
  188.1370  176.9030  135.2780 C   0  0  0  0  0  1  0  0  0  0  0  0
  189.5220  176.5310  137.3140 C   0  0  0  0  0  0  0  0  0  0  0  0
  188.2350  176.6810  136.7070 N   0  0  0  0  0  0  0  0  0  0  0  0
  187.6070  179.2700  140.8270 C   0  0  0  0  0  2  0  0  0  0  0  0
  186.2630  178.6070  141.0650 C   0  0  1  0  0  3  0  0  0  0  0  0
  185.5030  179.3770  142.1300 C   0  0  0  0  0  1  0  0  0  0  0  0
  185.4730  178.6070  139.7720 C   0  0  0  0  0  2  0  0  0  0  0  0
  184.7400  179.7880  139.6580 O   0  0  0  0  0  1  0  0  0  0  0  0
  188.8790  177.1270  141.1370 C   0  0  0  0  0  2  0  0  0  0  0  0
  189.9020  177.4700  142.2030 C   0  0  0  0  0  2  0  0  0  0  0  0
  190.5660  176.2200  142.6680 C   0  0  0  0  0  3  0  0  0  0  0  0
  190.6860  175.8690  143.9160 N   0  0  0  0  0  0  0  0  0  0  0  0
  186.3520  177.9940  145.8340 C   0  0  0  0  0  0  0  0  0  0  0  0
  187.8360  176.7530  144.3470 C   0  0  0  0  0  3  0  0  0  0  0  0
  189.8020  177.8990  147.2210 C   0  0  0  0  0  3  0  0  0  0  0  0
  191.0660  177.1220  146.4080 S   0  0  0  0  0  0  0  0  0  0  0  0
  184.7590  178.6260  146.1920 Cl  0  0  0  0  0  0  0  0  0  0  0  0
  190.1900  176.5530  145.0800 C   0  0  0  0  0  0  0  0  0  0  0  0
  186.5660  177.2640  144.6500 C   0  0  0  0  0  3  0  0  0  0  0  0
  188.6730  177.7150  146.4260 C   0  0  0  0  0  0  0  0  0  0  0  0
  188.8840  176.9810  145.2430 C   0  0  0  0  0  0  0  0  0  0  0  0
  187.4080  178.2220  146.7280 C   0  0  0  0  0  3  0  0  0  0  0  0
  1  2  1  0  0  0  0
  2 13  1  0  0  0  0
  2 18  1  0  0  0  0
  3  1  2  0  0  0  0
  4  6  1  0  0  0  0
  4  1  1  0  0  0  0
  5  6  2  0  0  0  0
  8  5  1  0  0  0  0
  9  8  2  0  0  0  0
  9 11  1  0  0  0  0
 10 12  1  0  0  0  0
 11  4  2  0  0  0  0
 12 11  1  0  0  0  0
 12  7  1  0  0  0  0
 13 14  1  0  0  0  0
 14 15  1  1  0  0  0
 16 14  1  0  0  0  0
 17 16  1  0  0  0  0
 18 19  1  0  0  0  0
 19 20  1  0  0  0  0
 20 21  2  0  0  0  0
 21 27  1  0  0  0  0
 22 26  1  0  0  0  0
 22 31  2  0  0  0  0
 23 28  2  0  0  0  0
 23 30  1  0  0  0  0
 25 24  1  0  0  0  0
 27 30  2  0  0  0  0
 27 25  1  0  0  0  0
 28 22  1  0  0  0  0
 29 31  1  0  0  0  0
 29 24  2  0  0  0  0
 30 29  1  0  0  0  0
M  END
>  <MODEL>
8

>  <REMARK>
 VINA RESULT:      -6.3      5.003      8.103
  Name = 
  8 active torsions:
  status: ('A' for Active; 'I' for Inactive)
    1  A    between atoms: C_2  and  C_13
    2  A    between atoms: C_2  and  C_25
    3  A    between atoms: C_4  and  C_5
    4  A    between atoms: C_9  and  N_23
    5  A    between atoms: N_12  and  C_25
    6  A    between atoms: N_12  and  C_27
    7  A    between atoms: C_15  and  C_20
    8  A    between atoms: C_20  and  C_27
                            x       y       z     vdW  Elec       q    Type
                         _______ _______ _______ _____ _____    ______ ____

>  <TORSDO>
F 8

$$$$
=
 OpenBabel11052413103D

 31 33  0  0  1  0  0  0  0  0999 V2000
  187.0920  177.8220  136.8850 C   0  0  0  0  0  0  0  0  0  0  0  0
  188.3030  177.4230  137.5560 N   0  0  0  0  0  0  0  0  0  0  0  0
  187.1510  178.3520  135.7440 O   0  0  0  0  0  0  0  0  0  0  0  0
  185.7710  177.6560  137.5230 C   0  0  0  0  0  0  0  0  0  0  0  0
  184.0610  178.5510  138.9900 C   0  0  0  0  0  3  0  0  0  0  0  0
  185.2870  178.6830  138.3390 C   0  0  0  0  0  3  0  0  0  0  0  0
  185.5980  175.4750  135.1590 C   0  0  0  0  0  1  0  0  0  0  0  0
  183.3260  177.3790  138.8240 C   0  0  0  0  0  3  0  0  0  0  0  0
  183.8050  176.3800  138.0350 N   0  0  0  0  0  0  0  0  0  0  0  0
  185.5310  174.0570  137.2110 C   0  0  0  0  0  1  0  0  0  0  0  0
  184.9950  176.4840  137.3740 C   0  0  0  0  0  0  0  0  0  0  0  0
  185.4590  175.3710  136.6030 N   0  0  0  0  0  0  0  0  0  0  0  0
  189.6070  177.7150  136.9640 C   0  0  0  0  0  2  0  0  0  0  0  0
  190.2380  176.4420  136.4320 C   0  0  1  0  0  3  0  0  0  0  0  0
  190.3400  176.5230  134.9200 C   0  0  0  0  0  1  0  0  0  0  0  0
  191.6210  176.2850  137.0320 C   0  0  0  0  0  2  0  0  0  0  0  0
  191.5280  175.7480  138.3150 O   0  0  0  0  0  1  0  0  0  0  0  0
  188.2570  176.8750  138.9080 C   0  0  0  0  0  2  0  0  0  0  0  0
  188.6310  177.9290  139.9340 C   0  0  0  0  0  2  0  0  0  0  0  0
  189.6910  177.3880  140.8310 C   0  0  0  0  0  3  0  0  0  0  0  0
  189.5760  177.2730  142.1220 N   0  0  0  0  0  0  0  0  0  0  0  0
  188.1280  177.6290  147.0980 C   0  0  0  0  0  0  0  0  0  0  0  0
  189.5540  177.3640  145.1360 C   0  0  0  0  0  3  0  0  0  0  0  0
  186.1340  178.0030  143.9800 C   0  0  0  0  0  3  0  0  0  0  0  0
  186.8420  177.8550  142.4500 S   0  0  0  0  0  0  0  0  0  0  0  0
  187.9470  177.6510  148.8390 Cl  0  0  0  0  0  0  0  0  0  0  0  0
  188.4350  177.5840  142.9410 C   0  0  0  0  0  0  0  0  0  0  0  0
  189.3930  177.3870  146.5290 C   0  0  0  0  0  3  0  0  0  0  0  0
  187.1720  177.8250  144.8930 C   0  0  0  0  0  0  0  0  0  0  0  0
  188.4380  177.5870  144.3250 C   0  0  0  0  0  0  0  0  0  0  0  0
  187.0110  177.8500  146.2790 C   0  0  0  0  0  3  0  0  0  0  0  0
  1  4  1  0  0  0  0
  1  2  1  0  0  0  0
  2 18  1  0  0  0  0
  3  1  2  0  0  0  0
  4  6  1  0  0  0  0
  6  5  2  0  0  0  0
  7 12  1  0  0  0  0
  8  5  1  0  0  0  0
  9  8  2  0  0  0  0
 11  4  2  0  0  0  0
 11  9  1  0  0  0  0
 12 10  1  0  0  0  0
 12 11  1  0  0  0  0
 13  2  1  0  0  0  0
 14 15  1  6  0  0  0
 14 13  1  0  0  0  0
 14 16  1  0  0  0  0
 16 17  1  0  0  0  0
 18 19  1  0  0  0  0
 19 20  1  0  0  0  0
 20 21  2  0  0  0  0
 21 27  1  0  0  0  0
 22 26  1  0  0  0  0
 23 28  2  0  0  0  0
 24 29  2  0  0  0  0
 25 27  1  0  0  0  0
 25 24  1  0  0  0  0
 27 30  2  0  0  0  0
 28 22  1  0  0  0  0
 29 31  1  0  0  0  0
 30 29  1  0  0  0  0
 30 23  1  0  0  0  0
 31 22  2  0  0  0  0
M  END
>  <MODEL>
9

>  <REMARK>
 VINA RESULT:      -6.3      4.100      6.657
  Name = 
  8 active torsions:
  status: ('A' for Active; 'I' for Inactive)
    1  A    between atoms: C_2  and  C_13
    2  A    between atoms: C_2  and  C_25
    3  A    between atoms: C_4  and  C_5
    4  A    between atoms: C_9  and  N_23
    5  A    between atoms: N_12  and  C_25
    6  A    between atoms: N_12  and  C_27
    7  A    between atoms: C_15  and  C_20
    8  A    between atoms: C_20  and  C_27
                            x       y       z     vdW  Elec       q    Type
                         _______ _______ _______ _____ _____    ______ ____

>  <TORSDO>
F 8

$$$$
