=
 OpenBabel11052413543D

 27 30  0  0  1  0  0  0  0  0999 V2000
  188.8550  177.0970  142.5690 C   0  0  2  0  0  3  0  0  0  0  0  0
  188.0480  178.4130  142.6810 C   0  0  1  0  0  3  0  0  0  0  0  0
  184.0380  178.7650  144.1320 C   0  0  0  0  0  2  0  0  0  0  0  0
  184.1520  178.8120  146.5140 O   0  0  0  0  0  0  0  0  0  0  0  0
  186.9600  178.4910  141.7010 N   0  0  0  0  0  2  0  0  0  0  0  0
  185.7800  177.3720  145.5930 C   0  0  0  0  0  3  0  0  0  0  0  0
  186.8860  177.3550  144.8330 C   0  0  0  0  0  3  0  0  0  0  0  0
  184.6750  178.3690  145.4590 C   0  0  0  0  0  0  0  0  0  0  0  0
  184.9800  179.3250  143.0530 C   0  0  0  0  0  2  0  0  0  0  0  0
  187.0740  178.4480  143.8450 C   0  0  2  0  0  3  0  0  0  0  0  0
  186.0250  178.2730  142.7980 C   0  0  2  0  0  3  0  0  0  0  0  0
  190.9310  175.7190  143.3810 C   0  0  1  0  0  3  0  0  0  0  0  0
  191.8040  177.8300  144.8870 O   0  0  0  0  0  0  0  0  0  0  0  0
  190.3170  174.5280  142.9940 O   0  0  0  0  0  1  0  0  0  0  0  0
  190.7350  179.1570  143.2530 C   0  0  0  0  0  1  0  0  0  0  0  0
  189.8830  176.8040  143.6850 C   0  0  1  0  0  3  0  0  0  0  0  0
  191.7790  176.6120  145.5930 C   0  0  0  0  0  2  0  0  0  0  0  0
  189.6710  178.5860  145.2860 O   0  0  0  0  0  1  0  0  0  0  0  0
  190.5310  178.0780  144.3080 C   0  0  1  0  0  0  0  0  0  0  0  0
  191.8070  175.4450  144.6070 C   0  0  0  0  0  2  0  0  0  0  0  0
  189.3100  176.7380  141.2200 N   0  0  0  0  0  2  0  0  0  0  0  0
  189.2890  178.1310  139.1610 C   0  0  2  0  0  3  0  0  0  0  0  0
  188.3040  177.1830  138.8530 O   0  0  0  0  0  1  0  0  0  0  0  0
  190.6850  177.5120  139.2820 C   0  0  1  0  0  3  0  0  0  0  0  0
  189.9040  177.8950  140.5450 C   0  0  2  0  0  3  0  0  0  0  0  0
  190.7330  176.0100  138.9930 C   0  0  0  0  0  2  0  0  0  0  0  0
  191.8270  175.7220  137.9850 C   0  0  0  0  0  1  0  0  0  0  0  0
  1 21  1  6  0  0  0
  2  1  1  6  0  0  0
  2 10  1  0  0  0  0
  3  8  1  0  0  0  0
  5  2  1  0  0  0  0
  5 11  1  0  0  0  0
  7  6  2  0  0  0  0
  8  6  1  0  0  0  0
  8  4  2  0  0  0  0
  9  3  1  0  0  0  0
 10  7  1  1  0  0  0
 11  9  1  1  0  0  0
 11 10  1  0  0  0  0
 12 14  1  1  0  0  0
 12 16  1  0  0  0  0
 12 20  1  0  0  0  0
 13 17  1  0  0  0  0
 16  1  1  6  0  0  0
 16 19  1  0  0  0  0
 19 15  1  6  0  0  0
 19 13  1  0  0  0  0
 19 18  1  0  0  0  0
 20 17  1  0  0  0  0
 22 23  1  1  0  0  0
 22 24  1  0  0  0  0
 22 25  1  0  0  0  0
 24 26  1  1  0  0  0
 24 25  1  0  0  0  0
 25 21  1  1  0  0  0
 27 26  1  0  0  0  0
M  END
>  <MODEL>
1

>  <REMARK>
 VINA RESULT:      -7.0      0.000      0.000
  Name = 
  5 active torsions:
  status: ('A' for Active; 'I' for Inactive)
    1  A    between atoms: C_1  and  C_2
    2  A    between atoms: C_1  and  N_15
    3  A    between atoms: C_1  and  C_18
    4  A    between atoms: C_7  and  C_25
    5  A    between atoms: N_15  and  C_27
                            x       y       z     vdW  Elec       q    Type
                         _______ _______ _______ _____ _____    ______ ____

>  <TORSDO>
F 5

$$$$
=
 OpenBabel11052413543D

 27 30  0  0  1  0  0  0  0  0999 V2000
  189.2800  177.5080  142.3720 C   0  0  2  0  0  3  0  0  0  0  0  0
  188.3190  178.7120  142.5280 C   0  0  1  0  0  3  0  0  0  0  0  0
  184.2840  178.5190  143.9380 C   0  0  0  0  0  2  0  0  0  0  0  0
  184.3710  178.4760  146.3210 O   0  0  0  0  0  0  0  0  0  0  0  0
  187.2380  178.7020  141.5380 N   0  0  0  0  0  2  0  0  0  0  0  0
  186.1680  177.2830  145.3630 C   0  0  0  0  0  3  0  0  0  0  0  0
  187.2750  177.4310  144.6180 C   0  0  0  0  0  3  0  0  0  0  0  0
  184.9520  178.1450  145.2560 C   0  0  0  0  0  0  0  0  0  0  0  0
  185.1610  179.2340  142.8960 C   0  0  0  0  0  2  0  0  0  0  0  0
  187.3380  178.5800  143.6790 C   0  0  2  0  0  3  0  0  0  0  0  0
  186.3270  178.3260  142.6110 C   0  0  2  0  0  3  0  0  0  0  0  0
  191.0260  175.8780  143.4500 C   0  0  1  0  0  3  0  0  0  0  0  0
  191.9330  177.8620  145.1000 O   0  0  0  0  0  0  0  0  0  0  0  0
  190.3280  174.7750  142.9580 O   0  0  0  0  0  1  0  0  0  0  0  0
  191.2860  179.3130  143.3530 C   0  0  0  0  0  1  0  0  0  0  0  0
  190.0910  177.0880  143.6190 C   0  0  1  0  0  3  0  0  0  0  0  0
  191.6530  176.6590  145.7750 C   0  0  0  0  0  2  0  0  0  0  0  0
  189.8780  178.8850  145.2030 O   0  0  0  0  0  1  0  0  0  0  0  0
  190.7980  178.2710  144.3500 C   0  0  1  0  0  0  0  0  0  0  0  0
  191.6750  175.4960  144.7830 C   0  0  0  0  0  2  0  0  0  0  0  0
  190.0330  177.4500  141.1130 N   0  0  0  0  0  2  0  0  0  0  0  0
  190.3160  176.2410  138.9600 C   0  0  2  0  0  3  0  0  0  0  0  0
  191.4820  177.0190  138.9870 O   0  0  0  0  0  1  0  0  0  0  0  0
  189.0460  177.0880  138.8470 C   0  0  1  0  0  3  0  0  0  0  0  0
  189.4400  176.4740  140.1950 C   0  0  2  0  0  3  0  0  0  0  0  0
  189.3020  178.5920  138.7310 C   0  0  0  0  0  2  0  0  0  0  0  0
  189.0640  179.0390  137.3040 C   0  0  0  0  0  1  0  0  0  0  0  0
  1 21  1  6  0  0  0
  2  1  1  6  0  0  0
  2 10  1  0  0  0  0
  3  8  1  0  0  0  0
  5  2  1  0  0  0  0
  5 11  1  0  0  0  0
  7  6  2  0  0  0  0
  8  6  1  0  0  0  0
  8  4  2  0  0  0  0
  9  3  1  0  0  0  0
 10  7  1  1  0  0  0
 11  9  1  1  0  0  0
 11 10  1  0  0  0  0
 12 14  1  1  0  0  0
 12 16  1  0  0  0  0
 12 20  1  0  0  0  0
 13 17  1  0  0  0  0
 16  1  1  6  0  0  0
 16 19  1  0  0  0  0
 19 15  1  6  0  0  0
 19 13  1  0  0  0  0
 19 18  1  0  0  0  0
 20 17  1  0  0  0  0
 22 23  1  1  0  0  0
 22 25  1  0  0  0  0
 24 26  1  1  0  0  0
 24 22  1  0  0  0  0
 24 25  1  0  0  0  0
 25 21  1  1  0  0  0
 27 26  1  0  0  0  0
M  END
>  <MODEL>
2

>  <REMARK>
 VINA RESULT:      -7.0      0.917      1.389
  Name = 
  5 active torsions:
  status: ('A' for Active; 'I' for Inactive)
    1  A    between atoms: C_1  and  C_2
    2  A    between atoms: C_1  and  N_15
    3  A    between atoms: C_1  and  C_18
    4  A    between atoms: C_7  and  C_25
    5  A    between atoms: N_15  and  C_27
                            x       y       z     vdW  Elec       q    Type
                         _______ _______ _______ _____ _____    ______ ____

>  <TORSDO>
F 5

$$$$
=
 OpenBabel11052413543D

 27 30  0  0  1  0  0  0  0  0999 V2000
  182.2470  178.2890  139.2530 C   0  0  2  0  0  3  0  0  0  0  0  0
  183.4370  177.7920  140.1090 C   0  0  1  0  0  3  0  0  0  0  0  0
  184.8870  179.6460  143.6830 C   0  0  0  0  0  2  0  0  0  0  0  0
  183.4920  178.9130  145.4730 O   0  0  0  0  0  0  0  0  0  0  0  0
  184.6080  178.6700  140.0100 N   0  0  0  0  0  2  0  0  0  0  0  0
  182.2660  179.2030  143.4770 C   0  0  0  0  0  3  0  0  0  0  0  0
  182.1230  178.7280  142.2300 C   0  0  0  0  0  3  0  0  0  0  0  0
  183.5470  179.1920  144.2480 C   0  0  0  0  0  0  0  0  0  0  0  0
  185.3800  178.9320  142.4130 C   0  0  0  0  0  2  0  0  0  0  0  0
  183.2920  178.0660  141.5960 C   0  0  2  0  0  3  0  0  0  0  0  0
  184.3190  179.1240  141.3640 C   0  0  2  0  0  3  0  0  0  0  0  0
  182.8150  176.5170  137.4080 C   0  0  1  0  0  3  0  0  0  0  0  0
  180.3990  175.2870  137.7770 O   0  0  0  0  0  0  0  0  0  0  0  0
  183.8250  177.3360  136.9040 O   0  0  0  0  0  1  0  0  0  0  0  0
  180.5850  176.0690  139.9970 C   0  0  0  0  0  1  0  0  0  0  0  0
  181.7440  177.3490  138.1350 C   0  0  1  0  0  3  0  0  0  0  0  0
  180.6930  175.5470  136.4250 C   0  0  0  0  0  2  0  0  0  0  0  0
  179.3520  177.2470  138.3600 O   0  0  0  0  0  1  0  0  0  0  0  0
  180.5090  176.4840  138.5340 C   0  0  1  0  0  0  0  0  0  0  0  0
  182.2010  175.7230  136.2510 C   0  0  0  0  0  2  0  0  0  0  0  0
  182.2760  179.7090  138.8810 N   0  0  0  0  0  2  0  0  0  0  0  0
  181.1380  181.4990  137.5860 C   0  0  2  0  0  3  0  0  0  0  0  0
  181.9790  182.2580  138.4110 O   0  0  0  0  0  1  0  0  0  0  0  0
  180.0610  180.7490  138.3730 C   0  0  1  0  0  3  0  0  0  0  0  0
  181.2860  179.9960  137.8400 C   0  0  2  0  0  3  0  0  0  0  0  0
  180.0830  181.0170  139.8790 C   0  0  0  0  0  2  0  0  0  0  0  0
  179.0360  180.1620  140.5630 C   0  0  0  0  0  1  0  0  0  0  0  0
  1 21  1  6  0  0  0
  2  1  1  6  0  0  0
  2 10  1  0  0  0  0
  3  8  1  0  0  0  0
  5  2  1  0  0  0  0
  5 11  1  0  0  0  0
  6  8  1  0  0  0  0
  7  6  2  0  0  0  0
  8  4  2  0  0  0  0
  9  3  1  0  0  0  0
 10  7  1  6  0  0  0
 11 10  1  0  0  0  0
 11  9  1  1  0  0  0
 12 14  1  6  0  0  0
 12 16  1  0  0  0  0
 13 19  1  0  0  0  0
 16 19  1  0  0  0  0
 16  1  1  1  0  0  0
 17 13  1  0  0  0  0
 18 19  1  0  0  0  0
 19 15  1  1  0  0  0
 20 17  1  0  0  0  0
 20 12  1  0  0  0  0
 22 25  1  0  0  0  0
 22 24  1  0  0  0  0
 22 23  1  1  0  0  0
 24 26  1  1  0  0  0
 25 24  1  0  0  0  0
 25 21  1  1  0  0  0
 26 27  1  0  0  0  0
M  END
>  <MODEL>
3

>  <REMARK>
 VINA RESULT:      -7.0      5.642      8.998
  Name = 
  5 active torsions:
  status: ('A' for Active; 'I' for Inactive)
    1  A    between atoms: C_1  and  C_2
    2  A    between atoms: C_1  and  N_15
    3  A    between atoms: C_1  and  C_18
    4  A    between atoms: C_7  and  C_25
    5  A    between atoms: N_15  and  C_27
                            x       y       z     vdW  Elec       q    Type
                         _______ _______ _______ _____ _____    ______ ____

>  <TORSDO>
F 5

$$$$
=
 OpenBabel11052413543D

 27 30  0  0  1  0  0  0  0  0999 V2000
  189.3340  177.5070  142.7350 C   0  0  2  0  0  3  0  0  0  0  0  0
  189.2740  176.5580  141.5140 C   0  0  1  0  0  3  0  0  0  0  0  0
  191.2360  177.1910  137.7640 C   0  0  0  0  0  2  0  0  0  0  0  0
  193.4950  176.4690  138.0190 O   0  0  0  0  0  0  0  0  0  0  0  0
  188.4910  177.1150  140.4060 N   0  0  0  0  0  2  0  0  0  0  0  0
  192.6730  177.4720  139.9920 C   0  0  0  0  0  3  0  0  0  0  0  0
  191.7690  177.3220  140.9720 C   0  0  0  0  0  3  0  0  0  0  0  0
  192.4970  176.9780  138.5920 C   0  0  0  0  0  0  0  0  0  0  0  0
  189.9200  176.6600  138.3590 C   0  0  0  0  0  2  0  0  0  0  0  0
  190.5410  176.5390  140.6780 C   0  0  2  0  0  3  0  0  0  0  0  0
  189.7440  177.3300  139.6950 C   0  0  2  0  0  3  0  0  0  0  0  0
  191.1330  175.8760  143.7210 C   0  0  1  0  0  3  0  0  0  0  0  0
  191.8980  177.7540  145.5590 O   0  0  0  0  0  0  0  0  0  0  0  0
  190.5050  174.7870  143.1190 O   0  0  0  0  0  1  0  0  0  0  0  0
  191.2220  179.3160  143.9230 C   0  0  0  0  0  1  0  0  0  0  0  0
  190.1340  177.0210  143.9650 C   0  0  1  0  0  3  0  0  0  0  0  0
  191.6630  176.4850  146.1210 C   0  0  0  0  0  2  0  0  0  0  0  0
  189.7920  178.6630  145.6880 O   0  0  0  0  0  1  0  0  0  0  0  0
  190.7630  178.1690  144.8130 C   0  0  1  0  0  0  0  0  0  0  0  0
  191.7670  175.4130  145.0360 C   0  0  0  0  0  2  0  0  0  0  0  0
  188.0860  178.2060  143.0650 N   0  0  0  0  0  2  0  0  0  0  0  0
  185.6210  177.9270  142.9060 C   0  0  2  0  0  3  0  0  0  0  0  0
  185.7560  179.2910  142.6150 O   0  0  0  0  0  1  0  0  0  0  0  0
  186.0290  177.5880  144.3420 C   0  0  1  0  0  3  0  0  0  0  0  0
  186.9730  177.2600  143.1800 C   0  0  2  0  0  3  0  0  0  0  0  0
  186.4460  178.8000  145.1790 C   0  0  0  0  0  2  0  0  0  0  0  0
  185.6530  178.8220  146.4700 C   0  0  0  0  0  1  0  0  0  0  0  0
  1 21  1  1  0  0  0
  2  1  1  1  0  0  0
  3  9  1  0  0  0  0
  3  8  1  0  0  0  0
  4  8  2  0  0  0  0
  5  2  1  0  0  0  0
  6  7  2  0  0  0  0
  8  6  1  0  0  0  0
 10  7  1  1  0  0  0
 10  2  1  0  0  0  0
 11  9  1  6  0  0  0
 11  5  1  0  0  0  0
 11 10  1  0  0  0  0
 12 14  1  1  0  0  0
 12 16  1  0  0  0  0
 12 20  1  0  0  0  0
 13 17  1  0  0  0  0
 16  1  1  6  0  0  0
 16 19  1  0  0  0  0
 19 15  1  6  0  0  0
 19 13  1  0  0  0  0
 19 18  1  0  0  0  0
 20 17  1  0  0  0  0
 22 23  1  1  0  0  0
 22 25  1  0  0  0  0
 22 24  1  0  0  0  0
 24 26  1  1  0  0  0
 25 21  1  1  0  0  0
 25 24  1  0  0  0  0
 26 27  1  0  0  0  0
M  END
>  <MODEL>
4

>  <REMARK>
 VINA RESULT:      -7.0      1.736      5.817
  Name = 
  5 active torsions:
  status: ('A' for Active; 'I' for Inactive)
    1  A    between atoms: C_1  and  C_2
    2  A    between atoms: C_1  and  N_15
    3  A    between atoms: C_1  and  C_18
    4  A    between atoms: C_7  and  C_25
    5  A    between atoms: N_15  and  C_27
                            x       y       z     vdW  Elec       q    Type
                         _______ _______ _______ _____ _____    ______ ____

>  <TORSDO>
F 5

$$$$
=
 OpenBabel11052413543D

 27 30  0  0  1  0  0  0  0  0999 V2000
  182.9090  179.0910  140.0770 C   0  0  2  0  0  3  0  0  0  0  0  0
  183.4420  179.0470  138.6240 C   0  0  1  0  0  3  0  0  0  0  0  0
  185.7310  175.8700  136.9000 C   0  0  0  0  0  2  0  0  0  0  0  0
  184.1910  174.1790  136.2230 O   0  0  0  0  0  0  0  0  0  0  0  0
  184.8980  179.2010  138.5540 N   0  0  0  0  0  2  0  0  0  0  0  0
  183.5020  175.2350  138.2180 C   0  0  0  0  0  3  0  0  0  0  0  0
  183.0870  176.4080  138.7200 C   0  0  0  0  0  3  0  0  0  0  0  0
  184.4310  175.0900  137.0560 C   0  0  0  0  0  0  0  0  0  0  0  0
  185.6220  177.4040  136.9140 C   0  0  0  0  0  2  0  0  0  0  0  0
  183.5060  177.6530  138.0260 C   0  0  2  0  0  3  0  0  0  0  0  0
  184.9800  177.7840  138.2200 C   0  0  2  0  0  3  0  0  0  0  0  0
  180.9770  180.5730  139.1080 C   0  0  1  0  0  3  0  0  0  0  0  0
  179.1570  179.3640  140.7550 O   0  0  0  0  0  0  0  0  0  0  0  0
  181.9030  181.4770  138.5900 O   0  0  0  0  0  1  0  0  0  0  0  0
  180.5830  177.4880  140.5940 C   0  0  0  0  0  1  0  0  0  0  0  0
  181.5630  179.8140  140.3110 C   0  0  1  0  0  3  0  0  0  0  0  0
  179.0840  180.7690  140.7790 C   0  0  0  0  0  2  0  0  0  0  0  0
  180.7120  178.9990  142.4070 O   0  0  0  0  0  1  0  0  0  0  0  0
  180.4860  178.9440  141.0300 C   0  0  1  0  0  0  0  0  0  0  0  0
  179.7120  181.3390  139.5070 C   0  0  0  0  0  2  0  0  0  0  0  0
  183.9130  179.3320  141.1200 N   0  0  0  0  0  2  0  0  0  0  0  0
  184.5820  178.4560  143.3470 C   0  0  2  0  0  3  0  0  0  0  0  0
  184.6860  179.8370  143.5600 O   0  0  0  0  0  1  0  0  0  0  0  0
  185.6000  177.9390  142.3270 C   0  0  1  0  0  3  0  0  0  0  0  0
  184.1340  178.1250  141.9200 C   0  0  2  0  0  3  0  0  0  0  0  0
  186.5510  179.0110  141.7920 C   0  0  0  0  0  2  0  0  0  0  0  0
  187.7610  178.3490  141.1650 C   0  0  0  0  0  1  0  0  0  0  0  0
  1 21  1  1  0  0  0
  2  1  1  1  0  0  0
  3  9  1  0  0  0  0
  3  8  1  0  0  0  0
  4  8  2  0  0  0  0
  5  2  1  0  0  0  0
  6  7  2  0  0  0  0
  8  6  1  0  0  0  0
 10 11  1  0  0  0  0
 10  2  1  0  0  0  0
 10  7  1  1  0  0  0
 11  9  1  6  0  0  0
 11  5  1  0  0  0  0
 12 14  1  1  0  0  0
 12 20  1  0  0  0  0
 12 16  1  0  0  0  0
 13 17  1  0  0  0  0
 13 19  1  0  0  0  0
 16  1  1  6  0  0  0
 16 19  1  0  0  0  0
 19 15  1  6  0  0  0
 19 18  1  0  0  0  0
 20 17  1  0  0  0  0
 22 23  1  6  0  0  0
 24 26  1  6  0  0  0
 24 22  1  0  0  0  0
 25 21  1  6  0  0  0
 25 24  1  0  0  0  0
 25 22  1  0  0  0  0
 27 26  1  0  0  0  0
M  END
>  <MODEL>
5

>  <REMARK>
 VINA RESULT:      -6.9      4.860      8.874
  Name = 
  5 active torsions:
  status: ('A' for Active; 'I' for Inactive)
    1  A    between atoms: C_1  and  C_2
    2  A    between atoms: C_1  and  N_15
    3  A    between atoms: C_1  and  C_18
    4  A    between atoms: C_7  and  C_25
    5  A    between atoms: N_15  and  C_27
                            x       y       z     vdW  Elec       q    Type
                         _______ _______ _______ _____ _____    ______ ____

>  <TORSDO>
F 5

$$$$
=
 OpenBabel11052413543D

 27 30  0  0  1  0  0  0  0  0999 V2000
  181.2330  179.4160  139.7230 C   0  0  2  0  0  3  0  0  0  0  0  0
  180.2580  180.0520  138.7030 C   0  0  1  0  0  3  0  0  0  0  0  0
  179.8170  184.2410  137.9490 C   0  0  0  0  0  2  0  0  0  0  0  0
  181.5580  184.8740  136.4470 O   0  0  0  0  0  0  0  0  0  0  0  0
  179.1490  180.7600  139.3500 N   0  0  0  0  0  2  0  0  0  0  0  0
  182.2820  183.2260  137.9740 C   0  0  0  0  0  3  0  0  0  0  0  0
  182.0940  181.9490  138.3380 C   0  0  0  0  0  3  0  0  0  0  0  0
  181.2260  184.1050  137.3850 C   0  0  0  0  0  0  0  0  0  0  0  0
  178.9930  182.9470  138.0720 C   0  0  0  0  0  2  0  0  0  0  0  0
  180.7720  181.3300  138.0640 C   0  0  2  0  0  3  0  0  0  0  0  0
  179.7810  182.0110  138.9480 C   0  0  2  0  0  3  0  0  0  0  0  0
  180.8210  177.1850  138.4120 C   0  0  1  0  0  3  0  0  0  0  0  0
  183.4280  176.4350  138.7710 O   0  0  0  0  0  0  0  0  0  0  0  0
  179.4430  177.3190  138.5780 O   0  0  0  0  0  1  0  0  0  0  0  0
  183.8660  178.7550  138.7860 C   0  0  0  0  0  1  0  0  0  0  0  0
  181.5830  177.9230  139.5260 C   0  0  1  0  0  3  0  0  0  0  0  0
  182.5050  175.4240  139.1030 C   0  0  0  0  0  2  0  0  0  0  0  0
  183.5920  177.5260  140.7870 O   0  0  0  0  0  1  0  0  0  0  0  0
  183.1140  177.6260  139.4780 C   0  0  1  0  0  0  0  0  0  0  0  0
  181.1730  175.6940  138.4030 C   0  0  0  0  0  2  0  0  0  0  0  0
  181.0420  179.8120  141.1230 N   0  0  0  0  0  2  0  0  0  0  0  0
  179.6750  179.2880  143.1310 C   0  0  2  0  0  3  0  0  0  0  0  0
  179.8390  180.6720  143.2730 O   0  0  0  0  0  1  0  0  0  0  0  0
  180.9930  178.5210  143.2630 C   0  0  1  0  0  3  0  0  0  0  0  0
  180.3740  178.7490  141.8790 C   0  0  2  0  0  3  0  0  0  0  0  0
  182.2040  179.4040  143.5720 C   0  0  0  0  0  2  0  0  0  0  0  0
  183.1970  178.6270  144.4120 C   0  0  0  0  0  1  0  0  0  0  0  0
  1 21  1  1  0  0  0
  2  5  1  0  0  0  0
  2  1  1  1  0  0  0
  3  9  1  0  0  0  0
  4  8  2  0  0  0  0
  6  7  2  0  0  0  0
  8  3  1  0  0  0  0
  8  6  1  0  0  0  0
 10  7  1  1  0  0  0
 10  2  1  0  0  0  0
 10 11  1  0  0  0  0
 11  9  1  6  0  0  0
 11  5  1  0  0  0  0
 12 14  1  1  0  0  0
 12 16  1  0  0  0  0
 13 17  1  0  0  0  0
 13 19  1  0  0  0  0
 16  1  1  6  0  0  0
 19 15  1  6  0  0  0
 19 16  1  0  0  0  0
 19 18  1  0  0  0  0
 20 12  1  0  0  0  0
 20 17  1  0  0  0  0
 22 24  1  0  0  0  0
 22 23  1  6  0  0  0
 24 26  1  6  0  0  0
 25 21  1  6  0  0  0
 25 22  1  0  0  0  0
 25 24  1  0  0  0  0
 26 27  1  0  0  0  0
M  END
>  <MODEL>
6

>  <REMARK>
 VINA RESULT:      -6.6      6.495      9.922
  Name = 
  5 active torsions:
  status: ('A' for Active; 'I' for Inactive)
    1  A    between atoms: C_1  and  C_2
    2  A    between atoms: C_1  and  N_15
    3  A    between atoms: C_1  and  C_18
    4  A    between atoms: C_7  and  C_25
    5  A    between atoms: N_15  and  C_27
                            x       y       z     vdW  Elec       q    Type
                         _______ _______ _______ _____ _____    ______ ____

>  <TORSDO>
F 5

$$$$
=
 OpenBabel11052413543D

 27 30  0  0  1  0  0  0  0  0999 V2000
  188.2930  177.8330  141.5690 C   0  0  2  0  0  3  0  0  0  0  0  0
  187.3660  179.0020  141.9800 C   0  0  1  0  0  3  0  0  0  0  0  0
  183.8420  178.6660  144.3860 C   0  0  0  0  0  2  0  0  0  0  0  0
  184.5460  178.6250  146.6640 O   0  0  0  0  0  0  0  0  0  0  0  0
  186.0650  178.9540  141.3040 N   0  0  0  0  0  2  0  0  0  0  0  0
  186.0730  177.4970  145.2610 C   0  0  0  0  0  3  0  0  0  0  0  0
  186.9430  177.6840  144.2570 C   0  0  0  0  0  3  0  0  0  0  0  0
  184.8420  178.3150  145.4810 C   0  0  0  0  0  0  0  0  0  0  0  0
  184.3950  179.4120  143.1590 C   0  0  0  0  0  2  0  0  0  0  0  0
  186.7210  178.8350  143.3450 C   0  0  2  0  0  3  0  0  0  0  0  0
  185.4770  178.5460  142.5730 C   0  0  2  0  0  3  0  0  0  0  0  0
  189.9610  178.8140  143.3360 C   0  0  1  0  0  3  0  0  0  0  0  0
  191.0100  176.3290  143.7970 O   0  0  0  0  0  0  0  0  0  0  0  0
  189.7650  180.1000  142.8350 O   0  0  0  0  0  1  0  0  0  0  0  0
  188.8580  175.5510  143.2180 C   0  0  0  0  0  1  0  0  0  0  0  0
  189.6750  177.7550  142.2570 C   0  0  1  0  0  3  0  0  0  0  0  0
  191.9890  177.3150  143.5710 C   0  0  0  0  0  2  0  0  0  0  0  0
  190.6190  175.6300  141.6430 O   0  0  0  0  0  1  0  0  0  0  0  0
  190.0750  176.3230  142.7280 C   0  0  1  0  0  0  0  0  0  0  0  0
  191.3990  178.6980  143.8490 C   0  0  0  0  0  2  0  0  0  0  0  0
  188.3110  177.5030  140.1390 N   0  0  0  0  0  2  0  0  0  0  0  0
  189.0540  178.8580  138.1920 C   0  0  2  0  0  3  0  0  0  0  0  0
  187.6780  178.7620  137.9420 O   0  0  0  0  0  1  0  0  0  0  0  0
  189.7640  177.5040  138.1060 C   0  0  1  0  0  3  0  0  0  0  0  0
  189.4590  178.1240  139.4750 C   0  0  2  0  0  3  0  0  0  0  0  0
  188.8500  176.3400  137.7160 C   0  0  0  0  0  2  0  0  0  0  0  0
  189.0920  175.9680  136.2670 C   0  0  0  0  0  1  0  0  0  0  0  0
  1 21  1  6  0  0  0
  2  1  1  6  0  0  0
  2 10  1  0  0  0  0
  3  8  1  0  0  0  0
  5  2  1  0  0  0  0
  5 11  1  0  0  0  0
  6  8  1  0  0  0  0
  7  6  2  0  0  0  0
  8  4  2  0  0  0  0
  9  3  1  0  0  0  0
 10  7  1  6  0  0  0
 11  9  1  1  0  0  0
 11 10  1  0  0  0  0
 12 14  1  6  0  0  0
 12 20  1  0  0  0  0
 16  1  1  1  0  0  0
 16 19  1  0  0  0  0
 16 12  1  0  0  0  0
 17 13  1  0  0  0  0
 17 20  1  0  0  0  0
 18 19  1  0  0  0  0
 19 15  1  1  0  0  0
 19 13  1  0  0  0  0
 22 23  1  1  0  0  0
 22 25  1  0  0  0  0
 24 26  1  1  0  0  0
 24 22  1  0  0  0  0
 24 25  1  0  0  0  0
 25 21  1  1  0  0  0
 27 26  1  0  0  0  0
M  END
>  <MODEL>
7

>  <REMARK>
 VINA RESULT:      -6.4      1.458      2.311
  Name = 
  5 active torsions:
  status: ('A' for Active; 'I' for Inactive)
    1  A    between atoms: C_1  and  C_2
    2  A    between atoms: C_1  and  N_15
    3  A    between atoms: C_1  and  C_18
    4  A    between atoms: C_7  and  C_25
    5  A    between atoms: N_15  and  C_27
                            x       y       z     vdW  Elec       q    Type
                         _______ _______ _______ _____ _____    ______ ____

>  <TORSDO>
F 5

$$$$
=
 OpenBabel11052413543D

 27 30  0  0  1  0  0  0  0  0999 V2000
  184.8710  176.8800  137.4380 C   0  0  2  0  0  3  0  0  0  0  0  0
  185.9700  177.5070  136.5470 C   0  0  1  0  0  3  0  0  0  0  0  0
  190.1900  177.1320  137.1510 C   0  0  0  0  0  2  0  0  0  0  0  0
  190.8510  175.0360  136.2250 O   0  0  0  0  0  0  0  0  0  0  0  0
  186.6760  178.6070  137.2130 N   0  0  0  0  0  2  0  0  0  0  0  0
  188.7130  174.9140  137.2190 C   0  0  0  0  0  3  0  0  0  0  0  0
  187.4550  175.3680  137.1100 C   0  0  0  0  0  3  0  0  0  0  0  0
  189.9290  175.6730  136.7960 C   0  0  0  0  0  0  0  0  0  0  0  0
  189.1230  178.1510  136.7150 C   0  0  0  0  0  2  0  0  0  0  0  0
  187.2400  176.6800  136.4490 C   0  0  2  0  0  3  0  0  0  0  0  0
  187.8250  177.7210  137.3440 C   0  0  2  0  0  3  0  0  0  0  0  0
  183.6510  176.3370  135.1830 C   0  0  1  0  0  3  0  0  0  0  0  0
  182.5640  174.0690  136.2610 O   0  0  0  0  0  0  0  0  0  0  0  0
  183.8220  177.6520  134.7520 O   0  0  0  0  0  1  0  0  0  0  0  0
  184.5070  174.0360  137.6020 C   0  0  0  0  0  1  0  0  0  0  0  0
  183.6520  176.2590  136.7200 C   0  0  1  0  0  3  0  0  0  0  0  0
  181.6230  174.8800  135.5990 C   0  0  0  0  0  2  0  0  0  0  0  0
  182.4760  174.9680  138.3730 O   0  0  0  0  0  1  0  0  0  0  0  0
  183.2660  174.8360  137.2290 C   0  0  1  0  0  0  0  0  0  0  0  0
  182.3390  175.7960  134.6070 C   0  0  0  0  0  2  0  0  0  0  0  0
  184.5390  177.6210  138.6610 N   0  0  0  0  0  2  0  0  0  0  0  0
  183.2820  179.7360  139.0130 C   0  0  2  0  0  3  0  0  0  0  0  0
  184.5540  180.1020  139.4710 O   0  0  0  0  0  1  0  0  0  0  0  0
  182.6270  178.6630  139.8870 C   0  0  1  0  0  3  0  0  0  0  0  0
  183.2370  178.2810  138.5330 C   0  0  2  0  0  3  0  0  0  0  0  0
  183.4610  178.2490  141.1020 C   0  0  0  0  0  2  0  0  0  0  0  0
  182.7350  178.6400  142.3730 C   0  0  0  0  0  1  0  0  0  0  0  0
  1 21  1  1  0  0  0
  2  5  1  0  0  0  0
  2  1  1  1  0  0  0
  4  8  2  0  0  0  0
  5 11  1  0  0  0  0
  7  6  2  0  0  0  0
  8  3  1  0  0  0  0
  8  6  1  0  0  0  0
  9  3  1  0  0  0  0
 10  2  1  0  0  0  0
 10  7  1  1  0  0  0
 10 11  1  0  0  0  0
 11  9  1  6  0  0  0
 12 14  1  1  0  0  0
 12 16  1  0  0  0  0
 13 19  1  0  0  0  0
 16 19  1  0  0  0  0
 16  1  1  6  0  0  0
 17 13  1  0  0  0  0
 19 15  1  1  0  0  0
 19 18  1  0  0  0  0
 20 12  1  0  0  0  0
 20 17  1  0  0  0  0
 22 23  1  1  0  0  0
 22 24  1  0  0  0  0
 24 26  1  1  0  0  0
 25 21  1  1  0  0  0
 25 22  1  0  0  0  0
 25 24  1  0  0  0  0
 26 27  1  0  0  0  0
M  END
>  <MODEL>
8

>  <REMARK>
 VINA RESULT:      -6.3      5.453      9.366
  Name = 
  5 active torsions:
  status: ('A' for Active; 'I' for Inactive)
    1  A    between atoms: C_1  and  C_2
    2  A    between atoms: C_1  and  N_15
    3  A    between atoms: C_1  and  C_18
    4  A    between atoms: C_7  and  C_25
    5  A    between atoms: N_15  and  C_27
                            x       y       z     vdW  Elec       q    Type
                         _______ _______ _______ _____ _____    ______ ____

>  <TORSDO>
F 5

$$$$
=
 OpenBabel11052413543D

 27 30  0  0  1  0  0  0  0  0999 V2000
  181.0880  178.7880  137.9800 C   0  0  2  0  0  3  0  0  0  0  0  0
  180.3160  180.0740  138.3580 C   0  0  1  0  0  3  0  0  0  0  0  0
  180.9390  183.9510  136.6570 C   0  0  0  0  0  2  0  0  0  0  0  0
  179.7390  184.0190  134.5970 O   0  0  0  0  0  0  0  0  0  0  0  0
  181.1440  181.0320  139.0980 N   0  0  0  0  0  2  0  0  0  0  0  0
  180.6640  181.8840  134.9960 C   0  0  0  0  0  3  0  0  0  0  0  0
  180.5980  180.8250  135.8170 C   0  0  0  0  0  3  0  0  0  0  0  0
  180.3770  183.2930  135.4030 C   0  0  0  0  0  0  0  0  0  0  0  0
  180.6320  183.2610  137.9970 C   0  0  0  0  0  2  0  0  0  0  0  0
  180.1250  181.0470  137.2080 C   0  0  2  0  0  3  0  0  0  0  0  0
  181.1700  181.8580  137.8980 C   0  0  2  0  0  3  0  0  0  0  0  0
  179.4220  177.5320  139.5660 C   0  0  1  0  0  3  0  0  0  0  0  0
  179.1070  175.5290  137.7290 O   0  0  0  0  0  0  0  0  0  0  0  0
  179.8720  178.2740  140.6580 O   0  0  0  0  0  1  0  0  0  0  0  0
  179.5470  177.2150  136.1360 C   0  0  0  0  0  1  0  0  0  0  0  0
  180.5050  177.4450  138.4770 C   0  0  1  0  0  3  0  0  0  0  0  0
  179.3770  175.0580  139.0280 C   0  0  0  0  0  2  0  0  0  0  0  0
  181.2440  175.7680  136.9200 O   0  0  0  0  0  1  0  0  0  0  0  0
  180.1040  176.4610  137.3360 C   0  0  1  0  0  0  0  0  0  0  0  0
  179.0190  176.1370  140.0510 C   0  0  0  0  0  2  0  0  0  0  0  0
  182.5520  178.8750  138.0540 N   0  0  0  0  0  2  0  0  0  0  0  0
  184.1730  179.0150  139.9320 C   0  0  2  0  0  3  0  0  0  0  0  0
  184.4660  180.1950  139.2370 O   0  0  0  0  0  1  0  0  0  0  0  0
  184.5120  177.7570  139.1280 C   0  0  1  0  0  3  0  0  0  0  0  0
  183.0540  178.2130  139.2600 C   0  0  2  0  0  3  0  0  0  0  0  0
  185.1450  178.0370  137.7630 C   0  0  0  0  0  2  0  0  0  0  0  0
  186.6530  177.9440  137.8750 C   0  0  0  0  0  1  0  0  0  0  0  0
  1 21  1  1  0  0  0
  2  1  1  6  0  0  0
  2  5  1  0  0  0  0
  3  9  1  0  0  0  0
  4  8  2  0  0  0  0
  6  8  1  0  0  0  0
  6  7  2  0  0  0  0
  8  3  1  0  0  0  0
 10  7  1  6  0  0  0
 10 11  1  0  0  0  0
 10  2  1  0  0  0  0
 11  9  1  1  0  0  0
 11  5  1  0  0  0  0
 12 20  1  0  0  0  0
 12 14  1  1  0  0  0
 13 17  1  0  0  0  0
 16  1  1  6  0  0  0
 16 12  1  0  0  0  0
 17 20  1  0  0  0  0
 18 19  1  0  0  0  0
 19 15  1  6  0  0  0
 19 13  1  0  0  0  0
 19 16  1  0  0  0  0
 22 23  1  6  0  0  0
 24 26  1  6  0  0  0
 24 25  1  0  0  0  0
 24 22  1  0  0  0  0
 25 21  1  6  0  0  0
 25 22  1  0  0  0  0
 26 27  1  0  0  0  0
M  END
>  <MODEL>
9

>  <REMARK>
 VINA RESULT:      -6.2      7.327     10.365
  Name = 
  5 active torsions:
  status: ('A' for Active; 'I' for Inactive)
    1  A    between atoms: C_1  and  C_2
    2  A    between atoms: C_1  and  N_15
    3  A    between atoms: C_1  and  C_18
    4  A    between atoms: C_7  and  C_25
    5  A    between atoms: N_15  and  C_27
                            x       y       z     vdW  Elec       q    Type
                         _______ _______ _______ _____ _____    ______ ____

>  <TORSDO>
F 5

$$$$
