=
 OpenBabel11052415293D

 37 44  0  0  1  0  0  0  0  0999 V2000
  180.5760  177.1270  139.7150 C   0  0  1  0  0  3  0  0  0  0  0  0
  185.0510  175.0070  136.1140 C   0  0  0  0  0  2  0  0  0  0  0  0
  185.1000  178.3590  139.2700 C   0  0  2  0  0  3  0  0  0  0  0  0
  179.3880  178.0360  139.3600 C   0  0  1  0  0  3  0  0  0  0  0  0
  182.9640  178.3570  142.4400 C   0  0  0  0  0  2  0  0  0  0  0  0
  185.5600  177.3740  136.8990 C   0  0  1  0  0  3  0  0  0  0  0  0
  184.3320  177.7460  140.4230 C   0  0  1  0  0  3  0  0  0  0  0  0
  178.9310  175.7760  138.4740 C   0  0  0  0  0  1  0  0  0  0  0  0
  184.5420  177.6460  138.0270 C   0  0  1  0  0  3  0  0  0  0  0  0
  184.2360  178.6610  141.6490 C   0  0  2  0  0  3  0  0  0  0  0  0
  186.9630  177.0300  137.3830 C   0  0  0  0  0  2  0  0  0  0  0  0
  179.7730  179.2950  138.8380 O   0  0  0  0  0  0  0  0  0  0  0  0
  183.7100  176.4800  138.5510 C   0  0  2  0  0  3  0  0  0  0  0  0
  182.9380  174.7290  137.4360 C   0  0  0  0  0  2  0  0  0  0  0  0
  187.0510  179.1530  140.5700 C   0  0  0  0  0  2  0  0  0  0  0  0
  179.8590  176.9680  138.3910 C   0  0  2  0  0  3  0  0  0  0  0  0
  187.4380  178.1280  138.3190 C   0  0  0  0  0  2  0  0  0  0  0  0
  182.7320  176.0980  137.6270 O   0  0  0  0  0  0  0  0  0  0  0  0
  180.5300  180.0140  139.7940 C   0  0  2  0  0  3  0  0  0  0  0  0
  181.7390  179.0620  141.8630 C   0  0  0  0  0  2  0  0  0  0  0  0
  186.5780  178.1070  139.5710 C   0  0  2  0  0  3  0  0  0  0  0  0
  183.1150  177.0090  139.8570 C   0  0  2  0  0  3  0  0  0  0  0  0
  185.0630  176.4870  135.7560 C   0  0  0  0  0  2  0  0  0  0  0  0
  185.4980  178.5230  142.4920 C   0  0  0  0  0  0  0  0  0  0  0  0
  183.6270  174.4740  136.1030 C   0  0  0  0  0  2  0  0  0  0  0  0
  181.7650  179.2370  140.3340 C   0  0  1  0  0  3  0  0  0  0  0  0
  181.8810  177.9040  139.5730 C   0  0  2  0  0  3  0  0  0  0  0  0
  186.7320  178.7440  141.9840 C   0  0  0  0  0  3  0  0  0  0  0  0
  184.7600  179.1800  144.8100 C   0  0  0  0  0  2  0  0  0  0  0  0
  185.3930  178.0980  143.9350 C   0  0  2  0  0  3  0  0  0  0  0  0
  186.7190  177.6230  144.4740 C   0  0  0  0  0  3  0  0  0  0  0  0
  188.3840  177.2570  146.2180 C   0  0  0  0  0  1  0  0  0  0  0  0
  186.1920  178.5090  146.7470 C   0  0  0  0  0  2  0  0  0  0  0  0
  187.0500  177.7420  145.7690 C   0  0  0  0  0  0  0  0  0  0  0  0
  184.7560  178.7040  146.2560 C   0  0  0  0  0  2  0  0  0  0  0  0
  179.6350  180.7130  140.8190 C   0  0  0  0  0  2  0  0  0  0  0  0
  178.9480  181.9070  140.1840 C   0  0  0  0  0  1  0  0  0  0  0  0
  3 21  1  0  0  0  0
  3  7  1  0  0  0  0
  4  1  1  0  0  0  0
  6 11  1  0  0  0  0
  6  9  1  0  0  0  0
  7 10  1  0  0  0  0
  9 13  1  0  0  0  0
  9  3  1  0  0  0  0
 10  5  1  0  0  0  0
 10 24  1  0  0  0  0
 11 17  1  0  0  0  0
 12  4  1  0  0  0  0
 12 19  1  0  0  0  0
 13 22  1  0  0  0  0
 14 18  1  0  0  0  0
 15 28  1  0  0  0  0
 16  8  1  0  0  0  0
 16  4  1  0  0  0  0
 16  1  1  0  0  0  0
 17 21  1  0  0  0  0
 18 13  1  0  0  0  0
 19 26  1  0  0  0  0
 19 36  1  0  0  0  0
 20  5  1  0  0  0  0
 21 15  1  0  0  0  0
 22  7  1  0  0  0  0
 23  2  1  0  0  0  0
 23  6  1  0  0  0  0
 24 30  1  0  0  0  0
 25  2  1  0  0  0  0
 25 14  1  0  0  0  0
 26 20  1  0  0  0  0
 27  1  1  0  0  0  0
 27 22  1  0  0  0  0
 27 26  1  0  0  0  0
 28 24  2  0  0  0  0
 29 35  1  0  0  0  0
 30 31  1  0  0  0  0
 30 29  1  0  0  0  0
 31 34  2  0  0  0  0
 34 32  1  0  0  0  0
 34 33  1  0  0  0  0
 35 33  1  0  0  0  0
 37 36  1  0  0  0  0
M  END
>  <MODEL>
1

>  <REMARK>
 VINA RESULT:      -8.6      0.000      0.000
  Name = 
  2 active torsions:
  status: ('A' for Active; 'I' for Inactive)
    1  A    between atoms: C_6  and  C_31
    2  A    between atoms: C_11  and  C_26
                            x       y       z     vdW  Elec       q    Type
                         _______ _______ _______ _____ _____    ______ ____

>  <TORSDO>
F 2

$$$$
=
 OpenBabel11052415293D

 37 44  0  0  1  0  0  0  0  0999 V2000
  181.4150  177.7400  137.9280 C   0  0  1  0  0  3  0  0  0  0  0  0
  186.2880  174.9500  135.4880 C   0  0  0  0  0  2  0  0  0  0  0  0
  186.0390  178.3510  138.5810 C   0  0  2  0  0  3  0  0  0  0  0  0
  180.4790  178.7890  137.3050 C   0  0  1  0  0  3  0  0  0  0  0  0
  183.2320  178.7170  141.1510 C   0  0  0  0  0  2  0  0  0  0  0  0
  186.9110  177.2490  136.3840 C   0  0  1  0  0  3  0  0  0  0  0  0
  184.9450  177.8760  139.5150 C   0  0  1  0  0  3  0  0  0  0  0  0
  179.9450  176.5860  136.3230 C   0  0  0  0  0  1  0  0  0  0  0  0
  185.7010  177.6840  137.2380 C   0  0  1  0  0  3  0  0  0  0  0  0
  184.6850  178.8280  140.6870 C   0  0  2  0  0  3  0  0  0  0  0  0
  188.1000  176.7360  137.1870 C   0  0  0  0  0  2  0  0  0  0  0  0
  181.1430  179.9710  136.8970 O   0  0  0  0  0  0  0  0  0  0  0  0
  184.6190  176.6530  137.5420 C   0  0  2  0  0  3  0  0  0  0  0  0
  183.9040  174.9900  136.2660 C   0  0  0  0  0  2  0  0  0  0  0  0
  187.7150  178.9140  140.3140 C   0  0  0  0  0  2  0  0  0  0  0  0
  181.0180  177.6420  136.4710 C   0  0  2  0  0  3  0  0  0  0  0  0
  188.4830  177.7870  138.2150 C   0  0  0  0  0  2  0  0  0  0  0  0
  183.8450  176.3800  136.4090 O   0  0  0  0  0  0  0  0  0  0  0  0
  181.7420  180.6100  138.0100 C   0  0  2  0  0  3  0  0  0  0  0  0
  182.2860  179.5620  140.3020 C   0  0  0  0  0  2  0  0  0  0  0  0
  187.3560  177.9130  139.2250 C   0  0  2  0  0  3  0  0  0  0  0  0
  183.8080  177.2920  138.6710 C   0  0  2  0  0  3  0  0  0  0  0  0
  186.5850  176.4060  135.1500 C   0  0  0  0  0  2  0  0  0  0  0  0
  185.6800  178.5470  141.8070 C   0  0  0  0  0  0  0  0  0  0  0  0
  184.8490  174.6100  135.1340 C   0  0  0  0  0  2  0  0  0  0  0  0
  182.6970  179.6900  138.8240 C   0  0  1  0  0  3  0  0  0  0  0  0
  182.8090  178.3340  138.1060 C   0  0  2  0  0  3  0  0  0  0  0  0
  187.0180  178.5900  141.6090 C   0  0  0  0  0  3  0  0  0  0  0  0
  184.3560  179.3010  143.8140 C   0  0  0  0  0  2  0  0  0  0  0  0
  185.1800  178.1790  143.1810 C   0  0  2  0  0  3  0  0  0  0  0  0
  186.3000  177.7110  144.0750 C   0  0  0  0  0  3  0  0  0  0  0  0
  187.4230  177.3940  146.2160 C   0  0  0  0  0  1  0  0  0  0  0  0
  185.1960  178.6890  146.0880 C   0  0  0  0  0  2  0  0  0  0  0  0
  186.2710  177.8760  145.4060 C   0  0  0  0  0  0  0  0  0  0  0  0
  183.9520  178.8800  145.2200 C   0  0  0  0  0  2  0  0  0  0  0  0
  180.7330  181.4490  138.7950 C   0  0  0  0  0  2  0  0  0  0  0  0
  180.3850  182.7070  138.0220 C   0  0  0  0  0  1  0  0  0  0  0  0
  1 27  1  0  0  0  0
  3 21  1  0  0  0  0
  3  7  1  0  0  0  0
  4  1  1  0  0  0  0
  6 11  1  0  0  0  0
  6  9  1  0  0  0  0
  7 10  1  0  0  0  0
  8 16  1  0  0  0  0
  9 13  1  0  0  0  0
  9  3  1  0  0  0  0
 10  5  1  0  0  0  0
 10 24  1  0  0  0  0
 11 17  1  0  0  0  0
 12  4  1  0  0  0  0
 12 19  1  0  0  0  0
 13 22  1  0  0  0  0
 14 18  1  0  0  0  0
 15 28  1  0  0  0  0
 16  4  1  0  0  0  0
 16  1  1  0  0  0  0
 17 21  1  0  0  0  0
 18 13  1  0  0  0  0
 19 36  1  0  0  0  0
 19 26  1  0  0  0  0
 20  5  1  0  0  0  0
 21 15  1  0  0  0  0
 22  7  1  0  0  0  0
 23  2  1  0  0  0  0
 23  6  1  0  0  0  0
 24 30  1  0  0  0  0
 25  2  1  0  0  0  0
 25 14  1  0  0  0  0
 26 20  1  0  0  0  0
 27 22  1  0  0  0  0
 27 26  1  0  0  0  0
 28 24  2  0  0  0  0
 29 35  1  0  0  0  0
 30 29  1  0  0  0  0
 30 31  1  0  0  0  0
 31 34  2  0  0  0  0
 34 33  1  0  0  0  0
 34 32  1  0  0  0  0
 35 33  1  0  0  0  0
 37 36  1  0  0  0  0
M  END
>  <MODEL>
2

>  <REMARK>
 VINA RESULT:      -8.5      1.407      1.589
  Name = 
  2 active torsions:
  status: ('A' for Active; 'I' for Inactive)
    1  A    between atoms: C_6  and  C_31
    2  A    between atoms: C_11  and  C_26
                            x       y       z     vdW  Elec       q    Type
                         _______ _______ _______ _____ _____    ______ ____

>  <TORSDO>
F 2

$$$$
=
 OpenBabel11052415293D

 37 44  0  0  1  0  0  0  0  0999 V2000
  181.2470  178.7070  140.4240 C   0  0  1  0  0  3  0  0  0  0  0  0
  179.6940  173.1390  138.4050 C   0  0  0  0  0  2  0  0  0  0  0  0
  182.4800  176.3080  136.5630 C   0  0  2  0  0  3  0  0  0  0  0  0
  180.4300  180.0100  140.4140 C   0  0  1  0  0  3  0  0  0  0  0  0
  184.6110  178.7420  138.6010 C   0  0  0  0  0  2  0  0  0  0  0  0
  180.5040  174.6070  136.4900 C   0  0  1  0  0  3  0  0  0  0  0  0
  183.2870  176.7800  137.7560 C   0  0  1  0  0  3  0  0  0  0  0  0
  179.5400  178.5460  142.1940 C   0  0  0  0  0  1  0  0  0  0  0  0
  181.1530  175.8300  137.1730 C   0  0  1  0  0  3  0  0  0  0  0  0
  184.3430  177.8320  137.4010 C   0  0  2  0  0  3  0  0  0  0  0  0
  181.4960  173.5740  135.9710 C   0  0  0  0  0  2  0  0  0  0  0  0
  180.0340  180.4220  139.1180 O   0  0  0  0  0  0  0  0  0  0  0  0
  181.3770  175.7850  138.6820 C   0  0  2  0  0  3  0  0  0  0  0  0
  180.1350  174.8030  140.2300 C   0  0  0  0  0  2  0  0  0  0  0  0
  184.3820  175.9090  135.0290 C   0  0  0  0  0  2  0  0  0  0  0  0
  179.7590  178.6800  140.7030 C   0  0  2  0  0  3  0  0  0  0  0  0
  182.4910  174.2690  135.0570 C   0  0  0  0  0  2  0  0  0  0  0  0
  180.1720  175.9110  139.3790 O   0  0  0  0  0  0  0  0  0  0  0  0
  181.1720  180.6800  138.3150 C   0  0  2  0  0  3  0  0  0  0  0  0
  183.5840  179.8650  138.7180 C   0  0  0  0  0  2  0  0  0  0  0  0
  183.3270  175.2280  135.8880 C   0  0  2  0  0  3  0  0  0  0  0  0
  182.3380  176.9450  138.9460 C   0  0  2  0  0  3  0  0  0  0  0  0
  179.3000  174.0030  137.2140 C   0  0  0  0  0  2  0  0  0  0  0  0
  185.6050  177.1430  136.8960 C   0  0  0  0  0  0  0  0  0  0  0  0
  179.1720  173.7510  139.6950 C   0  0  0  0  0  2  0  0  0  0  0  0
  182.1710  179.4910  138.2380 C   0  0  1  0  0  3  0  0  0  0  0  0
  181.5710  178.2910  138.9920 C   0  0  2  0  0  3  0  0  0  0  0  0
  185.5890  176.2930  135.8440 C   0  0  0  0  0  3  0  0  0  0  0  0
  187.6540  178.6030  137.0460 C   0  0  0  0  0  2  0  0  0  0  0  0
  186.9200  177.3790  137.5950 C   0  0  2  0  0  3  0  0  0  0  0  0
  187.7820  176.1410  137.5940 C   0  0  0  0  0  3  0  0  0  0  0  0
  189.8990  174.9320  137.5890 C   0  0  0  0  0  1  0  0  0  0  0  0
  189.8650  177.5070  137.4450 C   0  0  0  0  0  2  0  0  0  0  0  0
  189.1220  176.2020  137.6030 C   0  0  0  0  0  0  0  0  0  0  0  0
  188.9960  178.7280  137.7510 C   0  0  0  0  0  2  0  0  0  0  0  0
  181.7510  182.0710  138.5800 C   0  0  0  0  0  2  0  0  0  0  0  0
  181.1810  183.0720  137.5930 C   0  0  0  0  0  1  0  0  0  0  0  0
  1 16  1  0  0  0  0
  2 25  1  0  0  0  0
  3  9  1  0  0  0  0
  3  7  1  0  0  0  0
  4  1  1  0  0  0  0
  4 16  1  0  0  0  0
  5 20  1  0  0  0  0
  6  9  1  0  0  0  0
  6 23  1  0  0  0  0
  7 22  1  0  0  0  0
  9 13  1  0  0  0  0
 10  7  1  0  0  0  0
 10  5  1  0  0  0  0
 11  6  1  0  0  0  0
 12  4  1  0  0  0  0
 13 22  1  0  0  0  0
 13 18  1  0  0  0  0
 15 28  1  0  0  0  0
 15 21  1  0  0  0  0
 16  8  1  0  0  0  0
 17 21  1  0  0  0  0
 17 11  1  0  0  0  0
 18 14  1  0  0  0  0
 19 36  1  0  0  0  0
 19 12  1  0  0  0  0
 21  3  1  0  0  0  0
 22 27  1  0  0  0  0
 23  2  1  0  0  0  0
 24 10  1  0  0  0  0
 24 30  1  0  0  0  0
 25 14  1  0  0  0  0
 26 19  1  0  0  0  0
 26 20  1  0  0  0  0
 26 27  1  0  0  0  0
 27  1  1  0  0  0  0
 28 24  2  0  0  0  0
 29 30  1  0  0  0  0
 29 35  1  0  0  0  0
 31 30  1  0  0  0  0
 31 34  2  0  0  0  0
 32 34  1  0  0  0  0
 33 34  1  0  0  0  0
 33 35  1  0  0  0  0
 37 36  1  0  0  0  0
M  END
>  <MODEL>
3

>  <REMARK>
 VINA RESULT:      -7.0      3.514      5.472
  Name = 
  2 active torsions:
  status: ('A' for Active; 'I' for Inactive)
    1  A    between atoms: C_6  and  C_31
    2  A    between atoms: C_11  and  C_26
                            x       y       z     vdW  Elec       q    Type
                         _______ _______ _______ _____ _____    ______ ____

>  <TORSDO>
F 2

$$$$
=
 OpenBabel11052415293D

 37 44  0  0  1  0  0  0  0  0999 V2000
  180.9790  178.9570  140.2660 C   0  0  1  0  0  3  0  0  0  0  0  0
  180.5830  173.1520  138.3620 C   0  0  0  0  0  2  0  0  0  0  0  0
  183.3520  176.5600  136.9800 C   0  0  2  0  0  3  0  0  0  0  0  0
  180.0470  180.1450  139.9720 C   0  0  1  0  0  3  0  0  0  0  0  0
  184.6530  179.3330  139.2670 C   0  0  0  0  0  2  0  0  0  0  0  0
  181.6540  174.6210  136.5810 C   0  0  1  0  0  3  0  0  0  0  0  0
  183.7950  177.1840  138.2870 C   0  0  1  0  0  3  0  0  0  0  0  0
  178.9310  178.6620  141.6040 C   0  0  0  0  0  1  0  0  0  0  0  0
  181.9800  175.9460  137.3030 C   0  0  1  0  0  3  0  0  0  0  0  0
  184.7810  178.3430  138.1080 C   0  0  2  0  0  3  0  0  0  0  0  0
  182.8490  173.6990  136.3810 C   0  0  0  0  0  2  0  0  0  0  0  0
  179.9260  180.4440  138.5940 O   0  0  0  0  0  0  0  0  0  0  0  0
  181.8450  175.9980  138.8210 C   0  0  2  0  0  3  0  0  0  0  0  0
  180.3890  174.9390  140.1120 C   0  0  0  0  0  2  0  0  0  0  0  0
  185.5960  176.3340  135.9570 C   0  0  0  0  0  2  0  0  0  0  0  0
  179.4800  178.7550  140.1970 C   0  0  2  0  0  3  0  0  0  0  0  0
  183.9480  174.4710  135.6720 C   0  0  0  0  0  2  0  0  0  0  0  0
  180.5020  176.0030  139.2120 O   0  0  0  0  0  0  0  0  0  0  0  0
  181.1850  180.8070  138.0560 C   0  0  2  0  0  3  0  0  0  0  0  0
  183.5080  180.3220  139.0620 C   0  0  0  0  0  2  0  0  0  0  0  0
  184.4500  175.5650  136.5990 C   0  0  2  0  0  3  0  0  0  0  0  0
  182.5800  177.2810  139.2130 C   0  0  2  0  0  3  0  0  0  0  0  0
  180.3870  173.9030  137.0520 C   0  0  0  0  0  2  0  0  0  0  0  0
  186.1960  177.7960  137.9590 C   0  0  0  0  0  0  0  0  0  0  0  0
  179.7040  173.7510  139.4490 C   0  0  0  0  0  2  0  0  0  0  0  0
  182.3000  179.7500  138.2980 C   0  0  1  0  0  3  0  0  0  0  0  0
  181.6770  178.5200  138.9820 C   0  0  2  0  0  3  0  0  0  0  0  0
  186.5250  176.9040  136.9970 C   0  0  0  0  0  3  0  0  0  0  0  0
  188.5670  177.4370  138.7310 C   0  0  0  0  0  2  0  0  0  0  0  0
  187.2730  178.2280  138.9210 C   0  0  2  0  0  3  0  0  0  0  0  0
  186.7870  178.2060  140.3490 C   0  0  0  0  0  3  0  0  0  0  0  0
  187.0490  177.9600  142.7600 C   0  0  0  0  0  1  0  0  0  0  0  0
  189.0490  177.5580  141.1810 C   0  0  0  0  0  2  0  0  0  0  0  0
  187.6110  177.9760  141.3820 C   0  0  0  0  0  0  0  0  0  0  0  0
  189.5740  177.8820  139.7820 C   0  0  0  0  0  2  0  0  0  0  0  0
  181.5250  182.2700  138.3430 C   0  0  0  0  0  2  0  0  0  0  0  0
  180.8890  183.1690  137.3010 C   0  0  0  0  0  1  0  0  0  0  0  0
  2 25  1  0  0  0  0
  3  9  1  0  0  0  0
  3  7  1  0  0  0  0
  4 16  1  0  0  0  0
  4  1  1  0  0  0  0
  6 23  1  0  0  0  0
  6  9  1  0  0  0  0
  7 22  1  0  0  0  0
  9 13  1  0  0  0  0
 10  7  1  0  0  0  0
 10  5  1  0  0  0  0
 11  6  1  0  0  0  0
 12  4  1  0  0  0  0
 13 18  1  0  0  0  0
 13 22  1  0  0  0  0
 15 21  1  0  0  0  0
 15 28  1  0  0  0  0
 16  1  1  0  0  0  0
 16  8  1  0  0  0  0
 17 11  1  0  0  0  0
 17 21  1  0  0  0  0
 18 14  1  0  0  0  0
 19 26  1  0  0  0  0
 19 36  1  0  0  0  0
 19 12  1  0  0  0  0
 20  5  1  0  0  0  0
 21  3  1  0  0  0  0
 23  2  1  0  0  0  0
 24 10  1  0  0  0  0
 24 30  1  0  0  0  0
 25 14  1  0  0  0  0
 26 27  1  0  0  0  0
 26 20  1  0  0  0  0
 27 22  1  0  0  0  0
 27  1  1  0  0  0  0
 28 24  2  0  0  0  0
 29 30  1  0  0  0  0
 29 35  1  0  0  0  0
 30 31  1  0  0  0  0
 31 34  2  0  0  0  0
 33 34  1  0  0  0  0
 34 32  1  0  0  0  0
 35 33  1  0  0  0  0
 37 36  1  0  0  0  0
M  END
>  <MODEL>
4

>  <REMARK>
 VINA RESULT:      -6.3      1.980      4.268
  Name = 
  2 active torsions:
  status: ('A' for Active; 'I' for Inactive)
    1  A    between atoms: C_6  and  C_31
    2  A    between atoms: C_11  and  C_26
                            x       y       z     vdW  Elec       q    Type
                         _______ _______ _______ _____ _____    ______ ____

>  <TORSDO>
F 2

$$$$
=
 OpenBabel11052415293D

 37 44  0  0  1  0  0  0  0  0999 V2000
  183.3590  179.3810  141.0860 C   0  0  1  0  0  3  0  0  0  0  0  0
  185.9720  176.5700  136.3160 C   0  0  0  0  0  2  0  0  0  0  0  0
  181.6430  178.0130  136.9190 C   0  0  2  0  0  3  0  0  0  0  0  0
  182.9210  178.7980  142.4400 C   0  0  1  0  0  3  0  0  0  0  0  0
  180.6690  181.0900  138.9690 C   0  0  0  0  0  2  0  0  0  0  0  0
  183.4490  176.2390  136.2950 C   0  0  1  0  0  3  0  0  0  0  0  0
  181.8290  179.3880  137.5290 C   0  0  1  0  0  3  0  0  0  0  0  0
  185.3850  178.9880  142.4320 C   0  0  0  0  0  1  0  0  0  0  0  0
  182.9080  177.2440  137.3330 C   0  0  1  0  0  3  0  0  0  0  0  0
  180.5100  180.1220  137.7950 C   0  0  2  0  0  3  0  0  0  0  0  0
  183.2920  176.6800  134.8450 C   0  0  0  0  0  2  0  0  0  0  0  0
  181.9620  177.7630  142.3280 O   0  0  0  0  0  0  0  0  0  0  0  0
  183.8650  178.2880  137.9010 C   0  0  2  0  0  3  0  0  0  0  0  0
  186.0330  178.0900  138.3100 C   0  0  0  0  0  2  0  0  0  0  0  0
  180.0300  178.6620  135.1560 C   0  0  0  0  0  2  0  0  0  0  0  0
  184.1970  178.3230  141.7710 C   0  0  2  0  0  3  0  0  0  0  0  0
  181.8330  177.0190  134.5950 C   0  0  0  0  0  2  0  0  0  0  0  0
  184.7760  177.7100  138.7910 O   0  0  0  0  0  0  0  0  0  0  0  0
  180.7780  178.2500  141.7240 C   0  0  2  0  0  3  0  0  0  0  0  0
  180.5140  180.3960  140.3190 C   0  0  0  0  0  2  0  0  0  0  0  0
  181.4700  178.2440  135.4160 C   0  0  2  0  0  3  0  0  0  0  0  0
  182.9430  179.3050  138.5750 C   0  0  2  0  0  3  0  0  0  0  0  0
  184.8140  175.6260  136.6130 C   0  0  0  0  0  2  0  0  0  0  0  0
  180.0430  180.8160  136.5220 C   0  0  0  0  0  0  0  0  0  0  0  0
  186.7070  176.9230  137.5990 C   0  0  0  0  0  2  0  0  0  0  0  0
  181.0110  178.9400  140.3490 C   0  0  1  0  0  3  0  0  0  0  0  0
  182.4970  178.7980  139.9700 C   0  0  2  0  0  3  0  0  0  0  0  0
  179.8420  180.1420  135.3660 C   0  0  0  0  0  3  0  0  0  0  0  0
  179.7220  182.8730  135.1020 C   0  0  0  0  0  2  0  0  0  0  0  0
  179.8180  182.3070  136.5190 C   0  0  2  0  0  3  0  0  0  0  0  0
  180.8410  183.0270  137.3600 C   0  0  0  0  0  3  0  0  0  0  0  0
  182.2580  184.9160  137.9670 C   0  0  0  0  0  1  0  0  0  0  0  0
  180.8060  185.0030  135.8370 C   0  0  0  0  0  2  0  0  0  0  0  0
  181.2330  184.2820  137.0930 C   0  0  0  0  0  0  0  0  0  0  0  0
  179.5670  184.3850  135.1860 C   0  0  0  0  0  2  0  0  0  0  0  0
  179.8810  178.9720  142.7300 C   0  0  0  0  0  2  0  0  0  0  0  0
  179.9080  178.2520  144.0650 C   0  0  0  0  0  1  0  0  0  0  0  0
  1 16  1  0  0  0  0
  1  4  1  0  0  0  0
  2 23  1  0  0  0  0
  2 25  1  0  0  0  0
  3  9  1  0  0  0  0
  3  7  1  0  0  0  0
  5 20  1  0  0  0  0
  6 23  1  0  0  0  0
  6  9  1  0  0  0  0
  7 10  1  0  0  0  0
  7 22  1  0  0  0  0
  9 13  1  0  0  0  0
 10  5  1  0  0  0  0
 11  6  1  0  0  0  0
 12  4  1  0  0  0  0
 13 22  1  0  0  0  0
 13 18  1  0  0  0  0
 14 18  1  0  0  0  0
 15 28  1  0  0  0  0
 15 21  1  0  0  0  0
 16  8  1  0  0  0  0
 16  4  1  0  0  0  0
 17 11  1  0  0  0  0
 17 21  1  0  0  0  0
 19 12  1  0  0  0  0
 19 36  1  0  0  0  0
 20 26  1  0  0  0  0
 21  3  1  0  0  0  0
 22 27  1  0  0  0  0
 24 10  1  0  0  0  0
 25 14  1  0  0  0  0
 26 19  1  0  0  0  0
 27 26  1  0  0  0  0
 27  1  1  0  0  0  0
 28 24  2  0  0  0  0
 29 35  1  0  0  0  0
 29 30  1  0  0  0  0
 30 24  1  0  0  0  0
 30 31  1  0  0  0  0
 33 34  1  0  0  0  0
 34 31  2  0  0  0  0
 34 32  1  0  0  0  0
 35 33  1  0  0  0  0
 36 37  1  0  0  0  0
M  END
>  <MODEL>
5

>  <REMARK>
 VINA RESULT:      -6.2      2.922      6.901
  Name = 
  2 active torsions:
  status: ('A' for Active; 'I' for Inactive)
    1  A    between atoms: C_6  and  C_31
    2  A    between atoms: C_11  and  C_26
                            x       y       z     vdW  Elec       q    Type
                         _______ _______ _______ _____ _____    ______ ____

>  <TORSDO>
F 2

$$$$
=
 OpenBabel11052415293D

 37 44  0  0  1  0  0  0  0  0999 V2000
  181.1060  177.5810  139.0340 C   0  0  1  0  0  3  0  0  0  0  0  0
  183.5530  173.0760  135.6870 C   0  0  0  0  0  2  0  0  0  0  0  0
  185.2530  177.1970  136.8360 C   0  0  2  0  0  3  0  0  0  0  0  0
  180.0110  178.5920  138.6550 C   0  0  1  0  0  3  0  0  0  0  0  0
  184.4900  178.9970  140.1220 C   0  0  0  0  0  2  0  0  0  0  0  0
  184.6450  175.3090  135.1430 C   0  0  1  0  0  3  0  0  0  0  0  0
  184.8990  177.3090  138.3050 C   0  0  1  0  0  3  0  0  0  0  0  0
  178.9430  176.3990  139.0500 C   0  0  0  0  0  1  0  0  0  0  0  0
  184.1750  176.2640  136.2600 C   0  0  1  0  0  3  0  0  0  0  0  0
  185.4000  178.6020  138.9580 C   0  0  2  0  0  3  0  0  0  0  0  0
  186.0640  174.7830  135.3160 C   0  0  0  0  0  2  0  0  0  0  0  0
  180.3430  179.3950  137.5370 O   0  0  0  0  0  0  0  0  0  0  0  0
  183.4470  175.6720  137.4630 C   0  0  2  0  0  3  0  0  0  0  0  0
  182.0760  173.9340  137.5240 C   0  0  0  0  0  2  0  0  0  0  0  0
  187.6410  177.8210  137.0350 C   0  0  0  0  0  2  0  0  0  0  0  0
  179.9290  177.1520  138.1840 C   0  0  2  0  0  3  0  0  0  0  0  0
  187.0050  175.9640  135.4810 C   0  0  0  0  0  2  0  0  0  0  0  0
  182.1500  175.2720  137.1250 O   0  0  0  0  0  0  0  0  0  0  0  0
  181.4970  180.1690  137.8110 C   0  0  2  0  0  3  0  0  0  0  0  0
  183.2500  179.7550  139.6570 C   0  0  0  0  0  2  0  0  0  0  0  0
  186.6850  176.6610  136.7920 C   0  0  2  0  0  3  0  0  0  0  0  0
  183.4680  176.7990  138.4980 C   0  0  2  0  0  3  0  0  0  0  0  0
  183.6360  174.2430  134.7120 C   0  0  0  0  0  2  0  0  0  0  0  0
  186.8540  178.4320  139.3830 C   0  0  0  0  0  0  0  0  0  0  0  0
  182.1700  173.0120  136.3160 C   0  0  0  0  0  2  0  0  0  0  0  0
  182.7220  179.3300  138.2750 C   0  0  1  0  0  3  0  0  0  0  0  0
  182.3560  177.8370  138.1980 C   0  0  2  0  0  3  0  0  0  0  0  0
  187.8240  178.0820  138.5070 C   0  0  0  0  0  3  0  0  0  0  0  0
  188.3060  177.6280  141.2790 C   0  0  0  0  0  2  0  0  0  0  0  0
  187.2410  178.6280  140.8270 C   0  0  2  0  0  3  0  0  0  0  0  0
  186.0350  178.6360  141.7320 C   0  0  0  0  0  3  0  0  0  0  0  0
  184.8540  178.2530  143.8300 C   0  0  0  0  0  1  0  0  0  0  0  0
  187.3280  177.5660  143.5790 C   0  0  0  0  0  2  0  0  0  0  0  0
  186.0940  178.2230  143.0070 C   0  0  0  0  0  0  0  0  0  0  0  0
  188.5880  177.8460  142.7590 C   0  0  0  0  0  2  0  0  0  0  0  0
  181.1600  181.4260  138.6140 C   0  0  0  0  0  2  0  0  0  0  0  0
  181.0890  182.6310  137.6950 C   0  0  0  0  0  1  0  0  0  0  0  0
  2 25  1  0  0  0  0
  3  7  1  0  0  0  0
  4  1  1  0  0  0  0
  6 11  1  0  0  0  0
  6  9  1  0  0  0  0
  7 22  1  0  0  0  0
  7 10  1  0  0  0  0
  9  3  1  0  0  0  0
  9 13  1  0  0  0  0
 10 24  1  0  0  0  0
 10  5  1  0  0  0  0
 11 17  1  0  0  0  0
 12 19  1  0  0  0  0
 12  4  1  0  0  0  0
 13 22  1  0  0  0  0
 15 28  1  0  0  0  0
 16  4  1  0  0  0  0
 16  1  1  0  0  0  0
 16  8  1  0  0  0  0
 17 21  1  0  0  0  0
 18 13  1  0  0  0  0
 18 14  1  0  0  0  0
 19 26  1  0  0  0  0
 19 36  1  0  0  0  0
 20  5  1  0  0  0  0
 21  3  1  0  0  0  0
 21 15  1  0  0  0  0
 23  6  1  0  0  0  0
 23  2  1  0  0  0  0
 24 30  1  0  0  0  0
 25 14  1  0  0  0  0
 26 20  1  0  0  0  0
 27 26  1  0  0  0  0
 27 22  1  0  0  0  0
 27  1  1  0  0  0  0
 28 24  2  0  0  0  0
 29 35  1  0  0  0  0
 30 29  1  0  0  0  0
 30 31  1  0  0  0  0
 31 34  2  0  0  0  0
 34 33  1  0  0  0  0
 34 32  1  0  0  0  0
 35 33  1  0  0  0  0
 37 36  1  0  0  0  0
M  END
>  <MODEL>
6

>  <REMARK>
 VINA RESULT:      -6.1      1.561      2.855
  Name = 
  2 active torsions:
  status: ('A' for Active; 'I' for Inactive)
    1  A    between atoms: C_6  and  C_31
    2  A    between atoms: C_11  and  C_26
                            x       y       z     vdW  Elec       q    Type
                         _______ _______ _______ _____ _____    ______ ____

>  <TORSDO>
F 2

$$$$
