=
 OpenBabel11052413413D

 27 31  0  0  1  0  0  0  0  0999 V2000
  188.3130  176.7150  144.9920 O   0  0  0  0  0  0  0  0  0  0  0  0
  186.2770  177.9940  145.2310 C   0  0  0  0  0  0  0  0  0  0  0  0
  186.9860  177.6270  142.7900 C   0  0  0  0  0  2  0  0  0  0  0  0
  182.3700  179.0120  144.0360 C   0  0  0  0  0  3  0  0  0  0  0  0
  182.9010  178.6930  141.7520 C   0  0  0  0  0  3  0  0  0  0  0  0
  185.2950  178.3670  146.1590 C   0  0  0  0  0  3  0  0  0  0  0  0
  184.2180  178.3550  142.0700 C   0  0  0  0  0  0  0  0  0  0  0  0
  189.7830  177.4430  141.1610 C   0  0  0  0  0  2  0  0  0  0  0  0
  185.0530  178.0520  141.0460 F   0  0  0  0  0  0  0  0  0  0  0  0
  190.7340  176.7920  142.1520 C   0  0  0  0  0  2  0  0  0  0  0  0
  184.6330  178.3400  143.4270 C   0  0  0  0  0  0  0  0  0  0  0  0
  187.6880  177.7220  145.7430 C   0  0  1  0  0  3  0  0  0  0  0  0
  182.0130  179.0110  142.7270 N   0  0  0  0  0  0  0  0  0  0  0  0
  183.6720  178.6800  144.4110 C   0  0  0  0  0  0  0  0  0  0  0  0
  189.1610  177.3410  144.0600 C   0  0  1  0  0  3  0  0  0  0  0  0
  185.9570  178.0090  143.8360 C   0  0  0  0  0  0  0  0  0  0  0  0
  189.1090  178.6360  141.8200 C   0  0  0  0  0  2  0  0  0  0  0  0
  184.0090  178.6980  145.7580 C   0  0  0  0  0  3  0  0  0  0  0  0
  190.7960  175.6100  144.2050 F   0  0  0  0  0  0  0  0  0  0  0  0
  189.9370  176.2410  143.3250 C   0  0  2  0  0  3  0  0  0  0  0  0
  188.3490  178.2340  143.0860 C   0  0  1  0  0  3  0  0  0  0  0  0
  190.5610  177.6790  147.9900 C   0  0  0  0  0  3  0  0  0  0  0  0
  187.7800  177.4180  147.2510 C   0  0  2  0  0  3  0  0  0  0  0  0
  188.2430  178.6350  148.0580 C   0  0  0  0  0  2  0  0  0  0  0  0
  189.7390  178.7060  148.2500 C   0  0  0  0  0  3  0  0  0  0  0  0
  190.0840  176.3870  147.3830 C   0  0  0  0  0  2  0  0  0  0  0  0
  188.5910  176.1640  147.6040 C   0  0  0  0  0  2  0  0  0  0  0  0
  2 12  1  0  0  0  0
  2  6  1  0  0  0  0
  3 21  1  0  0  0  0
  3 16  1  0  0  0  0
  4 14  1  0  0  0  0
  5  7  2  0  0  0  0
  5 13  1  0  0  0  0
  7 11  1  0  0  0  0
  8 17  1  0  0  0  0
  8 10  1  0  0  0  0
  9  7  1  0  0  0  0
 10 20  1  0  0  0  0
 11 16  1  0  0  0  0
 11 14  2  0  0  0  0
 12  1  1  6  0  0  0
 12 23  1  0  0  0  0
 13  4  2  0  0  0  0
 14 18  1  0  0  0  0
 15  1  1  1  0  0  0
 16  2  2  0  0  0  0
 18  6  2  0  0  0  0
 20 15  1  0  0  0  0
 20 19  1  1  0  0  0
 21 17  1  6  0  0  0
 21 15  1  0  0  0  0
 22 25  2  0  0  0  0
 23 27  1  6  0  0  0
 23 24  1  0  0  0  0
 24 25  1  0  0  0  0
 26 27  1  0  0  0  0
 26 22  1  0  0  0  0
M  END
>  <MODEL>
1

>  <REMARK>
 VINA RESULT:      -9.6      0.000      0.000
  Name = 
  1 active torsions:
  status: ('A' for Active; 'I' for Inactive)
    1  A    between atoms: C_9  and  C_15
                            x       y       z     vdW  Elec       q    Type
                         _______ _______ _______ _____ _____    ______ ____

>  <TORSDO>
F 1

$$$$
=
 OpenBabel11052413413D

 27 31  0  0  1  0  0  0  0  0999 V2000
  189.1630  178.3840  140.8810 O   0  0  0  0  0  0  0  0  0  0  0  0
  186.7930  178.3330  141.3490 C   0  0  0  0  0  0  0  0  0  0  0  0
  188.2600  177.8090  143.3910 C   0  0  0  0  0  2  0  0  0  0  0  0
  183.4780  179.1230  143.8240 C   0  0  0  0  0  3  0  0  0  0  0  0
  184.7330  178.6760  145.7810 C   0  0  0  0  0  3  0  0  0  0  0  0
  185.5420  178.6790  140.8200 C   0  0  0  0  0  3  0  0  0  0  0  0
  185.8730  178.3880  145.0260 C   0  0  0  0  0  0  0  0  0  0  0  0
  191.0680  176.2790  143.9330 C   0  0  0  0  0  2  0  0  0  0  0  0
  186.9970  178.0340  145.6950 F   0  0  0  0  0  0  0  0  0  0  0  0
  191.8820  176.5700  142.6840 C   0  0  0  0  0  2  0  0  0  0  0  0
  185.8190  178.4730  143.6100 C   0  0  0  0  0  0  0  0  0  0  0  0
  187.9160  177.9820  140.3790 C   0  0  1  0  0  3  0  0  0  0  0  0
  183.5740  179.0330  145.1750 N   0  0  0  0  0  0  0  0  0  0  0  0
  184.5860  178.8480  143.0210 C   0  0  0  0  0  0  0  0  0  0  0  0
  189.7830  177.2510  141.4420 C   0  0  1  0  0  3  0  0  0  0  0  0
  186.9340  178.1940  142.7670 C   0  0  0  0  0  0  0  0  0  0  0  0
  189.7100  175.7240  143.5290 C   0  0  0  0  0  2  0  0  0  0  0  0
  184.4550  178.9410  141.6420 C   0  0  0  0  0  3  0  0  0  0  0  0
  191.9570  177.9590  140.7650 F   0  0  0  0  0  0  0  0  0  0  0  0
  191.1940  177.6620  141.8780 C   0  0  2  0  0  3  0  0  0  0  0  0
  188.9470  176.6900  142.6210 C   0  0  1  0  0  3  0  0  0  0  0  0
  188.8640  176.5290  137.1700 C   0  0  0  0  0  3  0  0  0  0  0  0
  187.7110  178.5000  138.9420 C   0  0  2  0  0  3  0  0  0  0  0  0
  186.7970  177.5830  138.1230 C   0  0  0  0  0  2  0  0  0  0  0  0
  187.5360  176.5160  137.3510 C   0  0  0  0  0  3  0  0  0  0  0  0
  189.7630  177.5550  137.8060 C   0  0  0  0  0  2  0  0  0  0  0  0
  189.0070  178.8250  138.1870 C   0  0  0  0  0  2  0  0  0  0  0  0
  2 16  1  0  0  0  0
  4 13  2  0  0  0  0
  6  2  2  0  0  0  0
  6 18  1  0  0  0  0
  7  9  1  0  0  0  0
  7  5  2  0  0  0  0
 10  8  1  0  0  0  0
 11  7  1  0  0  0  0
 12  1  1  1  0  0  0
 12  2  1  0  0  0  0
 13  5  1  0  0  0  0
 14 11  1  0  0  0  0
 14  4  1  0  0  0  0
 15  1  1  1  0  0  0
 15 20  1  0  0  0  0
 15 21  1  0  0  0  0
 16  3  1  0  0  0  0
 16 11  2  0  0  0  0
 17  8  1  0  0  0  0
 18 14  2  0  0  0  0
 20 19  1  6  0  0  0
 20 10  1  0  0  0  0
 21  3  1  1  0  0  0
 21 17  1  0  0  0  0
 22 25  2  0  0  0  0
 22 26  1  0  0  0  0
 23 24  1  6  0  0  0
 23 12  1  0  0  0  0
 25 24  1  0  0  0  0
 26 27  1  0  0  0  0
 27 23  1  0  0  0  0
M  END
>  <MODEL>
2

>  <REMARK>
 VINA RESULT:      -9.0      2.652      5.627
  Name = 
  1 active torsions:
  status: ('A' for Active; 'I' for Inactive)
    1  A    between atoms: C_9  and  C_15
                            x       y       z     vdW  Elec       q    Type
                         _______ _______ _______ _____ _____    ______ ____

>  <TORSDO>
F 1

$$$$
=
 OpenBabel11052413413D

 27 31  0  0  1  0  0  0  0  0999 V2000
  187.1070  178.9800  140.8870 O   0  0  0  0  0  0  0  0  0  0  0  0
  186.1700  178.3570  143.0250 C   0  0  0  0  0  0  0  0  0  0  0  0
  188.7050  177.9840  142.8610 C   0  0  0  0  0  2  0  0  0  0  0  0
  186.3230  178.1520  147.2280 C   0  0  0  0  0  3  0  0  0  0  0  0
  188.6660  177.8140  147.2050 C   0  0  0  0  0  3  0  0  0  0  0  0
  185.0150  178.4640  143.8110 C   0  0  0  0  0  3  0  0  0  0  0  0
  188.6930  177.8590  145.8090 C   0  0  0  0  0  0  0  0  0  0  0  0
  190.8000  177.0740  140.5580 C   0  0  0  0  0  2  0  0  0  0  0  0
  189.8930  177.7040  145.2000 F   0  0  0  0  0  0  0  0  0  0  0  0
  190.2090  177.6560  139.2850 C   0  0  0  0  0  2  0  0  0  0  0  0
  187.4880  178.0630  145.0880 C   0  0  0  0  0  0  0  0  0  0  0  0
  186.0130  178.3590  141.5070 C   0  0  1  0  0  3  0  0  0  0  0  0
  187.4970  177.9590  147.8790 N   0  0  0  0  0  0  0  0  0  0  0  0
  186.2920  178.2080  145.8350 C   0  0  0  0  0  0  0  0  0  0  0  0
  187.9730  177.9660  140.4340 C   0  0  1  0  0  3  0  0  0  0  0  0
  187.4280  178.1200  143.6650 C   0  0  0  0  0  0  0  0  0  0  0  0
  189.7330  176.2710  141.2860 C   0  0  0  0  0  2  0  0  0  0  0  0
  185.0740  178.3990  145.1970 C   0  0  0  0  0  3  0  0  0  0  0  0
  188.5960  179.2020  138.4910 F   0  0  0  0  0  0  0  0  0  0  0  0
  189.1040  178.6380  139.6470 C   0  0  2  0  0  3  0  0  0  0  0  0
  188.5070  177.1240  141.6210 C   0  0  1  0  0  3  0  0  0  0  0  0
  183.7830  177.2500  138.8420 C   0  0  0  0  0  3  0  0  0  0  0  0
  184.6850  178.9510  140.9980 C   0  0  2  0  0  3  0  0  0  0  0  0
  183.5050  177.9990  141.2200 C   0  0  0  0  0  2  0  0  0  0  0  0
  183.2370  177.0770  140.0550 C   0  0  0  0  0  3  0  0  0  0  0  0
  184.7990  178.3210  138.5520 C   0  0  0  0  0  2  0  0  0  0  0  0
  184.7270  179.4700  139.5540 C   0  0  0  0  0  2  0  0  0  0  0  0
  2 16  2  0  0  0  0
  2  6  1  0  0  0  0
  3 16  1  0  0  0  0
  4 13  1  0  0  0  0
  5 13  2  0  0  0  0
  6 18  2  0  0  0  0
  7  5  1  0  0  0  0
  8 17  1  0  0  0  0
  9  7  1  0  0  0  0
 10 20  1  0  0  0  0
 10  8  1  0  0  0  0
 11  7  2  0  0  0  0
 11 14  1  0  0  0  0
 12  1  1  6  0  0  0
 12  2  1  0  0  0  0
 14  4  2  0  0  0  0
 15  1  1  1  0  0  0
 15 21  1  0  0  0  0
 16 11  1  0  0  0  0
 18 14  1  0  0  0  0
 20 19  1  6  0  0  0
 20 15  1  0  0  0  0
 21 17  1  6  0  0  0
 21  3  1  0  0  0  0
 22 25  2  0  0  0  0
 23 27  1  6  0  0  0
 23 24  1  0  0  0  0
 23 12  1  0  0  0  0
 25 24  1  0  0  0  0
 26 22  1  0  0  0  0
 26 27  1  0  0  0  0
M  END
>  <MODEL>
3

>  <REMARK>
 VINA RESULT:      -8.9      2.556      6.006
  Name = 
  1 active torsions:
  status: ('A' for Active; 'I' for Inactive)
    1  A    between atoms: C_9  and  C_15
                            x       y       z     vdW  Elec       q    Type
                         _______ _______ _______ _____ _____    ______ ____

>  <TORSDO>
F 1

$$$$
=
 OpenBabel11052413413D

 27 31  0  0  1  0  0  0  0  0999 V2000
  188.3790  178.7020  141.3530 O   0  0  0  0  0  0  0  0  0  0  0  0
  186.0480  178.4040  140.7930 C   0  0  0  0  0  0  0  0  0  0  0  0
  186.5330  178.2510  143.3110 C   0  0  0  0  0  2  0  0  0  0  0  0
  181.9450  179.0030  141.5310 C   0  0  0  0  0  3  0  0  0  0  0  0
  182.2700  178.8930  143.8740 C   0  0  0  0  0  3  0  0  0  0  0  0
  185.1230  178.5450  139.7500 C   0  0  0  0  0  3  0  0  0  0  0  0
  183.6410  178.6790  143.7080 C   0  0  0  0  0  0  0  0  0  0  0  0
  188.9400  177.1310  145.1730 C   0  0  0  0  0  2  0  0  0  0  0  0
  184.3920  178.5280  144.8260 F   0  0  0  0  0  0  0  0  0  0  0  0
  190.1880  177.4060  144.3500 C   0  0  0  0  0  2  0  0  0  0  0  0
  184.1920  178.6280  142.4020 C   0  0  0  0  0  0  0  0  0  0  0  0
  187.5010  178.1070  140.4360 C   0  0  1  0  0  3  0  0  0  0  0  0
  181.4590  179.0490  142.7970 N   0  0  0  0  0  0  0  0  0  0  0  0
  183.3070  178.7950  141.3080 C   0  0  0  0  0  0  0  0  0  0  0  0
  188.7790  177.7090  142.2680 C   0  0  1  0  0  3  0  0  0  0  0  0
  185.5780  178.4120  142.1460 C   0  0  0  0  0  0  0  0  0  0  0  0
  187.9310  176.3800  144.3190 C   0  0  0  0  0  2  0  0  0  0  0  0
  183.7730  178.7460  140.0010 C   0  0  0  0  0  3  0  0  0  0  0  0
  190.9770  178.6140  142.4700 F   0  0  0  0  0  0  0  0  0  0  0  0
  189.8350  178.3280  143.1930 C   0  0  2  0  0  3  0  0  0  0  0  0
  187.5620  177.1590  143.0550 C   0  0  1  0  0  3  0  0  0  0  0  0
  189.4330  176.2400  137.9690 C   0  0  0  0  0  3  0  0  0  0  0  0
  187.8940  178.4630  138.9900 C   0  0  2  0  0  3  0  0  0  0  0  0
  187.2680  177.5070  137.9680 C   0  0  0  0  0  2  0  0  0  0  0  0
  188.1370  176.3200  137.6330 C   0  0  0  0  0  3  0  0  0  0  0  0
  190.1230  177.2830  138.8050 C   0  0  0  0  0  2  0  0  0  0  0  0
  189.4020  178.6280  138.7580 C   0  0  0  0  0  2  0  0  0  0  0  0
  2 16  1  0  0  0  0
  4 13  2  0  0  0  0
  6 18  1  0  0  0  0
  6  2  2  0  0  0  0
  7  5  2  0  0  0  0
  7  9  1  0  0  0  0
 10  8  1  0  0  0  0
 11  7  1  0  0  0  0
 12  2  1  1  0  0  0
 12  1  1  0  0  0  0
 13  5  1  0  0  0  0
 14  4  1  0  0  0  0
 14 11  1  0  0  0  0
 15  1  1  6  0  0  0
 15 21  1  0  0  0  0
 15 20  1  0  0  0  0
 16 11  2  0  0  0  0
 16  3  1  0  0  0  0
 17  8  1  0  0  0  0
 18 14  2  0  0  0  0
 20 19  1  6  0  0  0
 20 10  1  0  0  0  0
 21  3  1  1  0  0  0
 21 17  1  0  0  0  0
 22 26  1  0  0  0  0
 23 24  1  6  0  0  0
 23 12  1  0  0  0  0
 25 24  1  0  0  0  0
 25 22  2  0  0  0  0
 27 26  1  0  0  0  0
 27 23  1  0  0  0  0
M  END
>  <MODEL>
4

>  <REMARK>
 VINA RESULT:      -8.3      2.317      5.440
  Name = 
  1 active torsions:
  status: ('A' for Active; 'I' for Inactive)
    1  A    between atoms: C_9  and  C_15
                            x       y       z     vdW  Elec       q    Type
                         _______ _______ _______ _____ _____    ______ ____

>  <TORSDO>
F 1

$$$$
=
 OpenBabel11052413413D

 27 31  0  0  1  0  0  0  0  0999 V2000
  187.6070  178.3310  145.4700 O   0  0  0  0  0  0  0  0  0  0  0  0
  189.0420  177.1660  143.9140 C   0  0  0  0  0  0  0  0  0  0  0  0
  187.1110  178.4310  142.7900 C   0  0  0  0  0  2  0  0  0  0  0  0
  191.1150  176.9010  140.2580 C   0  0  0  0  0  3  0  0  0  0  0  0
  189.4040  178.0700  139.1130 C   0  0  0  0  0  3  0  0  0  0  0  0
  190.2740  176.5060  143.8110 C   0  0  0  0  0  3  0  0  0  0  0  0
  188.6530  178.1880  140.2850 C   0  0  0  0  0  0  0  0  0  0  0  0
  184.0180  179.1030  143.4960 C   0  0  0  0  0  2  0  0  0  0  0  0
  187.4610  178.8280  140.2050 F   0  0  0  0  0  0  0  0  0  0  0  0
  184.0210  179.2600  145.0070 C   0  0  0  0  0  2  0  0  0  0  0  0
  189.1510  177.6440  141.4980 C   0  0  0  0  0  0  0  0  0  0  0  0
  188.3210  177.1420  145.2580 C   0  0  1  0  0  3  0  0  0  0  0  0
  190.6040  177.4380  139.1210 N   0  0  0  0  0  0  0  0  0  0  0  0
  190.4080  176.9920  141.4580 C   0  0  0  0  0  0  0  0  0  0  0  0
  186.2580  178.0820  145.1510 C   0  0  1  0  0  3  0  0  0  0  0  0
  188.4480  177.7190  142.7350 C   0  0  0  0  0  0  0  0  0  0  0  0
  184.6750  177.7820  143.1260 C   0  0  0  0  0  2  0  0  0  0  0  0
  190.9530  176.4260  142.6030 C   0  0  0  0  0  3  0  0  0  0  0  0
  185.4610  179.5290  146.8710 F   0  0  0  0  0  0  0  0  0  0  0  0
  185.4580  179.3420  145.5020 C   0  0  2  0  0  3  0  0  0  0  0  0
  186.1070  177.6890  143.6590 C   0  0  1  0  0  3  0  0  0  0  0  0
  188.1410  178.2660  148.7240 C   0  0  0  0  0  3  0  0  0  0  0  0
  189.2200  176.8190  146.4670 C   0  0  2  0  0  3  0  0  0  0  0  0
  188.4640  176.0650  147.5650 C   0  0  0  0  0  2  0  0  0  0  0  0
  187.8400  176.9650  148.6040 C   0  0  0  0  0  3  0  0  0  0  0  0
  189.0540  178.9820  147.7660 C   0  0  0  0  0  2  0  0  0  0  0  0
  189.9870  178.0220  147.0330 C   0  0  0  0  0  2  0  0  0  0  0  0
  4 14  1  0  0  0  0
  5 13  1  0  0  0  0
  5  7  2  0  0  0  0
  6  2  1  0  0  0  0
  7 11  1  0  0  0  0
  8 10  1  0  0  0  0
  9  7  1  0  0  0  0
 10 20  1  0  0  0  0
 11 16  1  0  0  0  0
 12  2  1  6  0  0  0
 12  1  1  0  0  0  0
 12 23  1  0  0  0  0
 13  4  2  0  0  0  0
 14 11  2  0  0  0  0
 14 18  1  0  0  0  0
 15  1  1  6  0  0  0
 15 20  1  0  0  0  0
 16  3  1  0  0  0  0
 16  2  2  0  0  0  0
 17  8  1  0  0  0  0
 17 21  1  0  0  0  0
 18  6  2  0  0  0  0
 20 19  1  1  0  0  0
 21  3  1  6  0  0  0
 21 15  1  0  0  0  0
 23 27  1  1  0  0  0
 23 24  1  0  0  0  0
 24 25  1  0  0  0  0
 25 22  2  0  0  0  0
 26 22  1  0  0  0  0
 27 26  1  0  0  0  0
M  END
>  <MODEL>
5

>  <REMARK>
 VINA RESULT:      -8.3      2.443      5.187
  Name = 
  1 active torsions:
  status: ('A' for Active; 'I' for Inactive)
    1  A    between atoms: C_9  and  C_15
                            x       y       z     vdW  Elec       q    Type
                         _______ _______ _______ _____ _____    ______ ____

>  <TORSDO>
F 1

$$$$
=
 OpenBabel11052413413D

 27 31  0  0  1  0  0  0  0  0999 V2000
  189.0560  178.2620  144.4880 O   0  0  0  0  0  0  0  0  0  0  0  0
  188.4860  177.7520  142.1960 C   0  0  0  0  0  0  0  0  0  0  0  0
  186.4830  178.5070  143.6150 C   0  0  0  0  0  2  0  0  0  0  0  0
  186.3670  178.5170  138.6380 C   0  0  0  0  0  3  0  0  0  0  0  0
  184.4610  179.2480  139.8370 C   0  0  0  0  0  3  0  0  0  0  0  0
  189.0450  177.5020  140.9360 C   0  0  0  0  0  3  0  0  0  0  0  0
  185.0950  179.0080  141.0580 C   0  0  0  0  0  0  0  0  0  0  0  0
  185.5180  178.1530  146.6900 C   0  0  0  0  0  2  0  0  0  0  0  0
  184.3980  179.2730  142.1900 F   0  0  0  0  0  0  0  0  0  0  0  0
  186.8200  178.1360  147.4750 C   0  0  0  0  0  2  0  0  0  0  0  0
  186.4220  178.5050  141.0760 C   0  0  0  0  0  0  0  0  0  0  0  0
  189.2910  177.3680  143.4330 C   0  0  1  0  0  3  0  0  0  0  0  0
  185.0990  179.0010  138.6660 N   0  0  0  0  0  0  0  0  0  0  0  0
  187.0480  178.2620  139.8280 C   0  0  0  0  0  0  0  0  0  0  0  0
  188.1210  177.6630  145.3540 C   0  0  1  0  0  3  0  0  0  0  0  0
  187.1390  178.2320  142.2770 C   0  0  0  0  0  0  0  0  0  0  0  0
  185.5970  177.1350  145.5640 C   0  0  0  0  0  2  0  0  0  0  0  0
  188.3420  177.7600  139.7670 C   0  0  0  0  0  3  0  0  0  0  0  0
  189.1350  178.6110  147.2940 F   0  0  0  0  0  0  0  0  0  0  0  0
  187.9590  178.5830  146.5700 C   0  0  2  0  0  3  0  0  0  0  0  0
  186.7750  177.4100  144.6270 C   0  0  1  0  0  3  0  0  0  0  0  0
  191.9070  176.0100  145.5830 C   0  0  0  0  0  3  0  0  0  0  0  0
  190.8030  177.1940  143.1890 C   0  0  2  0  0  3  0  0  0  0  0  0
  191.2220  175.7200  143.1870 C   0  0  0  0  0  2  0  0  0  0  0  0
  191.6490  175.2060  144.5410 C   0  0  0  0  0  3  0  0  0  0  0  0
  191.6950  177.4990  145.5350 C   0  0  0  0  0  2  0  0  0  0  0  0
  191.7000  178.0350  144.1060 C   0  0  0  0  0  2  0  0  0  0  0  0
  2 16  1  0  0  0  0
  4 13  2  0  0  0  0
  4 14  1  0  0  0  0
  5  7  2  0  0  0  0
  6  2  2  0  0  0  0
  7 11  1  0  0  0  0
  7  9  1  0  0  0  0
  8 10  1  0  0  0  0
 11 16  2  0  0  0  0
 12  2  1  6  0  0  0
 12  1  1  0  0  0  0
 13  5  1  0  0  0  0
 14 11  1  0  0  0  0
 15  1  1  6  0  0  0
 15 20  1  0  0  0  0
 16  3  1  0  0  0  0
 17  8  1  0  0  0  0
 18 14  2  0  0  0  0
 18  6  1  0  0  0  0
 20 19  1  1  0  0  0
 20 10  1  0  0  0  0
 21  3  1  1  0  0  0
 21 15  1  0  0  0  0
 21 17  1  0  0  0  0
 23 24  1  1  0  0  0
 23 12  1  0  0  0  0
 23 27  1  0  0  0  0
 24 25  1  0  0  0  0
 25 22  2  0  0  0  0
 26 22  1  0  0  0  0
 27 26  1  0  0  0  0
M  END
>  <MODEL>
6

>  <REMARK>
 VINA RESULT:      -8.3      2.219      4.577
  Name = 
  1 active torsions:
  status: ('A' for Active; 'I' for Inactive)
    1  A    between atoms: C_9  and  C_15
                            x       y       z     vdW  Elec       q    Type
                         _______ _______ _______ _____ _____    ______ ____

>  <TORSDO>
F 1

$$$$
=
 OpenBabel11052413413D

 27 31  0  0  1  0  0  0  0  0999 V2000
  184.2870  178.2480  141.4510 O   0  0  0  0  0  0  0  0  0  0  0  0
  186.6470  178.3010  140.9380 C   0  0  0  0  0  0  0  0  0  0  0  0
  186.1390  177.8780  143.4200 C   0  0  0  0  0  2  0  0  0  0  0  0
  190.5840  176.8810  141.4100 C   0  0  0  0  0  3  0  0  0  0  0  0
  190.2310  176.4360  143.7080 C   0  0  0  0  0  3  0  0  0  0  0  0
  187.5590  178.2870  139.8740 C   0  0  0  0  0  3  0  0  0  0  0  0
  188.9170  176.9020  143.6320 C   0  0  0  0  0  0  0  0  0  0  0  0
  183.9050  178.8520  145.5580 C   0  0  0  0  0  2  0  0  0  0  0  0
  188.1760  176.8800  144.7670 F   0  0  0  0  0  0  0  0  0  0  0  0
  182.6470  179.0030  144.7190 C   0  0  0  0  0  2  0  0  0  0  0  0
  188.4080  177.3760  142.3950 C   0  0  0  0  0  0  0  0  0  0  0  0
  185.2690  178.9100  140.7000 C   0  0  1  0  0  3  0  0  0  0  0  0
  191.0290  176.4340  142.6110 N   0  0  0  0  0  0  0  0  0  0  0  0
  189.2780  177.3560  141.2770 C   0  0  0  0  0  0  0  0  0  0  0  0
  184.0320  179.0230  142.5990 C   0  0  1  0  0  3  0  0  0  0  0  0
  187.0810  177.8700  142.2320 C   0  0  0  0  0  0  0  0  0  0  0  0
  185.0400  179.6250  144.9040 C   0  0  0  0  0  2  0  0  0  0  0  0
  188.8540  177.8140  140.0360 C   0  0  0  0  0  3  0  0  0  0  0  0
  181.7140  178.4620  142.6080 F   0  0  0  0  0  0  0  0  0  0  0  0
  182.8720  178.3650  143.3550 C   0  0  2  0  0  3  0  0  0  0  0  0
  185.3050  179.1490  143.4750 C   0  0  1  0  0  3  0  0  0  0  0  0
  182.0500  178.3200  139.0890 C   0  0  0  0  0  3  0  0  0  0  0  0
  184.8540  179.0060  139.2190 C   0  0  2  0  0  3  0  0  0  0  0  0
  183.8110  180.1030  138.9810 C   0  0  0  0  0  2  0  0  0  0  0  0
  182.3850  179.6190  139.0760 C   0  0  0  0  0  3  0  0  0  0  0  0
  183.0720  177.2160  139.1140 C   0  0  0  0  0  2  0  0  0  0  0  0
  184.4280  177.6750  138.5860 C   0  0  0  0  0  2  0  0  0  0  0  0
  2 16  1  0  0  0  0
  4 13  2  0  0  0  0
  6 18  1  0  0  0  0
  6  2  2  0  0  0  0
  7  5  2  0  0  0  0
  7  9  1  0  0  0  0
 10  8  1  0  0  0  0
 11  7  1  0  0  0  0
 12  2  1  6  0  0  0
 12  1  1  0  0  0  0
 13  5  1  0  0  0  0
 14  4  1  0  0  0  0
 14 11  1  0  0  0  0
 15  1  1  6  0  0  0
 15 20  1  0  0  0  0
 15 21  1  0  0  0  0
 16 11  2  0  0  0  0
 16  3  1  0  0  0  0
 17  8  1  0  0  0  0
 18 14  2  0  0  0  0
 20 19  1  6  0  0  0
 20 10  1  0  0  0  0
 21  3  1  1  0  0  0
 21 17  1  0  0  0  0
 22 26  1  0  0  0  0
 23 27  1  1  0  0  0
 23 12  1  0  0  0  0
 24 25  1  0  0  0  0
 24 23  1  0  0  0  0
 25 22  2  0  0  0  0
 27 26  1  0  0  0  0
M  END
>  <MODEL>
7

>  <REMARK>
 VINA RESULT:      -8.3      3.199      7.622
  Name = 
  1 active torsions:
  status: ('A' for Active; 'I' for Inactive)
    1  A    between atoms: C_9  and  C_15
                            x       y       z     vdW  Elec       q    Type
                         _______ _______ _______ _____ _____    ______ ____

>  <TORSDO>
F 1

$$$$
=
 OpenBabel11052413413D

 27 31  0  0  1  0  0  0  0  0999 V2000
  186.9860  176.8860  144.2070 O   0  0  0  0  0  0  0  0  0  0  0  0
  184.9620  178.2020  144.3070 C   0  0  0  0  0  0  0  0  0  0  0  0
  185.8830  177.9030  141.9290 C   0  0  0  0  0  2  0  0  0  0  0  0
  181.2000  179.3490  142.8010 C   0  0  0  0  0  3  0  0  0  0  0  0
  181.9310  179.0970  140.5640 C   0  0  0  0  0  3  0  0  0  0  0  0
  183.9070  178.5650  145.1550 C   0  0  0  0  0  3  0  0  0  0  0  0
  183.2070  178.7180  140.9880 C   0  0  0  0  0  0  0  0  0  0  0  0
  188.8130  177.7120  140.5530 C   0  0  0  0  0  2  0  0  0  0  0  0
  184.1260  178.4320  140.0330 F   0  0  0  0  0  0  0  0  0  0  0  0
  189.6570  177.0060  141.6020 C   0  0  0  0  0  2  0  0  0  0  0  0
  183.4960  178.6470  142.3750 C   0  0  0  0  0  0  0  0  0  0  0  0
  186.3150  177.8800  144.9340 C   0  0  1  0  0  3  0  0  0  0  0  0
  180.9650  179.4010  141.4660 N   0  0  0  0  0  0  0  0  0  0  0  0
  182.4570  178.9750  143.2800 C   0  0  0  0  0  0  0  0  0  0  0  0
  187.9280  177.5250  143.3780 C   0  0  1  0  0  3  0  0  0  0  0  0
  184.7710  178.2730  142.8900 C   0  0  0  0  0  0  0  0  0  0  0  0
  188.1050  178.8970  141.1910 C   0  0  0  0  0  2  0  0  0  0  0  0
  182.6690  178.9390  144.6520 C   0  0  0  0  0  3  0  0  0  0  0  0
  189.5090  175.7540  143.6080 F   0  0  0  0  0  0  0  0  0  0  0  0
  188.7460  176.4340  142.6780 C   0  0  2  0  0  3  0  0  0  0  0  0
  187.2260  178.4690  142.3680 C   0  0  1  0  0  3  0  0  0  0  0  0
  188.6720  178.5790  147.6290 C   0  0  0  0  0  3  0  0  0  0  0  0
  186.2630  177.5230  146.4320 C   0  0  2  0  0  3  0  0  0  0  0  0
  186.1900  178.7700  147.3210 C   0  0  0  0  0  2  0  0  0  0  0  0
  187.5390  179.2840  147.7610 C   0  0  0  0  0  3  0  0  0  0  0  0
  188.7250  177.2450  146.9350 C   0  0  0  0  0  2  0  0  0  0  0  0
  187.3620  176.5600  146.9000 C   0  0  0  0  0  2  0  0  0  0  0  0
  2 12  1  0  0  0  0
  2  6  1  0  0  0  0
  3 21  1  0  0  0  0
  3 16  1  0  0  0  0
  4 14  1  0  0  0  0
  5  7  2  0  0  0  0
  5 13  1  0  0  0  0
  7 11  1  0  0  0  0
  8 17  1  0  0  0  0
  8 10  1  0  0  0  0
  9  7  1  0  0  0  0
 10 20  1  0  0  0  0
 11 16  1  0  0  0  0
 11 14  2  0  0  0  0
 12  1  1  6  0  0  0
 12 23  1  0  0  0  0
 13  4  2  0  0  0  0
 14 18  1  0  0  0  0
 15  1  1  6  0  0  0
 16  2  2  0  0  0  0
 18  6  2  0  0  0  0
 20 15  1  0  0  0  0
 20 19  1  1  0  0  0
 21 17  1  6  0  0  0
 21 15  1  0  0  0  0
 22 25  2  0  0  0  0
 23 27  1  1  0  0  0
 23 24  1  0  0  0  0
 24 25  1  0  0  0  0
 26 22  1  0  0  0  0
 27 26  1  0  0  0  0
M  END
>  <MODEL>
8

>  <REMARK>
 VINA RESULT:      -8.3      1.201      1.620
  Name = 
  1 active torsions:
  status: ('A' for Active; 'I' for Inactive)
    1  A    between atoms: C_9  and  C_15
                            x       y       z     vdW  Elec       q    Type
                         _______ _______ _______ _____ _____    ______ ____

>  <TORSDO>
F 1

$$$$
=
 OpenBabel11052413413D

 27 31  0  0  1  0  0  0  0  0999 V2000
  188.9670  177.0850  140.8580 O   0  0  0  0  0  0  0  0  0  0  0  0
  186.9740  178.3140  141.4550 C   0  0  0  0  0  0  0  0  0  0  0  0
  187.2020  177.8780  138.9350 C   0  0  0  0  0  2  0  0  0  0  0  0
  182.8750  179.1750  141.0260 C   0  0  0  0  0  3  0  0  0  0  0  0
  182.9570  178.7880  138.6920 C   0  0  0  0  0  3  0  0  0  0  0  0
  186.1820  178.6920  142.5470 C   0  0  0  0  0  3  0  0  0  0  0  0
  184.3220  178.4990  138.7540 C   0  0  0  0  0  0  0  0  0  0  0  0
  189.6290  177.7140  136.7900 C   0  0  0  0  0  2  0  0  0  0  0  0
  184.9500  178.1830  137.5950 F   0  0  0  0  0  0  0  0  0  0  0  0
  190.7780  177.1280  137.5930 C   0  0  0  0  0  2  0  0  0  0  0  0
  184.9960  178.5460  140.0020 C   0  0  0  0  0  0  0  0  0  0  0  0
  188.4670  178.1010  141.6860 C   0  0  1  0  0  3  0  0  0  0  0  0
  182.2680  179.1160  139.8140 N   0  0  0  0  0  0  0  0  0  0  0  0
  184.2360  178.8950  141.1450 C   0  0  0  0  0  0  0  0  0  0  0  0
  189.5930  177.7010  139.7570 C   0  0  1  0  0  3  0  0  0  0  0  0
  186.3860  178.2690  140.1510 C   0  0  0  0  0  0  0  0  0  0  0  0
  189.0560  178.9110  137.5340 C   0  0  0  0  0  2  0  0  0  0  0  0
  184.8300  178.9720  142.3980 C   0  0  0  0  0  3  0  0  0  0  0  0
  191.2850  176.0250  139.6290 F   0  0  0  0  0  0  0  0  0  0  0  0
  190.2480  176.5980  138.9170 C   0  0  2  0  0  3  0  0  0  0  0  0
  188.5740  178.5340  138.9360 C   0  0  1  0  0  3  0  0  0  0  0  0
  191.4300  176.5270  143.1180 C   0  0  0  0  0  3  0  0  0  0  0  0
  188.8640  177.8560  143.1540 C   0  0  2  0  0  3  0  0  0  0  0  0
  190.1280  178.6280  143.5480 C   0  0  0  0  0  2  0  0  0  0  0  0
  191.4050  177.8480  143.3480 C   0  0  0  0  0  3  0  0  0  0  0  0
  190.1810  175.7090  142.9330 C   0  0  0  0  0  2  0  0  0  0  0  0
  188.9580  176.3780  143.5540 C   0  0  0  0  0  2  0  0  0  0  0  0
  2 12  1  0  0  0  0
  2  6  1  0  0  0  0
  3 21  1  0  0  0  0
  3 16  1  0  0  0  0
  4 14  1  0  0  0  0
  5  7  2  0  0  0  0
  5 13  1  0  0  0  0
  7 11  1  0  0  0  0
  8 17  1  0  0  0  0
  8 10  1  0  0  0  0
  9  7  1  0  0  0  0
 10 20  1  0  0  0  0
 11 16  1  0  0  0  0
 11 14  2  0  0  0  0
 12  1  1  6  0  0  0
 12 23  1  0  0  0  0
 13  4  2  0  0  0  0
 14 18  1  0  0  0  0
 15  1  1  1  0  0  0
 16  2  2  0  0  0  0
 18  6  2  0  0  0  0
 20 19  1  1  0  0  0
 20 15  1  0  0  0  0
 21 17  1  6  0  0  0
 21 15  1  0  0  0  0
 22 25  2  0  0  0  0
 23 24  1  6  0  0  0
 23 27  1  0  0  0  0
 25 24  1  0  0  0  0
 26 22  1  0  0  0  0
 26 27  1  0  0  0  0
M  END
>  <MODEL>
9

>  <REMARK>
 VINA RESULT:      -8.0      3.010      4.063
  Name = 
  1 active torsions:
  status: ('A' for Active; 'I' for Inactive)
    1  A    between atoms: C_9  and  C_15
                            x       y       z     vdW  Elec       q    Type
                         _______ _______ _______ _____ _____    ______ ____

>  <TORSDO>
F 1

$$$$
