=
 OpenBabel11052414053D

 34 40  0  0  1  0  0  0  0  0999 V2000
  188.9160  177.0150  146.0870 C   0  0  0  0  0  0  0  0  0  0  0  0
  190.9350  177.4270  144.8260 C   0  0  0  0  0  0  0  0  0  0  0  0
  188.6990  177.8600  143.8010 C   0  0  0  0  0  0  0  0  0  0  0  0
  188.3990  178.4640  141.2750 C   0  0  1  0  0  0  0  0  0  0  0  0
  191.0130  176.5850  147.0510 N   0  0  0  0  0  0  0  0  0  0  0  0
  191.6620  176.9900  145.9320 C   0  0  0  0  0  3  0  0  0  0  0  0
  189.0830  177.0630  141.5210 C   0  0  2  0  0  0  0  0  0  0  0  0
  189.5240  177.4410  144.8820 C   0  0  0  0  0  0  0  0  0  0  0  0
  188.3790  177.3930  140.2370 C   0  0  0  0  0  2  0  0  0  0  0  0
  189.6830  176.5990  147.1270 N   0  0  0  0  0  0  0  0  0  0  0  0
  187.3030  177.9020  143.9680 C   0  0  0  0  0  0  0  0  0  0  0  0
  187.5310  177.0210  146.2200 C   0  0  0  0  0  3  0  0  0  0  0  0
  191.6250  177.8530  143.7400 F   0  0  0  0  0  0  0  0  0  0  0  0
  186.9930  178.5890  141.6830 N   0  0  0  0  0  0  0  0  0  0  0  0
  186.4530  178.3600  142.8450 C   0  0  0  0  0  0  0  0  0  0  0  0
  189.3020  178.2240  142.4670 C   0  0  2  0  0  3  0  0  0  0  0  0
  186.7340  177.4610  145.1690 C   0  0  0  0  0  3  0  0  0  0  0  0
  182.7410  178.5980  142.0510 C   0  0  0  0  0  0  0  0  0  0  0  0
  182.2190  178.9440  143.3000 C   0  0  0  0  0  3  0  0  0  0  0  0
  184.9900  178.5820  142.9820 C   0  0  0  0  0  0  0  0  0  0  0  0
  183.0750  179.1010  144.3930 C   0  0  0  0  0  3  0  0  0  0  0  0
  184.1170  178.4130  141.8950 C   0  0  0  0  0  3  0  0  0  0  0  0
  184.4520  178.9170  144.2360 C   0  0  0  0  0  3  0  0  0  0  0  0
  181.8900  178.4350  140.9660 O   0  0  0  0  0  1  0  0  0  0  0  0
  190.4050  176.8250  141.0540 O   0  0  0  0  0  0  0  0  0  0  0  0
  191.2440  176.8940  138.8980 N   0  0  0  0  0  0  0  0  0  0  0  0
  190.6460  176.2530  139.8200 N   0  0  0  0  0  0  0  0  0  0  0  0
  192.9310  174.3730  137.7270 O   0  0  0  0  0  1  0  0  0  0  0  0
  191.4860  176.2820  137.6030 C   0  0  1  0  0  3  0  0  0  0  0  0
  191.5930  174.7580  137.7770 C   0  0  1  0  0  3  0  0  0  0  0  0
  189.5090  174.3110  137.0650 C   0  0  0  0  0  2  0  0  0  0  0  0
  189.1290  175.7740  136.7870 C   0  0  0  0  0  2  0  0  0  0  0  0
  190.3700  176.6580  136.6180 C   0  0  0  0  0  2  0  0  0  0  0  0
  190.8670  174.0720  136.7860 O   0  0  0  0  0  0  0  0  0  0  0  0
  1 12  1  0  0  0  0
  1 10  2  0  0  0  0
  2  8  2  0  0  0  0
  2  6  1  0  0  0  0
  3 11  2  0  0  0  0
  3  8  1  0  0  0  0
  4  9  1  6  0  0  0
  4  7  1  0  0  0  0
  4 14  1  0  0  0  0
  4 16  1  0  0  0  0
  5 10  1  0  0  0  0
  6  5  2  0  0  0  0
  7 25  1  6  0  0  0
  7 16  1  0  0  0  0
  8  1  1  0  0  0  0
  9  7  1  0  0  0  0
 11 17  1  0  0  0  0
 13  2  1  0  0  0  0
 14 15  2  0  0  0  0
 15 20  1  0  0  0  0
 15 11  1  0  0  0  0
 16  3  1  1  0  0  0
 17 12  2  0  0  0  0
 18 19  1  0  0  0  0
 19 21  2  0  0  0  0
 20 23  2  0  0  0  0
 22 18  2  0  0  0  0
 22 20  1  0  0  0  0
 23 21  1  0  0  0  0
 24 18  1  0  0  0  0
 26 27  2  0  0  0  0
 27 25  1  0  0  0  0
 29 30  1  0  0  0  0
 29 26  1  1  0  0  0
 30 28  1  6  0  0  0
 32 31  1  0  0  0  0
 33 32  1  0  0  0  0
 33 29  1  0  0  0  0
 34 31  1  0  0  0  0
 34 30  1  0  0  0  0
M  END
>  <MODEL>
1

>  <REMARK>
 VINA RESULT:     -10.8      0.000      0.000
  Name = 
  4 active torsions:
  status: ('A' for Active; 'I' for Inactive)
    1  A    between atoms: N_3  and  C_13
    2  A    between atoms: C_10  and  O_29
    3  A    between atoms: C_12  and  C_28
    4  A    between atoms: N_17  and  O_29
                            x       y       z     vdW  Elec       q    Type
                         _______ _______ _______ _____ _____    ______ ____

>  <TORSDO>
F 4

$$$$
=
 OpenBabel11052414053D

 34 40  0  0  1  0  0  0  0  0999 V2000
  183.2530  178.9430  143.8420 C   0  0  0  0  0  0  0  0  0  0  0  0
  183.4310  178.2880  141.5240 C   0  0  0  0  0  0  0  0  0  0  0  0
  185.4030  178.0910  143.0450 C   0  0  0  0  0  0  0  0  0  0  0  0
  187.7950  177.4830  142.1810 C   0  0  1  0  0  0  0  0  0  0  0  0
  181.4000  179.1520  142.4140 N   0  0  0  0  0  0  0  0  0  0  0  0
  182.0990  178.6590  141.3620 C   0  0  0  0  0  3  0  0  0  0  0  0
  187.2030  178.8030  141.5490 C   0  0  2  0  0  0  0  0  0  0  0  0
  184.0460  178.4330  142.7870 C   0  0  0  0  0  0  0  0  0  0  0  0
  188.6790  178.5330  141.5960 C   0  0  0  0  0  2  0  0  0  0  0  0
  181.9590  179.2870  143.6170 N   0  0  0  0  0  0  0  0  0  0  0  0
  185.9140  178.2080  144.3500 C   0  0  0  0  0  0  0  0  0  0  0  0
  183.7870  179.0940  145.1180 C   0  0  0  0  0  3  0  0  0  0  0  0
  184.0820  177.7700  140.4530 F   0  0  0  0  0  0  0  0  0  0  0  0
  188.1010  177.5230  143.6180 N   0  0  0  0  0  0  0  0  0  0  0  0
  187.3210  177.8300  144.6140 C   0  0  0  0  0  0  0  0  0  0  0  0
  186.3100  177.6400  141.9270 C   0  0  2  0  0  3  0  0  0  0  0  0
  185.1050  178.7300  145.3680 C   0  0  0  0  0  3  0  0  0  0  0  0
  189.7580  177.3700  147.4980 C   0  0  0  0  0  0  0  0  0  0  0  0
  188.9660  177.7530  148.5840 C   0  0  0  0  0  3  0  0  0  0  0  0
  187.8960  177.7760  145.9830 C   0  0  0  0  0  0  0  0  0  0  0  0
  187.6450  178.1550  148.3750 C   0  0  0  0  0  3  0  0  0  0  0  0
  189.2270  177.3870  146.2050 C   0  0  0  0  0  3  0  0  0  0  0  0
  187.1150  178.1710  147.0820 C   0  0  0  0  0  3  0  0  0  0  0  0
  191.0730  176.9750  147.7030 O   0  0  0  0  0  1  0  0  0  0  0  0
  186.9840  178.8840  140.1460 O   0  0  0  0  0  0  0  0  0  0  0  0
  188.2380  178.8690  138.2010 N   0  0  0  0  0  0  0  0  0  0  0  0
  187.8290  178.2660  139.2450 N   0  0  0  0  0  0  0  0  0  0  0  0
  190.9560  177.0850  138.3260 O   0  0  0  0  0  1  0  0  0  0  0  0
  189.1240  178.2050  137.2590 C   0  0  1  0  0  3  0  0  0  0  0  0
  189.6450  176.9020  137.8870 C   0  0  1  0  0  3  0  0  0  0  0  0
  188.2340  175.5480  136.7820 C   0  0  0  0  0  2  0  0  0  0  0  0
  187.5320  176.6690  136.0000 C   0  0  0  0  0  2  0  0  0  0  0  0
  188.3900  177.9370  135.9360 C   0  0  0  0  0  2  0  0  0  0  0  0
  189.5980  175.8330  136.9740 O   0  0  0  0  0  0  0  0  0  0  0  0
  1 12  1  0  0  0  0
  2  8  1  0  0  0  0
  3 11  2  0  0  0  0
  4  9  1  6  0  0  0
  4 14  1  0  0  0  0
  5 10  2  0  0  0  0
  6  2  2  0  0  0  0
  6  5  1  0  0  0  0
  7 25  1  6  0  0  0
  7  9  1  0  0  0  0
  7 16  1  0  0  0  0
  7  4  1  0  0  0  0
  8  3  1  0  0  0  0
  8  1  2  0  0  0  0
 10  1  1  0  0  0  0
 11 15  1  0  0  0  0
 11 17  1  0  0  0  0
 12 17  2  0  0  0  0
 13  2  1  0  0  0  0
 14 15  2  0  0  0  0
 15 20  1  0  0  0  0
 16  4  1  0  0  0  0
 16  3  1  1  0  0  0
 18 24  1  0  0  0  0
 18 19  1  0  0  0  0
 20 22  1  0  0  0  0
 20 23  2  0  0  0  0
 21 19  2  0  0  0  0
 22 18  2  0  0  0  0
 23 21  1  0  0  0  0
 26 27  2  0  0  0  0
 27 25  1  0  0  0  0
 29 30  1  0  0  0  0
 29 26  1  1  0  0  0
 30 28  1  6  0  0  0
 31 34  1  0  0  0  0
 32 31  1  0  0  0  0
 33 32  1  0  0  0  0
 33 29  1  0  0  0  0
 34 30  1  0  0  0  0
M  END
>  <MODEL>
2

>  <REMARK>
 VINA RESULT:     -10.3      2.866      5.663
  Name = 
  4 active torsions:
  status: ('A' for Active; 'I' for Inactive)
    1  A    between atoms: N_3  and  C_13
    2  A    between atoms: C_10  and  O_29
    3  A    between atoms: C_12  and  C_28
    4  A    between atoms: N_17  and  O_29
                            x       y       z     vdW  Elec       q    Type
                         _______ _______ _______ _____ _____    ______ ____

>  <TORSDO>
F 4

$$$$
=
 OpenBabel11052414053D

 34 40  0  0  1  0  0  0  0  0999 V2000
  185.6960  178.5030  145.9030 C   0  0  0  0  0  0  0  0  0  0  0  0
  184.8790  178.1230  143.6630 C   0  0  0  0  0  0  0  0  0  0  0  0
  187.2340  177.5450  144.2600 C   0  0  0  0  0  0  0  0  0  0  0  0
  189.0010  176.8130  142.4770 C   0  0  1  0  0  0  0  0  0  0  0  0
  183.4870  179.0690  145.3450 N   0  0  0  0  0  0  0  0  0  0  0  0
  183.6520  178.6420  144.0690 C   0  0  0  0  0  3  0  0  0  0  0  0
  188.4030  178.2530  142.2310 C   0  0  2  0  0  0  0  0  0  0  0  0
  185.9450  178.0500  144.5860 C   0  0  0  0  0  0  0  0  0  0  0  0
  189.7300  177.8330  141.6690 C   0  0  0  0  0  2  0  0  0  0  0  0
  184.4770  178.9990  146.2350 N   0  0  0  0  0  0  0  0  0  0  0  0
  188.2170  177.4490  145.2610 C   0  0  0  0  0  0  0  0  0  0  0  0
  186.6940  178.4420  146.8710 C   0  0  0  0  0  3  0  0  0  0  0  0
  184.9890  177.6780  142.3870 F   0  0  0  0  0  0  0  0  0  0  0  0
  189.8370  176.6450  143.6740 N   0  0  0  0  0  0  0  0  0  0  0  0
  189.5500  176.9030  144.9170 C   0  0  0  0  0  0  0  0  0  0  0  0
  187.5710  177.1470  142.8440 C   0  0  2  0  0  3  0  0  0  0  0  0
  187.9420  177.9200  146.5510 C   0  0  0  0  0  3  0  0  0  0  0  0
  191.6690  177.1010  148.0700 C   0  0  0  0  0  0  0  0  0  0  0  0
  192.5350  176.0210  147.8810 C   0  0  0  0  0  3  0  0  0  0  0  0
  190.5920  176.6240  145.9380 C   0  0  0  0  0  0  0  0  0  0  0  0
  192.4300  175.2370  146.7300 C   0  0  0  0  0  3  0  0  0  0  0  0
  190.7000  177.3960  147.1060 C   0  0  0  0  0  3  0  0  0  0  0  0
  191.4620  175.5340  145.7670 C   0  0  0  0  0  3  0  0  0  0  0  0
  191.7680  177.8780  149.2160 O   0  0  0  0  0  1  0  0  0  0  0  0
  187.6770  178.5260  141.0390 O   0  0  0  0  0  0  0  0  0  0  0  0
  187.7670  178.1780  138.7530 N   0  0  0  0  0  0  0  0  0  0  0  0
  188.3060  178.6280  139.8140 N   0  0  0  0  0  0  0  0  0  0  0  0
  190.5400  177.1260  137.4180 O   0  0  0  0  0  1  0  0  0  0  0  0
  188.4430  178.2870  137.4710 C   0  0  1  0  0  3  0  0  0  0  0  0
  189.1760  176.9690  137.1740 C   0  0  1  0  0  3  0  0  0  0  0  0
  187.6290  176.1740  135.7510 C   0  0  0  0  0  2  0  0  0  0  0  0
  186.6950  177.3900  135.8520 C   0  0  0  0  0  2  0  0  0  0  0  0
  187.4340  178.6310  136.3650 C   0  0  0  0  0  2  0  0  0  0  0  0
  188.9800  176.5560  135.8430 O   0  0  0  0  0  0  0  0  0  0  0  0
  1 10  1  0  0  0  0
  1 12  1  0  0  0  0
  2  6  2  0  0  0  0
  2  8  1  0  0  0  0
  3  8  1  0  0  0  0
  3 11  2  0  0  0  0
  4  9  1  6  0  0  0
  4 16  1  0  0  0  0
  4 14  1  0  0  0  0
  5 10  2  0  0  0  0
  6  5  1  0  0  0  0
  7 25  1  6  0  0  0
  7  4  1  0  0  0  0
  7 16  1  0  0  0  0
  8  1  2  0  0  0  0
  9  7  1  0  0  0  0
 11 17  1  0  0  0  0
 13  2  1  0  0  0  0
 14 15  2  0  0  0  0
 15 11  1  0  0  0  0
 15 20  1  0  0  0  0
 16  3  1  1  0  0  0
 17 12  2  0  0  0  0
 18 24  1  0  0  0  0
 19 18  1  0  0  0  0
 20 22  1  0  0  0  0
 21 19  2  0  0  0  0
 22 18  2  0  0  0  0
 23 20  2  0  0  0  0
 23 21  1  0  0  0  0
 26 27  2  0  0  0  0
 27 25  1  0  0  0  0
 29 26  1  1  0  0  0
 30 28  1  6  0  0  0
 30 29  1  0  0  0  0
 31 34  1  0  0  0  0
 31 32  1  0  0  0  0
 32 33  1  0  0  0  0
 33 29  1  0  0  0  0
 34 30  1  0  0  0  0
M  END
>  <MODEL>
3

>  <REMARK>
 VINA RESULT:     -10.1      2.947      5.841
  Name = 
  4 active torsions:
  status: ('A' for Active; 'I' for Inactive)
    1  A    between atoms: N_3  and  C_13
    2  A    between atoms: C_10  and  O_29
    3  A    between atoms: C_12  and  C_28
    4  A    between atoms: N_17  and  O_29
                            x       y       z     vdW  Elec       q    Type
                         _______ _______ _______ _____ _____    ______ ____

>  <TORSDO>
F 4

$$$$
=
 OpenBabel11052414053D

 34 40  0  0  1  0  0  0  0  0999 V2000
  188.8300  177.2650  145.2570 C   0  0  0  0  0  0  0  0  0  0  0  0
  190.8220  177.8480  144.0230 C   0  0  0  0  0  0  0  0  0  0  0  0
  188.5710  178.0850  142.9670 C   0  0  0  0  0  0  0  0  0  0  0  0
  188.2550  178.6580  140.4360 C   0  0  1  0  0  0  0  0  0  0  0  0
  190.9430  177.0190  146.2510 N   0  0  0  0  0  0  0  0  0  0  0  0
  191.5690  177.4780  145.1390 C   0  0  0  0  0  3  0  0  0  0  0  0
  189.0540  177.3220  140.6940 C   0  0  2  0  0  0  0  0  0  0  0  0
  189.4150  177.7400  144.0590 C   0  0  0  0  0  0  0  0  0  0  0  0
  188.3420  177.5880  139.4000 C   0  0  0  0  0  2  0  0  0  0  0  0
  189.6150  176.9180  146.3090 N   0  0  0  0  0  0  0  0  0  0  0  0
  187.1750  178.0060  143.1150 C   0  0  0  0  0  0  0  0  0  0  0  0
  187.4480  177.1510  145.3720 C   0  0  0  0  0  3  0  0  0  0  0  0
  191.4870  178.3320  142.9450 F   0  0  0  0  0  0  0  0  0  0  0  0
  186.8370  178.6610  140.8240 N   0  0  0  0  0  0  0  0  0  0  0  0
  186.3040  178.3880  141.9790 C   0  0  0  0  0  0  0  0  0  0  0  0
  189.1580  178.4990  141.6410 C   0  0  2  0  0  3  0  0  0  0  0  0
  186.6300  177.5190  144.3100 C   0  0  0  0  0  3  0  0  0  0  0  0
  182.8140  178.9170  143.3980 C   0  0  0  0  0  0  0  0  0  0  0  0
  182.0280  178.7160  142.2610 C   0  0  0  0  0  3  0  0  0  0  0  0
  184.8260  178.4810  142.0970 C   0  0  0  0  0  0  0  0  0  0  0  0
  182.6330  178.4070  141.0410 C   0  0  0  0  0  3  0  0  0  0  0  0
  184.2050  178.8050  143.3140 C   0  0  0  0  0  3  0  0  0  0  0  0
  184.0240  178.2950  140.9580 C   0  0  0  0  0  3  0  0  0  0  0  0
  182.2150  179.2290  144.6110 O   0  0  0  0  0  1  0  0  0  0  0  0
  190.3980  177.1990  140.2450 O   0  0  0  0  0  0  0  0  0  0  0  0
  191.4210  176.1790  138.4380 N   0  0  0  0  0  0  0  0  0  0  0  0
  190.8350  176.0810  139.5630 N   0  0  0  0  0  0  0  0  0  0  0  0
  190.1890  174.0680  136.2920 O   0  0  0  0  0  1  0  0  0  0  0  0
  191.8710  174.9930  137.7280 C   0  0  1  0  0  3  0  0  0  0  0  0
  191.2450  174.9770  136.3240 C   0  0  1  0  0  3  0  0  0  0  0  0
  193.0770  175.7270  135.2600 C   0  0  0  0  0  2  0  0  0  0  0  0
  193.9490  175.8330  136.5210 C   0  0  0  0  0  2  0  0  0  0  0  0
  193.4050  174.9630  137.6600 C   0  0  0  0  0  2  0  0  0  0  0  0
  192.1910  174.6370  135.3390 O   0  0  0  0  0  0  0  0  0  0  0  0
  1 12  1  0  0  0  0
  1 10  2  0  0  0  0
  2  8  2  0  0  0  0
  2  6  1  0  0  0  0
  3 11  2  0  0  0  0
  3  8  1  0  0  0  0
  4  9  1  6  0  0  0
  4  7  1  0  0  0  0
  4 14  1  0  0  0  0
  4 16  1  0  0  0  0
  5 10  1  0  0  0  0
  6  5  2  0  0  0  0
  7 25  1  6  0  0  0
  7 16  1  0  0  0  0
  8  1  1  0  0  0  0
  9  7  1  0  0  0  0
 11 17  1  0  0  0  0
 13  2  1  0  0  0  0
 14 15  2  0  0  0  0
 15 20  1  0  0  0  0
 15 11  1  0  0  0  0
 16  3  1  1  0  0  0
 17 12  2  0  0  0  0
 18 24  1  0  0  0  0
 19 18  2  0  0  0  0
 20 22  2  0  0  0  0
 21 19  1  0  0  0  0
 22 18  1  0  0  0  0
 23 21  2  0  0  0  0
 23 20  1  0  0  0  0
 26 27  2  0  0  0  0
 27 25  1  0  0  0  0
 29 26  1  6  0  0  0
 30 28  1  1  0  0  0
 30 29  1  0  0  0  0
 31 34  1  0  0  0  0
 31 32  1  0  0  0  0
 32 33  1  0  0  0  0
 33 29  1  0  0  0  0
 34 30  1  0  0  0  0
M  END
>  <MODEL>
4

>  <REMARK>
 VINA RESULT:     -10.1      1.313      1.961
  Name = 
  4 active torsions:
  status: ('A' for Active; 'I' for Inactive)
    1  A    between atoms: N_3  and  C_13
    2  A    between atoms: C_10  and  O_29
    3  A    between atoms: C_12  and  C_28
    4  A    between atoms: N_17  and  O_29
                            x       y       z     vdW  Elec       q    Type
                         _______ _______ _______ _____ _____    ______ ____

>  <TORSDO>
F 4

$$$$
=
 OpenBabel11052414053D

 34 40  0  0  1  0  0  0  0  0999 V2000
  187.6980  177.6300  140.5930 C   0  0  0  0  0  0  0  0  0  0  0  0
  185.8640  178.9200  139.6940 C   0  0  0  0  0  0  0  0  0  0  0  0
  186.1170  178.6400  142.1630 C   0  0  0  0  0  0  0  0  0  0  0  0
  184.2970  179.4320  143.8650 C   0  0  1  0  0  0  0  0  0  0  0  0
  187.4560  177.8690  138.2690 N   0  0  0  0  0  0  0  0  0  0  0  0
  186.3450  178.6330  138.4180 C   0  0  0  0  0  3  0  0  0  0  0  0
  183.7810  178.3590  142.8290 C   0  0  2  0  0  0  0  0  0  0  0  0
  186.5390  178.4090  140.8240 C   0  0  0  0  0  0  0  0  0  0  0  0
  183.1060  178.5810  144.1520 C   0  0  0  0  0  2  0  0  0  0  0  0
  188.1130  177.3860  139.3240 N   0  0  0  0  0  0  0  0  0  0  0  0
  186.8880  178.1460  143.2300 C   0  0  0  0  0  0  0  0  0  0  0  0
  188.4250  177.1110  141.6600 C   0  0  0  0  0  3  0  0  0  0  0  0
  184.7690  179.7130  139.7970 F   0  0  0  0  0  0  0  0  0  0  0  0
  185.3010  178.9770  144.8370 N   0  0  0  0  0  0  0  0  0  0  0  0
  186.4530  178.4100  144.6210 C   0  0  0  0  0  0  0  0  0  0  0  0
  184.8330  179.3790  142.4500 C   0  0  2  0  0  3  0  0  0  0  0  0
  188.0220  177.3680  142.9650 C   0  0  0  0  0  3  0  0  0  0  0  0
  189.3640  177.2680  146.7860 C   0  0  0  0  0  0  0  0  0  0  0  0
  188.8450  177.4730  148.0670 C   0  0  0  0  0  3  0  0  0  0  0  0
  187.2820  178.0600  145.8030 C   0  0  0  0  0  0  0  0  0  0  0  0
  187.5520  177.9790  148.2210 C   0  0  0  0  0  3  0  0  0  0  0  0
  188.5880  177.5640  145.6620 C   0  0  0  0  0  3  0  0  0  0  0  0
  186.7770  178.2750  147.0960 C   0  0  0  0  0  3  0  0  0  0  0  0
  190.6510  176.7710  146.6310 O   0  0  0  0  0  1  0  0  0  0  0  0
  182.7300  178.6880  141.9290 O   0  0  0  0  0  0  0  0  0  0  0  0
  183.1610  176.9910  140.4150 N   0  0  0  0  0  0  0  0  0  0  0  0
  182.3440  177.8270  140.9200 N   0  0  0  0  0  0  0  0  0  0  0  0
  180.6240  175.0570  139.7780 O   0  0  0  0  0  1  0  0  0  0  0  0
  182.7440  176.0940  139.3510 C   0  0  1  0  0  3  0  0  0  0  0  0
  181.2170  176.1750  139.1920 C   0  0  1  0  0  3  0  0  0  0  0  0
  181.2560  177.5210  137.3930 C   0  0  0  0  0  2  0  0  0  0  0  0
  182.7870  177.6110  137.3080 C   0  0  0  0  0  2  0  0  0  0  0  0
  183.4650  176.4480  138.0420 C   0  0  0  0  0  2  0  0  0  0  0  0
  180.8410  176.2520  137.8380 O   0  0  0  0  0  0  0  0  0  0  0  0
  1  8  2  0  0  0  0
  1 12  1  0  0  0  0
  2 13  1  0  0  0  0
  2  8  1  0  0  0  0
  3 11  2  0  0  0  0
  4  9  1  1  0  0  0
  4 14  1  0  0  0  0
  5  6  1  0  0  0  0
  5 10  2  0  0  0  0
  6  2  2  0  0  0  0
  7 25  1  6  0  0  0
  7  4  1  0  0  0  0
  7  9  1  0  0  0  0
  8  3  1  0  0  0  0
 10  1  1  0  0  0  0
 11 15  1  0  0  0  0
 12 17  2  0  0  0  0
 15 14  2  0  0  0  0
 15 20  1  0  0  0  0
 16  3  1  1  0  0  0
 16  7  1  0  0  0  0
 16  4  1  0  0  0  0
 17 11  1  0  0  0  0
 18 19  1  0  0  0  0
 19 21  2  0  0  0  0
 20 23  2  0  0  0  0
 22 20  1  0  0  0  0
 22 18  2  0  0  0  0
 23 21  1  0  0  0  0
 24 18  1  0  0  0  0
 26 27  2  0  0  0  0
 27 25  1  0  0  0  0
 29 26  1  1  0  0  0
 30 29  1  0  0  0  0
 30 28  1  6  0  0  0
 31 34  1  0  0  0  0
 32 31  1  0  0  0  0
 32 33  1  0  0  0  0
 33 29  1  0  0  0  0
 34 30  1  0  0  0  0
M  END
>  <MODEL>
5

>  <REMARK>
 VINA RESULT:      -9.7      4.016      7.224
  Name = 
  4 active torsions:
  status: ('A' for Active; 'I' for Inactive)
    1  A    between atoms: N_3  and  C_13
    2  A    between atoms: C_10  and  O_29
    3  A    between atoms: C_12  and  C_28
    4  A    between atoms: N_17  and  O_29
                            x       y       z     vdW  Elec       q    Type
                         _______ _______ _______ _____ _____    ______ ____

>  <TORSDO>
F 4

$$$$
=
 OpenBabel11052414053D

 34 40  0  0  1  0  0  0  0  0999 V2000
  188.2960  177.3280  140.6920 C   0  0  0  0  0  0  0  0  0  0  0  0
  186.5750  178.6280  139.6040 C   0  0  0  0  0  0  0  0  0  0  0  0
  186.6310  178.4440  142.0940 C   0  0  0  0  0  0  0  0  0  0  0  0
  184.7110  179.3540  143.6190 C   0  0  1  0  0  0  0  0  0  0  0  0
  188.2380  177.4770  138.3490 N   0  0  0  0  0  0  0  0  0  0  0  0
  187.1430  178.2760  138.3820 C   0  0  0  0  0  3  0  0  0  0  0  0
  184.2430  178.2530  142.5890 C   0  0  2  0  0  0  0  0  0  0  0  0
  187.1460  178.1460  140.8020 C   0  0  0  0  0  0  0  0  0  0  0  0
  183.4770  178.5470  143.8460 C   0  0  0  0  0  2  0  0  0  0  0  0
  188.7980  177.0210  139.4690 N   0  0  0  0  0  0  0  0  0  0  0  0
  187.3030  177.9740  143.2370 C   0  0  0  0  0  0  0  0  0  0  0  0
  188.9240  176.8350  141.8310 C   0  0  0  0  0  3  0  0  0  0  0  0
  185.5000  179.4540  139.5910 F   0  0  0  0  0  0  0  0  0  0  0  0
  185.6250  178.9130  144.6820 N   0  0  0  0  0  0  0  0  0  0  0  0
  186.7720  178.3070  144.5790 C   0  0  0  0  0  0  0  0  0  0  0  0
  185.3520  179.2280  142.2520 C   0  0  2  0  0  3  0  0  0  0  0  0
  188.4300  177.1560  143.0910 C   0  0  0  0  0  3  0  0  0  0  0  0
  189.4950  177.2340  147.0070 C   0  0  0  0  0  0  0  0  0  0  0  0
  188.8630  177.4500  148.2340 C   0  0  0  0  0  3  0  0  0  0  0  0
  187.4980  177.9840  145.8340 C   0  0  0  0  0  0  0  0  0  0  0  0
  187.5550  177.9390  148.2670 C   0  0  0  0  0  3  0  0  0  0  0  0
  188.8180  177.5050  145.8150 C   0  0  0  0  0  3  0  0  0  0  0  0
  186.8780  178.2090  147.0740 C   0  0  0  0  0  3  0  0  0  0  0  0
  190.7970  176.7530  146.9730 O   0  0  0  0  0  1  0  0  0  0  0  0
  183.2740  178.5720  141.5980 O   0  0  0  0  0  0  0  0  0  0  0  0
  182.3580  178.0430  139.5400 N   0  0  0  0  0  0  0  0  0  0  0  0
  182.9100  177.6650  140.6230 N   0  0  0  0  0  0  0  0  0  0  0  0
  183.4310  175.1730  138.4480 O   0  0  0  0  0  1  0  0  0  0  0  0
  181.9750  177.0760  138.5240 C   0  0  1  0  0  3  0  0  0  0  0  0
  182.2660  175.6580  139.0410 C   0  0  1  0  0  3  0  0  0  0  0  0
  180.1410  175.1920  139.6040 C   0  0  0  0  0  2  0  0  0  0  0  0
  179.5670  176.5440  139.1540 C   0  0  0  0  0  2  0  0  0  0  0  0
  180.4940  177.2480  138.1560 C   0  0  0  0  0  2  0  0  0  0  0  0
  181.1990  174.7810  138.7730 O   0  0  0  0  0  0  0  0  0  0  0  0
  1  8  2  0  0  0  0
  1 12  1  0  0  0  0
  2  8  1  0  0  0  0
  3 11  2  0  0  0  0
  4  9  1  1  0  0  0
  4 14  1  0  0  0  0
  5  6  1  0  0  0  0
  5 10  2  0  0  0  0
  6  2  2  0  0  0  0
  7 25  1  6  0  0  0
  7  4  1  0  0  0  0
  7  9  1  0  0  0  0
  8  3  1  0  0  0  0
 10  1  1  0  0  0  0
 11 15  1  0  0  0  0
 12 17  2  0  0  0  0
 13  2  1  0  0  0  0
 15 14  2  0  0  0  0
 15 20  1  0  0  0  0
 16  3  1  1  0  0  0
 16  7  1  0  0  0  0
 16  4  1  0  0  0  0
 17 11  1  0  0  0  0
 18 19  1  0  0  0  0
 19 21  2  0  0  0  0
 20 23  2  0  0  0  0
 22 20  1  0  0  0  0
 22 18  2  0  0  0  0
 23 21  1  0  0  0  0
 24 18  1  0  0  0  0
 26 27  2  0  0  0  0
 27 25  1  0  0  0  0
 29 30  1  0  0  0  0
 29 26  1  1  0  0  0
 30 28  1  6  0  0  0
 32 31  1  0  0  0  0
 33 29  1  0  0  0  0
 33 32  1  0  0  0  0
 34 30  1  0  0  0  0
 34 31  1  0  0  0  0
M  END
>  <MODEL>
6

>  <REMARK>
 VINA RESULT:      -9.5      3.688      7.190
  Name = 
  4 active torsions:
  status: ('A' for Active; 'I' for Inactive)
    1  A    between atoms: N_3  and  C_13
    2  A    between atoms: C_10  and  O_29
    3  A    between atoms: C_12  and  C_28
    4  A    between atoms: N_17  and  O_29
                            x       y       z     vdW  Elec       q    Type
                         _______ _______ _______ _____ _____    ______ ____

>  <TORSDO>
F 4

$$$$
=
 OpenBabel11052414053D

 34 40  0  0  1  0  0  0  0  0999 V2000
  189.1210  177.5090  139.9860 C   0  0  0  0  0  0  0  0  0  0  0  0
  187.8870  178.3880  138.1060 C   0  0  0  0  0  0  0  0  0  0  0  0
  186.8650  178.3660  140.3850 C   0  0  0  0  0  0  0  0  0  0  0  0
  184.3600  178.9790  140.8130 C   0  0  1  0  0  0  0  0  0  0  0  0
  190.0820  177.5060  137.8430 N   0  0  0  0  0  0  0  0  0  0  0  0
  188.9800  178.0800  137.3000 C   0  0  0  0  0  3  0  0  0  0  0  0
  184.5610  177.7500  139.8430 C   0  0  2  0  0  0  0  0  0  0  0  0
  187.9350  178.0960  139.4860 C   0  0  0  0  0  0  0  0  0  0  0  0
  183.2850  177.9650  140.6040 C   0  0  0  0  0  2  0  0  0  0  0  0
  190.1510  177.2320  139.1460 N   0  0  0  0  0  0  0  0  0  0  0  0
  187.0260  178.1010  141.7570 C   0  0  0  0  0  0  0  0  0  0  0  0
  189.2470  177.2120  141.3400 C   0  0  0  0  0  3  0  0  0  0  0  0
  186.8190  178.9910  137.5260 F   0  0  0  0  0  0  0  0  0  0  0  0
  184.7640  178.7840  142.2120 N   0  0  0  0  0  0  0  0  0  0  0  0
  185.9140  178.4040  142.6880 C   0  0  0  0  0  0  0  0  0  0  0  0
  185.5480  178.8970  139.8770 C   0  0  2  0  0  3  0  0  0  0  0  0
  188.2080  177.5060  142.2150 C   0  0  0  0  0  3  0  0  0  0  0  0
  187.3660  177.8050  146.1520 C   0  0  0  0  0  0  0  0  0  0  0  0
  186.2940  178.1840  146.9630 C   0  0  0  0  0  3  0  0  0  0  0  0
  186.0510  178.3010  144.1640 C   0  0  0  0  0  0  0  0  0  0  0  0
  185.1040  178.6280  146.3820 C   0  0  0  0  0  3  0  0  0  0  0  0
  187.2470  177.8680  144.7610 C   0  0  0  0  0  3  0  0  0  0  0  0
  184.9850  178.6910  144.9910 C   0  0  0  0  0  3  0  0  0  0  0  0
  188.5510  177.3690  146.7280 O   0  0  0  0  0  1  0  0  0  0  0  0
  184.0930  177.8180  138.5020 O   0  0  0  0  0  0  0  0  0  0  0  0
  183.6770  175.8030  137.4440 N   0  0  0  0  0  0  0  0  0  0  0  0
  184.4010  176.8410  137.5760 N   0  0  0  0  0  0  0  0  0  0  0  0
  185.3690  175.6100  134.6730 O   0  0  0  0  0  1  0  0  0  0  0  0
  184.0160  174.7790  136.4690 C   0  0  1  0  0  3  0  0  0  0  0  0
  185.4370  175.0350  135.9410 C   0  0  1  0  0  3  0  0  0  0  0  0
  186.4270  173.4720  137.2170 C   0  0  0  0  0  2  0  0  0  0  0  0
  185.1370  173.0030  137.9060 C   0  0  0  0  0  2  0  0  0  0  0  0
  183.8920  173.3830  137.0970 C   0  0  0  0  0  2  0  0  0  0  0  0
  186.1880  173.8470  135.8820 O   0  0  0  0  0  0  0  0  0  0  0  0
  1 12  1  0  0  0  0
  2  8  1  0  0  0  0
  3 11  2  0  0  0  0
  4  9  1  6  0  0  0
  4 14  1  0  0  0  0
  5 10  2  0  0  0  0
  6  5  1  0  0  0  0
  6  2  2  0  0  0  0
  7 25  1  6  0  0  0
  7 16  1  0  0  0  0
  7  9  1  0  0  0  0
  7  4  1  0  0  0  0
  8  1  2  0  0  0  0
  8  3  1  0  0  0  0
 10  1  1  0  0  0  0
 11 17  1  0  0  0  0
 11 15  1  0  0  0  0
 12 17  2  0  0  0  0
 13  2  1  0  0  0  0
 14 15  2  0  0  0  0
 15 20  1  0  0  0  0
 16  3  1  1  0  0  0
 16  4  1  0  0  0  0
 18 24  1  0  0  0  0
 18 19  1  0  0  0  0
 20 22  1  0  0  0  0
 20 23  2  0  0  0  0
 21 19  2  0  0  0  0
 22 18  2  0  0  0  0
 23 21  1  0  0  0  0
 26 27  2  0  0  0  0
 27 25  1  0  0  0  0
 29 33  1  0  0  0  0
 29 26  1  1  0  0  0
 30 28  1  6  0  0  0
 30 29  1  0  0  0  0
 31 32  1  0  0  0  0
 33 32  1  0  0  0  0
 34 30  1  0  0  0  0
 34 31  1  0  0  0  0
M  END
>  <MODEL>
7

>  <REMARK>
 VINA RESULT:      -9.4      3.539      5.900
  Name = 
  4 active torsions:
  status: ('A' for Active; 'I' for Inactive)
    1  A    between atoms: N_3  and  C_13
    2  A    between atoms: C_10  and  O_29
    3  A    between atoms: C_12  and  C_28
    4  A    between atoms: N_17  and  O_29
                            x       y       z     vdW  Elec       q    Type
                         _______ _______ _______ _____ _____    ______ ____

>  <TORSDO>
F 4

$$$$
=
 OpenBabel11052414053D

 34 40  0  0  1  0  0  0  0  0999 V2000
  189.1400  177.0700  140.9320 C   0  0  0  0  0  0  0  0  0  0  0  0
  187.5560  178.2590  139.5500 C   0  0  0  0  0  0  0  0  0  0  0  0
  187.2770  178.2110  142.0320 C   0  0  0  0  0  0  0  0  0  0  0  0
  185.1480  179.1440  143.2290 C   0  0  1  0  0  0  0  0  0  0  0  0
  189.3990  177.0930  138.5980 N   0  0  0  0  0  0  0  0  0  0  0  0
  188.2920  177.8590  138.4370 C   0  0  0  0  0  3  0  0  0  0  0  0
  184.8480  177.9760  142.2100 C   0  0  2  0  0  0  0  0  0  0  0  0
  187.9690  177.8590  140.8400 C   0  0  0  0  0  0  0  0  0  0  0  0
  183.9120  178.3150  143.3340 C   0  0  0  0  0  2  0  0  0  0  0  0
  189.8110  176.7130  139.8070 N   0  0  0  0  0  0  0  0  0  0  0  0
  187.7970  177.8220  143.2790 C   0  0  0  0  0  0  0  0  0  0  0  0
  189.6180  176.6570  142.1710 C   0  0  0  0  0  3  0  0  0  0  0  0
  186.4740  179.0510  139.3450 F   0  0  0  0  0  0  0  0  0  0  0  0
  185.9170  178.7870  144.4300 N   0  0  0  0  0  0  0  0  0  0  0  0
  187.0810  178.2100  144.5160 C   0  0  0  0  0  0  0  0  0  0  0  0
  185.9710  178.9640  141.9710 C   0  0  2  0  0  3  0  0  0  0  0  0
  188.9510  177.0300  143.3330 C   0  0  0  0  0  3  0  0  0  0  0  0
  189.4510  177.2880  147.3440 C   0  0  0  0  0  0  0  0  0  0  0  0
  188.6770  177.6110  148.4610 C   0  0  0  0  0  3  0  0  0  0  0  0
  187.6370  177.9760  145.8730 C   0  0  0  0  0  0  0  0  0  0  0  0
  187.3890  178.1240  148.2910 C   0  0  0  0  0  3  0  0  0  0  0  0
  188.9350  177.4740  146.0580 C   0  0  0  0  0  3  0  0  0  0  0  0
  186.8740  178.3100  147.0050 C   0  0  0  0  0  3  0  0  0  0  0  0
  190.7340  176.7830  147.5110 O   0  0  0  0  0  1  0  0  0  0  0  0
  184.0160  178.2130  141.0820 O   0  0  0  0  0  0  0  0  0  0  0  0
  181.9090  178.9510  140.4700 N   0  0  0  0  0  0  0  0  0  0  0  0
  182.6390  178.1850  141.1780 N   0  0  0  0  0  0  0  0  0  0  0  0
  179.5750  176.6860  140.5280 O   0  0  0  0  0  1  0  0  0  0  0  0
  180.4610  178.9140  140.5860 C   0  0  1  0  0  3  0  0  0  0  0  0
  180.0510  177.6710  141.3930 C   0  0  1  0  0  3  0  0  0  0  0  0
  179.6990  178.7710  143.3210 C   0  0  0  0  0  2  0  0  0  0  0  0
  180.0530  180.1600  142.7670 C   0  0  0  0  0  2  0  0  0  0  0  0
  179.9450  180.2040  141.2390 C   0  0  0  0  0  2  0  0  0  0  0  0
  179.0640  177.9780  142.3480 O   0  0  0  0  0  0  0  0  0  0  0  0
  1 12  1  0  0  0  0
  2  8  1  0  0  0  0
  3 11  2  0  0  0  0
  4  9  1  1  0  0  0
  4 14  1  0  0  0  0
  5 10  2  0  0  0  0
  6  5  1  0  0  0  0
  6  2  2  0  0  0  0
  7 25  1  6  0  0  0
  7  4  1  0  0  0  0
  7  9  1  0  0  0  0
  8  1  2  0  0  0  0
  8  3  1  0  0  0  0
 10  1  1  0  0  0  0
 11 17  1  0  0  0  0
 11 15  1  0  0  0  0
 12 17  2  0  0  0  0
 13  2  1  0  0  0  0
 14 15  2  0  0  0  0
 15 20  1  0  0  0  0
 16  3  1  1  0  0  0
 16  7  1  0  0  0  0
 16  4  1  0  0  0  0
 18 24  1  0  0  0  0
 18 19  1  0  0  0  0
 20 22  1  0  0  0  0
 20 23  2  0  0  0  0
 21 19  2  0  0  0  0
 22 18  2  0  0  0  0
 23 21  1  0  0  0  0
 25 27  1  0  0  0  0
 26 27  2  0  0  0  0
 29 26  1  1  0  0  0
 29 33  1  0  0  0  0
 29 30  1  0  0  0  0
 30 28  1  6  0  0  0
 30 34  1  0  0  0  0
 32 31  1  0  0  0  0
 33 32  1  0  0  0  0
 34 31  1  0  0  0  0
M  END
>  <MODEL>
8

>  <REMARK>
 VINA RESULT:      -9.3      3.679      7.930
  Name = 
  4 active torsions:
  status: ('A' for Active; 'I' for Inactive)
    1  A    between atoms: N_3  and  C_13
    2  A    between atoms: C_10  and  O_29
    3  A    between atoms: C_12  and  C_28
    4  A    between atoms: N_17  and  O_29
                            x       y       z     vdW  Elec       q    Type
                         _______ _______ _______ _____ _____    ______ ____

>  <TORSDO>
F 4

$$$$
=
 OpenBabel11052414053D

 34 40  0  0  1  0  0  0  0  0999 V2000
  189.7620  176.8210  140.7590 C   0  0  0  0  0  0  0  0  0  0  0  0
  188.4930  178.1260  139.1710 C   0  0  0  0  0  0  0  0  0  0  0  0
  187.8600  178.1160  141.5880 C   0  0  0  0  0  0  0  0  0  0  0  0
  185.6660  179.2280  142.4750 C   0  0  1  0  0  0  0  0  0  0  0  0
  190.3520  176.8070  138.4850 N   0  0  0  0  0  0  0  0  0  0  0  0
  189.3450  177.6600  138.1730 C   0  0  0  0  0  3  0  0  0  0  0  0
  185.4200  178.0820  141.4170 C   0  0  2  0  0  0  0  0  0  0  0  0
  188.6840  177.7020  140.5050 C   0  0  0  0  0  0  0  0  0  0  0  0
  184.3640  178.5030  142.3980 C   0  0  0  0  0  2  0  0  0  0  0  0
  190.5550  176.4030  139.7390 N   0  0  0  0  0  0  0  0  0  0  0  0
  188.1640  177.6940  142.8940 C   0  0  0  0  0  0  0  0  0  0  0  0
  190.0230  176.3780  142.0520 C   0  0  0  0  0  3  0  0  0  0  0  0
  187.5200  179.0020  138.8190 F   0  0  0  0  0  0  0  0  0  0  0  0
  186.2250  178.8170  143.7700 N   0  0  0  0  0  0  0  0  0  0  0  0
  187.3130  178.1480  144.0180 C   0  0  0  0  0  0  0  0  0  0  0  0
  186.6420  178.9730  141.3450 C   0  0  2  0  0  3  0  0  0  0  0  0
  189.2300  176.8110  143.1080 C   0  0  0  0  0  3  0  0  0  0  0  0
  189.2300  177.2090  147.1670 C   0  0  0  0  0  0  0  0  0  0  0  0
  188.2650  177.4430  148.1500 C   0  0  0  0  0  3  0  0  0  0  0  0
  187.6480  177.8780  145.4400 C   0  0  0  0  0  0  0  0  0  0  0  0
  186.9970  177.9020  147.7860 C   0  0  0  0  0  3  0  0  0  0  0  0
  188.9240  177.4300  145.8210 C   0  0  0  0  0  3  0  0  0  0  0  0
  186.6920  178.1220  146.4400 C   0  0  0  0  0  3  0  0  0  0  0  0
  190.4930  176.7590  147.5270 O   0  0  0  0  0  1  0  0  0  0  0  0
  184.7800  178.3790  140.1820 O   0  0  0  0  0  0  0  0  0  0  0  0
  184.5800  177.9120  137.9250 N   0  0  0  0  0  0  0  0  0  0  0  0
  184.8500  177.5180  139.1040 N   0  0  0  0  0  0  0  0  0  0  0  0
  186.7370  175.8130  136.6910 O   0  0  0  0  0  1  0  0  0  0  0  0
  184.6530  176.9940  136.8000 C   0  0  1  0  0  3  0  0  0  0  0  0
  185.4480  175.7460  137.2170 C   0  0  1  0  0  3  0  0  0  0  0  0
  183.6470  174.4430  137.5480 C   0  0  0  0  0  2  0  0  0  0  0  0
  182.6150  175.5150  137.1660 C   0  0  0  0  0  2  0  0  0  0  0  0
  183.2420  176.6280  136.3180 C   0  0  0  0  0  2  0  0  0  0  0  0
  184.8210  174.5640  136.7820 O   0  0  0  0  0  0  0  0  0  0  0  0
  1 12  1  0  0  0  0
  2  8  1  0  0  0  0
  3 11  2  0  0  0  0
  4  9  1  6  0  0  0
  4 14  1  0  0  0  0
  5 10  2  0  0  0  0
  6  5  1  0  0  0  0
  6  2  2  0  0  0  0
  7 25  1  6  0  0  0
  7  9  1  0  0  0  0
  7  4  1  0  0  0  0
  8  1  2  0  0  0  0
  8  3  1  0  0  0  0
 10  1  1  0  0  0  0
 11 17  1  0  0  0  0
 11 15  1  0  0  0  0
 12 17  2  0  0  0  0
 13  2  1  0  0  0  0
 14 15  2  0  0  0  0
 15 20  1  0  0  0  0
 16  7  1  0  0  0  0
 16  3  1  1  0  0  0
 16  4  1  0  0  0  0
 18 24  1  0  0  0  0
 18 19  1  0  0  0  0
 20 22  1  0  0  0  0
 20 23  2  0  0  0  0
 21 19  2  0  0  0  0
 22 18  2  0  0  0  0
 23 21  1  0  0  0  0
 26 27  2  0  0  0  0
 27 25  1  0  0  0  0
 29 30  1  0  0  0  0
 29 26  1  1  0  0  0
 30 28  1  6  0  0  0
 32 31  1  0  0  0  0
 33 29  1  0  0  0  0
 33 32  1  0  0  0  0
 34 30  1  0  0  0  0
 34 31  1  0  0  0  0
M  END
>  <MODEL>
9

>  <REMARK>
 VINA RESULT:      -9.2      3.236      5.902
  Name = 
  4 active torsions:
  status: ('A' for Active; 'I' for Inactive)
    1  A    between atoms: N_3  and  C_13
    2  A    between atoms: C_10  and  O_29
    3  A    between atoms: C_12  and  C_28
    4  A    between atoms: N_17  and  O_29
                            x       y       z     vdW  Elec       q    Type
                         _______ _______ _______ _____ _____    ______ ____

>  <TORSDO>
F 4

$$$$
