=
 OpenBabel11052416283D

 43 47  0  0  1  0  0  0  0  0999 V2000
  188.6850  176.9420  145.8230 C   0  0  1  0  0  3  0  0  0  0  0  0
  184.2860  178.6800  143.7080 C   0  0  0  0  0  0  0  0  0  0  0  0
  184.6330  178.6800  140.9220 C   0  0  0  0  0  0  0  0  0  0  0  0
  186.4120  177.9010  145.4730 C   0  0  1  0  0  3  0  0  0  0  0  0
  189.0440  177.2580  144.3710 C   0  0  0  0  0  2  0  0  0  0  0  0
  189.9330  177.0010  146.6780 C   0  0  0  0  0  1  0  0  0  0  0  0
  186.7840  178.2790  144.0360 C   0  0  1  0  0  3  0  0  0  0  0  0
  187.6540  177.9380  146.3540 C   0  0  0  0  0  2  0  0  0  0  0  0
  187.7920  177.2600  143.4950 C   0  0  0  0  0  2  0  0  0  0  0  0
  185.7270  178.4650  141.7590 C   0  0  0  0  0  3  0  0  0  0  0  0
  185.5650  178.4250  143.1510 C   0  0  0  0  0  0  0  0  0  0  0  0
  184.0680  178.6410  145.2030 C   0  0  0  0  0  2  0  0  0  0  0  0
  183.1830  178.8930  142.8590 C   0  0  0  0  0  0  0  0  0  0  0  0
  183.3690  178.8940  141.4700 C   0  0  0  0  0  3  0  0  0  0  0  0
  185.3560  178.8600  145.9910 C   0  0  0  0  0  2  0  0  0  0  0  0
  184.8270  178.7560  139.4500 C   0  0  0  0  0  2  0  0  0  0  0  0
  186.1970  178.3870  139.1250 N   0  0  0  0  0  2  0  0  0  0  0  0
  186.3180  178.3270  137.6750 C   0  0  1  0  0  3  0  0  0  0  0  0
  187.3730  179.1340  137.2430 O   0  0  0  0  0  1  0  0  0  0  0  0
  186.5330  176.8850  137.2130 C   0  0  0  0  0  2  0  0  0  0  0  0
  186.9010  176.7780  135.7350 C   0  0  0  0  0  2  0  0  0  0  0  0
  187.9740  175.8160  135.5380 N   0  0  0  0  0  0  0  0  0  0  0  0
  189.7250  175.4650  137.1390 C   0  0  2  0  0  3  0  0  0  0  0  0
  187.6490  174.6860  136.3130 N   0  0  0  0  0  2  0  0  0  0  0  0
  189.1820  176.4120  136.1050 C   0  0  1  0  0  3  0  0  0  0  0  0
  190.2160  176.6150  135.0150 C   0  0  0  0  0  1  0  0  0  0  0  0
  188.8720  174.2440  136.9580 C   0  0  0  0  0  2  0  0  0  0  0  0
  189.5090  176.0220  138.4290 O   0  0  0  0  0  0  0  0  0  0  0  0
  190.5500  176.5130  139.2200 C   0  0  0  0  0  0  0  0  0  0  0  0
  192.7100  177.1390  139.9070 C   0  0  0  0  0  0  0  0  0  0  0  0
  191.7480  177.5030  141.3660 S   0  0  0  0  0  0  0  0  0  0  0  0
  193.9250  177.2470  139.8920 O   0  0  0  0  0  0  0  0  0  0  0  0
  190.3300  176.8690  140.4780 C   0  0  0  0  0  3  0  0  0  0  0  0
  191.9480  176.6680  138.7240 C   0  0  0  0  0  2  0  0  0  0  0  0
  181.8830  179.1300  143.4230 N   0  0  0  0  0  2  0  0  0  0  0  0
  180.6500  179.3260  142.6630 C   0  0  2  0  0  3  0  0  0  0  0  0
  180.1420  180.6050  142.8940 O   0  0  0  0  0  1  0  0  0  0  0  0
  179.6050  178.2800  143.0210 C   0  0  0  0  0  2  0  0  0  0  0  0
  179.4850  177.3030  141.9530 N   0  0  0  0  0  2  0  0  0  0  0  0
  179.9370  177.9590  140.7340 C   0  0  0  0  0  2  0  0  0  0  0  0
  180.0720  177.6110  138.2500 C   0  0  0  0  0  1  0  0  0  0  0  0
  180.1750  176.9510  139.6120 C   0  0  0  0  0  3  0  0  0  0  0  0
  181.5190  176.2610  139.7580 C   0  0  0  0  0  1  0  0  0  0  0  0
  1  8  1  0  0  0  0
  1  6  1  1  0  0  0
  2 12  1  0  0  0  0
  3 14  2  0  0  0  0
  3 10  1  0  0  0  0
  4 15  1  1  0  0  0
  4  8  1  0  0  0  0
  5  1  1  0  0  0  0
  7  9  1  6  0  0  0
  7  4  1  0  0  0  0
  9  5  1  0  0  0  0
 10 11  2  0  0  0  0
 11  2  1  0  0  0  0
 11  7  1  0  0  0  0
 12 15  1  0  0  0  0
 13 35  1  0  0  0  0
 13  2  2  0  0  0  0
 14 13  1  0  0  0  0
 16  3  1  0  0  0  0
 17 16  1  0  0  0  0
 18 19  1  1  0  0  0
 18 17  1  0  0  0  0
 20 18  1  0  0  0  0
 21 20  1  0  0  0  0
 22 21  1  0  0  0  0
 22 25  1  0  0  0  0
 22 24  1  0  0  0  0
 23 28  1  1  0  0  0
 24 27  1  0  0  0  0
 25 26  1  6  0  0  0
 25 23  1  0  0  0  0
 27 23  1  0  0  0  0
 28 29  1  0  0  0  0
 29 33  2  0  0  0  0
 30 31  1  0  0  0  0
 32 30  2  0  0  0  0
 33 31  1  0  0  0  0
 34 29  1  0  0  0  0
 34 30  1  0  0  0  0
 36 37  1  1  0  0  0
 36 38  1  0  0  0  0
 36 35  1  0  0  0  0
 39 38  1  0  0  0  0
 40 39  1  0  0  0  0
 41 42  1  0  0  0  0
 42 43  1  0  0  0  0
 42 40  1  0  0  0  0
M  END
>  <MODEL>
1

>  <REMARK>
 VINA RESULT:      -8.6      0.000      0.000
  Name = 
  14 active torsions:
  status: ('A' for Active; 'I' for Inactive)
    1  A    between atoms: C_1  and  C_9
    2  A    between atoms: C_1  and  N_35
    3  A    between atoms: C_2  and  N_6
    4  A    between atoms: C_2  and  C_13
    5  A    between atoms: C_3  and  N_4
    6  A    between atoms: C_3  and  C_7
    7  A    between atoms: N_6  and  C_12
    8  A    between atoms: C_7  and  C_12
    9  A    between atoms: C_9  and  N_32
   10  A    between atoms: C_10  and  O_14
   11  A    between atoms: C_11  and  O_14
   12  A    between atoms: C_25  and  N_32
   13  A    between atoms: C_25  and  C_37
   14  A    between atoms: C_34  and  N_35
                            x       y       z     vdW  Elec       q    Type
                         _______ _______ _______ _____ _____    ______ ____

>  <TORSDO>
F 14

$$$$
=
 OpenBabel11052416283D

 43 47  0  0  1  0  0  0  0  0999 V2000
  191.2870  176.1450  147.0400 C   0  0  1  0  0  3  0  0  0  0  0  0
  187.0570  177.7710  144.5270 C   0  0  0  0  0  0  0  0  0  0  0  0
  187.7800  178.2000  141.8490 C   0  0  0  0  0  0  0  0  0  0  0  0
  188.9920  176.9390  146.4780 C   0  0  1  0  0  3  0  0  0  0  0  0
  191.8050  176.6970  145.7110 C   0  0  0  0  0  2  0  0  0  0  0  0
  192.3910  176.1920  148.0740 C   0  0  0  0  0  1  0  0  0  0  0  0
  189.5150  177.5500  145.1740 C   0  0  1  0  0  3  0  0  0  0  0  0
  190.0910  176.9600  147.5330 C   0  0  0  0  0  2  0  0  0  0  0  0
  190.6920  176.7130  144.6650 C   0  0  0  0  0  2  0  0  0  0  0  0
  188.7660  177.9660  142.8070 C   0  0  0  0  0  3  0  0  0  0  0  0
  188.4200  177.7130  144.1410 C   0  0  0  0  0  0  0  0  0  0  0  0
  186.6420  177.5000  145.9550 C   0  0  0  0  0  2  0  0  0  0  0  0
  186.0640  178.0050  143.5570 C   0  0  0  0  0  0  0  0  0  0  0  0
  186.4380  178.2210  142.2240 C   0  0  0  0  0  3  0  0  0  0  0  0
  187.7780  177.7170  146.9490 C   0  0  0  0  0  2  0  0  0  0  0  0
  188.1660  178.5030  140.4450 C   0  0  0  0  0  2  0  0  0  0  0  0
  187.0070  178.3380  139.5810 N   0  0  0  0  0  2  0  0  0  0  0  0
  187.4380  178.5280  138.2030 C   0  0  1  0  0  3  0  0  0  0  0  0
  188.7580  178.9820  138.1670 O   0  0  0  0  0  1  0  0  0  0  0  0
  187.3070  177.2230  137.4160 C   0  0  0  0  0  2  0  0  0  0  0  0
  188.6450  176.5230  137.1900 C   0  0  0  0  0  2  0  0  0  0  0  0
  188.5170  175.4710  136.1930 N   0  0  0  0  0  0  0  0  0  0  0  0
  187.0770  173.5740  136.4730 C   0  0  2  0  0  3  0  0  0  0  0  0
  187.3150  175.7170  135.5000 N   0  0  0  0  0  2  0  0  0  0  0  0
  188.3590  174.2160  136.9250 C   0  0  1  0  0  3  0  0  0  0  0  0
  189.5210  173.2920  136.6170 C   0  0  0  0  0  1  0  0  0  0  0  0
  186.6550  174.4370  135.3210 C   0  0  0  0  0  2  0  0  0  0  0  0
  186.1230  173.6670  137.5240 O   0  0  0  0  0  0  0  0  0  0  0  0
  184.7610  173.4270  137.3270 C   0  0  0  0  0  0  0  0  0  0  0  0
  182.4380  173.7770  137.2300 C   0  0  0  0  0  0  0  0  0  0  0  0
  182.5620  172.0540  136.7790 S   0  0  0  0  0  0  0  0  0  0  0  0
  181.3600  174.3270  137.3840 O   0  0  0  0  0  0  0  0  0  0  0  0
  184.3270  172.2110  137.0270 C   0  0  0  0  0  3  0  0  0  0  0  0
  183.7220  174.4920  137.4380 C   0  0  0  0  0  2  0  0  0  0  0  0
  184.6810  178.0420  143.9440 N   0  0  0  0  0  2  0  0  0  0  0  0
  183.9180  179.2500  144.2530 C   0  0  2  0  0  3  0  0  0  0  0  0
  183.5790  179.2710  145.6060 O   0  0  0  0  0  1  0  0  0  0  0  0
  182.6600  179.3440  143.4010 C   0  0  0  0  0  2  0  0  0  0  0  0
  182.8080  178.5480  142.1950 N   0  0  0  0  0  2  0  0  0  0  0  0
  181.7670  178.9850  141.2760 C   0  0  0  0  0  2  0  0  0  0  0  0
  183.3780  179.3180  139.3770 C   0  0  0  0  0  1  0  0  0  0  0  0
  182.1090  178.6230  139.8320 C   0  0  0  0  0  3  0  0  0  0  0  0
  182.2420  177.1220  139.6500 C   0  0  0  0  0  1  0  0  0  0  0  0
  1  8  1  0  0  0  0
  1  6  1  1  0  0  0
  2 12  1  0  0  0  0
  3 14  2  0  0  0  0
  3 10  1  0  0  0  0
  4 15  1  1  0  0  0
  4  8  1  0  0  0  0
  5  1  1  0  0  0  0
  7  9  1  6  0  0  0
  7  4  1  0  0  0  0
  9  5  1  0  0  0  0
 10 11  2  0  0  0  0
 11  2  1  0  0  0  0
 11  7  1  0  0  0  0
 12 15  1  0  0  0  0
 13 35  1  0  0  0  0
 13  2  2  0  0  0  0
 14 13  1  0  0  0  0
 16  3  1  0  0  0  0
 17 16  1  0  0  0  0
 18 19  1  1  0  0  0
 18 17  1  0  0  0  0
 20 18  1  0  0  0  0
 21 20  1  0  0  0  0
 22 25  1  0  0  0  0
 22 21  1  0  0  0  0
 23 25  1  0  0  0  0
 23 28  1  1  0  0  0
 24 22  1  0  0  0  0
 25 26  1  6  0  0  0
 27 24  1  0  0  0  0
 27 23  1  0  0  0  0
 29 34  1  0  0  0  0
 29 28  1  0  0  0  0
 30 32  2  0  0  0  0
 30 34  1  0  0  0  0
 31 33  1  0  0  0  0
 31 30  1  0  0  0  0
 33 29  2  0  0  0  0
 35 36  1  0  0  0  0
 36 37  1  1  0  0  0
 38 36  1  0  0  0  0
 39 38  1  0  0  0  0
 40 39  1  0  0  0  0
 41 42  1  0  0  0  0
 42 40  1  0  0  0  0
 43 42  1  0  0  0  0
M  END
>  <MODEL>
2

>  <REMARK>
 VINA RESULT:      -8.5      2.979      4.675
  Name = 
  14 active torsions:
  status: ('A' for Active; 'I' for Inactive)
    1  A    between atoms: C_1  and  C_9
    2  A    between atoms: C_1  and  N_35
    3  A    between atoms: C_2  and  N_6
    4  A    between atoms: C_2  and  C_13
    5  A    between atoms: C_3  and  N_4
    6  A    between atoms: C_3  and  C_7
    7  A    between atoms: N_6  and  C_12
    8  A    between atoms: C_7  and  C_12
    9  A    between atoms: C_9  and  N_32
   10  A    between atoms: C_10  and  O_14
   11  A    between atoms: C_11  and  O_14
   12  A    between atoms: C_25  and  N_32
   13  A    between atoms: C_25  and  C_37
   14  A    between atoms: C_34  and  N_35
                            x       y       z     vdW  Elec       q    Type
                         _______ _______ _______ _____ _____    ______ ____

>  <TORSDO>
F 14

$$$$
=
 OpenBabel11052416283D

 43 47  0  0  1  0  0  0  0  0999 V2000
  186.9170  177.5400  146.0170 C   0  0  1  0  0  3  0  0  0  0  0  0
  183.2500  178.7440  142.5610 C   0  0  0  0  0  0  0  0  0  0  0  0
  184.4100  178.5830  140.0100 C   0  0  0  0  0  0  0  0  0  0  0  0
  184.7970  178.2740  144.9330 C   0  0  1  0  0  3  0  0  0  0  0  0
  187.6720  177.7850  144.7100 C   0  0  0  0  0  2  0  0  0  0  0  0
  187.8470  177.7650  147.1900 C   0  0  0  0  0  1  0  0  0  0  0  0
  185.5570  178.5830  143.6390 C   0  0  1  0  0  3  0  0  0  0  0  0
  185.7160  178.4780  146.1310 C   0  0  0  0  0  2  0  0  0  0  0  0
  186.7400  177.6200  143.5110 C   0  0  0  0  0  2  0  0  0  0  0  0
  185.2160  178.5210  141.1450 C   0  0  0  0  0  3  0  0  0  0  0  0
  184.6490  178.5630  142.4270 C   0  0  0  0  0  0  0  0  0  0  0  0
  182.5990  178.7910  143.9240 C   0  0  0  0  0  2  0  0  0  0  0  0
  182.4390  178.8040  141.4110 C   0  0  0  0  0  0  0  0  0  0  0  0
  183.0290  178.7250  140.1430 C   0  0  0  0  0  3  0  0  0  0  0  0
  183.5780  179.1720  145.0300 C   0  0  0  0  0  2  0  0  0  0  0  0
  185.0290  178.5740  138.6580 C   0  0  0  0  0  2  0  0  0  0  0  0
  184.2120  177.7730  137.7580 N   0  0  0  0  0  2  0  0  0  0  0  0
  185.0280  176.6720  137.2650 C   0  0  1  0  0  3  0  0  0  0  0  0
  184.4940  176.1700  136.0760 O   0  0  0  0  0  1  0  0  0  0  0  0
  186.4700  177.1300  137.0440 C   0  0  0  0  0  2  0  0  0  0  0  0
  187.5000  176.0770  137.4470 C   0  0  0  0  0  2  0  0  0  0  0  0
  188.8450  176.6310  137.4170 N   0  0  0  0  0  0  0  0  0  0  0  0
  189.9830  177.4080  139.3800 C   0  0  2  0  0  3  0  0  0  0  0  0
  189.7100  175.6130  137.8640 N   0  0  0  0  0  2  0  0  0  0  0  0
  188.8780  177.7080  138.4050 C   0  0  1  0  0  3  0  0  0  0  0  0
  189.1590  179.0290  137.7160 C   0  0  0  0  0  1  0  0  0  0  0  0
  190.6730  176.2310  138.7570 C   0  0  0  0  0  2  0  0  0  0  0  0
  189.4060  177.0310  140.6240 O   0  0  0  0  0  0  0  0  0  0  0  0
  190.1040  177.1090  141.8310 C   0  0  0  0  0  0  0  0  0  0  0  0
  191.2950  178.0000  143.6520 C   0  0  0  0  0  0  0  0  0  0  0  0
  191.2920  176.2580  144.0410 S   0  0  0  0  0  0  0  0  0  0  0  0
  191.9070  178.8100  144.3280 O   0  0  0  0  0  0  0  0  0  0  0  0
  190.4200  176.0080  142.4990 C   0  0  0  0  0  3  0  0  0  0  0  0
  190.5350  178.4000  142.4410 C   0  0  0  0  0  2  0  0  0  0  0  0
  181.0180  178.9660  141.5480 N   0  0  0  0  0  2  0  0  0  0  0  0
  180.0890  179.2640  140.4590 C   0  0  2  0  0  3  0  0  0  0  0  0
  180.2970  178.3860  139.3960 O   0  0  0  0  0  1  0  0  0  0  0  0
  180.2360  180.7020  139.9820 C   0  0  0  0  0  2  0  0  0  0  0  0
  180.5450  180.7320  138.5630 N   0  0  0  0  0  2  0  0  0  0  0  0
  181.3720  181.9100  138.3410 C   0  0  0  0  0  2  0  0  0  0  0  0
  181.4850  184.1870  137.2860 C   0  0  0  0  0  1  0  0  0  0  0  0
  180.6940  182.8970  137.3930 C   0  0  0  0  0  3  0  0  0  0  0  0
  180.4860  182.2950  136.0150 C   0  0  0  0  0  1  0  0  0  0  0  0
  1  8  1  0  0  0  0
  1  6  1  1  0  0  0
  2 12  1  0  0  0  0
  3 14  2  0  0  0  0
  3 10  1  0  0  0  0
  4 15  1  1  0  0  0
  4  8  1  0  0  0  0
  5  1  1  0  0  0  0
  7  9  1  6  0  0  0
  7  4  1  0  0  0  0
  9  5  1  0  0  0  0
 10 11  2  0  0  0  0
 11  2  1  0  0  0  0
 11  7  1  0  0  0  0
 12 15  1  0  0  0  0
 13 35  1  0  0  0  0
 13  2  2  0  0  0  0
 14 13  1  0  0  0  0
 16  3  1  0  0  0  0
 17 16  1  0  0  0  0
 18 19  1  6  0  0  0
 18 17  1  0  0  0  0
 20 18  1  0  0  0  0
 20 21  1  0  0  0  0
 22 21  1  0  0  0  0
 22 24  1  0  0  0  0
 22 25  1  0  0  0  0
 23 28  1  1  0  0  0
 24 27  1  0  0  0  0
 25 26  1  6  0  0  0
 25 23  1  0  0  0  0
 27 23  1  0  0  0  0
 28 29  1  0  0  0  0
 29 34  1  0  0  0  0
 29 33  2  0  0  0  0
 30 31  1  0  0  0  0
 30 32  2  0  0  0  0
 33 31  1  0  0  0  0
 34 30  1  0  0  0  0
 36 37  1  6  0  0  0
 36 35  1  0  0  0  0
 38 36  1  0  0  0  0
 39 38  1  0  0  0  0
 40 39  1  0  0  0  0
 41 42  1  0  0  0  0
 42 40  1  0  0  0  0
 43 42  1  0  0  0  0
M  END
>  <MODEL>
3

>  <REMARK>
 VINA RESULT:      -8.4      2.670      3.209
  Name = 
  14 active torsions:
  status: ('A' for Active; 'I' for Inactive)
    1  A    between atoms: C_1  and  C_9
    2  A    between atoms: C_1  and  N_35
    3  A    between atoms: C_2  and  N_6
    4  A    between atoms: C_2  and  C_13
    5  A    between atoms: C_3  and  N_4
    6  A    between atoms: C_3  and  C_7
    7  A    between atoms: N_6  and  C_12
    8  A    between atoms: C_7  and  C_12
    9  A    between atoms: C_9  and  N_32
   10  A    between atoms: C_10  and  O_14
   11  A    between atoms: C_11  and  O_14
   12  A    between atoms: C_25  and  N_32
   13  A    between atoms: C_25  and  C_37
   14  A    between atoms: C_34  and  N_35
                            x       y       z     vdW  Elec       q    Type
                         _______ _______ _______ _____ _____    ______ ____

>  <TORSDO>
F 14

$$$$
=
 OpenBabel11052416283D

 43 47  0  0  1  0  0  0  0  0999 V2000
  191.1420  176.2310  147.0310 C   0  0  1  0  0  3  0  0  0  0  0  0
  186.9800  177.7870  144.3660 C   0  0  0  0  0  0  0  0  0  0  0  0
  187.7840  178.1920  141.7070 C   0  0  0  0  0  0  0  0  0  0  0  0
  188.8600  176.9970  146.3870 C   0  0  1  0  0  3  0  0  0  0  0  0
  191.6970  176.7720  145.7130 C   0  0  0  0  0  2  0  0  0  0  0  0
  192.2130  176.3010  148.0990 C   0  0  0  0  0  1  0  0  0  0  0  0
  189.4190  177.5980  145.0930 C   0  0  1  0  0  3  0  0  0  0  0  0
  189.9240  177.0400  147.4760 C   0  0  0  0  0  2  0  0  0  0  0  0
  190.6180  176.7650  144.6310 C   0  0  0  0  0  2  0  0  0  0  0  0
  188.7410  177.9780  142.6980 C   0  0  0  0  0  3  0  0  0  0  0  0
  188.3550  177.7380  144.0240 C   0  0  0  0  0  0  0  0  0  0  0  0
  186.5220  177.5300  145.7830 C   0  0  0  0  0  2  0  0  0  0  0  0
  186.0170  178.0010  143.3620 C   0  0  0  0  0  0  0  0  0  0  0  0
  186.4300  178.2040  142.0390 C   0  0  0  0  0  3  0  0  0  0  0  0
  187.6240  177.7690  146.8100 C   0  0  0  0  0  2  0  0  0  0  0  0
  188.2110  178.4820  140.3120 C   0  0  0  0  0  2  0  0  0  0  0  0
  187.0470  178.4730  139.4400 N   0  0  0  0  0  2  0  0  0  0  0  0
  187.5120  178.3560  138.0650 C   0  0  1  0  0  3  0  0  0  0  0  0
  188.7110  179.0520  137.8980 O   0  0  0  0  0  1  0  0  0  0  0  0
  187.6960  176.8870  137.6840 C   0  0  0  0  0  2  0  0  0  0  0  0
  189.0330  176.6080  137.0020 C   0  0  0  0  0  2  0  0  0  0  0  0
  189.7000  175.4700  137.6160 N   0  0  0  0  0  0  0  0  0  0  0  0
  191.5900  174.3730  136.6280 C   0  0  2  0  0  3  0  0  0  0  0  0
  190.8700  175.9680  138.2210 N   0  0  0  0  0  2  0  0  0  0  0  0
  190.1040  174.5830  136.5280 C   0  0  1  0  0  3  0  0  0  0  0  0
  189.3970  173.2480  136.6630 C   0  0  0  0  0  1  0  0  0  0  0  0
  191.9350  175.0220  137.9360 C   0  0  0  0  0  2  0  0  0  0  0  0
  192.2230  175.0670  135.5600 O   0  0  0  0  0  0  0  0  0  0  0  0
  193.6100  175.2080  135.4730 C   0  0  0  0  0  0  0  0  0  0  0  0
  195.7400  176.2030  135.4100 C   0  0  0  0  0  0  0  0  0  0  0  0
  196.1380  174.4830  135.1450 S   0  0  0  0  0  0  0  0  0  0  0  0
  196.5890  177.0770  135.3560 O   0  0  0  0  0  0  0  0  0  0  0  0
  194.3780  174.1620  135.2040 C   0  0  0  0  0  3  0  0  0  0  0  0
  194.3100  176.5100  135.6680 C   0  0  0  0  0  2  0  0  0  0  0  0
  184.6220  178.0300  143.7050 N   0  0  0  0  0  2  0  0  0  0  0  0
  183.8500  179.2290  144.0260 C   0  0  2  0  0  3  0  0  0  0  0  0
  183.5750  179.2710  145.3930 O   0  0  0  0  0  1  0  0  0  0  0  0
  182.5520  179.2830  143.2330 C   0  0  0  0  0  2  0  0  0  0  0  0
  182.7820  178.8590  141.8630 N   0  0  0  0  0  2  0  0  0  0  0  0
  181.5550  178.2190  141.4120 C   0  0  0  0  0  2  0  0  0  0  0  0
  182.7440  176.7450  139.7630 C   0  0  0  0  0  1  0  0  0  0  0  0
  181.6550  177.7830  139.9520 C   0  0  0  0  0  3  0  0  0  0  0  0
  180.3300  177.2520  139.4360 C   0  0  0  0  0  1  0  0  0  0  0  0
  1  8  1  0  0  0  0
  1  6  1  1  0  0  0
  2 12  1  0  0  0  0
  3 14  2  0  0  0  0
  3 10  1  0  0  0  0
  4 15  1  1  0  0  0
  4  8  1  0  0  0  0
  5  1  1  0  0  0  0
  7  9  1  6  0  0  0
  7  4  1  0  0  0  0
  9  5  1  0  0  0  0
 10 11  2  0  0  0  0
 11  2  1  0  0  0  0
 11  7  1  0  0  0  0
 12 15  1  0  0  0  0
 13 35  1  0  0  0  0
 13  2  2  0  0  0  0
 14 13  1  0  0  0  0
 16  3  1  0  0  0  0
 17 16  1  0  0  0  0
 18 19  1  1  0  0  0
 18 17  1  0  0  0  0
 20 18  1  0  0  0  0
 21 22  1  0  0  0  0
 21 20  1  0  0  0  0
 22 24  1  0  0  0  0
 23 28  1  6  0  0  0
 23 27  1  0  0  0  0
 25 23  1  0  0  0  0
 25 26  1  1  0  0  0
 25 22  1  0  0  0  0
 27 24  1  0  0  0  0
 29 28  1  0  0  0  0
 29 34  1  0  0  0  0
 30 34  1  0  0  0  0
 31 33  1  0  0  0  0
 31 30  1  0  0  0  0
 32 30  2  0  0  0  0
 33 29  2  0  0  0  0
 35 36  1  0  0  0  0
 36 37  1  1  0  0  0
 38 36  1  0  0  0  0
 39 38  1  0  0  0  0
 40 39  1  0  0  0  0
 41 42  1  0  0  0  0
 42 40  1  0  0  0  0
 43 42  1  0  0  0  0
M  END
>  <MODEL>
4

>  <REMARK>
 VINA RESULT:      -8.4      2.660      3.506
  Name = 
  14 active torsions:
  status: ('A' for Active; 'I' for Inactive)
    1  A    between atoms: C_1  and  C_9
    2  A    between atoms: C_1  and  N_35
    3  A    between atoms: C_2  and  N_6
    4  A    between atoms: C_2  and  C_13
    5  A    between atoms: C_3  and  N_4
    6  A    between atoms: C_3  and  C_7
    7  A    between atoms: N_6  and  C_12
    8  A    between atoms: C_7  and  C_12
    9  A    between atoms: C_9  and  N_32
   10  A    between atoms: C_10  and  O_14
   11  A    between atoms: C_11  and  O_14
   12  A    between atoms: C_25  and  N_32
   13  A    between atoms: C_25  and  C_37
   14  A    between atoms: C_34  and  N_35
                            x       y       z     vdW  Elec       q    Type
                         _______ _______ _______ _____ _____    ______ ____

>  <TORSDO>
F 14

$$$$
=
 OpenBabel11052416283D

 43 47  0  0  1  0  0  0  0  0999 V2000
  185.0210  178.2020  145.7940 C   0  0  1  0  0  3  0  0  0  0  0  0
  182.7700  178.7090  141.1560 C   0  0  0  0  0  0  0  0  0  0  0  0
  184.7900  178.5280  139.2140 C   0  0  0  0  0  0  0  0  0  0  0  0
  183.3830  178.5930  143.9580 C   0  0  1  0  0  3  0  0  0  0  0  0
  186.1740  178.4530  144.8220 C   0  0  0  0  0  2  0  0  0  0  0  0
  185.4350  178.6170  147.1900 C   0  0  0  0  0  1  0  0  0  0  0  0
  184.5300  178.9090  142.9920 C   0  0  1  0  0  3  0  0  0  0  0  0
  183.7800  178.9870  145.3750 C   0  0  0  0  0  2  0  0  0  0  0  0
  185.7630  178.0950  143.3950 C   0  0  0  0  0  2  0  0  0  0  0  0
  185.1290  178.6410  140.5610 C   0  0  0  0  0  3  0  0  0  0  0  0
  184.1330  178.6960  141.5470 C   0  0  0  0  0  0  0  0  0  0  0  0
  181.6660  178.7630  142.1870 C   0  0  0  0  0  2  0  0  0  0  0  0
  182.4320  178.5920  139.7940 C   0  0  0  0  0  0  0  0  0  0  0  0
  183.4490  178.5040  138.8340 C   0  0  0  0  0  3  0  0  0  0  0  0
  182.1350  179.3360  143.5200 C   0  0  0  0  0  2  0  0  0  0  0  0
  185.8570  178.5080  138.1790 C   0  0  0  0  0  2  0  0  0  0  0  0
  187.1060  178.0690  138.7820 N   0  0  0  0  0  2  0  0  0  0  0  0
  188.1650  178.2210  137.7940 C   0  0  1  0  0  3  0  0  0  0  0  0
  187.8890  179.2990  136.9500 O   0  0  0  0  0  1  0  0  0  0  0  0
  189.5160  178.4210  138.4820 C   0  0  0  0  0  2  0  0  0  0  0  0
  189.4550  178.2180  139.9940 C   0  0  0  0  0  2  0  0  0  0  0  0
  190.2960  177.1040  140.4000 N   0  0  0  0  0  0  0  0  0  0  0  0
  191.4350  177.0280  142.5100 C   0  0  2  0  0  3  0  0  0  0  0  0
  189.5320  176.3270  141.2930 N   0  0  0  0  0  2  0  0  0  0  0  0
  191.4130  177.6730  141.1510 C   0  0  1  0  0  3  0  0  0  0  0  0
  192.7170  177.3810  140.4340 C   0  0  0  0  0  1  0  0  0  0  0  0
  190.4080  175.9420  142.3840 C   0  0  0  0  0  2  0  0  0  0  0  0
  191.0180  177.9830  143.4770 O   0  0  0  0  0  0  0  0  0  0  0  0
  190.7370  177.6390  144.8010 C   0  0  0  0  0  0  0  0  0  0  0  0
  189.6180  177.4830  146.8640 C   0  0  0  0  0  0  0  0  0  0  0  0
  191.1320  176.6010  147.2070 S   0  0  0  0  0  0  0  0  0  0  0  0
  188.7910  177.7040  147.7320 O   0  0  0  0  0  0  0  0  0  0  0  0
  191.6350  176.9990  145.5360 C   0  0  0  0  0  3  0  0  0  0  0  0
  189.4420  177.9590  145.4690 C   0  0  0  0  0  2  0  0  0  0  0  0
  181.0510  178.5840  139.3990 N   0  0  0  0  0  2  0  0  0  0  0  0
  180.4390  179.4910  138.4300 C   0  0  2  0  0  3  0  0  0  0  0  0
  180.7270  179.0710  137.1310 O   0  0  0  0  0  1  0  0  0  0  0  0
  180.9150  180.9220  138.6310 C   0  0  0  0  0  2  0  0  0  0  0  0
  179.9530  181.8560  138.0730 N   0  0  0  0  0  2  0  0  0  0  0  0
  180.4990  182.3060  136.8000 C   0  0  0  0  0  2  0  0  0  0  0  0
  180.5380  184.6490  137.7030 C   0  0  0  0  0  1  0  0  0  0  0  0
  180.1530  183.7690  136.5300 C   0  0  0  0  0  3  0  0  0  0  0  0
  180.8130  184.2730  135.2590 C   0  0  0  0  0  1  0  0  0  0  0  0
  1  6  1  1  0  0  0
  2 11  1  0  0  0  0
  2 12  1  0  0  0  0
  3 10  1  0  0  0  0
  4 15  1  6  0  0  0
  4  8  1  0  0  0  0
  5  1  1  0  0  0  0
  7  9  1  1  0  0  0
  7  4  1  0  0  0  0
  8  1  1  0  0  0  0
  9  5  1  0  0  0  0
 10 11  2  0  0  0  0
 11  7  1  0  0  0  0
 12 15  1  0  0  0  0
 13  2  2  0  0  0  0
 14  3  2  0  0  0  0
 14 13  1  0  0  0  0
 16 17  1  0  0  0  0
 16  3  1  0  0  0  0
 18 19  1  6  0  0  0
 18 20  1  0  0  0  0
 18 17  1  0  0  0  0
 20 21  1  0  0  0  0
 21 22  1  0  0  0  0
 22 25  1  0  0  0  0
 22 24  1  0  0  0  0
 23 28  1  1  0  0  0
 24 27  1  0  0  0  0
 25 26  1  6  0  0  0
 25 23  1  0  0  0  0
 27 23  1  0  0  0  0
 28 29  1  0  0  0  0
 29 34  1  0  0  0  0
 29 33  2  0  0  0  0
 30 31  1  0  0  0  0
 30 32  2  0  0  0  0
 33 31  1  0  0  0  0
 34 30  1  0  0  0  0
 35 13  1  0  0  0  0
 36 37  1  6  0  0  0
 36 38  1  0  0  0  0
 36 35  1  0  0  0  0
 39 38  1  0  0  0  0
 40 39  1  0  0  0  0
 42 40  1  0  0  0  0
 42 41  1  0  0  0  0
 43 42  1  0  0  0  0
M  END
>  <MODEL>
5

>  <REMARK>
 VINA RESULT:      -8.3      3.423      5.031
  Name = 
  14 active torsions:
  status: ('A' for Active; 'I' for Inactive)
    1  A    between atoms: C_1  and  C_9
    2  A    between atoms: C_1  and  N_35
    3  A    between atoms: C_2  and  N_6
    4  A    between atoms: C_2  and  C_13
    5  A    between atoms: C_3  and  N_4
    6  A    between atoms: C_3  and  C_7
    7  A    between atoms: N_6  and  C_12
    8  A    between atoms: C_7  and  C_12
    9  A    between atoms: C_9  and  N_32
   10  A    between atoms: C_10  and  O_14
   11  A    between atoms: C_11  and  O_14
   12  A    between atoms: C_25  and  N_32
   13  A    between atoms: C_25  and  C_37
   14  A    between atoms: C_34  and  N_35
                            x       y       z     vdW  Elec       q    Type
                         _______ _______ _______ _____ _____    ______ ____

>  <TORSDO>
F 14

$$$$
=
 OpenBabel11052416283D

 43 47  0  0  1  0  0  0  0  0999 V2000
  186.9780  177.5010  145.6030 C   0  0  1  0  0  3  0  0  0  0  0  0
  183.1010  178.8470  142.4410 C   0  0  0  0  0  0  0  0  0  0  0  0
  184.0740  178.7140  139.8110 C   0  0  0  0  0  0  0  0  0  0  0  0
  184.8020  178.2990  144.6880 C   0  0  1  0  0  3  0  0  0  0  0  0
  187.6440  177.7570  144.2510 C   0  0  0  0  0  2  0  0  0  0  0  0
  187.9940  177.6840  146.7110 C   0  0  0  0  0  1  0  0  0  0  0  0
  185.4750  178.6180  143.3480 C   0  0  1  0  0  3  0  0  0  0  0  0
  185.8080  178.4600  145.8200 C   0  0  0  0  0  2  0  0  0  0  0  0
  186.6250  177.6340  143.1180 C   0  0  0  0  0  2  0  0  0  0  0  0
  184.9570  178.6130  140.8850 C   0  0  0  0  0  3  0  0  0  0  0  0
  184.4840  178.6410  142.2040 C   0  0  0  0  0  0  0  0  0  0  0  0
  182.5500  178.8790  143.8480 C   0  0  0  0  0  2  0  0  0  0  0  0
  182.2120  178.9460  141.3540 C   0  0  0  0  0  0  0  0  0  0  0  0
  182.7100  178.8800  140.0450 C   0  0  0  0  0  3  0  0  0  0  0  0
  183.6130  179.2190  144.8880 C   0  0  0  0  0  2  0  0  0  0  0  0
  184.5950  178.7200  138.4180 C   0  0  0  0  0  2  0  0  0  0  0  0
  185.7880  177.8900  138.3470 N   0  0  0  0  0  2  0  0  0  0  0  0
  186.0680  177.6180  136.9440 C   0  0  1  0  0  3  0  0  0  0  0  0
  186.7970  178.6700  136.3830 O   0  0  0  0  0  1  0  0  0  0  0  0
  186.8360  176.3050  136.7940 C   0  0  0  0  0  2  0  0  0  0  0  0
  187.7640  176.0160  137.9720 C   0  0  0  0  0  2  0  0  0  0  0  0
  189.0200  176.7350  137.8290 N   0  0  0  0  0  0  0  0  0  0  0  0
  190.5090  177.1400  139.6650 C   0  0  2  0  0  3  0  0  0  0  0  0
  190.0390  175.7620  137.8000 N   0  0  0  0  0  2  0  0  0  0  0  0
  189.1930  177.5230  139.0470 C   0  0  1  0  0  3  0  0  0  0  0  0
  189.2090  179.0010  138.7050 C   0  0  0  0  0  1  0  0  0  0  0  0
  191.1290  176.2600  138.6200 C   0  0  0  0  0  2  0  0  0  0  0  0
  190.2590  176.3890  140.8470 O   0  0  0  0  0  0  0  0  0  0  0  0
  190.6700  176.8170  142.1110 C   0  0  0  0  0  0  0  0  0  0  0  0
  191.5230  178.1880  143.8210 C   0  0  0  0  0  0  0  0  0  0  0  0
  191.2070  176.6670  144.7010 S   0  0  0  0  0  0  0  0  0  0  0  0
  192.0660  179.1400  144.3550 O   0  0  0  0  0  0  0  0  0  0  0  0
  190.6810  175.9770  143.1360 C   0  0  0  0  0  3  0  0  0  0  0  0
  191.1150  178.2120  142.3940 C   0  0  0  0  0  2  0  0  0  0  0  0
  180.8080  179.1340  141.5940 N   0  0  0  0  0  2  0  0  0  0  0  0
  179.7760  178.1100  141.4420 C   0  0  2  0  0  3  0  0  0  0  0  0
  179.5200  177.5000  142.6710 O   0  0  0  0  0  1  0  0  0  0  0  0
  180.1810  177.0610  140.4170 C   0  0  0  0  0  2  0  0  0  0  0  0
  179.5940  177.3680  139.1240 N   0  0  0  0  0  2  0  0  0  0  0  0
  180.3730  176.6440  138.1290 C   0  0  0  0  0  2  0  0  0  0  0  0
  180.5650  174.1470  138.3200 C   0  0  0  0  0  1  0  0  0  0  0  0
  181.1390  175.4820  138.7570 C   0  0  0  0  0  3  0  0  0  0  0  0
  182.6200  175.5470  138.4290 C   0  0  0  0  0  1  0  0  0  0  0  0
  1  8  1  0  0  0  0
  1  6  1  1  0  0  0
  2 12  1  0  0  0  0
  3 14  2  0  0  0  0
  3 10  1  0  0  0  0
  4 15  1  1  0  0  0
  4  8  1  0  0  0  0
  5  1  1  0  0  0  0
  7  9  1  6  0  0  0
  7  4  1  0  0  0  0
  9  5  1  0  0  0  0
 10 11  2  0  0  0  0
 11  2  1  0  0  0  0
 11  7  1  0  0  0  0
 12 15  1  0  0  0  0
 13 35  1  0  0  0  0
 13  2  2  0  0  0  0
 14 13  1  0  0  0  0
 16  3  1  0  0  0  0
 17 16  1  0  0  0  0
 18 19  1  1  0  0  0
 18 17  1  0  0  0  0
 20 18  1  0  0  0  0
 20 21  1  0  0  0  0
 22 21  1  0  0  0  0
 22 25  1  0  0  0  0
 23 28  1  1  0  0  0
 24 22  1  0  0  0  0
 24 27  1  0  0  0  0
 25 26  1  6  0  0  0
 25 23  1  0  0  0  0
 27 23  1  0  0  0  0
 28 29  1  0  0  0  0
 29 34  1  0  0  0  0
 29 33  2  0  0  0  0
 30 32  2  0  0  0  0
 30 31  1  0  0  0  0
 33 31  1  0  0  0  0
 34 30  1  0  0  0  0
 36 35  1  0  0  0  0
 36 37  1  1  0  0  0
 38 36  1  0  0  0  0
 39 38  1  0  0  0  0
 40 42  1  0  0  0  0
 40 39  1  0  0  0  0
 41 42  1  0  0  0  0
 43 42  1  0  0  0  0
M  END
>  <MODEL>
6

>  <REMARK>
 VINA RESULT:      -8.2      1.895      2.564
  Name = 
  14 active torsions:
  status: ('A' for Active; 'I' for Inactive)
    1  A    between atoms: C_1  and  C_9
    2  A    between atoms: C_1  and  N_35
    3  A    between atoms: C_2  and  N_6
    4  A    between atoms: C_2  and  C_13
    5  A    between atoms: C_3  and  N_4
    6  A    between atoms: C_3  and  C_7
    7  A    between atoms: N_6  and  C_12
    8  A    between atoms: C_7  and  C_12
    9  A    between atoms: C_9  and  N_32
   10  A    between atoms: C_10  and  O_14
   11  A    between atoms: C_11  and  O_14
   12  A    between atoms: C_25  and  N_32
   13  A    between atoms: C_25  and  C_37
   14  A    between atoms: C_34  and  N_35
                            x       y       z     vdW  Elec       q    Type
                         _______ _______ _______ _____ _____    ______ ____

>  <TORSDO>
F 14

$$$$
=
 OpenBabel11052416283D

 43 47  0  0  1  0  0  0  0  0999 V2000
  188.4770  177.1390  146.8250 C   0  0  1  0  0  3  0  0  0  0  0  0
  184.3010  178.6530  144.1580 C   0  0  0  0  0  0  0  0  0  0  0  0
  184.9740  178.5920  141.4330 C   0  0  0  0  0  0  0  0  0  0  0  0
  186.2290  178.0020  146.1830 C   0  0  1  0  0  3  0  0  0  0  0  0
  188.9940  177.4300  145.4160 C   0  0  0  0  0  2  0  0  0  0  0  0
  189.6130  177.2680  147.8180 C   0  0  0  0  0  1  0  0  0  0  0  0
  186.7560  178.3550  144.7880 C   0  0  1  0  0  3  0  0  0  0  0  0
  187.3580  178.1090  147.2010 C   0  0  0  0  0  2  0  0  0  0  0  0
  187.8540  177.3610  144.4010 C   0  0  0  0  0  2  0  0  0  0  0  0
  185.9680  178.4400  142.3990 C   0  0  0  0  0  3  0  0  0  0  0  0
  185.6450  178.4320  143.7630 C   0  0  0  0  0  0  0  0  0  0  0  0
  183.9100  178.6460  145.6180 C   0  0  0  0  0  2  0  0  0  0  0  0
  183.3000  178.8020  143.1800 C   0  0  0  0  0  0  0  0  0  0  0  0
  183.6480  178.7720  141.8230 C   0  0  0  0  0  3  0  0  0  0  0  0
  185.0880  178.9340  146.5440 C   0  0  0  0  0  2  0  0  0  0  0  0
  185.3380  178.6360  139.9920 C   0  0  0  0  0  2  0  0  0  0  0  0
  186.7870  178.6200  139.8600 N   0  0  0  0  0  2  0  0  0  0  0  0
  187.1150  178.1460  138.5230 C   0  0  1  0  0  3  0  0  0  0  0  0
  186.6030  179.0180  137.5600 O   0  0  0  0  0  1  0  0  0  0  0  0
  188.6290  178.0080  138.3590 C   0  0  0  0  0  2  0  0  0  0  0  0
  189.0980  178.2250  136.9230 C   0  0  0  0  0  2  0  0  0  0  0  0
  189.3880  176.9540  136.2760 N   0  0  0  0  0  0  0  0  0  0  0  0
  188.2200  174.9260  136.7990 C   0  0  2  0  0  3  0  0  0  0  0  0
  188.3820  176.7570  135.3100 N   0  0  0  0  0  2  0  0  0  0  0  0
  189.2340  175.9190  137.2960 C   0  0  1  0  0  3  0  0  0  0  0  0
  190.5590  175.2170  137.5200 C   0  0  0  0  0  1  0  0  0  0  0  0
  187.9870  175.3620  135.3830 C   0  0  0  0  0  2  0  0  0  0  0  0
  187.0250  175.0730  137.5560 O   0  0  0  0  0  0  0  0  0  0  0  0
  185.8470  174.3920  137.2410 C   0  0  0  0  0  0  0  0  0  0  0  0
  184.3190  172.6340  136.9160 C   0  0  0  0  0  0  0  0  0  0  0  0
  183.3600  174.0470  136.3930 S   0  0  0  0  0  0  0  0  0  0  0  0
  183.8970  171.4950  136.8110 O   0  0  0  0  0  0  0  0  0  0  0  0
  184.8120  175.0390  136.7250 C   0  0  0  0  0  3  0  0  0  0  0  0
  185.6710  172.9260  137.4550 C   0  0  0  0  0  2  0  0  0  0  0  0
  181.9350  179.0040  143.5810 N   0  0  0  0  0  2  0  0  0  0  0  0
  180.8260  179.3300  142.6860 C   0  0  2  0  0  3  0  0  0  0  0  0
  180.1950  180.5010  143.1100 O   0  0  0  0  0  1  0  0  0  0  0  0
  179.8170  178.1930  142.6150 C   0  0  0  0  0  2  0  0  0  0  0  0
  180.0780  177.3610  141.4530 N   0  0  0  0  0  2  0  0  0  0  0  0
  180.4420  178.2620  140.3690 C   0  0  0  0  0  2  0  0  0  0  0  0
  180.9530  178.4230  137.9150 C   0  0  0  0  0  1  0  0  0  0  0  0
  180.8110  177.4910  139.1030 C   0  0  0  0  0  3  0  0  0  0  0  0
  182.0830  176.6850  139.2910 C   0  0  0  0  0  1  0  0  0  0  0  0
  1  8  1  0  0  0  0
  1  6  1  1  0  0  0
  2 12  1  0  0  0  0
  3 14  2  0  0  0  0
  3 10  1  0  0  0  0
  4 15  1  1  0  0  0
  4  8  1  0  0  0  0
  5  1  1  0  0  0  0
  7  9  1  6  0  0  0
  7  4  1  0  0  0  0
  9  5  1  0  0  0  0
 10 11  2  0  0  0  0
 11  2  1  0  0  0  0
 11  7  1  0  0  0  0
 12 15  1  0  0  0  0
 13 35  1  0  0  0  0
 13  2  2  0  0  0  0
 14 13  1  0  0  0  0
 16  3  1  0  0  0  0
 17 16  1  0  0  0  0
 18 19  1  6  0  0  0
 18 17  1  0  0  0  0
 20 18  1  0  0  0  0
 21 20  1  0  0  0  0
 22 21  1  0  0  0  0
 22 25  1  0  0  0  0
 23 25  1  0  0  0  0
 23 28  1  1  0  0  0
 24 27  1  0  0  0  0
 24 22  1  0  0  0  0
 25 26  1  6  0  0  0
 27 23  1  0  0  0  0
 29 34  1  0  0  0  0
 29 28  1  0  0  0  0
 30 34  1  0  0  0  0
 31 33  1  0  0  0  0
 31 30  1  0  0  0  0
 32 30  2  0  0  0  0
 33 29  2  0  0  0  0
 36 37  1  1  0  0  0
 36 35  1  0  0  0  0
 38 36  1  0  0  0  0
 39 38  1  0  0  0  0
 40 39  1  0  0  0  0
 41 42  1  0  0  0  0
 42 43  1  0  0  0  0
 42 40  1  0  0  0  0
M  END
>  <MODEL>
7

>  <REMARK>
 VINA RESULT:      -8.2      2.434      3.578
  Name = 
  14 active torsions:
  status: ('A' for Active; 'I' for Inactive)
    1  A    between atoms: C_1  and  C_9
    2  A    between atoms: C_1  and  N_35
    3  A    between atoms: C_2  and  N_6
    4  A    between atoms: C_2  and  C_13
    5  A    between atoms: C_3  and  N_4
    6  A    between atoms: C_3  and  C_7
    7  A    between atoms: N_6  and  C_12
    8  A    between atoms: C_7  and  C_12
    9  A    between atoms: C_9  and  N_32
   10  A    between atoms: C_10  and  O_14
   11  A    between atoms: C_11  and  O_14
   12  A    between atoms: C_25  and  N_32
   13  A    between atoms: C_25  and  C_37
   14  A    between atoms: C_34  and  N_35
                            x       y       z     vdW  Elec       q    Type
                         _______ _______ _______ _____ _____    ______ ____

>  <TORSDO>
F 14

$$$$
=
 OpenBabel11052416283D

 43 47  0  0  1  0  0  0  0  0999 V2000
  181.7500  179.4440  141.8530 C   0  0  1  0  0  3  0  0  0  0  0  0
  185.7000  178.3910  145.0350 C   0  0  0  0  0  0  0  0  0  0  0  0
  187.8110  177.4130  143.4640 C   0  0  0  0  0  0  0  0  0  0  0  0
  183.1690  179.0800  143.8680 C   0  0  1  0  0  3  0  0  0  0  0  0
  182.7130  178.5990  141.0190 C   0  0  0  0  0  2  0  0  0  0  0  0
  180.3490  179.3220  141.2890 C   0  0  0  0  0  1  0  0  0  0  0  0
  184.1050  178.1800  143.0550 C   0  0  1  0  0  3  0  0  0  0  0  0
  181.7540  178.9880  143.3110 C   0  0  0  0  0  2  0  0  0  0  0  0
  184.1240  178.6600  141.6010 C   0  0  0  0  0  2  0  0  0  0  0  0
  186.5450  177.5770  142.9040 C   0  0  0  0  0  3  0  0  0  0  0  0
  185.4880  178.0980  143.6640 C   0  0  0  0  0  0  0  0  0  0  0  0
  184.5890  178.9580  145.8890 C   0  0  0  0  0  2  0  0  0  0  0  0
  186.9810  178.2270  145.5960 C   0  0  0  0  0  0  0  0  0  0  0  0
  188.0260  177.7360  144.8030 C   0  0  0  0  0  3  0  0  0  0  0  0
  183.2030  178.6590  145.3250 C   0  0  0  0  0  2  0  0  0  0  0  0
  188.9110  176.8250  142.6540 C   0  0  0  0  0  2  0  0  0  0  0  0
  189.8140  177.8830  142.2260 N   0  0  0  0  0  2  0  0  0  0  0  0
  190.0230  177.7470  140.7920 C   0  0  1  0  0  3  0  0  0  0  0  0
  190.4610  176.4560  140.4870 O   0  0  0  0  0  1  0  0  0  0  0  0
  188.7360  178.0620  140.0290 C   0  0  0  0  0  2  0  0  0  0  0  0
  188.8020  177.6690  138.5550 C   0  0  0  0  0  2  0  0  0  0  0  0
  187.6960  178.2550  137.8130 N   0  0  0  0  0  0  0  0  0  0  0  0
  185.8870  176.9570  136.9230 C   0  0  2  0  0  3  0  0  0  0  0  0
  186.6100  178.3340  138.7060 N   0  0  0  0  0  2  0  0  0  0  0  0
  187.3420  177.3000  136.7650 C   0  0  1  0  0  3  0  0  0  0  0  0
  187.5650  177.9270  135.4020 C   0  0  0  0  0  1  0  0  0  0  0  0
  185.4250  177.9210  137.9760 C   0  0  0  0  0  2  0  0  0  0  0  0
  185.7810  175.6240  137.4070 O   0  0  0  0  0  0  0  0  0  0  0  0
  184.7170  174.7830  137.0690 C   0  0  0  0  0  0  0  0  0  0  0  0
  183.4160  172.8400  136.8250 C   0  0  0  0  0  0  0  0  0  0  0  0
  182.3850  174.0660  136.0360 S   0  0  0  0  0  0  0  0  0  0  0  0
  183.1230  171.6560  136.8260 O   0  0  0  0  0  0  0  0  0  0  0  0
  183.6860  175.2460  136.3770 C   0  0  0  0  0  3  0  0  0  0  0  0
  184.6650  173.3420  137.4500 C   0  0  0  0  0  2  0  0  0  0  0  0
  187.2000  178.5450  146.9800 N   0  0  0  0  0  2  0  0  0  0  0  0
  187.9640  177.7340  147.9270 C   0  0  2  0  0  3  0  0  0  0  0  0
  187.2430  177.5700  149.1100 O   0  0  0  0  0  1  0  0  0  0  0  0
  189.3190  178.3610  148.2270 C   0  0  0  0  0  2  0  0  0  0  0  0
  190.3660  177.3580  148.1420 N   0  0  0  0  0  2  0  0  0  0  0  0
  190.3040  176.8030  146.7970 C   0  0  0  0  0  2  0  0  0  0  0  0
  192.4760  175.5710  147.0730 C   0  0  0  0  0  1  0  0  0  0  0  0
  191.7000  176.5620  146.2270 C   0  0  0  0  0  3  0  0  0  0  0  0
  191.6400  176.0870  144.7870 C   0  0  0  0  0  1  0  0  0  0  0  0
  1  6  1  6  0  0  0
  1  8  1  0  0  0  0
  2 13  1  0  0  0  0
  2 12  1  0  0  0  0
  3 14  1  0  0  0  0
  4  8  1  6  0  0  0
  4 15  1  0  0  0  0
  5  9  1  0  0  0  0
  5  1  1  0  0  0  0
  7  9  1  6  0  0  0
  7 11  1  0  0  0  0
  7  4  1  0  0  0  0
 10  3  2  0  0  0  0
 10 11  1  0  0  0  0
 11  2  2  0  0  0  0
 13 35  1  0  0  0  0
 14 13  2  0  0  0  0
 15 12  1  0  0  0  0
 16  3  1  0  0  0  0
 17 16  1  0  0  0  0
 18 19  1  1  0  0  0
 18 17  1  0  0  0  0
 20 18  1  0  0  0  0
 21 20  1  0  0  0  0
 22 21  1  0  0  0  0
 22 24  1  0  0  0  0
 23 28  1  1  0  0  0
 23 27  1  0  0  0  0
 25 26  1  6  0  0  0
 25 23  1  0  0  0  0
 25 22  1  0  0  0  0
 27 24  1  0  0  0  0
 29 28  1  0  0  0  0
 29 34  1  0  0  0  0
 30 32  2  0  0  0  0
 30 34  1  0  0  0  0
 31 33  1  0  0  0  0
 31 30  1  0  0  0  0
 33 29  2  0  0  0  0
 35 36  1  0  0  0  0
 36 38  1  0  0  0  0
 36 37  1  1  0  0  0
 39 38  1  0  0  0  0
 40 39  1  0  0  0  0
 42 40  1  0  0  0  0
 42 41  1  0  0  0  0
 43 42  1  0  0  0  0
M  END
>  <MODEL>
8

>  <REMARK>
 VINA RESULT:      -8.1      3.712      7.496
  Name = 
  14 active torsions:
  status: ('A' for Active; 'I' for Inactive)
    1  A    between atoms: C_1  and  C_9
    2  A    between atoms: C_1  and  N_35
    3  A    between atoms: C_2  and  N_6
    4  A    between atoms: C_2  and  C_13
    5  A    between atoms: C_3  and  N_4
    6  A    between atoms: C_3  and  C_7
    7  A    between atoms: N_6  and  C_12
    8  A    between atoms: C_7  and  C_12
    9  A    between atoms: C_9  and  N_32
   10  A    between atoms: C_10  and  O_14
   11  A    between atoms: C_11  and  O_14
   12  A    between atoms: C_25  and  N_32
   13  A    between atoms: C_25  and  C_37
   14  A    between atoms: C_34  and  N_35
                            x       y       z     vdW  Elec       q    Type
                         _______ _______ _______ _____ _____    ______ ____

>  <TORSDO>
F 14

$$$$
=
 OpenBabel11052416283D

 43 47  0  0  1  0  0  0  0  0999 V2000
  191.3030  176.8320  146.2180 C   0  0  1  0  0  3  0  0  0  0  0  0
  188.9400  177.8500  141.7210 C   0  0  0  0  0  0  0  0  0  0  0  0
  186.2360  178.3530  142.2850 C   0  0  0  0  0  0  0  0  0  0  0  0
  190.7860  177.1290  143.7990 C   0  0  1  0  0  3  0  0  0  0  0  0
  189.8090  176.7420  146.5290 C   0  0  0  0  0  2  0  0  0  0  0  0
  192.0810  176.0090  147.2230 C   0  0  0  0  0  1  0  0  0  0  0  0
  189.2890  176.9760  144.0930 C   0  0  1  0  0  3  0  0  0  0  0  0
  191.5930  176.3220  144.8070 C   0  0  0  0  0  2  0  0  0  0  0  0
  188.9970  177.5190  145.4940 C   0  0  0  0  0  2  0  0  0  0  0  0
  187.0700  177.8400  143.2770 C   0  0  0  0  0  3  0  0  0  0  0  0
  188.4300  177.6170  143.0240 C   0  0  0  0  0  0  0  0  0  0  0  0
  190.4020  177.6270  141.4080 C   0  0  0  0  0  2  0  0  0  0  0  0
  188.0960  178.3710  140.7220 C   0  0  0  0  0  0  0  0  0  0  0  0
  186.7470  178.6150  141.0150 C   0  0  0  0  0  3  0  0  0  0  0  0
  191.0720  176.6650  142.3830 C   0  0  0  0  0  2  0  0  0  0  0  0
  184.7880  178.5490  142.5590 C   0  0  0  0  0  2  0  0  0  0  0  0
  184.6030  178.8790  143.9640 N   0  0  0  0  0  2  0  0  0  0  0  0
  183.2110  178.6300  144.3090 C   0  0  1  0  0  3  0  0  0  0  0  0
  182.8610  179.3460  145.4560 O   0  0  0  0  0  1  0  0  0  0  0  0
  182.2930  179.0130  143.1470 C   0  0  0  0  0  2  0  0  0  0  0  0
  180.8100  178.9200  143.4990 C   0  0  0  0  0  2  0  0  0  0  0  0
  180.0000  178.8030  142.2970 N   0  0  0  0  0  0  0  0  0  0  0  0
  180.8010  177.7970  140.2730 C   0  0  2  0  0  3  0  0  0  0  0  0
  179.5420  177.4720  142.2490 N   0  0  0  0  0  2  0  0  0  0  0  0
  180.8980  179.0050  141.1630 C   0  0  1  0  0  3  0  0  0  0  0  0
  180.4770  180.2370  140.3870 C   0  0  0  0  0  1  0  0  0  0  0  0
  179.6610  177.0270  140.8720 C   0  0  0  0  0  2  0  0  0  0  0  0
  182.0050  177.0480  140.3850 O   0  0  0  0  0  0  0  0  0  0  0  0
  182.8860  176.8770  139.3150 C   0  0  0  0  0  0  0  0  0  0  0  0
  184.1130  175.8460  137.5930 C   0  0  0  0  0  0  0  0  0  0  0  0
  184.7160  177.5250  137.5110 S   0  0  0  0  0  0  0  0  0  0  0  0
  184.5820  174.9590  136.9010 O   0  0  0  0  0  0  0  0  0  0  0  0
  183.6520  177.8780  138.9060 C   0  0  0  0  0  3  0  0  0  0  0  0
  183.0290  175.5890  138.5750 C   0  0  0  0  0  2  0  0  0  0  0  0
  188.6170  178.6270  139.4080 N   0  0  0  0  0  2  0  0  0  0  0  0
  188.3750  177.8060  138.2230 C   0  0  2  0  0  3  0  0  0  0  0  0
  188.2120  176.4700  138.5900 O   0  0  0  0  0  1  0  0  0  0  0  0
  189.5110  177.9330  137.2180 C   0  0  0  0  0  2  0  0  0  0  0  0
  190.0540  176.6230  136.9040 N   0  0  0  0  0  2  0  0  0  0  0  0
  191.3670  176.5540  137.5290 C   0  0  0  0  0  2  0  0  0  0  0  0
  190.7740  174.1340  137.2140 C   0  0  0  0  0  1  0  0  0  0  0  0
  191.8350  175.1090  137.6880 C   0  0  0  0  0  3  0  0  0  0  0  0
  193.1390  174.8610  136.9520 C   0  0  0  0  0  1  0  0  0  0  0  0
  1  5  1  0  0  0  0
  1  6  1  1  0  0  0
  2 11  1  0  0  0  0
  3 16  1  0  0  0  0
  3 10  1  0  0  0  0
  4 15  1  6  0  0  0
  4  7  1  0  0  0  0
  4  8  1  0  0  0  0
  7  9  1  1  0  0  0
  8  1  1  0  0  0  0
  9  5  1  0  0  0  0
 11 10  2  0  0  0  0
 11  7  1  0  0  0  0
 12  2  1  0  0  0  0
 12 15  1  0  0  0  0
 13 14  1  0  0  0  0
 13  2  2  0  0  0  0
 14  3  2  0  0  0  0
 16 17  1  0  0  0  0
 17 18  1  0  0  0  0
 18 19  1  1  0  0  0
 20 21  1  0  0  0  0
 20 18  1  0  0  0  0
 22 21  1  0  0  0  0
 23 28  1  1  0  0  0
 23 27  1  0  0  0  0
 23 25  1  0  0  0  0
 24 22  1  0  0  0  0
 25 26  1  6  0  0  0
 25 22  1  0  0  0  0
 27 24  1  0  0  0  0
 29 28  1  0  0  0  0
 30 34  1  0  0  0  0
 31 30  1  0  0  0  0
 31 33  1  0  0  0  0
 32 30  2  0  0  0  0
 33 29  2  0  0  0  0
 34 29  1  0  0  0  0
 35 13  1  0  0  0  0
 36 37  1  1  0  0  0
 36 35  1  0  0  0  0
 38 36  1  0  0  0  0
 39 38  1  0  0  0  0
 39 40  1  0  0  0  0
 40 42  1  0  0  0  0
 41 42  1  0  0  0  0
 43 42  1  0  0  0  0
M  END
>  <MODEL>
9

>  <REMARK>
 VINA RESULT:      -8.1      2.411      8.125
  Name = 
  14 active torsions:
  status: ('A' for Active; 'I' for Inactive)
    1  A    between atoms: C_1  and  C_9
    2  A    between atoms: C_1  and  N_35
    3  A    between atoms: C_2  and  N_6
    4  A    between atoms: C_2  and  C_13
    5  A    between atoms: C_3  and  N_4
    6  A    between atoms: C_3  and  C_7
    7  A    between atoms: N_6  and  C_12
    8  A    between atoms: C_7  and  C_12
    9  A    between atoms: C_9  and  N_32
   10  A    between atoms: C_10  and  O_14
   11  A    between atoms: C_11  and  O_14
   12  A    between atoms: C_25  and  N_32
   13  A    between atoms: C_25  and  C_37
   14  A    between atoms: C_34  and  N_35
                            x       y       z     vdW  Elec       q    Type
                         _______ _______ _______ _____ _____    ______ ____

>  <TORSDO>
F 14

$$$$
