=
 OpenBabel11052417043D

 32 37  0  0  1  0  0  0  0  0999 V2000
  192.8670  176.2500  138.3400 C   0  0  0  0  0  0  0  0  0  0  0  0
  189.2600  177.8320  141.7540 C   0  0  1  0  0  3  0  0  0  0  0  0
  190.8900  174.9890  143.8810 C   0  0  0  0  0  1  0  0  0  0  0  0
  186.8170  178.6080  142.1170 C   0  0  0  0  0  0  0  0  0  0  0  0
  185.7190  178.6510  143.1140 C   0  0  0  0  0  0  0  0  0  0  0  0
  190.5530  176.9390  139.7950 C   0  0  0  0  0  0  0  0  0  0  0  0
  192.0520  178.2190  141.4550 C   0  0  0  0  0  2  0  0  0  0  0  0
  183.6500  178.7270  144.9690 C   0  0  0  0  0  3  0  0  0  0  0  0
  192.9730  177.0010  139.5120 C   0  0  0  0  0  3  0  0  0  0  0  0
  191.6810  177.5240  142.7670 C   0  0  2  0  0  3  0  0  0  0  0  0
  190.1920  177.1310  142.7540 C   0  0  2  0  0  0  0  0  0  0  0  0
  188.2260  177.6220  143.8310 C   0  0  2  0  0  3  0  0  0  0  0  0
  183.5670  179.4310  143.8080 N   0  0  0  0  0  0  0  0  0  0  0  0
  191.6020  175.8540  137.8900 C   0  0  0  0  0  3  0  0  0  0  0  0
  191.8370  177.3530  140.2480 C   0  0  0  0  0  0  0  0  0  0  0  0
  184.5660  179.4100  142.8860 C   0  0  0  0  0  3  0  0  0  0  0  0
  190.4590  176.1960  138.6130 C   0  0  0  0  0  3  0  0  0  0  0  0
  189.7660  175.8060  143.2620 C   0  0  2  0  0  3  0  0  0  0  0  0
  189.5420  177.0240  144.0780 N   0  0  1  0  0  0  0  0  0  0  0  0
  187.0570  177.0830  144.6420 C   0  0  0  0  0  2  0  0  0  0  0  0
  189.3520  177.2020  140.4790 O   0  0  0  0  0  0  0  0  0  0  0  0
  186.7950  179.3160  141.0740 O   0  0  0  0  0  0  0  0  0  0  0  0
  184.7820  177.9590  145.2480 C   0  0  0  0  0  3  0  0  0  0  0  0
  187.9030  177.6100  142.3580 C   0  0  2  0  0  3  0  0  0  0  0  0
  185.8300  177.9200  144.3290 C   0  0  0  0  0  0  0  0  0  0  0  0
  191.2900  179.6500  143.7890 O   0  0  0  0  0  1  0  0  0  0  0  0
  192.0010  178.4580  143.9260 C   0  0  0  0  0  2  0  0  0  0  0  0
  194.0310  175.9190  137.6410 O   0  0  0  0  0  0  0  0  0  0  0  0
  194.4570  174.5770  137.4480 C   0  0  0  0  0  2  0  0  0  0  0  0
  195.2630  174.1370  138.6160 C   0  0  0  0  0  0  0  0  0  0  0  0
  195.9770  175.0690  139.3570 O   0  0  0  0  0  1  0  0  0  0  0  0
  195.3320  172.9150  138.9100 O   0  0  0  0  0  0  0  0  0  0  0  0
  1  9  1  0  0  0  0
  2 21  1  6  0  0  0
  2 24  1  0  0  0  0
  2 11  1  0  0  0  0
  4 24  1  0  0  0  0
  4  5  1  0  0  0  0
  5 25  1  0  0  0  0
  6 15  1  0  0  0  0
  6 21  1  0  0  0  0
  7 10  1  0  0  0  0
  8 23  1  0  0  0  0
  9 15  2  0  0  0  0
 10 27  1  1  0  0  0
 11 10  1  0  0  0  0
 11 18  1  0  0  0  0
 11 19  1  0  0  0  0
 12 19  1  0  0  0  0
 12 20  1  0  0  0  0
 13  8  2  0  0  0  0
 14  1  2  0  0  0  0
 14 17  1  0  0  0  0
 15  7  1  0  0  0  0
 16  5  2  0  0  0  0
 16 13  1  0  0  0  0
 17  6  2  0  0  0  0
 18  3  1  0  0  0  0
 18 19  1  0  0  0  0
 22  4  2  0  0  0  0
 24 12  1  0  0  0  0
 25 20  1  0  0  0  0
 25 23  2  0  0  0  0
 26 27  1  0  0  0  0
 28  1  1  0  0  0  0
 29 28  1  0  0  0  0
 29 30  1  0  0  0  0
 30 32  2  0  0  0  0
 30 31  1  0  0  0  0
M  END
>  <MODEL>
1

>  <REMARK>
 VINA RESULT:      -8.3      0.000      0.000
  Name = 
  4 active torsions:
  status: ('A' for Active; 'I' for Inactive)
    1  A    between atoms: C_1  and  C_10
    2  A    between atoms: C_2  and  O_24
    3  A    between atoms: C_10  and  O_24
    4  A    between atoms: C_13  and  C_14
                            x       y       z     vdW  Elec       q    Type
                         _______ _______ _______ _____ _____    ______ ____

>  <TORSDO>
F 4

$$$$
=
 OpenBabel11052417043D

 32 37  0  0  1  0  0  0  0  0999 V2000
  187.5970  177.5990  142.8590 C   0  0  0  0  0  0  0  0  0  0  0  0
  190.8370  176.7660  138.8620 C   0  0  1  0  0  3  0  0  0  0  0  0
  187.5340  175.4510  137.2390 C   0  0  0  0  0  1  0  0  0  0  0  0
  193.1730  175.9510  138.1040 C   0  0  0  0  0  0  0  0  0  0  0  0
  193.9110  175.3440  136.9680 C   0  0  0  0  0  0  0  0  0  0  0  0
  189.6040  176.7960  141.0490 C   0  0  0  0  0  0  0  0  0  0  0  0
  188.8900  178.7260  139.4980 C   0  0  0  0  0  2  0  0  0  0  0  0
  195.2990  174.1950  134.8520 C   0  0  0  0  0  3  0  0  0  0  0  0
  187.7620  178.2750  141.6500 C   0  0  0  0  0  3  0  0  0  0  0  0
  188.5670  177.9560  138.2160 C   0  0  2  0  0  3  0  0  0  0  0  0
  189.5230  176.7590  138.0640 C   0  0  2  0  0  0  0  0  0  0  0  0
  191.1990  176.0000  136.6920 C   0  0  2  0  0  3  0  0  0  0  0  0
  195.9650  174.7060  135.9230 N   0  0  0  0  0  0  0  0  0  0  0  0
  188.4450  176.5280  143.1680 C   0  0  0  0  0  3  0  0  0  0  0  0
  188.7510  177.8930  140.7380 C   0  0  0  0  0  0  0  0  0  0  0  0
  195.3070  175.2730  136.9690 C   0  0  0  0  0  3  0  0  0  0  0  0
  189.4360  176.1340  142.2700 C   0  0  0  0  0  3  0  0  0  0  0  0
  189.0060  175.4410  137.6250 C   0  0  2  0  0  3  0  0  0  0  0  0
  189.7630  176.2970  136.6790 N   0  0  1  0  0  0  0  0  0  0  0  0
  191.6830  174.8800  135.7820 C   0  0  0  0  0  2  0  0  0  0  0  0
  190.6020  176.3040  140.1890 O   0  0  0  0  0  0  0  0  0  0  0  0
  193.7730  176.5020  139.0660 O   0  0  0  0  0  0  0  0  0  0  0  0
  193.9050  174.2460  134.7990 C   0  0  0  0  0  3  0  0  0  0  0  0
  191.6880  175.7890  138.1030 C   0  0  2  0  0  3  0  0  0  0  0  0
  193.1980  174.8280  135.8510 C   0  0  0  0  0  0  0  0  0  0  0  0
  187.4120  179.4290  136.7280 O   0  0  0  0  0  1  0  0  0  0  0  0
  188.6690  178.9060  137.0310 C   0  0  0  0  0  2  0  0  0  0  0  0
  186.5910  178.0150  143.7360 O   0  0  0  0  0  0  0  0  0  0  0  0
  186.7710  178.0620  145.1450 C   0  0  0  0  0  2  0  0  0  0  0  0
  185.6090  178.7430  145.7740 C   0  0  0  0  0  0  0  0  0  0  0  0
  185.7530  179.3630  147.0070 O   0  0  0  0  0  1  0  0  0  0  0  0
  184.4860  178.7240  145.2080 O   0  0  0  0  0  0  0  0  0  0  0  0
  1 14  1  0  0  0  0
  1 28  1  0  0  0  0
  2 21  1  1  0  0  0
  3 18  1  0  0  0  0
  4 22  2  0  0  0  0
  5 16  1  0  0  0  0
  5  4  1  0  0  0  0
  6 17  1  0  0  0  0
  7 15  1  0  0  0  0
  8 13  1  0  0  0  0
  9  1  2  0  0  0  0
 10 27  1  6  0  0  0
 10  7  1  0  0  0  0
 11 10  1  0  0  0  0
 11  2  1  0  0  0  0
 12 24  1  0  0  0  0
 13 16  2  0  0  0  0
 15  6  2  0  0  0  0
 15  9  1  0  0  0  0
 17 14  2  0  0  0  0
 18 11  1  0  0  0  0
 19 12  1  0  0  0  0
 19 18  1  0  0  0  0
 19 11  1  0  0  0  0
 20 25  1  0  0  0  0
 20 12  1  0  0  0  0
 21  6  1  0  0  0  0
 23  8  2  0  0  0  0
 23 25  1  0  0  0  0
 24  4  1  0  0  0  0
 24  2  1  0  0  0  0
 25  5  2  0  0  0  0
 26 27  1  0  0  0  0
 28 29  1  0  0  0  0
 29 30  1  0  0  0  0
 30 31  1  0  0  0  0
 32 30  2  0  0  0  0
M  END
>  <MODEL>
2

>  <REMARK>
 VINA RESULT:      -7.9      3.270      9.206
  Name = 
  4 active torsions:
  status: ('A' for Active; 'I' for Inactive)
    1  A    between atoms: C_1  and  C_10
    2  A    between atoms: C_2  and  O_24
    3  A    between atoms: C_10  and  O_24
    4  A    between atoms: C_13  and  C_14
                            x       y       z     vdW  Elec       q    Type
                         _______ _______ _______ _____ _____    ______ ____

>  <TORSDO>
F 4

$$$$
=
 OpenBabel11052417043D

 32 37  0  0  1  0  0  0  0  0999 V2000
  185.6580  178.5530  144.2050 C   0  0  0  0  0  0  0  0  0  0  0  0
  189.4300  176.8560  141.0340 C   0  0  1  0  0  3  0  0  0  0  0  0
  191.6300  178.8790  143.5510 C   0  0  0  0  0  1  0  0  0  0  0  0
  190.1690  176.4140  138.5930 C   0  0  0  0  0  0  0  0  0  0  0  0
  191.3560  176.3280  137.7060 C   0  0  0  0  0  0  0  0  0  0  0  0
  187.4320  177.9380  142.1020 C   0  0  0  0  0  0  0  0  0  0  0  0
  188.4680  176.1100  143.5930 C   0  0  0  0  0  2  0  0  0  0  0  0
  193.5710  176.1790  136.0330 C   0  0  0  0  0  3  0  0  0  0  0  0
  186.6230  177.5590  144.3700 C   0  0  0  0  0  3  0  0  0  0  0  0
  189.9320  176.5540  143.6100 C   0  0  2  0  0  3  0  0  0  0  0  0
  190.3140  177.1690  142.2520 C   0  0  2  0  0  0  0  0  0  0  0  0
  191.6850  176.7710  140.4550 C   0  0  2  0  0  3  0  0  0  0  0  0
  192.3480  175.7640  135.6050 N   0  0  0  0  0  0  0  0  0  0  0  0
  185.5720  179.2310  142.9830 C   0  0  0  0  0  3  0  0  0  0  0  0
  187.5130  177.2390  143.3400 C   0  0  0  0  0  0  0  0  0  0  0  0
  191.2510  175.8280  136.4050 C   0  0  0  0  0  3  0  0  0  0  0  0
  186.4520  178.9240  141.9450 C   0  0  0  0  0  3  0  0  0  0  0  0
  191.1330  178.4030  142.1950 C   0  0  2  0  0  3  0  0  0  0  0  0
  191.7450  177.0880  141.8850 N   0  0  1  0  0  0  0  0  0  0  0  0
  192.8140  177.2990  139.5820 C   0  0  0  0  0  2  0  0  0  0  0  0
  188.3010  177.7250  141.0170 O   0  0  0  0  0  0  0  0  0  0  0  0
  189.0450  175.9610  138.2430 O   0  0  0  0  0  0  0  0  0  0  0  0
  193.7310  176.6810  137.3270 C   0  0  0  0  0  3  0  0  0  0  0  0
  190.3440  177.1520  139.8790 C   0  0  2  0  0  3  0  0  0  0  0  0
  192.6290  176.7530  138.1780 C   0  0  0  0  0  0  0  0  0  0  0  0
  191.7200  175.6900  144.9430 O   0  0  0  0  0  1  0  0  0  0  0  0
  190.8070  175.3530  143.9440 C   0  0  0  0  0  2  0  0  0  0  0  0
  184.7940  178.8410  145.2650 O   0  0  0  0  0  0  0  0  0  0  0  0
  184.9310  178.2510  146.5510 C   0  0  0  0  0  2  0  0  0  0  0  0
  186.0560  178.8970  147.2780 C   0  0  0  0  0  0  0  0  0  0  0  0
  187.1300  178.1330  147.7140 O   0  0  0  0  0  1  0  0  0  0  0  0
  186.0170  180.1280  147.5320 O   0  0  0  0  0  0  0  0  0  0  0  0
  1  9  1  0  0  0  0
  1 28  1  0  0  0  0
  2 21  1  6  0  0  0
  2 11  1  0  0  0  0
  4 24  1  0  0  0  0
  5 25  1  0  0  0  0
  5  4  1  0  0  0  0
  6 15  1  0  0  0  0
  7 10  1  0  0  0  0
  8 23  1  0  0  0  0
 10 27  1  6  0  0  0
 11 10  1  0  0  0  0
 12 19  1  0  0  0  0
 13  8  2  0  0  0  0
 13 16  1  0  0  0  0
 14  1  2  0  0  0  0
 15  7  1  0  0  0  0
 15  9  2  0  0  0  0
 16  5  2  0  0  0  0
 17  6  2  0  0  0  0
 17 14  1  0  0  0  0
 18 11  1  0  0  0  0
 18  3  1  0  0  0  0
 19 18  1  0  0  0  0
 19 11  1  0  0  0  0
 20 12  1  0  0  0  0
 21  6  1  0  0  0  0
 22  4  2  0  0  0  0
 23 25  2  0  0  0  0
 24 12  1  0  0  0  0
 24  2  1  0  0  0  0
 25 20  1  0  0  0  0
 27 26  1  0  0  0  0
 28 29  1  0  0  0  0
 29 30  1  0  0  0  0
 30 32  2  0  0  0  0
 30 31  1  0  0  0  0
M  END
>  <MODEL>
3

>  <REMARK>
 VINA RESULT:      -7.4      2.885      8.255
  Name = 
  4 active torsions:
  status: ('A' for Active; 'I' for Inactive)
    1  A    between atoms: C_1  and  C_10
    2  A    between atoms: C_2  and  O_24
    3  A    between atoms: C_10  and  O_24
    4  A    between atoms: C_13  and  C_14
                            x       y       z     vdW  Elec       q    Type
                         _______ _______ _______ _____ _____    ______ ____

>  <TORSDO>
F 4

$$$$
=
 OpenBabel11052417043D

 32 37  0  0  1  0  0  0  0  0999 V2000
  193.6770  176.1200  137.8190 C   0  0  0  0  0  0  0  0  0  0  0  0
  189.1610  176.9270  140.2940 C   0  0  1  0  0  3  0  0  0  0  0  0
  188.6400  179.3700  137.2890 C   0  0  0  0  0  1  0  0  0  0  0  0
  187.9680  177.2540  142.5680 C   0  0  0  0  0  0  0  0  0  0  0  0
  186.7870  177.8800  143.2120 C   0  0  0  0  0  0  0  0  0  0  0  0
  191.5590  176.7470  139.5720 C   0  0  0  0  0  0  0  0  0  0  0  0
  189.9680  175.4480  138.0150 C   0  0  0  0  0  2  0  0  0  0  0  0
  184.5850  179.0580  144.4320 C   0  0  0  0  0  3  0  0  0  0  0  0
  192.3780  175.7010  137.5270 C   0  0  0  0  0  3  0  0  0  0  0  0
  188.9400  176.5330  137.6910 C   0  0  2  0  0  3  0  0  0  0  0  0
  188.7310  177.4460  138.9130 C   0  0  2  0  0  0  0  0  0  0  0  0
  187.1100  178.0220  140.4310 C   0  0  2  0  0  3  0  0  0  0  0  0
  185.3640  178.1740  145.1120 N   0  0  0  0  0  0  0  0  0  0  0  0
  193.9180  176.8420  138.9940 C   0  0  0  0  0  3  0  0  0  0  0  0
  191.3140  176.0010  138.3830 C   0  0  0  0  0  0  0  0  0  0  0  0
  186.4460  177.5850  144.5360 C   0  0  0  0  0  3  0  0  0  0  0  0
  192.8670  177.1510  139.8590 C   0  0  0  0  0  3  0  0  0  0  0  0
  188.6390  178.9150  138.7410 C   0  0  2  0  0  3  0  0  0  0  0  0
  187.4160  178.1170  139.0000 N   0  0  1  0  0  0  0  0  0  0  0  0
  186.2850  179.1480  141.0390 C   0  0  0  0  0  2  0  0  0  0  0  0
  190.5580  177.1370  140.4790 O   0  0  0  0  0  0  0  0  0  0  0  0
  188.6540  176.3730  143.1530 O   0  0  0  0  0  0  0  0  0  0  0  0
  184.8780  179.3820  143.1060 C   0  0  0  0  0  3  0  0  0  0  0  0
  188.3660  177.7900  141.2320 C   0  0  2  0  0  3  0  0  0  0  0  0
  185.9760  178.7900  142.4810 C   0  0  0  0  0  0  0  0  0  0  0  0
  187.2560  176.3310  136.0050 O   0  0  0  0  0  1  0  0  0  0  0  0
  187.6390  175.8680  137.2640 C   0  0  0  0  0  2  0  0  0  0  0  0
  194.7070  175.8000  136.9300 O   0  0  0  0  0  0  0  0  0  0  0  0
  195.2940  174.5070  136.8680 C   0  0  0  0  0  2  0  0  0  0  0  0
  196.0540  174.2430  138.1170 C   0  0  0  0  0  0  0  0  0  0  0  0
  195.5780  173.3180  139.0370 O   0  0  0  0  0  1  0  0  0  0  0  0
  197.1080  174.8860  138.3610 O   0  0  0  0  0  0  0  0  0  0  0  0
  1 14  1  0  0  0  0
  2 21  1  1  0  0  0
  2 24  1  0  0  0  0
  3 18  1  0  0  0  0
  4 22  2  0  0  0  0
  4  5  1  0  0  0  0
  5 16  1  0  0  0  0
  6 17  1  0  0  0  0
  6 21  1  0  0  0  0
  7 15  1  0  0  0  0
  8 13  1  0  0  0  0
  9  1  2  0  0  0  0
  9 15  1  0  0  0  0
 10 27  1  1  0  0  0
 10  7  1  0  0  0  0
 10 11  1  0  0  0  0
 11 19  1  0  0  0  0
 11  2  1  0  0  0  0
 12 20  1  0  0  0  0
 12 24  1  0  0  0  0
 14 17  2  0  0  0  0
 15  6  2  0  0  0  0
 16 13  2  0  0  0  0
 18 11  1  0  0  0  0
 18 19  1  0  0  0  0
 19 12  1  0  0  0  0
 20 25  1  0  0  0  0
 23  8  2  0  0  0  0
 24  4  1  0  0  0  0
 25 23  1  0  0  0  0
 25  5  2  0  0  0  0
 26 27  1  0  0  0  0
 28  1  1  0  0  0  0
 29 28  1  0  0  0  0
 29 30  1  0  0  0  0
 30 32  2  0  0  0  0
 30 31  1  0  0  0  0
M  END
>  <MODEL>
4

>  <REMARK>
 VINA RESULT:      -7.3      2.094      3.926
  Name = 
  4 active torsions:
  status: ('A' for Active; 'I' for Inactive)
    1  A    between atoms: C_1  and  C_10
    2  A    between atoms: C_2  and  O_24
    3  A    between atoms: C_10  and  O_24
    4  A    between atoms: C_13  and  C_14
                            x       y       z     vdW  Elec       q    Type
                         _______ _______ _______ _____ _____    ______ ____

>  <TORSDO>
F 4

$$$$
=
 OpenBabel11052417043D

 32 37  0  0  1  0  0  0  0  0999 V2000
  193.5380  175.9310  137.0430 C   0  0  0  0  0  0  0  0  0  0  0  0
  189.3120  176.7250  139.9900 C   0  0  1  0  0  3  0  0  0  0  0  0
  188.5850  179.3450  137.1840 C   0  0  0  0  0  1  0  0  0  0  0  0
  188.3560  176.9570  142.3840 C   0  0  0  0  0  0  0  0  0  0  0  0
  187.2640  177.5790  143.1740 C   0  0  0  0  0  0  0  0  0  0  0  0
  191.6220  176.5180  139.0270 C   0  0  0  0  0  0  0  0  0  0  0  0
  189.8450  175.3540  137.5680 C   0  0  0  0  0  2  0  0  0  0  0  0
  185.2310  178.7490  144.6650 C   0  0  0  0  0  3  0  0  0  0  0  0
  192.2030  175.5660  136.8590 C   0  0  0  0  0  3  0  0  0  0  0  0
  188.8270  176.4840  137.4040 C   0  0  2  0  0  3  0  0  0  0  0  0
  188.7680  177.3330  138.6870 C   0  0  2  0  0  0  0  0  0  0  0  0
  187.3210  177.8680  140.3860 C   0  0  2  0  0  3  0  0  0  0  0  0
  186.0420  177.8060  145.2170 N   0  0  0  0  0  0  0  0  0  0  0  0
  193.9150  176.5800  138.2260 C   0  0  0  0  0  3  0  0  0  0  0  0
  191.2380  175.8480  137.8310 C   0  0  0  0  0  0  0  0  0  0  0  0
  187.0430  177.2200  144.5070 C   0  0  0  0  0  3  0  0  0  0  0  0
  192.9640  176.8690  139.2050 C   0  0  0  0  0  3  0  0  0  0  0  0
  188.7090  178.8110  138.6030 C   0  0  2  0  0  3  0  0  0  0  0  0
  187.4910  178.0340  138.9390 N   0  0  1  0  0  0  0  0  0  0  0  0
  186.5970  178.9810  141.1310 C   0  0  0  0  0  2  0  0  0  0  0  0
  190.7260  176.8850  140.0480 O   0  0  0  0  0  0  0  0  0  0  0  0
  189.0660  176.0260  142.8510 O   0  0  0  0  0  0  0  0  0  0  0  0
  185.4050  179.1380  143.3350 C   0  0  0  0  0  3  0  0  0  0  0  0
  188.6410  177.5560  141.0460 C   0  0  2  0  0  3  0  0  0  0  0  0
  186.4170  178.5520  142.5750 C   0  0  0  0  0  0  0  0  0  0  0  0
  187.3300  175.7470  135.6910 O   0  0  0  0  0  1  0  0  0  0  0  0
  187.4690  175.8800  137.0720 C   0  0  0  0  0  2  0  0  0  0  0  0
  194.4660  175.6320  136.0420 O   0  0  0  0  0  0  0  0  0  0  0  0
  194.7440  176.5150  134.9630 C   0  0  0  0  0  2  0  0  0  0  0  0
  195.9060  177.3740  135.3080 C   0  0  0  0  0  0  0  0  0  0  0  0
  197.1080  176.7950  135.6910 O   0  0  0  0  0  1  0  0  0  0  0  0
  195.7900  178.6270  135.2910 O   0  0  0  0  0  0  0  0  0  0  0  0
  1 14  1  0  0  0  0
  2 21  1  6  0  0  0
  2 24  1  0  0  0  0
  3 18  1  0  0  0  0
  4 22  2  0  0  0  0
  4  5  1  0  0  0  0
  5 16  1  0  0  0  0
  6 17  1  0  0  0  0
  6 21  1  0  0  0  0
  7 15  1  0  0  0  0
  8 13  1  0  0  0  0
  9  1  2  0  0  0  0
  9 15  1  0  0  0  0
 10 27  1  1  0  0  0
 10  7  1  0  0  0  0
 10 11  1  0  0  0  0
 11 19  1  0  0  0  0
 11  2  1  0  0  0  0
 12 24  1  0  0  0  0
 12 20  1  0  0  0  0
 14 17  2  0  0  0  0
 15  6  2  0  0  0  0
 16 13  2  0  0  0  0
 18 11  1  0  0  0  0
 18 19  1  0  0  0  0
 19 12  1  0  0  0  0
 20 25  1  0  0  0  0
 23  8  2  0  0  0  0
 24  4  1  0  0  0  0
 25  5  2  0  0  0  0
 25 23  1  0  0  0  0
 26 27  1  0  0  0  0
 28  1  1  0  0  0  0
 29 30  1  0  0  0  0
 29 28  1  0  0  0  0
 30 31  1  0  0  0  0
 32 30  2  0  0  0  0
M  END
>  <MODEL>
5

>  <REMARK>
 VINA RESULT:      -7.3      2.512      4.414
  Name = 
  4 active torsions:
  status: ('A' for Active; 'I' for Inactive)
    1  A    between atoms: C_1  and  C_10
    2  A    between atoms: C_2  and  O_24
    3  A    between atoms: C_10  and  O_24
    4  A    between atoms: C_13  and  C_14
                            x       y       z     vdW  Elec       q    Type
                         _______ _______ _______ _____ _____    ______ ____

>  <TORSDO>
F 4

$$$$
=
 OpenBabel11052417043D

 32 37  0  0  1  0  0  0  0  0999 V2000
  188.0030  178.3220  141.2880 C   0  0  0  0  0  0  0  0  0  0  0  0
  191.3810  176.1410  137.9710 C   0  0  1  0  0  3  0  0  0  0  0  0
  188.1310  174.3160  136.8000 C   0  0  0  0  0  1  0  0  0  0  0  0
  193.7380  175.1240  137.6400 C   0  0  0  0  0  0  0  0  0  0  0  0
  194.5120  174.1560  136.8220 C   0  0  0  0  0  0  0  0  0  0  0  0
  190.0690  176.9400  139.9580 C   0  0  0  0  0  0  0  0  0  0  0  0
  189.4280  178.1880  137.7960 C   0  0  0  0  0  2  0  0  0  0  0  0
  195.9690  172.3390  135.3060 C   0  0  0  0  0  3  0  0  0  0  0  0
  188.2170  178.5250  139.9240 C   0  0  0  0  0  3  0  0  0  0  0  0
  189.1460  177.0100  136.8610 C   0  0  2  0  0  3  0  0  0  0  0  0
  190.0970  175.8430  137.1800 C   0  0  2  0  0  0  0  0  0  0  0  0
  191.8170  174.6560  136.2300 C   0  0  2  0  0  3  0  0  0  0  0  0
  196.5980  173.2010  136.1490 N   0  0  0  0  0  0  0  0  0  0  0  0
  188.8300  177.4360  141.9890 C   0  0  0  0  0  3  0  0  0  0  0  0
  189.2360  177.8490  139.2450 C   0  0  0  0  0  0  0  0  0  0  0  0
  195.9070  174.0990  136.9000 C   0  0  0  0  0  3  0  0  0  0  0  0
  189.8510  176.7530  141.3270 C   0  0  0  0  0  3  0  0  0  0  0  0
  189.5870  174.4520  137.2190 C   0  0  2  0  0  3  0  0  0  0  0  0
  190.3850  174.9200  136.0600 N   0  0  1  0  0  0  0  0  0  0  0  0
  192.3250  173.2880  135.7970 C   0  0  0  0  0  2  0  0  0  0  0  0
  191.0940  176.1800  139.3660 O   0  0  0  0  0  0  0  0  0  0  0  0
  194.3060  175.9840  138.3650 O   0  0  0  0  0  0  0  0  0  0  0  0
  194.5770  172.3600  135.1860 C   0  0  0  0  0  3  0  0  0  0  0  0
  192.2530  174.9630  137.6410 C   0  0  2  0  0  3  0  0  0  0  0  0
  193.8360  173.2730  135.9360 C   0  0  0  0  0  0  0  0  0  0  0  0
  188.1130  177.2620  134.7190 O   0  0  0  0  0  1  0  0  0  0  0  0
  189.2990  177.4770  135.4200 C   0  0  0  0  0  2  0  0  0  0  0  0
  186.9680  179.0160  141.9220 O   0  0  0  0  0  0  0  0  0  0  0  0
  185.7100  178.4240  142.2120 C   0  0  0  0  0  2  0  0  0  0  0  0
  184.7460  178.7440  141.1270 C   0  0  0  0  0  0  0  0  0  0  0  0
  183.6660  177.9050  140.8880 O   0  0  0  0  0  1  0  0  0  0  0  0
  184.9300  179.7530  140.3990 O   0  0  0  0  0  0  0  0  0  0  0  0
  1 28  1  0  0  0  0
  1 14  1  0  0  0  0
  2 21  1  1  0  0  0
  3 18  1  0  0  0  0
  4 24  1  0  0  0  0
  4 22  2  0  0  0  0
  5 16  1  0  0  0  0
  5  4  1  0  0  0  0
  6 17  1  0  0  0  0
  7 15  1  0  0  0  0
  8 13  1  0  0  0  0
  9  1  2  0  0  0  0
 10 27  1  6  0  0  0
 10 11  1  0  0  0  0
 10  7  1  0  0  0  0
 11 18  1  0  0  0  0
 11  2  1  0  0  0  0
 12 24  1  0  0  0  0
 13 16  2  0  0  0  0
 15  9  1  0  0  0  0
 15  6  2  0  0  0  0
 17 14  2  0  0  0  0
 19 12  1  0  0  0  0
 19 11  1  0  0  0  0
 19 18  1  0  0  0  0
 20 25  1  0  0  0  0
 20 12  1  0  0  0  0
 21  6  1  0  0  0  0
 23  8  2  0  0  0  0
 23 25  1  0  0  0  0
 24  2  1  0  0  0  0
 25  5  2  0  0  0  0
 26 27  1  0  0  0  0
 28 29  1  0  0  0  0
 30 29  1  0  0  0  0
 31 30  1  0  0  0  0
 32 30  2  0  0  0  0
M  END
>  <MODEL>
6

>  <REMARK>
 VINA RESULT:      -7.1      3.354      9.505
  Name = 
  4 active torsions:
  status: ('A' for Active; 'I' for Inactive)
    1  A    between atoms: C_1  and  C_10
    2  A    between atoms: C_2  and  O_24
    3  A    between atoms: C_10  and  O_24
    4  A    between atoms: C_13  and  C_14
                            x       y       z     vdW  Elec       q    Type
                         _______ _______ _______ _____ _____    ______ ____

>  <TORSDO>
F 4

$$$$
=
 OpenBabel11052417043D

 32 37  0  0  1  0  0  0  0  0999 V2000
  185.8780  178.0970  143.1870 C   0  0  0  0  0  0  0  0  0  0  0  0
  182.1830  179.7560  139.9070 C   0  0  1  0  0  3  0  0  0  0  0  0
  181.3610  175.9370  139.8510 C   0  0  0  0  0  1  0  0  0  0  0  0
  181.5810  181.3320  137.9440 C   0  0  0  0  0  0  0  0  0  0  0  0
  180.6730  181.4900  136.7810 C   0  0  0  0  0  0  0  0  0  0  0  0
  184.3120  179.1540  141.0960 C   0  0  0  0  0  0  0  0  0  0  0  0
  182.2490  178.9650  142.6280 C   0  0  0  0  0  2  0  0  0  0  0  0
  178.9850  181.7920  134.5940 C   0  0  0  0  0  3  0  0  0  0  0  0
  184.5020  178.2520  143.3520 C   0  0  0  0  0  3  0  0  0  0  0  0
  181.3380  178.0840  141.7700 C   0  0  2  0  0  3  0  0  0  0  0  0
  181.5360  178.4120  140.2790 C   0  0  2  0  0  0  0  0  0  0  0  0
  180.3890  179.2910  138.4960 C   0  0  2  0  0  3  0  0  0  0  0  0
  179.7620  182.8240  135.0180 N   0  0  0  0  0  0  0  0  0  0  0  0
  186.4740  178.4820  141.9800 C   0  0  0  0  0  3  0  0  0  0  0  0
  183.7070  178.7750  142.3270 C   0  0  0  0  0  0  0  0  0  0  0  0
  180.5950  182.7010  136.0850 C   0  0  0  0  0  3  0  0  0  0  0  0
  185.6950  179.0040  140.9470 C   0  0  0  0  0  3  0  0  0  0  0  0
  181.6170  177.3230  139.2780 C   0  0  2  0  0  3  0  0  0  0  0  0
  180.3810  178.1340  139.3980 N   0  0  1  0  0  0  0  0  0  0  0  0
  179.8870  179.0650  137.0770 C   0  0  0  0  0  2  0  0  0  0  0  0
  183.6020  179.6510  139.9870 O   0  0  0  0  0  0  0  0  0  0  0  0
  182.2490  182.2990  138.4010 O   0  0  0  0  0  0  0  0  0  0  0  0
  179.0200  180.5640  135.2580 C   0  0  0  0  0  3  0  0  0  0  0  0
  181.7460  179.9490  138.4830 C   0  0  2  0  0  3  0  0  0  0  0  0
  179.8570  180.4030  136.3620 C   0  0  0  0  0  0  0  0  0  0  0  0
  179.6770  177.7220  143.4520 O   0  0  0  0  0  1  0  0  0  0  0  0
  179.8940  178.3010  142.2020 C   0  0  0  0  0  2  0  0  0  0  0  0
  186.6310  177.5660  144.2390 O   0  0  0  0  0  0  0  0  0  0  0  0
  186.4790  177.9940  145.5860 C   0  0  0  0  0  2  0  0  0  0  0  0
  187.6900  177.6270  146.3650 C   0  0  0  0  0  0  0  0  0  0  0  0
  188.8120  177.1350  145.7130 O   0  0  0  0  0  0  0  0  0  0  0  0
  187.6860  177.7260  147.6190 O   0  0  0  0  0  1  0  0  0  0  0  0
  1  9  1  0  0  0  0
  1 28  1  0  0  0  0
  2 21  1  6  0  0  0
  2 11  1  0  0  0  0
  4 22  2  0  0  0  0
  4 24  1  0  0  0  0
  5  4  1  0  0  0  0
  6 15  1  0  0  0  0
  8 13  2  0  0  0  0
  8 23  1  0  0  0  0
 10 27  1  1  0  0  0
 10  7  1  0  0  0  0
 11 10  1  0  0  0  0
 12 19  1  0  0  0  0
 13 16  1  0  0  0  0
 14  1  2  0  0  0  0
 15  7  1  0  0  0  0
 15  9  2  0  0  0  0
 16  5  2  0  0  0  0
 17  6  2  0  0  0  0
 17 14  1  0  0  0  0
 18 19  1  0  0  0  0
 18  3  1  0  0  0  0
 18 11  1  0  0  0  0
 19 11  1  0  0  0  0
 20 12  1  0  0  0  0
 21  6  1  0  0  0  0
 23 25  2  0  0  0  0
 24 12  1  0  0  0  0
 24  2  1  0  0  0  0
 25  5  1  0  0  0  0
 25 20  1  0  0  0  0
 27 26  1  0  0  0  0
 28 29  1  0  0  0  0
 29 30  1  0  0  0  0
 30 32  1  0  0  0  0
 31 30  2  0  0  0  0
M  END
>  <MODEL>
7

>  <REMARK>
 VINA RESULT:      -6.9      5.893      9.606
  Name = 
  4 active torsions:
  status: ('A' for Active; 'I' for Inactive)
    1  A    between atoms: C_1  and  C_10
    2  A    between atoms: C_2  and  O_24
    3  A    between atoms: C_10  and  O_24
    4  A    between atoms: C_13  and  C_14
                            x       y       z     vdW  Elec       q    Type
                         _______ _______ _______ _____ _____    ______ ____

>  <TORSDO>
F 4

$$$$
=
 OpenBabel11052417043D

 32 37  0  0  1  0  0  0  0  0999 V2000
  185.2880  178.7280  143.6900 C   0  0  0  0  0  0  0  0  0  0  0  0
  189.3890  176.9750  140.9910 C   0  0  1  0  0  3  0  0  0  0  0  0
  191.2860  179.1880  143.5930 C   0  0  0  0  0  1  0  0  0  0  0  0
  190.3710  176.4270  138.6610 C   0  0  0  0  0  0  0  0  0  0  0  0
  191.6410  176.3290  137.8970 C   0  0  0  0  0  0  0  0  0  0  0  0
  187.2710  178.0540  141.8030 C   0  0  0  0  0  0  0  0  0  0  0  0
  188.2000  176.3360  143.4840 C   0  0  0  0  0  2  0  0  0  0  0  0
  194.0100  176.1550  136.4550 C   0  0  0  0  0  3  0  0  0  0  0  0
  186.2560  177.7720  144.0000 C   0  0  0  0  0  3  0  0  0  0  0  0
  189.6450  176.8220  143.6170 C   0  0  2  0  0  3  0  0  0  0  0  0
  190.1430  177.3760  142.2700 C   0  0  2  0  0  0  0  0  0  0  0  0
  191.6910  176.9240  140.6360 C   0  0  2  0  0  3  0  0  0  0  0  0
  192.8450  175.6840  135.9350 N   0  0  0  0  0  0  0  0  0  0  0  0
  185.3060  179.3380  142.4290 C   0  0  0  0  0  3  0  0  0  0  0  0
  187.2480  177.4230  143.0790 C   0  0  0  0  0  0  0  0  0  0  0  0
  191.6730  175.7580  136.6210 C   0  0  0  0  0  3  0  0  0  0  0  0
  186.2890  179.0030  141.4990 C   0  0  0  0  0  3  0  0  0  0  0  0
  190.9340  178.6280  142.2240 C   0  0  2  0  0  3  0  0  0  0  0  0
  191.6040  177.3160  142.0470 N   0  0  1  0  0  0  0  0  0  0  0  0
  192.8870  177.4370  139.8480 C   0  0  0  0  0  2  0  0  0  0  0  0
  188.2470  177.8090  140.8190 O   0  0  0  0  0  0  0  0  0  0  0  0
  189.2980  175.9250  138.2300 O   0  0  0  0  0  0  0  0  0  0  0  0
  194.0330  176.7280  137.7280 C   0  0  0  0  0  3  0  0  0  0  0  0
  190.4040  177.2360  139.9150 C   0  0  2  0  0  3  0  0  0  0  0  0
  192.8510  176.8130  138.4650 C   0  0  0  0  0  0  0  0  0  0  0  0
  191.3360  176.0880  145.1400 O   0  0  0  0  0  1  0  0  0  0  0  0
  190.5110  175.6650  144.0980 C   0  0  0  0  0  2  0  0  0  0  0  0
  184.3190  179.0460  144.6450 O   0  0  0  0  0  0  0  0  0  0  0  0
  183.1690  179.8250  144.3440 C   0  0  0  0  0  2  0  0  0  0  0  0
  182.1560  178.9760  143.6640 C   0  0  0  0  0  0  0  0  0  0  0  0
  182.0620  178.9830  142.2790 O   0  0  0  0  0  0  0  0  0  0  0  0
  181.3580  178.2810  144.3440 O   0  0  0  0  0  1  0  0  0  0  0  0
  1  9  1  0  0  0  0
  1 28  1  0  0  0  0
  2 21  1  6  0  0  0
  2 11  1  0  0  0  0
  4 24  1  0  0  0  0
  5 25  1  0  0  0  0
  5  4  1  0  0  0  0
  6 15  1  0  0  0  0
  7 10  1  0  0  0  0
  8 23  1  0  0  0  0
 10 27  1  6  0  0  0
 11 10  1  0  0  0  0
 12 19  1  0  0  0  0
 13  8  2  0  0  0  0
 13 16  1  0  0  0  0
 14  1  2  0  0  0  0
 15  7  1  0  0  0  0
 15  9  2  0  0  0  0
 16  5  2  0  0  0  0
 17  6  2  0  0  0  0
 17 14  1  0  0  0  0
 18 11  1  0  0  0  0
 18  3  1  0  0  0  0
 19 18  1  0  0  0  0
 19 11  1  0  0  0  0
 20 12  1  0  0  0  0
 21  6  1  0  0  0  0
 22  4  2  0  0  0  0
 23 25  2  0  0  0  0
 24 12  1  0  0  0  0
 24  2  1  0  0  0  0
 25 20  1  0  0  0  0
 27 26  1  0  0  0  0
 29 28  1  0  0  0  0
 30 29  1  0  0  0  0
 30 32  1  0  0  0  0
 31 30  2  0  0  0  0
M  END
>  <MODEL>
8

>  <REMARK>
 VINA RESULT:      -6.6      2.798      8.559
  Name = 
  4 active torsions:
  status: ('A' for Active; 'I' for Inactive)
    1  A    between atoms: C_1  and  C_10
    2  A    between atoms: C_2  and  O_24
    3  A    between atoms: C_10  and  O_24
    4  A    between atoms: C_13  and  C_14
                            x       y       z     vdW  Elec       q    Type
                         _______ _______ _______ _____ _____    ______ ____

>  <TORSDO>
F 4

$$$$
=
 OpenBabel11052417043D

 32 37  0  0  1  0  0  0  0  0999 V2000
  180.1930  181.6300  137.1960 C   0  0  0  0  0  0  0  0  0  0  0  0
  183.6370  179.0040  140.0980 C   0  0  1  0  0  3  0  0  0  0  0  0
  180.6970  179.1760  142.6670 C   0  0  0  0  0  1  0  0  0  0  0  0
  186.1060  178.7590  140.8330 C   0  0  0  0  0  0  0  0  0  0  0  0
  186.9770  178.2950  141.9410 C   0  0  0  0  0  0  0  0  0  0  0  0
  182.3650  180.6740  138.7190 C   0  0  0  0  0  0  0  0  0  0  0  0
  181.3300  178.3170  138.6010 C   0  0  0  0  0  2  0  0  0  0  0  0
  188.6180  177.4390  144.0150 C   0  0  0  0  0  3  0  0  0  0  0  0
  180.2550  180.2850  137.5620 C   0  0  0  0  0  3  0  0  0  0  0  0
  181.1960  177.9910  140.0900 C   0  0  2  0  0  3  0  0  0  0  0  0
  182.3710  178.6050  140.8730 C   0  0  2  0  0  0  0  0  0  0  0  0
  184.1980  177.9670  142.1070 C   0  0  2  0  0  3  0  0  0  0  0  0
  189.1420  177.7570  142.8010 N   0  0  0  0  0  0  0  0  0  0  0  0
  181.2250  182.4940  137.5820 C   0  0  0  0  0  3  0  0  0  0  0  0
  181.3230  179.7900  138.3170 C   0  0  0  0  0  0  0  0  0  0  0  0
  188.3600  178.1770  141.7720 C   0  0  0  0  0  3  0  0  0  0  0  0
  182.2980  182.0180  138.3360 C   0  0  0  0  0  3  0  0  0  0  0  0
  182.1320  179.2780  142.1710 C   0  0  2  0  0  3  0  0  0  0  0  0
  182.7320  177.9230  142.1350 N   0  0  1  0  0  0  0  0  0  0  0  0
  184.9140  178.0500  143.4470 C   0  0  0  0  0  2  0  0  0  0  0  0
  183.4620  180.2910  139.5120 O   0  0  0  0  0  0  0  0  0  0  0  0
  186.5620  178.9810  139.6780 O   0  0  0  0  0  0  0  0  0  0  0  0
  187.2410  177.5330  144.2350 C   0  0  0  0  0  3  0  0  0  0  0  0
  184.6820  179.0500  141.1760 C   0  0  2  0  0  3  0  0  0  0  0  0
  186.4070  177.9530  143.1990 C   0  0  0  0  0  0  0  0  0  0  0  0
  181.6870  175.8520  139.1390 O   0  0  0  0  0  1  0  0  0  0  0  0
  181.1430  176.4780  140.2600 C   0  0  0  0  0  2  0  0  0  0  0  0
  179.1030  182.0780  136.4440 O   0  0  0  0  0  0  0  0  0  0  0  0
  179.2490  182.7060  135.1780 C   0  0  0  0  0  2  0  0  0  0  0  0
  179.6300  184.1300  135.3680 C   0  0  0  0  0  0  0  0  0  0  0  0
  180.7830  184.6250  134.7730 O   0  0  0  0  0  0  0  0  0  0  0  0
  178.9310  184.8770  136.0990 O   0  0  0  0  0  1  0  0  0  0  0  0
  1  9  2  0  0  0  0
  1 14  1  0  0  0  0
  2 21  1  1  0  0  0
  2 11  1  0  0  0  0
  2 24  1  0  0  0  0
  4 24  1  0  0  0  0
  4  5  1  0  0  0  0
  5 25  1  0  0  0  0
  6 21  1  0  0  0  0
  7 10  1  0  0  0  0
  8 23  1  0  0  0  0
  9 15  1  0  0  0  0
 10 27  1  6  0  0  0
 10 11  1  0  0  0  0
 11 19  1  0  0  0  0
 11 18  1  0  0  0  0
 12 19  1  0  0  0  0
 12 20  1  0  0  0  0
 13  8  2  0  0  0  0
 14 17  2  0  0  0  0
 15  7  1  0  0  0  0
 15  6  2  0  0  0  0
 16  5  2  0  0  0  0
 16 13  1  0  0  0  0
 17  6  1  0  0  0  0
 18  3  1  0  0  0  0
 19 18  1  0  0  0  0
 22  4  2  0  0  0  0
 24 12  1  0  0  0  0
 25 20  1  0  0  0  0
 25 23  2  0  0  0  0
 26 27  1  0  0  0  0
 28  1  1  0  0  0  0
 29 30  1  0  0  0  0
 29 28  1  0  0  0  0
 30 32  1  0  0  0  0
 31 30  2  0  0  0  0
M  END
>  <MODEL>
9

>  <REMARK>
 VINA RESULT:      -6.3      5.444     10.514
  Name = 
  4 active torsions:
  status: ('A' for Active; 'I' for Inactive)
    1  A    between atoms: C_1  and  C_10
    2  A    between atoms: C_2  and  O_24
    3  A    between atoms: C_10  and  O_24
    4  A    between atoms: C_13  and  C_14
                            x       y       z     vdW  Elec       q    Type
                         _______ _______ _______ _____ _____    ______ ____

>  <TORSDO>
F 4

$$$$
