=
 OpenBabel11052413423D

 27 31  0  0  1  0  0  0  0  0999 V2000
  182.7360  178.0680  142.3670 C   0  0  0  0  0  2  0  0  0  0  0  0
  182.6690  177.9390  139.8410 C   0  0  1  0  0  3  0  0  0  0  0  0
  184.7860  179.4970  140.1670 C   0  0  0  0  0  2  0  0  0  0  0  0
  184.8980  176.0710  136.8300 O   0  0  0  0  0  0  0  0  0  0  0  0
  186.6310  177.1600  135.4790 C   0  0  0  0  0  1  0  0  0  0  0  0
  182.5760  176.3970  139.8330 C   0  0  0  0  0  2  0  0  0  0  0  0
  185.7720  178.0420  137.6480 C   0  0  0  0  0  0  0  0  0  0  0  0
  187.7210  177.6590  141.7130 C   0  0  0  0  0  3  0  0  0  0  0  0
  186.5760  179.0060  137.7700 O   0  0  0  0  0  0  0  0  0  0  0  0
  187.3050  177.5120  143.0380 C   0  0  0  0  0  3  0  0  0  0  0  0
  184.5300  177.8660  138.3130 C   0  0  0  0  0  0  0  0  0  0  0  0
  182.1790  178.5210  141.0930 N   0  0  0  0  0  0  0  0  0  0  0  0
  185.9070  176.9880  136.7260 N   0  0  0  0  0  0  0  0  0  0  0  0
  183.9030  176.6900  137.6430 C   0  0  2  0  0  3  0  0  0  0  0  0
  183.7140  179.4030  143.1200 S   0  0  0  0  0  0  0  0  0  0  0  0
  184.0210  178.4550  139.3990 C   0  0  0  0  0  0  0  0  0  0  0  0
  186.9060  178.3250  140.7950 C   0  0  0  0  0  3  0  0  0  0  0  0
  183.3980  175.7150  138.7140 C   0  0  0  0  0  2  0  0  0  0  0  0
  186.0770  178.0380  143.4450 C   0  0  0  0  0  3  0  0  0  0  0  0
  185.2580  178.7120  142.5330 C   0  0  0  0  0  0  0  0  0  0  0  0
  185.6720  178.8550  141.1930 C   0  0  0  0  0  0  0  0  0  0  0  0
  178.9710  181.3170  140.9990 C   0  0  0  0  0  3  0  0  0  0  0  0
  181.0900  179.4690  141.0590 C   0  0  0  0  0  0  0  0  0  0  0  0
  180.2870  179.6740  142.1940 C   0  0  0  0  0  3  0  0  0  0  0  0
  179.2330  180.5920  142.1640 C   0  0  0  0  0  3  0  0  0  0  0  0
  179.7620  181.1240  139.8650 C   0  0  0  0  0  3  0  0  0  0  0  0
  180.8160  180.2070  139.8940 C   0  0  0  0  0  3  0  0  0  0  0  0
  1 15  1  0  0  0  0
  2  6  1  1  0  0  0
  2 12  1  0  0  0  0
  3 21  1  0  0  0  0
  4 14  1  0  0  0  0
  5 13  1  0  0  0  0
  7  9  2  0  0  0  0
  7 11  1  0  0  0  0
  8 10  1  0  0  0  0
 10 19  2  0  0  0  0
 11 16  2  0  0  0  0
 12  1  1  0  0  0  0
 13  4  1  0  0  0  0
 13  7  1  0  0  0  0
 14 11  1  0  0  0  0
 14 18  1  1  0  0  0
 16  2  1  0  0  0  0
 16  3  1  0  0  0  0
 17 21  1  0  0  0  0
 17  8  2  0  0  0  0
 18  6  1  0  0  0  0
 20 15  1  0  0  0  0
 20 19  1  0  0  0  0
 21 20  2  0  0  0  0
 22 25  1  0  0  0  0
 23 12  1  0  0  0  0
 23 24  1  0  0  0  0
 25 24  2  0  0  0  0
 26 27  1  0  0  0  0
 26 22  2  0  0  0  0
 27 23  2  0  0  0  0
M  END
>  <MODEL>
1

>  <REMARK>
 VINA RESULT:      -6.0      0.000      0.000
  Name = 
  1 active torsions:
  status: ('A' for Active; 'I' for Inactive)
    1  A    between atoms: C_9  and  N_15
                            x       y       z     vdW  Elec       q    Type
                         _______ _______ _______ _____ _____    ______ ____

>  <TORSDO>
F 1

$$$$
=
 OpenBabel11052413423D

 27 31  0  0  1  0  0  0  0  0999 V2000
  182.0230  177.4080  139.8460 C   0  0  0  0  0  2  0  0  0  0  0  0
  183.3710  177.0990  137.7280 C   0  0  1  0  0  3  0  0  0  0  0  0
  184.6430  179.1680  138.7850 C   0  0  0  0  0  2  0  0  0  0  0  0
  187.1770  175.6730  136.7240 O   0  0  0  0  0  0  0  0  0  0  0  0
  189.1350  177.0800  136.2740 C   0  0  0  0  0  1  0  0  0  0  0  0
  183.5780  175.5890  137.9730 C   0  0  0  0  0  2  0  0  0  0  0  0
  187.0880  177.8530  137.4720 C   0  0  0  0  0  0  0  0  0  0  0  0
  186.5320  178.2560  141.9440 C   0  0  0  0  0  3  0  0  0  0  0  0
  187.5040  178.9970  137.7990 O   0  0  0  0  0  0  0  0  0  0  0  0
  185.4950  178.0950  142.8650 C   0  0  0  0  0  3  0  0  0  0  0  0
  185.7410  177.4070  137.4220 C   0  0  0  0  0  0  0  0  0  0  0  0
  182.1810  177.6170  138.4070 N   0  0  0  0  0  0  0  0  0  0  0  0
  187.8930  176.8110  136.9770 N   0  0  0  0  0  0  0  0  0  0  0  0
  185.8070  176.0680  136.7700 C   0  0  2  0  0  3  0  0  0  0  0  0
  182.1690  178.9970  140.7180 S   0  0  0  0  0  0  0  0  0  0  0  0
  184.6250  177.9150  137.9530 C   0  0  0  0  0  0  0  0  0  0  0  0
  186.2450  178.6270  140.6280 C   0  0  0  0  0  3  0  0  0  0  0  0
  184.9850  175.0680  137.5950 C   0  0  0  0  0  2  0  0  0  0  0  0
  184.1720  178.3110  142.4710 C   0  0  0  0  0  3  0  0  0  0  0  0
  183.8790  178.6900  141.1560 C   0  0  0  0  0  0  0  0  0  0  0  0
  184.9230  178.8450  140.2230 C   0  0  0  0  0  0  0  0  0  0  0  0
  179.1090  179.4800  136.1250 C   0  0  0  0  0  3  0  0  0  0  0  0
  181.1370  178.2480  137.6340 C   0  0  0  0  0  0  0  0  0  0  0  0
  181.3040  179.5530  137.1410 C   0  0  0  0  0  3  0  0  0  0  0  0
  180.2960  180.1660  136.3920 C   0  0  0  0  0  3  0  0  0  0  0  0
  178.9310  178.1810  136.6070 C   0  0  0  0  0  3  0  0  0  0  0  0
  179.9380  177.5680  137.3560 C   0  0  0  0  0  3  0  0  0  0  0  0
  1 15  1  0  0  0  0
  2 16  1  0  0  0  0
  2  6  1  1  0  0  0
  2 12  1  0  0  0  0
  3 21  1  0  0  0  0
  4 14  1  0  0  0  0
  4 13  1  0  0  0  0
  5 13  1  0  0  0  0
  7  9  2  0  0  0  0
  8 10  1  0  0  0  0
 11  7  1  0  0  0  0
 11 16  2  0  0  0  0
 12  1  1  0  0  0  0
 13  7  1  0  0  0  0
 14 11  1  0  0  0  0
 14 18  1  1  0  0  0
 15 20  1  0  0  0  0
 16  3  1  0  0  0  0
 17  8  2  0  0  0  0
 18  6  1  0  0  0  0
 19 10  2  0  0  0  0
 20 19  1  0  0  0  0
 21 17  1  0  0  0  0
 21 20  2  0  0  0  0
 22 25  2  0  0  0  0
 22 26  1  0  0  0  0
 23 12  1  0  0  0  0
 24 23  2  0  0  0  0
 25 24  1  0  0  0  0
 26 27  2  0  0  0  0
 27 23  1  0  0  0  0
M  END
>  <MODEL>
2

>  <REMARK>
 VINA RESULT:      -5.8      2.210      2.863
  Name = 
  1 active torsions:
  status: ('A' for Active; 'I' for Inactive)
    1  A    between atoms: C_9  and  N_15
                            x       y       z     vdW  Elec       q    Type
                         _______ _______ _______ _____ _____    ______ ____

>  <TORSDO>
F 1

$$$$
=
 OpenBabel11052413423D

 27 31  0  0  1  0  0  0  0  0999 V2000
  180.7610  178.4550  136.9330 C   0  0  0  0  0  2  0  0  0  0  0  0
  182.2280  179.6030  138.6450 C   0  0  1  0  0  3  0  0  0  0  0  0
  180.0680  179.1610  140.1130 C   0  0  0  0  0  2  0  0  0  0  0  0
  184.3880  178.4720  142.0490 O   0  0  0  0  0  0  0  0  0  0  0  0
  183.6210  178.7540  144.3610 C   0  0  0  0  0  1  0  0  0  0  0  0
  183.4320  178.6770  138.3660 C   0  0  0  0  0  2  0  0  0  0  0  0
  182.1300  178.8190  142.3630 C   0  0  0  0  0  0  0  0  0  0  0  0
  179.5090  175.4760  140.8070 C   0  0  0  0  0  3  0  0  0  0  0  0
  181.0300  178.8900  142.9740 O   0  0  0  0  0  0  0  0  0  0  0  0
  179.0740  175.0100  139.5640 C   0  0  0  0  0  3  0  0  0  0  0  0
  182.3850  179.1470  141.0050 C   0  0  0  0  0  0  0  0  0  0  0  0
  181.3110  179.6830  137.5060 N   0  0  0  0  0  0  0  0  0  0  0  0
  183.3650  178.4960  142.9550 N   0  0  0  0  0  0  0  0  0  0  0  0
  183.8690  179.0900  140.8720 C   0  0  2  0  0  3  0  0  0  0  0  0
  178.9780  178.3610  137.2750 S   0  0  0  0  0  0  0  0  0  0  0  0
  181.5570  179.3200  139.9700 C   0  0  0  0  0  0  0  0  0  0  0  0
  179.8070  176.8290  140.9800 C   0  0  0  0  0  3  0  0  0  0  0  0
  184.2290  178.2680  139.6280 C   0  0  0  0  0  2  0  0  0  0  0  0
  178.9310  175.9000  138.4970 C   0  0  0  0  0  3  0  0  0  0  0  0
  179.2210  177.2580  138.6650 C   0  0  0  0  0  0  0  0  0  0  0  0
  179.6680  177.7290  139.9160 C   0  0  0  0  0  0  0  0  0  0  0  0
  180.4860  183.4690  135.7440 C   0  0  0  0  0  3  0  0  0  0  0  0
  181.0300  180.9670  136.9070 C   0  0  0  0  0  0  0  0  0  0  0  0
  181.0100  182.1320  137.6930 C   0  0  0  0  0  3  0  0  0  0  0  0
  180.7390  183.3760  137.1150 C   0  0  0  0  0  3  0  0  0  0  0  0
  180.5050  182.3190  134.9520 C   0  0  0  0  0  3  0  0  0  0  0  0
  180.7750  181.0760  135.5290 C   0  0  0  0  0  3  0  0  0  0  0  0
  1 15  1  0  0  0  0
  1 12  1  0  0  0  0
  2  6  1  6  0  0  0
  2 16  1  0  0  0  0
  4 13  1  0  0  0  0
  6 18  1  0  0  0  0
  7 13  1  0  0  0  0
  7  9  2  0  0  0  0
  8 17  1  0  0  0  0
 10  8  2  0  0  0  0
 11  7  1  0  0  0  0
 12  2  1  0  0  0  0
 13  5  1  0  0  0  0
 14 18  1  6  0  0  0
 14 11  1  0  0  0  0
 14  4  1  0  0  0  0
 15 20  1  0  0  0  0
 16  3  1  0  0  0  0
 16 11  2  0  0  0  0
 19 20  2  0  0  0  0
 19 10  1  0  0  0  0
 20 21  1  0  0  0  0
 21  3  1  0  0  0  0
 21 17  2  0  0  0  0
 22 25  1  0  0  0  0
 23 12  1  0  0  0  0
 23 24  1  0  0  0  0
 25 24  2  0  0  0  0
 26 27  1  0  0  0  0
 26 22  2  0  0  0  0
 27 23  2  0  0  0  0
M  END
>  <MODEL>
3

>  <REMARK>
 VINA RESULT:      -5.8      3.634      6.079
  Name = 
  1 active torsions:
  status: ('A' for Active; 'I' for Inactive)
    1  A    between atoms: C_9  and  N_15
                            x       y       z     vdW  Elec       q    Type
                         _______ _______ _______ _____ _____    ______ ____

>  <TORSDO>
F 1

$$$$
=
 OpenBabel11052413423D

 27 31  0  0  1  0  0  0  0  0999 V2000
  189.2360  178.4970  139.2160 C   0  0  0  0  0  2  0  0  0  0  0  0
  190.7170  176.4460  139.2230 C   0  0  1  0  0  3  0  0  0  0  0  0
  188.5610  175.4520  138.0490 C   0  0  0  0  0  2  0  0  0  0  0  0
  192.8850  174.2480  136.3950 O   0  0  0  0  0  0  0  0  0  0  0  0
  192.1290  172.1600  135.3540 C   0  0  0  0  0  1  0  0  0  0  0  0
  191.9150  177.1980  138.6020 C   0  0  0  0  0  2  0  0  0  0  0  0
  190.6300  173.7800  136.5150 C   0  0  0  0  0  0  0  0  0  0  0  0
  187.9830  176.9060  134.5960 C   0  0  0  0  0  3  0  0  0  0  0  0
  189.5330  173.2230  136.2400 O   0  0  0  0  0  0  0  0  0  0  0  0
  187.5400  178.1960  134.8950 C   0  0  0  0  0  3  0  0  0  0  0  0
  190.8810  174.7310  137.5380 C   0  0  0  0  0  0  0  0  0  0  0  0
  189.7960  177.3440  139.9220 N   0  0  0  0  0  0  0  0  0  0  0  0
  191.8650  173.4720  135.9160 N   0  0  0  0  0  0  0  0  0  0  0  0
  192.3640  174.8840  137.5610 C   0  0  2  0  0  3  0  0  0  0  0  0
  187.4540  178.2520  138.9530 S   0  0  0  0  0  0  0  0  0  0  0  0
  190.0500  175.4920  138.2570 C   0  0  0  0  0  0  0  0  0  0  0  0
  188.2900  176.0160  135.6280 C   0  0  0  0  0  3  0  0  0  0  0  0
  192.7140  176.3780  137.5630 C   0  0  0  0  0  2  0  0  0  0  0  0
  187.3980  178.5930  136.2270 C   0  0  0  0  0  3  0  0  0  0  0  0
  187.6960  177.7040  137.2650 C   0  0  0  0  0  0  0  0  0  0  0  0
  188.1510  176.4050  136.9660 C   0  0  0  0  0  0  0  0  0  0  0  0
  188.9760  176.7200  144.0520 C   0  0  0  0  0  3  0  0  0  0  0  0
  189.5190  177.1330  141.3230 C   0  0  0  0  0  0  0  0  0  0  0  0
  188.3670  177.6790  141.9140 C   0  0  0  0  0  3  0  0  0  0  0  0
  188.0970  177.4740  143.2700 C   0  0  0  0  0  3  0  0  0  0  0  0
  190.1240  176.1700  143.4770 C   0  0  0  0  0  3  0  0  0  0  0  0
  190.3940  176.3740  142.1210 C   0  0  0  0  0  3  0  0  0  0  0  0
  1 12  1  0  0  0  0
  2  6  1  6  0  0  0
  2 12  1  0  0  0  0
  3 16  1  0  0  0  0
  4 14  1  0  0  0  0
  5 13  1  0  0  0  0
  7 11  1  0  0  0  0
  8 10  2  0  0  0  0
  8 17  1  0  0  0  0
  9  7  2  0  0  0  0
 10 19  1  0  0  0  0
 11 14  1  0  0  0  0
 11 16  2  0  0  0  0
 12 23  1  0  0  0  0
 13  4  1  0  0  0  0
 13  7  1  0  0  0  0
 14 18  1  6  0  0  0
 15  1  1  0  0  0  0
 16  2  1  0  0  0  0
 17 21  2  0  0  0  0
 18  6  1  0  0  0  0
 19 20  2  0  0  0  0
 20 15  1  0  0  0  0
 21 20  1  0  0  0  0
 21  3  1  0  0  0  0
 23 24  2  0  0  0  0
 23 27  1  0  0  0  0
 24 25  1  0  0  0  0
 25 22  2  0  0  0  0
 26 22  1  0  0  0  0
 27 26  2  0  0  0  0
M  END
>  <MODEL>
4

>  <REMARK>
 VINA RESULT:      -5.7      5.662      8.051
  Name = 
  1 active torsions:
  status: ('A' for Active; 'I' for Inactive)
    1  A    between atoms: C_9  and  N_15
                            x       y       z     vdW  Elec       q    Type
                         _______ _______ _______ _____ _____    ______ ____

>  <TORSDO>
F 1

$$$$
=
 OpenBabel11052413423D

 27 31  0  0  1  0  0  0  0  0999 V2000
  189.8250  178.2840  138.7450 C   0  0  0  0  0  2  0  0  0  0  0  0
  191.1260  176.1260  138.5280 C   0  0  1  0  0  3  0  0  0  0  0  0
  188.6890  175.2520  137.9680 C   0  0  0  0  0  2  0  0  0  0  0  0
  192.3930  173.6370  135.4090 O   0  0  0  0  0  0  0  0  0  0  0  0
  191.2730  171.5700  134.7130 C   0  0  0  0  0  1  0  0  0  0  0  0
  192.1830  176.7530  137.5930 C   0  0  0  0  0  2  0  0  0  0  0  0
  190.2090  173.3540  136.0940 C   0  0  0  0  0  0  0  0  0  0  0  0
  187.3860  176.5880  134.6680 C   0  0  0  0  0  3  0  0  0  0  0  0
  189.0440  172.8740  136.1240 O   0  0  0  0  0  0  0  0  0  0  0  0
  187.1140  177.9220  134.9820 C   0  0  0  0  0  3  0  0  0  0  0  0
  190.7630  174.3290  136.9650 C   0  0  0  0  0  0  0  0  0  0  0  0
  190.4620  177.1250  139.3680 N   0  0  0  0  0  0  0  0  0  0  0  0
  191.2400  172.9230  135.2370 N   0  0  0  0  0  0  0  0  0  0  0  0
  192.2140  174.3650  136.6230 C   0  0  2  0  0  3  0  0  0  0  0  0
  188.0200  178.1700  138.9310 S   0  0  0  0  0  0  0  0  0  0  0  0
  190.1830  175.1850  137.8120 C   0  0  0  0  0  0  0  0  0  0  0  0
  187.8750  175.7250  135.6510 C   0  0  0  0  0  3  0  0  0  0  0  0
  192.6510  175.8250  136.4470 C   0  0  0  0  0  2  0  0  0  0  0  0
  187.3260  178.3890  136.2810 C   0  0  0  0  0  3  0  0  0  0  0  0
  187.8090  177.5270  137.2730 C   0  0  0  0  0  0  0  0  0  0  0  0
  188.0910  176.1840  136.9560 C   0  0  0  0  0  0  0  0  0  0  0  0
  190.6390  176.7620  143.6050 C   0  0  0  0  0  3  0  0  0  0  0  0
  190.5210  177.0000  140.8060 C   0  0  0  0  0  0  0  0  0  0  0  0
  191.6210  177.5030  141.5210 C   0  0  0  0  0  3  0  0  0  0  0  0
  191.6800  177.3840  142.9130 C   0  0  0  0  0  3  0  0  0  0  0  0
  189.5390  176.2590  142.9070 C   0  0  0  0  0  3  0  0  0  0  0  0
  189.4800  176.3780  141.5160 C   0  0  0  0  0  3  0  0  0  0  0  0
  1 15  1  0  0  0  0
  1 12  1  0  0  0  0
  2  6  1  6  0  0  0
  2 12  1  0  0  0  0
  4 14  1  0  0  0  0
  5 13  1  0  0  0  0
  7  9  2  0  0  0  0
  7 11  1  0  0  0  0
  8 10  2  0  0  0  0
  8 17  1  0  0  0  0
 10 19  1  0  0  0  0
 11 16  2  0  0  0  0
 12 23  1  0  0  0  0
 13  4  1  0  0  0  0
 13  7  1  0  0  0  0
 14 18  1  6  0  0  0
 14 11  1  0  0  0  0
 16  3  1  0  0  0  0
 16  2  1  0  0  0  0
 17 21  2  0  0  0  0
 18  6  1  0  0  0  0
 19 20  2  0  0  0  0
 20 15  1  0  0  0  0
 21 20  1  0  0  0  0
 21  3  1  0  0  0  0
 23 27  2  0  0  0  0
 23 24  1  0  0  0  0
 24 25  2  0  0  0  0
 25 22  1  0  0  0  0
 26 22  2  0  0  0  0
 27 26  1  0  0  0  0
M  END
>  <MODEL>
5

>  <REMARK>
 VINA RESULT:      -5.7      6.095      8.523
  Name = 
  1 active torsions:
  status: ('A' for Active; 'I' for Inactive)
    1  A    between atoms: C_9  and  N_15
                            x       y       z     vdW  Elec       q    Type
                         _______ _______ _______ _____ _____    ______ ____

>  <TORSDO>
F 1

$$$$
=
 OpenBabel11052413423D

 27 31  0  0  1  0  0  0  0  0999 V2000
  181.2230  177.3920  140.5140 C   0  0  0  0  0  2  0  0  0  0  0  0
  181.4160  179.8250  139.8500 C   0  0  1  0  0  3  0  0  0  0  0  0
  182.0250  178.6700  137.5460 C   0  0  0  0  0  2  0  0  0  0  0  0
  179.2080  182.5360  137.5470 O   0  0  0  0  0  0  0  0  0  0  0  0
  179.7200  183.1610  135.2310 C   0  0  0  0  0  1  0  0  0  0  0  0
  180.0320  180.1870  140.4320 C   0  0  0  0  0  2  0  0  0  0  0  0
  180.6050  181.1270  136.3720 C   0  0  0  0  0  0  0  0  0  0  0  0
  179.0640  176.8910  135.9820 C   0  0  0  0  0  3  0  0  0  0  0  0
  181.1790  180.6100  135.3760 O   0  0  0  0  0  0  0  0  0  0  0  0
  178.9320  175.7700  136.8040 C   0  0  0  0  0  3  0  0  0  0  0  0
  180.8300  180.8370  137.7430 C   0  0  0  0  0  0  0  0  0  0  0  0
  181.9920  178.6350  140.4800 N   0  0  0  0  0  0  0  0  0  0  0  0
  179.6890  182.1930  136.3130 N   0  0  0  0  0  0  0  0  0  0  0  0
  180.0560  181.8750  138.4830 C   0  0  2  0  0  3  0  0  0  0  0  0
  182.0020  176.1560  139.4330 S   0  0  0  0  0  0  0  0  0  0  0  0
  181.4380  179.8050  138.3370 C   0  0  0  0  0  0  0  0  0  0  0  0
  180.0850  177.8140  136.2180 C   0  0  0  0  0  3  0  0  0  0  0  0
  179.2250  181.1940  139.5780 C   0  0  0  0  0  2  0  0  0  0  0  0
  179.8270  175.5690  137.8580 C   0  0  0  0  0  3  0  0  0  0  0  0
  180.8580  176.4860  138.0950 C   0  0  0  0  0  0  0  0  0  0  0  0
  180.9870  177.6220  137.2720 C   0  0  0  0  0  0  0  0  0  0  0  0
  185.7710  178.9020  142.4210 C   0  0  0  0  0  3  0  0  0  0  0  0
  183.2750  178.7270  141.1370 C   0  0  0  0  0  0  0  0  0  0  0  0
  183.3690  178.6280  142.5360 C   0  0  0  0  0  3  0  0  0  0  0  0
  184.6090  178.7150  143.1740 C   0  0  0  0  0  3  0  0  0  0  0  0
  185.6920  179.0000  141.0300 C   0  0  0  0  0  3  0  0  0  0  0  0
  184.4520  178.9130  140.3910 C   0  0  0  0  0  3  0  0  0  0  0  0
  2  6  1  6  0  0  0
  2 12  1  0  0  0  0
  3 16  1  0  0  0  0
  4 14  1  0  0  0  0
  5 13  1  0  0  0  0
  7 11  1  0  0  0  0
  8 17  2  0  0  0  0
  8 10  1  0  0  0  0
  9  7  2  0  0  0  0
 10 19  2  0  0  0  0
 11 16  2  0  0  0  0
 11 14  1  0  0  0  0
 12  1  1  0  0  0  0
 12 23  1  0  0  0  0
 13  7  1  0  0  0  0
 13  4  1  0  0  0  0
 14 18  1  1  0  0  0
 15  1  1  0  0  0  0
 16  2  1  0  0  0  0
 17 21  1  0  0  0  0
 18  6  1  0  0  0  0
 19 20  1  0  0  0  0
 20 15  1  0  0  0  0
 21  3  1  0  0  0  0
 21 20  2  0  0  0  0
 22 25  1  0  0  0  0
 23 24  1  0  0  0  0
 24 25  2  0  0  0  0
 26 22  2  0  0  0  0
 27 26  1  0  0  0  0
 27 23  2  0  0  0  0
M  END
>  <MODEL>
6

>  <REMARK>
 VINA RESULT:      -5.6      3.510      6.397
  Name = 
  1 active torsions:
  status: ('A' for Active; 'I' for Inactive)
    1  A    between atoms: C_9  and  N_15
                            x       y       z     vdW  Elec       q    Type
                         _______ _______ _______ _____ _____    ______ ____

>  <TORSDO>
F 1

$$$$
=
 OpenBabel11052413423D

 27 31  0  0  1  0  0  0  0  0999 V2000
  182.4330  179.6760  139.5110 C   0  0  0  0  0  2  0  0  0  0  0  0
  183.1530  177.2520  139.5790 C   0  0  1  0  0  3  0  0  0  0  0  0
  180.5210  176.9510  139.5850 C   0  0  0  0  0  2  0  0  0  0  0  0
  183.2020  174.0160  136.9230 O   0  0  0  0  0  0  0  0  0  0  0  0
  181.5360  172.2180  136.8630 C   0  0  0  0  0  1  0  0  0  0  0  0
  184.1200  177.4130  138.3860 C   0  0  0  0  0  2  0  0  0  0  0  0
  181.1860  174.4280  137.9650 C   0  0  0  0  0  0  0  0  0  0  0  0
  178.9310  177.9800  136.3010 C   0  0  0  0  0  3  0  0  0  0  0  0
  179.9720  174.2770  138.2690 O   0  0  0  0  0  0  0  0  0  0  0  0
  179.0300  179.3720  136.3550 C   0  0  0  0  0  3  0  0  0  0  0  0
  182.1010  175.3640  138.5130 C   0  0  0  0  0  0  0  0  0  0  0  0
  182.9050  178.5190  140.2710 N   0  0  0  0  0  0  0  0  0  0  0  0
  181.9070  173.6050  137.0810 N   0  0  0  0  0  0  0  0  0  0  0  0
  183.4290  174.9660  137.9630 C   0  0  2  0  0  3  0  0  0  0  0  0
  180.7200  180.0630  139.9800 S   0  0  0  0  0  0  0  0  0  0  0  0
  181.9030  176.4750  139.2300 C   0  0  0  0  0  0  0  0  0  0  0  0
  179.3980  177.2050  137.3650 C   0  0  0  0  0  3  0  0  0  0  0  0
  184.1370  176.2110  137.4130 C   0  0  0  0  0  2  0  0  0  0  0  0
  179.5890  179.9880  137.4760 C   0  0  0  0  0  3  0  0  0  0  0  0
  180.0510  179.2180  138.5500 C   0  0  0  0  0  0  0  0  0  0  0  0
  179.9610  177.8130  138.4940 C   0  0  0  0  0  0  0  0  0  0  0  0
  183.8200  178.8650  144.4130 C   0  0  0  0  0  3  0  0  0  0  0  0
  183.2140  178.6360  141.6770 C   0  0  0  0  0  0  0  0  0  0  0  0
  184.5370  178.4970  142.1310 C   0  0  0  0  0  3  0  0  0  0  0  0
  184.8380  178.6110  143.4910 C   0  0  0  0  0  3  0  0  0  0  0  0
  182.5010  179.0070  143.9760 C   0  0  0  0  0  3  0  0  0  0  0  0
  182.1990  178.8930  142.6160 C   0  0  0  0  0  3  0  0  0  0  0  0
  1 15  1  0  0  0  0
  1 12  1  0  0  0  0
  2  6  1  6  0  0  0
  2 12  1  0  0  0  0
  4 13  1  0  0  0  0
  4 14  1  0  0  0  0
  5 13  1  0  0  0  0
  7  9  2  0  0  0  0
  7 11  1  0  0  0  0
  8 10  2  0  0  0  0
  8 17  1  0  0  0  0
 10 19  1  0  0  0  0
 11 16  2  0  0  0  0
 12 23  1  0  0  0  0
 13  7  1  0  0  0  0
 14 18  1  6  0  0  0
 14 11  1  0  0  0  0
 16  2  1  0  0  0  0
 16  3  1  0  0  0  0
 17 21  2  0  0  0  0
 18  6  1  0  0  0  0
 19 20  2  0  0  0  0
 20 15  1  0  0  0  0
 21 20  1  0  0  0  0
 21  3  1  0  0  0  0
 23 24  2  0  0  0  0
 23 27  1  0  0  0  0
 24 25  1  0  0  0  0
 25 22  2  0  0  0  0
 26 22  1  0  0  0  0
 27 26  2  0  0  0  0
M  END
>  <MODEL>
7

>  <REMARK>
 VINA RESULT:      -5.6      2.788      5.703
  Name = 
  1 active torsions:
  status: ('A' for Active; 'I' for Inactive)
    1  A    between atoms: C_9  and  N_15
                            x       y       z     vdW  Elec       q    Type
                         _______ _______ _______ _____ _____    ______ ____

>  <TORSDO>
F 1

$$$$
=
 OpenBabel11052413423D

 27 31  0  0  1  0  0  0  0  0999 V2000
  183.2300  180.1210  139.0900 C   0  0  0  0  0  2  0  0  0  0  0  0
  184.2560  177.8100  139.0090 C   0  0  1  0  0  3  0  0  0  0  0  0
  181.7390  177.2170  138.4360 C   0  0  0  0  0  2  0  0  0  0  0  0
  185.2570  175.0270  136.0470 O   0  0  0  0  0  0  0  0  0  0  0  0
  183.9000  173.0810  135.4260 C   0  0  0  0  0  1  0  0  0  0  0  0
  185.4000  178.2530  138.0700 C   0  0  0  0  0  2  0  0  0  0  0  0
  183.0430  175.0520  136.6930 C   0  0  0  0  0  0  0  0  0  0  0  0
  180.6710  178.5330  135.0440 C   0  0  0  0  0  3  0  0  0  0  0  0
  181.8270  174.7210  136.7190 O   0  0  0  0  0  0  0  0  0  0  0  0
  180.5620  179.9040  135.2860 C   0  0  0  0  0  3  0  0  0  0  0  0
  183.6990  175.9940  137.5280 C   0  0  0  0  0  0  0  0  0  0  0  0
  183.7070  178.9260  139.7840 N   0  0  0  0  0  0  0  0  0  0  0  0
  184.0270  174.4540  135.8830 N   0  0  0  0  0  0  0  0  0  0  0  0
  185.1490  175.8330  137.2190 C   0  0  2  0  0  3  0  0  0  0  0  0
  181.4230  180.2410  139.2390 S   0  0  0  0  0  0  0  0  0  0  0  0
  183.2150  176.9580  138.3180 C   0  0  0  0  0  0  0  0  0  0  0  0
  181.0310  177.6670  136.0790 C   0  0  0  0  0  3  0  0  0  0  0  0
  185.7670  177.2170  136.9820 C   0  0  0  0  0  2  0  0  0  0  0  0
  180.8080  180.4080  136.5660 C   0  0  0  0  0  3  0  0  0  0  0  0
  181.1620  179.5450  137.6090 C   0  0  0  0  0  0  0  0  0  0  0  0
  181.2800  178.1630  137.3650 C   0  0  0  0  0  0  0  0  0  0  0  0
  183.7650  178.7600  144.0370 C   0  0  0  0  0  3  0  0  0  0  0  0
  183.7250  178.8680  141.2270 C   0  0  0  0  0  0  0  0  0  0  0  0
  184.9340  179.0030  141.9320 C   0  0  0  0  0  3  0  0  0  0  0  0
  184.9540  178.9490  143.3280 C   0  0  0  0  0  3  0  0  0  0  0  0
  182.5570  178.6270  143.3490 C   0  0  0  0  0  3  0  0  0  0  0  0
  182.5360  178.6810  141.9530 C   0  0  0  0  0  3  0  0  0  0  0  0
  1 15  1  0  0  0  0
  1 12  1  0  0  0  0
  2  6  1  6  0  0  0
  2 12  1  0  0  0  0
  4 14  1  0  0  0  0
  5 13  1  0  0  0  0
  7  9  2  0  0  0  0
  7 11  1  0  0  0  0
  8 10  2  0  0  0  0
  8 17  1  0  0  0  0
 10 19  1  0  0  0  0
 11 16  2  0  0  0  0
 12 23  1  0  0  0  0
 13  4  1  0  0  0  0
 13  7  1  0  0  0  0
 14 18  1  6  0  0  0
 14 11  1  0  0  0  0
 16  3  1  0  0  0  0
 16  2  1  0  0  0  0
 17 21  2  0  0  0  0
 18  6  1  0  0  0  0
 19 20  2  0  0  0  0
 20 15  1  0  0  0  0
 21 20  1  0  0  0  0
 21  3  1  0  0  0  0
 23 24  2  0  0  0  0
 23 27  1  0  0  0  0
 24 25  1  0  0  0  0
 25 22  2  0  0  0  0
 26 22  1  0  0  0  0
 27 26  2  0  0  0  0
M  END
>  <MODEL>
8

>  <REMARK>
 VINA RESULT:      -5.5      2.531      5.287
  Name = 
  1 active torsions:
  status: ('A' for Active; 'I' for Inactive)
    1  A    between atoms: C_9  and  N_15
                            x       y       z     vdW  Elec       q    Type
                         _______ _______ _______ _____ _____    ______ ____

>  <TORSDO>
F 1

$$$$
=
 OpenBabel11052413423D

 27 31  0  0  1  0  0  0  0  0999 V2000
  181.7000  179.4120  140.8630 C   0  0  0  0  0  2  0  0  0  0  0  0
  183.9090  178.4140  140.1410 C   0  0  1  0  0  3  0  0  0  0  0  0
  182.3430  176.2930  139.8900 C   0  0  0  0  0  2  0  0  0  0  0  0
  185.6530  177.1610  136.5470 O   0  0  0  0  0  0  0  0  0  0  0  0
  185.7810  174.8360  135.7790 C   0  0  0  0  0  1  0  0  0  0  0  0
  184.1950  179.5490  139.1340 C   0  0  0  0  0  2  0  0  0  0  0  0
  184.2230  175.6530  137.5470 C   0  0  0  0  0  0  0  0  0  0  0  0
  179.8380  176.6600  137.0660 C   0  0  0  0  0  3  0  0  0  0  0  0
  183.5730  174.5850  137.7090 O   0  0  0  0  0  0  0  0  0  0  0  0
  178.9360  177.5840  137.5980 C   0  0  0  0  0  3  0  0  0  0  0  0
  184.3000  176.7590  138.4350 C   0  0  0  0  0  0  0  0  0  0  0  0
  182.9970  178.8320  141.2080 N   0  0  0  0  0  0  0  0  0  0  0  0
  185.1020  175.9120  136.4790 N   0  0  0  0  0  0  0  0  0  0  0  0
  185.3610  177.6350  137.8600 C   0  0  2  0  0  3  0  0  0  0  0  0
  180.3680  178.2670  141.3350 S   0  0  0  0  0  0  0  0  0  0  0  0
  183.5360  177.1080  139.4750 C   0  0  0  0  0  0  0  0  0  0  0  0
  180.9280  176.2310  137.8280 C   0  0  0  0  0  3  0  0  0  0  0  0
  184.8440  179.0790  137.8110 C   0  0  0  0  0  2  0  0  0  0  0  0
  179.1200  178.0720  138.8940 C   0  0  0  0  0  3  0  0  0  0  0  0
  180.2060  177.6410  139.6650 C   0  0  0  0  0  0  0  0  0  0  0  0
  181.1220  176.7160  139.1270 C   0  0  0  0  0  0  0  0  0  0  0  0
  184.2530  178.5840  145.2670 C   0  0  0  0  0  3  0  0  0  0  0  0
  183.4250  178.7480  142.5850 C   0  0  0  0  0  0  0  0  0  0  0  0
  182.5270  179.0290  143.6290 C   0  0  0  0  0  3  0  0  0  0  0  0
  182.9390  178.9470  144.9630 C   0  0  0  0  0  3  0  0  0  0  0  0
  185.1540  178.3000  144.2390 C   0  0  0  0  0  3  0  0  0  0  0  0
  184.7440  178.3820  142.9060 C   0  0  0  0  0  3  0  0  0  0  0  0
  1 12  1  0  0  0  0
  1 15  1  0  0  0  0
  2  6  1  6  0  0  0
  2 12  1  0  0  0  0
  4 14  1  0  0  0  0
  5 13  1  0  0  0  0
  7  9  2  0  0  0  0
  7 11  1  0  0  0  0
  8 10  2  0  0  0  0
  8 17  1  0  0  0  0
 10 19  1  0  0  0  0
 11 16  2  0  0  0  0
 12 23  1  0  0  0  0
 13  4  1  0  0  0  0
 13  7  1  0  0  0  0
 14 18  1  6  0  0  0
 14 11  1  0  0  0  0
 16  3  1  0  0  0  0
 16  2  1  0  0  0  0
 17 21  2  0  0  0  0
 18  6  1  0  0  0  0
 19 20  2  0  0  0  0
 20 15  1  0  0  0  0
 21 20  1  0  0  0  0
 21  3  1  0  0  0  0
 23 27  2  0  0  0  0
 23 24  1  0  0  0  0
 24 25  2  0  0  0  0
 25 22  1  0  0  0  0
 26 22  2  0  0  0  0
 27 26  1  0  0  0  0
M  END
>  <MODEL>
9

>  <REMARK>
 VINA RESULT:      -5.2      2.056      4.961
  Name = 
  1 active torsions:
  status: ('A' for Active; 'I' for Inactive)
    1  A    between atoms: C_9  and  N_15
                            x       y       z     vdW  Elec       q    Type
                         _______ _______ _______ _____ _____    ______ ____

>  <TORSDO>
F 1

$$$$
