=
 OpenBabel11052414373D

 32 37  0  0  1  0  0  0  0  0999 V2000
  185.9210  178.1410  139.5070 C   0  0  1  0  0  3  0  0  0  0  0  0
  187.1710  178.4190  141.7540 C   0  0  2  0  0  3  0  0  0  0  0  0
  186.0740  178.2100  137.9890 C   0  0  0  0  0  2  0  0  0  0  0  0
  187.2670  178.4290  140.2000 C   0  0  1  0  0  3  0  0  0  0  0  0
  187.9880  177.3930  142.4340 N   0  0  2  0  0  0  0  0  0  0  0  0
  184.3180  178.4840  145.7690 C   0  0  0  0  0  3  0  0  0  0  0  0
  185.7170  178.3000  142.2320 C   0  0  2  0  0  3  0  0  0  0  0  0
  186.6800  177.9650  145.8930 C   0  0  0  0  0  3  0  0  0  0  0  0
  186.7690  178.0140  144.4990 C   0  0  0  0  0  0  0  0  0  0  0  0
  188.3620  177.5670  139.6260 C   0  0  0  0  0  0  0  0  0  0  0  0
  188.1080  177.8210  143.8390 C   0  0  0  0  0  2  0  0  0  0  0  0
  189.3350  177.0880  140.3990 C   0  0  0  0  0  3  0  0  0  0  0  0
  188.4500  177.3920  138.1380 C   0  0  0  0  0  2  0  0  0  0  0  0
  184.8590  179.3490  141.5270 C   0  0  0  0  0  2  0  0  0  0  0  0
  184.8140  179.0930  140.0070 C   0  0  2  0  0  3  0  0  0  0  0  0
  185.6340  178.3440  143.7320 C   0  0  0  0  0  0  0  0  0  0  0  0
  189.3520  177.3650  141.8740 C   0  0  2  0  0  3  0  0  0  0  0  0
  187.0680  177.1430  137.5350 C   0  0  0  0  0  2  0  0  0  0  0  0
  185.4560  178.1970  146.5270 C   0  0  0  0  0  3  0  0  0  0  0  0
  184.4040  178.5470  144.3750 C   0  0  0  0  0  3  0  0  0  0  0  0
  181.2630  179.0040  138.6120 C   0  0  0  0  0  0  0  0  0  0  0  0
  180.2570  179.8930  137.9630 C   0  0  0  0  0  1  0  0  0  0  0  0
  183.4510  178.6090  139.5990 C   0  0  0  0  0  0  0  0  0  0  0  0
  180.9220  177.6700  138.8440 C   0  0  0  0  0  3  0  0  0  0  0  0
  183.0920  177.2710  139.8230 C   0  0  0  0  0  3  0  0  0  0  0  0
  182.5310  179.4840  138.9880 C   0  0  0  0  0  0  0  0  0  0  0  0
  182.9680  181.1700  138.6940 Cl  0  0  0  0  0  0  0  0  0  0  0  0
  181.8330  176.7990  139.4490 C   0  0  0  0  0  0  0  0  0  0  0  0
  180.3320  175.0620  140.0620 O   0  0  0  0  0  0  0  0  0  0  0  0
  181.4920  175.3970  139.6990 C   0  0  0  0  0  3  0  0  0  0  0  0
  190.2430  176.3300  142.5730 C   0  0  0  0  0  2  0  0  0  0  0  0
  191.6000  176.9020  142.9570 C   0  0  0  0  0  1  0  0  0  0  0  0
  1  3  1  6  0  0  0
  1 15  1  0  0  0  0
  1  4  1  0  0  0  0
  2  7  1  0  0  0  0
  2  5  1  0  0  0  0
  4  2  1  0  0  0  0
  5 11  1  0  0  0  0
  6 19  1  0  0  0  0
  7 16  1  0  0  0  0
  8 19  2  0  0  0  0
  9  8  1  0  0  0  0
 10  4  1  0  0  0  0
 10 12  2  0  0  0  0
 11  9  1  0  0  0  0
 12 17  1  0  0  0  0
 13 10  1  0  0  0  0
 14  7  1  0  0  0  0
 15 14  1  0  0  0  0
 16 20  1  0  0  0  0
 16  9  2  0  0  0  0
 17  5  1  0  0  0  0
 17 31  1  0  0  0  0
 18  3  1  0  0  0  0
 18 13  1  0  0  0  0
 20  6  2  0  0  0  0
 21 24  2  0  0  0  0
 21 26  1  0  0  0  0
 22 21  1  0  0  0  0
 23 25  1  0  0  0  0
 23 15  1  0  0  0  0
 24 28  1  0  0  0  0
 26 23  2  0  0  0  0
 27 26  1  0  0  0  0
 28 30  1  0  0  0  0
 28 25  2  0  0  0  0
 30 29  2  0  0  0  0
 31 32  1  0  0  0  0
M  END
>  <MODEL>
1

>  <REMARK>
 VINA RESULT:      -8.9      0.000      0.000
  Name = 
  3 active torsions:
  status: ('A' for Active; 'I' for Inactive)
    1  A    between atoms: C_13  and  C_29
    2  A    between atoms: C_15  and  C_26
    3  A    between atoms: C_16  and  C_27
                            x       y       z     vdW  Elec       q    Type
                         _______ _______ _______ _____ _____    ______ ____

>  <TORSDO>
F 3

$$$$
=
 OpenBabel11052414373D

 32 37  0  0  1  0  0  0  0  0999 V2000
  190.0600  177.1150  141.7950 C   0  0  1  0  0  3  0  0  0  0  0  0
  187.8770  178.3750  142.3710 C   0  0  2  0  0  3  0  0  0  0  0  0
  191.4630  176.7770  142.2960 C   0  0  0  0  0  2  0  0  0  0  0  0
  189.3020  177.9580  142.8380 C   0  0  1  0  0  3  0  0  0  0  0  0
  186.7630  177.8660  143.1960 N   0  0  2  0  0  0  0  0  0  0  0  0
  184.6460  178.8060  138.6770 C   0  0  0  0  0  3  0  0  0  0  0  0
  187.6280  177.9980  140.9030 C   0  0  2  0  0  3  0  0  0  0  0  0
  183.9720  179.0310  140.9920 C   0  0  0  0  0  3  0  0  0  0  0  0
  185.2630  178.6940  141.4060 C   0  0  0  0  0  0  0  0  0  0  0  0
  189.3590  177.3100  144.1980 C   0  0  0  0  0  0  0  0  0  0  0  0
  185.5920  178.7010  142.8750 C   0  0  0  0  0  2  0  0  0  0  0  0
  188.3230  177.3710  145.0310 C   0  0  0  0  0  3  0  0  0  0  0  0
  190.6610  176.7400  144.6810 C   0  0  0  0  0  2  0  0  0  0  0  0
  188.7800  178.5100  140.0410 C   0  0  0  0  0  2  0  0  0  0  0  0
  190.1040  177.8200  140.4240 C   0  0  2  0  0  3  0  0  0  0  0  0
  186.2690  178.4530  140.4490 C   0  0  0  0  0  0  0  0  0  0  0  0
  187.0510  178.0590  144.6280 C   0  0  2  0  0  3  0  0  0  0  0  0
  191.3550  175.9480  143.5740 C   0  0  0  0  0  2  0  0  0  0  0  0
  183.6630  179.0840  139.6300 C   0  0  0  0  0  3  0  0  0  0  0  0
  185.9430  178.4810  139.0850 C   0  0  0  0  0  3  0  0  0  0  0  0
  192.2750  175.8160  138.0060 C   0  0  0  0  0  0  0  0  0  0  0  0
  193.7060  175.6090  137.6440 C   0  0  0  0  0  1  0  0  0  0  0  0
  190.5340  176.8750  139.3360 C   0  0  0  0  0  0  0  0  0  0  0  0
  191.3000  175.1000  137.3090 C   0  0  0  0  0  3  0  0  0  0  0  0
  189.5680  176.1460  138.6260 C   0  0  0  0  0  3  0  0  0  0  0  0
  191.8980  176.7100  139.0260 C   0  0  0  0  0  0  0  0  0  0  0  0
  193.1280  177.6170  139.9130 Cl  0  0  0  0  0  0  0  0  0  0  0  0
  189.9450  175.2610  137.6150 C   0  0  0  0  0  0  0  0  0  0  0  0
  187.6870  174.7160  137.1180 O   0  0  0  0  0  0  0  0  0  0  0  0
  188.9110  174.5170  136.8940 C   0  0  0  0  0  3  0  0  0  0  0  0
  185.9040  177.5680  145.5220 C   0  0  0  0  0  2  0  0  0  0  0  0
  185.4930  178.6060  146.5550 C   0  0  0  0  0  1  0  0  0  0  0  0
  1  3  1  1  0  0  0
  1  4  1  0  0  0  0
  2  4  1  0  0  0  0
  2  5  1  0  0  0  0
  3 18  1  0  0  0  0
  4 10  1  0  0  0  0
  5 17  1  0  0  0  0
  6 20  2  0  0  0  0
  6 19  1  0  0  0  0
  7  2  1  0  0  0  0
  8  9  1  0  0  0  0
  9 11  1  0  0  0  0
 10 13  1  0  0  0  0
 10 12  2  0  0  0  0
 11  5  1  0  0  0  0
 14 15  1  0  0  0  0
 14  7  1  0  0  0  0
 15  1  1  0  0  0  0
 16  7  1  0  0  0  0
 16  9  2  0  0  0  0
 17 12  1  0  0  0  0
 17 31  1  0  0  0  0
 18 13  1  0  0  0  0
 19  8  2  0  0  0  0
 20 16  1  0  0  0  0
 21 26  1  0  0  0  0
 22 21  1  0  0  0  0
 23 15  1  0  0  0  0
 24 28  1  0  0  0  0
 24 21  2  0  0  0  0
 25 23  1  0  0  0  0
 26 23  2  0  0  0  0
 26 27  1  0  0  0  0
 28 25  2  0  0  0  0
 30 29  2  0  0  0  0
 30 28  1  0  0  0  0
 31 32  1  0  0  0  0
M  END
>  <MODEL>
2

>  <REMARK>
 VINA RESULT:      -8.4      3.037      6.934
  Name = 
  3 active torsions:
  status: ('A' for Active; 'I' for Inactive)
    1  A    between atoms: C_13  and  C_29
    2  A    between atoms: C_15  and  C_26
    3  A    between atoms: C_16  and  C_27
                            x       y       z     vdW  Elec       q    Type
                         _______ _______ _______ _____ _____    ______ ____

>  <TORSDO>
F 3

$$$$
=
 OpenBabel11052414373D

 32 37  0  0  1  0  0  0  0  0999 V2000
  189.2880  177.5470  141.8440 C   0  0  1  0  0  3  0  0  0  0  0  0
  187.7690  178.4100  143.7510 C   0  0  2  0  0  3  0  0  0  0  0  0
  190.7380  177.3790  141.3970 C   0  0  0  0  0  2  0  0  0  0  0  0
  189.2230  178.1700  143.2520 C   0  0  1  0  0  3  0  0  0  0  0  0
  187.3840  177.6670  144.9690 N   0  0  2  0  0  0  0  0  0  0  0  0
  182.9690  178.6810  142.6740 C   0  0  0  0  0  3  0  0  0  0  0  0
  186.7370  178.1320  142.6470 C   0  0  2  0  0  3  0  0  0  0  0  0
  183.7580  178.5950  144.9620 C   0  0  0  0  0  3  0  0  0  0  0  0
  185.0690  178.4180  144.5090 C   0  0  0  0  0  0  0  0  0  0  0  0
  190.1080  177.4190  144.2130 C   0  0  0  0  0  0  0  0  0  0  0  0
  186.1910  178.3420  145.5090 C   0  0  0  0  0  2  0  0  0  0  0  0
  189.7510  177.2490  145.4850 C   0  0  0  0  0  3  0  0  0  0  0  0
  191.4840  177.0090  143.7730 C   0  0  0  0  0  2  0  0  0  0  0  0
  187.1300  178.8870  141.3790 C   0  0  0  0  0  2  0  0  0  0  0  0
  188.4730  178.3710  140.8250 C   0  0  2  0  0  3  0  0  0  0  0  0
  185.3410  178.4180  143.1260 C   0  0  0  0  0  0  0  0  0  0  0  0
  188.4390  177.7720  145.9920 C   0  0  2  0  0  3  0  0  0  0  0  0
  191.4540  176.4320  142.3580 C   0  0  0  0  0  2  0  0  0  0  0  0
  182.7100  178.7230  144.0470 C   0  0  0  0  0  3  0  0  0  0  0  0
  184.2790  178.5190  142.2140 C   0  0  0  0  0  3  0  0  0  0  0  0
  186.8930  177.0470  137.6120 C   0  0  0  0  0  0  0  0  0  0  0  0
  185.6610  177.1980  136.7880 C   0  0  0  0  0  1  0  0  0  0  0  0
  188.2530  177.6030  139.5520 C   0  0  0  0  0  0  0  0  0  0  0  0
  187.8810  176.1600  137.1800 C   0  0  0  0  0  3  0  0  0  0  0  0
  189.2360  176.7080  139.1010 C   0  0  0  0  0  3  0  0  0  0  0  0
  187.0730  177.7750  138.8030 C   0  0  0  0  0  0  0  0  0  0  0  0
  185.8280  178.9010  139.3540 Cl  0  0  0  0  0  0  0  0  0  0  0  0
  189.0540  175.9870  137.9210 C   0  0  0  0  0  0  0  0  0  0  0  0
  191.0890  174.7970  138.2140 O   0  0  0  0  0  0  0  0  0  0  0  0
  190.1000  175.0610  137.4800 C   0  0  0  0  0  3  0  0  0  0  0  0
  188.0660  177.0360  147.2860 C   0  0  0  0  0  2  0  0  0  0  0  0
  188.3970  177.8500  148.5280 C   0  0  0  0  0  1  0  0  0  0  0  0
  1  3  1  6  0  0  0
  1  4  1  0  0  0  0
  2  5  1  0  0  0  0
  3 18  1  0  0  0  0
  4  2  1  0  0  0  0
  4 10  1  0  0  0  0
  5 11  1  0  0  0  0
  5 17  1  0  0  0  0
  6 19  1  0  0  0  0
  7 16  1  0  0  0  0
  7  2  1  0  0  0  0
  9  8  1  0  0  0  0
  9 11  1  0  0  0  0
 10 12  2  0  0  0  0
 12 17  1  0  0  0  0
 13 10  1  0  0  0  0
 14  7  1  0  0  0  0
 15 14  1  0  0  0  0
 15  1  1  0  0  0  0
 16  9  2  0  0  0  0
 17 31  1  0  0  0  0
 18 13  1  0  0  0  0
 19  8  2  0  0  0  0
 20  6  2  0  0  0  0
 20 16  1  0  0  0  0
 21 26  1  0  0  0  0
 22 21  1  0  0  0  0
 23 15  1  0  0  0  0
 24 21  2  0  0  0  0
 24 28  1  0  0  0  0
 25 23  1  0  0  0  0
 26 27  1  0  0  0  0
 26 23  2  0  0  0  0
 28 25  2  0  0  0  0
 30 28  1  0  0  0  0
 30 29  2  0  0  0  0
 31 32  1  0  0  0  0
M  END
>  <MODEL>
3

>  <REMARK>
 VINA RESULT:      -8.4      3.081      5.154
  Name = 
  3 active torsions:
  status: ('A' for Active; 'I' for Inactive)
    1  A    between atoms: C_13  and  C_29
    2  A    between atoms: C_15  and  C_26
    3  A    between atoms: C_16  and  C_27
                            x       y       z     vdW  Elec       q    Type
                         _______ _______ _______ _____ _____    ______ ____

>  <TORSDO>
F 3

$$$$
=
 OpenBabel11052414373D

 32 37  0  0  1  0  0  0  0  0999 V2000
  186.4440  178.0040  139.2880 C   0  0  1  0  0  3  0  0  0  0  0  0
  187.0310  178.5910  141.7380 C   0  0  2  0  0  3  0  0  0  0  0  0
  186.9910  177.9540  137.8630 C   0  0  0  0  0  2  0  0  0  0  0  0
  187.5350  178.4750  140.2700 C   0  0  1  0  0  3  0  0  0  0  0  0
  187.7040  177.7090  142.7130 N   0  0  2  0  0  0  0  0  0  0  0  0
  183.2140  178.7400  144.8500 C   0  0  0  0  0  3  0  0  0  0  0  0
  185.5130  178.3800  141.8350 C   0  0  2  0  0  3  0  0  0  0  0  0
  185.4880  178.4560  145.6340 C   0  0  0  0  0  3  0  0  0  0  0  0
  185.9410  178.3910  144.3140 C   0  0  0  0  0  0  0  0  0  0  0  0
  188.7990  177.6720  140.0950 C   0  0  0  0  0  0  0  0  0  0  0  0
  187.4170  178.2670  144.0460 C   0  0  0  0  0  2  0  0  0  0  0  0
  189.5600  177.3550  141.1400 C   0  0  0  0  0  3  0  0  0  0  0  0
  189.2910  177.3770  138.7070 C   0  0  0  0  0  2  0  0  0  0  0  0
  184.8050  179.2790  140.8220 C   0  0  0  0  0  2  0  0  0  0  0  0
  185.1830  178.8880  139.3800 C   0  0  2  0  0  3  0  0  0  0  0  0
  185.0310  178.5460  143.2490 C   0  0  0  0  0  0  0  0  0  0  0  0
  189.1660  177.7590  142.5300 C   0  0  2  0  0  3  0  0  0  0  0  0
  188.1380  176.9490  137.8000 C   0  0  0  0  0  2  0  0  0  0  0  0
  184.1270  178.6270  145.9020 C   0  0  0  0  0  3  0  0  0  0  0  0
  183.6630  178.6890  143.5260 C   0  0  0  0  0  3  0  0  0  0  0  0
  181.7980  178.3800  137.6920 C   0  0  0  0  0  0  0  0  0  0  0  0
  180.5770  179.1420  137.3070 C   0  0  0  0  0  1  0  0  0  0  0  0
  184.0130  178.2460  138.6890 C   0  0  0  0  0  0  0  0  0  0  0  0
  181.8550  177.0170  137.3940 C   0  0  0  0  0  3  0  0  0  0  0  0
  184.0540  176.8780  138.3800 C   0  0  0  0  0  3  0  0  0  0  0  0
  182.8780  179.0050  138.3430 C   0  0  0  0  0  0  0  0  0  0  0  0
  182.8130  180.7290  138.7190 Cl  0  0  0  0  0  0  0  0  0  0  0  0
  182.9810  176.2610  137.7360 C   0  0  0  0  0  0  0  0  0  0  0  0
  184.0260  174.1290  137.8230 O   0  0  0  0  0  0  0  0  0  0  0  0
  183.0560  174.8310  137.4300 C   0  0  0  0  0  3  0  0  0  0  0  0
  189.9070  176.8760  143.5440 C   0  0  0  0  0  2  0  0  0  0  0  0
  190.2340  175.5010  142.9810 C   0  0  0  0  0  1  0  0  0  0  0  0
  1  3  1  6  0  0  0
  1 15  1  0  0  0  0
  1  4  1  0  0  0  0
  2  7  1  0  0  0  0
  2  5  1  0  0  0  0
  4  2  1  0  0  0  0
  5 11  1  0  0  0  0
  6 19  1  0  0  0  0
  7 16  1  0  0  0  0
  8 19  2  0  0  0  0
  9  8  1  0  0  0  0
 10  4  1  0  0  0  0
 10 12  2  0  0  0  0
 11  9  1  0  0  0  0
 12 17  1  0  0  0  0
 13 10  1  0  0  0  0
 14  7  1  0  0  0  0
 15 14  1  0  0  0  0
 16 20  1  0  0  0  0
 16  9  2  0  0  0  0
 17  5  1  0  0  0  0
 17 31  1  0  0  0  0
 18  3  1  0  0  0  0
 18 13  1  0  0  0  0
 20  6  2  0  0  0  0
 21 26  1  0  0  0  0
 22 21  1  0  0  0  0
 23 15  1  0  0  0  0
 24 21  2  0  0  0  0
 24 28  1  0  0  0  0
 25 23  1  0  0  0  0
 26 23  2  0  0  0  0
 26 27  1  0  0  0  0
 28 25  2  0  0  0  0
 30 28  1  0  0  0  0
 30 29  2  0  0  0  0
 32 31  1  0  0  0  0
M  END
>  <MODEL>
4

>  <REMARK>
 VINA RESULT:      -8.3      1.336      1.428
  Name = 
  3 active torsions:
  status: ('A' for Active; 'I' for Inactive)
    1  A    between atoms: C_13  and  C_29
    2  A    between atoms: C_15  and  C_26
    3  A    between atoms: C_16  and  C_27
                            x       y       z     vdW  Elec       q    Type
                         _______ _______ _______ _____ _____    ______ ____

>  <TORSDO>
F 3

$$$$
=
 OpenBabel11052414373D

 32 37  0  0  1  0  0  0  0  0999 V2000
  185.0960  178.4620  140.2180 C   0  0  1  0  0  3  0  0  0  0  0  0
  187.2030  178.5700  141.7120 C   0  0  2  0  0  3  0  0  0  0  0  0
  184.5530  178.7540  138.8200 C   0  0  0  0  0  2  0  0  0  0  0  0
  186.5960  178.8040  140.2990 C   0  0  1  0  0  3  0  0  0  0  0  0
  188.2800  177.5610  141.7830 N   0  0  2  0  0  0  0  0  0  0  0  0
  186.4380  177.7590  146.5110 C   0  0  0  0  0  3  0  0  0  0  0  0
  186.1210  178.2220  142.7450 C   0  0  2  0  0  3  0  0  0  0  0  0
  188.6270  177.5010  145.5090 C   0  0  0  0  0  3  0  0  0  0  0  0
  188.0840  177.7500  144.2450 C   0  0  0  0  0  0  0  0  0  0  0  0
  187.3560  178.1600  139.1670 C   0  0  0  0  0  0  0  0  0  0  0  0
  188.9950  177.8030  143.0480 C   0  0  0  0  0  2  0  0  0  0  0  0
  188.5900  177.6930  139.3470 C   0  0  0  0  0  3  0  0  0  0  0  0
  186.7780  178.2010  137.7820 C   0  0  0  0  0  2  0  0  0  0  0  0
  184.9950  179.2520  142.6730 C   0  0  0  0  0  2  0  0  0  0  0  0
  184.2890  179.2030  141.3040 C   0  0  2  0  0  3  0  0  0  0  0  0
  186.7130  178.0500  144.1150 C   0  0  0  0  0  0  0  0  0  0  0  0
  189.2510  177.7650  140.6930 C   0  0  2  0  0  3  0  0  0  0  0  0
  185.2840  177.8800  137.8040 C   0  0  0  0  0  2  0  0  0  0  0  0
  187.8050  177.5030  146.6390 C   0  0  0  0  0  3  0  0  0  0  0  0
  185.8900  178.0220  145.2520 C   0  0  0  0  0  3  0  0  0  0  0  0
  180.8750  178.2780  142.7390 C   0  0  0  0  0  0  0  0  0  0  0  0
  180.0550  178.4600  143.9700 C   0  0  0  0  0  1  0  0  0  0  0  0
  182.9080  178.6270  141.4490 C   0  0  0  0  0  0  0  0  0  0  0  0
  180.3350  177.5460  141.6800 C   0  0  0  0  0  3  0  0  0  0  0  0
  182.3480  177.8910  140.3940 C   0  0  0  0  0  3  0  0  0  0  0  0
  182.1680  178.8240  142.6310 C   0  0  0  0  0  0  0  0  0  0  0  0
  182.8560  179.7530  143.9660 Cl  0  0  0  0  0  0  0  0  0  0  0  0
  181.0670  177.3490  140.5050 C   0  0  0  0  0  0  0  0  0  0  0  0
  180.7250  175.3480  139.2710 O   0  0  0  0  0  0  0  0  0  0  0  0
  180.5140  176.5850  139.3850 C   0  0  0  0  0  3  0  0  0  0  0  0
  190.4030  176.7530  140.7470 C   0  0  0  0  0  2  0  0  0  0  0  0
  191.2290  176.7520  139.4690 C   0  0  0  0  0  1  0  0  0  0  0  0
  1  3  1  6  0  0  0
  1  4  1  0  0  0  0
  1 15  1  0  0  0  0
  2  5  1  0  0  0  0
  2  7  1  0  0  0  0
  4  2  1  0  0  0  0
  5 11  1  0  0  0  0
  6 19  1  0  0  0  0
  7 16  1  0  0  0  0
  8 19  2  0  0  0  0
  9  8  1  0  0  0  0
 10 12  2  0  0  0  0
 10  4  1  0  0  0  0
 11  9  1  0  0  0  0
 12 17  1  0  0  0  0
 13 18  1  0  0  0  0
 13 10  1  0  0  0  0
 14  7  1  0  0  0  0
 15 23  1  0  0  0  0
 15 14  1  0  0  0  0
 16  9  2  0  0  0  0
 16 20  1  0  0  0  0
 17 31  1  0  0  0  0
 17  5  1  0  0  0  0
 18  3  1  0  0  0  0
 20  6  2  0  0  0  0
 21 22  1  0  0  0  0
 23 26  2  0  0  0  0
 24 21  2  0  0  0  0
 25 28  2  0  0  0  0
 25 23  1  0  0  0  0
 26 21  1  0  0  0  0
 26 27  1  0  0  0  0
 28 24  1  0  0  0  0
 29 30  2  0  0  0  0
 30 28  1  0  0  0  0
 32 31  1  0  0  0  0
M  END
>  <MODEL>
5

>  <REMARK>
 VINA RESULT:      -8.1      1.864      2.370
  Name = 
  3 active torsions:
  status: ('A' for Active; 'I' for Inactive)
    1  A    between atoms: C_13  and  C_29
    2  A    between atoms: C_15  and  C_26
    3  A    between atoms: C_16  and  C_27
                            x       y       z     vdW  Elec       q    Type
                         _______ _______ _______ _____ _____    ______ ____

>  <TORSDO>
F 3

$$$$
=
 OpenBabel11052414373D

 32 37  0  0  1  0  0  0  0  0999 V2000
  187.8830  177.8050  140.3450 C   0  0  1  0  0  3  0  0  0  0  0  0
  186.6500  178.6020  142.4740 C   0  0  2  0  0  3  0  0  0  0  0  0
  189.2540  177.6730  139.6850 C   0  0  0  0  0  2  0  0  0  0  0  0
  188.0180  178.3990  141.7600 C   0  0  1  0  0  3  0  0  0  0  0  0
  186.4620  177.8290  143.7190 N   0  0  2  0  0  0  0  0  0  0  0  0
  181.7400  178.8040  142.1260 C   0  0  0  0  0  3  0  0  0  0  0  0
  185.4710  178.3270  141.5300 C   0  0  2  0  0  3  0  0  0  0  0  0
  182.8620  178.6890  144.2690 C   0  0  0  0  0  3  0  0  0  0  0  0
  184.0930  178.5460  143.6230 C   0  0  0  0  0  0  0  0  0  0  0  0
  189.0480  177.6460  142.5630 C   0  0  0  0  0  0  0  0  0  0  0  0
  185.3520  178.4710  144.4440 C   0  0  0  0  0  2  0  0  0  0  0  0
  188.8860  177.4450  143.8690 C   0  0  0  0  0  3  0  0  0  0  0  0
  190.3490  177.2710  141.9150 C   0  0  0  0  0  2  0  0  0  0  0  0
  185.6590  179.1120  140.2330 C   0  0  0  0  0  2  0  0  0  0  0  0
  186.9130  178.6330  139.4760 C   0  0  2  0  0  3  0  0  0  0  0  0
  184.1570  178.5770  142.2160 C   0  0  0  0  0  0  0  0  0  0  0  0
  187.6560  177.9340  144.5770 C   0  0  2  0  0  3  0  0  0  0  0  0
  190.1180  176.7210  140.5080 C   0  0  0  0  0  2  0  0  0  0  0  0
  181.6870  178.8150  143.5230 C   0  0  0  0  0  3  0  0  0  0  0  0
  182.9700  178.6750  141.4740 C   0  0  0  0  0  3  0  0  0  0  0  0
  186.8490  177.3410  135.8850 C   0  0  0  0  0  0  0  0  0  0  0  0
  187.5790  177.4900  134.5940 C   0  0  0  0  0  1  0  0  0  0  0  0
  186.5190  177.8850  138.2330 C   0  0  0  0  0  0  0  0  0  0  0  0
  185.7600  176.4700  135.9380 C   0  0  0  0  0  3  0  0  0  0  0  0
  185.4270  177.0040  138.2690 C   0  0  0  0  0  3  0  0  0  0  0  0
  187.2370  178.0560  137.0340 C   0  0  0  0  0  0  0  0  0  0  0  0
  188.6160  179.1580  136.9720 Cl  0  0  0  0  0  0  0  0  0  0  0  0
  185.0450  176.2970  137.1280 C   0  0  0  0  0  0  0  0  0  0  0  0
  183.3840  175.0740  138.3060 O   0  0  0  0  0  0  0  0  0  0  0  0
  183.9010  175.3870  137.2000 C   0  0  0  0  0  3  0  0  0  0  0  0
  187.4910  177.1670  145.8960 C   0  0  0  0  0  2  0  0  0  0  0  0
  188.7190  177.2800  146.7860 C   0  0  0  0  0  1  0  0  0  0  0  0
  1  3  1  6  0  0  0
  1  4  1  0  0  0  0
  2  5  1  0  0  0  0
  3 18  1  0  0  0  0
  4  2  1  0  0  0  0
  4 10  1  0  0  0  0
  5 11  1  0  0  0  0
  5 17  1  0  0  0  0
  6 19  1  0  0  0  0
  7 16  1  0  0  0  0
  7  2  1  0  0  0  0
  9  8  1  0  0  0  0
  9 11  1  0  0  0  0
 10 12  2  0  0  0  0
 12 17  1  0  0  0  0
 13 10  1  0  0  0  0
 14  7  1  0  0  0  0
 15 14  1  0  0  0  0
 15  1  1  0  0  0  0
 16  9  2  0  0  0  0
 17 31  1  0  0  0  0
 18 13  1  0  0  0  0
 19  8  2  0  0  0  0
 20  6  2  0  0  0  0
 20 16  1  0  0  0  0
 21 24  2  0  0  0  0
 21 26  1  0  0  0  0
 22 21  1  0  0  0  0
 23 25  1  0  0  0  0
 23 15  1  0  0  0  0
 24 28  1  0  0  0  0
 26 23  2  0  0  0  0
 27 26  1  0  0  0  0
 28 30  1  0  0  0  0
 28 25  2  0  0  0  0
 30 29  2  0  0  0  0
 31 32  1  0  0  0  0
M  END
>  <MODEL>
6

>  <REMARK>
 VINA RESULT:      -8.0      2.261      3.992
  Name = 
  3 active torsions:
  status: ('A' for Active; 'I' for Inactive)
    1  A    between atoms: C_13  and  C_29
    2  A    between atoms: C_15  and  C_26
    3  A    between atoms: C_16  and  C_27
                            x       y       z     vdW  Elec       q    Type
                         _______ _______ _______ _____ _____    ______ ____

>  <TORSDO>
F 3

$$$$
=
 OpenBabel11052414373D

 32 37  0  0  1  0  0  0  0  0999 V2000
  190.1610  177.2640  142.4290 C   0  0  1  0  0  3  0  0  0  0  0  0
  188.1930  178.2640  143.7770 C   0  0  2  0  0  3  0  0  0  0  0  0
  191.6700  177.0310  142.4310 C   0  0  0  0  0  2  0  0  0  0  0  0
  189.7180  177.9570  143.7320 C   0  0  1  0  0  3  0  0  0  0  0  0
  187.4410  177.5940  144.8570 N   0  0  2  0  0  0  0  0  0  0  0  0
  183.9270  178.6270  141.3400 C   0  0  0  0  0  3  0  0  0  0  0  0
  187.5150  177.9640  142.4320 C   0  0  2  0  0  3  0  0  0  0  0  0
  184.0160  178.6290  143.7590 C   0  0  0  0  0  3  0  0  0  0  0  0
  185.3930  178.3910  143.7140 C   0  0  0  0  0  0  0  0  0  0  0  0
  190.2540  177.2270  144.9380 C   0  0  0  0  0  0  0  0  0  0  0  0
  186.1730  178.3310  145.0000 C   0  0  0  0  0  2  0  0  0  0  0  0
  189.5370  177.1300  146.0560 C   0  0  0  0  0  3  0  0  0  0  0  0
  191.6790  176.7550  144.9330 C   0  0  0  0  0  2  0  0  0  0  0  0
  188.2910  178.6430  141.3050 C   0  0  0  0  0  2  0  0  0  0  0  0
  189.7130  178.0610  141.1870 C   0  0  2  0  0  3  0  0  0  0  0  0
  186.0530  178.3150  142.4720 C   0  0  0  0  0  0  0  0  0  0  0  0
  188.1580  177.7170  146.1390 C   0  0  2  0  0  3  0  0  0  0  0  0
  192.0360  176.1110  143.5930 C   0  0  0  0  0  2  0  0  0  0  0  0
  183.2840  178.7430  142.5750 C   0  0  0  0  0  3  0  0  0  0  0  0
  185.3070  178.4030  141.2880 C   0  0  0  0  0  3  0  0  0  0  0  0
  191.1950  176.1520  138.2310 C   0  0  0  0  0  0  0  0  0  0  0  0
  192.5130  175.7990  137.6330 C   0  0  0  0  0  1  0  0  0  0  0  0
  189.8380  177.2380  139.9350 C   0  0  0  0  0  0  0  0  0  0  0  0
  190.0330  175.6970  137.6040 C   0  0  0  0  0  3  0  0  0  0  0  0
  188.6820  176.7700  139.2920 C   0  0  0  0  0  3  0  0  0  0  0  0
  191.1050  176.9280  139.4030 C   0  0  0  0  0  0  0  0  0  0  0  0
  192.5710  177.5050  140.2020 Cl  0  0  0  0  0  0  0  0  0  0  0  0
  188.7750  176.0030  138.1300 C   0  0  0  0  0  0  0  0  0  0  0  0
  186.5960  176.3200  137.2370 O   0  0  0  0  0  0  0  0  0  0  0  0
  187.5480  175.5320  137.4840 C   0  0  0  0  0  3  0  0  0  0  0  0
  187.3960  177.0570  147.2950 C   0  0  0  0  0  2  0  0  0  0  0  0
  187.9120  177.5030  148.6550 C   0  0  0  0  0  1  0  0  0  0  0  0
  1  3  1  1  0  0  0
  1  4  1  0  0  0  0
  2  5  1  0  0  0  0
  3 18  1  0  0  0  0
  4  2  1  0  0  0  0
  4 10  1  0  0  0  0
  5 11  1  0  0  0  0
  5 17  1  0  0  0  0
  6 19  1  0  0  0  0
  7 16  1  0  0  0  0
  7  2  1  0  0  0  0
  9  8  1  0  0  0  0
  9 11  1  0  0  0  0
 10 12  2  0  0  0  0
 12 17  1  0  0  0  0
 13 10  1  0  0  0  0
 14  7  1  0  0  0  0
 15 14  1  0  0  0  0
 15  1  1  0  0  0  0
 16  9  2  0  0  0  0
 17 31  1  0  0  0  0
 18 13  1  0  0  0  0
 19  8  2  0  0  0  0
 20  6  2  0  0  0  0
 20 16  1  0  0  0  0
 21 26  1  0  0  0  0
 22 21  1  0  0  0  0
 23 15  1  0  0  0  0
 24 28  1  0  0  0  0
 24 21  2  0  0  0  0
 25 23  1  0  0  0  0
 26 23  2  0  0  0  0
 26 27  1  0  0  0  0
 28 25  2  0  0  0  0
 29 30  2  0  0  0  0
 30 28  1  0  0  0  0
 31 32  1  0  0  0  0
M  END
>  <MODEL>
7

>  <REMARK>
 VINA RESULT:      -7.9      3.085      6.303
  Name = 
  3 active torsions:
  status: ('A' for Active; 'I' for Inactive)
    1  A    between atoms: C_13  and  C_29
    2  A    between atoms: C_15  and  C_26
    3  A    between atoms: C_16  and  C_27
                            x       y       z     vdW  Elec       q    Type
                         _______ _______ _______ _____ _____    ______ ____

>  <TORSDO>
F 3

$$$$
=
 OpenBabel11052414373D

 32 37  0  0  1  0  0  0  0  0999 V2000
  181.7210  179.1380  140.8270 C   0  0  1  0  0  3  0  0  0  0  0  0
  183.9730  178.2340  141.7190 C   0  0  2  0  0  3  0  0  0  0  0  0
  180.2230  179.2320  141.1150 C   0  0  0  0  0  2  0  0  0  0  0  0
  182.4470  178.4040  141.9710 C   0  0  1  0  0  3  0  0  0  0  0  0
  184.8570  178.8980  142.7000 N   0  0  2  0  0  0  0  0  0  0  0  0
  187.7350  178.4220  138.5430 C   0  0  0  0  0  3  0  0  0  0  0  0
  184.3690  178.6820  140.3040 C   0  0  2  0  0  3  0  0  0  0  0  0
  188.0920  178.2530  140.9320 C   0  0  0  0  0  3  0  0  0  0  0  0
  186.7160  178.3670  141.1520 C   0  0  0  0  0  0  0  0  0  0  0  0
  182.0870  179.0010  143.3070 C   0  0  0  0  0  0  0  0  0  0  0  0
  186.1830  178.2720  142.5560 C   0  0  0  0  0  2  0  0  0  0  0  0
  182.9860  179.0890  144.2840 C   0  0  0  0  0  3  0  0  0  0  0  0
  180.6520  179.3410  143.5930 C   0  0  0  0  0  2  0  0  0  0  0  0
  183.4540  178.0110  139.2810 C   0  0  0  0  0  2  0  0  0  0  0  0
  181.9930  178.4680  139.4650 C   0  0  2  0  0  3  0  0  0  0  0  0
  185.8350  178.4640  140.0560 C   0  0  0  0  0  0  0  0  0  0  0  0
  184.3990  178.6260  144.0740 C   0  0  2  0  0  3  0  0  0  0  0  0
  180.0070  180.0370  142.3950 C   0  0  0  0  0  2  0  0  0  0  0  0
  188.6010  178.2830  139.6310 C   0  0  0  0  0  3  0  0  0  0  0  0
  186.3560  178.5220  138.7550 C   0  0  0  0  0  3  0  0  0  0  0  0
  180.8050  179.6590  136.0380 C   0  0  0  0  0  0  0  0  0  0  0  0
  180.3920  179.1200  134.7110 C   0  0  0  0  0  1  0  0  0  0  0  0
  181.5770  179.3560  138.3250 C   0  0  0  0  0  0  0  0  0  0  0  0
  180.8000  181.0420  136.2280 C   0  0  0  0  0  3  0  0  0  0  0  0
  181.5650  180.7490  138.4980 C   0  0  0  0  0  3  0  0  0  0  0  0
  181.1940  178.8050  137.0870 C   0  0  0  0  0  0  0  0  0  0  0  0
  181.2000  177.0540  136.8540 Cl  0  0  0  0  0  0  0  0  0  0  0  0
  181.1790  181.5920  137.4560 C   0  0  0  0  0  0  0  0  0  0  0  0
  181.1950  183.8450  136.7000 O   0  0  0  0  0  0  0  0  0  0  0  0
  181.1780  183.0410  137.6710 C   0  0  0  0  0  3  0  0  0  0  0  0
  185.3070  179.2750  145.1270 C   0  0  0  0  0  2  0  0  0  0  0  0
  185.3030  178.5110  146.4420 C   0  0  0  0  0  1  0  0  0  0  0  0
  1  3  1  1  0  0  0
  1  4  1  0  0  0  0
  2  4  1  0  0  0  0
  2  5  1  0  0  0  0
  3 18  1  0  0  0  0
  4 10  1  0  0  0  0
  5 17  1  0  0  0  0
  6 20  2  0  0  0  0
  6 19  1  0  0  0  0
  7  2  1  0  0  0  0
  8  9  1  0  0  0  0
  9 11  1  0  0  0  0
 10 13  1  0  0  0  0
 10 12  2  0  0  0  0
 11  5  1  0  0  0  0
 14 15  1  0  0  0  0
 14  7  1  0  0  0  0
 15  1  1  0  0  0  0
 16  7  1  0  0  0  0
 16  9  2  0  0  0  0
 17 12  1  0  0  0  0
 17 31  1  0  0  0  0
 18 13  1  0  0  0  0
 19  8  2  0  0  0  0
 20 16  1  0  0  0  0
 21 24  2  0  0  0  0
 21 26  1  0  0  0  0
 22 21  1  0  0  0  0
 23 25  1  0  0  0  0
 23 15  1  0  0  0  0
 24 28  1  0  0  0  0
 26 23  2  0  0  0  0
 27 26  1  0  0  0  0
 28 30  1  0  0  0  0
 28 25  2  0  0  0  0
 29 30  2  0  0  0  0
 31 32  1  0  0  0  0
M  END
>  <MODEL>
8

>  <REMARK>
 VINA RESULT:      -7.9      2.718      5.684
  Name = 
  3 active torsions:
  status: ('A' for Active; 'I' for Inactive)
    1  A    between atoms: C_13  and  C_29
    2  A    between atoms: C_15  and  C_26
    3  A    between atoms: C_16  and  C_27
                            x       y       z     vdW  Elec       q    Type
                         _______ _______ _______ _____ _____    ______ ____

>  <TORSDO>
F 3

$$$$
=
 OpenBabel11052414373D

 32 37  0  0  1  0  0  0  0  0999 V2000
  188.0680  177.7100  139.8430 C   0  0  1  0  0  3  0  0  0  0  0  0
  187.7220  178.4400  142.3000 C   0  0  2  0  0  3  0  0  0  0  0  0
  189.1000  177.5740  138.7260 C   0  0  0  0  0  2  0  0  0  0  0  0
  188.7290  178.2350  141.1310 C   0  0  1  0  0  3  0  0  0  0  0  0
  187.9660  177.6150  143.5010 N   0  0  2  0  0  0  0  0  0  0  0  0
  183.0320  178.7820  143.7670 C   0  0  0  0  0  3  0  0  0  0  0  0
  186.2710  178.2380  141.8400 C   0  0  2  0  0  3  0  0  0  0  0  0
  184.8470  178.5400  145.3500 C   0  0  0  0  0  3  0  0  0  0  0  0
  185.7540  178.3960  144.2970 C   0  0  0  0  0  0  0  0  0  0  0  0
  189.9490  177.4210  141.4800 C   0  0  0  0  0  0  0  0  0  0  0  0
  187.2210  178.2520  144.6020 C   0  0  0  0  0  2  0  0  0  0  0  0
  190.2630  177.1640  142.7480 C   0  0  0  0  0  3  0  0  0  0  0  0
  190.9110  177.0430  140.3910 C   0  0  0  0  0  2  0  0  0  0  0  0
  186.0090  179.0770  140.5910 C   0  0  0  0  0  2  0  0  0  0  0  0
  186.8830  178.6010  139.4140 C   0  0  2  0  0  3  0  0  0  0  0  0
  185.3050  178.4890  142.9640 C   0  0  0  0  0  0  0  0  0  0  0  0
  189.3930  177.6510  143.8700 C   0  0  2  0  0  3  0  0  0  0  0  0
  190.1650  176.5640  139.1460 C   0  0  0  0  0  2  0  0  0  0  0  0
  183.4880  178.7300  145.0860 C   0  0  0  0  0  3  0  0  0  0  0  0
  183.9360  178.6520  142.7080 C   0  0  0  0  0  3  0  0  0  0  0  0
  185.5360  177.3920  136.0530 C   0  0  0  0  0  0  0  0  0  0  0  0
  185.8230  177.4920  134.5940 C   0  0  0  0  0  1  0  0  0  0  0  0
  186.0360  177.9210  138.3750 C   0  0  0  0  0  0  0  0  0  0  0  0
  184.4390  176.6340  136.4670 C   0  0  0  0  0  3  0  0  0  0  0  0
  184.9310  177.1540  138.7720 C   0  0  0  0  0  3  0  0  0  0  0  0
  186.3430  178.0420  137.0060 C   0  0  0  0  0  0  0  0  0  0  0  0
  187.7340  179.0000  136.4880 Cl  0  0  0  0  0  0  0  0  0  0  0  0
  184.1320  176.5120  137.8250 C   0  0  0  0  0  0  0  0  0  0  0  0
  182.5900  175.7640  139.4710 O   0  0  0  0  0  0  0  0  0  0  0  0
  182.9850  175.7200  138.2750 C   0  0  0  0  0  3  0  0  0  0  0  0
  189.6860  176.8290  145.1320 C   0  0  0  0  0  2  0  0  0  0  0  0
  191.1700  176.7950  145.4670 C   0  0  0  0  0  1  0  0  0  0  0  0
  1  3  1  6  0  0  0
  1  4  1  0  0  0  0
  2  5  1  0  0  0  0
  3 18  1  0  0  0  0
  4 10  1  0  0  0  0
  4  2  1  0  0  0  0
  5 17  1  0  0  0  0
  5 11  1  0  0  0  0
  6 19  1  0  0  0  0
  7  2  1  0  0  0  0
  7 16  1  0  0  0  0
  9 11  1  0  0  0  0
  9  8  1  0  0  0  0
 10 12  2  0  0  0  0
 12 17  1  0  0  0  0
 13 10  1  0  0  0  0
 14  7  1  0  0  0  0
 15  1  1  0  0  0  0
 15 14  1  0  0  0  0
 16  9  2  0  0  0  0
 17 31  1  0  0  0  0
 18 13  1  0  0  0  0
 19  8  2  0  0  0  0
 20 16  1  0  0  0  0
 20  6  2  0  0  0  0
 21 24  2  0  0  0  0
 21 26  1  0  0  0  0
 22 21  1  0  0  0  0
 23 25  1  0  0  0  0
 23 15  1  0  0  0  0
 24 28  1  0  0  0  0
 26 23  2  0  0  0  0
 27 26  1  0  0  0  0
 28 30  1  0  0  0  0
 28 25  2  0  0  0  0
 30 29  2  0  0  0  0
 31 32  1  0  0  0  0
M  END
>  <MODEL>
9

>  <REMARK>
 VINA RESULT:      -7.7      2.076      2.972
  Name = 
  3 active torsions:
  status: ('A' for Active; 'I' for Inactive)
    1  A    between atoms: C_13  and  C_29
    2  A    between atoms: C_15  and  C_26
    3  A    between atoms: C_16  and  C_27
                            x       y       z     vdW  Elec       q    Type
                         _______ _______ _______ _____ _____    ______ ____

>  <TORSDO>
F 3

$$$$
