=
 OpenBabel11052413393D

 27 31  0  0  1  0  0  0  0  0999 V2000
  185.7960  178.9890  144.4300 C   0  0  0  0  0  2  0  0  0  0  0  0
  186.7530  178.4540  142.1560 N   0  0  0  0  0  0  0  0  0  0  0  0
  187.7710  176.3470  143.4750 S   0  0  0  0  0  0  0  0  0  0  0  0
  190.0290  177.8640  138.9670 C   0  0  0  0  0  3  0  0  0  0  0  0
  192.0780  177.0920  139.9240 F   0  0  0  0  0  0  0  0  0  0  0  0
  186.8370  178.6310  140.7650 N   0  0  0  0  0  2  0  0  0  0  0  0
  181.6860  178.5180  141.5410 N   0  0  0  0  0  2  0  0  0  0  0  0
  190.2100  177.4710  141.3710 C   0  0  0  0  0  0  0  0  0  0  0  0
  184.3440  178.8070  142.4410 C   0  0  0  0  0  0  0  0  0  0  0  0
  187.8900  177.6320  147.3280 C   0  0  2  0  0  3  0  0  0  0  0  0
  184.0700  178.5370  140.9830 C   0  0  0  0  0  2  0  0  0  0  0  0
  190.9330  177.1060  142.4580 F   0  0  0  0  0  0  0  0  0  0  0  0
  189.1150  178.3240  147.8850 C   0  0  0  0  0  1  0  0  0  0  0  0
  188.8750  177.8600  141.4940 C   0  0  0  0  0  0  0  0  0  0  0  0
  185.5940  178.7710  142.9550 C   0  0  0  0  0  0  0  0  0  0  0  0
  190.7870  177.4690  140.0880 C   0  0  0  0  0  0  0  0  0  0  0  0
  188.6890  178.2640  139.1160 C   0  0  0  0  0  3  0  0  0  0  0  0
  185.8960  177.6660  145.1860 C   0  0  2  0  0  3  0  0  0  0  0  0
  188.0260  177.9790  142.7160 C   0  0  1  0  0  3  0  0  0  0  0  0
  188.1650  177.1480  145.9870 N   0  0  0  0  0  0  0  0  0  0  0  0
  188.1450  178.2500  140.3990 C   0  0  0  0  0  0  0  0  0  0  0  0
  186.6930  178.5730  147.3700 C   0  0  0  0  0  2  0  0  0  0  0  0
  182.7350  177.8160  140.8080 C   0  0  0  0  0  2  0  0  0  0  0  0
  185.5330  177.9020  146.6500 C   0  0  0  0  0  2  0  0  0  0  0  0
  181.9390  179.0620  142.8420 C   0  0  0  0  0  3  0  0  0  0  0  0
  187.2850  177.0720  145.0430 C   0  0  0  0  0  0  0  0  0  0  0  0
  183.1890  179.1770  143.2930 C   0  0  0  0  0  3  0  0  0  0  0  0
  2 19  1  0  0  0  0
  2 15  1  0  0  0  0
  3 26  1  0  0  0  0
  4 17  2  0  0  0  0
  4 16  1  0  0  0  0
  5 16  1  0  0  0  0
  6  2  1  0  0  0  0
  7 25  1  0  0  0  0
  8 14  1  0  0  0  0
  8 12  1  0  0  0  0
  9 15  2  0  0  0  0
  9 27  1  0  0  0  0
 10 22  1  0  0  0  0
 10 13  1  6  0  0  0
 11  9  1  0  0  0  0
 15  1  1  0  0  0  0
 16  8  2  0  0  0  0
 17 21  1  0  0  0  0
 18  1  1  6  0  0  0
 18 24  1  0  0  0  0
 19 14  1  6  0  0  0
 19  3  1  0  0  0  0
 20 10  1  0  0  0  0
 21  6  1  0  0  0  0
 21 14  2  0  0  0  0
 23 11  1  0  0  0  0
 23  7  1  0  0  0  0
 24 22  1  0  0  0  0
 25 27  2  0  0  0  0
 26 18  1  0  0  0  0
 26 20  2  0  0  0  0
M  END
>  <MODEL>
1

>  <REMARK>
 VINA RESULT:     -10.2      0.000      0.000
  Name = 
  0 active torsions:
  status: ('A' for Active; 'I' for Inactive)
                            x       y       z     vdW  Elec       q    Type
                         _______ _______ _______ _____ _____    ______ ____

>  <TORSDO>
F 0

$$$$
=
 OpenBabel11052413393D

 27 31  0  0  1  0  0  0  0  0999 V2000
  187.2350  177.2670  141.7300 C   0  0  0  0  0  2  0  0  0  0  0  0
  187.7570  177.4540  144.1920 N   0  0  0  0  0  0  0  0  0  0  0  0
  189.8490  178.8680  143.2770 S   0  0  0  0  0  0  0  0  0  0  0  0
  190.1150  176.7520  148.0900 C   0  0  0  0  0  3  0  0  0  0  0  0
  192.4620  176.5390  147.6890 F   0  0  0  0  0  0  0  0  0  0  0  0
  187.4250  177.3230  145.5500 N   0  0  0  0  0  2  0  0  0  0  0  0
  183.1490  179.5670  143.5950 N   0  0  0  0  0  2  0  0  0  0  0  0
  191.0100  176.9180  145.8240 C   0  0  0  0  0  0  0  0  0  0  0  0
  185.5680  178.1390  143.3290 C   0  0  0  0  0  0  0  0  0  0  0  0
  190.3280  177.4750  139.4900 C   0  0  2  0  0  3  0  0  0  0  0  0
  185.0950  178.5680  144.6960 C   0  0  0  0  0  2  0  0  0  0  0  0
  192.0560  176.8930  144.9600 F   0  0  0  0  0  0  0  0  0  0  0  0
  191.2410  176.3050  139.1950 C   0  0  0  0  0  1  0  0  0  0  0  0
  189.7070  177.1250  145.3680 C   0  0  0  0  0  0  0  0  0  0  0  0
  186.7990  177.6200  143.1260 C   0  0  0  0  0  0  0  0  0  0  0  0
  191.2120  176.7360  147.2040 C   0  0  0  0  0  0  0  0  0  0  0  0
  188.8090  176.9490  147.6070 C   0  0  0  0  0  3  0  0  0  0  0  0
  188.0590  178.3870  141.0980 C   0  0  2  0  0  3  0  0  0  0  0  0
  189.2040  177.3190  143.9760 C   0  0  1  0  0  3  0  0  0  0  0  0
  190.4540  177.8600  140.8850 N   0  0  0  0  0  0  0  0  0  0  0  0
  188.6440  177.1320  146.2360 C   0  0  0  0  0  0  0  0  0  0  0  0
  188.8930  177.1280  139.1120 C   0  0  0  0  0  2  0  0  0  0  0  0
  184.1890  179.7930  144.5940 C   0  0  0  0  0  2  0  0  0  0  0  0
  187.9900  178.2590  139.5780 C   0  0  0  0  0  2  0  0  0  0  0  0
  183.4500  178.9070  142.3600 C   0  0  0  0  0  3  0  0  0  0  0  0
  189.4910  178.3450  141.5980 C   0  0  0  0  0  0  0  0  0  0  0  0
  184.6030  178.2530  142.2090 C   0  0  0  0  0  3  0  0  0  0  0  0
  1 15  1  0  0  0  0
  2  6  1  0  0  0  0
  6 21  1  0  0  0  0
  7 23  1  0  0  0  0
  8 16  1  0  0  0  0
  9 11  1  0  0  0  0
 10 13  1  1  0  0  0
 10 20  1  0  0  0  0
 12  8  1  0  0  0  0
 14  8  2  0  0  0  0
 14 21  1  0  0  0  0
 15  9  2  0  0  0  0
 15  2  1  0  0  0  0
 16  5  1  0  0  0  0
 16  4  2  0  0  0  0
 17  4  1  0  0  0  0
 18 24  1  6  0  0  0
 18 26  1  0  0  0  0
 18  1  1  0  0  0  0
 19  3  1  1  0  0  0
 19  2  1  0  0  0  0
 19 14  1  0  0  0  0
 20 26  2  0  0  0  0
 21 17  2  0  0  0  0
 22 10  1  0  0  0  0
 22 24  1  0  0  0  0
 23 11  1  0  0  0  0
 25  7  1  0  0  0  0
 26  3  1  0  0  0  0
 27 25  2  0  0  0  0
 27  9  1  0  0  0  0
M  END
>  <MODEL>
2

>  <REMARK>
 VINA RESULT:      -8.3      2.132      5.503
  Name = 
  0 active torsions:
  status: ('A' for Active; 'I' for Inactive)
                            x       y       z     vdW  Elec       q    Type
                         _______ _______ _______ _____ _____    ______ ____

>  <TORSDO>
F 0

$$$$
=
 OpenBabel11052413393D

 27 31  0  0  1  0  0  0  0  0999 V2000
  187.1180  177.1180  143.4850 C   0  0  0  0  0  2  0  0  0  0  0  0
  189.0340  177.0360  141.8430 N   0  0  0  0  0  0  0  0  0  0  0  0
  187.9320  179.3330  140.9900 S   0  0  0  0  0  0  0  0  0  0  0  0
  191.0760  176.6500  137.7290 C   0  0  0  0  0  3  0  0  0  0  0  0
  189.7060  177.5050  135.9670 F   0  0  0  0  0  0  0  0  0  0  0  0
  190.2570  176.5270  141.3790 N   0  0  0  0  0  2  0  0  0  0  0  0
  191.1860  177.1280  146.4700 N   0  0  0  0  0  2  0  0  0  0  0  0
  188.8770  177.5950  138.2100 C   0  0  0  0  0  0  0  0  0  0  0  0
  189.4550  176.9050  144.2540 C   0  0  0  0  0  0  0  0  0  0  0  0
  184.0600  179.0030  142.1740 C   0  0  2  0  0  3  0  0  0  0  0  0
  190.9480  176.8340  144.0510 C   0  0  0  0  0  2  0  0  0  0  0  0
  187.7180  178.1670  137.7960 F   0  0  0  0  0  0  0  0  0  0  0  0
  183.0130  178.3920  141.2670 C   0  0  0  0  0  1  0  0  0  0  0  0
  189.1020  177.3270  139.5610 C   0  0  0  0  0  0  0  0  0  0  0  0
  188.5930  176.9890  143.2160 C   0  0  0  0  0  0  0  0  0  0  0  0
  189.8820  177.2560  137.2870 C   0  0  0  0  0  0  0  0  0  0  0  0
  191.2770  176.3770  139.0940 C   0  0  0  0  0  3  0  0  0  0  0  0
  186.6630  178.5750  143.4400 C   0  0  2  0  0  3  0  0  0  0  0  0
  188.2140  177.5540  140.7390 C   0  0  1  0  0  3  0  0  0  0  0  0
  185.3160  179.1350  141.4570 N   0  0  0  0  0  0  0  0  0  0  0  0
  190.2640  176.7310  139.9830 C   0  0  0  0  0  0  0  0  0  0  0  0
  184.2010  178.1720  143.4430 C   0  0  0  0  0  2  0  0  0  0  0  0
  191.6800  177.5700  145.1700 C   0  0  0  0  0  2  0  0  0  0  0  0
  185.3730  178.7190  144.2430 C   0  0  0  0  0  2  0  0  0  0  0  0
  189.7890  176.8970  146.6830 C   0  0  0  0  0  3  0  0  0  0  0  0
  186.4820  179.0350  142.0040 C   0  0  0  0  0  0  0  0  0  0  0  0
  188.9530  176.8180  145.6460 C   0  0  0  0  0  3  0  0  0  0  0  0
  2 15  1  0  0  0  0
  3 26  1  0  0  0  0
  4 17  1  0  0  0  0
  5 16  1  0  0  0  0
  6  2  1  0  0  0  0
  7 25  1  0  0  0  0
  8 14  2  0  0  0  0
  9 27  1  0  0  0  0
 10 13  1  6  0  0  0
 10 22  1  0  0  0  0
 11  9  1  0  0  0  0
 11 23  1  0  0  0  0
 12  8  1  0  0  0  0
 14 21  1  0  0  0  0
 15  1  1  0  0  0  0
 15  9  2  0  0  0  0
 16  4  2  0  0  0  0
 16  8  1  0  0  0  0
 17 21  2  0  0  0  0
 18  1  1  6  0  0  0
 18 24  1  0  0  0  0
 19 14  1  6  0  0  0
 19  3  1  0  0  0  0
 19  2  1  0  0  0  0
 20 26  2  0  0  0  0
 20 10  1  0  0  0  0
 21  6  1  0  0  0  0
 22 24  1  0  0  0  0
 23  7  1  0  0  0  0
 26 18  1  0  0  0  0
 27 25  2  0  0  0  0
M  END
>  <MODEL>
3

>  <REMARK>
 VINA RESULT:      -8.1      2.402      5.439
  Name = 
  0 active torsions:
  status: ('A' for Active; 'I' for Inactive)
                            x       y       z     vdW  Elec       q    Type
                         _______ _______ _______ _____ _____    ______ ____

>  <TORSDO>
F 0

$$$$
=
 OpenBabel11052413393D

 27 31  0  0  1  0  0  0  0  0999 V2000
  185.7620  177.5040  144.5590 C   0  0  0  0  0  2  0  0  0  0  0  0
  187.9210  177.3980  143.2550 N   0  0  0  0  0  0  0  0  0  0  0  0
  186.9010  179.5840  142.0750 S   0  0  0  0  0  0  0  0  0  0  0  0
  190.6180  176.8330  139.5600 C   0  0  0  0  0  3  0  0  0  0  0  0
  189.5270  177.5120  137.5450 F   0  0  0  0  0  0  0  0  0  0  0  0
  189.2200  176.9120  143.0310 N   0  0  0  0  0  2  0  0  0  0  0  0
  189.2870  177.8830  148.1490 N   0  0  0  0  0  2  0  0  0  0  0  0
  188.3410  177.7120  139.6140 C   0  0  0  0  0  0  0  0  0  0  0  0
  187.9480  177.4420  145.7060 C   0  0  0  0  0  0  0  0  0  0  0  0
  182.9000  179.1660  142.6440 C   0  0  2  0  0  3  0  0  0  0  0  0
  189.4560  177.4220  145.7510 C   0  0  0  0  0  2  0  0  0  0  0  0
  187.2470  178.2050  138.9800 F   0  0  0  0  0  0  0  0  0  0  0  0
  182.0340  178.4530  141.6270 C   0  0  0  0  0  1  0  0  0  0  0  0
  188.3510  177.5420  140.9990 C   0  0  0  0  0  0  0  0  0  0  0  0
  187.2650  177.4210  144.5390 C   0  0  0  0  0  0  0  0  0  0  0  0
  189.4940  177.3560  138.8910 C   0  0  0  0  0  0  0  0  0  0  0  0
  190.6020  176.6580  140.9550 C   0  0  0  0  0  3  0  0  0  0  0  0
  185.2750  178.9340  144.3370 C   0  0  2  0  0  3  0  0  0  0  0  0
  187.2760  177.8070  142.0000 C   0  0  1  0  0  3  0  0  0  0  0  0
  184.2510  179.3050  142.1300 N   0  0  0  0  0  0  0  0  0  0  0  0
  189.4470  177.0250  141.6430 C   0  0  0  0  0  0  0  0  0  0  0  0
  182.8590  178.4260  143.9750 C   0  0  0  0  0  2  0  0  0  0  0  0
  189.9720  178.2610  146.9170 C   0  0  0  0  0  2  0  0  0  0  0  0
  183.8670  179.0740  144.9120 C   0  0  0  0  0  2  0  0  0  0  0  0
  187.8820  177.6060  148.1510 C   0  0  0  0  0  3  0  0  0  0  0  0
  185.3150  179.2910  142.8630 C   0  0  0  0  0  0  0  0  0  0  0  0
  187.2290  177.4250  147.0020 C   0  0  0  0  0  3  0  0  0  0  0  0
  2 15  1  0  0  0  0
  3 26  1  0  0  0  0
  4 17  1  0  0  0  0
  5 16  1  0  0  0  0
  6  2  1  0  0  0  0
  7 25  1  0  0  0  0
  8 14  2  0  0  0  0
  9 11  1  0  0  0  0
  9 27  1  0  0  0  0
 10 13  1  6  0  0  0
 10 22  1  0  0  0  0
 11 23  1  0  0  0  0
 12  8  1  0  0  0  0
 14 21  1  0  0  0  0
 15  1  1  0  0  0  0
 15  9  2  0  0  0  0
 16  4  2  0  0  0  0
 16  8  1  0  0  0  0
 17 21  2  0  0  0  0
 18  1  1  6  0  0  0
 18 24  1  0  0  0  0
 19 14  1  6  0  0  0
 19  3  1  0  0  0  0
 19  2  1  0  0  0  0
 20 10  1  0  0  0  0
 20 26  2  0  0  0  0
 21  6  1  0  0  0  0
 22 24  1  0  0  0  0
 23  7  1  0  0  0  0
 26 18  1  0  0  0  0
 27 25  2  0  0  0  0
M  END
>  <MODEL>
4

>  <REMARK>
 VINA RESULT:      -8.0      1.939      5.088
  Name = 
  0 active torsions:
  status: ('A' for Active; 'I' for Inactive)
                            x       y       z     vdW  Elec       q    Type
                         _______ _______ _______ _____ _____    ______ ____

>  <TORSDO>
F 0

$$$$
=
 OpenBabel11052413393D

 27 31  0  0  1  0  0  0  0  0999 V2000
  190.0700  176.0310  142.6390 C   0  0  0  0  0  2  0  0  0  0  0  0
  187.9020  177.3220  142.6090 N   0  0  0  0  0  0  0  0  0  0  0  0
  189.0890  178.6680  144.6080 S   0  0  0  0  0  0  0  0  0  0  0  0
  183.8440  178.8300  144.1920 C   0  0  0  0  0  3  0  0  0  0  0  0
  183.8230  179.0050  146.5750 F   0  0  0  0  0  0  0  0  0  0  0  0
  186.6770  177.6890  142.0280 N   0  0  0  0  0  2  0  0  0  0  0  0
  189.9230  177.9100  137.9590 N   0  0  0  0  0  2  0  0  0  0  0  0
  185.8230  178.2490  145.4990 C   0  0  0  0  0  0  0  0  0  0  0  0
  189.2360  177.0820  140.5670 C   0  0  0  0  0  0  0  0  0  0  0  0
  191.7800  175.9910  146.0600 C   0  0  2  0  0  3  0  0  0  0  0  0
  188.2690  177.9150  139.7640 C   0  0  0  0  0  2  0  0  0  0  0  0
  186.4530  178.1070  146.6910 F   0  0  0  0  0  0  0  0  0  0  0  0
  191.4130  175.0410  147.1800 C   0  0  0  0  0  1  0  0  0  0  0  0
  186.4770  177.9520  144.3020 C   0  0  0  0  0  0  0  0  0  0  0  0
  189.0380  176.8170  141.8780 C   0  0  0  0  0  0  0  0  0  0  0  0
  184.4920  178.6990  145.4370 C   0  0  0  0  0  0  0  0  0  0  0  0
  184.5180  178.5130  142.9990 C   0  0  0  0  0  3  0  0  0  0  0  0
  191.0280  176.9470  143.3980 C   0  0  2  0  0  3  0  0  0  0  0  0
  187.8600  177.4400  144.0730 C   0  0  1  0  0  3  0  0  0  0  0  0
  190.6950  176.9310  145.8370 N   0  0  0  0  0  0  0  0  0  0  0  0
  185.8370  178.0750  143.0940 C   0  0  0  0  0  0  0  0  0  0  0  0
  192.1340  175.2070  144.8040 C   0  0  0  0  0  2  0  0  0  0  0  0
  189.0100  178.7530  138.7250 C   0  0  0  0  0  2  0  0  0  0  0  0
  192.3300  176.1950  143.6640 C   0  0  0  0  0  2  0  0  0  0  0  0
  190.6920  176.8880  138.6040 C   0  0  0  0  0  3  0  0  0  0  0  0
  190.3920  177.4360  144.6870 C   0  0  0  0  0  0  0  0  0  0  0  0
  190.3980  176.5060  139.8480 C   0  0  0  0  0  3  0  0  0  0  0  0
  2 19  1  0  0  0  0
  3 26  1  0  0  0  0
  4 16  1  0  0  0  0
  6  2  1  0  0  0  0
  6 21  1  0  0  0  0
  7 25  1  0  0  0  0
  7 23  1  0  0  0  0
  8 12  1  0  0  0  0
  9 15  2  0  0  0  0
 10 13  1  1  0  0  0
 11  9  1  0  0  0  0
 14  8  1  0  0  0  0
 15  2  1  0  0  0  0
 15  1  1  0  0  0  0
 16  8  2  0  0  0  0
 16  5  1  0  0  0  0
 17 21  1  0  0  0  0
 17  4  2  0  0  0  0
 18  1  1  1  0  0  0
 18 24  1  0  0  0  0
 18 26  1  0  0  0  0
 19 14  1  6  0  0  0
 19  3  1  0  0  0  0
 20 10  1  0  0  0  0
 21 14  2  0  0  0  0
 22 10  1  0  0  0  0
 23 11  1  0  0  0  0
 24 22  1  0  0  0  0
 25 27  2  0  0  0  0
 26 20  2  0  0  0  0
 27  9  1  0  0  0  0
M  END
>  <MODEL>
5

>  <REMARK>
 VINA RESULT:      -7.6      3.006      6.036
  Name = 
  0 active torsions:
  status: ('A' for Active; 'I' for Inactive)
                            x       y       z     vdW  Elec       q    Type
                         _______ _______ _______ _____ _____    ______ ____

>  <TORSDO>
F 0

$$$$
=
 OpenBabel11052413393D

 27 31  0  0  1  0  0  0  0  0999 V2000
  187.0340  178.9310  141.3530 C   0  0  0  0  0  2  0  0  0  0  0  0
  189.0030  177.9740  142.6090 N   0  0  0  0  0  0  0  0  0  0  0  0
  187.0880  176.4770  143.7540 S   0  0  0  0  0  0  0  0  0  0  0  0
  191.6800  177.0890  146.2550 C   0  0  0  0  0  3  0  0  0  0  0  0
  190.4140  176.9300  148.2760 F   0  0  0  0  0  0  0  0  0  0  0  0
  190.3790  177.7890  142.8160 N   0  0  0  0  0  2  0  0  0  0  0  0
  189.9440  177.0730  137.6740 N   0  0  0  0  0  2  0  0  0  0  0  0
  189.2560  177.3770  146.2300 C   0  0  0  0  0  0  0  0  0  0  0  0
  188.9860  178.0050  140.1580 C   0  0  0  0  0  0  0  0  0  0  0  0
  183.7420  178.7330  143.2890 C   0  0  2  0  0  3  0  0  0  0  0  0
  190.3280  177.3200  140.0790 C   0  0  0  0  0  2  0  0  0  0  0  0
  188.0640  177.4290  146.8760 F   0  0  0  0  0  0  0  0  0  0  0  0
  183.3180  179.7320  144.3430 C   0  0  0  0  0  1  0  0  0  0  0  0
  189.3330  177.5690  144.8500 C   0  0  0  0  0  0  0  0  0  0  0  0
  188.4010  178.3030  141.3400 C   0  0  0  0  0  0  0  0  0  0  0  0
  190.4470  177.1280  146.9360 C   0  0  0  0  0  0  0  0  0  0  0  0
  191.7370  177.2980  144.8660 C   0  0  0  0  0  3  0  0  0  0  0  0
  185.9360  177.8870  141.5480 C   0  0  2  0  0  3  0  0  0  0  0  0
  188.2510  177.8700  143.8670 C   0  0  1  0  0  3  0  0  0  0  0  0
  184.8760  177.9620  143.7680 N   0  0  0  0  0  0  0  0  0  0  0  0
  190.5390  177.5360  144.1950 C   0  0  0  0  0  0  0  0  0  0  0  0
  184.0410  179.4510  141.9790 C   0  0  0  0  0  2  0  0  0  0  0  0
  190.3840  176.3780  138.8800 C   0  0  0  0  0  2  0  0  0  0  0  0
  184.6220  178.4400  141.0020 C   0  0  0  0  0  2  0  0  0  0  0  0
  188.8310  177.9740  137.7110 C   0  0  0  0  0  3  0  0  0  0  0  0
  185.8170  177.5030  143.0110 C   0  0  0  0  0  0  0  0  0  0  0  0
  188.3480  178.4000  138.8800 C   0  0  0  0  0  3  0  0  0  0  0  0
  1 18  1  0  0  0  0
  2  6  1  0  0  0  0
  2 19  1  0  0  0  0
  4 16  1  0  0  0  0
  6 21  1  0  0  0  0
  7 25  1  0  0  0  0
  7 23  1  0  0  0  0
  8 12  1  0  0  0  0
  8 16  2  0  0  0  0
  9 15  2  0  0  0  0
 10 20  1  0  0  0  0
 10 13  1  1  0  0  0
 11  9  1  0  0  0  0
 14  8  1  0  0  0  0
 15  1  1  0  0  0  0
 15  2  1  0  0  0  0
 16  5  1  0  0  0  0
 17  4  2  0  0  0  0
 18 24  1  1  0  0  0
 18 26  1  0  0  0  0
 19  3  1  6  0  0  0
 19 14  1  0  0  0  0
 21 14  2  0  0  0  0
 21 17  1  0  0  0  0
 22 10  1  0  0  0  0
 23 11  1  0  0  0  0
 24 22  1  0  0  0  0
 25 27  2  0  0  0  0
 26  3  1  0  0  0  0
 26 20  2  0  0  0  0
 27  9  1  0  0  0  0
M  END
>  <MODEL>
6

>  <REMARK>
 VINA RESULT:      -7.6      2.680      5.708
  Name = 
  0 active torsions:
  status: ('A' for Active; 'I' for Inactive)
                            x       y       z     vdW  Elec       q    Type
                         _______ _______ _______ _____ _____    ______ ____

>  <TORSDO>
F 0

$$$$
=
 OpenBabel11052413393D

 27 31  0  0  1  0  0  0  0  0999 V2000
  183.2030  177.7640  140.3450 C   0  0  0  0  0  2  0  0  0  0  0  0
  183.7100  178.2920  142.7610 N   0  0  0  0  0  0  0  0  0  0  0  0
  185.7420  179.6630  141.6620 S   0  0  0  0  0  0  0  0  0  0  0  0
  186.0850  178.2060  146.7100 C   0  0  0  0  0  3  0  0  0  0  0  0
  188.4390  178.0430  146.3330 F   0  0  0  0  0  0  0  0  0  0  0  0
  183.3800  178.3260  144.1250 N   0  0  0  0  0  2  0  0  0  0  0  0
  179.0180  180.1110  141.9060 N   0  0  0  0  0  2  0  0  0  0  0  0
  186.9780  178.1130  144.4390 C   0  0  0  0  0  0  0  0  0  0  0  0
  181.4950  178.7650  141.8210 C   0  0  0  0  0  0  0  0  0  0  0  0
  186.2900  177.8090  138.0890 C   0  0  2  0  0  3  0  0  0  0  0  0
  181.0010  179.3480  143.1220 C   0  0  0  0  0  2  0  0  0  0  0  0
  188.0260  178.0190  143.5830 F   0  0  0  0  0  0  0  0  0  0  0  0
  187.2530  176.6500  137.9470 C   0  0  0  0  0  1  0  0  0  0  0  0
  185.6690  178.2030  143.9640 C   0  0  0  0  0  0  0  0  0  0  0  0
  182.7490  178.2770  141.6850 C   0  0  0  0  0  0  0  0  0  0  0  0
  187.1830  178.1210  145.8310 C   0  0  0  0  0  0  0  0  0  0  0  0
  184.7730  178.2830  146.2090 C   0  0  0  0  0  3  0  0  0  0  0  0
  183.9800  178.8260  139.5700 C   0  0  2  0  0  3  0  0  0  0  0  0
  185.1620  178.1920  142.5600 C   0  0  1  0  0  3  0  0  0  0  0  0
  186.3960  178.3770  139.4210 N   0  0  0  0  0  0  0  0  0  0  0  0
  184.6040  178.2780  144.8260 C   0  0  0  0  0  0  0  0  0  0  0  0
  184.8730  177.3540  137.7640 C   0  0  0  0  0  2  0  0  0  0  0  0
  180.0440  180.5100  142.8640 C   0  0  0  0  0  2  0  0  0  0  0  0
  183.9200  178.4970  138.0800 C   0  0  0  0  0  2  0  0  0  0  0  0
  179.3500  179.3090  140.7670 C   0  0  0  0  0  3  0  0  0  0  0  0
  185.4120  178.9100  140.0670 C   0  0  0  0  0  0  0  0  0  0  0  0
  180.5300  178.6900  140.6990 C   0  0  0  0  0  3  0  0  0  0  0  0
  1 15  1  0  0  0  0
  2  6  1  0  0  0  0
  6 21  1  0  0  0  0
  7 23  1  0  0  0  0
  8 16  1  0  0  0  0
  9 11  1  0  0  0  0
 10 13  1  1  0  0  0
 10 20  1  0  0  0  0
 12  8  1  0  0  0  0
 14  8  2  0  0  0  0
 14 21  1  0  0  0  0
 15  9  2  0  0  0  0
 15  2  1  0  0  0  0
 16  5  1  0  0  0  0
 16  4  2  0  0  0  0
 17  4  1  0  0  0  0
 18 24  1  6  0  0  0
 18 26  1  0  0  0  0
 18  1  1  0  0  0  0
 19  3  1  6  0  0  0
 19  2  1  0  0  0  0
 19 14  1  0  0  0  0
 20 26  2  0  0  0  0
 21 17  2  0  0  0  0
 22 24  1  0  0  0  0
 22 10  1  0  0  0  0
 23 11  1  0  0  0  0
 25  7  1  0  0  0  0
 26  3  1  0  0  0  0
 27 25  2  0  0  0  0
 27  9  1  0  0  0  0
M  END
>  <MODEL>
7

>  <REMARK>
 VINA RESULT:      -7.6      2.766      6.012
  Name = 
  0 active torsions:
  status: ('A' for Active; 'I' for Inactive)
                            x       y       z     vdW  Elec       q    Type
                         _______ _______ _______ _____ _____    ______ ____

>  <TORSDO>
F 0

$$$$
