=
 OpenBabel11052414403D

 32 37  0  0  1  0  0  0  0  0999 V2000
  190.6240  176.9630  142.7920 C   0  0  2  0  0  3  0  0  0  0  0  0
  189.5440  178.0900  144.8570 C   0  0  2  0  0  3  0  0  0  0  0  0
  190.6460  175.4480  142.9190 C   0  0  0  0  0  2  0  0  0  0  0  0
  190.8190  177.6970  144.1480 C   0  0  1  0  0  3  0  0  0  0  0  0
  189.5750  177.4360  146.1420 N   0  0  2  0  0  0  0  0  0  0  0  0
  184.6810  178.1840  145.4700 C   0  0  0  0  0  3  0  0  0  0  0  0
  188.2390  177.8210  144.2030 C   0  0  0  0  0  0  0  0  0  0  0  0
  186.2130  178.3990  147.3390 C   0  0  0  0  0  3  0  0  0  0  0  0
  187.2970  178.1950  146.4810 C   0  0  0  0  0  0  0  0  0  0  0  0
  191.6850  177.0670  145.1780 N   0  0  2  0  0  0  0  0  0  0  0  0
  188.7190  178.2260  147.0270 C   0  0  0  0  0  2  0  0  0  0  0  0
  191.6380  175.5910  145.1270 C   0  0  0  0  0  2  0  0  0  0  0  0
  188.1770  177.5590  142.8960 C   0  0  0  0  0  3  0  0  0  0  0  0
  189.3850  177.3960  142.1270 N   0  0  0  0  0  0  0  0  0  0  0  0
  187.0660  177.9990  145.0910 C   0  0  0  0  0  0  0  0  0  0  0  0
  190.9990  177.5070  146.4170 C   0  0  2  0  0  3  0  0  0  0  0  0
  191.8530  175.0470  143.7280 C   0  0  0  0  0  2  0  0  0  0  0  0
  184.9110  178.3940  146.8350 C   0  0  0  0  0  3  0  0  0  0  0  0
  185.7550  177.9870  144.5980 C   0  0  0  0  0  3  0  0  0  0  0  0
  188.1910  178.0680  138.6160 C   0  0  0  0  0  0  0  0  0  0  0  0
  187.1280  178.5850  137.9580 F   0  0  0  0  0  0  0  0  0  0  0  0
  190.4030  176.9750  139.9340 C   0  0  0  0  0  3  0  0  0  0  0  0
  189.2710  177.5760  137.8810 C   0  0  0  0  0  3  0  0  0  0  0  0
  189.3290  177.4670  140.6930 C   0  0  0  0  0  0  0  0  0  0  0  0
  188.2130  178.0230  140.0210 C   0  0  0  0  0  0  0  0  0  0  0  0
  187.0620  178.6060  140.7770 C   0  0  0  0  0  1  0  0  0  0  0  0
  190.3780  177.0360  138.5390 C   0  0  0  0  0  0  0  0  0  0  0  0
  192.9450  176.7740  138.9210 C   0  0  0  0  0  1  0  0  0  0  0  0
  191.7600  176.4030  137.5980 S   0  0  0  0  0  0  0  0  0  0  0  0
  192.6130  176.5400  147.9360 N   0  0  0  0  0  0  0  0  0  0  0  0
  191.3810  176.7430  147.6560 C   0  0  0  0  0  3  0  0  0  0  0  0
  192.9700  175.8080  149.1190 C   0  0  0  0  0  1  0  0  0  0  0  0
  1  3  1  1  0  0  0
  1  4  1  0  0  0  0
  2  7  1  6  0  0  0
  2  5  1  0  0  0  0
  3 17  1  0  0  0  0
  4  2  1  0  0  0  0
  4 10  1  0  0  0  0
  5 16  1  0  0  0  0
  5 11  1  0  0  0  0
  6 18  1  0  0  0  0
  7 15  1  0  0  0  0
  9 11  1  0  0  0  0
  9  8  1  0  0  0  0
 10 16  1  0  0  0  0
 12 10  1  0  0  0  0
 13  7  2  0  0  0  0
 14  1  1  0  0  0  0
 14 13  1  0  0  0  0
 15  9  2  0  0  0  0
 16 31  1  0  0  0  0
 17 12  1  0  0  0  0
 18  8  2  0  0  0  0
 19 15  1  0  0  0  0
 19  6  2  0  0  0  0
 20 25  1  0  0  0  0
 21 20  1  0  0  0  0
 22 24  1  0  0  0  0
 23 27  1  0  0  0  0
 23 20  2  0  0  0  0
 24 14  1  0  0  0  0
 25 24  2  0  0  0  0
 25 26  1  0  0  0  0
 27 22  2  0  0  0  0
 29 27  1  0  0  0  0
 29 28  1  0  0  0  0
 30 32  1  0  0  0  0
 31 30  2  0  0  0  0
M  END
>  <MODEL>
1

>  <REMARK>
 VINA RESULT:      -9.4      0.000      0.000
  Name = 
  3 active torsions:
  status: ('A' for Active; 'I' for Inactive)
    1  A    between atoms: S_15  and  C_26
    2  A    between atoms: C_18  and  C_29
    3  A    between atoms: C_20  and  N_27
                            x       y       z     vdW  Elec       q    Type
                         _______ _______ _______ _____ _____    ______ ____

>  <TORSDO>
F 3

$$$$
=
 OpenBabel11052414403D

 32 37  0  0  1  0  0  0  0  0999 V2000
  190.3920  177.0770  142.6100 C   0  0  2  0  0  3  0  0  0  0  0  0
  189.3710  178.1710  144.7230 C   0  0  2  0  0  3  0  0  0  0  0  0
  190.4180  175.5610  142.7130 C   0  0  0  0  0  2  0  0  0  0  0  0
  190.6260  177.7900  143.9710 C   0  0  1  0  0  3  0  0  0  0  0  0
  189.4410  177.4970  145.9960 N   0  0  2  0  0  0  0  0  0  0  0  0
  184.5280  178.2480  145.4790 C   0  0  0  0  0  3  0  0  0  0  0  0
  188.0480  177.9100  144.1030 C   0  0  0  0  0  0  0  0  0  0  0  0
  186.1140  178.4370  147.3060 C   0  0  0  0  0  3  0  0  0  0  0  0
  187.1730  178.2470  146.4130 C   0  0  0  0  0  0  0  0  0  0  0  0
  191.5210  177.1460  144.9650 N   0  0  2  0  0  0  0  0  0  0  0  0
  188.6100  178.2720  146.9180 C   0  0  0  0  0  2  0  0  0  0  0  0
  191.4740  175.6700  144.8930 C   0  0  0  0  0  2  0  0  0  0  0  0
  187.9480  177.6680  142.7950 C   0  0  0  0  0  3  0  0  0  0  0  0
  189.1330  177.5180  141.9890 N   0  0  0  0  0  0  0  0  0  0  0  0
  186.9020  178.0730  145.0280 C   0  0  0  0  0  0  0  0  0  0  0  0
  190.8720  177.5660  146.2300 C   0  0  2  0  0  3  0  0  0  0  0  0
  191.6480  175.1490  143.4800 C   0  0  0  0  0  2  0  0  0  0  0  0
  184.7980  178.4380  146.8400 C   0  0  0  0  0  3  0  0  0  0  0  0
  185.5770  178.0670  144.5730 C   0  0  0  0  0  3  0  0  0  0  0  0
  190.0430  177.6140  138.3320 C   0  0  0  0  0  0  0  0  0  0  0  0
  191.1260  177.5310  137.5260 F   0  0  0  0  0  0  0  0  0  0  0  0
  187.7780  177.8100  139.9630 C   0  0  0  0  0  3  0  0  0  0  0  0
  188.7840  177.8080  137.7620 C   0  0  0  0  0  3  0  0  0  0  0  0
  189.0350  177.6120  140.5580 C   0  0  0  0  0  0  0  0  0  0  0  0
  190.1780  177.5100  139.7270 C   0  0  0  0  0  0  0  0  0  0  0  0
  191.5340  177.2510  140.3010 C   0  0  0  0  0  1  0  0  0  0  0  0
  187.6520  177.8990  138.5750 C   0  0  0  0  0  0  0  0  0  0  0  0
  185.2980  178.6260  139.4300 C   0  0  0  0  0  1  0  0  0  0  0  0
  186.0410  178.1500  137.8450 S   0  0  0  0  0  0  0  0  0  0  0  0
  192.5280  176.5480  147.6680 N   0  0  0  0  0  0  0  0  0  0  0  0
  191.2910  176.7820  147.4460 C   0  0  0  0  0  3  0  0  0  0  0  0
  192.9200  175.7990  148.8290 C   0  0  0  0  0  1  0  0  0  0  0  0
  1  3  1  1  0  0  0
  1  4  1  0  0  0  0
  2  7  1  6  0  0  0
  2  5  1  0  0  0  0
  3 17  1  0  0  0  0
  4  2  1  0  0  0  0
  4 10  1  0  0  0  0
  5 16  1  0  0  0  0
  5 11  1  0  0  0  0
  6 18  1  0  0  0  0
  7 15  1  0  0  0  0
  9 11  1  0  0  0  0
  9  8  1  0  0  0  0
 10 16  1  0  0  0  0
 12 10  1  0  0  0  0
 13  7  2  0  0  0  0
 14  1  1  0  0  0  0
 14 13  1  0  0  0  0
 15  9  2  0  0  0  0
 16 31  1  0  0  0  0
 17 12  1  0  0  0  0
 18  8  2  0  0  0  0
 19 15  1  0  0  0  0
 19  6  2  0  0  0  0
 20 25  1  0  0  0  0
 21 20  1  0  0  0  0
 22 24  1  0  0  0  0
 23 20  2  0  0  0  0
 23 27  1  0  0  0  0
 24 14  1  0  0  0  0
 25 26  1  0  0  0  0
 25 24  2  0  0  0  0
 27 22  2  0  0  0  0
 29 27  1  0  0  0  0
 29 28  1  0  0  0  0
 30 32  1  0  0  0  0
 31 30  2  0  0  0  0
M  END
>  <MODEL>
2

>  <REMARK>
 VINA RESULT:      -8.8      1.400      2.256
  Name = 
  3 active torsions:
  status: ('A' for Active; 'I' for Inactive)
    1  A    between atoms: S_15  and  C_26
    2  A    between atoms: C_18  and  C_29
    3  A    between atoms: C_20  and  N_27
                            x       y       z     vdW  Elec       q    Type
                         _______ _______ _______ _____ _____    ______ ____

>  <TORSDO>
F 3

$$$$
=
 OpenBabel11052414403D

 32 37  0  0  1  0  0  0  0  0999 V2000
  185.1410  178.1910  144.5300 C   0  0  2  0  0  3  0  0  0  0  0  0
  187.3320  177.0200  143.8030 C   0  0  2  0  0  3  0  0  0  0  0  0
  185.3990  179.5820  145.0870 C   0  0  0  0  0  2  0  0  0  0  0  0
  186.2690  177.1760  144.8660 C   0  0  1  0  0  3  0  0  0  0  0  0
  188.5840  177.3690  144.4290 N   0  0  2  0  0  0  0  0  0  0  0  0
  189.5730  178.1680  139.5970 C   0  0  0  0  0  3  0  0  0  0  0  0
  187.1980  177.7690  142.5280 C   0  0  0  0  0  0  0  0  0  0  0  0
  190.7690  177.1630  141.4540 C   0  0  0  0  0  3  0  0  0  0  0  0
  189.6130  177.2240  142.2370 C   0  0  0  0  0  0  0  0  0  0  0  0
  186.9930  177.3190  146.1540 N   0  0  2  0  0  0  0  0  0  0  0  0
  189.6290  176.6880  143.6630 C   0  0  0  0  0  2  0  0  0  0  0  0
  187.1040  178.7280  146.5840 C   0  0  0  0  0  2  0  0  0  0  0  0
  186.0240  178.2940  142.1710 C   0  0  0  0  0  3  0  0  0  0  0  0
  184.9060  178.2650  143.0800 N   0  0  0  0  0  0  0  0  0  0  0  0
  188.4140  177.7510  141.6820 C   0  0  0  0  0  0  0  0  0  0  0  0
  188.3430  176.8490  145.7630 C   0  0  2  0  0  3  0  0  0  0  0  0
  185.7770  179.4590  146.5410 C   0  0  0  0  0  2  0  0  0  0  0  0
  190.7470  177.6320  140.1380 C   0  0  0  0  0  3  0  0  0  0  0  0
  188.4070  178.2270  140.3650 C   0  0  0  0  0  3  0  0  0  0  0  0
  182.0160  178.9030  140.7460 C   0  0  0  0  0  0  0  0  0  0  0  0
  181.7590  179.0750  139.4290 F   0  0  0  0  0  0  0  0  0  0  0  0
  182.5040  178.5720  143.4810 C   0  0  0  0  0  3  0  0  0  0  0  0
  180.9610  178.9670  141.6580 C   0  0  0  0  0  3  0  0  0  0  0  0
  183.5790  178.5010  142.5800 C   0  0  0  0  0  0  0  0  0  0  0  0
  183.3260  178.6660  141.1960 C   0  0  0  0  0  0  0  0  0  0  0  0
  184.4230  178.5530  140.1870 C   0  0  0  0  0  1  0  0  0  0  0  0
  181.2040  178.7950  143.0230 C   0  0  0  0  0  0  0  0  0  0  0  0
  178.9310  180.0640  143.1760 C   0  0  0  0  0  1  0  0  0  0  0  0
  179.8540  178.8790  144.1910 S   0  0  0  0  0  0  0  0  0  0  0  0
  190.4720  176.4610  146.8420 N   0  0  0  0  0  0  0  0  0  0  0  0
  189.4430  177.2110  146.7250 C   0  0  0  0  0  3  0  0  0  0  0  0
  191.5160  176.8120  147.7640 C   0  0  0  0  0  1  0  0  0  0  0  0
  1  4  1  0  0  0  0
  1  3  1  6  0  0  0
  2  7  1  6  0  0  0
  2  5  1  0  0  0  0
  2  4  1  0  0  0  0
  3 17  1  0  0  0  0
  4 10  1  0  0  0  0
  5 16  1  0  0  0  0
  6 18  2  0  0  0  0
  6 19  1  0  0  0  0
  8  9  2  0  0  0  0
  9 11  1  0  0  0  0
 10 12  1  0  0  0  0
 11  5  1  0  0  0  0
 13  7  2  0  0  0  0
 13 14  1  0  0  0  0
 14  1  1  0  0  0  0
 15  9  1  0  0  0  0
 15  7  1  0  0  0  0
 16 10  1  0  0  0  0
 16 31  1  0  0  0  0
 17 12  1  0  0  0  0
 18  8  1  0  0  0  0
 19 15  2  0  0  0  0
 20 25  2  0  0  0  0
 20 23  1  0  0  0  0
 21 20  1  0  0  0  0
 23 27  2  0  0  0  0
 24 14  1  0  0  0  0
 24 22  2  0  0  0  0
 25 24  1  0  0  0  0
 26 25  1  0  0  0  0
 27 22  1  0  0  0  0
 27 29  1  0  0  0  0
 28 29  1  0  0  0  0
 30 32  1  0  0  0  0
 31 30  2  0  0  0  0
M  END
>  <MODEL>
3

>  <REMARK>
 VINA RESULT:      -8.8      3.699      6.603
  Name = 
  3 active torsions:
  status: ('A' for Active; 'I' for Inactive)
    1  A    between atoms: S_15  and  C_26
    2  A    between atoms: C_18  and  C_29
    3  A    between atoms: C_20  and  N_27
                            x       y       z     vdW  Elec       q    Type
                         _______ _______ _______ _____ _____    ______ ____

>  <TORSDO>
F 3

$$$$
=
 OpenBabel11052414403D

 32 37  0  0  1  0  0  0  0  0999 V2000
  185.2890  178.2050  144.5720 C   0  0  2  0  0  3  0  0  0  0  0  0
  187.4490  176.9970  143.8160 C   0  0  2  0  0  3  0  0  0  0  0  0
  185.5770  179.5940  145.1180 C   0  0  0  0  0  2  0  0  0  0  0  0
  186.4050  177.1740  144.8950 C   0  0  1  0  0  3  0  0  0  0  0  0
  188.7160  177.3280  144.4210 N   0  0  2  0  0  0  0  0  0  0  0  0
  189.6420  178.0900  139.5700 C   0  0  0  0  0  3  0  0  0  0  0  0
  187.3070  177.7420  142.5400 C   0  0  0  0  0  0  0  0  0  0  0  0
  190.8510  177.0740  141.4130 C   0  0  0  0  0  3  0  0  0  0  0  0
  189.7080  177.1570  142.2140 C   0  0  0  0  0  0  0  0  0  0  0  0
  187.1510  177.3110  146.1710 N   0  0  2  0  0  0  0  0  0  0  0  0
  189.7380  176.6270  143.6430 C   0  0  0  0  0  2  0  0  0  0  0  0
  187.2910  178.7200  146.5930 C   0  0  0  0  0  2  0  0  0  0  0  0
  186.1370  178.2840  142.1990 C   0  0  0  0  0  3  0  0  0  0  0  0
  185.0320  178.2760  143.1250 N   0  0  0  0  0  0  0  0  0  0  0  0
  188.5090  177.7010  141.6760 C   0  0  0  0  0  0  0  0  0  0  0  0
  188.4880  176.8170  145.7610 C   0  0  2  0  0  3  0  0  0  0  0  0
  185.9760  179.4720  146.5660 C   0  0  0  0  0  2  0  0  0  0  0  0
  190.8160  177.5380  140.0960 C   0  0  0  0  0  3  0  0  0  0  0  0
  188.4900  178.1710  140.3570 C   0  0  0  0  0  3  0  0  0  0  0  0
  181.3350  179.0020  143.0260 C   0  0  0  0  0  0  0  0  0  0  0  0
  180.2920  179.2140  143.8620 F   0  0  0  0  0  0  0  0  0  0  0  0
  183.4580  178.5510  141.2620 C   0  0  0  0  0  3  0  0  0  0  0  0
  181.1160  179.0210  141.6480 C   0  0  0  0  0  3  0  0  0  0  0  0
  183.7010  178.5310  142.6440 C   0  0  0  0  0  0  0  0  0  0  0  0
  182.6230  178.7640  143.5340 C   0  0  0  0  0  0  0  0  0  0  0  0
  182.8320  178.8020  145.0140 C   0  0  0  0  0  1  0  0  0  0  0  0
  182.1770  178.8020  140.7660 C   0  0  0  0  0  0  0  0  0  0  0  0
  183.6680  178.7130  138.6280 C   0  0  0  0  0  1  0  0  0  0  0  0
  181.8960  178.8230  139.0020 S   0  0  0  0  0  0  0  0  0  0  0  0
  190.5870  176.3610  146.8700 N   0  0  0  0  0  0  0  0  0  0  0  0
  189.6080  177.1670  146.7050 C   0  0  0  0  0  3  0  0  0  0  0  0
  191.6510  176.7000  147.7740 C   0  0  0  0  0  1  0  0  0  0  0  0
  1  4  1  0  0  0  0
  1  3  1  6  0  0  0
  2  7  1  6  0  0  0
  2  5  1  0  0  0  0
  2  4  1  0  0  0  0
  3 17  1  0  0  0  0
  4 10  1  0  0  0  0
  5 16  1  0  0  0  0
  6 18  2  0  0  0  0
  6 19  1  0  0  0  0
  8  9  2  0  0  0  0
  9 11  1  0  0  0  0
 10 12  1  0  0  0  0
 11  5  1  0  0  0  0
 13  7  2  0  0  0  0
 13 14  1  0  0  0  0
 14  1  1  0  0  0  0
 15  9  1  0  0  0  0
 15  7  1  0  0  0  0
 16 10  1  0  0  0  0
 16 31  1  0  0  0  0
 17 12  1  0  0  0  0
 18  8  1  0  0  0  0
 19 15  2  0  0  0  0
 20 25  1  0  0  0  0
 20 21  1  0  0  0  0
 22 24  1  0  0  0  0
 23 20  2  0  0  0  0
 24 14  1  0  0  0  0
 24 25  2  0  0  0  0
 25 26  1  0  0  0  0
 27 22  2  0  0  0  0
 27 23  1  0  0  0  0
 28 29  1  0  0  0  0
 29 27  1  0  0  0  0
 30 32  1  0  0  0  0
 31 30  2  0  0  0  0
M  END
>  <MODEL>
4

>  <REMARK>
 VINA RESULT:      -8.4      3.383      6.191
  Name = 
  3 active torsions:
  status: ('A' for Active; 'I' for Inactive)
    1  A    between atoms: S_15  and  C_26
    2  A    between atoms: C_18  and  C_29
    3  A    between atoms: C_20  and  N_27
                            x       y       z     vdW  Elec       q    Type
                         _______ _______ _______ _____ _____    ______ ____

>  <TORSDO>
F 3

$$$$
=
 OpenBabel11052414403D

 32 37  0  0  1  0  0  0  0  0999 V2000
  189.2710  177.5920  143.4490 C   0  0  2  0  0  3  0  0  0  0  0  0
  188.7670  176.8620  141.0170 C   0  0  2  0  0  3  0  0  0  0  0  0
  190.0570  178.8930  143.4990 C   0  0  0  0  0  2  0  0  0  0  0  0
  189.6440  176.6950  142.2360 C   0  0  1  0  0  3  0  0  0  0  0  0
  189.6390  177.2650  139.9420 N   0  0  2  0  0  0  0  0  0  0  0  0
  185.2100  178.9830  138.3940 C   0  0  0  0  0  3  0  0  0  0  0  0
  187.6080  177.7880  141.0800 C   0  0  0  0  0  0  0  0  0  0  0  0
  187.0790  177.8510  137.3390 C   0  0  0  0  0  3  0  0  0  0  0  0
  187.6560  177.6260  138.5930 C   0  0  0  0  0  0  0  0  0  0  0  0
  191.0440  176.7160  141.7410 N   0  0  2  0  0  0  0  0  0  0  0  0
  188.9730  176.8670  138.7010 C   0  0  0  0  0  2  0  0  0  0  0  0
  191.6840  178.0360  141.9190 C   0  0  0  0  0  2  0  0  0  0  0  0
  187.1360  178.2040  142.2570 C   0  0  0  0  0  3  0  0  0  0  0  0
  187.8280  177.8740  143.4770 N   0  0  0  0  0  0  0  0  0  0  0  0
  186.9870  178.0740  139.7660 C   0  0  0  0  0  0  0  0  0  0  0  0
  190.8240  176.5020  140.2910 C   0  0  2  0  0  3  0  0  0  0  0  0
  191.5210  178.5810  143.3240 C   0  0  0  0  0  2  0  0  0  0  0  0
  185.8610  178.5260  137.2420 C   0  0  0  0  0  3  0  0  0  0  0  0
  185.7700  178.7580  139.6550 C   0  0  0  0  0  3  0  0  0  0  0  0
  185.1300  178.4000  146.0570 C   0  0  0  0  0  0  0  0  0  0  0  0
  183.8040  178.6550  146.1400 F   0  0  0  0  0  0  0  0  0  0  0  0
  187.8780  177.8930  145.9310 C   0  0  0  0  0  3  0  0  0  0  0  0
  185.8740  178.2760  147.2320 C   0  0  0  0  0  3  0  0  0  0  0  0
  187.1490  178.0110  144.7370 C   0  0  0  0  0  0  0  0  0  0  0  0
  185.7570  178.2650  144.8060 C   0  0  0  0  0  0  0  0  0  0  0  0
  184.9210  178.3530  143.5690 C   0  0  0  0  0  1  0  0  0  0  0  0
  187.2450  178.0160  147.1690 C   0  0  0  0  0  0  0  0  0  0  0  0
  189.7150  177.4380  147.7740 C   0  0  0  0  0  1  0  0  0  0  0  0
  188.1970  177.8590  148.6730 S   0  0  0  0  0  0  0  0  0  0  0  0
  192.2210  176.1820  138.3430 N   0  0  0  0  0  0  0  0  0  0  0  0
  192.0010  176.8430  139.4160 C   0  0  0  0  0  3  0  0  0  0  0  0
  193.3470  176.5110  137.5140 C   0  0  0  0  0  1  0  0  0  0  0  0
  1 14  1  0  0  0  0
  1  3  1  6  0  0  0
  2  7  1  1  0  0  0
  2  4  1  0  0  0  0
  4  1  1  0  0  0  0
  5 16  1  0  0  0  0
  5  2  1  0  0  0  0
  6 19  1  0  0  0  0
  7 13  2  0  0  0  0
  8  9  2  0  0  0  0
  9 11  1  0  0  0  0
  9 15  1  0  0  0  0
 10 12  1  0  0  0  0
 10  4  1  0  0  0  0
 11  5  1  0  0  0  0
 12 17  1  0  0  0  0
 13 14  1  0  0  0  0
 14 24  1  0  0  0  0
 15  7  1  0  0  0  0
 16 10  1  0  0  0  0
 17  3  1  0  0  0  0
 18  8  1  0  0  0  0
 18  6  2  0  0  0  0
 19 15  2  0  0  0  0
 20 21  1  0  0  0  0
 20 23  1  0  0  0  0
 22 27  1  0  0  0  0
 24 25  1  0  0  0  0
 24 22  2  0  0  0  0
 25 20  2  0  0  0  0
 26 25  1  0  0  0  0
 27 23  2  0  0  0  0
 27 29  1  0  0  0  0
 28 29  1  0  0  0  0
 30 31  2  0  0  0  0
 31 16  1  0  0  0  0
 32 30  1  0  0  0  0
M  END
>  <MODEL>
5

>  <REMARK>
 VINA RESULT:      -8.4      3.311      6.986
  Name = 
  3 active torsions:
  status: ('A' for Active; 'I' for Inactive)
    1  A    between atoms: S_15  and  C_26
    2  A    between atoms: C_18  and  C_29
    3  A    between atoms: C_20  and  N_27
                            x       y       z     vdW  Elec       q    Type
                         _______ _______ _______ _____ _____    ______ ____

>  <TORSDO>
F 3

$$$$
=
 OpenBabel11052414403D

 32 37  0  0  1  0  0  0  0  0999 V2000
  183.9960  178.5410  139.8980 C   0  0  2  0  0  3  0  0  0  0  0  0
  186.3600  178.8030  140.9190 C   0  0  2  0  0  3  0  0  0  0  0  0
  183.7420  177.1230  139.4130 C   0  0  0  0  0  2  0  0  0  0  0  0
  185.4700  178.9990  139.7140 C   0  0  1  0  0  3  0  0  0  0  0  0
  187.4350  177.9410  140.4930 N   0  0  2  0  0  0  0  0  0  0  0  0
  187.3910  177.1920  145.4330 C   0  0  0  0  0  3  0  0  0  0  0  0
  185.7740  178.2690  142.1740 C   0  0  0  0  0  0  0  0  0  0  0  0
  189.1170  177.4960  143.7550 C   0  0  0  0  0  3  0  0  0  0  0  0
  188.1450  177.8360  142.8100 C   0  0  0  0  0  0  0  0  0  0  0  0
  186.2340  178.4820  138.5500 N   0  0  2  0  0  0  0  0  0  0  0  0
  188.5580  178.2100  141.3920 C   0  0  0  0  0  2  0  0  0  0  0  0
  185.8230  177.1150  138.1680 C   0  0  0  0  0  2  0  0  0  0  0  0
  184.4530  178.2800  142.3630 C   0  0  0  0  0  3  0  0  0  0  0  0
  183.5680  178.6790  141.2980 N   0  0  0  0  0  0  0  0  0  0  0  0
  186.7750  177.8700  143.1910 C   0  0  0  0  0  0  0  0  0  0  0  0
  187.5970  178.4100  139.1280 C   0  0  2  0  0  3  0  0  0  0  0  0
  184.3200  176.9740  138.0290 C   0  0  0  0  0  2  0  0  0  0  0  0
  188.7400  177.1760  145.0610 C   0  0  0  0  0  3  0  0  0  0  0  0
  186.4080  177.5390  144.5010 C   0  0  0  0  0  3  0  0  0  0  0  0
  180.3720  179.3460  143.1830 C   0  0  0  0  0  0  0  0  0  0  0  0
  179.8820  179.3230  144.4430 F   0  0  0  0  0  0  0  0  0  0  0  0
  181.3380  179.3910  140.5580 C   0  0  0  0  0  3  0  0  0  0  0  0
  179.5280  179.7090  142.1320 C   0  0  0  0  0  3  0  0  0  0  0  0
  182.2050  179.0260  141.6000 C   0  0  0  0  0  0  0  0  0  0  0  0
  181.7120  179.0080  142.9280 C   0  0  0  0  0  0  0  0  0  0  0  0
  182.6010  178.6740  144.0830 C   0  0  0  0  0  1  0  0  0  0  0  0
  180.0120  179.7370  140.8220 C   0  0  0  0  0  0  0  0  0  0  0  0
  179.9490  181.6330  139.0310 C   0  0  0  0  0  1  0  0  0  0  0  0
  178.9310  180.1990  139.4760 S   0  0  0  0  0  0  0  0  0  0  0  0
  189.0700  178.0070  137.2540 N   0  0  0  0  0  0  0  0  0  0  0  0
  188.5710  177.5690  138.3470 C   0  0  0  0  0  3  0  0  0  0  0  0
  189.9970  177.1980  136.5120 C   0  0  0  0  0  1  0  0  0  0  0  0
  1  3  1  1  0  0  0
  1 14  1  0  0  0  0
  2  7  1  1  0  0  0
  4  1  1  0  0  0  0
  4  2  1  0  0  0  0
  5  2  1  0  0  0  0
  5 11  1  0  0  0  0
  7 13  2  0  0  0  0
  7 15  1  0  0  0  0
  8 18  2  0  0  0  0
  9 15  2  0  0  0  0
  9  8  1  0  0  0  0
 10 16  1  0  0  0  0
 10  4  1  0  0  0  0
 11  9  1  0  0  0  0
 12 10  1  0  0  0  0
 14 24  1  0  0  0  0
 14 13  1  0  0  0  0
 15 19  1  0  0  0  0
 16  5  1  0  0  0  0
 17 12  1  0  0  0  0
 17  3  1  0  0  0  0
 18  6  1  0  0  0  0
 19  6  2  0  0  0  0
 20 21  1  0  0  0  0
 22 27  2  0  0  0  0
 22 24  1  0  0  0  0
 23 20  2  0  0  0  0
 24 25  2  0  0  0  0
 25 20  1  0  0  0  0
 25 26  1  0  0  0  0
 27 23  1  0  0  0  0
 28 29  1  0  0  0  0
 29 27  1  0  0  0  0
 30 31  2  0  0  0  0
 31 16  1  0  0  0  0
 32 30  1  0  0  0  0
M  END
>  <MODEL>
6

>  <REMARK>
 VINA RESULT:      -8.2      4.661      8.140
  Name = 
  3 active torsions:
  status: ('A' for Active; 'I' for Inactive)
    1  A    between atoms: S_15  and  C_26
    2  A    between atoms: C_18  and  C_29
    3  A    between atoms: C_20  and  N_27
                            x       y       z     vdW  Elec       q    Type
                         _______ _______ _______ _____ _____    ______ ____

>  <TORSDO>
F 3

$$$$
=
 OpenBabel11052414403D

 32 37  0  0  1  0  0  0  0  0999 V2000
  183.8020  178.6500  139.2170 C   0  0  2  0  0  3  0  0  0  0  0  0
  186.0590  178.8720  140.4640 C   0  0  2  0  0  3  0  0  0  0  0  0
  183.5090  177.2100  138.8270 C   0  0  0  0  0  2  0  0  0  0  0  0
  185.3130  179.0080  139.1570 C   0  0  1  0  0  3  0  0  0  0  0  0
  187.1150  177.9180  140.2310 N   0  0  2  0  0  0  0  0  0  0  0  0
  186.5110  177.6180  145.1820 C   0  0  0  0  0  3  0  0  0  0  0  0
  185.3130  178.4860  141.6880 C   0  0  0  0  0  0  0  0  0  0  0  0
  188.4180  177.6760  143.6820 C   0  0  0  0  0  3  0  0  0  0  0  0
  187.5730  177.9820  142.6120 C   0  0  0  0  0  0  0  0  0  0  0  0
  186.1590  178.3480  138.1300 N   0  0  2  0  0  0  0  0  0  0  0  0
  188.1540  178.2040  141.2210 C   0  0  0  0  0  2  0  0  0  0  0  0
  185.7030  176.9760  137.8220 C   0  0  0  0  0  2  0  0  0  0  0  0
  183.9830  178.5860  141.7310 C   0  0  0  0  0  3  0  0  0  0  0  0
  183.2410  178.9360  140.5470 N   0  0  0  0  0  0  0  0  0  0  0  0
  186.1760  178.1260  142.8370 C   0  0  0  0  0  0  0  0  0  0  0  0
  187.4470  178.2530  138.8580 C   0  0  2  0  0  3  0  0  0  0  0  0
  184.2170  176.9060  137.5320 C   0  0  0  0  0  2  0  0  0  0  0  0
  187.8880  177.4950  144.9620 C   0  0  0  0  0  3  0  0  0  0  0  0
  185.6550  177.9340  144.1230 C   0  0  0  0  0  3  0  0  0  0  0  0
  179.9170  180.5500  139.8000 C   0  0  0  0  0  0  0  0  0  0  0  0
  179.3020  181.2690  138.8330 F   0  0  0  0  0  0  0  0  0  0  0  0
  181.1550  179.0800  141.8330 C   0  0  0  0  0  3  0  0  0  0  0  0
  179.2140  180.2360  140.9640 C   0  0  0  0  0  3  0  0  0  0  0  0
  181.8790  179.3830  140.6690 C   0  0  0  0  0  0  0  0  0  0  0  0
  181.2470  180.1250  139.6410 C   0  0  0  0  0  0  0  0  0  0  0  0
  181.9530  180.4350  138.3600 C   0  0  0  0  0  1  0  0  0  0  0  0
  179.8300  179.4960  141.9770 C   0  0  0  0  0  0  0  0  0  0  0  0
  180.3650  178.2800  144.2210 C   0  0  0  0  0  1  0  0  0  0  0  0
  178.9310  179.0960  143.4680 S   0  0  0  0  0  0  0  0  0  0  0  0
  189.6270  177.6820  137.9810 N   0  0  0  0  0  0  0  0  0  0  0  0
  188.4410  177.2930  138.2590 C   0  0  0  0  0  3  0  0  0  0  0  0
  190.5700  176.7610  137.4090 C   0  0  0  0  0  1  0  0  0  0  0  0
  1  3  1  1  0  0  0
  1 14  1  0  0  0  0
  2  7  1  1  0  0  0
  4  1  1  0  0  0  0
  4  2  1  0  0  0  0
  5  2  1  0  0  0  0
  5 11  1  0  0  0  0
  7 13  2  0  0  0  0
  7 15  1  0  0  0  0
  8 18  2  0  0  0  0
  9 15  2  0  0  0  0
  9  8  1  0  0  0  0
 10 16  1  0  0  0  0
 10  4  1  0  0  0  0
 11  9  1  0  0  0  0
 12 10  1  0  0  0  0
 14 24  1  0  0  0  0
 14 13  1  0  0  0  0
 15 19  1  0  0  0  0
 16  5  1  0  0  0  0
 17 12  1  0  0  0  0
 17  3  1  0  0  0  0
 18  6  1  0  0  0  0
 19  6  2  0  0  0  0
 20 23  1  0  0  0  0
 21 20  1  0  0  0  0
 22 27  1  0  0  0  0
 23 27  2  0  0  0  0
 24 22  2  0  0  0  0
 25 20  2  0  0  0  0
 25 24  1  0  0  0  0
 26 25  1  0  0  0  0
 27 29  1  0  0  0  0
 29 28  1  0  0  0  0
 30 31  2  0  0  0  0
 31 16  1  0  0  0  0
 32 30  1  0  0  0  0
M  END
>  <MODEL>
7

>  <REMARK>
 VINA RESULT:      -8.1      4.859      8.203
  Name = 
  3 active torsions:
  status: ('A' for Active; 'I' for Inactive)
    1  A    between atoms: S_15  and  C_26
    2  A    between atoms: C_18  and  C_29
    3  A    between atoms: C_20  and  N_27
                            x       y       z     vdW  Elec       q    Type
                         _______ _______ _______ _____ _____    ______ ____

>  <TORSDO>
F 3

$$$$
=
 OpenBabel11052414403D

 32 37  0  0  1  0  0  0  0  0999 V2000
  184.5180  178.8070  138.6380 C   0  0  2  0  0  3  0  0  0  0  0  0
  186.4970  178.8810  140.3040 C   0  0  2  0  0  3  0  0  0  0  0  0
  184.1540  177.3820  138.2530 C   0  0  0  0  0  2  0  0  0  0  0  0
  186.0410  179.0110  138.8700 C   0  0  1  0  0  3  0  0  0  0  0  0
  187.4700  177.8160  140.3260 N   0  0  2  0  0  0  0  0  0  0  0  0
  185.8770  177.8700  145.0610 C   0  0  0  0  0  3  0  0  0  0  0  0
  185.4880  178.6430  141.3670 C   0  0  0  0  0  0  0  0  0  0  0  0
  188.0360  177.6530  143.9750 C   0  0  0  0  0  3  0  0  0  0  0  0
  187.4560  177.9760  142.7460 C   0  0  0  0  0  0  0  0  0  0  0  0
  186.9960  178.2120  138.0600 N   0  0  2  0  0  0  0  0  0  0  0  0
  188.3190  178.0580  141.4930 C   0  0  0  0  0  2  0  0  0  0  0  0
  186.4650  176.8760  137.7190 C   0  0  0  0  0  2  0  0  0  0  0  0
  184.1950  178.8740  141.1370 C   0  0  0  0  0  3  0  0  0  0  0  0
  183.7410  179.2250  139.8150 N   0  0  0  0  0  0  0  0  0  0  0  0
  186.0650  178.2680  142.6790 C   0  0  0  0  0  0  0  0  0  0  0  0
  188.0980  178.0350  139.0350 C   0  0  2  0  0  3  0  0  0  0  0  0
  185.0660  176.9340  137.1390 C   0  0  0  0  0  2  0  0  0  0  0  0
  187.2490  177.6010  145.1280 C   0  0  0  0  0  3  0  0  0  0  0  0
  185.2840  178.2050  143.8400 C   0  0  0  0  0  3  0  0  0  0  0  0
  180.0450  179.8970  140.1250 C   0  0  0  0  0  0  0  0  0  0  0  0
  178.9490  179.4200  140.7590 F   0  0  0  0  0  0  0  0  0  0  0  0
  182.2810  180.9040  138.7800 C   0  0  0  0  0  3  0  0  0  0  0  0
  179.9110  180.9880  139.2640 C   0  0  0  0  0  3  0  0  0  0  0  0
  182.4380  179.8080  139.6430 C   0  0  0  0  0  0  0  0  0  0  0  0
  181.3030  179.3040  140.3240 C   0  0  0  0  0  0  0  0  0  0  0  0
  181.4190  178.1700  141.2920 C   0  0  0  0  0  1  0  0  0  0  0  0
  181.0290  181.4950  138.5970 C   0  0  0  0  0  0  0  0  0  0  0  0
  180.5670  181.8280  136.0520 C   0  0  0  0  0  1  0  0  0  0  0  0
  180.8570  182.8900  137.4940 S   0  0  0  0  0  0  0  0  0  0  0  0
  190.3240  177.2210  138.5560 N   0  0  0  0  0  0  0  0  0  0  0  0
  189.0820  176.9490  138.6870 C   0  0  0  0  0  3  0  0  0  0  0  0
  191.2560  176.1800  138.2220 C   0  0  0  0  0  1  0  0  0  0  0  0
  1  3  1  1  0  0  0
  1  4  1  0  0  0  0
  1 14  1  0  0  0  0
  2  5  1  0  0  0  0
  2  7  1  1  0  0  0
  4  2  1  0  0  0  0
  5 11  1  0  0  0  0
  6 18  1  0  0  0  0
  7 15  1  0  0  0  0
  8 18  2  0  0  0  0
  9  8  1  0  0  0  0
 10  4  1  0  0  0  0
 10 16  1  0  0  0  0
 11  9  1  0  0  0  0
 12 10  1  0  0  0  0
 13  7  2  0  0  0  0
 14 13  1  0  0  0  0
 15  9  2  0  0  0  0
 15 19  1  0  0  0  0
 16  5  1  0  0  0  0
 17 12  1  0  0  0  0
 17  3  1  0  0  0  0
 19  6  2  0  0  0  0
 20 25  1  0  0  0  0
 20 21  1  0  0  0  0
 22 24  1  0  0  0  0
 23 20  2  0  0  0  0
 24 14  1  0  0  0  0
 24 25  2  0  0  0  0
 25 26  1  0  0  0  0
 27 22  2  0  0  0  0
 27 23  1  0  0  0  0
 28 29  1  0  0  0  0
 29 27  1  0  0  0  0
 30 31  2  0  0  0  0
 31 16  1  0  0  0  0
 32 30  1  0  0  0  0
M  END
>  <MODEL>
8

>  <REMARK>
 VINA RESULT:      -7.9      4.832      7.787
  Name = 
  3 active torsions:
  status: ('A' for Active; 'I' for Inactive)
    1  A    between atoms: S_15  and  C_26
    2  A    between atoms: C_18  and  C_29
    3  A    between atoms: C_20  and  N_27
                            x       y       z     vdW  Elec       q    Type
                         _______ _______ _______ _____ _____    ______ ____

>  <TORSDO>
F 3

$$$$
=
 OpenBabel11052414403D

 32 37  0  0  1  0  0  0  0  0999 V2000
  187.2260  178.2250  143.2860 C   0  0  2  0  0  3  0  0  0  0  0  0
  187.7540  178.6460  140.7870 C   0  0  2  0  0  3  0  0  0  0  0  0
  186.1890  177.1280  143.4690 C   0  0  0  0  0  2  0  0  0  0  0  0
  186.9900  179.0870  142.0140 C   0  0  1  0  0  3  0  0  0  0  0  0
  186.7660  178.3570  139.7770 N   0  0  2  0  0  0  0  0  0  0  0  0
  190.6600  175.6280  138.2410 C   0  0  0  0  0  3  0  0  0  0  0  0
  188.6960  177.5030  140.8910 C   0  0  0  0  0  0  0  0  0  0  0  0
  189.0190  177.0480  137.1540 C   0  0  0  0  0  3  0  0  0  0  0  0
  188.5630  177.4830  138.4020 C   0  0  0  0  0  0  0  0  0  0  0  0
  185.5940  179.3250  141.5660 N   0  0  2  0  0  0  0  0  0  0  0  0
  187.4400  178.5100  138.4870 C   0  0  0  0  0  2  0  0  0  0  0  0
  184.7020  178.1880  141.8740 C   0  0  0  0  0  2  0  0  0  0  0  0
  189.1270  177.0870  142.0830 C   0  0  0  0  0  3  0  0  0  0  0  0
  188.5790  177.6470  143.2930 N   0  0  0  0  0  0  0  0  0  0  0  0
  189.1790  176.9940  139.5870 C   0  0  0  0  0  0  0  0  0  0  0  0
  185.7840  179.3780  140.0970 C   0  0  2  0  0  3  0  0  0  0  0  0
  184.8160  177.7290  143.3140 C   0  0  0  0  0  2  0  0  0  0  0  0
  190.0640  176.1240  137.0760 C   0  0  0  0  0  3  0  0  0  0  0  0
  190.2200  176.0620  139.4950 C   0  0  0  0  0  3  0  0  0  0  0  0
  191.2060  176.7080  145.8270 C   0  0  0  0  0  0  0  0  0  0  0  0
  192.4310  176.1370  145.8950 F   0  0  0  0  0  0  0  0  0  0  0  0
  188.6660  177.8770  145.7350 C   0  0  0  0  0  3  0  0  0  0  0  0
  190.5850  177.1280  147.0050 C   0  0  0  0  0  3  0  0  0  0  0  0
  189.2740  177.4650  144.5380 C   0  0  0  0  0  0  0  0  0  0  0  0
  190.5610  176.8760  144.5900 C   0  0  0  0  0  0  0  0  0  0  0  0
  191.2770  176.4620  143.3440 C   0  0  0  0  0  1  0  0  0  0  0  0
  189.3200  177.7170  146.9580 C   0  0  0  0  0  0  0  0  0  0  0  0
  186.8880  178.3180  147.6850 C   0  0  0  0  0  1  0  0  0  0  0  0
  188.5240  178.2520  148.4660 S   0  0  0  0  0  0  0  0  0  0  0  0
  183.7480  180.2320  139.1120 N   0  0  0  0  0  0  0  0  0  0  0  0
  184.5210  179.2290  139.2910 C   0  0  0  0  0  3  0  0  0  0  0  0
  182.5440  180.0820  138.3430 C   0  0  0  0  0  1  0  0  0  0  0  0
  1 14  1  0  0  0  0
  1  3  1  6  0  0  0
  2  7  1  1  0  0  0
  2  4  1  0  0  0  0
  4  1  1  0  0  0  0
  5 16  1  0  0  0  0
  5  2  1  0  0  0  0
  6 19  1  0  0  0  0
  7 13  2  0  0  0  0
  8  9  2  0  0  0  0
  9 11  1  0  0  0  0
  9 15  1  0  0  0  0
 10 12  1  0  0  0  0
 10  4  1  0  0  0  0
 11  5  1  0  0  0  0
 12 17  1  0  0  0  0
 13 14  1  0  0  0  0
 14 24  1  0  0  0  0
 15  7  1  0  0  0  0
 16 10  1  0  0  0  0
 17  3  1  0  0  0  0
 18  8  1  0  0  0  0
 18  6  2  0  0  0  0
 19 15  2  0  0  0  0
 20 21  1  0  0  0  0
 20 23  1  0  0  0  0
 22 27  1  0  0  0  0
 24 25  1  0  0  0  0
 24 22  2  0  0  0  0
 25 20  2  0  0  0  0
 26 25  1  0  0  0  0
 27 23  2  0  0  0  0
 27 29  1  0  0  0  0
 28 29  1  0  0  0  0
 30 31  2  0  0  0  0
 31 16  1  0  0  0  0
 32 30  1  0  0  0  0
M  END
>  <MODEL>
9

>  <REMARK>
 VINA RESULT:      -7.8      3.476      8.222
  Name = 
  3 active torsions:
  status: ('A' for Active; 'I' for Inactive)
    1  A    between atoms: S_15  and  C_26
    2  A    between atoms: C_18  and  C_29
    3  A    between atoms: C_20  and  N_27
                            x       y       z     vdW  Elec       q    Type
                         _______ _______ _______ _____ _____    ______ ____

>  <TORSDO>
F 3

$$$$
