=
 OpenBabel11052412483D

 25 28  0  0  1  0  0  0  0  0999 V2000
  187.4000  177.8370  145.8070 C   0  0  0  0  0  0  0  0  0  0  0  0
  186.4610  177.9010  144.7610 C   0  0  0  0  0  0  0  0  0  0  0  0
  185.7290  178.6480  147.3680 C   0  0  0  0  0  3  0  0  0  0  0  0
  188.7440  177.4230  145.7580 C   0  0  0  0  0  0  0  0  0  0  0  0
  186.4610  178.3740  141.0430 N   0  0  0  0  0  2  0  0  0  0  0  0
  191.4230  176.6840  146.0550 C   0  0  0  0  0  3  0  0  0  0  0  0
  184.8280  178.7000  146.3480 N   0  0  0  0  0  0  0  0  0  0  0  0
  189.3730  177.4920  147.0000 C   0  0  0  0  0  0  0  0  0  0  0  0
  190.7050  177.1300  147.1750 C   0  0  0  0  0  3  0  0  0  0  0  0
  184.1220  178.3760  143.9690 C   0  0  1  0  0  3  0  0  0  0  0  0
  183.0690  179.4450  144.2030 C   0  0  0  0  0  1  0  0  0  0  0  0
  186.7750  177.4410  143.3640 C   0  0  0  0  0  2  0  0  0  0  0  0
  190.8020  176.6100  144.7950 C   0  0  0  0  0  3  0  0  0  0  0  0
  187.0210  178.2180  147.0910 C   0  0  0  0  0  0  0  0  0  0  0  0
  188.3030  178.0560  148.1730 S   0  0  0  0  0  0  0  0  0  0  0  0
  184.7410  178.5900  142.6600 N   0  0  0  0  0  0  0  0  0  0  0  0
  189.4570  176.9800  144.6390 C   0  0  0  0  0  3  0  0  0  0  0  0
  185.9330  178.1650  142.3520 C   0  0  0  0  0  0  0  0  0  0  0  0
  185.1590  178.3580  145.0650 C   0  0  0  0  0  0  0  0  0  0  0  0
  185.7130  179.0650  140.0030 C   0  0  0  0  0  2  0  0  0  0  0  0
  185.8940  178.3400  138.6870 C   0  0  0  0  0  2  0  0  0  0  0  0
  187.3380  177.8970  138.5500 C   0  0  0  0  0  2  0  0  0  0  0  0
  188.1170  178.9460  137.9150 N   0  0  0  0  0  0  0  0  0  0  0  0
  189.3000  178.3100  137.3650 C   0  0  0  0  0  1  0  0  0  0  0  0
  187.3930  179.3920  136.8600 O   0  0  0  0  0  1  0  0  0  0  0  0
  1 14  2  0  0  0  0
  2 19  2  0  0  0  0
  2  1  1  0  0  0  0
  4  1  1  0  0  0  0
  4  8  1  0  0  0  0
  5 18  1  0  0  0  0
  6  9  1  0  0  0  0
  7  3  2  0  0  0  0
  8  9  2  0  0  0  0
  8 15  1  0  0  0  0
 10 11  1  1  0  0  0
 10 19  1  0  0  0  0
 12  2  1  0  0  0  0
 13  6  2  0  0  0  0
 14  3  1  0  0  0  0
 14 15  1  0  0  0  0
 16 10  1  0  0  0  0
 17 13  1  0  0  0  0
 17  4  2  0  0  0  0
 18 16  2  0  0  0  0
 18 12  1  0  0  0  0
 19  7  1  0  0  0  0
 20  5  1  0  0  0  0
 21 20  1  0  0  0  0
 22 21  1  0  0  0  0
 23 22  1  0  0  0  0
 24 23  1  0  0  0  0
 25 23  1  0  0  0  0
M  END
>  <MODEL>
1

>  <REMARK>
 VINA RESULT:      -9.0      0.000      0.000
  Name = 
  4 active torsions:
  status: ('A' for Active; 'I' for Inactive)
    1  A    between atoms: N_2  and  C_25
    2  A    between atoms: N_6  and  C_15
    3  A    between atoms: C_15  and  C_21
    4  A    between atoms: C_21  and  C_25
                            x       y       z     vdW  Elec       q    Type
                         _______ _______ _______ _____ _____    ______ ____

>  <TORSDO>
F 4

$$$$
=
 OpenBabel11052412483D

 25 28  0  0  1  0  0  0  0  0999 V2000
  188.1490  177.6080  145.9080 C   0  0  0  0  0  0  0  0  0  0  0  0
  187.4890  177.6020  144.6660 C   0  0  0  0  0  0  0  0  0  0  0  0
  186.1700  178.5300  146.9650 C   0  0  0  0  0  3  0  0  0  0  0  0
  189.4580  177.1890  146.2100 C   0  0  0  0  0  0  0  0  0  0  0  0
  188.3870  177.8170  141.0320 N   0  0  0  0  0  2  0  0  0  0  0  0
  191.9740  176.4660  147.1890 C   0  0  0  0  0  3  0  0  0  0  0  0
  185.5400  178.5130  145.7570 N   0  0  0  0  0  0  0  0  0  0  0  0
  189.7730  177.3420  147.5590 C   0  0  0  0  0  0  0  0  0  0  0  0
  191.0180  176.9900  148.0720 C   0  0  0  0  0  3  0  0  0  0  0  0
  185.4160  178.0270  143.3050 C   0  0  1  0  0  3  0  0  0  0  0  0
  184.3580  179.1120  143.2090 C   0  0  0  0  0  1  0  0  0  0  0  0
  188.1200  177.0460  143.4180 C   0  0  0  0  0  2  0  0  0  0  0  0
  191.6710  176.3070  145.8250 C   0  0  0  0  0  3  0  0  0  0  0  0
  187.4820  178.0780  147.0350 C   0  0  0  0  0  0  0  0  0  0  0  0
  188.4640  177.9890  148.4020 S   0  0  0  0  0  0  0  0  0  0  0  0
  186.3350  178.1490  142.1710 N   0  0  0  0  0  0  0  0  0  0  0  0
  190.4090  176.6680  145.3270 C   0  0  0  0  0  3  0  0  0  0  0  0
  187.5580  177.7000  142.1880 C   0  0  0  0  0  0  0  0  0  0  0  0
  186.1620  178.0820  144.6170 C   0  0  0  0  0  0  0  0  0  0  0  0
  187.9230  178.4360  139.8000 C   0  0  0  0  0  2  0  0  0  0  0  0
  189.0590  178.4810  138.8010 C   0  0  0  0  0  2  0  0  0  0  0  0
  190.0740  177.4080  139.1440 C   0  0  0  0  0  2  0  0  0  0  0  0
  189.9210  176.2790  138.2430 N   0  0  0  0  0  0  0  0  0  0  0  0
  190.2670  176.7560  136.9160 C   0  0  0  0  0  1  0  0  0  0  0  0
  190.8650  175.3710  138.5850 O   0  0  0  0  0  1  0  0  0  0  0  0
  1  4  1  0  0  0  0
  1 14  2  0  0  0  0
  2  1  1  0  0  0  0
  3 14  1  0  0  0  0
  4  8  1  0  0  0  0
  5 18  1  0  0  0  0
  6  9  1  0  0  0  0
  7  3  2  0  0  0  0
  8  9  2  0  0  0  0
  8 15  1  0  0  0  0
 10 11  1  1  0  0  0
 10 19  1  0  0  0  0
 12  2  1  0  0  0  0
 13  6  2  0  0  0  0
 14 15  1  0  0  0  0
 16 18  2  0  0  0  0
 16 10  1  0  0  0  0
 17 13  1  0  0  0  0
 17  4  2  0  0  0  0
 18 12  1  0  0  0  0
 19  2  2  0  0  0  0
 19  7  1  0  0  0  0
 20  5  1  0  0  0  0
 21 22  1  0  0  0  0
 21 20  1  0  0  0  0
 23 25  1  0  0  0  0
 23 22  1  0  0  0  0
 24 23  1  0  0  0  0
M  END
>  <MODEL>
2

>  <REMARK>
 VINA RESULT:      -8.9      1.741      1.973
  Name = 
  4 active torsions:
  status: ('A' for Active; 'I' for Inactive)
    1  A    between atoms: N_2  and  C_25
    2  A    between atoms: N_6  and  C_15
    3  A    between atoms: C_15  and  C_21
    4  A    between atoms: C_21  and  C_25
                            x       y       z     vdW  Elec       q    Type
                         _______ _______ _______ _____ _____    ______ ____

>  <TORSDO>
F 4

$$$$
=
 OpenBabel11052412483D

 25 28  0  0  1  0  0  0  0  0999 V2000
  186.3850  178.1500  144.2840 C   0  0  0  0  0  0  0  0  0  0  0  0
  186.4180  178.0860  142.8800 C   0  0  0  0  0  0  0  0  0  0  0  0
  184.1080  178.9830  144.2020 C   0  0  0  0  0  3  0  0  0  0  0  0
  187.3930  177.8070  145.2040 C   0  0  0  0  0  0  0  0  0  0  0  0
  188.9690  178.2820  140.1400 N   0  0  0  0  0  2  0  0  0  0  0  0
  189.1340  177.2380  147.3150 C   0  0  0  0  0  3  0  0  0  0  0  0
  184.1500  178.9110  142.8430 N   0  0  0  0  0  0  0  0  0  0  0  0
  187.0020  178.0010  146.5280 C   0  0  0  0  0  0  0  0  0  0  0  0
  187.8490  177.7260  147.5970 C   0  0  0  0  0  3  0  0  0  0  0  0
  185.2600  178.3740  140.6650 C   0  0  1  0  0  3  0  0  0  0  0  0
  184.3450  179.4000  140.0190 C   0  0  0  0  0  1  0  0  0  0  0  0
  187.5980  177.5420  142.1230 C   0  0  0  0  0  2  0  0  0  0  0  0
  189.5430  177.0370  145.9850 C   0  0  0  0  0  3  0  0  0  0  0  0
  185.2340  178.6040  144.9220 C   0  0  0  0  0  0  0  0  0  0  0  0
  185.4250  178.5920  146.5970 S   0  0  0  0  0  0  0  0  0  0  0  0
  186.6110  178.5250  140.1190 N   0  0  0  0  0  0  0  0  0  0  0  0
  188.6740  177.3210  144.9200 C   0  0  0  0  0  3  0  0  0  0  0  0
  187.6850  178.1420  140.7480 C   0  0  0  0  0  0  0  0  0  0  0  0
  185.2660  178.4930  142.1700 C   0  0  0  0  0  0  0  0  0  0  0  0
  189.1440  178.8530  138.8140 C   0  0  0  0  0  2  0  0  0  0  0  0
  189.5640  177.7650  137.8490 C   0  0  0  0  0  2  0  0  0  0  0  0
  190.6650  176.9340  138.4770 C   0  0  0  0  0  2  0  0  0  0  0  0
  190.3060  175.5270  138.4340 N   0  0  0  0  0  0  0  0  0  0  0  0
  189.4490  175.3520  137.2750 C   0  0  0  0  0  1  0  0  0  0  0  0
  191.4430  174.8370  138.1810 O   0  0  0  0  0  1  0  0  0  0  0  0
  1 14  2  0  0  0  0
  1  4  1  0  0  0  0
  2  1  1  0  0  0  0
  3 14  1  0  0  0  0
  4  8  1  0  0  0  0
  5 18  1  0  0  0  0
  6  9  1  0  0  0  0
  7  3  2  0  0  0  0
  8 15  1  0  0  0  0
  8  9  2  0  0  0  0
 10 11  1  6  0  0  0
 10 19  1  0  0  0  0
 12  2  1  0  0  0  0
 13  6  2  0  0  0  0
 14 15  1  0  0  0  0
 16 10  1  0  0  0  0
 16 18  2  0  0  0  0
 17  4  2  0  0  0  0
 17 13  1  0  0  0  0
 18 12  1  0  0  0  0
 19  7  1  0  0  0  0
 19  2  2  0  0  0  0
 20  5  1  0  0  0  0
 21 22  1  0  0  0  0
 21 20  1  0  0  0  0
 23 22  1  0  0  0  0
 24 23  1  0  0  0  0
 25 23  1  0  0  0  0
M  END
>  <MODEL>
3

>  <REMARK>
 VINA RESULT:      -8.7      2.068      3.154
  Name = 
  4 active torsions:
  status: ('A' for Active; 'I' for Inactive)
    1  A    between atoms: N_2  and  C_25
    2  A    between atoms: N_6  and  C_15
    3  A    between atoms: C_15  and  C_21
    4  A    between atoms: C_21  and  C_25
                            x       y       z     vdW  Elec       q    Type
                         _______ _______ _______ _____ _____    ______ ____

>  <TORSDO>
F 4

$$$$
=
 OpenBabel11052412483D

 25 28  0  0  1  0  0  0  0  0999 V2000
  189.1600  177.4760  143.4190 C   0  0  0  0  0  0  0  0  0  0  0  0
  187.9130  177.5590  144.0650 C   0  0  0  0  0  0  0  0  0  0  0  0
  190.2790  177.3940  145.5700 C   0  0  0  0  0  3  0  0  0  0  0  0
  189.4360  177.4560  142.0390 C   0  0  0  0  0  0  0  0  0  0  0  0
  184.5030  178.9530  143.3730 N   0  0  0  0  0  2  0  0  0  0  0  0
  190.3710  177.3930  139.4070 C   0  0  0  0  0  3  0  0  0  0  0  0
  189.0650  177.4680  146.1830 N   0  0  0  0  0  0  0  0  0  0  0  0
  190.7990  177.3660  141.7650 C   0  0  0  0  0  0  0  0  0  0  0  0
  191.2910  177.3330  140.4640 C   0  0  0  0  0  3  0  0  0  0  0  0
  186.5650  177.5920  146.1890 C   0  0  1  0  0  3  0  0  0  0  0  0
  186.6650  178.2510  147.5530 C   0  0  0  0  0  1  0  0  0  0  0  0
  186.6120  177.5710  143.3110 C   0  0  0  0  0  2  0  0  0  0  0  0
  188.9920  177.4850  139.6670 C   0  0  0  0  0  3  0  0  0  0  0  0
  190.3220  177.4030  144.1810 C   0  0  0  0  0  0  0  0  0  0  0  0
  191.6870  177.3100  143.1970 S   0  0  0  0  0  0  0  0  0  0  0  0
  185.5550  178.2890  145.3910 N   0  0  0  0  0  0  0  0  0  0  0  0
  188.5160  177.5170  140.9870 C   0  0  0  0  0  3  0  0  0  0  0  0
  185.5410  178.2840  144.0880 C   0  0  0  0  0  0  0  0  0  0  0  0
  187.8960  177.5660  145.4780 C   0  0  0  0  0  0  0  0  0  0  0  0
  183.4290  179.6670  144.0460 C   0  0  0  0  0  2  0  0  0  0  0  0
  182.1560  178.8500  143.9690 C   0  0  0  0  0  2  0  0  0  0  0  0
  181.5430  179.0020  142.5910 C   0  0  0  0  0  2  0  0  0  0  0  0
  180.1340  179.3350  142.7120 N   0  0  0  0  0  0  0  0  0  0  0  0
  179.6800  178.7690  143.9690 C   0  0  0  0  0  1  0  0  0  0  0  0
  180.0570  180.6800  142.8440 O   0  0  0  0  0  1  0  0  0  0  0  0
  1  2  2  0  0  0  0
  1 14  1  0  0  0  0
  2 19  1  0  0  0  0
  3  7  1  0  0  0  0
  4  1  1  0  0  0  0
  5 20  1  0  0  0  0
  5 18  1  0  0  0  0
  6 13  2  0  0  0  0
  6  9  1  0  0  0  0
  8  4  1  0  0  0  0
  8 15  1  0  0  0  0
  9  8  2  0  0  0  0
 10 11  1  1  0  0  0
 12  2  1  0  0  0  0
 12 18  1  0  0  0  0
 13 17  1  0  0  0  0
 14  3  2  0  0  0  0
 15 14  1  0  0  0  0
 16 10  1  0  0  0  0
 17  4  2  0  0  0  0
 18 16  2  0  0  0  0
 19  7  2  0  0  0  0
 19 10  1  0  0  0  0
 21 20  1  0  0  0  0
 22 23  1  0  0  0  0
 22 21  1  0  0  0  0
 23 25  1  0  0  0  0
 23 24  1  0  0  0  0
M  END
>  <MODEL>
4

>  <REMARK>
 VINA RESULT:      -8.4      3.152      5.619
  Name = 
  4 active torsions:
  status: ('A' for Active; 'I' for Inactive)
    1  A    between atoms: N_2  and  C_25
    2  A    between atoms: N_6  and  C_15
    3  A    between atoms: C_15  and  C_21
    4  A    between atoms: C_21  and  C_25
                            x       y       z     vdW  Elec       q    Type
                         _______ _______ _______ _____ _____    ______ ____

>  <TORSDO>
F 4

$$$$
=
 OpenBabel11052412483D

 25 28  0  0  1  0  0  0  0  0999 V2000
  187.4330  177.8090  145.6670 C   0  0  0  0  0  0  0  0  0  0  0  0
  186.4310  177.9110  144.6860 C   0  0  0  0  0  0  0  0  0  0  0  0
  185.8710  178.5760  147.3570 C   0  0  0  0  0  3  0  0  0  0  0  0
  188.7690  177.3910  145.5190 C   0  0  0  0  0  0  0  0  0  0  0  0
  186.1970  178.5050  140.9920 N   0  0  0  0  0  2  0  0  0  0  0  0
  191.4560  176.6310  145.6210 C   0  0  0  0  0  3  0  0  0  0  0  0
  184.9070  178.6660  146.3990 N   0  0  0  0  0  0  0  0  0  0  0  0
  189.4760  177.4160  146.7200 C   0  0  0  0  0  0  0  0  0  0  0  0
  190.8150  177.0430  146.7980 C   0  0  0  0  0  3  0  0  0  0  0  0
  184.0480  178.4220  144.0600 C   0  0  1  0  0  3  0  0  0  0  0  0
  183.0200  179.4890  144.3960 C   0  0  0  0  0  1  0  0  0  0  0  0
  186.6520  177.4950  143.2570 C   0  0  0  0  0  2  0  0  0  0  0  0
  190.7560  176.6000  144.4010 C   0  0  0  0  0  3  0  0  0  0  0  0
  187.1390  178.1500  146.9840 C   0  0  0  0  0  0  0  0  0  0  0  0
  188.4860  177.9470  147.9770 S   0  0  0  0  0  0  0  0  0  0  0  0
  184.5840  178.6770  142.7220 N   0  0  0  0  0  0  0  0  0  0  0  0
  189.4060  176.9810  144.3440 C   0  0  0  0  0  3  0  0  0  0  0  0
  185.7520  178.2560  142.3250 C   0  0  0  0  0  0  0  0  0  0  0  0
  185.1540  178.3640  145.0860 C   0  0  0  0  0  0  0  0  0  0  0  0
  185.3890  179.2330  140.0250 C   0  0  0  0  0  2  0  0  0  0  0  0
  184.9960  178.3040  138.8970 C   0  0  0  0  0  2  0  0  0  0  0  0
  183.5020  178.4040  138.6600 C   0  0  0  0  0  2  0  0  0  0  0  0
  182.9370  179.4440  139.5040 N   0  0  0  0  0  0  0  0  0  0  0  0
  182.1850  180.3250  138.6290 C   0  0  0  0  0  1  0  0  0  0  0  0
  182.0360  178.8460  140.3170 O   0  0  0  0  0  1  0  0  0  0  0  0
  1 14  2  0  0  0  0
  2 19  2  0  0  0  0
  2  1  1  0  0  0  0
  4  1  1  0  0  0  0
  4  8  1  0  0  0  0
  5 18  1  0  0  0  0
  6  9  1  0  0  0  0
  7  3  2  0  0  0  0
  8  9  2  0  0  0  0
  8 15  1  0  0  0  0
 10 11  1  1  0  0  0
 10 19  1  0  0  0  0
 12  2  1  0  0  0  0
 13  6  2  0  0  0  0
 14  3  1  0  0  0  0
 14 15  1  0  0  0  0
 16 10  1  0  0  0  0
 17 13  1  0  0  0  0
 17  4  2  0  0  0  0
 18 16  2  0  0  0  0
 18 12  1  0  0  0  0
 19  7  1  0  0  0  0
 20  5  1  0  0  0  0
 21 20  1  0  0  0  0
 22 21  1  0  0  0  0
 22 23  1  0  0  0  0
 23 25  1  0  0  0  0
 24 23  1  0  0  0  0
M  END
>  <MODEL>
5

>  <REMARK>
 VINA RESULT:      -8.4      1.824      2.400
  Name = 
  4 active torsions:
  status: ('A' for Active; 'I' for Inactive)
    1  A    between atoms: N_2  and  C_25
    2  A    between atoms: N_6  and  C_15
    3  A    between atoms: C_15  and  C_21
    4  A    between atoms: C_21  and  C_25
                            x       y       z     vdW  Elec       q    Type
                         _______ _______ _______ _____ _____    ______ ____

>  <TORSDO>
F 4

$$$$
=
 OpenBabel11052412483D

 25 28  0  0  1  0  0  0  0  0999 V2000
  187.2520  177.9830  144.4220 C   0  0  0  0  0  0  0  0  0  0  0  0
  188.2930  177.8930  143.4800 C   0  0  0  0  0  0  0  0  0  0  0  0
  188.7590  177.2420  146.1720 C   0  0  0  0  0  3  0  0  0  0  0  0
  185.9170  178.3820  144.2220 C   0  0  0  0  0  0  0  0  0  0  0  0
  188.6760  177.2960  139.8000 N   0  0  0  0  0  2  0  0  0  0  0  0
  183.2170  179.1040  144.2200 C   0  0  0  0  0  3  0  0  0  0  0  0
  189.7600  177.1640  145.2510 N   0  0  0  0  0  0  0  0  0  0  0  0
  185.1650  178.3480  145.3960 C   0  0  0  0  0  0  0  0  0  0  0  0
  183.8190  178.7030  145.4210 C   0  0  0  0  0  3  0  0  0  0  0  0
  190.7040  177.4150  142.9470 C   0  0  1  0  0  3  0  0  0  0  0  0
  191.7340  176.3640  143.3240 C   0  0  0  0  0  1  0  0  0  0  0  0
  188.1200  178.3030  142.0430 C   0  0  0  0  0  2  0  0  0  0  0  0
  183.9630  179.1420  143.0280 C   0  0  0  0  0  3  0  0  0  0  0  0
  187.5000  177.6490  145.7500 C   0  0  0  0  0  0  0  0  0  0  0  0
  186.1130  177.8350  146.6910 S   0  0  0  0  0  0  0  0  0  0  0  0
  190.2230  177.1500  141.5900 N   0  0  0  0  0  0  0  0  0  0  0  0
  185.3190  178.7800  143.0230 C   0  0  0  0  0  3  0  0  0  0  0  0
  189.0650  177.5540  141.1480 C   0  0  0  0  0  0  0  0  0  0  0  0
  189.5600  177.4590  143.9300 C   0  0  0  0  0  0  0  0  0  0  0  0
  189.5290  176.5770  138.8660 C   0  0  0  0  0  2  0  0  0  0  0  0
  189.5190  177.2850  137.5280 C   0  0  0  0  0  2  0  0  0  0  0  0
  189.0620  178.7180  137.7190 C   0  0  0  0  0  2  0  0  0  0  0  0
  187.9670  179.0120  136.8110 N   0  0  0  0  0  0  0  0  0  0  0  0
  187.9100  177.9160  135.8610 C   0  0  0  0  0  1  0  0  0  0  0  0
  186.8250  178.9530  137.5370 O   0  0  0  0  0  1  0  0  0  0  0  0
  1 14  2  0  0  0  0
  2 19  2  0  0  0  0
  2  1  1  0  0  0  0
  4  1  1  0  0  0  0
  4  8  1  0  0  0  0
  5 18  1  0  0  0  0
  6  9  1  0  0  0  0
  7  3  2  0  0  0  0
  8  9  2  0  0  0  0
  8 15  1  0  0  0  0
 10 11  1  1  0  0  0
 10 19  1  0  0  0  0
 12  2  1  0  0  0  0
 13  6  2  0  0  0  0
 14  3  1  0  0  0  0
 14 15  1  0  0  0  0
 16 10  1  0  0  0  0
 17 13  1  0  0  0  0
 17  4  2  0  0  0  0
 18 16  2  0  0  0  0
 18 12  1  0  0  0  0
 19  7  1  0  0  0  0
 20  5  1  0  0  0  0
 21 22  1  0  0  0  0
 21 20  1  0  0  0  0
 23 25  1  0  0  0  0
 23 22  1  0  0  0  0
 24 23  1  0  0  0  0
M  END
>  <MODEL>
6

>  <REMARK>
 VINA RESULT:      -8.4      2.232      4.713
  Name = 
  4 active torsions:
  status: ('A' for Active; 'I' for Inactive)
    1  A    between atoms: N_2  and  C_25
    2  A    between atoms: N_6  and  C_15
    3  A    between atoms: C_15  and  C_21
    4  A    between atoms: C_21  and  C_25
                            x       y       z     vdW  Elec       q    Type
                         _______ _______ _______ _____ _____    ______ ____

>  <TORSDO>
F 4

$$$$
=
 OpenBabel11052412483D

 25 28  0  0  1  0  0  0  0  0999 V2000
  187.0180  178.1010  145.0200 C   0  0  0  0  0  0  0  0  0  0  0  0
  188.2590  177.9880  144.3690 C   0  0  0  0  0  0  0  0  0  0  0  0
  188.0730  177.5730  147.1400 C   0  0  0  0  0  3  0  0  0  0  0  0
  185.7620  178.4180  144.4710 C   0  0  0  0  0  0  0  0  0  0  0  0
  189.5460  177.1230  140.9560 N   0  0  0  0  0  2  0  0  0  0  0  0
  183.1260  179.0060  143.7540 C   0  0  0  0  0  3  0  0  0  0  0  0
  189.2700  177.4720  146.4980 N   0  0  0  0  0  0  0  0  0  0  0  0
  184.7470  178.4400  145.4260 C   0  0  0  0  0  0  0  0  0  0  0  0
  183.4270  178.7300  145.0960 C   0  0  0  0  0  3  0  0  0  0  0  0
  190.7400  177.5870  144.4760 C   0  0  1  0  0  3  0  0  0  0  0  0
  191.6760  176.6200  145.1810 C   0  0  0  0  0  1  0  0  0  0  0  0
  188.4320  178.2750  142.9020 C   0  0  0  0  0  2  0  0  0  0  0  0
  184.1380  178.9870  142.7780 C   0  0  0  0  0  3  0  0  0  0  0  0
  186.9440  177.8850  146.3930 C   0  0  0  0  0  0  0  0  0  0  0  0
  185.3650  178.0760  146.9520 S   0  0  0  0  0  0  0  0  0  0  0  0
  190.6130  177.1940  143.0720 N   0  0  0  0  0  0  0  0  0  0  0  0
  185.4640  178.6920  143.1320 C   0  0  0  0  0  3  0  0  0  0  0  0
  189.5880  177.5050  142.3300 C   0  0  0  0  0  0  0  0  0  0  0  0
  189.3900  177.6530  145.1470 C   0  0  0  0  0  0  0  0  0  0  0  0
  190.6220  176.3760  140.3220 C   0  0  0  0  0  2  0  0  0  0  0  0
  190.4160  176.3730  138.8220 C   0  0  0  0  0  2  0  0  0  0  0  0
  189.1440  177.1250  138.4870 C   0  0  0  0  0  2  0  0  0  0  0  0
  189.4530  178.2620  137.6360 N   0  0  0  0  0  0  0  0  0  0  0  0
  188.6650  178.1010  136.4270 C   0  0  0  0  0  1  0  0  0  0  0  0
  188.9780  179.3640  138.2630 O   0  0  0  0  0  1  0  0  0  0  0  0
  1 14  1  0  0  0  0
  2  1  2  0  0  0  0
  2 19  1  0  0  0  0
  4  1  1  0  0  0  0
  4  8  1  0  0  0  0
  5 18  1  0  0  0  0
  6  9  1  0  0  0  0
  7  3  1  0  0  0  0
  8 15  1  0  0  0  0
  9  8  2  0  0  0  0
 10 19  1  0  0  0  0
 10 11  1  1  0  0  0
 12  2  1  0  0  0  0
 13 17  1  0  0  0  0
 13  6  2  0  0  0  0
 14 15  1  0  0  0  0
 14  3  2  0  0  0  0
 16 10  1  0  0  0  0
 17  4  2  0  0  0  0
 18 12  1  0  0  0  0
 18 16  2  0  0  0  0
 19  7  2  0  0  0  0
 20  5  1  0  0  0  0
 21 20  1  0  0  0  0
 22 21  1  0  0  0  0
 23 25  1  0  0  0  0
 23 22  1  0  0  0  0
 24 23  1  0  0  0  0
M  END
>  <MODEL>
7

>  <REMARK>
 VINA RESULT:      -8.3      2.244      4.787
  Name = 
  4 active torsions:
  status: ('A' for Active; 'I' for Inactive)
    1  A    between atoms: N_2  and  C_25
    2  A    between atoms: N_6  and  C_15
    3  A    between atoms: C_15  and  C_21
    4  A    between atoms: C_21  and  C_25
                            x       y       z     vdW  Elec       q    Type
                         _______ _______ _______ _____ _____    ______ ____

>  <TORSDO>
F 4

$$$$
=
 OpenBabel11052412483D

 25 28  0  0  1  0  0  0  0  0999 V2000
  186.8350  178.1640  145.0830 C   0  0  0  0  0  0  0  0  0  0  0  0
  188.1080  178.0320  144.4990 C   0  0  0  0  0  0  0  0  0  0  0  0
  187.7780  177.6940  147.2680 C   0  0  0  0  0  3  0  0  0  0  0  0
  185.6100  178.4660  144.4610 C   0  0  0  0  0  0  0  0  0  0  0  0
  189.5670  177.0710  141.1820 N   0  0  0  0  0  2  0  0  0  0  0  0
  183.0150  179.0350  143.5930 C   0  0  0  0  0  3  0  0  0  0  0  0
  189.0070  177.5740  146.6910 N   0  0  0  0  0  0  0  0  0  0  0  0
  184.5470  178.5150  145.3620 C   0  0  0  0  0  0  0  0  0  0  0  0
  183.2460  178.7970  144.9560 C   0  0  0  0  0  3  0  0  0  0  0  0
  190.5790  177.6320  144.7450 C   0  0  1  0  0  3  0  0  0  0  0  0
  191.4760  176.6840  145.5240 C   0  0  0  0  0  1  0  0  0  0  0  0
  188.3560  178.2780  143.0360 C   0  0  0  0  0  2  0  0  0  0  0  0
  184.0760  178.9880  142.6720 C   0  0  0  0  0  3  0  0  0  0  0  0
  186.6900  177.9860  146.4550 C   0  0  0  0  0  0  0  0  0  0  0  0
  185.0850  178.1930  146.9270 S   0  0  0  0  0  0  0  0  0  0  0  0
  190.5230  177.2000  143.3470 N   0  0  0  0  0  0  0  0  0  0  0  0
  185.3810  178.7020  143.1010 C   0  0  0  0  0  3  0  0  0  0  0  0
  189.5380  177.4910  142.5460 C   0  0  0  0  0  0  0  0  0  0  0  0
  189.1960  177.7170  145.3430 C   0  0  0  0  0  0  0  0  0  0  0  0
  190.6720  176.3060  140.6260 C   0  0  0  0  0  2  0  0  0  0  0  0
  191.4100  177.1530  139.6120 C   0  0  0  0  0  2  0  0  0  0  0  0
  191.1160  176.6390  138.2160 C   0  0  0  0  0  2  0  0  0  0  0  0
  190.6970  175.2490  138.2810 N   0  0  0  0  0  0  0  0  0  0  0  0
  189.6830  175.0740  137.2580 C   0  0  0  0  0  1  0  0  0  0  0  0
  191.7600  174.4990  137.9030 O   0  0  0  0  0  1  0  0  0  0  0  0
  1 14  1  0  0  0  0
  2  1  2  0  0  0  0
  2 19  1  0  0  0  0
  4  1  1  0  0  0  0
  4  8  1  0  0  0  0
  5 18  1  0  0  0  0
  6  9  1  0  0  0  0
  7  3  1  0  0  0  0
  8 15  1  0  0  0  0
  9  8  2  0  0  0  0
 10 19  1  0  0  0  0
 10 11  1  1  0  0  0
 12  2  1  0  0  0  0
 13 17  1  0  0  0  0
 13  6  2  0  0  0  0
 14 15  1  0  0  0  0
 14  3  2  0  0  0  0
 16 10  1  0  0  0  0
 17  4  2  0  0  0  0
 18 12  1  0  0  0  0
 18 16  2  0  0  0  0
 19  7  2  0  0  0  0
 20  5  1  0  0  0  0
 21 20  1  0  0  0  0
 22 23  1  0  0  0  0
 22 21  1  0  0  0  0
 24 23  1  0  0  0  0
 25 23  1  0  0  0  0
M  END
>  <MODEL>
8

>  <REMARK>
 VINA RESULT:      -8.2      2.843      5.149
  Name = 
  4 active torsions:
  status: ('A' for Active; 'I' for Inactive)
    1  A    between atoms: N_2  and  C_25
    2  A    between atoms: N_6  and  C_15
    3  A    between atoms: C_15  and  C_21
    4  A    between atoms: C_21  and  C_25
                            x       y       z     vdW  Elec       q    Type
                         _______ _______ _______ _____ _____    ______ ____

>  <TORSDO>
F 4

$$$$
=
 OpenBabel11052412483D

 25 28  0  0  1  0  0  0  0  0999 V2000
  184.4060  178.5200  143.4230 C   0  0  0  0  0  0  0  0  0  0  0  0
  185.7330  178.2810  143.8260 C   0  0  0  0  0  0  0  0  0  0  0  0
  183.7500  178.8280  145.7380 C   0  0  0  0  0  3  0  0  0  0  0  0
  183.8710  178.5360  142.1220 C   0  0  0  0  0  0  0  0  0  0  0  0
  188.7250  176.3950  142.5830 N   0  0  0  0  0  2  0  0  0  0  0  0
  182.4560  178.6480  139.7150 C   0  0  0  0  0  3  0  0  0  0  0  0
  185.0390  178.6010  146.1140 N   0  0  0  0  0  0  0  0  0  0  0  0
  182.5050  178.8100  142.1060 C   0  0  0  0  0  0  0  0  0  0  0  0
  181.7770  178.8720  140.9210 C   0  0  0  0  0  3  0  0  0  0  0  0
  187.4530  178.1230  145.6540 C   0  0  1  0  0  3  0  0  0  0  0  0
  187.5340  177.5280  147.0490 C   0  0  0  0  0  1  0  0  0  0  0  0
  186.8480  178.0600  142.8410 C   0  0  0  0  0  2  0  0  0  0  0  0
  183.8350  178.3690  139.7140 C   0  0  0  0  0  3  0  0  0  0  0  0
  183.4360  178.7820  144.3860 C   0  0  0  0  0  0  0  0  0  0  0  0
  181.9290  179.0370  143.6740 S   0  0  0  0  0  0  0  0  0  0  0  0
  188.1850  177.2640  144.7220 N   0  0  0  0  0  0  0  0  0  0  0  0
  184.5510  178.3120  140.9200 C   0  0  0  0  0  3  0  0  0  0  0  0
  187.9450  177.2260  143.4420 C   0  0  0  0  0  0  0  0  0  0  0  0
  186.0240  178.3160  145.2070 C   0  0  0  0  0  0  0  0  0  0  0  0
  189.8040  175.5570  143.0810 C   0  0  0  0  0  2  0  0  0  0  0  0
  191.0810  176.3670  143.1460 C   0  0  0  0  0  2  0  0  0  0  0  0
  191.8860  175.9420  144.3590 C   0  0  0  0  0  2  0  0  0  0  0  0
  191.3510  176.5760  145.5520 N   0  0  0  0  0  0  0  0  0  0  0  0
  192.0470  175.9880  146.6820 C   0  0  0  0  0  1  0  0  0  0  0  0
  191.7200  177.8780  145.5060 O   0  0  0  0  0  1  0  0  0  0  0  0
  1  2  2  0  0  0  0
  1 14  1  0  0  0  0
  2 19  1  0  0  0  0
  3  7  1  0  0  0  0
  4  1  1  0  0  0  0
  5 20  1  0  0  0  0
  5 18  1  0  0  0  0
  6  9  1  0  0  0  0
  8  4  1  0  0  0  0
  8 15  1  0  0  0  0
  9  8  2  0  0  0  0
 10 11  1  1  0  0  0
 12 18  1  0  0  0  0
 12  2  1  0  0  0  0
 13  6  2  0  0  0  0
 13 17  1  0  0  0  0
 14  3  2  0  0  0  0
 15 14  1  0  0  0  0
 16 10  1  0  0  0  0
 17  4  2  0  0  0  0
 18 16  2  0  0  0  0
 19 10  1  0  0  0  0
 19  7  2  0  0  0  0
 20 21  1  0  0  0  0
 21 22  1  0  0  0  0
 22 23  1  0  0  0  0
 23 24  1  0  0  0  0
 25 23  1  0  0  0  0
M  END
>  <MODEL>
9

>  <REMARK>
 VINA RESULT:      -8.0      3.417      6.573
  Name = 
  4 active torsions:
  status: ('A' for Active; 'I' for Inactive)
    1  A    between atoms: N_2  and  C_25
    2  A    between atoms: N_6  and  C_15
    3  A    between atoms: C_15  and  C_21
    4  A    between atoms: C_21  and  C_25
                            x       y       z     vdW  Elec       q    Type
                         _______ _______ _______ _____ _____    ______ ____

>  <TORSDO>
F 4

$$$$
