=
 OpenBabel11052415003D

 55 59  0  0  1  0  0  0  0  0999 V2000
  184.7680  179.1720  144.7020 C   0  0  2  0  0  3  0  0  0  0  0  0
  185.5390  178.3150  145.6970 C   0  0  0  0  0  3  0  0  0  0  0  0
  185.9750  179.1680  146.8720 C   0  0  0  0  0  2  0  0  0  0  0  0
  184.7800  178.2450  147.0060 C   0  0  0  0  0  2  0  0  0  0  0  0
  183.2870  178.7910  144.6830 C   0  0  0  0  0  2  0  0  0  0  0  0
  182.6530  179.0180  143.3150 C   0  0  0  0  0  2  0  0  0  0  0  0
  181.1490  179.1790  143.4460 C   0  0  0  0  0  2  0  0  0  0  0  0
  180.4530  178.5830  142.2360 C   0  0  0  0  0  2  0  0  0  0  0  0
  181.4750  178.1510  141.2050 C   0  0  0  0  0  2  0  0  0  0  0  0
  180.7460  177.6330  139.9820 C   0  0  0  0  0  2  0  0  0  0  0  0
  181.5900  177.8250  138.7320 C   0  0  1  0  0  3  0  0  0  0  0  0
  181.9670  176.5280  138.1840 N   0  0  0  0  0  2  0  0  0  0  0  0
  180.6700  173.7530  137.7240 C   0  0  0  0  0  0  0  0  0  0  0  0
  182.5090  176.7340  135.4980 F   0  0  0  0  0  0  0  0  0  0  0  0
  180.9540  176.1420  137.2080 C   0  0  1  0  0  3  0  0  0  0  0  0
  183.5350  171.8890  136.1110 C   0  0  0  0  0  3  0  0  0  0  0  0
  180.6330  175.6460  134.9040 F   0  0  0  0  0  0  0  0  0  0  0  0
  181.6140  175.7470  135.8760 C   0  0  0  0  0  0  0  0  0  0  0  0
  180.1130  172.8660  138.4250 O   0  0  0  0  0  0  0  0  0  0  0  0
  184.0060  172.8520  135.2150 C   0  0  0  0  0  3  0  0  0  0  0  0
  183.3950  174.1060  135.1480 C   0  0  0  0  0  3  0  0  0  0  0  0
  181.8310  173.4320  136.8800 C   0  0  0  0  0  0  0  0  0  0  0  0
  182.3180  174.4140  135.9940 C   0  0  0  0  0  0  0  0  0  0  0  0
  182.4470  172.1760  136.9400 C   0  0  0  0  0  3  0  0  0  0  0  0
  180.1800  175.0610  137.7320 O   0  0  0  0  0  0  0  0  0  0  0  0
  180.8470  178.6720  137.6900 C   0  0  0  0  0  2  0  0  0  0  0  0
  182.3410  180.4700  138.5170 C   0  0  0  0  0  1  0  0  0  0  0  0
  180.9840  180.1730  137.9110 C   0  0  1  0  0  3  0  0  0  0  0  0
  180.8530  180.8590  136.7040 O   0  0  0  0  0  1  0  0  0  0  0  0
  185.4010  179.0870  143.3160 C   0  0  0  0  0  2  0  0  0  0  0  0
  185.7320  177.6430  142.9670 C   0  0  0  0  0  2  0  0  0  0  0  0
  187.0700  177.2320  143.5590 C   0  0  0  0  0  2  0  0  0  0  0  0
  188.0700  176.9570  142.4490 C   0  0  0  0  0  2  0  0  0  0  0  0
  189.1580  178.0310  142.4150 C   0  0  1  0  0  3  0  0  0  0  0  0
  191.2860  178.6790  143.6130 C   0  0  0  0  0  2  0  0  0  0  0  0
  191.2440  176.7830  145.0630 C   0  0  1  0  0  3  0  0  0  0  0  0
  190.4950  177.5440  142.9890 C   0  0  1  0  0  3  0  0  0  0  0  0
  190.3070  176.4900  143.9840 N   0  0  0  0  0  2  0  0  0  0  0  0
  191.5320  178.2650  145.0400 C   0  0  0  0  0  2  0  0  0  0  0  0
  190.7020  176.3430  146.4260 C   0  0  0  0  0  3  0  0  0  0  0  0
  191.7360  176.4720  147.5330 C   0  0  0  0  0  1  0  0  0  0  0  0
  189.4640  177.1390  146.7860 C   0  0  0  0  0  1  0  0  0  0  0  0
  189.3770  178.5090  140.9850 C   0  0  0  0  0  2  0  0  0  0  0  0
  189.9190  176.6980  137.1670 C   0  0  0  0  0  2  0  0  0  0  0  0
  190.4900  175.9450  138.3610 C   0  0  0  0  0  2  0  0  0  0  0  0
  187.3300  178.5150  138.9950 O   0  0  0  0  0  0  0  0  0  0  0  0
  189.2040  177.3760  139.9790 C   0  0  2  0  0  3  0  0  0  0  0  0
  190.5890  176.9090  139.5330 C   0  0  0  0  0  2  0  0  0  0  0  0
  188.3420  177.7860  138.8030 C   0  0  0  0  0  0  0  0  0  0  0  0
  188.6080  177.2550  137.4920 N   0  0  0  0  0  0  0  0  0  0  0  0
  187.6560  177.4650  136.4040 C   0  0  0  0  0  2  0  0  0  0  0  0
  185.3450  176.7570  136.9240 C   0  0  0  0  0  1  0  0  0  0  0  0
  187.1410  175.0770  136.9950 C   0  0  0  0  0  1  0  0  0  0  0  0
  186.3810  175.9940  134.8270 C   0  0  0  0  0  1  0  0  0  0  0  0
  186.6480  176.3210  136.2840 C   0  0  0  0  0  0  0  0  0  0  0  0
  1 30  1  6  0  0  0
  1  2  1  0  0  0  0
  2  3  1  0  0  0  0
  2  4  1  0  0  0  0
  3  4  1  0  0  0  0
  5  1  1  0  0  0  0
  6  7  1  0  0  0  0
  6  5  1  0  0  0  0
  8  7  1  0  0  0  0
  9  8  1  0  0  0  0
 10  9  1  0  0  0  0
 11 26  1  6  0  0  0
 11 10  1  0  0  0  0
 12 11  1  0  0  0  0
 13 25  1  0  0  0  0
 13 19  2  0  0  0  0
 14 18  1  0  0  0  0
 15 25  1  0  0  0  0
 15 12  1  1  0  0  0
 16 24  1  0  0  0  0
 17 18  1  0  0  0  0
 18 23  1  0  0  0  0
 18 15  1  0  0  0  0
 20 16  2  0  0  0  0
 21 20  1  0  0  0  0
 21 23  2  0  0  0  0
 22 24  2  0  0  0  0
 22 13  1  0  0  0  0
 23 22  1  0  0  0  0
 26 28  1  0  0  0  0
 28 27  1  6  0  0  0
 29 28  1  0  0  0  0
 31 30  1  0  0  0  0
 31 32  1  0  0  0  0
 33 32  1  0  0  0  0
 34 43  1  6  0  0  0
 34 33  1  0  0  0  0
 35 39  1  0  0  0  0
 36 40  1  1  0  0  0
 37 34  1  1  0  0  0
 37 35  1  0  0  0  0
 37 38  1  0  0  0  0
 38 36  1  0  0  0  0
 39 36  1  0  0  0  0
 40 42  1  0  0  0  0
 40 41  1  0  0  0  0
 44 50  1  0  0  0  0
 44 45  1  0  0  0  0
 45 48  1  0  0  0  0
 47 43  1  1  0  0  0
 48 47  1  0  0  0  0
 49 46  2  0  0  0  0
 49 47  1  0  0  0  0
 50 49  1  0  0  0  0
 51 50  1  0  0  0  0
 54 55  1  0  0  0  0
 55 51  1  0  0  0  0
 55 52  1  0  0  0  0
 55 53  1  0  0  0  0
M  END
>  <MODEL>
1

>  <REMARK>
 VINA RESULT:      -7.1      0.000      0.000
  Name = 
  23 active torsions:
  status: ('A' for Active; 'I' for Inactive)
    1  A    between atoms: C_2  and  C_28
    2  A    between atoms: C_2  and  C_44
    3  A    between atoms: C_6  and  N_46
    4  A    between atoms: C_8  and  C_20
    5  A    between atoms: C_8  and  C_22
    6  A    between atoms: C_10  and  C_32
    7  A    between atoms: C_17  and  C_36
    8  A    between atoms: C_19  and  C_40
    9  A    between atoms: C_19  and  N_45
   10  A    between atoms: C_22  and  C_35
   11  A    between atoms: C_22  and  N_46
   12  A    between atoms: C_24  and  C_44
   13  A    between atoms: C_27  and  C_31
   14  A    between atoms: C_27  and  C_54
   15  A    between atoms: C_28  and  C_49
   16  A    between atoms: C_31  and  C_44
   17  A    between atoms: C_33  and  C_49
   18  A    between atoms: C_33  and  C_52
   19  A    between atoms: C_34  and  C_52
   20  A    between atoms: C_35  and  C_43
   21  A    between atoms: C_36  and  C_52
   22  A    between atoms: C_43  and  C_51
   23  A    between atoms: C_51  and  C_54
                            x       y       z     vdW  Elec       q    Type
                         _______ _______ _______ _____ _____    ______ ____

>  <TORSDO>
F 23

$$$$
=
 OpenBabel11052415003D

 55 59  0  0  1  0  0  0  0  0999 V2000
  185.7270  178.6180  144.8820 C   0  0  2  0  0  3  0  0  0  0  0  0
  186.1720  177.7700  146.0660 C   0  0  0  0  0  3  0  0  0  0  0  0
  186.7790  178.6630  147.1310 C   0  0  0  0  0  2  0  0  0  0  0  0
  185.3650  178.1430  147.2930 C   0  0  0  0  0  2  0  0  0  0  0  0
  184.2400  178.4120  144.5890 C   0  0  0  0  0  2  0  0  0  0  0  0
  183.6940  179.4590  143.6240 C   0  0  0  0  0  2  0  0  0  0  0  0
  182.9400  178.7930  142.4870 C   0  0  0  0  0  2  0  0  0  0  0  0
  183.9160  178.2610  141.4540 C   0  0  0  0  0  2  0  0  0  0  0  0
  183.4250  178.5840  140.0570 C   0  0  0  0  0  2  0  0  0  0  0  0
  182.0480  177.9810  139.8720 C   0  0  0  0  0  2  0  0  0  0  0  0
  181.6320  178.0300  138.4110 C   0  0  1  0  0  3  0  0  0  0  0  0
  181.6540  176.6880  137.8430 N   0  0  0  0  0  2  0  0  0  0  0  0
  181.6970  174.5930  135.5610 C   0  0  0  0  0  0  0  0  0  0  0  0
  184.3920  176.8930  137.7230 F   0  0  0  0  0  0  0  0  0  0  0  0
  182.3200  176.7600  136.5470 C   0  0  1  0  0  3  0  0  0  0  0  0
  183.9680  171.9660  137.0510 C   0  0  0  0  0  3  0  0  0  0  0  0
  184.4470  176.5870  135.4970 F   0  0  0  0  0  0  0  0  0  0  0  0
  183.7700  176.2600  136.6600 C   0  0  0  0  0  0  0  0  0  0  0  0
  180.8550  173.9110  134.9180 O   0  0  0  0  0  0  0  0  0  0  0  0
  184.9770  172.7660  137.5940 C   0  0  0  0  0  3  0  0  0  0  0  0
  184.9060  174.1560  137.4810 C   0  0  0  0  0  3  0  0  0  0  0  0
  182.8100  173.9480  136.2730 C   0  0  0  0  0  0  0  0  0  0  0  0
  183.8140  174.7590  136.8400 C   0  0  0  0  0  0  0  0  0  0  0  0
  182.8890  172.5550  136.3880 C   0  0  0  0  0  3  0  0  0  0  0  0
  181.5880  175.9860  135.5950 O   0  0  0  0  0  0  0  0  0  0  0  0
  180.2480  178.6750  138.2530 C   0  0  0  0  0  2  0  0  0  0  0  0
  180.0800  180.8850  139.3650 C   0  0  0  0  0  1  0  0  0  0  0  0
  180.2960  180.1820  138.0410 C   0  0  1  0  0  3  0  0  0  0  0  0
  181.5270  180.5620  137.5070 O   0  0  0  0  0  1  0  0  0  0  0  0
  186.5980  178.3350  143.6610 C   0  0  0  0  0  2  0  0  0  0  0  0
  186.8840  176.8440  143.5430 C   0  0  0  0  0  2  0  0  0  0  0  0
  188.2920  176.5200  144.0150 C   0  0  0  0  0  2  0  0  0  0  0  0
  189.1200  175.9840  142.8600 C   0  0  0  0  0  2  0  0  0  0  0  0
  189.8090  177.1230  142.1070 C   0  0  1  0  0  3  0  0  0  0  0  0
  190.5720  179.0400  143.5660 C   0  0  0  0  0  2  0  0  0  0  0  0
  191.7500  177.6290  145.0910 C   0  0  1  0  0  3  0  0  0  0  0  0
  190.9730  177.7400  142.8940 C   0  0  1  0  0  3  0  0  0  0  0  0
  191.4940  176.8210  143.9040 N   0  0  0  0  0  2  0  0  0  0  0  0
  190.8470  178.8390  145.0330 C   0  0  0  0  0  2  0  0  0  0  0  0
  191.5330  176.8340  146.3810 C   0  0  0  0  0  3  0  0  0  0  0  0
  190.0800  176.8340  146.8300 C   0  0  0  0  0  1  0  0  0  0  0  0
  192.0170  175.4080  146.2120 C   0  0  0  0  0  1  0  0  0  0  0  0
  190.3280  176.6240  140.7640 C   0  0  0  0  0  2  0  0  0  0  0  0
  187.6200  177.2240  137.5310 C   0  0  0  0  0  2  0  0  0  0  0  0
  187.5760  178.2540  138.6510 C   0  0  0  0  0  2  0  0  0  0  0  0
  191.0780  176.1640  138.0480 O   0  0  0  0  0  0  0  0  0  0  0  0
  189.7500  177.4280  139.6040 C   0  0  2  0  0  3  0  0  0  0  0  0
  188.2650  177.6650  139.8710 C   0  0  0  0  0  2  0  0  0  0  0  0
  189.9800  176.7470  138.2710 C   0  0  0  0  0  0  0  0  0  0  0  0
  189.0010  176.8620  137.2220 N   0  0  0  0  0  0  0  0  0  0  0  0
  189.3110  176.4030  135.8700 C   0  0  0  0  0  2  0  0  0  0  0  0
  188.5470  174.2970  136.9150 C   0  0  0  0  0  1  0  0  0  0  0  0
  189.7400  174.1860  134.7650 C   0  0  0  0  0  1  0  0  0  0  0  0
  187.4350  175.0810  134.8650 C   0  0  0  0  0  1  0  0  0  0  0  0
  188.7650  175.0020  135.5920 C   0  0  0  0  0  0  0  0  0  0  0  0
  1 30  1  6  0  0  0
  1  2  1  0  0  0  0
  2  3  1  0  0  0  0
  2  4  1  0  0  0  0
  3  4  1  0  0  0  0
  5  1  1  0  0  0  0
  6  5  1  0  0  0  0
  7  6  1  0  0  0  0
  8  7  1  0  0  0  0
  9  8  1  0  0  0  0
 10  9  1  0  0  0  0
 11 26  1  1  0  0  0
 11 10  1  0  0  0  0
 12 11  1  0  0  0  0
 13 25  1  0  0  0  0
 13 22  1  0  0  0  0
 15 18  1  0  0  0  0
 15 12  1  1  0  0  0
 16 20  1  0  0  0  0
 17 18  1  0  0  0  0
 18 23  1  0  0  0  0
 18 14  1  0  0  0  0
 19 13  2  0  0  0  0
 21 20  2  0  0  0  0
 22 24  1  0  0  0  0
 22 23  2  0  0  0  0
 23 21  1  0  0  0  0
 24 16  2  0  0  0  0
 25 15  1  0  0  0  0
 28 26  1  0  0  0  0
 28 27  1  1  0  0  0
 29 28  1  0  0  0  0
 31 30  1  0  0  0  0
 31 32  1  0  0  0  0
 33 32  1  0  0  0  0
 34 43  1  6  0  0  0
 34 33  1  0  0  0  0
 35 39  1  0  0  0  0
 36 40  1  1  0  0  0
 37 34  1  1  0  0  0
 37 35  1  0  0  0  0
 37 38  1  0  0  0  0
 38 36  1  0  0  0  0
 39 36  1  0  0  0  0
 40 41  1  0  0  0  0
 42 40  1  0  0  0  0
 44 45  1  0  0  0  0
 45 48  1  0  0  0  0
 46 49  2  0  0  0  0
 47 48  1  0  0  0  0
 47 43  1  1  0  0  0
 49 47  1  0  0  0  0
 50 44  1  0  0  0  0
 50 49  1  0  0  0  0
 51 50  1  0  0  0  0
 53 55  1  0  0  0  0
 54 55  1  0  0  0  0
 55 51  1  0  0  0  0
 55 52  1  0  0  0  0
M  END
>  <MODEL>
2

>  <REMARK>
 VINA RESULT:      -6.8      1.604      2.113
  Name = 
  23 active torsions:
  status: ('A' for Active; 'I' for Inactive)
    1  A    between atoms: C_2  and  C_28
    2  A    between atoms: C_2  and  C_44
    3  A    between atoms: C_6  and  N_46
    4  A    between atoms: C_8  and  C_20
    5  A    between atoms: C_8  and  C_22
    6  A    between atoms: C_10  and  C_32
    7  A    between atoms: C_17  and  C_36
    8  A    between atoms: C_19  and  C_40
    9  A    between atoms: C_19  and  N_45
   10  A    between atoms: C_22  and  C_35
   11  A    between atoms: C_22  and  N_46
   12  A    between atoms: C_24  and  C_44
   13  A    between atoms: C_27  and  C_31
   14  A    between atoms: C_27  and  C_54
   15  A    between atoms: C_28  and  C_49
   16  A    between atoms: C_31  and  C_44
   17  A    between atoms: C_33  and  C_49
   18  A    between atoms: C_33  and  C_52
   19  A    between atoms: C_34  and  C_52
   20  A    between atoms: C_35  and  C_43
   21  A    between atoms: C_36  and  C_52
   22  A    between atoms: C_43  and  C_51
   23  A    between atoms: C_51  and  C_54
                            x       y       z     vdW  Elec       q    Type
                         _______ _______ _______ _____ _____    ______ ____

>  <TORSDO>
F 23

$$$$
=
 OpenBabel11052415003D

 55 59  0  0  1  0  0  0  0  0999 V2000
  187.5130  174.3520  136.5150 C   0  0  2  0  0  3  0  0  0  0  0  0
  187.6370  174.2290  135.0020 C   0  0  0  0  0  3  0  0  0  0  0  0
  188.9440  173.5430  134.6530 C   0  0  0  0  0  2  0  0  0  0  0  0
  187.6430  172.7670  134.6070 C   0  0  0  0  0  2  0  0  0  0  0  0
  186.1980  173.7480  137.0070 C   0  0  0  0  0  2  0  0  0  0  0  0
  185.0990  174.7970  137.1420 C   0  0  0  0  0  2  0  0  0  0  0  0
  183.8770  174.3930  136.3370 C   0  0  0  0  0  2  0  0  0  0  0  0
  182.6510  175.1310  136.8420 C   0  0  0  0  0  2  0  0  0  0  0  0
  182.9360  176.6160  136.9340 C   0  0  0  0  0  2  0  0  0  0  0  0
  181.7720  177.2960  137.6240 C   0  0  0  0  0  2  0  0  0  0  0  0
  181.2780  176.4600  138.7930 C   0  0  1  0  0  3  0  0  0  0  0  0
  181.8420  176.9660  140.0390 N   0  0  0  0  0  2  0  0  0  0  0  0
  183.8870  179.2580  140.4380 C   0  0  0  0  0  0  0  0  0  0  0  0
  180.2510  178.0240  142.0130 F   0  0  0  0  0  0  0  0  0  0  0  0
  181.6060  178.4050  140.0870 C   0  0  1  0  0  3  0  0  0  0  0  0
  184.7080  178.8480  144.1040 C   0  0  0  0  0  3  0  0  0  0  0  0
  180.7790  180.1440  141.4810 F   0  0  0  0  0  0  0  0  0  0  0  0
  181.2520  178.8440  141.5180 C   0  0  0  0  0  0  0  0  0  0  0  0
  184.9890  179.6110  139.9370 O   0  0  0  0  0  0  0  0  0  0  0  0
  183.4330  178.6390  144.6380 C   0  0  0  0  0  3  0  0  0  0  0  0
  182.3170  178.6220  143.8010 C   0  0  0  0  0  3  0  0  0  0  0  0
  183.7510  179.0290  141.8840 C   0  0  0  0  0  0  0  0  0  0  0  0
  182.4670  178.7950  142.4160 C   0  0  0  0  0  0  0  0  0  0  0  0
  184.8670  179.0470  142.7300 C   0  0  0  0  0  3  0  0  0  0  0  0
  182.7690  179.0910  139.6170 O   0  0  0  0  0  0  0  0  0  0  0  0
  179.7440  176.4410  138.8490 C   0  0  0  0  0  2  0  0  0  0  0  0
  179.0260  174.4540  137.5500 C   0  0  0  0  0  1  0  0  0  0  0  0
  179.1530  175.0400  138.9420 C   0  0  1  0  0  3  0  0  0  0  0  0
  179.9640  174.2170  139.7220 O   0  0  0  0  0  1  0  0  0  0  0  0
  187.6780  175.8060  136.9500 C   0  0  0  0  0  2  0  0  0  0  0  0
  187.8760  176.7070  135.7400 C   0  0  0  0  0  2  0  0  0  0  0  0
  189.1180  177.5690  135.8990 C   0  0  0  0  0  2  0  0  0  0  0  0
  190.3390  176.6910  136.1110 C   0  0  0  0  0  2  0  0  0  0  0  0
  190.4310  176.2230  137.5630 C   0  0  1  0  0  3  0  0  0  0  0  0
  191.6320  174.0530  137.0790 C   0  0  0  0  0  2  0  0  0  0  0  0
  193.7680  175.0960  136.8440 C   0  0  1  0  0  3  0  0  0  0  0  0
  191.6750  175.3670  137.8370 C   0  0  1  0  0  3  0  0  0  0  0  0
  192.9060  176.0750  137.4980 N   0  0  0  0  0  2  0  0  0  0  0  0
  192.8850  174.0280  136.2420 C   0  0  0  0  0  2  0  0  0  0  0  0
  194.6640  175.7400  135.7830 C   0  0  0  0  0  3  0  0  0  0  0  0
  195.7750  174.8120  135.3170 C   0  0  0  0  0  1  0  0  0  0  0  0
  193.8380  176.1890  134.5940 C   0  0  0  0  0  1  0  0  0  0  0  0
  190.4380  177.4230  138.5020 C   0  0  0  0  0  2  0  0  0  0  0  0
  188.7680  178.4630  142.2800 C   0  0  0  0  0  2  0  0  0  0  0  0
  187.8670  177.6820  141.3330 C   0  0  0  0  0  2  0  0  0  0  0  0
  191.9500  177.2900  140.9200 O   0  0  0  0  0  0  0  0  0  0  0  0
  189.8070  177.0880  139.8500 C   0  0  2  0  0  3  0  0  0  0  0  0
  188.4470  177.7790  139.9310 C   0  0  0  0  0  2  0  0  0  0  0  0
  190.7040  177.4720  141.0080 C   0  0  0  0  0  0  0  0  0  0  0  0
  190.1300  177.9330  142.2450 N   0  0  0  0  0  0  0  0  0  0  0  0
  190.9650  178.0910  143.4330 C   0  0  0  0  0  2  0  0  0  0  0  0
  189.3630  176.8620  144.8590 C   0  0  0  0  0  1  0  0  0  0  0  0
  191.6840  177.1160  145.6360 C   0  0  0  0  0  1  0  0  0  0  0  0
  191.1630  175.6120  143.7410 C   0  0  0  0  0  1  0  0  0  0  0  0
  190.8090  176.9260  144.4120 C   0  0  0  0  0  0  0  0  0  0  0  0
  1 30  1  6  0  0  0
  1  5  1  0  0  0  0
  2  1  1  0  0  0  0
  3  2  1  0  0  0  0
  4  3  1  0  0  0  0
  4  2  1  0  0  0  0
  5  6  1  0  0  0  0
  7  8  1  0  0  0  0
  7  6  1  0  0  0  0
  8  9  1  0  0  0  0
  9 10  1  0  0  0  0
 11 10  1  6  0  0  0
 11 26  1  0  0  0  0
 11 12  1  0  0  0  0
 13 22  1  0  0  0  0
 15 12  1  1  0  0  0
 15 18  1  0  0  0  0
 16 20  1  0  0  0  0
 17 18  1  0  0  0  0
 18 14  1  0  0  0  0
 18 23  1  0  0  0  0
 19 13  2  0  0  0  0
 21 20  2  0  0  0  0
 22 23  2  0  0  0  0
 22 24  1  0  0  0  0
 23 21  1  0  0  0  0
 24 16  2  0  0  0  0
 25 15  1  0  0  0  0
 25 13  1  0  0  0  0
 26 28  1  0  0  0  0
 28 27  1  6  0  0  0
 28 29  1  0  0  0  0
 31 32  1  0  0  0  0
 31 30  1  0  0  0  0
 32 33  1  0  0  0  0
 34 33  1  6  0  0  0
 34 43  1  0  0  0  0
 35 37  1  0  0  0  0
 36 40  1  6  0  0  0
 36 38  1  0  0  0  0
 37 34  1  6  0  0  0
 38 37  1  0  0  0  0
 39 36  1  0  0  0  0
 39 35  1  0  0  0  0
 41 40  1  0  0  0  0
 42 40  1  0  0  0  0
 45 44  1  0  0  0  0
 46 49  2  0  0  0  0
 47 43  1  6  0  0  0
 47 48  1  0  0  0  0
 47 49  1  0  0  0  0
 48 45  1  0  0  0  0
 49 50  1  0  0  0  0
 50 44  1  0  0  0  0
 50 51  1  0  0  0  0
 51 55  1  0  0  0  0
 54 55  1  0  0  0  0
 55 52  1  0  0  0  0
 55 53  1  0  0  0  0
M  END
>  <MODEL>
3

>  <REMARK>
 VINA RESULT:      -6.3      2.686      7.994
  Name = 
  23 active torsions:
  status: ('A' for Active; 'I' for Inactive)
    1  A    between atoms: C_2  and  C_28
    2  A    between atoms: C_2  and  C_44
    3  A    between atoms: C_6  and  N_46
    4  A    between atoms: C_8  and  C_20
    5  A    between atoms: C_8  and  C_22
    6  A    between atoms: C_10  and  C_32
    7  A    between atoms: C_17  and  C_36
    8  A    between atoms: C_19  and  C_40
    9  A    between atoms: C_19  and  N_45
   10  A    between atoms: C_22  and  C_35
   11  A    between atoms: C_22  and  N_46
   12  A    between atoms: C_24  and  C_44
   13  A    between atoms: C_27  and  C_31
   14  A    between atoms: C_27  and  C_54
   15  A    between atoms: C_28  and  C_49
   16  A    between atoms: C_31  and  C_44
   17  A    between atoms: C_33  and  C_49
   18  A    between atoms: C_33  and  C_52
   19  A    between atoms: C_34  and  C_52
   20  A    between atoms: C_35  and  C_43
   21  A    between atoms: C_36  and  C_52
   22  A    between atoms: C_43  and  C_51
   23  A    between atoms: C_51  and  C_54
                            x       y       z     vdW  Elec       q    Type
                         _______ _______ _______ _____ _____    ______ ____

>  <TORSDO>
F 23

$$$$
=
 OpenBabel11052415003D

 55 59  0  0  1  0  0  0  0  0999 V2000
  189.1900  177.5920  143.4970 C   0  0  2  0  0  3  0  0  0  0  0  0
  190.4320  176.9390  144.0870 C   0  0  0  0  0  3  0  0  0  0  0  0
  191.6700  177.5020  143.4170 C   0  0  0  0  0  2  0  0  0  0  0  0
  191.2700  177.9830  144.7970 C   0  0  0  0  0  2  0  0  0  0  0  0
  188.2180  178.0170  144.5980 C   0  0  0  0  0  2  0  0  0  0  0  0
  186.9080  177.2390  144.5400 C   0  0  0  0  0  2  0  0  0  0  0  0
  185.7450  178.1250  144.9490 C   0  0  0  0  0  2  0  0  0  0  0  0
  184.9780  178.5800  143.7220 C   0  0  0  0  0  2  0  0  0  0  0  0
  183.7840  179.4170  144.1330 C   0  0  0  0  0  2  0  0  0  0  0  0
  182.5160  178.6690  143.7750 C   0  0  0  0  0  2  0  0  0  0  0  0
  181.7440  179.4070  142.6940 C   0  0  1  0  0  3  0  0  0  0  0  0
  181.5930  178.5540  141.5210 N   0  0  0  0  0  2  0  0  0  0  0  0
  181.1450  179.0560  138.4970 C   0  0  0  0  0  0  0  0  0  0  0  0
  183.7960  177.0130  140.9520 F   0  0  0  0  0  0  0  0  0  0  0  0
  182.5520  179.0010  140.5160 C   0  0  1  0  0  3  0  0  0  0  0  0
  180.8320  175.5100  137.2280 C   0  0  0  0  0  3  0  0  0  0  0  0
  184.3780  178.2680  139.1810 F   0  0  0  0  0  0  0  0  0  0  0  0
  183.3070  177.8000  139.9230 C   0  0  0  0  0  0  0  0  0  0  0  0
  180.3270  179.6900  137.7780 O   0  0  0  0  0  0  0  0  0  0  0  0
  181.8750  174.8890  137.9200 C   0  0  0  0  0  3  0  0  0  0  0  0
  182.6670  175.6250  138.8030 C   0  0  0  0  0  3  0  0  0  0  0  0
  181.3710  177.6160  138.3000 C   0  0  0  0  0  0  0  0  0  0  0  0
  182.4090  176.9880  139.0170 C   0  0  0  0  0  0  0  0  0  0  0  0
  180.5820  176.8720  137.4140 C   0  0  0  0  0  3  0  0  0  0  0  0
  181.8620  179.7240  139.4940 O   0  0  0  0  0  0  0  0  0  0  0  0
  180.3790  179.8770  143.2150 C   0  0  0  0  0  2  0  0  0  0  0  0
  179.1150  178.3550  141.7200 C   0  0  0  0  0  1  0  0  0  0  0  0
  179.2990  178.8050  143.1550 C   0  0  1  0  0  3  0  0  0  0  0  0
  179.6500  177.7110  143.9460 O   0  0  0  0  0  1  0  0  0  0  0  0
  188.5320  176.6690  142.4750 C   0  0  0  0  0  2  0  0  0  0  0  0
  189.1920  176.8250  141.1120 C   0  0  0  0  0  2  0  0  0  0  0  0
  188.6500  178.0420  140.3800 C   0  0  0  0  0  2  0  0  0  0  0  0
  189.4000  178.2430  139.0750 C   0  0  0  0  0  2  0  0  0  0  0  0
  188.8020  177.3820  137.9620 C   0  0  1  0  0  3  0  0  0  0  0  0
  186.9280  178.4440  136.6410 C   0  0  0  0  0  2  0  0  0  0  0  0
  185.5780  176.4750  136.6570 C   0  0  1  0  0  3  0  0  0  0  0  0
  187.2840  177.5590  137.8200 C   0  0  1  0  0  3  0  0  0  0  0  0
  186.6000  176.2760  137.6780 N   0  0  0  0  0  2  0  0  0  0  0  0
  186.0230  177.6130  135.7690 C   0  0  0  0  0  2  0  0  0  0  0  0
  185.3260  175.2020  135.8440 C   0  0  0  0  0  3  0  0  0  0  0  0
  185.2610  173.9570  136.7150 C   0  0  0  0  0  1  0  0  0  0  0  0
  184.0470  175.3320  135.0400 C   0  0  0  0  0  1  0  0  0  0  0  0
  189.4660  177.7120  136.6300 C   0  0  0  0  0  2  0  0  0  0  0  0
  190.5350  173.5890  136.5740 C   0  0  0  0  0  2  0  0  0  0  0  0
  189.7330  174.0970  135.3830 C   0  0  0  0  0  2  0  0  0  0  0  0
  192.0270  176.7950  137.4940 O   0  0  0  0  0  0  0  0  0  0  0  0
  190.1500  176.4920  136.0240 C   0  0  2  0  0  3  0  0  0  0  0  0
  189.0910  175.4210  135.7680 C   0  0  0  0  0  2  0  0  0  0  0  0
  191.2730  175.9760  136.8990 C   0  0  0  0  0  0  0  0  0  0  0  0
  191.5520  174.5650  136.9610 N   0  0  0  0  0  0  0  0  0  0  0  0
  192.7620  174.0800  137.6190 C   0  0  0  0  0  2  0  0  0  0  0  0
  194.3970  172.4690  136.7000 C   0  0  0  0  0  1  0  0  0  0  0  0
  195.0890  174.8110  137.0070 C   0  0  0  0  0  1  0  0  0  0  0  0
  193.4820  174.2110  135.2220 C   0  0  0  0  0  1  0  0  0  0  0  0
  193.9260  173.9080  136.6410 C   0  0  0  0  0  0  0  0  0  0  0  0
  1 30  1  6  0  0  0
  1  2  1  0  0  0  0
  1  5  1  0  0  0  0
  2  4  1  0  0  0  0
  3  2  1  0  0  0  0
  3  4  1  0  0  0  0
  6  5  1  0  0  0  0
  6  7  1  0  0  0  0
  8  9  1  0  0  0  0
  8  7  1  0  0  0  0
 10  9  1  0  0  0  0
 11 26  1  1  0  0  0
 11 10  1  0  0  0  0
 12 11  1  0  0  0  0
 13 25  1  0  0  0  0
 15 12  1  1  0  0  0
 16 24  2  0  0  0  0
 16 20  1  0  0  0  0
 17 18  1  0  0  0  0
 18 15  1  0  0  0  0
 18 14  1  0  0  0  0
 19 13  2  0  0  0  0
 20 21  2  0  0  0  0
 21 23  1  0  0  0  0
 22 13  1  0  0  0  0
 22 23  2  0  0  0  0
 23 18  1  0  0  0  0
 24 22  1  0  0  0  0
 25 15  1  0  0  0  0
 28 27  1  6  0  0  0
 28 26  1  0  0  0  0
 28 29  1  0  0  0  0
 31 30  1  0  0  0  0
 32 31  1  0  0  0  0
 33 32  1  0  0  0  0
 34 43  1  6  0  0  0
 34 33  1  0  0  0  0
 35 37  1  0  0  0  0
 36 40  1  6  0  0  0
 36 38  1  0  0  0  0
 37 34  1  6  0  0  0
 38 37  1  0  0  0  0
 39 35  1  0  0  0  0
 39 36  1  0  0  0  0
 40 41  1  0  0  0  0
 42 40  1  0  0  0  0
 44 50  1  0  0  0  0
 45 48  1  0  0  0  0
 45 44  1  0  0  0  0
 47 43  1  1  0  0  0
 47 49  1  0  0  0  0
 48 47  1  0  0  0  0
 49 50  1  0  0  0  0
 49 46  2  0  0  0  0
 50 51  1  0  0  0  0
 54 55  1  0  0  0  0
 55 52  1  0  0  0  0
 55 53  1  0  0  0  0
 55 51  1  0  0  0  0
M  END
>  <MODEL>
4

>  <REMARK>
 VINA RESULT:      -6.1      2.573      6.305
  Name = 
  23 active torsions:
  status: ('A' for Active; 'I' for Inactive)
    1  A    between atoms: C_2  and  C_28
    2  A    between atoms: C_2  and  C_44
    3  A    between atoms: C_6  and  N_46
    4  A    between atoms: C_8  and  C_20
    5  A    between atoms: C_8  and  C_22
    6  A    between atoms: C_10  and  C_32
    7  A    between atoms: C_17  and  C_36
    8  A    between atoms: C_19  and  C_40
    9  A    between atoms: C_19  and  N_45
   10  A    between atoms: C_22  and  C_35
   11  A    between atoms: C_22  and  N_46
   12  A    between atoms: C_24  and  C_44
   13  A    between atoms: C_27  and  C_31
   14  A    between atoms: C_27  and  C_54
   15  A    between atoms: C_28  and  C_49
   16  A    between atoms: C_31  and  C_44
   17  A    between atoms: C_33  and  C_49
   18  A    between atoms: C_33  and  C_52
   19  A    between atoms: C_34  and  C_52
   20  A    between atoms: C_35  and  C_43
   21  A    between atoms: C_36  and  C_52
   22  A    between atoms: C_43  and  C_51
   23  A    between atoms: C_51  and  C_54
                            x       y       z     vdW  Elec       q    Type
                         _______ _______ _______ _____ _____    ______ ____

>  <TORSDO>
F 23

$$$$
=
 OpenBabel11052415003D

 55 59  0  0  1  0  0  0  0  0999 V2000
  184.3550  177.9620  141.1050 C   0  0  2  0  0  3  0  0  0  0  0  0
  184.5990  179.1310  140.1600 C   0  0  0  0  0  3  0  0  0  0  0  0
  185.1290  178.6140  138.8370 C   0  0  0  0  0  2  0  0  0  0  0  0
  183.6750  179.0220  138.9640 C   0  0  0  0  0  2  0  0  0  0  0  0
  182.8750  177.8530  141.4710 C   0  0  0  0  0  2  0  0  0  0  0  0
  182.4090  179.0200  142.3340 C   0  0  0  0  0  2  0  0  0  0  0  0
  180.9030  179.1870  142.2350 C   0  0  0  0  0  2  0  0  0  0  0  0
  180.3010  178.0430  141.4410 C   0  0  0  0  0  2  0  0  0  0  0  0
  180.0060  178.4890  140.0240 C   0  0  0  0  0  2  0  0  0  0  0  0
  179.7910  177.2640  139.1600 C   0  0  0  0  0  2  0  0  0  0  0  0
  180.6900  177.3040  137.9360 C   0  0  1  0  0  3  0  0  0  0  0  0
  181.5580  176.1330  137.9180 N   0  0  0  0  0  2  0  0  0  0  0  0
  182.2220  173.2840  136.8990 C   0  0  0  0  0  0  0  0  0  0  0  0
  183.4010  177.1980  136.1800 F   0  0  0  0  0  0  0  0  0  0  0  0
  181.6270  175.6460  136.5450 C   0  0  1  0  0  3  0  0  0  0  0  0
  185.9360  173.1330  137.5800 C   0  0  0  0  0  3  0  0  0  0  0  0
  182.9870  175.6600  134.5950 F   0  0  0  0  0  0  0  0  0  0  0  0
  183.0290  175.8820  135.9600 C   0  0  0  0  0  0  0  0  0  0  0  0
  181.8400  172.1070  137.1360 O   0  0  0  0  0  0  0  0  0  0  0  0
  186.3380  174.3950  137.1330 C   0  0  0  0  0  3  0  0  0  0  0  0
  185.3970  175.2900  136.6230 C   0  0  0  0  0  3  0  0  0  0  0  0
  183.6410  173.6570  137.0040 C   0  0  0  0  0  0  0  0  0  0  0  0
  184.0390  174.9390  136.5730 C   0  0  0  0  0  0  0  0  0  0  0  0
  184.5910  172.7620  137.5120 C   0  0  0  0  0  3  0  0  0  0  0  0
  181.2930  174.2570  136.5190 O   0  0  0  0  0  0  0  0  0  0  0  0
  179.8640  177.4000  136.6460 C   0  0  0  0  0  2  0  0  0  0  0  0
  180.8080  179.6900  136.7570 C   0  0  0  0  0  1  0  0  0  0  0  0
  179.7780  178.8100  136.0770 C   0  0  1  0  0  3  0  0  0  0  0  0
  180.0100  178.7980  134.7020 O   0  0  0  0  0  1  0  0  0  0  0  0
  185.2460  178.0760  142.3390 C   0  0  0  0  0  2  0  0  0  0  0  0
  186.0560  179.3640  142.2970 C   0  0  0  0  0  2  0  0  0  0  0  0
  187.4440  179.1180  141.7260 C   0  0  0  0  0  2  0  0  0  0  0  0
  187.8990  177.7060  142.0520 C   0  0  0  0  0  2  0  0  0  0  0  0
  189.4250  177.6150  142.0740 C   0  0  1  0  0  3  0  0  0  0  0  0
  190.6000  178.3270  144.1950 C   0  0  0  0  0  2  0  0  0  0  0  0
  189.1570  177.0610  145.6160 C   0  0  1  0  0  3  0  0  0  0  0  0
  189.9770  177.1700  143.4350 C   0  0  1  0  0  3  0  0  0  0  0  0
  188.9440  176.5540  144.2650 N   0  0  0  0  0  2  0  0  0  0  0  0
  189.8640  178.3920  145.5070 C   0  0  0  0  0  2  0  0  0  0  0  0
  187.8430  177.1910  146.3920 C   0  0  0  0  0  3  0  0  0  0  0  0
  188.0590  177.6070  147.8380 C   0  0  0  0  0  1  0  0  0  0  0  0
  186.9190  178.1790  145.7080 C   0  0  0  0  0  1  0  0  0  0  0  0
  189.9080  176.6450  141.0030 C   0  0  0  0  0  2  0  0  0  0  0  0
  189.6580  176.5810  136.7510 C   0  0  0  0  0  2  0  0  0  0  0  0
  188.6660  177.4830  137.4740 C   0  0  0  0  0  2  0  0  0  0  0  0
  192.2310  176.5940  139.3440 O   0  0  0  0  0  0  0  0  0  0  0  0
  189.9510  177.3020  139.6270 C   0  0  2  0  0  3  0  0  0  0  0  0
  188.6110  177.0600  138.9330 C   0  0  0  0  0  2  0  0  0  0  0  0
  191.1130  176.8020  138.7950 C   0  0  0  0  0  0  0  0  0  0  0  0
  190.9790  176.6750  137.3670 N   0  0  0  0  0  0  0  0  0  0  0  0
  192.1510  176.4120  136.5360 C   0  0  0  0  0  2  0  0  0  0  0  0
  193.6210  174.6230  135.6680 C   0  0  0  0  0  1  0  0  0  0  0  0
  191.3300  174.8040  134.7870 C   0  0  0  0  0  1  0  0  0  0  0  0
  191.7160  174.0090  137.0980 C   0  0  0  0  0  1  0  0  0  0  0  0
  192.1900  174.9710  136.0250 C   0  0  0  0  0  0  0  0  0  0  0  0
  1  5  1  1  0  0  0
  1 30  1  0  0  0  0
  2  1  1  0  0  0  0
  3  4  1  0  0  0  0
  3  2  1  0  0  0  0
  4  2  1  0  0  0  0
  5  6  1  0  0  0  0
  7  6  1  0  0  0  0
  8  7  1  0  0  0  0
  9  8  1  0  0  0  0
 10  9  1  0  0  0  0
 11 26  1  6  0  0  0
 11 10  1  0  0  0  0
 12 11  1  0  0  0  0
 13 22  1  0  0  0  0
 13 19  2  0  0  0  0
 15 12  1  1  0  0  0
 17 18  1  0  0  0  0
 18 14  1  0  0  0  0
 18 15  1  0  0  0  0
 18 23  1  0  0  0  0
 20 16  2  0  0  0  0
 21 20  1  0  0  0  0
 22 24  2  0  0  0  0
 23 21  2  0  0  0  0
 23 22  1  0  0  0  0
 24 16  1  0  0  0  0
 25 15  1  0  0  0  0
 25 13  1  0  0  0  0
 28 26  1  0  0  0  0
 28 27  1  1  0  0  0
 29 28  1  0  0  0  0
 31 30  1  0  0  0  0
 32 33  1  0  0  0  0
 32 31  1  0  0  0  0
 33 34  1  0  0  0  0
 34 43  1  6  0  0  0
 35 39  1  0  0  0  0
 36 40  1  6  0  0  0
 37 34  1  6  0  0  0
 37 35  1  0  0  0  0
 37 38  1  0  0  0  0
 38 36  1  0  0  0  0
 39 36  1  0  0  0  0
 40 41  1  0  0  0  0
 42 40  1  0  0  0  0
 44 50  1  0  0  0  0
 44 45  1  0  0  0  0
 45 48  1  0  0  0  0
 47 43  1  1  0  0  0
 48 47  1  0  0  0  0
 49 46  2  0  0  0  0
 49 47  1  0  0  0  0
 50 49  1  0  0  0  0
 51 50  1  0  0  0  0
 52 55  1  0  0  0  0
 53 55  1  0  0  0  0
 55 51  1  0  0  0  0
 55 54  1  0  0  0  0
M  END
>  <MODEL>
5

>  <REMARK>
 VINA RESULT:      -6.1      1.923      3.285
  Name = 
  23 active torsions:
  status: ('A' for Active; 'I' for Inactive)
    1  A    between atoms: C_2  and  C_28
    2  A    between atoms: C_2  and  C_44
    3  A    between atoms: C_6  and  N_46
    4  A    between atoms: C_8  and  C_20
    5  A    between atoms: C_8  and  C_22
    6  A    between atoms: C_10  and  C_32
    7  A    between atoms: C_17  and  C_36
    8  A    between atoms: C_19  and  C_40
    9  A    between atoms: C_19  and  N_45
   10  A    between atoms: C_22  and  C_35
   11  A    between atoms: C_22  and  N_46
   12  A    between atoms: C_24  and  C_44
   13  A    between atoms: C_27  and  C_31
   14  A    between atoms: C_27  and  C_54
   15  A    between atoms: C_28  and  C_49
   16  A    between atoms: C_31  and  C_44
   17  A    between atoms: C_33  and  C_49
   18  A    between atoms: C_33  and  C_52
   19  A    between atoms: C_34  and  C_52
   20  A    between atoms: C_35  and  C_43
   21  A    between atoms: C_36  and  C_52
   22  A    between atoms: C_43  and  C_51
   23  A    between atoms: C_51  and  C_54
                            x       y       z     vdW  Elec       q    Type
                         _______ _______ _______ _____ _____    ______ ____

>  <TORSDO>
F 23

$$$$
=
 OpenBabel11052415003D

 55 59  0  0  1  0  0  0  0  0999 V2000
  189.7380  177.9590  143.1040 C   0  0  2  0  0  3  0  0  0  0  0  0
  190.6720  176.7960  143.4070 C   0  0  0  0  0  3  0  0  0  0  0  0
  191.8520  177.2890  144.2230 C   0  0  0  0  0  2  0  0  0  0  0  0
  190.7150  176.5510  144.9010 C   0  0  0  0  0  2  0  0  0  0  0  0
  188.5690  177.9940  144.0880 C   0  0  0  0  0  2  0  0  0  0  0  0
  187.3440  177.2610  143.5520 C   0  0  0  0  0  2  0  0  0  0  0  0
  186.2060  178.2350  143.3070 C   0  0  0  0  0  2  0  0  0  0  0  0
  185.5020  178.5550  144.6130 C   0  0  0  0  0  2  0  0  0  0  0  0
  184.0160  178.2910  144.4840 C   0  0  0  0  0  2  0  0  0  0  0  0
  183.3350  179.5540  144.0010 C   0  0  0  0  0  2  0  0  0  0  0  0
  182.1870  179.2200  143.0630 C   0  0  1  0  0  3  0  0  0  0  0  0
  182.7030  178.6100  141.8430 N   0  0  0  0  0  2  0  0  0  0  0  0
  180.7530  177.4880  139.7140 C   0  0  0  0  0  0  0  0  0  0  0  0
  184.2970  179.6430  139.8580 F   0  0  0  0  0  0  0  0  0  0  0  0
  182.0950  179.2960  140.7080 C   0  0  1  0  0  3  0  0  0  0  0  0
  183.0870  175.3140  137.6890 C   0  0  0  0  0  3  0  0  0  0  0  0
  182.5510  180.1110  138.5210 F   0  0  0  0  0  0  0  0  0  0  0  0
  183.0260  179.2380  139.4850 C   0  0  0  0  0  0  0  0  0  0  0  0
  179.6740  176.8370  139.7020 O   0  0  0  0  0  0  0  0  0  0  0  0
  184.1990  176.1530  137.5770 C   0  0  0  0  0  3  0  0  0  0  0  0
  184.1860  177.4160  138.1700 C   0  0  0  0  0  3  0  0  0  0  0  0
  181.9380  177.0050  138.9900 C   0  0  0  0  0  0  0  0  0  0  0  0
  183.0660  177.8450  138.8990 C   0  0  0  0  0  0  0  0  0  0  0  0
  181.9570  175.7400  138.3900 C   0  0  0  0  0  3  0  0  0  0  0  0
  180.8320  178.6950  140.4140 O   0  0  0  0  0  0  0  0  0  0  0  0
  181.1620  178.3050  143.7480 C   0  0  0  0  0  2  0  0  0  0  0  0
  179.4380  180.0120  143.2350 C   0  0  0  0  0  1  0  0  0  0  0  0
  179.9450  179.0460  144.2860 C   0  0  1  0  0  3  0  0  0  0  0  0
  178.9320  178.1460  144.6190 O   0  0  0  0  0  1  0  0  0  0  0  0
  189.2670  177.9060  141.6530 C   0  0  0  0  0  2  0  0  0  0  0  0
  190.3680  177.3630  140.7540 C   0  0  0  0  0  2  0  0  0  0  0  0
  189.7950  176.8320  139.4490 C   0  0  0  0  0  2  0  0  0  0  0  0
  190.8990  176.6770  138.4190 C   0  0  0  0  0  2  0  0  0  0  0  0
  190.4470  175.7870  137.2610 C   0  0  1  0  0  3  0  0  0  0  0  0
  188.9880  176.3340  135.2710 C   0  0  0  0  0  2  0  0  0  0  0  0
  187.2140  174.8940  135.9670 C   0  0  1  0  0  3  0  0  0  0  0  0
  189.0300  176.1170  136.7730 C   0  0  1  0  0  3  0  0  0  0  0  0
  188.0750  175.0700  137.1310 N   0  0  0  0  0  2  0  0  0  0  0  0
  187.9850  175.3410  134.7460 C   0  0  0  0  0  2  0  0  0  0  0  0
  186.7340  173.4470  135.8230 C   0  0  0  0  0  3  0  0  0  0  0  0
  187.8400  172.5090  135.3640 C   0  0  0  0  0  1  0  0  0  0  0  0
  186.1510  172.9500  137.1300 C   0  0  0  0  0  1  0  0  0  0  0  0
  191.4160  175.9140  136.0920 C   0  0  0  0  0  2  0  0  0  0  0  0
  195.2670  174.2830  135.2830 C   0  0  0  0  0  2  0  0  0  0  0  0
  195.2310  175.7250  135.7710 C   0  0  0  0  0  2  0  0  0  0  0  0
  192.1090  173.2330  136.7890 O   0  0  0  0  0  0  0  0  0  0  0  0
  192.8310  175.5060  136.4870 C   0  0  2  0  0  3  0  0  0  0  0  0
  193.8180  176.2560  135.5920 C   0  0  0  0  0  2  0  0  0  0  0  0
  193.0330  174.0070  136.4130 C   0  0  0  0  0  0  0  0  0  0  0  0
  194.3090  173.4670  136.0250 N   0  0  0  0  0  0  0  0  0  0  0  0
  194.5800  172.0380  136.1660 C   0  0  0  0  0  2  0  0  0  0  0  0
  196.9460  171.8990  136.8690 C   0  0  0  0  0  1  0  0  0  0  0  0
  195.3290  170.3160  137.8380 C   0  0  0  0  0  1  0  0  0  0  0  0
  195.2710  172.7050  138.4800 C   0  0  0  0  0  1  0  0  0  0  0  0
  195.5150  171.7360  137.3390 C   0  0  0  0  0  0  0  0  0  0  0  0
  1 30  1  6  0  0  0
  1  2  1  0  0  0  0
  1  5  1  0  0  0  0
  2  3  1  0  0  0  0
  2  4  1  0  0  0  0
  3  4  1  0  0  0  0
  6  5  1  0  0  0  0
  7  6  1  0  0  0  0
  7  8  1  0  0  0  0
  9  8  1  0  0  0  0
 10  9  1  0  0  0  0
 11 26  1  1  0  0  0
 11 10  1  0  0  0  0
 12 11  1  0  0  0  0
 13 25  1  0  0  0  0
 15 12  1  1  0  0  0
 16 24  1  0  0  0  0
 17 18  1  0  0  0  0
 18 14  1  0  0  0  0
 18 15  1  0  0  0  0
 19 13  2  0  0  0  0
 20 16  2  0  0  0  0
 20 21  1  0  0  0  0
 21 23  2  0  0  0  0
 22 13  1  0  0  0  0
 23 22  1  0  0  0  0
 23 18  1  0  0  0  0
 24 22  2  0  0  0  0
 25 15  1  0  0  0  0
 26 28  1  0  0  0  0
 28 27  1  6  0  0  0
 28 29  1  0  0  0  0
 31 30  1  0  0  0  0
 32 31  1  0  0  0  0
 33 32  1  0  0  0  0
 34 43  1  6  0  0  0
 34 33  1  0  0  0  0
 35 37  1  0  0  0  0
 36 40  1  6  0  0  0
 36 38  1  0  0  0  0
 37 38  1  0  0  0  0
 37 34  1  6  0  0  0
 39 35  1  0  0  0  0
 39 36  1  0  0  0  0
 40 42  1  0  0  0  0
 41 40  1  0  0  0  0
 44 45  1  0  0  0  0
 44 50  1  0  0  0  0
 47 43  1  6  0  0  0
 48 45  1  0  0  0  0
 48 47  1  0  0  0  0
 49 47  1  0  0  0  0
 49 46  2  0  0  0  0
 50 51  1  0  0  0  0
 50 49  1  0  0  0  0
 51 55  1  0  0  0  0
 52 55  1  0  0  0  0
 55 53  1  0  0  0  0
 55 54  1  0  0  0  0
M  END
>  <MODEL>
6

>  <REMARK>
 VINA RESULT:      -5.7      3.501      6.894
  Name = 
  23 active torsions:
  status: ('A' for Active; 'I' for Inactive)
    1  A    between atoms: C_2  and  C_28
    2  A    between atoms: C_2  and  C_44
    3  A    between atoms: C_6  and  N_46
    4  A    between atoms: C_8  and  C_20
    5  A    between atoms: C_8  and  C_22
    6  A    between atoms: C_10  and  C_32
    7  A    between atoms: C_17  and  C_36
    8  A    between atoms: C_19  and  C_40
    9  A    between atoms: C_19  and  N_45
   10  A    between atoms: C_22  and  C_35
   11  A    between atoms: C_22  and  N_46
   12  A    between atoms: C_24  and  C_44
   13  A    between atoms: C_27  and  C_31
   14  A    between atoms: C_27  and  C_54
   15  A    between atoms: C_28  and  C_49
   16  A    between atoms: C_31  and  C_44
   17  A    between atoms: C_33  and  C_49
   18  A    between atoms: C_33  and  C_52
   19  A    between atoms: C_34  and  C_52
   20  A    between atoms: C_35  and  C_43
   21  A    between atoms: C_36  and  C_52
   22  A    between atoms: C_43  and  C_51
   23  A    between atoms: C_51  and  C_54
                            x       y       z     vdW  Elec       q    Type
                         _______ _______ _______ _____ _____    ______ ____

>  <TORSDO>
F 23

$$$$
=
 OpenBabel11052415003D

 55 59  0  0  1  0  0  0  0  0999 V2000
  182.0280  178.3330  141.9320 C   0  0  2  0  0  3  0  0  0  0  0  0
  181.4770  179.3350  142.9380 C   0  0  0  0  0  3  0  0  0  0  0  0
  180.5410  178.6280  143.9000 C   0  0  0  0  0  2  0  0  0  0  0  0
  181.9520  178.9740  144.3310 C   0  0  0  0  0  2  0  0  0  0  0  0
  183.4920  178.0060  142.2300 C   0  0  0  0  0  2  0  0  0  0  0  0
  184.4230  178.4820  141.1210 C   0  0  0  0  0  2  0  0  0  0  0  0
  185.4810  179.4170  141.6790 C   0  0  0  0  0  2  0  0  0  0  0  0
  186.2490  178.7310  142.7950 C   0  0  0  0  0  2  0  0  0  0  0  0
  187.2110  177.7130  142.2180 C   0  0  0  0  0  2  0  0  0  0  0  0
  188.0040  178.3660  141.1040 C   0  0  0  0  0  2  0  0  0  0  0  0
  189.2950  177.6070  140.8470 C   0  0  1  0  0  3  0  0  0  0  0  0
  189.7310  176.9410  142.0680 N   0  0  0  0  0  2  0  0  0  0  0  0
  191.8050  175.8980  144.1200 C   0  0  0  0  0  0  0  0  0  0  0  0
  189.7240  179.3950  143.3040 F   0  0  0  0  0  0  0  0  0  0  0  0
  190.9910  177.5480  142.4840 C   0  0  1  0  0  3  0  0  0  0  0  0
  189.9610  176.5000  147.3630 C   0  0  0  0  0  3  0  0  0  0  0  0
  191.9060  179.2810  143.8300 F   0  0  0  0  0  0  0  0  0  0  0  0
  190.7560  178.5350  143.6400 C   0  0  0  0  0  0  0  0  0  0  0  0
  192.4270  174.8240  144.3400 O   0  0  0  0  0  0  0  0  0  0  0  0
  189.4410  177.7780  147.1380 C   0  0  0  0  0  3  0  0  0  0  0  0
  189.6850  178.4300  145.9280 C   0  0  0  0  0  3  0  0  0  0  0  0
  190.9780  176.5230  145.1630 C   0  0  0  0  0  0  0  0  0  0  0  0
  190.4360  177.8020  144.9230 C   0  0  0  0  0  0  0  0  0  0  0  0
  190.7320  175.8750  146.3790 C   0  0  0  0  0  3  0  0  0  0  0  0
  191.9050  176.5200  142.8720 O   0  0  0  0  0  0  0  0  0  0  0  0
  189.1250  176.6020  139.6990 C   0  0  0  0  0  2  0  0  0  0  0  0
  190.8500  176.1090  137.9870 C   0  0  0  0  0  1  0  0  0  0  0  0
  189.7430  177.0640  138.3860 C   0  0  1  0  0  3  0  0  0  0  0  0
  188.7790  177.1070  137.3790 O   0  0  0  0  0  1  0  0  0  0  0  0
  181.8300  178.8400  140.5060 C   0  0  0  0  0  2  0  0  0  0  0  0
  181.5800  177.6780  139.5560 C   0  0  0  0  0  2  0  0  0  0  0  0
  182.4340  177.8050  138.3040 C   0  0  0  0  0  2  0  0  0  0  0  0
  181.9940  179.0100  137.4920 C   0  0  0  0  0  2  0  0  0  0  0  0
  180.8620  178.6410  136.5320 C   0  0  1  0  0  3  0  0  0  0  0  0
  178.9620  179.9170  137.6020 C   0  0  0  0  0  2  0  0  0  0  0  0
  179.7480  182.0430  136.8530 C   0  0  1  0  0  3  0  0  0  0  0  0
  179.8290  179.7630  136.3670 C   0  0  1  0  0  3  0  0  0  0  0  0
  180.4640  181.0450  136.0670 N   0  0  0  0  0  2  0  0  0  0  0  0
  179.1360  181.3460  138.0450 C   0  0  0  0  0  2  0  0  0  0  0  0
  180.6620  183.1920  137.2880 C   0  0  0  0  0  3  0  0  0  0  0  0
  181.9350  182.7020  137.9600 C   0  0  0  0  0  1  0  0  0  0  0  0
  181.0130  184.0680  136.1030 C   0  0  0  0  0  1  0  0  0  0  0  0
  181.4300  178.2850  135.1640 C   0  0  0  0  0  2  0  0  0  0  0  0
  181.4350  174.1780  136.2970 C   0  0  0  0  0  2  0  0  0  0  0  0
  180.1520  174.7050  135.6680 C   0  0  0  0  0  2  0  0  0  0  0  0
  183.7010  176.6000  134.7650 O   0  0  0  0  0  0  0  0  0  0  0  0
  181.3070  176.7920  134.8740 C   0  0  2  0  0  3  0  0  0  0  0  0
  180.1770  176.2240  135.7320 C   0  0  0  0  0  2  0  0  0  0  0  0
  182.6110  176.0580  135.1040 C   0  0  0  0  0  0  0  0  0  0  0  0
  182.6040  174.7060  135.5970 N   0  0  0  0  0  0  0  0  0  0  0  0
  183.8330  173.9180  135.6090 C   0  0  0  0  0  2  0  0  0  0  0  0
  183.7480  174.8630  137.8920 C   0  0  0  0  0  1  0  0  0  0  0  0
  185.9360  174.6250  136.7910 C   0  0  0  0  0  1  0  0  0  0  0  0
  184.7080  172.6210  137.5670 C   0  0  0  0  0  1  0  0  0  0  0  0
  184.5640  174.0000  136.9510 C   0  0  0  0  0  0  0  0  0  0  0  0
  1 30  1  6  0  0  0
  1  5  1  0  0  0  0
  1  2  1  0  0  0  0
  2  3  1  0  0  0  0
  2  4  1  0  0  0  0
  3  4  1  0  0  0  0
  6  7  1  0  0  0  0
  6  5  1  0  0  0  0
  7  8  1  0  0  0  0
  9  8  1  0  0  0  0
 10  9  1  0  0  0  0
 11 26  1  6  0  0  0
 11 10  1  0  0  0  0
 11 12  1  0  0  0  0
 13 19  2  0  0  0  0
 13 22  1  0  0  0  0
 14 18  1  0  0  0  0
 15 12  1  1  0  0  0
 15 25  1  0  0  0  0
 15 18  1  0  0  0  0
 18 17  1  0  0  0  0
 18 23  1  0  0  0  0
 20 16  1  0  0  0  0
 21 20  2  0  0  0  0
 22 24  1  0  0  0  0
 23 22  2  0  0  0  0
 23 21  1  0  0  0  0
 24 16  2  0  0  0  0
 25 13  1  0  0  0  0
 28 27  1  6  0  0  0
 28 26  1  0  0  0  0
 29 28  1  0  0  0  0
 31 30  1  0  0  0  0
 32 31  1  0  0  0  0
 33 32  1  0  0  0  0
 34 43  1  6  0  0  0
 34 33  1  0  0  0  0
 35 39  1  0  0  0  0
 36 40  1  1  0  0  0
 36 39  1  0  0  0  0
 37 34  1  1  0  0  0
 37 35  1  0  0  0  0
 38 37  1  0  0  0  0
 38 36  1  0  0  0  0
 40 41  1  0  0  0  0
 42 40  1  0  0  0  0
 45 48  1  0  0  0  0
 45 44  1  0  0  0  0
 46 49  2  0  0  0  0
 47 49  1  0  0  0  0
 47 43  1  1  0  0  0
 47 48  1  0  0  0  0
 49 50  1  0  0  0  0
 50 51  1  0  0  0  0
 50 44  1  0  0  0  0
 51 55  1  0  0  0  0
 53 55  1  0  0  0  0
 55 54  1  0  0  0  0
 55 52  1  0  0  0  0
M  END
>  <MODEL>
7

>  <REMARK>
 VINA RESULT:      -5.6      3.270     10.054
  Name = 
  23 active torsions:
  status: ('A' for Active; 'I' for Inactive)
    1  A    between atoms: C_2  and  C_28
    2  A    between atoms: C_2  and  C_44
    3  A    between atoms: C_6  and  N_46
    4  A    between atoms: C_8  and  C_20
    5  A    between atoms: C_8  and  C_22
    6  A    between atoms: C_10  and  C_32
    7  A    between atoms: C_17  and  C_36
    8  A    between atoms: C_19  and  C_40
    9  A    between atoms: C_19  and  N_45
   10  A    between atoms: C_22  and  C_35
   11  A    between atoms: C_22  and  N_46
   12  A    between atoms: C_24  and  C_44
   13  A    between atoms: C_27  and  C_31
   14  A    between atoms: C_27  and  C_54
   15  A    between atoms: C_28  and  C_49
   16  A    between atoms: C_31  and  C_44
   17  A    between atoms: C_33  and  C_49
   18  A    between atoms: C_33  and  C_52
   19  A    between atoms: C_34  and  C_52
   20  A    between atoms: C_35  and  C_43
   21  A    between atoms: C_36  and  C_52
   22  A    between atoms: C_43  and  C_51
   23  A    between atoms: C_51  and  C_54
                            x       y       z     vdW  Elec       q    Type
                         _______ _______ _______ _____ _____    ______ ____

>  <TORSDO>
F 23

$$$$
=
 OpenBabel11052415003D

 55 59  0  0  1  0  0  0  0  0999 V2000
  189.9350  177.4330  141.4070 C   0  0  2  0  0  3  0  0  0  0  0  0
  191.3370  177.6860  141.9470 C   0  0  0  0  0  3  0  0  0  0  0  0
  191.2770  177.8680  143.4510 C   0  0  0  0  0  2  0  0  0  0  0  0
  191.7430  176.5510  142.8630 C   0  0  0  0  0  2  0  0  0  0  0  0
  189.9820  177.0150  139.9370 C   0  0  0  0  0  2  0  0  0  0  0  0
  189.5090  178.1270  139.0080 C   0  0  0  0  0  2  0  0  0  0  0  0
  189.7550  177.7500  137.5580 C   0  0  0  0  0  2  0  0  0  0  0  0
  188.4550  177.3220  136.9020 C   0  0  0  0  0  2  0  0  0  0  0  0
  188.6630  176.0420  136.1190 C   0  0  0  0  0  2  0  0  0  0  0  0
  189.2020  174.9790  137.0530 C   0  0  0  0  0  2  0  0  0  0  0  0
  189.3700  173.6560  136.3240 C   0  0  1  0  0  3  0  0  0  0  0  0
  190.7010  173.1160  136.5730 N   0  0  0  0  0  2  0  0  0  0  0  0
  193.0900  171.6010  135.3120 C   0  0  0  0  0  0  0  0  0  0  0  0
  192.2440  175.3770  136.8120 F   0  0  0  0  0  0  0  0  0  0  0  0
  191.5640  173.5250  135.4710 C   0  0  1  0  0  3  0  0  0  0  0  0
  195.6840  171.9740  138.0350 C   0  0  0  0  0  3  0  0  0  0  0  0
  193.3760  174.9620  134.9140 F   0  0  0  0  0  0  0  0  0  0  0  0
  192.7360  174.3750  135.9920 C   0  0  0  0  0  0  0  0  0  0  0  0
  193.3160  170.4460  134.8600 O   0  0  0  0  0  0  0  0  0  0  0  0
  195.5160  173.3180  138.3770 C   0  0  0  0  0  3  0  0  0  0  0  0
  194.5520  174.0920  137.7280 C   0  0  0  0  0  3  0  0  0  0  0  0
  193.9220  172.1710  136.3830 C   0  0  0  0  0  0  0  0  0  0  0  0
  193.7330  173.5210  136.7420 C   0  0  0  0  0  0  0  0  0  0  0  0
  194.8920  171.4020  137.0370 C   0  0  0  0  0  3  0  0  0  0  0  0
  192.0430  172.3640  134.7890 O   0  0  0  0  0  0  0  0  0  0  0  0
  188.2810  172.6570  136.7370 C   0  0  0  0  0  2  0  0  0  0  0  0
  186.4840  171.6180  135.3790 C   0  0  0  0  0  1  0  0  0  0  0  0
  186.9400  172.8960  136.0540 C   0  0  1  0  0  3  0  0  0  0  0  0
  185.9820  173.2990  136.9840 O   0  0  0  0  0  1  0  0  0  0  0  0
  189.0460  178.6540  141.6300 C   0  0  0  0  0  2  0  0  0  0  0  0
  187.5860  178.2380  141.7450 C   0  0  0  0  0  2  0  0  0  0  0  0
  187.2120  177.9570  143.1910 C   0  0  0  0  0  2  0  0  0  0  0  0
  185.8460  177.2960  143.2580 C   0  0  0  0  0  2  0  0  0  0  0  0
  184.7860  178.2780  143.7580 C   0  0  1  0  0  3  0  0  0  0  0  0
  184.2790  178.7200  146.1930 C   0  0  0  0  0  2  0  0  0  0  0  0
  186.5600  178.5310  146.8740 C   0  0  1  0  0  3  0  0  0  0  0  0
  185.2120  179.0170  145.0340 C   0  0  1  0  0  3  0  0  0  0  0  0
  186.5800  178.6820  145.4240 N   0  0  0  0  0  2  0  0  0  0  0  0
  185.1540  178.1600  147.2840 C   0  0  0  0  0  2  0  0  0  0  0  0
  187.5720  177.4880  147.3550 C   0  0  0  0  0  3  0  0  0  0  0  0
  188.7110  177.2830  146.3680 C   0  0  0  0  0  1  0  0  0  0  0  0
  188.1310  177.8760  148.7090 C   0  0  0  0  0  1  0  0  0  0  0  0
  184.4680  179.3020  142.6760 C   0  0  0  0  0  2  0  0  0  0  0  0
  182.8530  179.3770  138.7340 C   0  0  0  0  0  2  0  0  0  0  0  0
  184.1700  178.6330  138.9120 C   0  0  0  0  0  2  0  0  0  0  0  0
  181.6730  179.0050  142.1720 O   0  0  0  0  0  0  0  0  0  0  0  0
  183.9250  178.6380  141.4140 C   0  0  2  0  0  3  0  0  0  0  0  0
  184.7910  179.0680  140.2310 C   0  0  0  0  0  2  0  0  0  0  0  0
  182.4620  178.9590  141.1870 C   0  0  0  0  0  0  0  0  0  0  0  0
  181.9510  179.0960  139.8490 N   0  0  0  0  0  0  0  0  0  0  0  0
  180.5120  179.1820  139.6140 C   0  0  0  0  0  2  0  0  0  0  0  0
  180.9620  176.7780  139.2500 C   0  0  0  0  0  1  0  0  0  0  0  0
  178.9430  177.7680  138.2490 C   0  0  0  0  0  1  0  0  0  0  0  0
  179.0830  177.4320  140.6970 C   0  0  0  0  0  1  0  0  0  0  0  0
  179.8660  177.8050  139.4520 C   0  0  0  0  0  0  0  0  0  0  0  0
  1  5  1  6  0  0  0
  1 30  1  0  0  0  0
  1  2  1  0  0  0  0
  2  4  1  0  0  0  0
  2  3  1  0  0  0  0
  4  3  1  0  0  0  0
  6  5  1  0  0  0  0
  7  6  1  0  0  0  0
  8  7  1  0  0  0  0
  9  8  1  0  0  0  0
  9 10  1  0  0  0  0
 11 12  1  0  0  0  0
 11 26  1  1  0  0  0
 11 10  1  0  0  0  0
 13 22  1  0  0  0  0
 15 18  1  0  0  0  0
 15 12  1  1  0  0  0
 16 20  1  0  0  0  0
 17 18  1  0  0  0  0
 18 23  1  0  0  0  0
 18 14  1  0  0  0  0
 19 13  2  0  0  0  0
 21 20  2  0  0  0  0
 22 23  2  0  0  0  0
 22 24  1  0  0  0  0
 23 21  1  0  0  0  0
 24 16  2  0  0  0  0
 25 13  1  0  0  0  0
 25 15  1  0  0  0  0
 28 27  1  1  0  0  0
 28 26  1  0  0  0  0
 28 29  1  0  0  0  0
 30 31  1  0  0  0  0
 31 32  1  0  0  0  0
 32 33  1  0  0  0  0
 33 34  1  0  0  0  0
 34 43  1  6  0  0  0
 35 39  1  0  0  0  0
 36 39  1  0  0  0  0
 36 40  1  6  0  0  0
 37 34  1  6  0  0  0
 37 38  1  0  0  0  0
 37 35  1  0  0  0  0
 38 36  1  0  0  0  0
 40 42  1  0  0  0  0
 41 40  1  0  0  0  0
 44 45  1  0  0  0  0
 44 50  1  0  0  0  0
 45 48  1  0  0  0  0
 47 43  1  1  0  0  0
 48 47  1  0  0  0  0
 49 47  1  0  0  0  0
 49 46  2  0  0  0  0
 50 49  1  0  0  0  0
 51 50  1  0  0  0  0
 52 55  1  0  0  0  0
 53 55  1  0  0  0  0
 55 51  1  0  0  0  0
 55 54  1  0  0  0  0
M  END
>  <MODEL>
8

>  <REMARK>
 VINA RESULT:      -5.4      4.019      8.590
  Name = 
  23 active torsions:
  status: ('A' for Active; 'I' for Inactive)
    1  A    between atoms: C_2  and  C_28
    2  A    between atoms: C_2  and  C_44
    3  A    between atoms: C_6  and  N_46
    4  A    between atoms: C_8  and  C_20
    5  A    between atoms: C_8  and  C_22
    6  A    between atoms: C_10  and  C_32
    7  A    between atoms: C_17  and  C_36
    8  A    between atoms: C_19  and  C_40
    9  A    between atoms: C_19  and  N_45
   10  A    between atoms: C_22  and  C_35
   11  A    between atoms: C_22  and  N_46
   12  A    between atoms: C_24  and  C_44
   13  A    between atoms: C_27  and  C_31
   14  A    between atoms: C_27  and  C_54
   15  A    between atoms: C_28  and  C_49
   16  A    between atoms: C_31  and  C_44
   17  A    between atoms: C_33  and  C_49
   18  A    between atoms: C_33  and  C_52
   19  A    between atoms: C_34  and  C_52
   20  A    between atoms: C_35  and  C_43
   21  A    between atoms: C_36  and  C_52
   22  A    between atoms: C_43  and  C_51
   23  A    between atoms: C_51  and  C_54
                            x       y       z     vdW  Elec       q    Type
                         _______ _______ _______ _____ _____    ______ ____

>  <TORSDO>
F 23

$$$$
=
 OpenBabel11052415003D

 55 59  0  0  1  0  0  0  0  0999 V2000
  191.0610  174.7090  137.2170 C   0  0  2  0  0  3  0  0  0  0  0  0
  192.4420  174.7000  136.5730 C   0  0  0  0  0  3  0  0  0  0  0  0
  193.4910  175.0320  137.6160 C   0  0  0  0  0  2  0  0  0  0  0  0
  193.2820  173.5960  137.1820 C   0  0  0  0  0  2  0  0  0  0  0  0
  190.2240  173.5250  136.7320 C   0  0  0  0  0  2  0  0  0  0  0  0
  188.7620  173.9030  136.5220 C   0  0  0  0  0  2  0  0  0  0  0  0
  187.8940  172.6590  136.4560 C   0  0  0  0  0  2  0  0  0  0  0  0
  186.4380  173.0250  136.6780 C   0  0  0  0  0  2  0  0  0  0  0  0
  186.3290  174.4440  137.1980 C   0  0  0  0  0  2  0  0  0  0  0  0
  185.2540  175.1700  136.4180 C   0  0  0  0  0  2  0  0  0  0  0  0
  185.3760  176.6730  136.6050 C   0  0  1  0  0  3  0  0  0  0  0  0
  184.3170  177.1510  137.4850 N   0  0  0  0  0  2  0  0  0  0  0  0
  181.6010  178.3030  136.5390 C   0  0  0  0  0  0  0  0  0  0  0  0
  183.0290  175.6460  139.3900 F   0  0  0  0  0  0  0  0  0  0  0  0
  183.0910  176.4390  137.1410 C   0  0  1  0  0  3  0  0  0  0  0  0
  180.3140  179.8180  139.7530 C   0  0  0  0  0  3  0  0  0  0  0  0
  181.2290  175.3030  138.0880 F   0  0  0  0  0  0  0  0  0  0  0  0
  182.2370  176.2000  138.3980 C   0  0  0  0  0  0  0  0  0  0  0  0
  181.1970  179.1110  135.6610 O   0  0  0  0  0  0  0  0  0  0  0  0
  180.6240  178.8060  140.6650 C   0  0  0  0  0  3  0  0  0  0  0  0
  181.2600  177.6420  140.2300 C   0  0  0  0  0  3  0  0  0  0  0  0
  181.2740  178.5010  137.9590 C   0  0  0  0  0  0  0  0  0  0  0  0
  181.6090  177.4870  138.8800 C   0  0  0  0  0  0  0  0  0  0  0  0
  180.6340  179.6650  138.4020 C   0  0  0  0  0  3  0  0  0  0  0  0
  182.3640  177.1920  136.1680 O   0  0  0  0  0  0  0  0  0  0  0  0
  186.7600  177.0510  137.1480 C   0  0  0  0  0  2  0  0  0  0  0  0
  187.0290  178.0580  134.8980 C   0  0  0  0  0  1  0  0  0  0  0  0
  187.4510  178.1490  136.3500 C   0  0  1  0  0  3  0  0  0  0  0  0
  187.1170  179.4050  136.8550 O   0  0  0  0  0  1  0  0  0  0  0  0
  190.3640  176.0450  136.9730 C   0  0  0  0  0  2  0  0  0  0  0  0
  190.8050  177.0730  138.0040 C   0  0  0  0  0  2  0  0  0  0  0  0
  190.0650  176.8800  139.3180 C   0  0  0  0  0  2  0  0  0  0  0  0
  191.0540  176.6140  140.4390 C   0  0  0  0  0  2  0  0  0  0  0  0
  190.4480  176.9650  141.7990 C   0  0  1  0  0  3  0  0  0  0  0  0
  191.2730  178.7570  143.3770 C   0  0  0  0  0  2  0  0  0  0  0  0
  191.6910  177.2270  145.1610 C   0  0  1  0  0  3  0  0  0  0  0  0
  191.5050  177.3570  142.8400 C   0  0  1  0  0  3  0  0  0  0  0  0
  191.5410  176.4170  143.9580 N   0  0  0  0  0  2  0  0  0  0  0  0
  191.1390  178.6020  144.8690 C   0  0  0  0  0  2  0  0  0  0  0  0
  190.9950  176.5930  146.3690 C   0  0  0  0  0  3  0  0  0  0  0  0
  191.8860  176.5520  147.6000 C   0  0  0  0  0  1  0  0  0  0  0  0
  189.7120  177.3330  146.6890 C   0  0  0  0  0  1  0  0  0  0  0  0
  189.4520  178.1070  141.6490 C   0  0  0  0  0  2  0  0  0  0  0  0
  186.0110  176.6580  143.7000 C   0  0  0  0  0  2  0  0  0  0  0  0
  187.3220  176.6290  144.4740 C   0  0  0  0  0  2  0  0  0  0  0  0
  186.9040  179.3760  141.4280 O   0  0  0  0  0  0  0  0  0  0  0  0
  188.4390  178.1250  142.7900 C   0  0  2  0  0  3  0  0  0  0  0  0
  188.4660  176.7620  143.4810 C   0  0  0  0  0  2  0  0  0  0  0  0
  187.0490  178.4840  142.3100 C   0  0  0  0  0  0  0  0  0  0  0  0
  185.8930  177.8980  142.9370 N   0  0  0  0  0  0  0  0  0  0  0  0
  184.5550  178.4030  142.6370 C   0  0  0  0  0  2  0  0  0  0  0  0
  184.6160  180.4770  143.9810 C   0  0  0  0  0  1  0  0  0  0  0  0
  184.1090  178.3500  145.1110 C   0  0  0  0  0  1  0  0  0  0  0  0
  182.4510  179.3760  143.5870 C   0  0  0  0  0  1  0  0  0  0  0  0
  183.9300  179.1350  143.8250 C   0  0  0  0  0  0  0  0  0  0  0  0
  1  5  1  6  0  0  0
  2  4  1  0  0  0  0
  2  1  1  0  0  0  0
  2  3  1  0  0  0  0
  4  3  1  0  0  0  0
  6  5  1  0  0  0  0
  7  6  1  0  0  0  0
  7  8  1  0  0  0  0
  8  9  1  0  0  0  0
 10  9  1  0  0  0  0
 11 10  1  1  0  0  0
 11 26  1  0  0  0  0
 11 12  1  0  0  0  0
 13 22  1  0  0  0  0
 15 12  1  1  0  0  0
 15 18  1  0  0  0  0
 16 20  1  0  0  0  0
 17 18  1  0  0  0  0
 18 23  1  0  0  0  0
 18 14  1  0  0  0  0
 19 13  2  0  0  0  0
 21 20  2  0  0  0  0
 22 24  1  0  0  0  0
 22 23  2  0  0  0  0
 23 21  1  0  0  0  0
 24 16  2  0  0  0  0
 25 13  1  0  0  0  0
 25 15  1  0  0  0  0
 28 27  1  6  0  0  0
 28 29  1  0  0  0  0
 28 26  1  0  0  0  0
 30  1  1  0  0  0  0
 30 31  1  0  0  0  0
 31 32  1  0  0  0  0
 32 33  1  0  0  0  0
 34 33  1  6  0  0  0
 35 39  1  0  0  0  0
 36 40  1  1  0  0  0
 37 34  1  6  0  0  0
 37 35  1  0  0  0  0
 37 38  1  0  0  0  0
 38 36  1  0  0  0  0
 39 36  1  0  0  0  0
 40 42  1  0  0  0  0
 40 41  1  0  0  0  0
 43 34  1  0  0  0  0
 44 45  1  0  0  0  0
 46 49  2  0  0  0  0
 47 43  1  6  0  0  0
 47 48  1  0  0  0  0
 48 45  1  0  0  0  0
 49 47  1  0  0  0  0
 49 50  1  0  0  0  0
 50 44  1  0  0  0  0
 51 50  1  0  0  0  0
 51 55  1  0  0  0  0
 54 55  1  0  0  0  0
 55 52  1  0  0  0  0
 55 53  1  0  0  0  0
M  END
>  <MODEL>
9

>  <REMARK>
 VINA RESULT:      -5.4      2.011      6.816
  Name = 
  23 active torsions:
  status: ('A' for Active; 'I' for Inactive)
    1  A    between atoms: C_2  and  C_28
    2  A    between atoms: C_2  and  C_44
    3  A    between atoms: C_6  and  N_46
    4  A    between atoms: C_8  and  C_20
    5  A    between atoms: C_8  and  C_22
    6  A    between atoms: C_10  and  C_32
    7  A    between atoms: C_17  and  C_36
    8  A    between atoms: C_19  and  C_40
    9  A    between atoms: C_19  and  N_45
   10  A    between atoms: C_22  and  C_35
   11  A    between atoms: C_22  and  N_46
   12  A    between atoms: C_24  and  C_44
   13  A    between atoms: C_27  and  C_31
   14  A    between atoms: C_27  and  C_54
   15  A    between atoms: C_28  and  C_49
   16  A    between atoms: C_31  and  C_44
   17  A    between atoms: C_33  and  C_49
   18  A    between atoms: C_33  and  C_52
   19  A    between atoms: C_34  and  C_52
   20  A    between atoms: C_35  and  C_43
   21  A    between atoms: C_36  and  C_52
   22  A    between atoms: C_43  and  C_51
   23  A    between atoms: C_51  and  C_54
                            x       y       z     vdW  Elec       q    Type
                         _______ _______ _______ _____ _____    ______ ____

>  <TORSDO>
F 23

$$$$
