=
 OpenBabel11052416433D

 43 48  0  0  1  0  0  0  0  0999 V2000
  189.5020  178.2880  138.3240 C   0  0  0  0  0  2  0  0  0  0  0  0
  190.8280  177.6420  138.7530 C   0  0  1  0  0  3  0  0  0  0  0  0
  188.6830  178.7180  139.5360 C   0  0  0  0  0  2  0  0  0  0  0  0
  190.7600  176.9130  140.1030 C   0  0  0  0  0  2  0  0  0  0  0  0
  189.3570  176.3780  140.3900 C   0  0  0  0  0  2  0  0  0  0  0  0
  188.3050  177.5030  140.3980 C   0  0  1  0  0  3  0  0  0  0  0  0
  192.6820  176.2480  137.7300 N   0  0  0  0  0  2  0  0  0  0  0  0
  191.3300  176.7300  137.6840 C   0  0  0  0  0  0  0  0  0  0  0  0
  190.5570  176.4000  136.7450 O   0  0  0  0  0  0  0  0  0  0  0  0
  193.3100  175.3600  136.7530 C   0  0  2  0  0  3  0  0  0  0  0  0
  194.2030  173.2020  137.3750 N   0  0  0  0  0  2  0  0  0  0  0  0
  195.3370  174.1160  137.4190 C   0  0  2  0  0  3  0  0  0  0  0  0
  193.0440  173.9380  137.0550 C   0  0  0  0  0  0  0  0  0  0  0  0
  194.8360  175.4540  136.8060 C   0  0  1  0  0  3  0  0  0  0  0  0
  195.3150  175.6280  135.5040 O   0  0  0  0  0  1  0  0  0  0  0  0
  191.9010  173.4140  137.0110 O   0  0  0  0  0  0  0  0  0  0  0  0
  196.5030  173.5570  136.7200 N   0  0  0  0  0  0  0  0  0  0  0  0
  198.9040  173.1070  136.9400 C   0  0  0  0  0  2  0  0  0  0  0  0
  197.4230  171.5410  135.6670 C   0  0  0  0  0  2  0  0  0  0  0  0
  198.6920  171.6610  136.5030 C   0  0  0  0  0  2  0  0  0  0  0  0
  196.2480  172.1400  136.4380 C   0  0  0  0  0  2  0  0  0  0  0  0
  197.6460  173.6170  137.6380 C   0  0  0  0  0  2  0  0  0  0  0  0
  187.9070  177.9380  141.8100 C   0  0  2  0  0  3  0  0  0  0  0  0
  188.5450  178.1080  147.5470 C   0  0  0  0  0  0  0  0  0  0  0  0
  187.5560  176.7400  142.7200 C   0  0  2  0  0  3  0  0  0  0  0  0
  188.6780  177.2580  145.2830 C   0  0  0  0  0  0  0  0  0  0  0  0
  187.1620  178.2580  147.4120 C   0  0  0  0  0  3  0  0  0  0  0  0
  189.2130  178.4850  148.8200 C   0  0  0  0  0  1  0  0  0  0  0  0
  187.2890  177.4300  145.1370 C   0  0  0  0  0  0  0  0  0  0  0  0
  189.3020  177.6140  146.4810 C   0  0  0  0  0  3  0  0  0  0  0  0
  186.5350  177.9170  146.2110 C   0  0  0  0  0  3  0  0  0  0  0  0
  186.5830  177.0360  143.8720 C   0  0  0  0  0  2  0  0  0  0  0  0
  188.7430  176.0090  143.1750 N   0  0  0  0  0  2  0  0  0  0  0  0
  189.5170  176.8110  144.1240 C   0  0  0  0  0  2  0  0  0  0  0  0
  186.8370  178.9280  141.7480 N   0  0  0  0  0  2  0  0  0  0  0  0
  185.8070  178.3950  140.8720 C   0  0  0  0  0  2  0  0  0  0  0  0
  183.4390  178.5560  141.5920 C   0  0  0  0  0  2  0  0  0  0  0  0
  182.6240  177.8280  140.5420 C   0  0  1  0  0  3  0  0  0  0  0  0
  184.0460  179.7130  139.2070 S   0  0  0  0  0  0  0  0  0  0  0  0
  184.5740  179.2870  140.9010 C   0  0  2  0  0  3  0  0  0  0  0  0
  182.5030  178.7630  139.3590 C   0  0  0  0  0  2  0  0  0  0  0  0
  182.3320  175.9350  139.4310 C   0  0  0  0  0  1  0  0  0  0  0  0
  183.2820  176.6580  140.1540 O   0  0  0  0  0  0  0  0  0  0  0  0
  1  2  1  0  0  0  0
  1  3  1  0  0  0  0
  2  8  1  6  0  0  0
  2  4  1  0  0  0  0
  3  6  1  0  0  0  0
  4  5  1  0  0  0  0
  5  6  1  0  0  0  0
  6 23  1  1  0  0  0
  8  7  1  0  0  0  0
  9  8  2  0  0  0  0
 10 14  1  0  0  0  0
 10 13  1  0  0  0  0
 10  7  1  1  0  0  0
 11 12  1  0  0  0  0
 12 17  1  6  0  0  0
 13 11  1  0  0  0  0
 14 15  1  6  0  0  0
 14 12  1  0  0  0  0
 16 13  2  0  0  0  0
 17 22  1  0  0  0  0
 18 22  1  0  0  0  0
 19 21  1  0  0  0  0
 19 20  1  0  0  0  0
 20 18  1  0  0  0  0
 21 17  1  0  0  0  0
 23 35  1  6  0  0  0
 24 28  1  0  0  0  0
 25 23  1  1  0  0  0
 25 33  1  0  0  0  0
 25 32  1  0  0  0  0
 26 30  1  0  0  0  0
 27 24  1  0  0  0  0
 29 26  2  0  0  0  0
 29 31  1  0  0  0  0
 30 24  2  0  0  0  0
 31 27  2  0  0  0  0
 32 29  1  0  0  0  0
 33 34  1  0  0  0  0
 34 26  1  0  0  0  0
 36 35  1  0  0  0  0
 38 43  1  6  0  0  0
 38 37  1  0  0  0  0
 39 41  1  0  0  0  0
 39 40  1  0  0  0  0
 40 36  1  6  0  0  0
 40 37  1  0  0  0  0
 41 38  1  0  0  0  0
 42 43  1  0  0  0  0
M  END
>  <MODEL>
1

>  <REMARK>
 VINA RESULT:      -7.6      0.000      0.000
  Name = 
  9 active torsions:
  status: ('A' for Active; 'I' for Inactive)
    1  A    between atoms: N_1  and  C_34
    2  A    between atoms: N_1  and  C_35
    3  A    between atoms: N_3  and  C_4
    4  A    between atoms: C_6  and  C_12
    5  A    between atoms: C_8  and  C_34
    6  A    between atoms: N_11  and  C_14
    7  A    between atoms: C_19  and  O_37
    8  A    between atoms: C_32  and  C_35
    9  A    between atoms: C_34  and  C_38
                            x       y       z     vdW  Elec       q    Type
                         _______ _______ _______ _____ _____    ______ ____

>  <TORSDO>
F 9

$$$$
=
 OpenBabel11052416433D

 43 48  0  0  1  0  0  0  0  0999 V2000
  187.2690  178.6170  137.1920 C   0  0  0  0  0  2  0  0  0  0  0  0
  186.7220  177.4890  136.3050 C   0  0  1  0  0  3  0  0  0  0  0  0
  188.7790  178.4970  137.3650 C   0  0  0  0  0  2  0  0  0  0  0  0
  187.5220  176.1800  136.3960 C   0  0  0  0  0  2  0  0  0  0  0  0
  188.1910  176.0160  137.7600 C   0  0  0  0  0  2  0  0  0  0  0  0
  189.1450  177.1840  138.0740 C   0  0  1  0  0  3  0  0  0  0  0  0
  184.7340  177.6350  137.8710 N   0  0  0  0  0  2  0  0  0  0  0  0
  185.2800  177.2490  136.6000 C   0  0  0  0  0  0  0  0  0  0  0  0
  184.5580  176.6990  135.7260 O   0  0  0  0  0  0  0  0  0  0  0  0
  183.3470  177.4560  138.3000 C   0  0  2  0  0  3  0  0  0  0  0  0
  182.0570  179.2680  139.2430 N   0  0  0  0  0  2  0  0  0  0  0  0
  182.6060  178.5500  140.3860 C   0  0  2  0  0  3  0  0  0  0  0  0
  182.5390  178.6700  138.0610 C   0  0  0  0  0  0  0  0  0  0  0  0
  183.2480  177.2550  139.8130 C   0  0  1  0  0  3  0  0  0  0  0  0
  182.4460  176.1370  140.0600 O   0  0  0  0  0  1  0  0  0  0  0  0
  182.2780  179.1240  136.9170 O   0  0  0  0  0  0  0  0  0  0  0  0
  181.5740  178.2880  141.4000 N   0  0  0  0  0  0  0  0  0  0  0  0
  180.9830  178.6560  143.7520 C   0  0  0  0  0  2  0  0  0  0  0  0
  179.2140  178.6200  141.9800 C   0  0  0  0  0  2  0  0  0  0  0  0
  179.6090  179.1780  143.3430 C   0  0  0  0  0  2  0  0  0  0  0  0
  180.3200  178.9170  140.9700 C   0  0  0  0  0  2  0  0  0  0  0  0
  181.9890  178.9510  142.6410 C   0  0  0  0  0  2  0  0  0  0  0  0
  190.6160  176.8310  137.8450 C   0  0  2  0  0  3  0  0  0  0  0  0
  195.7970  174.8670  136.2180 C   0  0  0  0  0  0  0  0  0  0  0  0
  190.7910  175.5360  137.0220 C   0  0  2  0  0  3  0  0  0  0  0  0
  193.4650  175.5000  136.0480 C   0  0  0  0  0  0  0  0  0  0  0  0
  195.4900  174.0090  137.2780 C   0  0  0  0  0  3  0  0  0  0  0  0
  197.2000  174.9920  135.7460 C   0  0  0  0  0  1  0  0  0  0  0  0
  193.1580  174.6540  137.1310 C   0  0  0  0  0  0  0  0  0  0  0  0
  194.7860  175.6150  135.6090 C   0  0  0  0  0  3  0  0  0  0  0  0
  194.1730  173.9010  137.7310 C   0  0  0  0  0  3  0  0  0  0  0  0
  191.7460  174.4880  137.6150 C   0  0  0  0  0  2  0  0  0  0  0  0
  191.0730  175.8000  135.6060 N   0  0  0  0  0  2  0  0  0  0  0  0
  192.4110  176.3730  135.4390 C   0  0  0  0  0  2  0  0  0  0  0  0
  191.3260  176.7860  139.1190 N   0  0  0  0  0  2  0  0  0  0  0  0
  190.5350  177.5360  140.0810 C   0  0  0  0  0  2  0  0  0  0  0  0
  189.0470  176.5860  141.8240 C   0  0  0  0  0  2  0  0  0  0  0  0
  188.6090  177.7500  142.6900 C   0  0  1  0  0  3  0  0  0  0  0  0
  191.3210  177.7820  142.7130 S   0  0  0  0  0  0  0  0  0  0  0  0
  190.4920  176.8050  141.4150 C   0  0  2  0  0  3  0  0  0  0  0  0
  189.7670  178.0660  143.6120 C   0  0  0  0  0  2  0  0  0  0  0  0
  187.1170  178.5520  141.2650 C   0  0  0  0  0  1  0  0  0  0  0  0
  188.3250  178.8600  141.8900 O   0  0  0  0  0  0  0  0  0  0  0  0
  1  3  1  0  0  0  0
  2  4  1  0  0  0  0
  2  8  1  1  0  0  0
  2  1  1  0  0  0  0
  3  6  1  0  0  0  0
  4  5  1  0  0  0  0
  5  6  1  0  0  0  0
  6 23  1  6  0  0  0
  8  7  1  0  0  0  0
  9  8  2  0  0  0  0
 10  7  1  1  0  0  0
 10 14  1  0  0  0  0
 11 12  1  0  0  0  0
 12 17  1  1  0  0  0
 13 10  1  0  0  0  0
 13 11  1  0  0  0  0
 14 15  1  6  0  0  0
 14 12  1  0  0  0  0
 16 13  2  0  0  0  0
 17 22  1  0  0  0  0
 19 20  1  0  0  0  0
 20 18  1  0  0  0  0
 21 17  1  0  0  0  0
 21 19  1  0  0  0  0
 22 18  1  0  0  0  0
 23 35  1  1  0  0  0
 24 27  1  0  0  0  0
 25 32  1  0  0  0  0
 25 23  1  1  0  0  0
 26 29  2  0  0  0  0
 27 31  2  0  0  0  0
 28 24  1  0  0  0  0
 29 32  1  0  0  0  0
 29 31  1  0  0  0  0
 30 26  1  0  0  0  0
 30 24  2  0  0  0  0
 33 25  1  0  0  0  0
 34 33  1  0  0  0  0
 34 26  1  0  0  0  0
 35 36  1  0  0  0  0
 37 38  1  0  0  0  0
 38 43  1  6  0  0  0
 38 41  1  0  0  0  0
 39 41  1  0  0  0  0
 40 36  1  6  0  0  0
 40 37  1  0  0  0  0
 40 39  1  0  0  0  0
 42 43  1  0  0  0  0
M  END
>  <MODEL>
2

>  <REMARK>
 VINA RESULT:      -7.5      3.628     11.076
  Name = 
  9 active torsions:
  status: ('A' for Active; 'I' for Inactive)
    1  A    between atoms: N_1  and  C_34
    2  A    between atoms: N_1  and  C_35
    3  A    between atoms: N_3  and  C_4
    4  A    between atoms: C_6  and  C_12
    5  A    between atoms: C_8  and  C_34
    6  A    between atoms: N_11  and  C_14
    7  A    between atoms: C_19  and  O_37
    8  A    between atoms: C_32  and  C_35
    9  A    between atoms: C_34  and  C_38
                            x       y       z     vdW  Elec       q    Type
                         _______ _______ _______ _____ _____    ______ ____

>  <TORSDO>
F 9

$$$$
=
 OpenBabel11052416433D

 43 48  0  0  1  0  0  0  0  0999 V2000
  189.5570  177.3960  139.8760 C   0  0  0  0  0  2  0  0  0  0  0  0
  189.3900  176.2720  138.8420 C   0  0  1  0  0  3  0  0  0  0  0  0
  188.2100  177.8200  140.4490 C   0  0  0  0  0  2  0  0  0  0  0  0
  188.0560  176.3180  138.0800 C   0  0  0  0  0  2  0  0  0  0  0  0
  187.5170  177.7440  137.9650 C   0  0  0  0  0  2  0  0  0  0  0  0
  187.3030  178.3890  139.3470 C   0  0  1  0  0  3  0  0  0  0  0  0
  191.4130  175.1250  137.8340 N   0  0  0  0  0  2  0  0  0  0  0  0
  190.5410  176.2640  137.8930 C   0  0  0  0  0  0  0  0  0  0  0  0
  190.7360  177.2680  137.1560 O   0  0  0  0  0  0  0  0  0  0  0  0
  192.5790  174.9810  136.9620 C   0  0  2  0  0  3  0  0  0  0  0  0
  194.2050  173.2230  137.2840 N   0  0  0  0  0  2  0  0  0  0  0  0
  194.7480  174.3820  137.9810 C   0  0  2  0  0  3  0  0  0  0  0  0
  192.9400  173.5620  136.7620 C   0  0  0  0  0  0  0  0  0  0  0  0
  193.8340  175.5810  137.5980 C   0  0  1  0  0  3  0  0  0  0  0  0
  194.4530  176.4120  136.6600 O   0  0  0  0  0  1  0  0  0  0  0  0
  192.2100  172.7310  136.1640 O   0  0  0  0  0  0  0  0  0  0  0  0
  196.1620  174.5970  137.6420 N   0  0  0  0  0  0  0  0  0  0  0  0
  198.4240  174.6800  138.5860 C   0  0  0  0  0  2  0  0  0  0  0  0
  198.0340  173.7890  136.2790 C   0  0  0  0  0  2  0  0  0  0  0  0
  198.9260  173.7180  137.5140 C   0  0  0  0  0  2  0  0  0  0  0  0
  196.5800  173.5630  136.6890 C   0  0  0  0  0  2  0  0  0  0  0  0
  196.9480  174.4040  138.8650 C   0  0  0  0  0  2  0  0  0  0  0  0
  185.8380  178.3830  139.7890 C   0  0  2  0  0  3  0  0  0  0  0  0
  180.1570  177.4050  140.1340 C   0  0  0  0  0  0  0  0  0  0  0  0
  184.8700  178.6980  138.6270 C   0  0  2  0  0  3  0  0  0  0  0  0
  182.3960  177.4180  139.2080 C   0  0  0  0  0  0  0  0  0  0  0  0
  180.2160  178.7910  140.3030 C   0  0  0  0  0  3  0  0  0  0  0  0
  178.9390  176.6580  140.5400 C   0  0  0  0  0  1  0  0  0  0  0  0
  182.4650  178.8110  139.4000 C   0  0  0  0  0  0  0  0  0  0  0  0
  181.2480  176.7200  139.5930 C   0  0  0  0  0  3  0  0  0  0  0  0
  181.3660  179.4930  139.9330 C   0  0  0  0  0  3  0  0  0  0  0  0
  183.6740  179.5970  138.9770 C   0  0  0  0  0  2  0  0  0  0  0  0
  184.4600  177.4970  137.8910 N   0  0  0  0  0  2  0  0  0  0  0  0
  183.5850  176.6560  138.7100 C   0  0  0  0  0  2  0  0  0  0  0  0
  185.6540  179.2730  140.9300 N   0  0  0  0  0  2  0  0  0  0  0  0
  184.9690  178.5150  141.9640 C   0  0  0  0  0  2  0  0  0  0  0  0
  185.2200  180.0880  143.8660 C   0  0  0  0  0  2  0  0  0  0  0  0
  185.2940  179.2350  145.1160 C   0  0  1  0  0  3  0  0  0  0  0  0
  182.9830  178.5410  143.8770 S   0  0  0  0  0  0  0  0  0  0  0  0
  184.2300  179.4520  142.9070 C   0  0  2  0  0  3  0  0  0  0  0  0
  183.8780  178.8090  145.4370 C   0  0  0  0  0  2  0  0  0  0  0  0
  186.3470  177.5820  146.1450 C   0  0  0  0  0  1  0  0  0  0  0  0
  186.0850  178.1080  144.8790 O   0  0  0  0  0  0  0  0  0  0  0  0
  1  3  1  0  0  0  0
  2  8  1  6  0  0  0
  2  1  1  0  0  0  0
  4  2  1  0  0  0  0
  5  4  1  0  0  0  0
  5  6  1  0  0  0  0
  6 23  1  1  0  0  0
  6  3  1  0  0  0  0
  7  8  1  0  0  0  0
  9  8  2  0  0  0  0
 10 14  1  0  0  0  0
 10  7  1  1  0  0  0
 11 12  1  0  0  0  0
 12 17  1  6  0  0  0
 13 10  1  0  0  0  0
 13 11  1  0  0  0  0
 14 15  1  6  0  0  0
 14 12  1  0  0  0  0
 16 13  2  0  0  0  0
 17 22  1  0  0  0  0
 18 22  1  0  0  0  0
 19 21  1  0  0  0  0
 19 20  1  0  0  0  0
 20 18  1  0  0  0  0
 21 17  1  0  0  0  0
 23 35  1  1  0  0  0
 24 27  1  0  0  0  0
 24 28  1  0  0  0  0
 25 32  1  0  0  0  0
 25 23  1  1  0  0  0
 26 29  2  0  0  0  0
 26 30  1  0  0  0  0
 29 31  1  0  0  0  0
 30 24  2  0  0  0  0
 31 27  2  0  0  0  0
 32 29  1  0  0  0  0
 33 25  1  0  0  0  0
 33 34  1  0  0  0  0
 34 26  1  0  0  0  0
 35 36  1  0  0  0  0
 37 38  1  0  0  0  0
 38 43  1  6  0  0  0
 38 41  1  0  0  0  0
 39 41  1  0  0  0  0
 40 36  1  6  0  0  0
 40 37  1  0  0  0  0
 40 39  1  0  0  0  0
 43 42  1  0  0  0  0
M  END
>  <MODEL>
3

>  <REMARK>
 VINA RESULT:      -7.2      2.189      5.251
  Name = 
  9 active torsions:
  status: ('A' for Active; 'I' for Inactive)
    1  A    between atoms: N_1  and  C_34
    2  A    between atoms: N_1  and  C_35
    3  A    between atoms: N_3  and  C_4
    4  A    between atoms: C_6  and  C_12
    5  A    between atoms: C_8  and  C_34
    6  A    between atoms: N_11  and  C_14
    7  A    between atoms: C_19  and  O_37
    8  A    between atoms: C_32  and  C_35
    9  A    between atoms: C_34  and  C_38
                            x       y       z     vdW  Elec       q    Type
                         _______ _______ _______ _____ _____    ______ ____

>  <TORSDO>
F 9

$$$$
=
 OpenBabel11052416433D

 43 48  0  0  1  0  0  0  0  0999 V2000
  186.1210  177.4750  135.5730 C   0  0  0  0  0  2  0  0  0  0  0  0
  185.4830  176.0870  135.7270 C   0  0  1  0  0  3  0  0  0  0  0  0
  187.6210  177.4220  135.8420 C   0  0  0  0  0  2  0  0  0  0  0  0
  186.1870  175.1850  136.7530 C   0  0  0  0  0  2  0  0  0  0  0  0
  186.8620  176.0000  137.8570 C   0  0  0  0  0  2  0  0  0  0  0  0
  187.9020  176.9840  137.2880 C   0  0  1  0  0  3  0  0  0  0  0  0
  183.6060  177.0680  137.1210 N   0  0  0  0  0  2  0  0  0  0  0  0
  184.0310  176.2160  136.0470 C   0  0  0  0  0  0  0  0  0  0  0  0
  183.1930  175.5630  135.3680 O   0  0  0  0  0  0  0  0  0  0  0  0
  182.2240  177.2850  137.5500 C   0  0  2  0  0  3  0  0  0  0  0  0
  181.4060  179.4730  138.1660 N   0  0  0  0  0  2  0  0  0  0  0  0
  181.7980  178.8420  139.4190 C   0  0  2  0  0  3  0  0  0  0  0  0
  181.7130  178.5980  137.1040 C   0  0  0  0  0  0  0  0  0  0  0  0
  182.1130  177.3590  139.0730 C   0  0  1  0  0  3  0  0  0  0  0  0
  181.0810  176.5110  139.4850 O   0  0  0  0  0  1  0  0  0  0  0  0
  181.5390  178.9090  135.8980 O   0  0  0  0  0  0  0  0  0  0  0  0
  180.7560  178.9920  140.4440 N   0  0  0  0  0  0  0  0  0  0  0  0
  180.3630  179.0280  142.8650 C   0  0  0  0  0  2  0  0  0  0  0  0
  179.0280  180.4890  141.3310 C   0  0  0  0  0  2  0  0  0  0  0  0
  179.5950  180.3410  142.7380 C   0  0  0  0  0  2  0  0  0  0  0  0
  180.1500  180.3210  140.3090 C   0  0  0  0  0  2  0  0  0  0  0  0
  181.4100  178.9440  141.7560 C   0  0  0  0  0  2  0  0  0  0  0  0
  189.3410  176.4850  137.4370 C   0  0  2  0  0  3  0  0  0  0  0  0
  188.2900  177.1630  143.0740 C   0  0  0  0  0  0  0  0  0  0  0  0
  190.1950  177.4070  138.3340 C   0  0  2  0  0  3  0  0  0  0  0  0
  188.7830  177.7620  140.7790 C   0  0  0  0  0  0  0  0  0  0  0  0
  189.4010  176.3150  143.0940 C   0  0  0  0  0  3  0  0  0  0  0  0
  187.4330  177.2930  144.2810 C   0  0  0  0  0  1  0  0  0  0  0  0
  189.8880  176.8900  140.7900 C   0  0  0  0  0  0  0  0  0  0  0  0
  187.9800  177.8810  141.9160 C   0  0  0  0  0  3  0  0  0  0  0  0
  190.2000  176.1820  141.9550 C   0  0  0  0  0  3  0  0  0  0  0  0
  190.7870  176.7560  139.5940 C   0  0  0  0  0  2  0  0  0  0  0  0
  189.5290  178.6800  138.6330 N   0  0  0  0  0  2  0  0  0  0  0  0
  188.3840  178.4730  139.5220 C   0  0  0  0  0  2  0  0  0  0  0  0
  189.9370  176.2730  136.1220 N   0  0  0  0  0  2  0  0  0  0  0  0
  191.3680  176.1090  136.3180 C   0  0  0  0  0  2  0  0  0  0  0  0
  192.7870  174.4280  137.4640 C   0  0  0  0  0  2  0  0  0  0  0  0
  194.1500  174.5030  136.8070 C   0  0  1  0  0  3  0  0  0  0  0  0
  192.3810  174.0380  134.8040 S   0  0  0  0  0  0  0  0  0  0  0  0
  191.7260  174.6330  136.3990 C   0  0  2  0  0  3  0  0  0  0  0  0
  194.0410  173.7610  135.4920 C   0  0  0  0  0  2  0  0  0  0  0  0
  195.5880  175.7770  135.7050 C   0  0  0  0  0  1  0  0  0  0  0  0
  194.4940  175.8360  136.5700 O   0  0  0  0  0  0  0  0  0  0  0  0
  1  2  1  0  0  0  0
  1  3  1  0  0  0  0
  2  8  1  1  0  0  0
  2  4  1  0  0  0  0
  3  6  1  0  0  0  0
  4  5  1  0  0  0  0
  6 23  1  6  0  0  0
  6  5  1  0  0  0  0
  8  7  1  0  0  0  0
  9  8  2  0  0  0  0
 10  7  1  1  0  0  0
 10 14  1  0  0  0  0
 11 12  1  0  0  0  0
 12 17  1  1  0  0  0
 13 10  1  0  0  0  0
 13 11  1  0  0  0  0
 14 12  1  0  0  0  0
 14 15  1  6  0  0  0
 16 13  2  0  0  0  0
 17 22  1  0  0  0  0
 19 20  1  0  0  0  0
 20 18  1  0  0  0  0
 21 17  1  0  0  0  0
 21 19  1  0  0  0  0
 22 18  1  0  0  0  0
 23 35  1  6  0  0  0
 24 27  1  0  0  0  0
 24 28  1  0  0  0  0
 25 23  1  1  0  0  0
 25 33  1  0  0  0  0
 25 32  1  0  0  0  0
 26 29  2  0  0  0  0
 26 30  1  0  0  0  0
 29 31  1  0  0  0  0
 30 24  2  0  0  0  0
 31 27  2  0  0  0  0
 32 29  1  0  0  0  0
 33 34  1  0  0  0  0
 34 26  1  0  0  0  0
 35 36  1  0  0  0  0
 38 43  1  6  0  0  0
 38 37  1  0  0  0  0
 39 41  1  0  0  0  0
 39 40  1  0  0  0  0
 40 36  1  6  0  0  0
 40 37  1  0  0  0  0
 41 38  1  0  0  0  0
 42 43  1  0  0  0  0
M  END
>  <MODEL>
4

>  <REMARK>
 VINA RESULT:      -6.8      3.510     11.052
  Name = 
  9 active torsions:
  status: ('A' for Active; 'I' for Inactive)
    1  A    between atoms: N_1  and  C_34
    2  A    between atoms: N_1  and  C_35
    3  A    between atoms: N_3  and  C_4
    4  A    between atoms: C_6  and  C_12
    5  A    between atoms: C_8  and  C_34
    6  A    between atoms: N_11  and  C_14
    7  A    between atoms: C_19  and  O_37
    8  A    between atoms: C_32  and  C_35
    9  A    between atoms: C_34  and  C_38
                            x       y       z     vdW  Elec       q    Type
                         _______ _______ _______ _____ _____    ______ ____

>  <TORSDO>
F 9

$$$$
=
 OpenBabel11052416433D

 43 48  0  0  1  0  0  0  0  0999 V2000
  188.4550  178.1960  138.0780 C   0  0  0  0  0  2  0  0  0  0  0  0
  189.9410  178.0270  138.4290 C   0  0  1  0  0  3  0  0  0  0  0  0
  187.6390  178.5670  139.3110 C   0  0  0  0  0  2  0  0  0  0  0  0
  190.1930  177.5340  139.8630 C   0  0  0  0  0  2  0  0  0  0  0  0
  189.0360  176.6800  140.3810 C   0  0  0  0  0  2  0  0  0  0  0  0
  187.7020  177.4500  140.3650 C   0  0  1  0  0  3  0  0  0  0  0  0
  191.9430  176.6610  137.6850 N   0  0  0  0  0  2  0  0  0  0  0  0
  190.6100  177.1330  137.4380 C   0  0  0  0  0  0  0  0  0  0  0  0
  189.9920  176.8090  136.3890 O   0  0  0  0  0  0  0  0  0  0  0  0
  192.7220  175.7910  136.8040 C   0  0  2  0  0  3  0  0  0  0  0  0
  193.7430  173.7510  137.6000 N   0  0  0  0  0  2  0  0  0  0  0  0
  194.7880  174.7630  137.6850 C   0  0  2  0  0  3  0  0  0  0  0  0
  192.5550  174.3650  137.1560 C   0  0  0  0  0  0  0  0  0  0  0  0
  194.2250  176.0230  136.9690 C   0  0  1  0  0  3  0  0  0  0  0  0
  194.7910  176.1830  135.7010 O   0  0  0  0  0  1  0  0  0  0  0  0
  191.4680  173.7410  137.0500 O   0  0  0  0  0  0  0  0  0  0  0  0
  196.0500  174.2800  137.1060 N   0  0  0  0  0  0  0  0  0  0  0  0
  198.4210  173.8910  137.5960 C   0  0  0  0  0  2  0  0  0  0  0  0
  197.1640  172.3580  136.0680 C   0  0  0  0  0  2  0  0  0  0  0  0
  198.3170  172.4670  137.0590 C   0  0  0  0  0  2  0  0  0  0  0  0
  195.8830  172.8750  136.7180 C   0  0  0  0  0  2  0  0  0  0  0  0
  197.0690  174.3210  138.1600 C   0  0  0  0  0  2  0  0  0  0  0  0
  187.3000  177.9770  141.7440 C   0  0  2  0  0  3  0  0  0  0  0  0
  181.9100  178.6290  143.7110 C   0  0  0  0  0  0  0  0  0  0  0  0
  186.5450  179.3230  141.6640 C   0  0  2  0  0  3  0  0  0  0  0  0
  183.8030  178.7940  142.2070 C   0  0  0  0  0  0  0  0  0  0  0  0
  182.6560  179.2450  144.7210 C   0  0  0  0  0  3  0  0  0  0  0  0
  180.5100  178.2090  143.9730 C   0  0  0  0  0  1  0  0  0  0  0  0
  184.5620  179.3920  143.2300 C   0  0  0  0  0  0  0  0  0  0  0  0
  182.4860  178.4000  142.4590 C   0  0  0  0  0  3  0  0  0  0  0  0
  183.9780  179.6280  144.4800 C   0  0  0  0  0  3  0  0  0  0  0  0
  185.9720  179.8490  142.9880 C   0  0  0  0  0  2  0  0  0  0  0  0
  185.5520  179.3500  140.5840 N   0  0  0  0  0  2  0  0  0  0  0  0
  184.4280  178.4620  140.8870 C   0  0  0  0  0  2  0  0  0  0  0  0
  188.4670  178.0400  142.6160 N   0  0  0  0  0  2  0  0  0  0  0  0
  188.0930  177.4340  143.8840 C   0  0  0  0  0  2  0  0  0  0  0  0
  190.1810  178.5250  144.6610 C   0  0  0  0  0  2  0  0  0  0  0  0
  191.0940  177.4100  145.1300 C   0  0  1  0  0  3  0  0  0  0  0  0
  188.7910  177.1270  146.5340 S   0  0  0  0  0  0  0  0  0  0  0  0
  188.7540  178.1710  145.0390 C   0  0  2  0  0  3  0  0  0  0  0  0
  190.6030  176.9920  146.4990 C   0  0  0  0  0  2  0  0  0  0  0  0
  191.7090  176.7410  143.1110 C   0  0  0  0  0  1  0  0  0  0  0  0
  191.0170  176.3270  144.2500 O   0  0  0  0  0  0  0  0  0  0  0  0
  1  2  1  0  0  0  0
  1  3  1  0  0  0  0
  2  8  1  6  0  0  0
  2  4  1  0  0  0  0
  3  6  1  0  0  0  0
  4  5  1  0  0  0  0
  6  5  1  0  0  0  0
  6 23  1  1  0  0  0
  8  7  1  0  0  0  0
  9  8  2  0  0  0  0
 10 14  1  0  0  0  0
 10 13  1  0  0  0  0
 10  7  1  1  0  0  0
 11 12  1  0  0  0  0
 12 17  1  6  0  0  0
 13 11  1  0  0  0  0
 14 15  1  6  0  0  0
 14 12  1  0  0  0  0
 16 13  2  0  0  0  0
 17 22  1  0  0  0  0
 18 22  1  0  0  0  0
 19 21  1  0  0  0  0
 19 20  1  0  0  0  0
 20 18  1  0  0  0  0
 21 17  1  0  0  0  0
 23 35  1  1  0  0  0
 24 28  1  0  0  0  0
 24 27  1  0  0  0  0
 25 23  1  1  0  0  0
 25 32  1  0  0  0  0
 26 30  1  0  0  0  0
 26 29  2  0  0  0  0
 29 31  1  0  0  0  0
 30 24  2  0  0  0  0
 31 27  2  0  0  0  0
 32 29  1  0  0  0  0
 33 34  1  0  0  0  0
 33 25  1  0  0  0  0
 34 26  1  0  0  0  0
 35 36  1  0  0  0  0
 37 40  1  0  0  0  0
 37 38  1  0  0  0  0
 38 43  1  6  0  0  0
 38 41  1  0  0  0  0
 40 36  1  6  0  0  0
 40 39  1  0  0  0  0
 41 39  1  0  0  0  0
 42 43  1  0  0  0  0
M  END
>  <MODEL>
5

>  <REMARK>
 VINA RESULT:      -6.7      2.356      4.822
  Name = 
  9 active torsions:
  status: ('A' for Active; 'I' for Inactive)
    1  A    between atoms: N_1  and  C_34
    2  A    between atoms: N_1  and  C_35
    3  A    between atoms: N_3  and  C_4
    4  A    between atoms: C_6  and  C_12
    5  A    between atoms: C_8  and  C_34
    6  A    between atoms: N_11  and  C_14
    7  A    between atoms: C_19  and  O_37
    8  A    between atoms: C_32  and  C_35
    9  A    between atoms: C_34  and  C_38
                            x       y       z     vdW  Elec       q    Type
                         _______ _______ _______ _____ _____    ______ ____

>  <TORSDO>
F 9

$$$$
=
 OpenBabel11052416433D

 43 48  0  0  1  0  0  0  0  0999 V2000
  185.2780  177.2000  137.1460 C   0  0  0  0  0  2  0  0  0  0  0  0
  184.2360  178.0830  137.8470 C   0  0  1  0  0  3  0  0  0  0  0  0
  184.6240  175.9830  136.5030 C   0  0  0  0  0  2  0  0  0  0  0  0
  183.0290  177.3080  138.3990 C   0  0  0  0  0  2  0  0  0  0  0  0
  183.3990  175.8720  138.7710 C   0  0  0  0  0  2  0  0  0  0  0  0
  183.9600  175.0940  137.5660 C   0  0  1  0  0  3  0  0  0  0  0  0
  185.8900  178.3030  139.7560 N   0  0  0  0  0  2  0  0  0  0  0  0
  184.8800  178.8920  138.9230 C   0  0  0  0  0  0  0  0  0  0  0  0
  184.5200  180.0890  139.0900 O   0  0  0  0  0  0  0  0  0  0  0  0
  186.5990  178.9700  140.8480 C   0  0  2  0  0  3  0  0  0  0  0  0
  188.2680  177.8300  142.1730 N   0  0  0  0  0  2  0  0  0  0  0  0
  187.0260  177.7040  142.9250 C   0  0  2  0  0  3  0  0  0  0  0  0
  187.9950  178.4990  140.9620 C   0  0  0  0  0  0  0  0  0  0  0  0
  185.9940  178.6190  142.2080 C   0  0  1  0  0  3  0  0  0  0  0  0
  185.7850  179.8040  142.9200 O   0  0  0  0  0  1  0  0  0  0  0  0
  188.8730  178.6920  140.0820 O   0  0  0  0  0  0  0  0  0  0  0  0
  187.2210  178.0450  144.3410 N   0  0  0  0  0  0  0  0  0  0  0  0
  186.2850  177.7450  146.5880 C   0  0  0  0  0  2  0  0  0  0  0  0
  188.7610  177.8740  146.2430 C   0  0  0  0  0  2  0  0  0  0  0  0
  187.6480  177.3080  147.1180 C   0  0  0  0  0  2  0  0  0  0  0  0
  188.5060  177.4930  144.7860 C   0  0  0  0  0  2  0  0  0  0  0  0
  186.1710  177.3710  145.1120 C   0  0  0  0  0  2  0  0  0  0  0  0
  182.9320  174.1560  136.9290 C   0  0  2  0  0  3  0  0  0  0  0  0
  188.3710  173.0300  135.3490 C   0  0  0  0  0  0  0  0  0  0  0  0
  183.4680  172.7160  136.7680 C   0  0  2  0  0  3  0  0  0  0  0  0
  185.9540  172.8810  135.3930 C   0  0  0  0  0  0  0  0  0  0  0  0
  188.4150  172.7650  136.7210 C   0  0  0  0  0  3  0  0  0  0  0  0
  189.6320  173.2560  134.5960 C   0  0  0  0  0  1  0  0  0  0  0  0
  185.9950  172.6370  136.7790 C   0  0  0  0  0  0  0  0  0  0  0  0
  187.1420  173.0930  134.6890 C   0  0  0  0  0  3  0  0  0  0  0  0
  187.2290  172.5650  137.4330 C   0  0  0  0  0  3  0  0  0  0  0  0
  184.7390  172.3810  137.5630 C   0  0  0  0  0  2  0  0  0  0  0  0
  183.5720  172.3050  135.3630 N   0  0  0  0  0  2  0  0  0  0  0  0
  184.6430  173.0380  134.6840 C   0  0  0  0  0  2  0  0  0  0  0  0
  182.4500  174.7190  135.6730 N   0  0  0  0  0  2  0  0  0  0  0  0
  181.3110  175.5660  135.9870 C   0  0  0  0  0  2  0  0  0  0  0  0
  178.9330  175.0270  136.4410 C   0  0  0  0  0  2  0  0  0  0  0  0
  178.9310  173.7180  137.2040 C   0  0  1  0  0  3  0  0  0  0  0  0
  180.2940  173.2400  134.9080 S   0  0  0  0  0  0  0  0  0  0  0  0
  180.0370  174.9780  135.4010 C   0  0  2  0  0  3  0  0  0  0  0  0
  179.1610  172.6210  136.1870 C   0  0  0  0  0  2  0  0  0  0  0  0
  179.4520  174.4050  139.2440 C   0  0  0  0  0  1  0  0  0  0  0  0
  179.9640  173.7130  138.1460 O   0  0  0  0  0  0  0  0  0  0  0  0
  1  2  1  0  0  0  0
  2  4  1  0  0  0  0
  2  8  1  1  0  0  0
  3  1  1  0  0  0  0
  3  6  1  0  0  0  0
  4  5  1  0  0  0  0
  6 23  1  6  0  0  0
  6  5  1  0  0  0  0
  8  9  2  0  0  0  0
  8  7  1  0  0  0  0
 10  7  1  6  0  0  0
 10 13  1  0  0  0  0
 10 14  1  0  0  0  0
 11 12  1  0  0  0  0
 12 17  1  1  0  0  0
 13 11  1  0  0  0  0
 14 15  1  1  0  0  0
 14 12  1  0  0  0  0
 16 13  2  0  0  0  0
 17 21  1  0  0  0  0
 17 22  1  0  0  0  0
 18 20  1  0  0  0  0
 19 20  1  0  0  0  0
 21 19  1  0  0  0  0
 22 18  1  0  0  0  0
 23 35  1  6  0  0  0
 24 27  1  0  0  0  0
 25 23  1  6  0  0  0
 25 32  1  0  0  0  0
 26 29  2  0  0  0  0
 27 31  2  0  0  0  0
 28 24  1  0  0  0  0
 29 31  1  0  0  0  0
 29 32  1  0  0  0  0
 30 24  2  0  0  0  0
 30 26  1  0  0  0  0
 33 25  1  0  0  0  0
 34 33  1  0  0  0  0
 34 26  1  0  0  0  0
 35 36  1  0  0  0  0
 37 38  1  0  0  0  0
 38 43  1  1  0  0  0
 39 40  1  0  0  0  0
 39 41  1  0  0  0  0
 40 36  1  1  0  0  0
 40 37  1  0  0  0  0
 41 38  1  0  0  0  0
 43 42  1  0  0  0  0
M  END
>  <MODEL>
6

>  <REMARK>
 VINA RESULT:      -6.7      4.978      9.960
  Name = 
  9 active torsions:
  status: ('A' for Active; 'I' for Inactive)
    1  A    between atoms: N_1  and  C_34
    2  A    between atoms: N_1  and  C_35
    3  A    between atoms: N_3  and  C_4
    4  A    between atoms: C_6  and  C_12
    5  A    between atoms: C_8  and  C_34
    6  A    between atoms: N_11  and  C_14
    7  A    between atoms: C_19  and  O_37
    8  A    between atoms: C_32  and  C_35
    9  A    between atoms: C_34  and  C_38
                            x       y       z     vdW  Elec       q    Type
                         _______ _______ _______ _____ _____    ______ ____

>  <TORSDO>
F 9

$$$$
=
 OpenBabel11052416433D

 43 48  0  0  1  0  0  0  0  0999 V2000
  189.4200  176.7470  140.2200 C   0  0  0  0  0  2  0  0  0  0  0  0
  189.2550  178.2570  139.9880 C   0  0  1  0  0  3  0  0  0  0  0  0
  190.3110  176.1220  139.1520 C   0  0  0  0  0  2  0  0  0  0  0  0
  189.3260  178.6740  138.5110 C   0  0  0  0  0  2  0  0  0  0  0  0
  188.8510  177.5570  137.5820 C   0  0  0  0  0  2  0  0  0  0  0  0
  189.6820  176.2710  137.7590 C   0  0  1  0  0  3  0  0  0  0  0  0
  186.7480  178.6270  139.9030 N   0  0  0  0  0  2  0  0  0  0  0  0
  187.9910  178.7420  140.6140 C   0  0  0  0  0  0  0  0  0  0  0  0
  188.0330  179.2580  141.7630 O   0  0  0  0  0  0  0  0  0  0  0  0
  185.4390  179.0650  140.3860 C   0  0  2  0  0  3  0  0  0  0  0  0
  183.6860  177.4930  140.9290 N   0  0  0  0  0  2  0  0  0  0  0  0
  183.4240  177.9030  139.5560 C   0  0  2  0  0  3  0  0  0  0  0  0
  184.8720  178.1160  141.3680 C   0  0  0  0  0  0  0  0  0  0  0  0
  184.4000  179.0770  139.2630 C   0  0  1  0  0  3  0  0  0  0  0  0
  183.7370  180.3070  139.2870 O   0  0  0  0  0  1  0  0  0  0  0  0
  185.3760  177.8940  142.4990 O   0  0  0  0  0  0  0  0  0  0  0  0
  182.0110  178.2590  139.3620 N   0  0  0  0  0  0  0  0  0  0  0  0
  180.0430  177.8260  137.9650 C   0  0  0  0  0  2  0  0  0  0  0  0
  179.7960  178.2810  140.4140 C   0  0  0  0  0  2  0  0  0  0  0  0
  179.1950  177.5690  139.2070 C   0  0  0  0  0  2  0  0  0  0  0  0
  181.2610  177.8790  140.5650 C   0  0  0  0  0  2  0  0  0  0  0  0
  181.4940  177.4490  138.2540 C   0  0  0  0  0  2  0  0  0  0  0  0
  190.7320  176.0840  136.6620 C   0  0  2  0  0  3  0  0  0  0  0  0
  185.6550  173.3400  136.8640 C   0  0  0  0  0  0  0  0  0  0  0  0
  190.2280  175.1860  135.5100 C   0  0  2  0  0  3  0  0  0  0  0  0
  188.0260  173.6820  136.5040 C   0  0  0  0  0  0  0  0  0  0  0  0
  185.3680  174.4020  136.0020 C   0  0  0  0  0  3  0  0  0  0  0  0
  184.5490  172.5950  137.5190 C   0  0  0  0  0  1  0  0  0  0  0  0
  187.7390  174.7670  135.6540 C   0  0  0  0  0  0  0  0  0  0  0  0
  186.9820  172.9850  137.1180 C   0  0  0  0  0  3  0  0  0  0  0  0
  186.4080  175.1120  135.3960 C   0  0  0  0  0  3  0  0  0  0  0  0
  188.8350  175.5230  134.9580 C   0  0  0  0  0  2  0  0  0  0  0  0
  190.3730  173.7560  135.8030 N   0  0  0  0  0  2  0  0  0  0  0  0
  189.4420  173.3420  136.8550 C   0  0  0  0  0  2  0  0  0  0  0  0
  191.9820  175.6040  137.2410 N   0  0  0  0  0  2  0  0  0  0  0  0
  193.0670  176.2790  136.5480 C   0  0  0  0  0  2  0  0  0  0  0  0
  194.1200  174.0340  136.6070 C   0  0  0  0  0  2  0  0  0  0  0  0
  195.4210  174.1940  137.3680 C   0  0  1  0  0  3  0  0  0  0  0  0
  195.5240  175.9820  135.3310 S   0  0  0  0  0  0  0  0  0  0  0  0
  193.8990  175.2750  135.7630 C   0  0  2  0  0  3  0  0  0  0  0  0
  196.4120  174.8190  136.4090 C   0  0  0  0  0  2  0  0  0  0  0  0
  196.0410  174.5040  139.4700 C   0  0  0  0  0  1  0  0  0  0  0  0
  195.2310  175.0360  138.4670 O   0  0  0  0  0  0  0  0  0  0  0  0
  2  1  1  0  0  0  0
  2  8  1  6  0  0  0
  3  1  1  0  0  0  0
  4  2  1  0  0  0  0
  5  6  1  0  0  0  0
  5  4  1  0  0  0  0
  6 23  1  6  0  0  0
  6  3  1  0  0  0  0
  7  8  1  0  0  0  0
  8  9  2  0  0  0  0
 10  7  1  6  0  0  0
 10 13  1  0  0  0  0
 11 13  1  0  0  0  0
 12 17  1  1  0  0  0
 12 11  1  0  0  0  0
 13 16  2  0  0  0  0
 14 15  1  1  0  0  0
 14 12  1  0  0  0  0
 14 10  1  0  0  0  0
 17 21  1  0  0  0  0
 18 22  1  0  0  0  0
 18 20  1  0  0  0  0
 19 21  1  0  0  0  0
 20 19  1  0  0  0  0
 22 17  1  0  0  0  0
 23 35  1  1  0  0  0
 24 30  1  0  0  0  0
 24 28  1  0  0  0  0
 25 33  1  0  0  0  0
 25 23  1  1  0  0  0
 26 34  1  0  0  0  0
 26 30  2  0  0  0  0
 27 24  2  0  0  0  0
 29 26  1  0  0  0  0
 31 29  2  0  0  0  0
 31 27  1  0  0  0  0
 32 25  1  0  0  0  0
 32 29  1  0  0  0  0
 33 34  1  0  0  0  0
 36 35  1  0  0  0  0
 37 38  1  0  0  0  0
 38 43  1  1  0  0  0
 39 40  1  0  0  0  0
 39 41  1  0  0  0  0
 40 36  1  1  0  0  0
 40 37  1  0  0  0  0
 41 38  1  0  0  0  0
 43 42  1  0  0  0  0
M  END
>  <MODEL>
7

>  <REMARK>
 VINA RESULT:      -6.6      3.925     11.367
  Name = 
  9 active torsions:
  status: ('A' for Active; 'I' for Inactive)
    1  A    between atoms: N_1  and  C_34
    2  A    between atoms: N_1  and  C_35
    3  A    between atoms: N_3  and  C_4
    4  A    between atoms: C_6  and  C_12
    5  A    between atoms: C_8  and  C_34
    6  A    between atoms: N_11  and  C_14
    7  A    between atoms: C_19  and  O_37
    8  A    between atoms: C_32  and  C_35
    9  A    between atoms: C_34  and  C_38
                            x       y       z     vdW  Elec       q    Type
                         _______ _______ _______ _____ _____    ______ ____

>  <TORSDO>
F 9

$$$$
=
 OpenBabel11052416433D

 43 48  0  0  1  0  0  0  0  0999 V2000
  181.5740  177.8810  140.7300 C   0  0  0  0  0  2  0  0  0  0  0  0
  183.0210  177.3950  140.5620 C   0  0  1  0  0  3  0  0  0  0  0  0
  180.7770  177.6910  139.4440 C   0  0  0  0  0  2  0  0  0  0  0  0
  183.5650  177.5340  139.1310 C   0  0  0  0  0  2  0  0  0  0  0  0
  182.9060  178.6920  138.3830 C   0  0  0  0  0  2  0  0  0  0  0  0
  181.3760  178.5260  138.3020 C   0  0  1  0  0  3  0  0  0  0  0  0
  185.3100  178.2530  141.2340 N   0  0  0  0  0  2  0  0  0  0  0  0
  183.9170  178.0820  141.5370 C   0  0  0  0  0  0  0  0  0  0  0  0
  183.4350  178.5000  142.6240 O   0  0  0  0  0  0  0  0  0  0  0  0
  186.3030  178.8970  142.0930 C   0  0  2  0  0  3  0  0  0  0  0  0
  188.4380  177.8710  142.5690 N   0  0  0  0  0  2  0  0  0  0  0  0
  187.5750  177.4980  143.6820 C   0  0  2  0  0  3  0  0  0  0  0  0
  187.6820  178.6150  141.6410 C   0  0  0  0  0  0  0  0  0  0  0  0
  186.2720  178.3290  143.5130 C   0  0  1  0  0  3  0  0  0  0  0  0
  186.2280  179.3960  144.4150 O   0  0  0  0  0  1  0  0  0  0  0  0
  188.1560  179.0160  140.5470 O   0  0  0  0  0  0  0  0  0  0  0  0
  188.2410  177.7180  144.9740 N   0  0  0  0  0  0  0  0  0  0  0  0
  188.0510  177.3070  147.3840 C   0  0  0  0  0  2  0  0  0  0  0  0
  190.2880  177.3060  146.2600 C   0  0  0  0  0  2  0  0  0  0  0  0
  189.4690  176.7470  147.4190 C   0  0  0  0  0  2  0  0  0  0  0  0
  189.5490  177.0540  144.9480 C   0  0  0  0  0  2  0  0  0  0  0  0
  187.4390  177.0550  146.0080 C   0  0  0  0  0  2  0  0  0  0  0  0
  180.9030  178.0080  136.9420 C   0  0  2  0  0  3  0  0  0  0  0  0
  180.8470  183.7390  136.2360 C   0  0  0  0  0  0  0  0  0  0  0  0
  179.6630  178.7670  136.4200 C   0  0  2  0  0  3  0  0  0  0  0  0
  180.0930  181.5370  136.9090 C   0  0  0  0  0  0  0  0  0  0  0  0
  180.9800  183.2930  134.9180 C   0  0  0  0  0  3  0  0  0  0  0  0
  181.1820  185.1450  136.5830 C   0  0  0  0  0  1  0  0  0  0  0  0
  180.2490  181.0810  135.5860 C   0  0  0  0  0  0  0  0  0  0  0  0
  180.4100  182.8600  137.2300 C   0  0  0  0  0  3  0  0  0  0  0  0
  180.6780  181.9680  134.5940 C   0  0  0  0  0  3  0  0  0  0  0  0
  179.8960  179.6730  135.2010 C   0  0  0  0  0  2  0  0  0  0  0  0
  178.9330  179.4580  137.4890 N   0  0  0  0  0  2  0  0  0  0  0  0
  179.7080  180.5890  138.0030 C   0  0  0  0  0  2  0  0  0  0  0  0
  180.6940  176.5660  136.9990 N   0  0  0  0  0  2  0  0  0  0  0  0
  181.6760  175.9510  136.1200 C   0  0  0  0  0  2  0  0  0  0  0  0
  183.6150  174.8270  137.1810 C   0  0  0  0  0  2  0  0  0  0  0  0
  184.5400  174.4170  136.0520 C   0  0  1  0  0  3  0  0  0  0  0  0
  182.1310  173.3070  135.4830 S   0  0  0  0  0  0  0  0  0  0  0  0
  182.1810  174.6470  136.7190 C   0  0  2  0  0  3  0  0  0  0  0  0
  183.9440  173.1730  135.4300 C   0  0  0  0  0  2  0  0  0  0  0  0
  185.2860  176.4770  135.7320 C   0  0  0  0  0  1  0  0  0  0  0  0
  184.6080  175.4360  135.0980 O   0  0  0  0  0  0  0  0  0  0  0  0
  2  1  1  0  0  0  0
  2  8  1  1  0  0  0
  3  1  1  0  0  0  0
  4  2  1  0  0  0  0
  5  4  1  0  0  0  0
  6 23  1  6  0  0  0
  6  5  1  0  0  0  0
  6  3  1  0  0  0  0
  7  8  1  0  0  0  0
  8  9  2  0  0  0  0
 10  7  1  6  0  0  0
 10 14  1  0  0  0  0
 11 12  1  0  0  0  0
 12 17  1  1  0  0  0
 13 10  1  0  0  0  0
 13 11  1  0  0  0  0
 14 12  1  0  0  0  0
 14 15  1  1  0  0  0
 16 13  2  0  0  0  0
 17 22  1  0  0  0  0
 18 20  1  0  0  0  0
 19 20  1  0  0  0  0
 21 17  1  0  0  0  0
 21 19  1  0  0  0  0
 22 18  1  0  0  0  0
 23 35  1  1  0  0  0
 24 28  1  0  0  0  0
 24 30  1  0  0  0  0
 25 23  1  1  0  0  0
 25 33  1  0  0  0  0
 26 30  2  0  0  0  0
 26 34  1  0  0  0  0
 27 24  2  0  0  0  0
 29 26  1  0  0  0  0
 31 27  1  0  0  0  0
 31 29  2  0  0  0  0
 32 29  1  0  0  0  0
 32 25  1  0  0  0  0
 33 34  1  0  0  0  0
 36 35  1  0  0  0  0
 38 43  1  6  0  0  0
 38 37  1  0  0  0  0
 39 40  1  0  0  0  0
 40 36  1  6  0  0  0
 40 37  1  0  0  0  0
 41 39  1  0  0  0  0
 41 38  1  0  0  0  0
 43 42  1  0  0  0  0
M  END
>  <MODEL>
8

>  <REMARK>
 VINA RESULT:      -6.4      6.335     10.591
  Name = 
  9 active torsions:
  status: ('A' for Active; 'I' for Inactive)
    1  A    between atoms: N_1  and  C_34
    2  A    between atoms: N_1  and  C_35
    3  A    between atoms: N_3  and  C_4
    4  A    between atoms: C_6  and  C_12
    5  A    between atoms: C_8  and  C_34
    6  A    between atoms: N_11  and  C_14
    7  A    between atoms: C_19  and  O_37
    8  A    between atoms: C_32  and  C_35
    9  A    between atoms: C_34  and  C_38
                            x       y       z     vdW  Elec       q    Type
                         _______ _______ _______ _____ _____    ______ ____

>  <TORSDO>
F 9

$$$$
=
 OpenBabel11052416433D

 43 48  0  0  1  0  0  0  0  0999 V2000
  185.4480  179.0280  139.7590 C   0  0  0  0  0  2  0  0  0  0  0  0
  185.2810  179.0650  141.2850 C   0  0  1  0  0  3  0  0  0  0  0  0
  184.0950  179.0050  139.0590 C   0  0  0  0  0  2  0  0  0  0  0  0
  184.0110  178.3630  141.7920 C   0  0  0  0  0  2  0  0  0  0  0  0
  183.5770  177.2320  140.8600 C   0  0  0  0  0  2  0  0  0  0  0  0
  183.3080  177.7390  139.4300 C   0  0  1  0  0  3  0  0  0  0  0  0
  187.7910  178.7230  141.3780 N   0  0  0  0  0  2  0  0  0  0  0  0
  186.4940  178.5110  141.9550 C   0  0  0  0  0  0  0  0  0  0  0  0
  186.3600  177.8540  143.0210 O   0  0  0  0  0  0  0  0  0  0  0  0
  189.0610  178.2350  141.9160 C   0  0  2  0  0  3  0  0  0  0  0  0
  189.1820  176.2800  143.3300 N   0  0  0  0  0  2  0  0  0  0  0  0
  189.1190  177.4130  144.2440 C   0  0  2  0  0  3  0  0  0  0  0  0
  189.0850  176.7600  142.0080 C   0  0  0  0  0  0  0  0  0  0  0  0
  189.2690  178.6850  143.3630 C   0  0  1  0  0  3  0  0  0  0  0  0
  190.5500  179.2340  143.4760 O   0  0  0  0  0  1  0  0  0  0  0  0
  189.0470  175.9950  141.0100 O   0  0  0  0  0  0  0  0  0  0  0  0
  190.1410  177.3100  145.2960 N   0  0  0  0  0  0  0  0  0  0  0  0
  190.4610  177.0690  147.7150 C   0  0  0  0  0  2  0  0  0  0  0  0
  192.0500  176.0000  146.1040 C   0  0  0  0  0  2  0  0  0  0  0  0
  191.4240  175.9070  147.4910 C   0  0  0  0  0  2  0  0  0  0  0  0
  190.9470  176.1090  145.0530 C   0  0  0  0  0  2  0  0  0  0  0  0
  189.4470  177.1170  146.5740 C   0  0  0  0  0  2  0  0  0  0  0  0
  181.8180  177.9130  139.1290 C   0  0  2  0  0  3  0  0  0  0  0  0
  185.2320  174.8170  135.6500 C   0  0  0  0  0  0  0  0  0  0  0  0
  181.2710  176.8080  138.1990 C   0  0  2  0  0  3  0  0  0  0  0  0
  183.3340  176.1480  136.3550 C   0  0  0  0  0  0  0  0  0  0  0  0
  184.9800  173.9080  136.6820 C   0  0  0  0  0  3  0  0  0  0  0  0
  186.3770  174.5980  134.7300 C   0  0  0  0  0  1  0  0  0  0  0  0
  183.0940  175.2460  137.4080 C   0  0  0  0  0  0  0  0  0  0  0  0
  184.4130  175.9380  135.4920 C   0  0  0  0  0  3  0  0  0  0  0  0
  183.9110  174.1200  137.5560 C   0  0  0  0  0  3  0  0  0  0  0  0
  181.9300  175.4270  138.3390 C   0  0  0  0  0  2  0  0  0  0  0  0
  181.1850  177.2390  136.7990 N   0  0  0  0  0  2  0  0  0  0  0  0
  182.5210  177.3990  136.2210 C   0  0  0  0  0  2  0  0  0  0  0  0
  181.5640  179.2550  138.6160 N   0  0  0  0  0  2  0  0  0  0  0  0
  180.3560  179.7430  139.2610 C   0  0  0  0  0  2  0  0  0  0  0  0
  179.0700  181.8390  138.9330 C   0  0  0  0  0  2  0  0  0  0  0  0
  179.1670  182.1710  137.4570 C   0  0  1  0  0  3  0  0  0  0  0  0
  181.7220  181.9560  138.3410 S   0  0  0  0  0  0  0  0  0  0  0  0
  180.3980  181.2590  139.3850 C   0  0  2  0  0  3  0  0  0  0  0  0
  180.5360  182.7770  137.2360 C   0  0  0  0  0  2  0  0  0  0  0  0
  179.4550  181.3660  135.4150 C   0  0  0  0  0  1  0  0  0  0  0  0
  179.0370  181.0060  136.6970 O   0  0  0  0  0  0  0  0  0  0  0  0
  1  2  1  0  0  0  0
  2  4  1  0  0  0  0
  2  8  1  1  0  0  0
  3  6  1  0  0  0  0
  3  1  1  0  0  0  0
  5  4  1  0  0  0  0
  6 23  1  1  0  0  0
  6  5  1  0  0  0  0
  7  8  1  0  0  0  0
  8  9  2  0  0  0  0
 10  7  1  1  0  0  0
 10 13  1  0  0  0  0
 10 14  1  0  0  0  0
 11 12  1  0  0  0  0
 12 17  1  1  0  0  0
 13 11  1  0  0  0  0
 14 15  1  6  0  0  0
 14 12  1  0  0  0  0
 16 13  2  0  0  0  0
 17 22  1  0  0  0  0
 19 20  1  0  0  0  0
 20 18  1  0  0  0  0
 21 17  1  0  0  0  0
 21 19  1  0  0  0  0
 22 18  1  0  0  0  0
 23 35  1  6  0  0  0
 24 27  1  0  0  0  0
 25 32  1  0  0  0  0
 25 23  1  1  0  0  0
 26 29  2  0  0  0  0
 27 31  2  0  0  0  0
 28 24  1  0  0  0  0
 29 31  1  0  0  0  0
 29 32  1  0  0  0  0
 30 24  2  0  0  0  0
 30 26  1  0  0  0  0
 33 25  1  0  0  0  0
 34 26  1  0  0  0  0
 34 33  1  0  0  0  0
 35 36  1  0  0  0  0
 37 40  1  0  0  0  0
 38 43  1  6  0  0  0
 38 37  1  0  0  0  0
 39 40  1  0  0  0  0
 40 36  1  6  0  0  0
 41 38  1  0  0  0  0
 41 39  1  0  0  0  0
 42 43  1  0  0  0  0
M  END
>  <MODEL>
9

>  <REMARK>
 VINA RESULT:      -6.2      5.569      8.915
  Name = 
  9 active torsions:
  status: ('A' for Active; 'I' for Inactive)
    1  A    between atoms: N_1  and  C_34
    2  A    between atoms: N_1  and  C_35
    3  A    between atoms: N_3  and  C_4
    4  A    between atoms: C_6  and  C_12
    5  A    between atoms: C_8  and  C_34
    6  A    between atoms: N_11  and  C_14
    7  A    between atoms: C_19  and  O_37
    8  A    between atoms: C_32  and  C_35
    9  A    between atoms: C_34  and  C_38
                            x       y       z     vdW  Elec       q    Type
                         _______ _______ _______ _____ _____    ______ ____

>  <TORSDO>
F 9

$$$$
