=
 OpenBabel11052414043D

 34 37  0  0  1  0  0  0  0  0999 V2000
  180.8510  178.2430  136.4400 C   0  0  1  0  0  3  0  0  0  0  0  0
  185.3470  178.2540  138.3220 C   0  0  2  0  0  3  0  0  0  0  0  0
  181.3300  178.0180  139.9030 C   0  0  1  0  0  3  0  0  0  0  0  0
  183.7070  180.7340  138.7090 O   0  0  0  0  0  1  0  0  0  0  0  0
  179.1610  176.5840  135.8680 O   0  0  0  0  0  1  0  0  0  0  0  0
  182.8650  178.0000  137.8810 N   0  0  0  0  0  0  0  0  0  0  0  0
  182.3880  178.1750  136.4990 C   0  0  1  0  0  3  0  0  0  0  0  0
  185.5680  178.6250  139.7850 C   0  0  0  0  0  2  0  0  0  0  0  0
  183.2050  179.8060  139.6230 C   0  0  2  0  0  3  0  0  0  0  0  0
  180.3790  178.8840  135.1390 C   0  0  0  0  0  1  0  0  0  0  0  0
  184.2140  176.1240  138.2160 O   0  0  0  0  0  0  0  0  0  0  0  0
  180.7310  176.7660  139.2320 C   0  0  1  0  0  0  0  0  0  0  0  0
  180.1920  176.8880  136.7600 C   0  0  2  0  0  3  0  0  0  0  0  0
  184.1350  177.3790  138.1280 C   0  0  0  0  0  0  0  0  0  0  0  0
  181.4860  175.4960  139.3140 C   0  0  0  0  0  2  0  0  0  0  0  0
  180.4130  175.7740  140.1790 O   0  0  0  0  0  0  0  0  0  0  0  0
  184.3350  179.2110  140.4930 C   0  0  1  0  0  3  0  0  0  0  0  0
  182.2370  178.8190  138.9330 C   0  0  2  0  0  3  0  0  0  0  0  0
  179.6340  176.8820  138.1770 C   0  0  0  0  0  2  0  0  0  0  0  0
  179.4630  179.6760  142.7330 C   0  0  0  0  0  0  0  0  0  0  0  0
  178.9310  180.8930  142.0910 C   0  0  0  0  0  3  0  0  0  0  0  0
  180.2080  178.9040  140.5000 C   0  0  1  0  0  3  0  0  0  0  0  0
  179.3070  181.2170  140.8510 C   0  0  0  0  0  3  0  0  0  0  0  0
  180.1050  178.7600  142.0020 C   0  0  0  0  0  3  0  0  0  0  0  0
  180.3430  180.3910  140.1360 C   0  0  0  0  0  2  0  0  0  0  0  0
  179.3020  179.4770  144.1960 C   0  0  0  0  0  1  0  0  0  0  0  0
  187.0480  178.7060  136.6480 C   0  0  0  0  0  1  0  0  0  0  0  0
  186.5910  177.7870  137.6840 N   0  0  0  0  0  0  0  0  0  0  0  0
  187.6410  177.6760  138.6850 C   0  0  0  0  0  1  0  0  0  0  0  0
  183.8590  178.3570  141.6260 C   0  0  0  0  0  0  0  0  0  0  0  0
  183.6430  178.9300  142.8720 O   0  0  0  0  0  1  0  0  0  0  0  0
  183.6240  177.1320  141.4530 O   0  0  0  0  0  0  0  0  0  0  0  0
  182.9440  177.1090  135.5480 C   0  0  0  0  0  2  0  0  0  0  0  0
  183.9510  177.7210  134.5950 C   0  0  0  0  0  1  0  0  0  0  0  0
  1 10  1  6  0  0  0
  1  7  1  0  0  0  0
  1 13  1  0  0  0  0
  2 28  1  1  0  0  0
  2  8  1  0  0  0  0
  3 22  1  6  0  0  0
  6 14  1  0  0  0  0
  7 33  1  6  0  0  0
  7  6  1  0  0  0  0
  8 17  1  0  0  0  0
  9  4  1  6  0  0  0
  9 17  1  0  0  0  0
 12 19  1  6  0  0  0
 12 15  1  0  0  0  0
 12  3  1  0  0  0  0
 12 16  1  0  0  0  0
 13  5  1  6  0  0  0
 13 19  1  0  0  0  0
 14 11  2  0  0  0  0
 14  2  1  0  0  0  0
 15 16  1  0  0  0  0
 17 30  1  6  0  0  0
 18  6  1  1  0  0  0
 18  9  1  0  0  0  0
 18  3  1  0  0  0  0
 20 26  1  0  0  0  0
 21 20  1  0  0  0  0
 22 25  1  1  0  0  0
 22 24  1  0  0  0  0
 23 21  2  0  0  0  0
 24 20  2  0  0  0  0
 25 23  1  0  0  0  0
 27 28  1  0  0  0  0
 28 29  1  0  0  0  0
 30 31  1  0  0  0  0
 32 30  2  0  0  0  0
 34 33  1  0  0  0  0
M  END
>  <MODEL>
1

>  <REMARK>
 VINA RESULT:      -4.7      0.000      0.000
  Name = 
  4 active torsions:
  status: ('A' for Active; 'I' for Inactive)
    1  A    between atoms: C_2  and  C_15
    2  A    between atoms: C_3  and  N_14
    3  A    between atoms: C_4  and  C_12
    4  A    between atoms: C_13  and  C_29
                            x       y       z     vdW  Elec       q    Type
                         _______ _______ _______ _____ _____    ______ ____

>  <TORSDO>
F 4

$$$$
=
 OpenBabel11052414043D

 34 37  0  0  1  0  0  0  0  0999 V2000
  184.7850  178.1250  139.0150 C   0  0  1  0  0  3  0  0  0  0  0  0
  185.7720  174.7900  135.6010 C   0  0  2  0  0  3  0  0  0  0  0  0
  182.2110  176.2210  137.5910 C   0  0  1  0  0  3  0  0  0  0  0  0
  185.0250  173.7690  138.3180 O   0  0  0  0  0  1  0  0  0  0  0  0
  183.9860  180.4250  139.0840 O   0  0  0  0  0  1  0  0  0  0  0  0
  184.6960  176.4860  137.1430 N   0  0  0  0  0  0  0  0  0  0  0  0
  185.5810  177.3370  137.9570 C   0  0  1  0  0  3  0  0  0  0  0  0
  184.7850  173.6620  135.3180 C   0  0  0  0  0  2  0  0  0  0  0  0
  183.8270  174.1810  137.7300 C   0  0  2  0  0  3  0  0  0  0  0  0
  185.6970  178.6160  140.1340 C   0  0  0  0  0  1  0  0  0  0  0  0
  184.8150  176.8750  134.8450 O   0  0  0  0  0  0  0  0  0  0  0  0
  182.1780  177.7290  137.2710 C   0  0  1  0  0  0  0  0  0  0  0  0
  183.8980  179.2160  138.3880 C   0  0  2  0  0  3  0  0  0  0  0  0
  185.0840  176.1150  135.8130 C   0  0  0  0  0  0  0  0  0  0  0  0
  182.2880  178.1500  135.8580 C   0  0  0  0  0  2  0  0  0  0  0  0
  181.0450  178.0720  136.5100 O   0  0  0  0  0  0  0  0  0  0  0  0
  183.6400  173.5400  136.3360 C   0  0  1  0  0  3  0  0  0  0  0  0
  183.6550  175.7130  137.8430 C   0  0  2  0  0  3  0  0  0  0  0  0
  182.4420  178.7730  138.3530 C   0  0  0  0  0  2  0  0  0  0  0  0
  180.1570  177.1130  140.6290 C   0  0  0  0  0  0  0  0  0  0  0  0
  179.0870  176.0980  140.5970 C   0  0  0  0  0  3  0  0  0  0  0  0
  181.2750  175.8980  138.7820 C   0  0  1  0  0  3  0  0  0  0  0  0
  178.9690  175.2820  139.5460 C   0  0  0  0  0  3  0  0  0  0  0  0
  181.1630  177.0540  139.7510 C   0  0  0  0  0  3  0  0  0  0  0  0
  179.8680  175.4510  138.3520 C   0  0  0  0  0  2  0  0  0  0  0  0
  180.1070  178.2140  141.6250 C   0  0  0  0  0  1  0  0  0  0  0  0
  187.9230  175.7500  135.0070 C   0  0  0  0  0  1  0  0  0  0  0  0
  186.8900  174.7880  134.6400 N   0  0  0  0  0  0  0  0  0  0  0  0
  187.4970  173.4660  134.5980 C   0  0  0  0  0  1  0  0  0  0  0  0
  182.2940  173.7740  135.7240 C   0  0  0  0  0  0  0  0  0  0  0  0
  182.1710  174.6480  134.6510 O   0  0  0  0  0  0  0  0  0  0  0  0
  181.2780  173.1650  136.1510 O   0  0  0  0  0  1  0  0  0  0  0  0
  186.4530  178.2630  137.1010 C   0  0  0  0  0  2  0  0  0  0  0  0
  187.9010  178.1830  137.5410 C   0  0  0  0  0  1  0  0  0  0  0  0
  1 10  1  1  0  0  0
  2 28  1  6  0  0  0
  2 14  1  0  0  0  0
  3 18  1  0  0  0  0
  3 22  1  1  0  0  0
  6  7  1  0  0  0  0
  7 33  1  6  0  0  0
  7  1  1  0  0  0  0
  8  2  1  0  0  0  0
  8 17  1  0  0  0  0
  9 18  1  0  0  0  0
  9  4  1  6  0  0  0
 11 14  2  0  0  0  0
 12 15  1  6  0  0  0
 12  3  1  0  0  0  0
 12 19  1  0  0  0  0
 13  1  1  0  0  0  0
 13  5  1  1  0  0  0
 14  6  1  0  0  0  0
 15 16  1  0  0  0  0
 16 12  1  0  0  0  0
 17 30  1  6  0  0  0
 17  9  1  0  0  0  0
 18  6  1  6  0  0  0
 19 13  1  0  0  0  0
 20 26  1  0  0  0  0
 21 20  1  0  0  0  0
 22 25  1  6  0  0  0
 22 24  1  0  0  0  0
 23 21  2  0  0  0  0
 24 20  2  0  0  0  0
 25 23  1  0  0  0  0
 28 27  1  0  0  0  0
 29 28  1  0  0  0  0
 30 32  1  0  0  0  0
 31 30  2  0  0  0  0
 33 34  1  0  0  0  0
M  END
>  <MODEL>
2

>  <REMARK>
 VINA RESULT:      -4.0      2.558      5.142
  Name = 
  4 active torsions:
  status: ('A' for Active; 'I' for Inactive)
    1  A    between atoms: C_2  and  C_15
    2  A    between atoms: C_3  and  N_14
    3  A    between atoms: C_4  and  C_12
    4  A    between atoms: C_13  and  C_29
                            x       y       z     vdW  Elec       q    Type
                         _______ _______ _______ _____ _____    ______ ____

>  <TORSDO>
F 4

$$$$
=
 OpenBabel11052414043D

 34 37  0  0  1  0  0  0  0  0999 V2000
  184.3650  178.1090  139.0890 C   0  0  1  0  0  3  0  0  0  0  0  0
  186.1960  175.0060  135.8090 C   0  0  2  0  0  3  0  0  0  0  0  0
  182.2360  176.2020  137.0630 C   0  0  1  0  0  3  0  0  0  0  0  0
  184.9410  173.8100  138.2530 O   0  0  0  0  0  1  0  0  0  0  0  0
  183.4660  180.3740  139.0960 O   0  0  0  0  0  1  0  0  0  0  0  0
  184.7450  176.5760  137.1660 N   0  0  0  0  0  0  0  0  0  0  0  0
  185.3990  177.4090  138.1890 C   0  0  1  0  0  3  0  0  0  0  0  0
  185.3430  173.8620  135.2700 C   0  0  0  0  0  2  0  0  0  0  0  0
  183.8770  174.2130  137.4450 C   0  0  2  0  0  3  0  0  0  0  0  0
  184.9970  178.5680  140.3990 C   0  0  0  0  0  1  0  0  0  0  0  0
  185.3270  177.0950  134.9670 O   0  0  0  0  0  0  0  0  0  0  0  0
  182.2030  177.7240  136.8150 C   0  0  1  0  0  0  0  0  0  0  0  0
  183.5810  179.2030  138.3410 C   0  0  2  0  0  3  0  0  0  0  0  0
  185.4210  176.2920  135.9330 C   0  0  0  0  0  0  0  0  0  0  0  0
  182.5890  178.2260  135.4780 C   0  0  0  0  0  2  0  0  0  0  0  0
  181.2410  178.0690  135.8470 O   0  0  0  0  0  0  0  0  0  0  0  0
  184.0150  173.6450  136.0140 C   0  0  1  0  0  3  0  0  0  0  0  0
  183.6160  175.7300  137.5910 C   0  0  2  0  0  3  0  0  0  0  0  0
  182.1860  178.7140  137.9760 C   0  0  0  0  0  2  0  0  0  0  0  0
  179.6530  173.7970  138.4000 C   0  0  0  0  0  0  0  0  0  0  0  0
  179.5500  174.1980  139.8160 C   0  0  0  0  0  3  0  0  0  0  0  0
  181.0850  175.7810  138.0110 C   0  0  1  0  0  3  0  0  0  0  0  0
  180.4000  175.0960  140.3230 C   0  0  0  0  0  3  0  0  0  0  0  0
  180.4090  174.5060  137.5570 C   0  0  0  0  0  3  0  0  0  0  0  0
  181.5230  175.6350  139.4770 C   0  0  0  0  0  2  0  0  0  0  0  0
  178.9330  172.5920  137.9160 C   0  0  0  0  0  1  0  0  0  0  0  0
  188.4990  175.7730  135.9160 C   0  0  0  0  0  1  0  0  0  0  0  0
  187.4910  175.0960  135.1090 N   0  0  0  0  0  0  0  0  0  0  0  0
  187.9770  173.7580  134.8070 C   0  0  0  0  0  1  0  0  0  0  0  0
  182.8200  173.8670  135.1420 C   0  0  0  0  0  0  0  0  0  0  0  0
  181.9090  172.8370  134.9500 O   0  0  0  0  0  1  0  0  0  0  0  0
  182.6150  174.9880  134.6050 O   0  0  0  0  0  0  0  0  0  0  0  0
  186.3900  178.4110  137.5830 C   0  0  0  0  0  2  0  0  0  0  0  0
  187.7650  178.2310  138.1930 C   0  0  0  0  0  1  0  0  0  0  0  0
  1 10  1  1  0  0  0
  2 28  1  6  0  0  0
  2 14  1  0  0  0  0
  3 18  1  0  0  0  0
  3 22  1  1  0  0  0
  6  7  1  0  0  0  0
  7 33  1  6  0  0  0
  7  1  1  0  0  0  0
  8  2  1  0  0  0  0
  8 17  1  0  0  0  0
  9 18  1  0  0  0  0
  9  4  1  1  0  0  0
 11 14  2  0  0  0  0
 12 15  1  6  0  0  0
 12  3  1  0  0  0  0
 12 19  1  0  0  0  0
 13  1  1  0  0  0  0
 13  5  1  1  0  0  0
 14  6  1  0  0  0  0
 15 16  1  0  0  0  0
 16 12  1  0  0  0  0
 17 30  1  6  0  0  0
 17  9  1  0  0  0  0
 18  6  1  6  0  0  0
 19 13  1  0  0  0  0
 20 21  1  0  0  0  0
 21 23  2  0  0  0  0
 22 24  1  6  0  0  0
 22 25  1  0  0  0  0
 24 20  2  0  0  0  0
 25 23  1  0  0  0  0
 26 20  1  0  0  0  0
 28 27  1  0  0  0  0
 29 28  1  0  0  0  0
 31 30  1  0  0  0  0
 32 30  2  0  0  0  0
 33 34  1  0  0  0  0
M  END
>  <MODEL>
3

>  <REMARK>
 VINA RESULT:      -3.7      2.842      5.662
  Name = 
  4 active torsions:
  status: ('A' for Active; 'I' for Inactive)
    1  A    between atoms: C_2  and  C_15
    2  A    between atoms: C_3  and  N_14
    3  A    between atoms: C_4  and  C_12
    4  A    between atoms: C_13  and  C_29
                            x       y       z     vdW  Elec       q    Type
                         _______ _______ _______ _____ _____    ______ ____

>  <TORSDO>
F 4

$$$$
=
 OpenBabel11052414043D

 34 37  0  0  1  0  0  0  0  0999 V2000
  184.7550  177.1070  137.9940 C   0  0  1  0  0  3  0  0  0  0  0  0
  180.0960  176.0870  136.9910 C   0  0  2  0  0  3  0  0  0  0  0  0
  182.1950  178.2270  140.1070 C   0  0  1  0  0  3  0  0  0  0  0  0
  181.3440  174.6140  139.2840 O   0  0  0  0  0  1  0  0  0  0  0  0
  186.2740  178.9870  137.6930 O   0  0  0  0  0  1  0  0  0  0  0  0
  182.2710  177.0570  137.8550 N   0  0  0  0  0  0  0  0  0  0  0  0
  183.5210  176.6360  137.2010 C   0  0  1  0  0  3  0  0  0  0  0  0
  179.0410  176.1450  138.0920 C   0  0  0  0  0  2  0  0  0  0  0  0
  181.0770  175.8970  139.7640 C   0  0  2  0  0  3  0  0  0  0  0  0
  185.9920  176.3000  137.6130 C   0  0  0  0  0  1  0  0  0  0  0  0
  180.8490  178.3310  136.5110 O   0  0  0  0  0  0  0  0  0  0  0  0
  182.9670  179.3300  139.3550 C   0  0  1  0  0  0  0  0  0  0  0  0
  184.9440  178.6340  137.9330 C   0  0  2  0  0  3  0  0  0  0  0  0
  181.0780  177.2280  137.0770 C   0  0  0  0  0  0  0  0  0  0  0  0
  182.2180  180.2020  138.4240 C   0  0  0  0  0  2  0  0  0  0  0  0
  182.5320  180.6150  139.7320 O   0  0  0  0  0  0  0  0  0  0  0  0
  179.6040  176.2930  139.5150 C   0  0  1  0  0  3  0  0  0  0  0  0
  182.1720  176.8930  139.3160 C   0  0  2  0  0  3  0  0  0  0  0  0
  184.4880  179.2860  139.2310 C   0  0  0  0  0  2  0  0  0  0  0  0
  184.9440  178.2900  142.6910 C   0  0  0  0  0  0  0  0  0  0  0  0
  184.2050  178.5810  143.9340 C   0  0  0  0  0  3  0  0  0  0  0  0
  182.7690  178.0370  141.5330 C   0  0  1  0  0  3  0  0  0  0  0  0
  182.9070  178.8960  143.8840 C   0  0  0  0  0  3  0  0  0  0  0  0
  184.2800  178.0800  141.5500 C   0  0  0  0  0  3  0  0  0  0  0  0
  182.2160  179.0430  142.5550 C   0  0  0  0  0  2  0  0  0  0  0  0
  186.4290  178.2490  142.7030 C   0  0  0  0  0  1  0  0  0  0  0  0
  180.4680  175.9760  134.5930 C   0  0  0  0  0  1  0  0  0  0  0  0
  179.4900  175.8520  135.6680 N   0  0  0  0  0  0  0  0  0  0  0  0
  178.9310  174.5100  135.6180 C   0  0  0  0  0  1  0  0  0  0  0  0
  179.1870  177.5710  140.1710 C   0  0  0  0  0  0  0  0  0  0  0  0
  178.9880  178.7070  139.3980 O   0  0  0  0  0  0  0  0  0  0  0  0
  178.9860  177.6200  141.4140 O   0  0  0  0  0  1  0  0  0  0  0  0
  183.5920  177.0750  135.7340 C   0  0  0  0  0  2  0  0  0  0  0  0
  183.9540  175.9010  134.8460 C   0  0  0  0  0  1  0  0  0  0  0  0
  1 10  1  6  0  0  0
  2 28  1  6  0  0  0
  2 14  1  0  0  0  0
  2  8  1  0  0  0  0
  3 22  1  1  0  0  0
  7 33  1  6  0  0  0
  7  6  1  0  0  0  0
  7  1  1  0  0  0  0
  8 17  1  0  0  0  0
  9  4  1  6  0  0  0
 11 14  2  0  0  0  0
 12 15  1  6  0  0  0
 12 16  1  0  0  0  0
 12  3  1  0  0  0  0
 13  5  1  1  0  0  0
 13  1  1  0  0  0  0
 13 19  1  0  0  0  0
 14  6  1  0  0  0  0
 15 16  1  0  0  0  0
 17  9  1  0  0  0  0
 17 30  1  6  0  0  0
 18  6  1  6  0  0  0
 18  9  1  0  0  0  0
 18  3  1  0  0  0  0
 19 12  1  0  0  0  0
 20 26  1  0  0  0  0
 20 21  1  0  0  0  0
 22 24  1  6  0  0  0
 22 25  1  0  0  0  0
 23 21  2  0  0  0  0
 24 20  2  0  0  0  0
 25 23  1  0  0  0  0
 27 28  1  0  0  0  0
 29 28  1  0  0  0  0
 30 32  1  0  0  0  0
 31 30  2  0  0  0  0
 34 33  1  0  0  0  0
M  END
>  <MODEL>
4

>  <REMARK>
 VINA RESULT:      -3.7      2.247      5.271
  Name = 
  4 active torsions:
  status: ('A' for Active; 'I' for Inactive)
    1  A    between atoms: C_2  and  C_15
    2  A    between atoms: C_3  and  N_14
    3  A    between atoms: C_4  and  C_12
    4  A    between atoms: C_13  and  C_29
                            x       y       z     vdW  Elec       q    Type
                         _______ _______ _______ _____ _____    ______ ____

>  <TORSDO>
F 4

$$$$
=
 OpenBabel11052414043D

 34 37  0  0  1  0  0  0  0  0999 V2000
  181.9130  179.5590  137.4950 C   0  0  1  0  0  3  0  0  0  0  0  0
  181.6560  174.9200  136.0240 C   0  0  2  0  0  3  0  0  0  0  0  0
  184.4970  177.3120  138.2370 C   0  0  1  0  0  3  0  0  0  0  0  0
  183.6060  176.6910  134.5940 O   0  0  0  0  0  1  0  0  0  0  0  0
  181.4770  180.8090  139.5410 O   0  0  0  0  0  1  0  0  0  0  0  0
  182.1960  177.1060  137.1840 N   0  0  0  0  0  0  0  0  0  0  0  0
  181.3140  178.2580  136.9310 C   0  0  1  0  0  3  0  0  0  0  0  0
  182.9210  174.0750  135.9180 C   0  0  0  0  0  2  0  0  0  0  0  0
  184.2040  176.3870  135.8180 C   0  0  2  0  0  3  0  0  0  0  0  0
  181.2780  180.7840  136.8460 C   0  0  0  0  0  1  0  0  0  0  0  0
  181.1970  175.3520  138.3560 O   0  0  0  0  0  0  0  0  0  0  0  0
  183.6960  177.8280  139.4490 C   0  0  1  0  0  0  0  0  0  0  0  0
  181.9170  179.5820  139.0350 C   0  0  2  0  0  3  0  0  0  0  0  0
  181.6450  175.7840  137.2600 C   0  0  0  0  0  0  0  0  0  0  0  0
  182.9630  176.8440  140.2760 C   0  0  0  0  0  2  0  0  0  0  0  0
  184.2210  177.3410  140.6610 O   0  0  0  0  0  0  0  0  0  0  0  0
  184.2340  174.8620  136.0620 C   0  0  1  0  0  3  0  0  0  0  0  0
  183.6390  177.2820  136.9450 C   0  0  2  0  0  3  0  0  0  0  0  0
  183.3120  179.2990  139.5760 C   0  0  0  0  0  2  0  0  0  0  0  0
  188.1250  178.1330  138.8730 C   0  0  0  0  0  0  0  0  0  0  0  0
  188.5380  178.7540  137.6000 C   0  0  0  0  0  3  0  0  0  0  0  0
  185.7900  178.1440  138.0460 C   0  0  1  0  0  3  0  0  0  0  0  0
  187.7090  178.7480  136.5520 C   0  0  0  0  0  3  0  0  0  0  0  0
  186.8460  177.8000  139.0720 C   0  0  0  0  0  3  0  0  0  0  0  0
  186.3890  178.0300  136.6350 C   0  0  0  0  0  2  0  0  0  0  0  0
  189.1360  177.8580  139.9270 C   0  0  0  0  0  1  0  0  0  0  0  0
  179.6090  174.6920  134.7360 C   0  0  0  0  0  1  0  0  0  0  0  0
  180.4430  174.1170  135.7850 N   0  0  0  0  0  0  0  0  0  0  0  0
  180.8200  172.7720  135.3780 C   0  0  0  0  0  1  0  0  0  0  0  0
  185.0310  174.4420  137.2570 C   0  0  0  0  0  0  0  0  0  0  0  0
  184.4190  173.7170  138.2710 O   0  0  0  0  0  1  0  0  0  0  0  0
  186.2590  174.7140  137.3390 O   0  0  0  0  0  0  0  0  0  0  0  0
  179.8860  178.0260  137.4400 C   0  0  0  0  0  2  0  0  0  0  0  0
  178.9370  177.8120  136.2780 C   0  0  0  0  0  1  0  0  0  0  0  0
  1 10  1  6  0  0  0
  1 13  1  0  0  0  0
  2 28  1  1  0  0  0
  2 14  1  0  0  0  0
  3 22  1  6  0  0  0
  3 12  1  0  0  0  0
  6 14  1  0  0  0  0
  7  6  1  0  0  0  0
  7 33  1  1  0  0  0
  7  1  1  0  0  0  0
  8  2  1  0  0  0  0
  8 17  1  0  0  0  0
  9  4  1  6  0  0  0
  9 17  1  0  0  0  0
  9 18  1  0  0  0  0
 12 19  1  6  0  0  0
 12 15  1  0  0  0  0
 12 16  1  0  0  0  0
 13  5  1  6  0  0  0
 13 19  1  0  0  0  0
 14 11  2  0  0  0  0
 15 16  1  0  0  0  0
 17 30  1  1  0  0  0
 18  6  1  1  0  0  0
 18  3  1  0  0  0  0
 20 24  2  0  0  0  0
 20 26  1  0  0  0  0
 21 20  1  0  0  0  0
 22 25  1  6  0  0  0
 22 24  1  0  0  0  0
 23 25  1  0  0  0  0
 23 21  2  0  0  0  0
 27 28  1  0  0  0  0
 29 28  1  0  0  0  0
 30 32  2  0  0  0  0
 30 31  1  0  0  0  0
 34 33  1  0  0  0  0
M  END
>  <MODEL>
5

>  <REMARK>
 VINA RESULT:      -3.7      2.470      6.110
  Name = 
  4 active torsions:
  status: ('A' for Active; 'I' for Inactive)
    1  A    between atoms: C_2  and  C_15
    2  A    between atoms: C_3  and  N_14
    3  A    between atoms: C_4  and  C_12
    4  A    between atoms: C_13  and  C_29
                            x       y       z     vdW  Elec       q    Type
                         _______ _______ _______ _____ _____    ______ ____

>  <TORSDO>
F 4

$$$$
=
 OpenBabel11052414043D

 34 37  0  0  1  0  0  0  0  0999 V2000
  185.4810  174.1440  137.0810 C   0  0  1  0  0  3  0  0  0  0  0  0
  181.0670  175.8580  138.2370 C   0  0  2  0  0  3  0  0  0  0  0  0
  184.8310  177.5860  136.9960 C   0  0  1  0  0  3  0  0  0  0  0  0
  183.2650  176.3210  140.2210 O   0  0  0  0  0  1  0  0  0  0  0  0
  186.7160  173.6240  135.0460 O   0  0  0  0  0  1  0  0  0  0  0  0
  183.4180  175.5080  137.3600 N   0  0  0  0  0  0  0  0  0  0  0  0
  183.9750  174.1460  137.4050 C   0  0  1  0  0  3  0  0  0  0  0  0
  180.8920  177.3140  138.6560 C   0  0  0  0  0  2  0  0  0  0  0  0
  183.4810  177.2480  139.2000 C   0  0  2  0  0  3  0  0  0  0  0  0
  186.1480  172.8650  137.5770 C   0  0  0  0  0  1  0  0  0  0  0  0
  181.6270  175.7810  135.8890 O   0  0  0  0  0  0  0  0  0  0  0  0
  185.1180  176.9290  135.6300 C   0  0  1  0  0  0  0  0  0  0  0  0
  185.7630  174.4800  135.6050 C   0  0  2  0  0  3  0  0  0  0  0  0
  182.0240  175.7040  137.0820 C   0  0  0  0  0  0  0  0  0  0  0  0
  184.0640  176.9740  134.5940 C   0  0  0  0  0  2  0  0  0  0  0  0
  185.1390  177.8810  134.5940 O   0  0  0  0  0  0  0  0  0  0  0  0
  182.2060  178.0710  138.9130 C   0  0  1  0  0  3  0  0  0  0  0  0
  184.1940  176.5870  137.9970 C   0  0  2  0  0  3  0  0  0  0  0  0
  186.2470  175.9160  135.4620 C   0  0  0  0  0  2  0  0  0  0  0  0
  188.2800  177.4860  138.5260 C   0  0  0  0  0  0  0  0  0  0  0  0
  188.8860  178.7330  138.0210 C   0  0  0  0  0  3  0  0  0  0  0  0
  186.1180  178.2290  137.5710 C   0  0  1  0  0  3  0  0  0  0  0  0
  188.2470  179.4670  137.1050 C   0  0  0  0  0  3  0  0  0  0  0  0
  186.9940  177.2200  138.2790 C   0  0  0  0  0  3  0  0  0  0  0  0
  186.9490  178.9810  136.5190 C   0  0  0  0  0  2  0  0  0  0  0  0
  189.1040  176.5170  139.2920 C   0  0  0  0  0  1  0  0  0  0  0  0
  179.9350  173.7440  137.8500 C   0  0  0  0  0  1  0  0  0  0  0  0
  179.7700  175.1720  138.0980 N   0  0  0  0  0  0  0  0  0  0  0  0
  178.9990  175.3330  139.3210 C   0  0  0  0  0  1  0  0  0  0  0  0
  182.4070  179.2150  137.9700 C   0  0  0  0  0  0  0  0  0  0  0  0
  181.8680  179.1550  136.6920 O   0  0  0  0  0  0  0  0  0  0  0  0
  183.0350  180.2450  138.3340 O   0  0  0  0  0  1  0  0  0  0  0  0
  183.2040  173.1680  136.5110 C   0  0  0  0  0  2  0  0  0  0  0  0
  183.0600  171.8230  137.1960 C   0  0  0  0  0  1  0  0  0  0  0  0
  1  7  1  0  0  0  0
  1 10  1  6  0  0  0
  2 28  1  6  0  0  0
  2  8  1  0  0  0  0
  3 22  1  1  0  0  0
  3 18  1  0  0  0  0
  6  7  1  0  0  0  0
  7 33  1  6  0  0  0
  8 17  1  0  0  0  0
  9  4  1  1  0  0  0
 11 14  2  0  0  0  0
 12 15  1  6  0  0  0
 12  3  1  0  0  0  0
 13  5  1  1  0  0  0
 13  1  1  0  0  0  0
 14  6  1  0  0  0  0
 14  2  1  0  0  0  0
 16 15  1  0  0  0  0
 16 12  1  0  0  0  0
 17 30  1  6  0  0  0
 17  9  1  0  0  0  0
 18  6  1  6  0  0  0
 18  9  1  0  0  0  0
 19 13  1  0  0  0  0
 19 12  1  0  0  0  0
 20 26  1  0  0  0  0
 21 20  1  0  0  0  0
 22 25  1  6  0  0  0
 22 24  1  0  0  0  0
 23 21  2  0  0  0  0
 24 20  2  0  0  0  0
 25 23  1  0  0  0  0
 27 28  1  0  0  0  0
 28 29  1  0  0  0  0
 30 32  1  0  0  0  0
 31 30  2  0  0  0  0
 33 34  1  0  0  0  0
M  END
>  <MODEL>
6

>  <REMARK>
 VINA RESULT:      -3.5      2.775      6.676
  Name = 
  4 active torsions:
  status: ('A' for Active; 'I' for Inactive)
    1  A    between atoms: C_2  and  C_15
    2  A    between atoms: C_3  and  N_14
    3  A    between atoms: C_4  and  C_12
    4  A    between atoms: C_13  and  C_29
                            x       y       z     vdW  Elec       q    Type
                         _______ _______ _______ _____ _____    ______ ____

>  <TORSDO>
F 4

$$$$
=
 OpenBabel11052414043D

 34 37  0  0  1  0  0  0  0  0999 V2000
  183.1970  177.7210  140.1140 C   0  0  1  0  0  3  0  0  0  0  0  0
  185.7600  175.7980  136.4420 C   0  0  2  0  0  3  0  0  0  0  0  0
  181.5670  176.1790  137.4230 C   0  0  1  0  0  3  0  0  0  0  0  0
  184.4530  173.8770  138.3360 O   0  0  0  0  0  1  0  0  0  0  0  0
  181.9910  179.7910  140.5560 O   0  0  0  0  0  1  0  0  0  0  0  0
  183.9760  176.7910  137.9410 N   0  0  0  0  0  0  0  0  0  0  0  0
  184.4030  177.3980  139.2130 C   0  0  1  0  0  3  0  0  0  0  0  0
  185.1340  174.7450  135.5340 C   0  0  0  0  0  2  0  0  0  0  0  0
  183.4270  174.3550  137.5180 C   0  0  2  0  0  3  0  0  0  0  0  0
  183.6270  177.8920  141.5670 C   0  0  0  0  0  1  0  0  0  0  0  0
  184.6920  177.9240  136.0310 O   0  0  0  0  0  0  0  0  0  0  0  0
  181.3440  177.6990  137.5530 C   0  0  1  0  0  0  0  0  0  0  0  0
  182.3440  178.8770  139.5600 C   0  0  2  0  0  3  0  0  0  0  0  0
  184.8030  176.9140  136.7750 C   0  0  0  0  0  0  0  0  0  0  0  0
  181.7850  178.5710  136.4420 C   0  0  0  0  0  2  0  0  0  0  0  0
  180.4430  178.1740  136.5820 O   0  0  0  0  0  0  0  0  0  0  0  0
  183.7840  174.1960  136.0230 C   0  0  1  0  0  3  0  0  0  0  0  0
  182.9410  175.7430  137.9950 C   0  0  2  0  0  3  0  0  0  0  0  0
  181.0740  178.3460  138.9080 C   0  0  0  0  0  2  0  0  0  0  0  0
  179.3350  173.1720  137.8910 C   0  0  0  0  0  0  0  0  0  0  0  0
  178.9650  173.2710  139.3160 C   0  0  0  0  0  3  0  0  0  0  0  0
  180.4000  175.4000  138.0810 C   0  0  1  0  0  3  0  0  0  0  0  0
  179.5510  174.1810  140.0990 C   0  0  0  0  0  3  0  0  0  0  0  0
  180.0490  174.1450  137.3160 C   0  0  0  0  0  3  0  0  0  0  0  0
  180.6540  175.0480  139.5560 C   0  0  0  0  0  2  0  0  0  0  0  0
  178.9310  171.9820  137.1000 C   0  0  0  0  0  1  0  0  0  0  0  0
  188.1600  175.6860  136.8030 C   0  0  0  0  0  1  0  0  0  0  0  0
  187.0910  176.2100  135.9610 N   0  0  0  0  0  0  0  0  0  0  0  0
  187.2960  175.7150  134.6080 C   0  0  0  0  0  1  0  0  0  0  0  0
  182.6600  174.5020  135.0830 C   0  0  0  0  0  0  0  0  0  0  0  0
  181.7560  173.5030  134.7470 O   0  0  0  0  0  1  0  0  0  0  0  0
  182.5080  175.6630  134.6180 O   0  0  0  0  0  0  0  0  0  0  0  0
  185.2970  178.6270  139.0050 C   0  0  0  0  0  2  0  0  0  0  0  0
  186.7360  178.2990  139.3480 C   0  0  0  0  0  1  0  0  0  0  0  0
  1 10  1  1  0  0  0
  2 28  1  6  0  0  0
  2 14  1  0  0  0  0
  3 12  1  0  0  0  0
  3 18  1  0  0  0  0
  3 22  1  1  0  0  0
  6  7  1  0  0  0  0
  7 33  1  6  0  0  0
  7  1  1  0  0  0  0
  8 17  1  0  0  0  0
  8  2  1  0  0  0  0
  9 18  1  0  0  0  0
  9  4  1  1  0  0  0
 11 14  2  0  0  0  0
 12 15  1  6  0  0  0
 12 19  1  0  0  0  0
 13  1  1  0  0  0  0
 13  5  1  1  0  0  0
 14  6  1  0  0  0  0
 15 16  1  0  0  0  0
 16 12  1  0  0  0  0
 17 30  1  6  0  0  0
 17  9  1  0  0  0  0
 18  6  1  6  0  0  0
 19 13  1  0  0  0  0
 20 21  1  0  0  0  0
 21 23  2  0  0  0  0
 22 24  1  6  0  0  0
 22 25  1  0  0  0  0
 24 20  2  0  0  0  0
 25 23  1  0  0  0  0
 26 20  1  0  0  0  0
 28 27  1  0  0  0  0
 29 28  1  0  0  0  0
 31 30  1  0  0  0  0
 32 30  2  0  0  0  0
 33 34  1  0  0  0  0
M  END
>  <MODEL>
7

>  <REMARK>
 VINA RESULT:      -3.0      2.507      5.596
  Name = 
  4 active torsions:
  status: ('A' for Active; 'I' for Inactive)
    1  A    between atoms: C_2  and  C_15
    2  A    between atoms: C_3  and  N_14
    3  A    between atoms: C_4  and  C_12
    4  A    between atoms: C_13  and  C_29
                            x       y       z     vdW  Elec       q    Type
                         _______ _______ _______ _____ _____    ______ ____

>  <TORSDO>
F 4

$$$$
=
 OpenBabel11052414043D

 34 37  0  0  1  0  0  0  0  0999 V2000
  183.3050  173.9510  136.9290 C   0  0  1  0  0  3  0  0  0  0  0  0
  180.8050  177.1650  139.6070 C   0  0  2  0  0  3  0  0  0  0  0  0
  184.2210  177.3330  136.9630 C   0  0  1  0  0  3  0  0  0  0  0  0
  183.5360  176.4150  140.5880 O   0  0  0  0  0  1  0  0  0  0  0  0
  183.3750  173.2410  134.6000 O   0  0  0  0  0  1  0  0  0  0  0  0
  182.2860  175.9950  137.9180 N   0  0  0  0  0  0  0  0  0  0  0  0
  182.1760  174.5310  137.8010 C   0  0  1  0  0  3  0  0  0  0  0  0
  181.4380  178.4940  140.0040 C   0  0  0  0  0  2  0  0  0  0  0  0
  183.7480  177.2950  139.5260 C   0  0  2  0  0  3  0  0  0  0  0  0
  183.4850  172.4590  137.1850 C   0  0  0  0  0  1  0  0  0  0  0  0
  180.3930  177.1730  137.2280 O   0  0  0  0  0  0  0  0  0  0  0  0
  183.6860  176.8030  135.6180 C   0  0  1  0  0  0  0  0  0  0  0  0
  183.1540  174.3320  135.4450 C   0  0  2  0  0  3  0  0  0  0  0  0
  181.1160  176.7830  138.1830 C   0  0  0  0  0  0  0  0  0  0  0  0
  182.4600  177.4140  135.0590 C   0  0  0  0  0  2  0  0  0  0  0  0
  183.7410  177.7880  134.6140 O   0  0  0  0  0  0  0  0  0  0  0  0
  182.9440  178.6010  139.7130 C   0  0  1  0  0  3  0  0  0  0  0  0
  183.6210  176.5640  138.1690 C   0  0  2  0  0  3  0  0  0  0  0  0
  184.1230  175.4460  135.0720 C   0  0  0  0  0  2  0  0  0  0  0  0
  187.5980  177.5830  138.6290 C   0  0  0  0  0  0  0  0  0  0  0  0
  188.4260  176.6850  137.8030 C   0  0  0  0  0  3  0  0  0  0  0  0
  185.7700  177.3070  136.9800 C   0  0  1  0  0  3  0  0  0  0  0  0
  187.8580  175.9260  136.8610 C   0  0  0  0  0  3  0  0  0  0  0  0
  186.3350  177.8430  138.2760 C   0  0  0  0  0  3  0  0  0  0  0  0
  186.3620  175.9170  136.6980 C   0  0  0  0  0  2  0  0  0  0  0  0
  188.1600  178.1840  139.8660 C   0  0  0  0  0  1  0  0  0  0  0  0
  178.9500  175.7280  140.2370 C   0  0  0  0  0  1  0  0  0  0  0  0
  179.3850  177.0990  139.9990 N   0  0  0  0  0  0  0  0  0  0  0  0
  179.1800  177.8580  141.2240 C   0  0  0  0  0  1  0  0  0  0  0  0
  183.2660  179.6740  138.7210 C   0  0  0  0  0  0  0  0  0  0  0  0
  182.3750  179.9460  137.6910 O   0  0  0  0  0  0  0  0  0  0  0  0
  184.3220  180.3520  138.8270 O   0  0  0  0  0  1  0  0  0  0  0  0
  180.7950  174.0850  137.3060 C   0  0  0  0  0  2  0  0  0  0  0  0
  180.6150  172.5940  137.5100 C   0  0  0  0  0  1  0  0  0  0  0  0
  1 10  1  6  0  0  0
  1  7  1  0  0  0  0
  2 28  1  6  0  0  0
  2  8  1  0  0  0  0
  3 22  1  6  0  0  0
  3 18  1  0  0  0  0
  6 14  1  0  0  0  0
  7 33  1  6  0  0  0
  7  6  1  0  0  0  0
  9 17  1  0  0  0  0
  9  4  1  1  0  0  0
 11 14  2  0  0  0  0
 12 15  1  1  0  0  0
 12  3  1  0  0  0  0
 13  5  1  6  0  0  0
 13  1  1  0  0  0  0
 14  2  1  0  0  0  0
 16 15  1  0  0  0  0
 16 12  1  0  0  0  0
 17 30  1  6  0  0  0
 17  8  1  0  0  0  0
 18  6  1  6  0  0  0
 18  9  1  0  0  0  0
 19 13  1  0  0  0  0
 19 12  1  0  0  0  0
 20 26  1  0  0  0  0
 21 20  1  0  0  0  0
 22 25  1  1  0  0  0
 22 24  1  0  0  0  0
 23 21  2  0  0  0  0
 24 20  2  0  0  0  0
 25 23  1  0  0  0  0
 28 27  1  0  0  0  0
 28 29  1  0  0  0  0
 30 32  1  0  0  0  0
 31 30  2  0  0  0  0
 33 34  1  0  0  0  0
M  END
>  <MODEL>
8

>  <REMARK>
 VINA RESULT:      -3.0      2.254      6.263
  Name = 
  4 active torsions:
  status: ('A' for Active; 'I' for Inactive)
    1  A    between atoms: C_2  and  C_15
    2  A    between atoms: C_3  and  N_14
    3  A    between atoms: C_4  and  C_12
    4  A    between atoms: C_13  and  C_29
                            x       y       z     vdW  Elec       q    Type
                         _______ _______ _______ _____ _____    ______ ____

>  <TORSDO>
F 4

$$$$
=
 OpenBabel11052414043D

 34 37  0  0  1  0  0  0  0  0999 V2000
  182.8600  178.0420  141.6390 C   0  0  1  0  0  3  0  0  0  0  0  0
  185.6790  177.7100  137.6770 C   0  0  2  0  0  3  0  0  0  0  0  0
  181.4350  177.5240  138.4800 C   0  0  1  0  0  3  0  0  0  0  0  0
  184.4190  175.1750  138.6620 O   0  0  0  0  0  1  0  0  0  0  0  0
  181.5120  179.7530  142.7310 O   0  0  0  0  0  1  0  0  0  0  0  0
  183.7800  178.0060  139.3260 N   0  0  0  0  0  0  0  0  0  0  0  0
  184.1180  178.1240  140.7550 C   0  0  1  0  0  3  0  0  0  0  0  0
  185.1540  177.0370  136.4130 C   0  0  0  0  0  2  0  0  0  0  0  0
  183.3990  175.8730  138.0150 C   0  0  2  0  0  3  0  0  0  0  0  0
  183.2220  177.6880  143.0770 C   0  0  0  0  0  1  0  0  0  0  0  0
  184.4980  179.7910  138.0040 O   0  0  0  0  0  0  0  0  0  0  0  0
  181.1140  178.8800  139.1400 C   0  0  1  0  0  0  0  0  0  0  0  0
  181.9590  179.2830  141.4930 C   0  0  2  0  0  3  0  0  0  0  0  0
  184.6420  178.5840  138.3360 C   0  0  0  0  0  0  0  0  0  0  0  0
  181.5430  180.1160  138.4500 C   0  0  0  0  0  2  0  0  0  0  0  0
  180.2230  179.6380  138.3570 O   0  0  0  0  0  0  0  0  0  0  0  0
  183.8230  176.2890  136.5890 C   0  0  1  0  0  3  0  0  0  0  0  0
  182.8100  176.9680  138.9350 C   0  0  2  0  0  3  0  0  0  0  0  0
  180.7510  178.9730  140.6200 C   0  0  0  0  0  2  0  0  0  0  0  0
  179.3250  174.5070  137.6480 C   0  0  0  0  0  0  0  0  0  0  0  0
  178.9330  174.0170  138.9830 C   0  0  0  0  0  3  0  0  0  0  0  0
  180.2940  176.5090  138.7400 C   0  0  1  0  0  3  0  0  0  0  0  0
  179.4700  174.5580  140.0810 C   0  0  0  0  0  3  0  0  0  0  0  0
  180.0050  175.6510  137.5280 C   0  0  0  0  0  3  0  0  0  0  0  0
  180.5430  175.6060  139.9590 C   0  0  0  0  0  2  0  0  0  0  0  0
  178.9820  173.7180  136.4370 C   0  0  0  0  0  1  0  0  0  0  0  0
  187.9620  177.9270  138.4780 C   0  0  0  0  0  1  0  0  0  0  0  0
  187.0000  178.3270  137.4580 N   0  0  0  0  0  0  0  0  0  0  0  0
  187.5190  177.9210  136.1610 C   0  0  0  0  0  1  0  0  0  0  0  0
  182.7200  176.8690  135.7600 C   0  0  0  0  0  0  0  0  0  0  0  0
  182.5890  178.2480  135.6590 O   0  0  0  0  0  1  0  0  0  0  0  0
  181.9280  176.1200  135.1280 O   0  0  0  0  0  0  0  0  0  0  0  0
  184.9420  179.3810  141.0600 C   0  0  0  0  0  2  0  0  0  0  0  0
  186.2720  179.0050  141.6810 C   0  0  0  0  0  1  0  0  0  0  0  0
  1 10  1  1  0  0  0
  2 28  1  6  0  0  0
  2 14  1  0  0  0  0
  3 22  1  1  0  0  0
  3 18  1  0  0  0  0
  3 12  1  0  0  0  0
  6  7  1  0  0  0  0
  7 33  1  6  0  0  0
  7  1  1  0  0  0  0
  8 17  1  0  0  0  0
  8  2  1  0  0  0  0
  9  4  1  1  0  0  0
  9 18  1  0  0  0  0
 11 14  2  0  0  0  0
 12 15  1  6  0  0  0
 12 19  1  0  0  0  0
 13  1  1  0  0  0  0
 13  5  1  1  0  0  0
 14  6  1  0  0  0  0
 16 15  1  0  0  0  0
 16 12  1  0  0  0  0
 17 30  1  1  0  0  0
 17  9  1  0  0  0  0
 18  6  1  6  0  0  0
 19 13  1  0  0  0  0
 20 21  1  0  0  0  0
 21 23  2  0  0  0  0
 22 24  1  6  0  0  0
 22 25  1  0  0  0  0
 24 20  2  0  0  0  0
 25 23  1  0  0  0  0
 26 20  1  0  0  0  0
 28 27  1  0  0  0  0
 29 28  1  0  0  0  0
 31 30  1  0  0  0  0
 32 30  2  0  0  0  0
 33 34  1  0  0  0  0
M  END
>  <MODEL>
9

>  <REMARK>
 VINA RESULT:      -2.3      1.985      5.262
  Name = 
  4 active torsions:
  status: ('A' for Active; 'I' for Inactive)
    1  A    between atoms: C_2  and  C_15
    2  A    between atoms: C_3  and  N_14
    3  A    between atoms: C_4  and  C_12
    4  A    between atoms: C_13  and  C_29
                            x       y       z     vdW  Elec       q    Type
                         _______ _______ _______ _____ _____    ______ ____

>  <TORSDO>
F 4

$$$$
