=
 OpenBabel11052412353D

 30 33  0  0  1  0  0  0  0  0999 V2000
  184.4460  178.5320  143.0030 C   0  0  0  0  0  0  0  0  0  0  0  0
  185.6270  179.0400  145.1190 C   0  0  0  0  0  2  0  0  0  0  0  0
  188.6020  176.1230  143.0240 C   0  0  0  0  0  2  0  0  0  0  0  0
  186.4370  179.3020  141.0150 C   0  0  0  0  0  2  0  0  0  0  0  0
  183.8610  177.5640  142.1260 N   0  0  0  0  0  2  0  0  0  0  0  0
  184.1560  179.0570  140.0960 C   0  0  1  0  0  3  0  0  0  0  0  0
  182.8300  177.0530  140.1040 O   0  0  0  0  0  0  0  0  0  0  0  0
  188.5440  177.7350  139.6460 C   0  0  2  0  0  3  0  0  0  0  0  0
  189.2390  176.8560  141.8910 C   0  0  0  0  0  0  0  0  0  0  0  0
  183.5370  177.8610  140.7630 C   0  0  0  0  0  0  0  0  0  0  0  0
  185.5950  178.8460  139.9120 N   0  0  0  0  0  0  0  0  0  0  0  0
  186.2640  178.4160  146.3180 C   0  0  0  0  0  3  0  0  0  0  0  0
  187.2900  177.0840  139.0460 C   0  0  0  0  0  2  0  0  0  0  0  0
  184.0690  179.7370  142.9510 O   0  0  0  0  0  0  0  0  0  0  0  0
  187.8430  177.0760  143.8960 C   0  0  0  0  0  0  0  0  0  0  0  0
  187.2540  177.5200  146.3400 C   0  0  0  0  0  3  0  0  0  0  0  0
  185.5780  178.1280  143.9050 C   0  0  2  0  0  3  0  0  0  0  0  0
  187.0520  178.0980  141.7140 C   0  0  1  0  0  3  0  0  0  0  0  0
  190.3860  176.5870  141.5680 O   0  0  0  0  0  0  0  0  0  0  0  0
  188.4850  177.9400  141.1740 C   0  0  2  0  0  3  0  0  0  0  0  0
  185.5320  177.9770  137.7340 O   0  0  0  0  0  0  0  0  0  0  0  0
  187.9460  176.8620  145.2130 C   0  0  0  0  0  3  0  0  0  0  0  0
  186.9870  178.1660  143.2680 C   0  0  2  0  0  3  0  0  0  0  0  0
  186.1150  178.0100  138.8490 C   0  0  0  0  0  0  0  0  0  0  0  0
  183.4290  179.5270  138.8360 C   0  0  0  0  0  2  0  0  0  0  0  0
  182.0540  180.0780  139.1730 C   0  0  0  0  0  2  0  0  0  0  0  0
  181.7660  181.3370  138.3770 C   0  0  0  0  0  1  0  0  0  0  0  0
  188.9480  179.0080  138.9060 C   0  0  0  0  0  2  0  0  0  0  0  0
  190.0770  177.4790  137.2900 C   0  0  0  0  0  1  0  0  0  0  0  0
  189.2350  178.7330  137.4390 C   0  0  0  0  0  2  0  0  0  0  0  0
  1 17  1  0  0  0  0
  2 12  1  0  0  0  0
  3 15  1  0  0  0  0
  5  1  1  0  0  0  0
  6 25  1  6  0  0  0
  6 10  1  0  0  0  0
  7 10  2  0  0  0  0
  8 28  1  6  0  0  0
  8 20  1  0  0  0  0
  9  3  1  0  0  0  0
 10  5  1  0  0  0  0
 11  6  1  0  0  0  0
 11  4  1  0  0  0  0
 12 16  2  0  0  0  0
 13  8  1  0  0  0  0
 14  1  2  0  0  0  0
 15 22  2  0  0  0  0
 17  2  1  1  0  0  0
 18  4  1  6  0  0  0
 18 23  1  0  0  0  0
 19  9  2  0  0  0  0
 20 18  1  0  0  0  0
 20  9  1  1  0  0  0
 21 24  2  0  0  0  0
 22 16  1  0  0  0  0
 23 15  1  1  0  0  0
 23 17  1  0  0  0  0
 24 13  1  0  0  0  0
 24 11  1  0  0  0  0
 25 26  1  0  0  0  0
 27 26  1  0  0  0  0
 29 30  1  0  0  0  0
 30 28  1  0  0  0  0
M  END
>  <MODEL>
1

>  <REMARK>
 VINA RESULT:      -7.0      0.000      0.000
  Name = 
  4 active torsions:
  status: ('A' for Active; 'I' for Inactive)
    1  A    between atoms: C_6  and  C_8
    2  A    between atoms: C_6  and  C_17
    3  A    between atoms: C_7  and  C_10
    4  A    between atoms: C_7  and  C_26
                            x       y       z     vdW  Elec       q    Type
                         _______ _______ _______ _____ _____    ______ ____

>  <TORSDO>
F 4

$$$$
=
 OpenBabel11052412353D

 30 33  0  0  1  0  0  0  0  0999 V2000
  189.6600  176.8360  136.5330 C   0  0  0  0  0  0  0  0  0  0  0  0
  191.5180  175.2070  136.3820 C   0  0  0  0  0  2  0  0  0  0  0  0
  192.6730  177.6460  140.1860 C   0  0  0  0  0  2  0  0  0  0  0  0
  188.6490  176.3350  139.2230 C   0  0  0  0  0  2  0  0  0  0  0  0
  189.2220  178.1990  136.5600 N   0  0  0  0  0  2  0  0  0  0  0  0
  187.0850  177.6060  137.7930 C   0  0  1  0  0  3  0  0  0  0  0  0
  187.5010  179.7480  136.7880 O   0  0  0  0  0  0  0  0  0  0  0  0
  189.3080  177.5850  141.8260 C   0  0  2  0  0  3  0  0  0  0  0  0
  191.7350  177.2570  141.2800 C   0  0  0  0  0  0  0  0  0  0  0  0
  187.9070  178.5720  136.9880 C   0  0  0  0  0  0  0  0  0  0  0  0
  187.6770  177.4200  139.1210 N   0  0  0  0  0  0  0  0  0  0  0  0
  193.0060  175.0860  136.3250 C   0  0  0  0  0  3  0  0  0  0  0  0
  188.6300  178.7680  141.1210 C   0  0  0  0  0  2  0  0  0  0  0  0
  188.8630  175.9270  136.1680 O   0  0  0  0  0  0  0  0  0  0  0  0
  192.5290  176.7110  139.0240 C   0  0  0  0  0  0  0  0  0  0  0  0
  193.8960  175.5510  137.2060 C   0  0  0  0  0  3  0  0  0  0  0  0
  191.0320  176.4880  137.0390 C   0  0  2  0  0  3  0  0  0  0  0  0
  190.0370  176.9180  139.4470 C   0  0  1  0  0  3  0  0  0  0  0  0
  192.1240  177.2660  142.4370 O   0  0  0  0  0  0  0  0  0  0  0  0
  190.3320  176.8270  140.9550 C   0  0  2  0  0  3  0  0  0  0  0  0
  186.4370  179.0440  140.2730 O   0  0  0  0  0  0  0  0  0  0  0  0
  193.6710  176.3510  138.4280 C   0  0  0  0  0  3  0  0  0  0  0  0
  191.1460  176.2730  138.5660 C   0  0  2  0  0  3  0  0  0  0  0  0
  187.5150  178.4010  140.1740 C   0  0  0  0  0  0  0  0  0  0  0  0
  185.5870  177.9120  137.8160 C   0  0  0  0  0  2  0  0  0  0  0  0
  184.8230  176.9690  136.9010 C   0  0  0  0  0  2  0  0  0  0  0  0
  185.4250  175.5770  136.9360 C   0  0  0  0  0  1  0  0  0  0  0  0
  188.2990  176.6440  142.4820 C   0  0  0  0  0  2  0  0  0  0  0  0
  189.1970  177.4340  144.6710 C   0  0  0  0  0  1  0  0  0  0  0  0
  187.9410  177.1040  143.8860 C   0  0  0  0  0  2  0  0  0  0  0  0
  1  5  1  0  0  0  0
  1 17  1  0  0  0  0
  3  9  1  0  0  0  0
  5 10  1  0  0  0  0
  6 25  1  1  0  0  0
  6 11  1  0  0  0  0
  7 10  2  0  0  0  0
  8 28  1  6  0  0  0
  9 19  2  0  0  0  0
 10  6  1  0  0  0  0
 11  4  1  0  0  0  0
 11 24  1  0  0  0  0
 12  2  1  0  0  0  0
 12 16  2  0  0  0  0
 13  8  1  0  0  0  0
 14  1  2  0  0  0  0
 15  3  1  0  0  0  0
 16 22  1  0  0  0  0
 17  2  1  6  0  0  0
 17 23  1  0  0  0  0
 18  4  1  1  0  0  0
 18 20  1  0  0  0  0
 20  9  1  6  0  0  0
 20  8  1  0  0  0  0
 22 15  2  0  0  0  0
 23 15  1  1  0  0  0
 23 18  1  0  0  0  0
 24 21  2  0  0  0  0
 24 13  1  0  0  0  0
 26 27  1  0  0  0  0
 26 25  1  0  0  0  0
 28 30  1  0  0  0  0
 30 29  1  0  0  0  0
M  END
>  <MODEL>
2

>  <REMARK>
 VINA RESULT:      -7.0      2.717      6.518
  Name = 
  4 active torsions:
  status: ('A' for Active; 'I' for Inactive)
    1  A    between atoms: C_6  and  C_8
    2  A    between atoms: C_6  and  C_17
    3  A    between atoms: C_7  and  C_10
    4  A    between atoms: C_7  and  C_26
                            x       y       z     vdW  Elec       q    Type
                         _______ _______ _______ _____ _____    ______ ____

>  <TORSDO>
F 4

$$$$
=
 OpenBabel11052412353D

 30 33  0  0  1  0  0  0  0  0999 V2000
  189.5810  177.3420  144.7530 C   0  0  0  0  0  0  0  0  0  0  0  0
  188.9770  176.4640  146.9870 C   0  0  0  0  0  2  0  0  0  0  0  0
  185.6660  179.6710  146.2790 C   0  0  0  0  0  2  0  0  0  0  0  0
  187.1120  176.9090  143.2600 C   0  0  0  0  0  2  0  0  0  0  0  0
  189.9510  178.4530  143.9300 N   0  0  0  0  0  2  0  0  0  0  0  0
  189.0810  177.3320  141.8270 C   0  0  1  0  0  3  0  0  0  0  0  0
  190.4350  179.3170  141.8250 O   0  0  0  0  0  0  0  0  0  0  0  0
  184.7800  178.6700  142.7820 C   0  0  2  0  0  3  0  0  0  0  0  0
  184.7290  179.1390  145.2460 C   0  0  0  0  0  0  0  0  0  0  0  0
  189.8970  178.4000  142.5000 C   0  0  0  0  0  0  0  0  0  0  0  0
  187.6530  177.5580  142.0680 N   0  0  0  0  0  0  0  0  0  0  0  0
  188.6990  176.8650  148.4000 C   0  0  0  0  0  3  0  0  0  0  0  0
  185.8570  179.4270  141.9920 C   0  0  0  0  0  2  0  0  0  0  0  0
  189.8860  176.1680  144.3990 O   0  0  0  0  0  0  0  0  0  0  0  0
  186.5920  178.5890  146.7440 C   0  0  0  0  0  0  0  0  0  0  0  0
  187.7820  177.7330  148.8340 C   0  0  0  0  0  3  0  0  0  0  0  0
  188.7390  177.5730  145.9770 C   0  0  2  0  0  3  0  0  0  0  0  0
  186.7460  177.9680  144.2900 C   0  0  1  0  0  3  0  0  0  0  0  0
  183.5480  179.4500  145.2880 O   0  0  0  0  0  0  0  0  0  0  0  0
  185.2290  178.2030  144.1820 C   0  0  2  0  0  3  0  0  0  0  0  0
  187.1760  178.7920  140.1310 O   0  0  0  0  0  0  0  0  0  0  0  0
  186.8440  178.5700  148.0580 C   0  0  0  0  0  3  0  0  0  0  0  0
  187.2130  177.6330  145.7370 C   0  0  2  0  0  3  0  0  0  0  0  0
  186.9040  178.5610  141.3380 C   0  0  0  0  0  0  0  0  0  0  0  0
  189.4360  177.0940  140.3590 C   0  0  0  0  0  2  0  0  0  0  0  0
  190.8800  176.6460  140.2120 C   0  0  0  0  0  2  0  0  0  0  0  0
  191.2050  176.3350  138.7630 C   0  0  0  0  0  1  0  0  0  0  0  0
  184.1500  177.5400  141.9700 C   0  0  0  0  0  2  0  0  0  0  0  0
  181.9840  178.6990  141.5340 C   0  0  0  0  0  1  0  0  0  0  0  0
  183.2150  178.0790  140.8990 C   0  0  0  0  0  2  0  0  0  0  0  0
  1 17  1  0  0  0  0
  2 12  1  0  0  0  0
  3 15  1  0  0  0  0
  5  1  1  0  0  0  0
  6 25  1  6  0  0  0
  6 11  1  0  0  0  0
  6 10  1  0  0  0  0
  7 10  2  0  0  0  0
  8 28  1  6  0  0  0
  8 20  1  0  0  0  0
  9 19  2  0  0  0  0
  9  3  1  0  0  0  0
 10  5  1  0  0  0  0
 11  4  1  0  0  0  0
 12 16  2  0  0  0  0
 13  8  1  0  0  0  0
 14  1  2  0  0  0  0
 15 22  2  0  0  0  0
 17  2  1  1  0  0  0
 18  4  1  6  0  0  0
 18 23  1  0  0  0  0
 20 18  1  0  0  0  0
 20  9  1  1  0  0  0
 21 24  2  0  0  0  0
 22 16  1  0  0  0  0
 23 17  1  0  0  0  0
 23 15  1  1  0  0  0
 24 13  1  0  0  0  0
 24 11  1  0  0  0  0
 26 25  1  0  0  0  0
 27 26  1  0  0  0  0
 30 29  1  0  0  0  0
 30 28  1  0  0  0  0
M  END
>  <MODEL>
3

>  <REMARK>
 VINA RESULT:      -6.9      2.243      5.793
  Name = 
  4 active torsions:
  status: ('A' for Active; 'I' for Inactive)
    1  A    between atoms: C_6  and  C_8
    2  A    between atoms: C_6  and  C_17
    3  A    between atoms: C_7  and  C_10
    4  A    between atoms: C_7  and  C_26
                            x       y       z     vdW  Elec       q    Type
                         _______ _______ _______ _____ _____    ______ ____

>  <TORSDO>
F 4

$$$$
=
 OpenBabel11052412353D

 30 33  0  0  1  0  0  0  0  0999 V2000
  183.5350  178.2850  141.6520 C   0  0  0  0  0  0  0  0  0  0  0  0
  184.3060  179.3960  143.7250 C   0  0  0  0  0  2  0  0  0  0  0  0
  188.0380  176.8640  142.5360 C   0  0  0  0  0  2  0  0  0  0  0  0
  185.5840  179.1040  139.7440 C   0  0  0  0  0  2  0  0  0  0  0  0
  183.2690  177.0760  140.9340 N   0  0  0  0  0  2  0  0  0  0  0  0
  183.5340  178.2180  138.6840 C   0  0  1  0  0  3  0  0  0  0  0  0
  182.6310  176.0100  138.9660 O   0  0  0  0  0  0  0  0  0  0  0  0
  188.1150  177.8100  138.9140 C   0  0  2  0  0  3  0  0  0  0  0  0
  188.6650  177.5080  141.3430 C   0  0  0  0  0  0  0  0  0  0  0  0
  183.0750  177.0530  139.5150 C   0  0  0  0  0  0  0  0  0  0  0  0
  184.9980  178.2920  138.6800 N   0  0  0  0  0  0  0  0  0  0  0  0
  184.8880  179.1420  145.0770 C   0  0  0  0  0  3  0  0  0  0  0  0
  187.1000  176.8110  138.3410 C   0  0  0  0  0  2  0  0  0  0  0  0
  182.9430  179.3530  141.3270 O   0  0  0  0  0  0  0  0  0  0  0  0
  187.0010  177.7700  143.1270 C   0  0  0  0  0  0  0  0  0  0  0  0
  186.0210  178.4980  145.3690 C   0  0  0  0  0  3  0  0  0  0  0  0
  184.5950  178.2970  142.7170 C   0  0  2  0  0  3  0  0  0  0  0  0
  186.3220  178.2010  140.7220 C   0  0  1  0  0  3  0  0  0  0  0  0
  189.8740  177.4380  141.1880 O   0  0  0  0  0  0  0  0  0  0  0  0
  187.8170  178.2620  140.3590 C   0  0  2  0  0  3  0  0  0  0  0  0
  185.3920  177.0630  136.7220 O   0  0  0  0  0  0  0  0  0  0  0  0
  186.9690  177.8160  144.4630 C   0  0  0  0  0  3  0  0  0  0  0  0
  186.0410  178.5240  142.2180 C   0  0  2  0  0  3  0  0  0  0  0  0
  185.8060  177.4140  137.8570 C   0  0  0  0  0  0  0  0  0  0  0  0
  182.9030  178.2940  137.2940 C   0  0  0  0  0  2  0  0  0  0  0  0
  181.5810  179.0440  137.3350 C   0  0  0  0  0  2  0  0  0  0  0  0
  181.7110  180.3240  138.1400 C   0  0  0  0  0  1  0  0  0  0  0  0
  188.3600  178.9910  137.9770 C   0  0  0  0  0  2  0  0  0  0  0  0
  190.1040  177.4300  137.1150 C   0  0  0  0  0  1  0  0  0  0  0  0
  189.1770  178.5790  136.7630 C   0  0  0  0  0  2  0  0  0  0  0  0
  1 17  1  0  0  0  0
  2 12  1  0  0  0  0
  3 15  1  0  0  0  0
  5  1  1  0  0  0  0
  6 25  1  6  0  0  0
  6 10  1  0  0  0  0
  7 10  2  0  0  0  0
  8 28  1  6  0  0  0
  8 20  1  0  0  0  0
  9  3  1  0  0  0  0
 10  5  1  0  0  0  0
 11  6  1  0  0  0  0
 11  4  1  0  0  0  0
 12 16  2  0  0  0  0
 13  8  1  0  0  0  0
 14  1  2  0  0  0  0
 15 22  2  0  0  0  0
 17  2  1  1  0  0  0
 18  4  1  6  0  0  0
 18 23  1  0  0  0  0
 19  9  2  0  0  0  0
 20 18  1  0  0  0  0
 20  9  1  1  0  0  0
 21 24  2  0  0  0  0
 22 16  1  0  0  0  0
 23 17  1  0  0  0  0
 23 15  1  1  0  0  0
 24 13  1  0  0  0  0
 24 11  1  0  0  0  0
 25 26  1  0  0  0  0
 26 27  1  0  0  0  0
 30 29  1  0  0  0  0
 30 28  1  0  0  0  0
M  END
>  <MODEL>
4

>  <REMARK>
 VINA RESULT:      -6.6      1.223      1.456
  Name = 
  4 active torsions:
  status: ('A' for Active; 'I' for Inactive)
    1  A    between atoms: C_6  and  C_8
    2  A    between atoms: C_6  and  C_17
    3  A    between atoms: C_7  and  C_10
    4  A    between atoms: C_7  and  C_26
                            x       y       z     vdW  Elec       q    Type
                         _______ _______ _______ _____ _____    ______ ____

>  <TORSDO>
F 4

$$$$
=
 OpenBabel11052412353D

 30 33  0  0  1  0  0  0  0  0999 V2000
  189.3930  174.7640  135.4870 C   0  0  0  0  0  0  0  0  0  0  0  0
  191.0620  172.9900  135.9260 C   0  0  0  0  0  2  0  0  0  0  0  0
  192.9330  176.6470  138.1330 C   0  0  0  0  0  2  0  0  0  0  0  0
  188.7160  175.6230  138.1910 C   0  0  0  0  0  2  0  0  0  0  0  0
  189.0850  176.0510  134.9400 N   0  0  0  0  0  2  0  0  0  0  0  0
  187.0910  176.3540  136.4790 C   0  0  1  0  0  3  0  0  0  0  0  0
  187.5550  177.7700  134.5940 O   0  0  0  0  0  0  0  0  0  0  0  0
  189.8290  177.7710  139.8990 C   0  0  2  0  0  3  0  0  0  0  0  0
  192.1210  176.9050  139.3590 C   0  0  0  0  0  0  0  0  0  0  0  0
  187.8790  176.7520  135.2630 C   0  0  0  0  0  0  0  0  0  0  0  0
  187.8390  176.6810  137.6970 N   0  0  0  0  0  0  0  0  0  0  0  0
  192.5120  172.6500  135.8070 C   0  0  0  0  0  3  0  0  0  0  0  0
  189.1700  178.6140  138.7990 C   0  0  0  0  0  2  0  0  0  0  0  0
  188.4770  173.9080  135.6330 O   0  0  0  0  0  0  0  0  0  0  0  0
  192.5510  175.3320  137.5260 C   0  0  0  0  0  0  0  0  0  0  0  0
  193.5500  173.3210  136.3110 C   0  0  0  0  0  3  0  0  0  0  0  0
  190.7850  174.4830  135.9800 C   0  0  2  0  0  3  0  0  0  0  0  0
  190.1680  176.0460  138.0160 C   0  0  1  0  0  3  0  0  0  0  0  0
  192.6630  177.3600  140.3540 O   0  0  0  0  0  0  0  0  0  0  0  0
  190.6550  176.5770  139.3770 C   0  0  2  0  0  3  0  0  0  0  0  0
  186.9150  178.7990  138.1000 O   0  0  0  0  0  0  0  0  0  0  0  0
  193.5660  174.5940  137.0620 C   0  0  0  0  0  3  0  0  0  0  0  0
  191.0860  174.9350  137.4280 C   0  0  2  0  0  3  0  0  0  0  0  0
  187.9080  178.0340  138.2110 C   0  0  0  0  0  0  0  0  0  0  0  0
  185.6430  176.8450  136.4860 C   0  0  0  0  0  2  0  0  0  0  0  0
  184.7360  175.8620  137.2070 C   0  0  0  0  0  2  0  0  0  0  0  0
  185.1520  174.4320  136.9180 C   0  0  0  0  0  1  0  0  0  0  0  0
  188.8390  177.3580  140.9860 C   0  0  0  0  0  2  0  0  0  0  0  0
  190.0900  177.9240  143.0700 C   0  0  0  0  0  1  0  0  0  0  0  0
  189.5540  176.7970  142.2060 C   0  0  0  0  0  2  0  0  0  0  0  0
  1 14  2  0  0  0  0
  1 17  1  0  0  0  0
  3  9  1  0  0  0  0
  5 10  1  0  0  0  0
  5  1  1  0  0  0  0
  6 25  1  1  0  0  0
  6 11  1  0  0  0  0
  7 10  2  0  0  0  0
  8 28  1  1  0  0  0
  9 19  2  0  0  0  0
 10  6  1  0  0  0  0
 11  4  1  0  0  0  0
 11 24  1  0  0  0  0
 12  2  1  0  0  0  0
 12 16  2  0  0  0  0
 13  8  1  0  0  0  0
 15  3  1  0  0  0  0
 16 22  1  0  0  0  0
 17  2  1  1  0  0  0
 17 23  1  0  0  0  0
 18  4  1  1  0  0  0
 18 20  1  0  0  0  0
 20  9  1  6  0  0  0
 20  8  1  0  0  0  0
 21 24  2  0  0  0  0
 22 15  2  0  0  0  0
 23 15  1  6  0  0  0
 23 18  1  0  0  0  0
 24 13  1  0  0  0  0
 25 26  1  0  0  0  0
 27 26  1  0  0  0  0
 28 30  1  0  0  0  0
 30 29  1  0  0  0  0
M  END
>  <MODEL>
5

>  <REMARK>
 VINA RESULT:      -6.5      3.685      7.242
  Name = 
  4 active torsions:
  status: ('A' for Active; 'I' for Inactive)
    1  A    between atoms: C_6  and  C_8
    2  A    between atoms: C_6  and  C_17
    3  A    between atoms: C_7  and  C_10
    4  A    between atoms: C_7  and  C_26
                            x       y       z     vdW  Elec       q    Type
                         _______ _______ _______ _____ _____    ______ ____

>  <TORSDO>
F 4

$$$$
=
 OpenBabel11052412353D

 30 33  0  0  1  0  0  0  0  0999 V2000
  188.3050  177.7440  145.4610 C   0  0  0  0  0  0  0  0  0  0  0  0
  185.9190  177.4360  146.0440 C   0  0  0  0  0  2  0  0  0  0  0  0
  185.6420  179.9010  142.0950 C   0  0  0  0  0  2  0  0  0  0  0  0
  188.4060  176.6240  142.7690 C   0  0  0  0  0  2  0  0  0  0  0  0
  189.4000  178.6270  145.1960 N   0  0  0  0  0  2  0  0  0  0  0  0
  190.6260  176.8800  143.8240 C   0  0  1  0  0  3  0  0  0  0  0  0
  191.6170  178.9410  144.5630 O   0  0  0  0  0  0  0  0  0  0  0  0
  188.0980  177.8890  140.1100 C   0  0  2  0  0  3  0  0  0  0  0  0
  186.0170  178.9990  140.9660 C   0  0  0  0  0  0  0  0  0  0  0  0
  190.6110  178.1820  144.5750 C   0  0  0  0  0  0  0  0  0  0  0  0
  189.8110  176.9860  142.6100 N   0  0  0  0  0  0  0  0  0  0  0  0
  184.6390  178.1680  146.2850 C   0  0  0  0  0  3  0  0  0  0  0  0
  189.4170  178.5290  140.5630 C   0  0  0  0  0  2  0  0  0  0  0  0
  188.5300  176.5650  145.8560 O   0  0  0  0  0  0  0  0  0  0  0  0
  185.4520  179.1070  143.3510 C   0  0  0  0  0  0  0  0  0  0  0  0
  184.0090  179.0030  145.4550 C   0  0  0  0  0  3  0  0  0  0  0  0
  186.9020  178.1930  145.1660 C   0  0  2  0  0  3  0  0  0  0  0  0
  187.5420  177.8680  142.6250 C   0  0  1  0  0  3  0  0  0  0  0  0
  185.5040  179.1620  139.8700 O   0  0  0  0  0  0  0  0  0  0  0  0
  186.9930  177.8780  141.1870 C   0  0  2  0  0  3  0  0  0  0  0  0
  191.5160  177.5810  141.1120 O   0  0  0  0  0  0  0  0  0  0  0  0
  184.4190  179.4770  144.1160 C   0  0  0  0  0  3  0  0  0  0  0  0
  186.4300  177.9980  143.7060 C   0  0  2  0  0  3  0  0  0  0  0  0
  190.2970  177.6540  141.4190 C   0  0  0  0  0  0  0  0  0  0  0  0
  192.0200  176.2990  143.5900 C   0  0  0  0  0  2  0  0  0  0  0  0
  192.2040  174.9970  144.3530 C   0  0  0  0  0  2  0  0  0  0  0  0
  192.0560  175.2200  145.8460 C   0  0  0  0  0  1  0  0  0  0  0  0
  188.3060  176.5130  139.4810 C   0  0  0  0  0  2  0  0  0  0  0  0
  187.5220  177.6500  137.4020 C   0  0  0  0  0  1  0  0  0  0  0  0
  188.4700  176.6100  137.9720 C   0  0  0  0  0  2  0  0  0  0  0  0
  1 14  2  0  0  0  0
  2 12  1  0  0  0  0
  3 15  1  0  0  0  0
  5  1  1  0  0  0  0
  6 25  1  6  0  0  0
  6 10  1  0  0  0  0
  7 10  2  0  0  0  0
  8 28  1  1  0  0  0
  8 13  1  0  0  0  0
  8 20  1  0  0  0  0
  9  3  1  0  0  0  0
 10  5  1  0  0  0  0
 11  4  1  0  0  0  0
 11  6  1  0  0  0  0
 13 24  1  0  0  0  0
 15 22  2  0  0  0  0
 16 12  2  0  0  0  0
 17  1  1  0  0  0  0
 17  2  1  1  0  0  0
 18  4  1  1  0  0  0
 18 23  1  0  0  0  0
 19  9  2  0  0  0  0
 20  9  1  1  0  0  0
 20 18  1  0  0  0  0
 21 24  2  0  0  0  0
 22 16  1  0  0  0  0
 23 15  1  6  0  0  0
 23 17  1  0  0  0  0
 24 11  1  0  0  0  0
 25 26  1  0  0  0  0
 26 27  1  0  0  0  0
 29 30  1  0  0  0  0
 30 28  1  0  0  0  0
M  END
>  <MODEL>
6

>  <REMARK>
 VINA RESULT:      -6.4      2.621      5.949
  Name = 
  4 active torsions:
  status: ('A' for Active; 'I' for Inactive)
    1  A    between atoms: C_6  and  C_8
    2  A    between atoms: C_6  and  C_17
    3  A    between atoms: C_7  and  C_10
    4  A    between atoms: C_7  and  C_26
                            x       y       z     vdW  Elec       q    Type
                         _______ _______ _______ _____ _____    ______ ____

>  <TORSDO>
F 4

$$$$
=
 OpenBabel11052412353D

 30 33  0  0  1  0  0  0  0  0999 V2000
  189.6470  177.3770  143.2160 C   0  0  0  0  0  0  0  0  0  0  0  0
  190.2890  176.0200  145.1850 C   0  0  0  0  0  2  0  0  0  0  0  0
  187.4490  179.1960  147.0810 C   0  0  0  0  0  2  0  0  0  0  0  0
  186.7370  177.1960  143.2960 C   0  0  0  0  0  2  0  0  0  0  0  0
  189.6070  178.6510  142.5640 N   0  0  0  0  0  2  0  0  0  0  0  0
  187.6250  177.9810  141.1280 C   0  0  1  0  0  3  0  0  0  0  0  0
  188.9340  179.9620  140.7640 O   0  0  0  0  0  0  0  0  0  0  0  0
  184.7000  178.9420  144.5520 C   0  0  2  0  0  3  0  0  0  0  0  0
  186.0540  178.8680  146.6630 C   0  0  0  0  0  0  0  0  0  0  0  0
  188.7720  178.9050  141.4280 C   0  0  0  0  0  0  0  0  0  0  0  0
  186.5920  178.1030  142.1610 N   0  0  0  0  0  0  0  0  0  0  0  0
  190.8700  176.0990  146.5590 C   0  0  0  0  0  3  0  0  0  0  0  0
  185.2320  179.8850  143.4640 C   0  0  0  0  0  2  0  0  0  0  0  0
  189.5980  176.3180  142.5300 O   0  0  0  0  0  0  0  0  0  0  0  0
  188.3720  178.0700  146.7310 C   0  0  0  0  0  0  0  0  0  0  0  0
  190.4290  176.8240  147.5900 C   0  0  0  0  0  3  0  0  0  0  0  0
  189.6410  177.3130  144.7180 C   0  0  2  0  0  3  0  0  0  0  0  0
  187.0960  177.9960  144.5400 C   0  0  1  0  0  3  0  0  0  0  0  0
  185.1250  179.1240  147.4140 O   0  0  0  0  0  0  0  0  0  0  0  0
  185.7980  178.2000  145.3420 C   0  0  2  0  0  3  0  0  0  0  0  0
  185.2480  179.7080  141.1030 O   0  0  0  0  0  0  0  0  0  0  0  0
  189.3010  177.7780  147.6480 C   0  0  0  0  0  3  0  0  0  0  0  0
  188.2460  177.3730  145.3840 C   0  0  2  0  0  3  0  0  0  0  0  0
  185.6630  179.2140  142.1840 C   0  0  0  0  0  0  0  0  0  0  0  0
  187.0930  178.0750  139.6980 C   0  0  0  0  0  2  0  0  0  0  0  0
  188.0510  177.4260  138.7140 C   0  0  0  0  0  2  0  0  0  0  0  0
  188.4910  178.4190  137.6540 C   0  0  0  0  0  1  0  0  0  0  0  0
  183.6260  177.9930  144.0240 C   0  0  0  0  0  2  0  0  0  0  0  0
  181.7700  178.9330  142.6470 C   0  0  0  0  0  1  0  0  0  0  0  0
  182.2500  178.6370  144.0570 C   0  0  0  0  0  2  0  0  0  0  0  0
  1 17  1  0  0  0  0
  2 12  1  0  0  0  0
  5  1  1  0  0  0  0
  6 25  1  6  0  0  0
  6 10  1  0  0  0  0
  6 11  1  0  0  0  0
  7 10  2  0  0  0  0
  8 28  1  6  0  0  0
  8 20  1  0  0  0  0
  9  3  1  0  0  0  0
  9 19  2  0  0  0  0
 10  5  1  0  0  0  0
 11 24  1  0  0  0  0
 11  4  1  0  0  0  0
 12 16  2  0  0  0  0
 13  8  1  0  0  0  0
 14  1  2  0  0  0  0
 15  3  1  0  0  0  0
 15 22  2  0  0  0  0
 16 22  1  0  0  0  0
 17  2  1  6  0  0  0
 17 23  1  0  0  0  0
 18  4  1  6  0  0  0
 18 20  1  0  0  0  0
 18 23  1  0  0  0  0
 20  9  1  1  0  0  0
 21 24  2  0  0  0  0
 23 15  1  1  0  0  0
 24 13  1  0  0  0  0
 26 25  1  0  0  0  0
 27 26  1  0  0  0  0
 28 30  1  0  0  0  0
 29 30  1  0  0  0  0
M  END
>  <MODEL>
7

>  <REMARK>
 VINA RESULT:      -6.1      2.211      5.624
  Name = 
  4 active torsions:
  status: ('A' for Active; 'I' for Inactive)
    1  A    between atoms: C_6  and  C_8
    2  A    between atoms: C_6  and  C_17
    3  A    between atoms: C_7  and  C_10
    4  A    between atoms: C_7  and  C_26
                            x       y       z     vdW  Elec       q    Type
                         _______ _______ _______ _____ _____    ______ ____

>  <TORSDO>
F 4

$$$$
=
 OpenBabel11052412353D

 30 33  0  0  1  0  0  0  0  0999 V2000
  186.2920  178.0490  138.1650 C   0  0  0  0  0  0  0  0  0  0  0  0
  184.5230  179.6680  138.7790 C   0  0  0  0  0  2  0  0  0  0  0  0
  185.3060  177.5020  142.8350 C   0  0  0  0  0  2  0  0  0  0  0  0
  188.4040  178.7340  140.0570 C   0  0  0  0  0  2  0  0  0  0  0  0
  186.7360  176.6910  138.0750 N   0  0  0  0  0  2  0  0  0  0  0  0
  189.1810  177.3630  138.1530 C   0  0  1  0  0  3  0  0  0  0  0  0
  188.4160  175.1570  137.5870 O   0  0  0  0  0  0  0  0  0  0  0  0
  189.0450  177.6710  142.7450 C   0  0  2  0  0  3  0  0  0  0  0  0
  186.6280  177.9650  143.3510 C   0  0  0  0  0  0  0  0  0  0  0  0
  188.1110  176.3450  137.8760 C   0  0  0  0  0  0  0  0  0  0  0  0
  189.2550  177.6430  139.5900 N   0  0  0  0  0  0  0  0  0  0  0  0
  183.1700  179.7880  139.4010 C   0  0  0  0  0  3  0  0  0  0  0  0
  189.3610  176.4390  141.8840 C   0  0  0  0  0  2  0  0  0  0  0  0
  186.8080  178.9290  137.4190 O   0  0  0  0  0  0  0  0  0  0  0  0
  184.8750  178.3540  141.6790 C   0  0  0  0  0  0  0  0  0  0  0  0
  182.7950  179.3880  140.6190 C   0  0  0  0  0  3  0  0  0  0  0  0
  185.2940  178.4340  139.2190 C   0  0  2  0  0  3  0  0  0  0  0  0
  187.2900  178.1710  140.9270 C   0  0  1  0  0  3  0  0  0  0  0  0
  186.8110  178.0380  144.5560 O   0  0  0  0  0  0  0  0  0  0  0  0
  187.7140  178.3680  142.3940 C   0  0  2  0  0  3  0  0  0  0  0  0
  190.9320  176.1000  140.1460 O   0  0  0  0  0  0  0  0  0  0  0  0
  183.5770  178.6740  141.6510 C   0  0  0  0  0  3  0  0  0  0  0  0
  185.8830  178.7560  140.6130 C   0  0  2  0  0  3  0  0  0  0  0  0
  189.9100  176.7370  140.5110 C   0  0  0  0  0  0  0  0  0  0  0  0
  190.5320  177.0560  137.5060 C   0  0  0  0  0  2  0  0  0  0  0  0
  190.3870  176.8580  136.0070 C   0  0  0  0  0  2  0  0  0  0  0  0
  191.1440  175.6250  135.5490 C   0  0  0  0  0  1  0  0  0  0  0  0
  190.2140  178.6520  142.8060 C   0  0  0  0  0  2  0  0  0  0  0  0
  190.4980  177.5860  145.0440 C   0  0  0  0  0  1  0  0  0  0  0  0
  190.6970  178.8540  144.2340 C   0  0  0  0  0  2  0  0  0  0  0  0
  1 17  1  0  0  0  0
  2 12  1  0  0  0  0
  3  9  1  0  0  0  0
  5  1  1  0  0  0  0
  6 25  1  1  0  0  0
  6 11  1  0  0  0  0
  7 10  2  0  0  0  0
  8 28  1  6  0  0  0
  9 19  2  0  0  0  0
 10  5  1  0  0  0  0
 10  6  1  0  0  0  0
 11  4  1  0  0  0  0
 11 24  1  0  0  0  0
 12 16  2  0  0  0  0
 13  8  1  0  0  0  0
 14  1  2  0  0  0  0
 15  3  1  0  0  0  0
 16 22  1  0  0  0  0
 17  2  1  6  0  0  0
 17 23  1  0  0  0  0
 18  4  1  6  0  0  0
 18 20  1  0  0  0  0
 20  8  1  0  0  0  0
 20  9  1  1  0  0  0
 21 24  2  0  0  0  0
 22 15  2  0  0  0  0
 23 18  1  0  0  0  0
 23 15  1  1  0  0  0
 24 13  1  0  0  0  0
 26 25  1  0  0  0  0
 27 26  1  0  0  0  0
 28 30  1  0  0  0  0
 30 29  1  0  0  0  0
M  END
>  <MODEL>
8

>  <REMARK>
 VINA RESULT:      -6.0      2.164      5.733
  Name = 
  4 active torsions:
  status: ('A' for Active; 'I' for Inactive)
    1  A    between atoms: C_6  and  C_8
    2  A    between atoms: C_6  and  C_17
    3  A    between atoms: C_7  and  C_10
    4  A    between atoms: C_7  and  C_26
                            x       y       z     vdW  Elec       q    Type
                         _______ _______ _______ _____ _____    ______ ____

>  <TORSDO>
F 4

$$$$
=
 OpenBabel11052412353D

 30 33  0  0  1  0  0  0  0  0999 V2000
  184.1230  179.3810  139.7820 C   0  0  0  0  0  0  0  0  0  0  0  0
  185.5500  178.4170  141.5600 C   0  0  0  0  0  2  0  0  0  0  0  0
  181.5030  179.0340  143.7940 C   0  0  0  0  0  2  0  0  0  0  0  0
  181.8810  177.5150  139.7460 C   0  0  0  0  0  2  0  0  0  0  0  0
  183.3070  180.4590  139.3130 N   0  0  0  0  0  2  0  0  0  0  0  0
  182.0150  178.9470  137.7370 C   0  0  1  0  0  3  0  0  0  0  0  0
  181.8910  181.3470  137.6940 O   0  0  0  0  0  0  0  0  0  0  0  0
  179.2850  177.5460  141.1700 C   0  0  2  0  0  3  0  0  0  0  0  0
  180.5430  178.0070  143.2910 C   0  0  0  0  0  0  0  0  0  0  0  0
  182.4180  180.3200  138.1990 C   0  0  0  0  0  0  0  0  0  0  0  0
  181.1680  178.3020  138.7450 N   0  0  0  0  0  0  0  0  0  0  0  0
  186.0530  178.6420  142.9490 C   0  0  0  0  0  3  0  0  0  0  0  0
  179.0990  178.7550  140.2410 C   0  0  0  0  0  2  0  0  0  0  0  0
  184.6640  178.5960  138.9540 O   0  0  0  0  0  0  0  0  0  0  0  0
  182.8890  178.7240  143.3180 C   0  0  0  0  0  0  0  0  0  0  0  0
  185.3310  178.8260  144.0580 C   0  0  0  0  0  3  0  0  0  0  0  0
  184.2420  179.1290  141.2590 C   0  0  2  0  0  3  0  0  0  0  0  0
  181.7750  178.2010  141.1000 C   0  0  1  0  0  3  0  0  0  0  0  0
  179.6860  177.5670  144.0410 O   0  0  0  0  0  0  0  0  0  0  0  0
  180.6530  177.4960  141.8820 C   0  0  2  0  0  3  0  0  0  0  0  0
  179.0800  178.9320  137.8800 O   0  0  0  0  0  0  0  0  0  0  0  0
  183.8640  178.9160  144.2130 C   0  0  0  0  0  3  0  0  0  0  0  0
  183.1180  178.2700  141.8840 C   0  0  2  0  0  3  0  0  0  0  0  0
  179.7670  178.6400  138.8940 C   0  0  0  0  0  0  0  0  0  0  0  0
  181.4470  178.8970  136.3190 C   0  0  0  0  0  2  0  0  0  0  0  0
  181.7970  177.5850  135.6370 C   0  0  0  0  0  2  0  0  0  0  0  0
  183.1570  177.0860  136.0900 C   0  0  0  0  0  1  0  0  0  0  0  0
  178.9420  176.2270  140.4820 C   0  0  0  0  0  2  0  0  0  0  0  0
  179.3950  173.7740  140.4020 C   0  0  0  0  0  1  0  0  0  0  0  0
  179.5350  175.0410  141.2270 C   0  0  0  0  0  2  0  0  0  0  0  0
  1 17  1  0  0  0  0
  2 12  1  0  0  0  0
  5  1  1  0  0  0  0
  6 25  1  6  0  0  0
  6 10  1  0  0  0  0
  6 11  1  0  0  0  0
  7 10  2  0  0  0  0
  8 28  1  6  0  0  0
  8 20  1  0  0  0  0
  9  3  1  0  0  0  0
  9 19  2  0  0  0  0
 10  5  1  0  0  0  0
 11 24  1  0  0  0  0
 11  4  1  0  0  0  0
 12 16  2  0  0  0  0
 13  8  1  0  0  0  0
 14  1  2  0  0  0  0
 15  3  1  0  0  0  0
 15 22  2  0  0  0  0
 16 22  1  0  0  0  0
 17  2  1  6  0  0  0
 17 23  1  0  0  0  0
 18  4  1  6  0  0  0
 18 20  1  0  0  0  0
 18 23  1  0  0  0  0
 20  9  1  1  0  0  0
 21 24  2  0  0  0  0
 23 15  1  1  0  0  0
 24 13  1  0  0  0  0
 26 27  1  0  0  0  0
 26 25  1  0  0  0  0
 28 30  1  0  0  0  0
 29 30  1  0  0  0  0
M  END
>  <MODEL>
9

>  <REMARK>
 VINA RESULT:      -5.9      3.262      6.507
  Name = 
  4 active torsions:
  status: ('A' for Active; 'I' for Inactive)
    1  A    between atoms: C_6  and  C_8
    2  A    between atoms: C_6  and  C_17
    3  A    between atoms: C_7  and  C_10
    4  A    between atoms: C_7  and  C_26
                            x       y       z     vdW  Elec       q    Type
                         _______ _______ _______ _____ _____    ______ ____

>  <TORSDO>
F 4

$$$$
