=
 OpenBabel11052413383D

 28 30  0  0  1  0  0  0  0  0999 V2000
  187.7490  179.1590  137.4590 C   0  0  0  0  0  1  0  0  0  0  0  0
  190.4800  176.8320  138.7010 N   0  0  0  0  0  0  0  0  0  0  0  0
  189.7510  177.1790  136.3470 C   0  0  0  0  0  1  0  0  0  0  0  0
  188.3170  178.3920  139.7510 C   0  0  2  0  0  3  0  0  0  0  0  0
  190.4420  177.1600  140.1220 C   0  0  0  0  0  2  0  0  0  0  0  0
  187.0030  178.6060  140.1820 O   0  0  0  0  0  1  0  0  0  0  0  0
  188.3270  178.0060  138.2630 C   0  0  1  0  0  0  0  0  0  0  0  0
  187.5300  176.8740  138.0710 O   0  0  0  0  0  1  0  0  0  0  0  0
  189.7660  177.7290  137.7750 C   0  0  1  0  0  3  0  0  0  0  0  0
  189.0040  177.3190  140.6110 C   0  0  1  0  0  3  0  0  0  0  0  0
  188.9330  177.6710  142.1130 C   0  0  2  0  0  3  0  0  0  0  0  0
  190.3270  177.8060  142.7940 C   0  0  2  0  0  3  0  0  0  0  0  0
  189.6290  176.8370  145.1090 C   0  0  0  0  0  2  0  0  0  0  0  0
  188.6330  177.8070  144.9200 O   0  0  0  0  0  0  0  0  0  0  0  0
  187.5760  177.1830  144.2330 C   0  0  0  0  0  2  0  0  0  0  0  0
  190.8820  175.4300  143.4470 C   0  0  0  0  0  1  0  0  0  0  0  0
  187.9720  176.7090  142.8250 C   0  0  0  0  0  2  0  0  0  0  0  0
  190.6470  176.8400  143.9540 C   0  0  1  0  0  3  0  0  0  0  0  0
  190.5250  179.1260  143.2090 O   0  0  0  0  0  0  0  0  0  0  0  0
  191.7240  179.1100  143.9200 C   0  0  0  0  0  1  0  0  0  0  0  0
  192.8670  176.5640  138.3530 N   0  0  0  0  0  0  0  0  0  0  0  0
  191.4250  174.7380  137.8020 C   0  0  0  0  0  0  0  0  0  0  0  0
  193.8170  174.5330  137.5360 C   0  0  0  0  0  0  0  0  0  0  0  0
  191.6060  176.0490  138.2720 C   0  0  0  0  0  0  0  0  0  0  0  0
  192.5390  173.9820  137.4350 C   0  0  0  0  0  3  0  0  0  0  0  0
  190.1530  174.1900  137.6870 O   0  0  0  0  0  1  0  0  0  0  0  0
  194.9310  173.7860  137.1770 O   0  0  0  0  0  1  0  0  0  0  0  0
  193.9630  175.8420  137.9950 C   0  0  0  0  0  3  0  0  0  0  0  0
  2  5  1  0  0  0  0
  4  6  1  1  0  0  0
  4 10  1  0  0  0  0
  7  1  1  6  0  0  0
  7  4  1  0  0  0  0
  8  7  1  0  0  0  0
  9  3  1  6  0  0  0
  9  7  1  0  0  0  0
  9  2  1  0  0  0  0
 10  5  1  6  0  0  0
 10 11  1  0  0  0  0
 11 12  1  0  0  0  0
 11 17  1  1  0  0  0
 12 19  1  1  0  0  0
 12 18  1  0  0  0  0
 14 13  1  0  0  0  0
 15 14  1  0  0  0  0
 17 15  1  0  0  0  0
 18 16  1  6  0  0  0
 18 13  1  0  0  0  0
 19 20  1  0  0  0  0
 22 24  2  0  0  0  0
 23 28  1  0  0  0  0
 24 21  1  0  0  0  0
 24  2  1  0  0  0  0
 25 23  2  0  0  0  0
 25 22  1  0  0  0  0
 26 22  1  0  0  0  0
 27 23  1  0  0  0  0
 28 21  2  0  0  0  0
M  END
>  <MODEL>
1

>  <REMARK>
 VINA RESULT:      -7.4      0.000      0.000
  Name = 
  3 active torsions:
  status: ('A' for Active; 'I' for Inactive)
    1  A    between atoms: C_1  and  C_27
    2  A    between atoms: O_2  and  C_3
    3  A    between atoms: N_10  and  C_13
                            x       y       z     vdW  Elec       q    Type
                         _______ _______ _______ _____ _____    ______ ____

>  <TORSDO>
F 3

$$$$
=
 OpenBabel11052413383D

 28 30  0  0  1  0  0  0  0  0999 V2000
  185.6810  179.6100  146.9730 C   0  0  0  0  0  1  0  0  0  0  0  0
  185.5350  178.3670  143.3880 N   0  0  0  0  0  0  0  0  0  0  0  0
  183.7480  179.5610  144.6430 C   0  0  0  0  0  1  0  0  0  0  0  0
  187.1730  178.0700  145.7200 C   0  0  2  0  0  3  0  0  0  0  0  0
  186.8920  177.8460  143.2630 C   0  0  0  0  0  2  0  0  0  0  0  0
  187.5860  177.4550  146.9070 O   0  0  0  0  0  1  0  0  0  0  0  0
  185.7270  178.5720  145.8630 C   0  0  1  0  0  0  0  0  0  0  0  0
  184.8950  177.5030  146.2070 O   0  0  0  0  0  1  0  0  0  0  0  0
  185.2380  179.2230  144.5500 C   0  0  1  0  0  3  0  0  0  0  0  0
  187.3160  177.1070  144.5310 C   0  0  1  0  0  3  0  0  0  0  0  0
  188.7510  176.5480  144.4290 C   0  0  2  0  0  3  0  0  0  0  0  0
  189.7740  177.2690  145.3550 C   0  0  2  0  0  3  0  0  0  0  0  0
  191.8140  177.1050  143.7430 C   0  0  0  0  0  2  0  0  0  0  0  0
  191.3840  175.7690  143.7600 O   0  0  0  0  0  0  0  0  0  0  0  0
  190.4370  175.6280  142.7300 C   0  0  0  0  0  2  0  0  0  0  0  0
  190.5180  179.2440  143.9680 C   0  0  0  0  0  1  0  0  0  0  0  0
  189.1750  176.4770  142.9550 C   0  0  0  0  0  2  0  0  0  0  0  0
  190.9650  177.9830  144.6800 C   0  0  1  0  0  3  0  0  0  0  0  0
  190.2440  176.3780  146.3250 O   0  0  0  0  0  0  0  0  0  0  0  0
  190.9220  177.1700  147.2510 C   0  0  0  0  0  1  0  0  0  0  0  0
  183.4820  178.1140  142.1190 N   0  0  0  0  0  0  0  0  0  0  0  0
  185.4030  179.0040  141.0080 C   0  0  0  0  0  0  0  0  0  0  0  0
  183.3070  178.7710  139.8310 C   0  0  0  0  0  0  0  0  0  0  0  0
  184.7950  178.4810  142.1610 C   0  0  0  0  0  0  0  0  0  0  0  0
  184.6500  179.1480  139.8420 C   0  0  0  0  0  3  0  0  0  0  0  0
  186.7440  179.3680  141.0110 O   0  0  0  0  0  1  0  0  0  0  0  0
  182.5490  178.9150  138.6760 O   0  0  0  0  0  1  0  0  0  0  0  0
  182.7350  178.2440  140.9890 C   0  0  0  0  0  3  0  0  0  0  0  0
  2  9  1  0  0  0  0
  4  7  1  0  0  0  0
  4  6  1  1  0  0  0
  5  2  1  0  0  0  0
  7  8  1  0  0  0  0
  7  1  1  1  0  0  0
  9  3  1  1  0  0  0
  9  7  1  0  0  0  0
 10  5  1  6  0  0  0
 10  4  1  0  0  0  0
 11 17  1  6  0  0  0
 11 10  1  0  0  0  0
 11 12  1  0  0  0  0
 12 19  1  1  0  0  0
 13 14  1  0  0  0  0
 13 18  1  0  0  0  0
 15 17  1  0  0  0  0
 15 14  1  0  0  0  0
 18 16  1  6  0  0  0
 18 12  1  0  0  0  0
 19 20  1  0  0  0  0
 21 24  1  0  0  0  0
 22 26  1  0  0  0  0
 22 24  2  0  0  0  0
 23 25  2  0  0  0  0
 23 28  1  0  0  0  0
 24  2  1  0  0  0  0
 25 22  1  0  0  0  0
 27 23  1  0  0  0  0
 28 21  2  0  0  0  0
M  END
>  <MODEL>
2

>  <REMARK>
 VINA RESULT:      -6.8      4.486      7.371
  Name = 
  3 active torsions:
  status: ('A' for Active; 'I' for Inactive)
    1  A    between atoms: C_1  and  C_27
    2  A    between atoms: O_2  and  C_3
    3  A    between atoms: N_10  and  C_13
                            x       y       z     vdW  Elec       q    Type
                         _______ _______ _______ _____ _____    ______ ____

>  <TORSDO>
F 3

$$$$
=
 OpenBabel11052413383D

 28 30  0  0  1  0  0  0  0  0999 V2000
  184.2390  178.2760  141.9430 C   0  0  0  0  0  1  0  0  0  0  0  0
  188.0030  177.8870  142.2520 N   0  0  0  0  0  0  0  0  0  0  0  0
  186.3770  178.3230  144.0850 C   0  0  0  0  0  1  0  0  0  0  0  0
  186.0210  178.2530  140.2140 C   0  0  2  0  0  3  0  0  0  0  0  0
  188.3240  177.5860  140.8610 C   0  0  0  0  0  2  0  0  0  0  0  0
  185.2270  179.0050  139.3410 O   0  0  0  0  0  1  0  0  0  0  0  0
  185.6940  178.6190  141.6710 C   0  0  1  0  0  0  0  0  0  0  0  0
  185.8780  179.9920  141.8580 O   0  0  0  0  0  1  0  0  0  0  0  0
  186.5860  177.8270  142.6520 C   0  0  1  0  0  3  0  0  0  0  0  0
  187.5130  178.4610  139.9070 C   0  0  1  0  0  3  0  0  0  0  0  0
  187.8300  178.1600  138.4260 C   0  0  2  0  0  3  0  0  0  0  0  0
  187.9160  176.6400  138.0980 C   0  0  2  0  0  3  0  0  0  0  0  0
  189.8060  176.8200  136.3150 C   0  0  0  0  0  2  0  0  0  0  0  0
  188.9050  177.7850  135.8400 O   0  0  0  0  0  0  0  0  0  0  0  0
  189.2400  179.0030  136.4590 C   0  0  0  0  0  2  0  0  0  0  0  0
  190.3100  176.0630  138.6560 C   0  0  0  0  0  1  0  0  0  0  0  0
  189.0550  178.9720  137.9840 C   0  0  0  0  0  2  0  0  0  0  0  0
  189.2600  176.1040  137.5630 C   0  0  1  0  0  3  0  0  0  0  0  0
  186.8830  176.2860  137.2230 O   0  0  0  0  0  0  0  0  0  0  0  0
  186.8700  174.8930  137.2180 C   0  0  0  0  0  1  0  0  0  0  0  0
  189.7940  178.7230  143.6600 N   0  0  0  0  0  0  0  0  0  0  0  0
  189.3290  176.3780  143.6830 C   0  0  0  0  0  0  0  0  0  0  0  0
  191.0590  177.2970  145.0970 C   0  0  0  0  0  0  0  0  0  0  0  0
  189.0620  177.6680  143.1980 C   0  0  0  0  0  0  0  0  0  0  0  0
  190.3320  176.1980  144.6370 C   0  0  0  0  0  3  0  0  0  0  0  0
  188.6160  175.2790  143.2180 O   0  0  0  0  0  1  0  0  0  0  0  0
  192.0560  177.1280  146.0480 O   0  0  0  0  0  1  0  0  0  0  0  0
  190.7780  178.5650  144.5860 C   0  0  0  0  0  3  0  0  0  0  0  0
  2  9  1  0  0  0  0
  2 24  1  0  0  0  0
  4  6  1  6  0  0  0
  4  7  1  0  0  0  0
  5  2  1  0  0  0  0
  7  8  1  0  0  0  0
  7  1  1  1  0  0  0
  7  9  1  0  0  0  0
  9  3  1  1  0  0  0
 10  4  1  0  0  0  0
 10  5  1  1  0  0  0
 11 17  1  1  0  0  0
 11 10  1  0  0  0  0
 12 19  1  6  0  0  0
 12 11  1  0  0  0  0
 13 18  1  0  0  0  0
 14 13  1  0  0  0  0
 14 15  1  0  0  0  0
 15 17  1  0  0  0  0
 18 12  1  0  0  0  0
 18 16  1  1  0  0  0
 20 19  1  0  0  0  0
 21 28  1  0  0  0  0
 22 25  2  0  0  0  0
 23 27  1  0  0  0  0
 24 21  2  0  0  0  0
 24 22  1  0  0  0  0
 25 23  1  0  0  0  0
 26 22  1  0  0  0  0
 28 23  2  0  0  0  0
M  END
>  <MODEL>
3

>  <REMARK>
 VINA RESULT:      -6.5      2.855      6.490
  Name = 
  3 active torsions:
  status: ('A' for Active; 'I' for Inactive)
    1  A    between atoms: C_1  and  C_27
    2  A    between atoms: O_2  and  C_3
    3  A    between atoms: N_10  and  C_13
                            x       y       z     vdW  Elec       q    Type
                         _______ _______ _______ _____ _____    ______ ____

>  <TORSDO>
F 3

$$$$
=
 OpenBabel11052413383D

 28 30  0  0  1  0  0  0  0  0999 V2000
  191.6700  177.7510  141.6450 C   0  0  0  0  0  1  0  0  0  0  0  0
  187.8820  177.9730  141.7860 N   0  0  0  0  0  0  0  0  0  0  0  0
  189.4580  177.8590  143.7090 C   0  0  0  0  0  1  0  0  0  0  0  0
  189.9540  177.4600  139.8730 C   0  0  2  0  0  3  0  0  0  0  0  0
  187.5980  178.0790  140.3590 C   0  0  0  0  0  2  0  0  0  0  0  0
  190.8160  176.6480  139.1280 O   0  0  0  0  0  1  0  0  0  0  0  0
  190.2440  177.2980  141.3740 C   0  0  1  0  0  0  0  0  0  0  0  0
  190.1210  175.9520  141.7290 O   0  0  0  0  0  1  0  0  0  0  0  0
  189.2780  178.1580  142.2190 C   0  0  1  0  0  3  0  0  0  0  0  0
  188.4860  177.1360  139.5500 C   0  0  1  0  0  3  0  0  0  0  0  0
  188.2110  177.2310  138.0330 C   0  0  2  0  0  3  0  0  0  0  0  0
  187.1370  178.2930  137.6550 C   0  0  2  0  0  3  0  0  0  0  0  0
  186.0970  176.9770  135.6620 C   0  0  0  0  0  2  0  0  0  0  0  0
  187.4590  176.9290  135.3260 O   0  0  0  0  0  0  0  0  0  0  0  0
  187.9920  175.7770  135.9330 C   0  0  0  0  0  2  0  0  0  0  0  0
  184.9640  177.0310  137.9020 C   0  0  0  0  0  1  0  0  0  0  0  0
  187.9400  175.8300  137.4690 C   0  0  0  0  0  2  0  0  0  0  0  0
  185.8610  177.7920  136.9460 C   0  0  1  0  0  3  0  0  0  0  0  0
  187.7260  179.3140  136.9030 O   0  0  0  0  0  0  0  0  0  0  0  0
  189.0920  179.2210  137.1660 C   0  0  0  0  0  1  0  0  0  0  0  0
  186.7660  177.7410  143.9280 N   0  0  0  0  0  0  0  0  0  0  0  0
  185.7250  179.0800  142.2430 C   0  0  0  0  0  0  0  0  0  0  0  0
  184.7070  178.8420  144.4210 C   0  0  0  0  0  0  0  0  0  0  0  0
  186.7790  178.2520  142.6640 C   0  0  0  0  0  0  0  0  0  0  0  0
  184.6890  179.3740  143.1300 C   0  0  0  0  0  3  0  0  0  0  0  0
  185.6960  179.6000  140.9550 O   0  0  0  0  0  1  0  0  0  0  0  0
  183.6820  179.1330  145.3110 O   0  0  0  0  0  1  0  0  0  0  0  0
  185.7610  178.0140  144.8040 C   0  0  0  0  0  3  0  0  0  0  0  0
  2  9  1  0  0  0  0
  2 24  1  0  0  0  0
  4  6  1  6  0  0  0
  4  7  1  0  0  0  0
  5  2  1  0  0  0  0
  7  1  1  1  0  0  0
  7  8  1  0  0  0  0
  7  9  1  0  0  0  0
  9  3  1  1  0  0  0
 10  4  1  0  0  0  0
 10  5  1  1  0  0  0
 11 17  1  1  0  0  0
 11 10  1  0  0  0  0
 12 19  1  6  0  0  0
 12 11  1  0  0  0  0
 13 18  1  0  0  0  0
 14 13  1  0  0  0  0
 14 15  1  0  0  0  0
 15 17  1  0  0  0  0
 18 12  1  0  0  0  0
 18 16  1  1  0  0  0
 19 20  1  0  0  0  0
 21 28  1  0  0  0  0
 22 24  1  0  0  0  0
 22 25  2  0  0  0  0
 23 28  2  0  0  0  0
 23 27  1  0  0  0  0
 24 21  2  0  0  0  0
 25 23  1  0  0  0  0
 26 22  1  0  0  0  0
M  END
>  <MODEL>
4

>  <REMARK>
 VINA RESULT:      -6.4      3.116      7.670
  Name = 
  3 active torsions:
  status: ('A' for Active; 'I' for Inactive)
    1  A    between atoms: C_1  and  C_27
    2  A    between atoms: O_2  and  C_3
    3  A    between atoms: N_10  and  C_13
                            x       y       z     vdW  Elec       q    Type
                         _______ _______ _______ _____ _____    ______ ____

>  <TORSDO>
F 3

$$$$
=
 OpenBabel11052413383D

 28 30  0  0  1  0  0  0  0  0999 V2000
  185.6750  179.3190  147.0120 C   0  0  0  0  0  1  0  0  0  0  0  0
  185.4640  178.3080  143.3580 N   0  0  0  0  0  0  0  0  0  0  0  0
  183.6080  179.1130  144.8090 C   0  0  0  0  0  1  0  0  0  0  0  0
  187.2950  178.1270  145.5550 C   0  0  2  0  0  3  0  0  0  0  0  0
  186.8720  178.0230  143.1100 C   0  0  0  0  0  2  0  0  0  0  0  0
  187.8850  177.5090  146.6640 O   0  0  0  0  0  1  0  0  0  0  0  0
  185.8020  178.3780  145.8250 C   0  0  1  0  0  0  0  0  0  0  0  0
  185.1760  177.1680  146.1360 O   0  0  0  0  0  1  0  0  0  0  0  0
  185.1220  179.0260  144.5990 C   0  0  1  0  0  3  0  0  0  0  0  0
  187.4990  177.2800  144.2890 C   0  0  1  0  0  3  0  0  0  0  0  0
  188.9930  176.9680  144.0550 C   0  0  2  0  0  3  0  0  0  0  0  0
  189.8110  178.1780  143.5140 C   0  0  2  0  0  3  0  0  0  0  0  0
  191.4180  176.8040  141.9940 C   0  0  0  0  0  2  0  0  0  0  0  0
  191.5480  176.1110  143.2070 O   0  0  0  0  0  0  0  0  0  0  0  0
  190.5560  175.1150  143.2220 C   0  0  0  0  0  2  0  0  0  0  0  0
  189.4620  178.0410  141.0170 C   0  0  0  0  0  1  0  0  0  0  0  0
  189.1300  175.6890  143.2180 C   0  0  0  0  0  2  0  0  0  0  0  0
  190.4850  178.0200  142.1360 C   0  0  1  0  0  3  0  0  0  0  0  0
  190.7600  178.5700  144.4640 O   0  0  0  0  0  0  0  0  0  0  0  0
  191.3050  179.7530  143.9690 C   0  0  0  0  0  1  0  0  0  0  0  0
  183.3600  177.8780  142.2270 N   0  0  0  0  0  0  0  0  0  0  0  0
  185.0910  179.0040  141.0210 C   0  0  0  0  0  0  0  0  0  0  0  0
  182.9490  178.5860  139.9850 C   0  0  0  0  0  0  0  0  0  0  0  0
  184.6270  178.3820  142.1920 C   0  0  0  0  0  0  0  0  0  0  0  0
  184.2420  179.1050  139.9170 C   0  0  0  0  0  3  0  0  0  0  0  0
  186.3830  179.5100  140.9440 O   0  0  0  0  0  1  0  0  0  0  0  0
  182.0970  178.6850  138.8930 O   0  0  0  0  0  1  0  0  0  0  0  0
  182.5220  177.9630  141.1580 C   0  0  0  0  0  3  0  0  0  0  0  0
  2  9  1  0  0  0  0
  4  7  1  0  0  0  0
  4  6  1  1  0  0  0
  5  2  1  0  0  0  0
  7  8  1  0  0  0  0
  7  1  1  1  0  0  0
  9  3  1  1  0  0  0
  9  7  1  0  0  0  0
 10  5  1  6  0  0  0
 10  4  1  0  0  0  0
 11 17  1  6  0  0  0
 11 10  1  0  0  0  0
 12 11  1  0  0  0  0
 12 19  1  1  0  0  0
 13 18  1  0  0  0  0
 13 14  1  0  0  0  0
 14 15  1  0  0  0  0
 17 15  1  0  0  0  0
 18 16  1  6  0  0  0
 18 12  1  0  0  0  0
 20 19  1  0  0  0  0
 22 24  2  0  0  0  0
 23 28  1  0  0  0  0
 24 21  1  0  0  0  0
 24  2  1  0  0  0  0
 25 23  2  0  0  0  0
 25 22  1  0  0  0  0
 26 22  1  0  0  0  0
 27 23  1  0  0  0  0
 28 21  2  0  0  0  0
M  END
>  <MODEL>
5

>  <REMARK>
 VINA RESULT:      -6.2      3.968      7.385
  Name = 
  3 active torsions:
  status: ('A' for Active; 'I' for Inactive)
    1  A    between atoms: C_1  and  C_27
    2  A    between atoms: O_2  and  C_3
    3  A    between atoms: N_10  and  C_13
                            x       y       z     vdW  Elec       q    Type
                         _______ _______ _______ _____ _____    ______ ____

>  <TORSDO>
F 3

$$$$
=
 OpenBabel11052413383D

 28 30  0  0  1  0  0  0  0  0999 V2000
  191.8990  177.1820  142.3400 C   0  0  0  0  0  1  0  0  0  0  0  0
  188.2370  177.8590  143.0820 N   0  0  0  0  0  0  0  0  0  0  0  0
  189.9320  176.8850  144.6220 C   0  0  0  0  0  1  0  0  0  0  0  0
  190.0090  177.7480  140.8320 C   0  0  2  0  0  3  0  0  0  0  0  0
  187.8510  178.4820  141.8200 C   0  0  0  0  0  2  0  0  0  0  0  0
  190.6450  177.1280  139.7510 O   0  0  0  0  0  1  0  0  0  0  0  0
  190.3970  177.0480  142.1440 C   0  0  1  0  0  0  0  0  0  0  0  0
  190.0700  175.6910  142.0620 O   0  0  0  0  0  1  0  0  0  0  0  0
  189.6770  177.6940  143.3480 C   0  0  1  0  0  3  0  0  0  0  0  0
  188.4840  177.7570  140.6340 C   0  0  1  0  0  3  0  0  0  0  0  0
  188.0970  178.3980  139.2830 C   0  0  2  0  0  3  0  0  0  0  0  0
  186.7690  177.8470  138.6840 C   0  0  2  0  0  3  0  0  0  0  0  0
  187.4860  177.9800  136.1830 C   0  0  0  0  0  2  0  0  0  0  0  0
  187.7970  179.2790  136.6150 O   0  0  0  0  0  0  0  0  0  0  0  0
  189.1190  179.2490  137.0920 C   0  0  0  0  0  2  0  0  0  0  0  0
  187.5160  175.7930  137.4180 C   0  0  0  0  0  1  0  0  0  0  0  0
  189.2930  178.3450  138.3230 C   0  0  0  0  0  2  0  0  0  0  0  0
  186.8460  177.1490  137.3100 C   0  0  1  0  0  3  0  0  0  0  0  0
  185.8090  178.8630  138.6460 O   0  0  0  0  0  0  0  0  0  0  0  0
  184.5850  178.2050  138.5480 C   0  0  0  0  0  1  0  0  0  0  0  0
  187.7100  178.0270  145.4450 N   0  0  0  0  0  0  0  0  0  0  0  0
  185.9090  178.0620  143.8720 C   0  0  0  0  0  0  0  0  0  0  0  0
  185.4730  178.2790  146.2380 C   0  0  0  0  0  0  0  0  0  0  0  0
  187.2830  177.9710  144.1500 C   0  0  0  0  0  0  0  0  0  0  0  0
  185.0060  178.2180  144.9250 C   0  0  0  0  0  3  0  0  0  0  0  0
  185.4380  177.9890  142.5670 O   0  0  0  0  0  1  0  0  0  0  0  0
  184.5820  178.4380  147.2910 O   0  0  0  0  0  1  0  0  0  0  0  0
  186.8420  178.1730  146.4830 C   0  0  0  0  0  3  0  0  0  0  0  0
  2  9  1  0  0  0  0
  2 24  1  0  0  0  0
  4  6  1  6  0  0  0
  4  7  1  0  0  0  0
  5  2  1  0  0  0  0
  7  1  1  1  0  0  0
  7  9  1  0  0  0  0
  8  7  1  0  0  0  0
  9  3  1  1  0  0  0
 10  4  1  0  0  0  0
 10  5  1  1  0  0  0
 11 17  1  6  0  0  0
 11 10  1  0  0  0  0
 12 19  1  6  0  0  0
 12 11  1  0  0  0  0
 13 14  1  0  0  0  0
 13 18  1  0  0  0  0
 14 15  1  0  0  0  0
 15 17  1  0  0  0  0
 18 16  1  1  0  0  0
 18 12  1  0  0  0  0
 20 19  1  0  0  0  0
 21 28  1  0  0  0  0
 22 24  1  0  0  0  0
 22 25  2  0  0  0  0
 23 28  2  0  0  0  0
 23 27  1  0  0  0  0
 24 21  2  0  0  0  0
 25 23  1  0  0  0  0
 26 22  1  0  0  0  0
M  END
>  <MODEL>
6

>  <REMARK>
 VINA RESULT:      -6.1      3.293      7.743
  Name = 
  3 active torsions:
  status: ('A' for Active; 'I' for Inactive)
    1  A    between atoms: C_1  and  C_27
    2  A    between atoms: O_2  and  C_3
    3  A    between atoms: N_10  and  C_13
                            x       y       z     vdW  Elec       q    Type
                         _______ _______ _______ _____ _____    ______ ____

>  <TORSDO>
F 3

$$$$
=
 OpenBabel11052413383D

 28 30  0  0  1  0  0  0  0  0999 V2000
  184.9300  179.7000  143.4570 C   0  0  0  0  0  1  0  0  0  0  0  0
  187.1100  178.2100  140.7290 N   0  0  0  0  0  0  0  0  0  0  0  0
  184.9300  179.3780  140.4470 C   0  0  0  0  0  1  0  0  0  0  0  0
  186.8830  178.1710  143.5850 C   0  0  2  0  0  3  0  0  0  0  0  0
  188.2350  177.7630  141.5430 C   0  0  0  0  0  2  0  0  0  0  0  0
  186.4440  177.6640  144.8140 O   0  0  0  0  0  1  0  0  0  0  0  0
  185.6770  178.5940  142.7300 C   0  0  1  0  0  0  0  0  0  0  0  0
  184.8200  177.5030  142.5610 O   0  0  0  0  0  1  0  0  0  0  0  0
  186.1370  179.1230  141.3530 C   0  0  1  0  0  3  0  0  0  0  0  0
  187.7540  177.1390  142.8510 C   0  0  1  0  0  3  0  0  0  0  0  0
  188.9250  176.6610  143.7360 C   0  0  2  0  0  3  0  0  0  0  0  0
  189.2200  177.5950  144.9470 C   0  0  2  0  0  3  0  0  0  0  0  0
  191.8060  177.2790  144.9520 C   0  0  0  0  0  2  0  0  0  0  0  0
  191.3780  175.9430  144.9410 O   0  0  0  0  0  0  0  0  0  0  0  0
  191.2390  175.5660  143.5940 C   0  0  0  0  0  2  0  0  0  0  0  0
  190.7610  179.3400  143.9690 C   0  0  0  0  0  1  0  0  0  0  0  0
  190.1480  176.3610  142.8580 C   0  0  0  0  0  2  0  0  0  0  0  0
  190.6150  178.2520  145.0140 C   0  0  1  0  0  3  0  0  0  0  0  0
  188.9580  176.9170  146.1420 O   0  0  0  0  0  0  0  0  0  0  0  0
  189.0560  177.8850  147.1400 C   0  0  0  0  0  1  0  0  0  0  0  0
  186.2570  178.1620  138.4570 N   0  0  0  0  0  0  0  0  0  0  0  0
  188.6240  178.2530  138.7820 C   0  0  0  0  0  0  0  0  0  0  0  0
  187.6930  178.2570  136.5530 C   0  0  0  0  0  0  0  0  0  0  0  0
  187.3230  178.1960  139.3080 C   0  0  0  0  0  0  0  0  0  0  0  0
  188.8030  178.2850  137.3980 C   0  0  0  0  0  3  0  0  0  0  0  0
  189.7330  178.2670  139.6200 O   0  0  0  0  0  1  0  0  0  0  0  0
  187.8620  178.2930  135.1750 O   0  0  0  0  0  1  0  0  0  0  0  0
  186.4150  178.1880  137.1050 C   0  0  0  0  0  3  0  0  0  0  0  0
  2  9  1  0  0  0  0
  2  5  1  0  0  0  0
  4  6  1  1  0  0  0
  7  1  1  1  0  0  0
  7  4  1  0  0  0  0
  8  7  1  0  0  0  0
  9  3  1  6  0  0  0
  9  7  1  0  0  0  0
 10  5  1  6  0  0  0
 10  4  1  0  0  0  0
 10 11  1  0  0  0  0
 11 17  1  6  0  0  0
 11 12  1  0  0  0  0
 12 18  1  0  0  0  0
 12 19  1  1  0  0  0
 13 18  1  0  0  0  0
 14 13  1  0  0  0  0
 15 14  1  0  0  0  0
 17 15  1  0  0  0  0
 18 16  1  6  0  0  0
 19 20  1  0  0  0  0
 21 24  1  0  0  0  0
 22 24  2  0  0  0  0
 22 26  1  0  0  0  0
 23 28  1  0  0  0  0
 23 25  2  0  0  0  0
 24  2  1  0  0  0  0
 25 22  1  0  0  0  0
 27 23  1  0  0  0  0
 28 21  2  0  0  0  0
M  END
>  <MODEL>
7

>  <REMARK>
 VINA RESULT:      -6.0      3.423      4.920
  Name = 
  3 active torsions:
  status: ('A' for Active; 'I' for Inactive)
    1  A    between atoms: C_1  and  C_27
    2  A    between atoms: O_2  and  C_3
    3  A    between atoms: N_10  and  C_13
                            x       y       z     vdW  Elec       q    Type
                         _______ _______ _______ _____ _____    ______ ____

>  <TORSDO>
F 3

$$$$
=
 OpenBabel11052413383D

 28 30  0  0  1  0  0  0  0  0999 V2000
  187.7440  178.4810  147.3680 C   0  0  0  0  0  1  0  0  0  0  0  0
  185.6700  178.1200  144.2090 N   0  0  0  0  0  0  0  0  0  0  0  0
  184.8520  178.6700  146.4950 C   0  0  0  0  0  1  0  0  0  0  0  0
  188.3200  177.5520  145.1380 C   0  0  2  0  0  3  0  0  0  0  0  0
  186.7410  177.8750  143.2490 C   0  0  0  0  0  2  0  0  0  0  0  0
  189.3210  176.7490  145.6970 O   0  0  0  0  0  1  0  0  0  0  0  0
  187.1840  177.7600  146.1530 C   0  0  1  0  0  0  0  0  0  0  0  0
  186.6850  176.5170  146.5540 O   0  0  0  0  0  1  0  0  0  0  0  0
  186.0500  178.6140  145.5440 C   0  0  1  0  0  3  0  0  0  0  0  0
  187.7960  176.9370  143.8310 C   0  0  1  0  0  3  0  0  0  0  0  0
  188.9460  176.6630  142.8380 C   0  0  2  0  0  3  0  0  0  0  0  0
  190.3490  176.5830  143.5080 C   0  0  2  0  0  3  0  0  0  0  0  0
  191.6840  177.6630  141.5490 C   0  0  0  0  0  2  0  0  0  0  0  0
  190.9660  176.6710  140.8620 O   0  0  0  0  0  0  0  0  0  0  0  0
  189.7420  177.2440  140.4720 C   0  0  0  0  0  2  0  0  0  0  0  0
  191.0880  178.9960  143.5920 C   0  0  0  0  0  1  0  0  0  0  0  0
  188.8620  177.6490  141.6640 C   0  0  0  0  0  2  0  0  0  0  0  0
  191.4090  177.6120  143.0620 C   0  0  1  0  0  3  0  0  0  0  0  0
  190.8620  175.2880  143.3770 O   0  0  0  0  0  0  0  0  0  0  0  0
  191.9800  175.2520  144.2090 C   0  0  0  0  0  1  0  0  0  0  0  0
  183.3090  178.6270  144.4610 N   0  0  0  0  0  0  0  0  0  0  0  0
  184.2100  178.4760  142.2520 C   0  0  0  0  0  0  0  0  0  0  0  0
  181.8830  179.0300  142.5900 C   0  0  0  0  0  0  0  0  0  0  0  0
  184.3780  178.3990  143.6440 C   0  0  0  0  0  0  0  0  0  0  0  0
  182.9560  178.7950  141.7290 C   0  0  0  0  0  3  0  0  0  0  0  0
  185.2720  178.2300  141.3900 O   0  0  0  0  0  1  0  0  0  0  0  0
  180.6330  179.3520  142.0790 O   0  0  0  0  0  1  0  0  0  0  0  0
  182.0790  178.9340  143.9680 C   0  0  0  0  0  3  0  0  0  0  0  0
  2  9  1  0  0  0  0
  4  6  1  1  0  0  0
  4  7  1  0  0  0  0
  5  2  1  0  0  0  0
  7  8  1  0  0  0  0
  7  1  1  1  0  0  0
  9  7  1  0  0  0  0
  9  3  1  1  0  0  0
 10  5  1  6  0  0  0
 10  4  1  0  0  0  0
 11 17  1  6  0  0  0
 11 12  1  0  0  0  0
 11 10  1  0  0  0  0
 12 19  1  6  0  0  0
 13 18  1  0  0  0  0
 14 13  1  0  0  0  0
 15 14  1  0  0  0  0
 15 17  1  0  0  0  0
 18 12  1  0  0  0  0
 18 16  1  6  0  0  0
 19 20  1  0  0  0  0
 22 24  1  0  0  0  0
 23 28  2  0  0  0  0
 24  2  1  0  0  0  0
 24 21  2  0  0  0  0
 25 22  2  0  0  0  0
 25 23  1  0  0  0  0
 26 22  1  0  0  0  0
 27 23  1  0  0  0  0
 28 21  1  0  0  0  0
M  END
>  <MODEL>
8

>  <REMARK>
 VINA RESULT:      -5.9      3.820      8.100
  Name = 
  3 active torsions:
  status: ('A' for Active; 'I' for Inactive)
    1  A    between atoms: C_1  and  C_27
    2  A    between atoms: O_2  and  C_3
    3  A    between atoms: N_10  and  C_13
                            x       y       z     vdW  Elec       q    Type
                         _______ _______ _______ _____ _____    ______ ____

>  <TORSDO>
F 3

$$$$
=
 OpenBabel11052413383D

 28 30  0  0  1  0  0  0  0  0999 V2000
  189.8410  177.3710  137.2450 C   0  0  0  0  0  1  0  0  0  0  0  0
  186.6510  178.2450  139.1090 N   0  0  0  0  0  0  0  0  0  0  0  0
  187.0810  178.4730  136.6680 C   0  0  0  0  0  1  0  0  0  0  0  0
  189.3840  177.5960  139.6750 C   0  0  2  0  0  3  0  0  0  0  0  0
  187.0340  177.8130  140.4480 C   0  0  0  0  0  2  0  0  0  0  0  0
  190.7280  177.8890  139.9320 O   0  0  0  0  0  1  0  0  0  0  0  0
  188.9940  178.0990  138.2760 C   0  0  1  0  0  0  0  0  0  0  0  0
  189.2490  179.4700  138.1860 O   0  0  0  0  0  1  0  0  0  0  0  0
  187.5030  177.8180  137.9850 C   0  0  1  0  0  3  0  0  0  0  0  0
  188.4780  178.2020  140.7590 C   0  0  1  0  0  3  0  0  0  0  0  0
  188.9130  177.7520  142.1710 C   0  0  2  0  0  3  0  0  0  0  0  0
  187.9360  176.7400  142.8370 C   0  0  2  0  0  3  0  0  0  0  0  0
  188.2220  177.6010  145.2790 C   0  0  0  0  0  2  0  0  0  0  0  0
  189.5630  177.4290  144.9020 O   0  0  0  0  0  0  0  0  0  0  0  0
  189.9870  178.6390  144.3230 C   0  0  0  0  0  2  0  0  0  0  0  0
  186.2070  178.2300  143.9180 C   0  0  0  0  0  1  0  0  0  0  0  0
  189.2290  178.9840  143.0310 C   0  0  0  0  0  2  0  0  0  0  0  0
  187.2610  177.1670  144.1580 C   0  0  1  0  0  3  0  0  0  0  0  0
  188.5750  175.5080  143.0100 O   0  0  0  0  0  0  0  0  0  0  0  0
  189.8890  175.7170  142.5940 C   0  0  0  0  0  1  0  0  0  0  0  0
  184.7710  179.7720  139.2690 N   0  0  0  0  0  0  0  0  0  0  0  0
  184.3930  177.5950  138.3560 C   0  0  0  0  0  0  0  0  0  0  0  0
  182.5870  179.1920  138.5010 C   0  0  0  0  0  0  0  0  0  0  0  0
  185.2580  178.5450  138.9240 C   0  0  0  0  0  0  0  0  0  0  0  0
  183.0540  177.9260  138.1450 C   0  0  0  0  0  3  0  0  0  0  0  0
  184.8510  176.3280  138.0130 O   0  0  0  0  0  1  0  0  0  0  0  0
  181.2580  179.5320  138.2900 O   0  0  0  0  0  1  0  0  0  0  0  0
  183.4680  180.1100  139.0740 C   0  0  0  0  0  3  0  0  0  0  0  0
  2  5  1  0  0  0  0
  4  6  1  1  0  0  0
  4 10  1  0  0  0  0
  7  1  1  6  0  0  0
  7  4  1  0  0  0  0
  8  7  1  0  0  0  0
  9  3  1  6  0  0  0
  9  7  1  0  0  0  0
  9  2  1  0  0  0  0
 10  5  1  6  0  0  0
 10 11  1  0  0  0  0
 11 12  1  0  0  0  0
 11 17  1  1  0  0  0
 12 19  1  1  0  0  0
 12 18  1  0  0  0  0
 14 13  1  0  0  0  0
 15 14  1  0  0  0  0
 17 15  1  0  0  0  0
 18 16  1  6  0  0  0
 18 13  1  0  0  0  0
 20 19  1  0  0  0  0
 22 24  1  0  0  0  0
 23 28  2  0  0  0  0
 24  2  1  0  0  0  0
 24 21  2  0  0  0  0
 25 22  2  0  0  0  0
 25 23  1  0  0  0  0
 26 22  1  0  0  0  0
 27 23  1  0  0  0  0
 28 21  1  0  0  0  0
M  END
>  <MODEL>
9

>  <REMARK>
 VINA RESULT:      -5.9      3.002      5.971
  Name = 
  3 active torsions:
  status: ('A' for Active; 'I' for Inactive)
    1  A    between atoms: C_1  and  C_27
    2  A    between atoms: O_2  and  C_3
    3  A    between atoms: N_10  and  C_13
                            x       y       z     vdW  Elec       q    Type
                         _______ _______ _______ _____ _____    ______ ____

>  <TORSDO>
F 3

$$$$
