=
 OpenBabel11052415253D

 37 40  0  0  1  0  0  0  0  0999 V2000
  189.6580  177.5910  136.8080 O   0  0  0  0  0  0  0  0  0  0  0  0
  191.9680  175.1640  138.3890 C   0  0  0  0  0  2  0  0  0  0  0  0
  186.4310  175.9150  135.5080 C   0  0  0  0  0  2  0  0  0  0  0  0
  189.6410  176.8610  138.0110 C   0  0  2  0  0  3  0  0  0  0  0  0
  187.5700  176.2350  136.4860 C   0  0  1  0  0  3  0  0  0  0  0  0
  190.7300  177.2720  138.9080 N   0  0  0  0  0  0  0  0  0  0  0  0
  188.6650  177.5850  134.6510 C   0  0  0  0  0  1  0  0  0  0  0  0
  188.4730  175.0180  136.7230 C   0  0  2  0  0  3  0  0  0  0  0  0
  186.5450  173.5020  136.2270 C   0  0  0  0  0  2  0  0  0  0  0  0
  188.3920  177.5200  136.1500 C   0  0  2  0  0  0  0  0  0  0  0  0
  187.6510  173.8370  137.2250 C   0  0  0  0  0  2  0  0  0  0  0  0
  192.0250  176.6890  138.5310 C   0  0  0  0  0  2  0  0  0  0  0  0
  189.5880  175.3430  137.7230 C   0  0  1  0  0  3  0  0  0  0  0  0
  185.6270  174.7050  135.9890 C   0  0  1  0  0  3  0  0  0  0  0  0
  190.9590  174.7680  137.3130 C   0  0  1  0  0  3  0  0  0  0  0  0
  183.6460  174.5010  136.9540 C   0  0  0  0  0  1  0  0  0  0  0  0
  184.9260  175.0200  137.1560 O   0  0  0  0  0  0  0  0  0  0  0  0
  186.8600  178.6980  137.5240 O   0  0  0  0  0  0  0  0  0  0  0  0
  187.5740  178.7170  136.5340 C   0  0  0  0  0  3  0  0  0  0  0  0
  191.4440  175.2020  135.9000 C   0  0  2  0  0  3  0  0  0  0  0  0
  190.4390  173.4160  134.5940 O   0  0  0  0  0  1  0  0  0  0  0  0
  192.6530  173.0410  135.4140 C   0  0  0  0  0  1  0  0  0  0  0  0
  191.6450  174.0520  134.8980 C   0  0  2  0  0  3  0  0  0  0  0  0
  192.5000  176.1480  135.9060 O   0  0  0  0  0  0  0  0  0  0  0  0
  192.9780  176.3190  134.5940 C   0  0  0  0  0  2  0  0  0  0  0  0
  196.7020  175.9190  135.3920 C   0  0  0  0  0  1  0  0  0  0  0  0
  194.4600  176.4970  134.6110 C   0  0  0  0  0  3  0  0  0  0  0  0
  195.2210  175.7320  135.3850 C   0  0  0  0  0  3  0  0  0  0  0  0
  190.3950  176.8650  140.2690 C   0  0  0  0  0  2  0  0  0  0  0  0
  191.6870  177.4330  141.4230 S   0  0  0  0  0  0  0  0  0  0  0  0
  191.0170  176.5580  143.9830 C   0  0  0  0  0  2  0  0  0  0  0  0
  190.5960  177.5460  142.8850 C   0  0  0  0  0  3  0  0  0  0  0  0
  189.1150  177.4560  142.4720 C   0  0  0  0  0  2  0  0  0  0  0  0
  188.0200  177.0760  144.7550 C   0  0  0  0  0  2  0  0  0  0  0  0
  189.2250  177.7780  145.3890 C   0  0  0  0  0  2  0  0  0  0  0  0
  188.2770  176.5210  143.3510 C   0  0  0  0  0  2  0  0  0  0  0  0
  190.5100  176.9390  145.3810 C   0  0  0  0  0  2  0  0  0  0  0  0
  2 12  1  0  0  0  0
  3 14  1  0  0  0  0
  4  1  1  6  0  0  0
  4  6  1  0  0  0  0
  5  3  1  6  0  0  0
  5  8  1  0  0  0  0
  6 29  1  0  0  0  0
  8 11  1  1  0  0  0
  8 13  1  0  0  0  0
  9 11  1  0  0  0  0
 10  7  1  6  0  0  0
 10  5  1  0  0  0  0
 10 19  1  0  0  0  0
 10  1  1  0  0  0  0
 12  6  1  0  0  0  0
 13  4  1  0  0  0  0
 14  9  1  0  0  0  0
 14 17  1  0  0  0  0
 15 13  1  0  0  0  0
 15  2  1  0  0  0  0
 16 17  1  0  0  0  0
 19 18  2  0  0  0  0
 20 24  1  0  0  0  0
 20 15  1  0  0  0  0
 21 23  1  0  0  0  0
 23 22  1  0  0  0  0
 23 20  1  0  0  0  0
 25 27  1  0  0  0  0
 25 24  1  0  0  0  0
 27 28  2  0  0  0  0
 28 26  1  0  0  0  0
 29 30  1  0  0  0  0
 30 32  1  0  0  0  0
 31 37  1  0  0  0  0
 32 31  1  0  0  0  0
 33 32  1  0  0  0  0
 33 36  1  0  0  0  0
 34 35  1  0  0  0  0
 36 34  1  0  0  0  0
 37 35  1  0  0  0  0
M  END
>  <MODEL>
1

>  <REMARK>
 VINA RESULT:      -5.9      0.000      0.000
  Name = 
  10 active torsions:
  status: ('A' for Active; 'I' for Inactive)
    1  A    between atoms: C_1  and  C_23
    2  A    between atoms: C_1  and  O_33
    3  A    between atoms: C_1  and  C_36
    4  A    between atoms: C_6  and  S_31
    5  A    between atoms: N_14  and  C_37
    6  A    between atoms: C_17  and  C_26
    7  A    between atoms: C_17  and  O_33
    8  A    between atoms: C_24  and  C_28
    9  A    between atoms: O_30  and  C_32
   10  A    between atoms: S_31  and  C_37
                            x       y       z     vdW  Elec       q    Type
                         _______ _______ _______ _____ _____    ______ ____

>  <TORSDO>
F 10

$$$$
=
 OpenBabel11052415253D

 37 40  0  0  1  0  0  0  0  0999 V2000
  189.3700  177.8340  137.0200 O   0  0  0  0  0  0  0  0  0  0  0  0
  191.3860  175.7660  139.3410 C   0  0  0  0  0  2  0  0  0  0  0  0
  187.0960  175.6960  134.7450 C   0  0  0  0  0  2  0  0  0  0  0  0
  189.0720  177.0680  138.1630 C   0  0  2  0  0  3  0  0  0  0  0  0
  187.7700  176.1640  136.0430 C   0  0  1  0  0  3  0  0  0  0  0  0
  189.7100  177.6200  139.3660 N   0  0  0  0  0  0  0  0  0  0  0  0
  189.1750  177.7420  134.6560 C   0  0  0  0  0  1  0  0  0  0  0  0
  188.7320  175.1050  136.5970 C   0  0  2  0  0  3  0  0  0  0  0  0
  187.3640  173.3110  135.5130 C   0  0  0  0  0  2  0  0  0  0  0  0
  188.4290  177.5790  135.9760 C   0  0  2  0  0  0  0  0  0  0  0  0
  187.9990  173.7880  136.8180 C   0  0  0  0  0  2  0  0  0  0  0  0
  191.1360  177.2730  139.4610 C   0  0  0  0  0  2  0  0  0  0  0  0
  189.3740  175.5740  137.9070 C   0  0  1  0  0  3  0  0  0  0  0  0
  186.3920  174.3540  134.9540 C   0  0  1  0  0  3  0  0  0  0  0  0
  190.8790  175.2480  137.9960 C   0  0  1  0  0  3  0  0  0  0  0  0
  184.2440  173.8610  135.1580 C   0  0  0  0  0  1  0  0  0  0  0  0
  185.2980  174.5060  135.8090 O   0  0  0  0  0  0  0  0  0  0  0  0
  187.2500  179.3730  136.9840 O   0  0  0  0  0  0  0  0  0  0  0  0
  187.3410  178.6100  136.0360 C   0  0  0  0  0  3  0  0  0  0  0  0
  191.7300  175.8070  136.8210 C   0  0  2  0  0  3  0  0  0  0  0  0
  191.0460  175.1140  134.5940 O   0  0  0  0  0  1  0  0  0  0  0  0
  191.7800  173.3940  136.0840 C   0  0  0  0  0  1  0  0  0  0  0  0
  191.9290  174.8380  135.6410 C   0  0  2  0  0  3  0  0  0  0  0  0
  192.9160  176.4760  137.2180 O   0  0  0  0  0  0  0  0  0  0  0  0
  193.9480  176.1690  136.3140 C   0  0  0  0  0  2  0  0  0  0  0  0
  195.6900  173.8300  138.7960 C   0  0  0  0  0  1  0  0  0  0  0  0
  194.8800  175.1740  136.9230 C   0  0  0  0  0  3  0  0  0  0  0  0
  194.7530  174.8270  138.1980 C   0  0  0  0  0  3  0  0  0  0  0  0
  189.0120  177.1150  140.5420 C   0  0  0  0  0  2  0  0  0  0  0  0
  188.6460  178.4870  141.6860 S   0  0  0  0  0  0  0  0  0  0  0  0
  190.0150  176.3830  142.8960 C   0  0  0  0  0  2  0  0  0  0  0  0
  189.6930  177.8760  143.0540 C   0  0  0  0  0  3  0  0  0  0  0  0
  189.0930  178.2640  144.4190 C   0  0  0  0  0  2  0  0  0  0  0  0
  190.4820  176.7780  145.9740 C   0  0  0  0  0  2  0  0  0  0  0  0
  191.5830  176.7870  144.9090 C   0  0  0  0  0  2  0  0  0  0  0  0
  189.0870  177.1250  145.4450 C   0  0  0  0  0  2  0  0  0  0  0  0
  191.2620  175.9370  143.6730 C   0  0  0  0  0  2  0  0  0  0  0  0
  2 12  1  0  0  0  0
  3 14  1  0  0  0  0
  4  1  1  6  0  0  0
  4  6  1  0  0  0  0
  5  3  1  6  0  0  0
  5  8  1  0  0  0  0
  6 12  1  0  0  0  0
  6 29  1  0  0  0  0
  8 11  1  1  0  0  0
  8 13  1  0  0  0  0
  9 11  1  0  0  0  0
 10  7  1  6  0  0  0
 10 19  1  0  0  0  0
 10  5  1  0  0  0  0
 10  1  1  0  0  0  0
 13 15  1  0  0  0  0
 13  4  1  0  0  0  0
 14  9  1  0  0  0  0
 14 17  1  0  0  0  0
 15  2  1  0  0  0  0
 16 17  1  0  0  0  0
 19 18  2  0  0  0  0
 20 24  1  0  0  0  0
 20 15  1  0  0  0  0
 21 23  1  0  0  0  0
 23 22  1  0  0  0  0
 23 20  1  0  0  0  0
 25 27  1  0  0  0  0
 25 24  1  0  0  0  0
 27 28  2  0  0  0  0
 28 26  1  0  0  0  0
 29 30  1  0  0  0  0
 30 32  1  0  0  0  0
 31 32  1  0  0  0  0
 31 37  1  0  0  0  0
 32 33  1  0  0  0  0
 33 36  1  0  0  0  0
 35 34  1  0  0  0  0
 36 34  1  0  0  0  0
 37 35  1  0  0  0  0
M  END
>  <MODEL>
2

>  <REMARK>
 VINA RESULT:      -5.7      1.409      1.720
  Name = 
  10 active torsions:
  status: ('A' for Active; 'I' for Inactive)
    1  A    between atoms: C_1  and  C_23
    2  A    between atoms: C_1  and  O_33
    3  A    between atoms: C_1  and  C_36
    4  A    between atoms: C_6  and  S_31
    5  A    between atoms: N_14  and  C_37
    6  A    between atoms: C_17  and  C_26
    7  A    between atoms: C_17  and  O_33
    8  A    between atoms: C_24  and  C_28
    9  A    between atoms: O_30  and  C_32
   10  A    between atoms: S_31  and  C_37
                            x       y       z     vdW  Elec       q    Type
                         _______ _______ _______ _____ _____    ______ ____

>  <TORSDO>
F 10

$$$$
=
 OpenBabel11052415253D

 37 40  0  0  1  0  0  0  0  0999 V2000
  189.1030  177.9070  137.0390 O   0  0  0  0  0  0  0  0  0  0  0  0
  191.2480  175.8070  139.2090 C   0  0  0  0  0  2  0  0  0  0  0  0
  186.3860  175.8480  135.2250 C   0  0  0  0  0  2  0  0  0  0  0  0
  188.9030  177.2330  138.2580 C   0  0  2  0  0  3  0  0  0  0  0  0
  187.2620  176.3280  136.3900 C   0  0  1  0  0  3  0  0  0  0  0  0
  189.7390  177.7950  139.3290 N   0  0  0  0  0  0  0  0  0  0  0  0
  188.5840  177.7020  134.7310 C   0  0  0  0  0  1  0  0  0  0  0  0
  188.2050  175.2230  136.8830 C   0  0  2  0  0  3  0  0  0  0  0  0
  186.5700  173.4950  136.1080 C   0  0  0  0  0  2  0  0  0  0  0  0
  188.0130  177.6760  136.1450 C   0  0  2  0  0  0  0  0  0  0  0  0
  187.4100  173.9870  137.2850 C   0  0  0  0  0  2  0  0  0  0  0  0
  191.1340  177.3340  139.2600 C   0  0  0  0  0  2  0  0  0  0  0  0
  189.0520  175.7070  138.0650 C   0  0  1  0  0  3  0  0  0  0  0  0
  185.6150  174.5840  135.6110 C   0  0  1  0  0  3  0  0  0  0  0  0
  190.5270  175.2600  137.9790 C   0  0  1  0  0  3  0  0  0  0  0  0
  183.5310  175.2810  135.8760 C   0  0  0  0  0  1  0  0  0  0  0  0
  184.6610  174.8760  136.5900 O   0  0  0  0  0  0  0  0  0  0  0  0
  187.3990  179.9430  136.4660 O   0  0  0  0  0  0  0  0  0  0  0  0
  187.0250  178.7970  136.2770 C   0  0  0  0  0  3  0  0  0  0  0  0
  191.2510  175.6790  136.6690 C   0  0  2  0  0  3  0  0  0  0  0  0
  190.3250  174.8080  134.5970 O   0  0  0  0  0  1  0  0  0  0  0  0
  191.1510  173.2070  136.1690 C   0  0  0  0  0  1  0  0  0  0  0  0
  191.3000  174.5960  135.5750 C   0  0  2  0  0  3  0  0  0  0  0  0
  192.4860  176.3480  136.8670 O   0  0  0  0  0  0  0  0  0  0  0  0
  193.4860  175.7130  136.1070 C   0  0  0  0  0  2  0  0  0  0  0  0
  195.6260  173.9610  138.7560 C   0  0  0  0  0  1  0  0  0  0  0  0
  194.6240  175.3210  136.9900 C   0  0  0  0  0  3  0  0  0  0  0  0
  194.4800  174.3450  137.8800 C   0  0  0  0  0  3  0  0  0  0  0  0
  189.1690  177.4170  140.6170 C   0  0  0  0  0  2  0  0  0  0  0  0
  187.5730  178.2630  140.8640 S   0  0  0  0  0  0  0  0  0  0  0  0
  187.9750  176.7660  143.1800 C   0  0  0  0  0  2  0  0  0  0  0  0
  187.5910  178.1700  142.6890 C   0  0  0  0  0  3  0  0  0  0  0  0
  186.2780  178.7210  143.2790 C   0  0  0  0  0  2  0  0  0  0  0  0
  186.4740  177.8950  145.6940 C   0  0  0  0  0  2  0  0  0  0  0  0
  187.9950  177.8830  145.5090 C   0  0  0  0  0  2  0  0  0  0  0  0
  185.6780  177.8500  144.3870 C   0  0  0  0  0  2  0  0  0  0  0  0
  188.5070  176.7430  144.6200 C   0  0  0  0  0  2  0  0  0  0  0  0
  2 12  1  0  0  0  0
  3 14  1  0  0  0  0
  4  1  1  6  0  0  0
  4  6  1  0  0  0  0
  5  3  1  6  0  0  0
  5  8  1  0  0  0  0
  6 29  1  0  0  0  0
  8 11  1  1  0  0  0
  8 13  1  0  0  0  0
  9 11  1  0  0  0  0
 10  7  1  6  0  0  0
 10 19  1  0  0  0  0
 10  5  1  0  0  0  0
 10  1  1  0  0  0  0
 12  6  1  0  0  0  0
 13  4  1  0  0  0  0
 14  9  1  0  0  0  0
 14 17  1  0  0  0  0
 15 13  1  0  0  0  0
 15  2  1  0  0  0  0
 16 17  1  0  0  0  0
 19 18  2  0  0  0  0
 20 24  1  0  0  0  0
 20 15  1  0  0  0  0
 21 23  1  0  0  0  0
 23 22  1  0  0  0  0
 23 20  1  0  0  0  0
 25 24  1  0  0  0  0
 25 27  1  0  0  0  0
 27 28  2  0  0  0  0
 28 26  1  0  0  0  0
 29 30  1  0  0  0  0
 30 32  1  0  0  0  0
 31 37  1  0  0  0  0
 32 31  1  0  0  0  0
 32 33  1  0  0  0  0
 33 36  1  0  0  0  0
 35 34  1  0  0  0  0
 36 34  1  0  0  0  0
 37 35  1  0  0  0  0
M  END
>  <MODEL>
3

>  <REMARK>
 VINA RESULT:      -5.6      1.569      1.842
  Name = 
  10 active torsions:
  status: ('A' for Active; 'I' for Inactive)
    1  A    between atoms: C_1  and  C_23
    2  A    between atoms: C_1  and  O_33
    3  A    between atoms: C_1  and  C_36
    4  A    between atoms: C_6  and  S_31
    5  A    between atoms: N_14  and  C_37
    6  A    between atoms: C_17  and  C_26
    7  A    between atoms: C_17  and  O_33
    8  A    between atoms: C_24  and  C_28
    9  A    between atoms: O_30  and  C_32
   10  A    between atoms: S_31  and  C_37
                            x       y       z     vdW  Elec       q    Type
                         _______ _______ _______ _____ _____    ______ ____

>  <TORSDO>
F 10

$$$$
=
 OpenBabel11052415253D

 37 40  0  0  1  0  0  0  0  0999 V2000
  182.9180  179.4840  138.3370 O   0  0  0  0  0  0  0  0  0  0  0  0
  185.6970  177.0390  138.1680 C   0  0  0  0  0  2  0  0  0  0  0  0
  179.5350  177.8070  139.1500 C   0  0  0  0  0  2  0  0  0  0  0  0
  183.6110  178.7180  139.2940 C   0  0  2  0  0  3  0  0  0  0  0  0
  181.0340  178.1130  139.2730 C   0  0  1  0  0  3  0  0  0  0  0  0
  185.0230  179.1160  139.3840 N   0  0  0  0  0  0  0  0  0  0  0  0
  180.8400  179.5290  137.1880 C   0  0  0  0  0  1  0  0  0  0  0  0
  181.8930  176.9000  138.8910 C   0  0  2  0  0  3  0  0  0  0  0  0
  180.0340  175.3770  139.5880 C   0  0  0  0  0  2  0  0  0  0  0  0
  181.5080  179.4170  138.5550 C   0  0  2  0  0  0  0  0  0  0  0  0
  181.5190  175.6960  139.7460 C   0  0  0  0  0  2  0  0  0  0  0  0
  185.8390  178.5600  138.2950 C   0  0  0  0  0  2  0  0  0  0  0  0
  183.3860  177.2090  139.0470 C   0  0  1  0  0  3  0  0  0  0  0  0
  179.1630  176.5750  139.9760 C   0  0  1  0  0  3  0  0  0  0  0  0
  184.2440  176.6630  137.8860 C   0  0  1  0  0  3  0  0  0  0  0  0
  178.9310  178.1900  141.4720 C   0  0  0  0  0  1  0  0  0  0  0  0
  179.2920  176.8470  141.3410 O   0  0  0  0  0  0  0  0  0  0  0  0
  180.4180  181.4940  138.9050 O   0  0  0  0  0  0  0  0  0  0  0  0
  181.0850  180.5920  139.3860 C   0  0  0  0  0  3  0  0  0  0  0  0
  183.8010  177.1440  136.4760 C   0  0  2  0  0  3  0  0  0  0  0  0
  181.6800  176.5140  135.4690 O   0  0  0  0  0  1  0  0  0  0  0  0
  183.0500  174.7410  136.3020 C   0  0  0  0  0  1  0  0  0  0  0  0
  183.0050  176.1130  135.6550 C   0  0  2  0  0  3  0  0  0  0  0  0
  184.8120  177.8070  135.7350 O   0  0  0  0  0  0  0  0  0  0  0  0
  185.1260  177.0480  134.5940 C   0  0  0  0  0  2  0  0  0  0  0  0
  188.1800  174.7840  135.0630 C   0  0  0  0  0  1  0  0  0  0  0  0
  186.5290  176.5470  134.6850 C   0  0  0  0  0  3  0  0  0  0  0  0
  186.7720  175.2740  134.9760 C   0  0  0  0  0  3  0  0  0  0  0  0
  185.5560  178.6660  140.6650 C   0  0  0  0  0  2  0  0  0  0  0  0
  184.3070  178.8930  141.9740 S   0  0  0  0  0  0  0  0  0  0  0  0
  185.3490  179.0900  144.5510 C   0  0  0  0  0  2  0  0  0  0  0  0
  185.3120  178.1730  143.3200 C   0  0  0  0  0  3  0  0  0  0  0  0
  186.6960  177.7390  142.7990 C   0  0  0  0  0  2  0  0  0  0  0  0
  187.9250  177.3580  145.0120 C   0  0  0  0  0  2  0  0  0  0  0  0
  186.5620  177.0980  145.6610 C   0  0  0  0  0  2  0  0  0  0  0  0
  187.8610  178.1520  143.7040 C   0  0  0  0  0  2  0  0  0  0  0  0
  185.7110  178.3600  145.8520 C   0  0  0  0  0  2  0  0  0  0  0  0
  1 10  1  0  0  0  0
  2 12  1  0  0  0  0
  3 14  1  0  0  0  0
  4  1  1  6  0  0  0
  4  6  1  0  0  0  0
  5  3  1  6  0  0  0
  6 29  1  0  0  0  0
  8 13  1  0  0  0  0
  8  5  1  0  0  0  0
  8 11  1  1  0  0  0
  9 11  1  0  0  0  0
  9 14  1  0  0  0  0
 10  7  1  6  0  0  0
 10  5  1  0  0  0  0
 10 19  1  0  0  0  0
 12  6  1  0  0  0  0
 13  4  1  0  0  0  0
 14 17  1  0  0  0  0
 15  2  1  0  0  0  0
 15 13  1  0  0  0  0
 17 16  1  0  0  0  0
 18 19  2  0  0  0  0
 20 15  1  0  0  0  0
 21 23  1  0  0  0  0
 23 22  1  0  0  0  0
 23 20  1  0  0  0  0
 24 20  1  0  0  0  0
 25 27  1  0  0  0  0
 25 24  1  0  0  0  0
 27 28  2  0  0  0  0
 28 26  1  0  0  0  0
 29 30  1  0  0  0  0
 30 32  1  0  0  0  0
 31 37  1  0  0  0  0
 32 31  1  0  0  0  0
 33 32  1  0  0  0  0
 33 36  1  0  0  0  0
 34 35  1  0  0  0  0
 35 37  1  0  0  0  0
 36 34  1  0  0  0  0
M  END
>  <MODEL>
4

>  <REMARK>
 VINA RESULT:      -5.2      4.284      7.043
  Name = 
  10 active torsions:
  status: ('A' for Active; 'I' for Inactive)
    1  A    between atoms: C_1  and  C_23
    2  A    between atoms: C_1  and  O_33
    3  A    between atoms: C_1  and  C_36
    4  A    between atoms: C_6  and  S_31
    5  A    between atoms: N_14  and  C_37
    6  A    between atoms: C_17  and  C_26
    7  A    between atoms: C_17  and  O_33
    8  A    between atoms: C_24  and  C_28
    9  A    between atoms: O_30  and  C_32
   10  A    between atoms: S_31  and  C_37
                            x       y       z     vdW  Elec       q    Type
                         _______ _______ _______ _____ _____    ______ ____

>  <TORSDO>
F 10

$$$$
=
 OpenBabel11052415253D

 37 40  0  0  1  0  0  0  0  0999 V2000
  182.5870  179.6330  138.0480 O   0  0  0  0  0  0  0  0  0  0  0  0
  184.0930  176.3130  138.7070 C   0  0  0  0  0  2  0  0  0  0  0  0
  179.4610  180.2850  140.2210 C   0  0  0  0  0  2  0  0  0  0  0  0
  183.3080  179.0790  139.1220 C   0  0  2  0  0  3  0  0  0  0  0  0
  180.8950  179.8460  139.8900 C   0  0  1  0  0  3  0  0  0  0  0  0
  184.6840  178.7410  138.7300 N   0  0  0  0  0  0  0  0  0  0  0  0
  180.3660  180.2210  137.4470 C   0  0  0  0  0  1  0  0  0  0  0  0
  181.0780  178.3330  140.0640 C   0  0  2  0  0  3  0  0  0  0  0  0
  179.2620  178.3200  141.7860 C   0  0  0  0  0  2  0  0  0  0  0  0
  181.4440  180.3500  138.5180 C   0  0  2  0  0  0  0  0  0  0  0  0
  180.7020  177.9120  141.4790 C   0  0  0  0  0  2  0  0  0  0  0  0
  184.7660  177.4810  137.9770 C   0  0  0  0  0  2  0  0  0  0  0  0
  182.5200  177.9130  139.7600 C   0  0  1  0  0  3  0  0  0  0  0  0
  179.0660  179.8310  141.6270 C   0  0  1  0  0  3  0  0  0  0  0  0
  182.6130  176.6120  138.9350 C   0  0  1  0  0  3  0  0  0  0  0  0
  179.2720  180.1150  143.8120 C   0  0  0  0  0  1  0  0  0  0  0  0
  179.8100  180.5210  142.5890 O   0  0  0  0  0  0  0  0  0  0  0  0
  181.4740  182.6120  137.8060 O   0  0  0  0  0  0  0  0  0  0  0  0
  181.8010  181.8010  138.6570 C   0  0  0  0  0  3  0  0  0  0  0  0
  181.8310  176.6440  137.5920 C   0  0  2  0  0  3  0  0  0  0  0  0
  179.4130  176.8930  137.6470 O   0  0  0  0  0  1  0  0  0  0  0  0
  180.3340  175.0140  138.8050 C   0  0  0  0  0  1  0  0  0  0  0  0
  180.4520  175.9590  137.6230 C   0  0  2  0  0  3  0  0  0  0  0  0
  182.6060  176.3160  136.4510 O   0  0  0  0  0  0  0  0  0  0  0  0
  182.0680  175.1700  135.8370 C   0  0  0  0  0  2  0  0  0  0  0  0
  184.0540  172.0540  136.8440 C   0  0  0  0  0  1  0  0  0  0  0  0
  183.0690  174.0630  135.8600 C   0  0  0  0  0  3  0  0  0  0  0  0
  183.0480  173.1580  136.8320 C   0  0  0  0  0  3  0  0  0  0  0  0
  185.5020  178.6380  139.9340 C   0  0  0  0  0  2  0  0  0  0  0  0
  187.2290  178.2660  139.4820 S   0  0  0  0  0  0  0  0  0  0  0  0
  188.9360  177.1450  141.3790 C   0  0  0  0  0  2  0  0  0  0  0  0
  187.8680  178.2330  141.1940 C   0  0  0  0  0  3  0  0  0  0  0  0
  186.7110  178.1770  142.2100 C   0  0  0  0  0  2  0  0  0  0  0  0
  187.9950  177.5750  144.3410 C   0  0  0  0  0  2  0  0  0  0  0  0
  189.2350  178.2160  143.7110 C   0  0  0  0  0  2  0  0  0  0  0  0
  186.9170  177.1590  143.3360 C   0  0  0  0  0  2  0  0  0  0  0  0
  189.8600  177.3870  142.5810 C   0  0  0  0  0  2  0  0  0  0  0  0
  1 10  1  0  0  0  0
  2 15  1  0  0  0  0
  3 14  1  0  0  0  0
  4  1  1  6  0  0  0
  4 13  1  0  0  0  0
  5  8  1  0  0  0  0
  5  3  1  6  0  0  0
  6  4  1  0  0  0  0
  6 29  1  0  0  0  0
  8 11  1  1  0  0  0
 10  7  1  6  0  0  0
 10 19  1  0  0  0  0
 10  5  1  0  0  0  0
 11  9  1  0  0  0  0
 12  2  1  0  0  0  0
 12  6  1  0  0  0  0
 13  8  1  0  0  0  0
 14  9  1  0  0  0  0
 14 17  1  0  0  0  0
 15 13  1  0  0  0  0
 17 16  1  0  0  0  0
 18 19  2  0  0  0  0
 20 23  1  0  0  0  0
 20 15  1  0  0  0  0
 23 21  1  0  0  0  0
 23 22  1  0  0  0  0
 24 20  1  0  0  0  0
 25 27  1  0  0  0  0
 25 24  1  0  0  0  0
 27 28  2  0  0  0  0
 28 26  1  0  0  0  0
 30 29  1  0  0  0  0
 30 32  1  0  0  0  0
 31 37  1  0  0  0  0
 32 31  1  0  0  0  0
 32 33  1  0  0  0  0
 33 36  1  0  0  0  0
 35 34  1  0  0  0  0
 36 34  1  0  0  0  0
 37 35  1  0  0  0  0
M  END
>  <MODEL>
5

>  <REMARK>
 VINA RESULT:      -5.1      5.303      8.497
  Name = 
  10 active torsions:
  status: ('A' for Active; 'I' for Inactive)
    1  A    between atoms: C_1  and  C_23
    2  A    between atoms: C_1  and  O_33
    3  A    between atoms: C_1  and  C_36
    4  A    between atoms: C_6  and  S_31
    5  A    between atoms: N_14  and  C_37
    6  A    between atoms: C_17  and  C_26
    7  A    between atoms: C_17  and  O_33
    8  A    between atoms: C_24  and  C_28
    9  A    between atoms: O_30  and  C_32
   10  A    between atoms: S_31  and  C_37
                            x       y       z     vdW  Elec       q    Type
                         _______ _______ _______ _____ _____    ______ ____

>  <TORSDO>
F 10

$$$$
=
 OpenBabel11052415253D

 37 40  0  0  1  0  0  0  0  0999 V2000
  182.7110  179.3800  139.0660 O   0  0  0  0  0  0  0  0  0  0  0  0
  185.9170  177.7800  140.0070 C   0  0  0  0  0  2  0  0  0  0  0  0
  180.2350  176.8800  137.4720 C   0  0  0  0  0  2  0  0  0  0  0  0
  183.0960  178.4710  140.0690 C   0  0  2  0  0  3  0  0  0  0  0  0
  181.2650  177.4130  138.4780 C   0  0  1  0  0  3  0  0  0  0  0  0
  184.0380  179.0820  141.0180 N   0  0  0  0  0  0  0  0  0  0  0  0
  181.5710  179.4280  136.9830 C   0  0  0  0  0  1  0  0  0  0  0  0
  182.5810  176.6250  138.4130 C   0  0  2  0  0  3  0  0  0  0  0  0
  181.3240  174.6130  137.6160 C   0  0  0  0  0  2  0  0  0  0  0  0
  181.5030  178.9560  138.4320 C   0  0  2  0  0  0  0  0  0  0  0  0
  182.3210  175.1420  138.6450 C   0  0  0  0  0  2  0  0  0  0  0  0
  185.4110  179.1420  140.4940 C   0  0  0  0  0  2  0  0  0  0  0  0
  183.5890  177.1470  139.4420 C   0  0  1  0  0  3  0  0  0  0  0  0
  180.0010  175.3830  137.6770 C   0  0  1  0  0  3  0  0  0  0  0  0
  185.0250  177.2510  138.8860 C   0  0  1  0  0  3  0  0  0  0  0  0
  178.9570  173.8170  138.8410 C   0  0  0  0  0  1  0  0  0  0  0  0
  179.3610  175.1520  138.8970 O   0  0  0  0  0  0  0  0  0  0  0  0
  180.2670  180.8490  139.1490 O   0  0  0  0  0  0  0  0  0  0  0  0
  180.3390  179.6320  139.0950 C   0  0  0  0  0  3  0  0  0  0  0  0
  185.1580  178.1200  137.6030 C   0  0  2  0  0  3  0  0  0  0  0  0
  183.9790  177.4480  135.5860 O   0  0  0  0  0  1  0  0  0  0  0  0
  185.5100  175.8670  136.5210 C   0  0  0  0  0  1  0  0  0  0  0  0
  185.1850  177.3300  136.2820 C   0  0  2  0  0  3  0  0  0  0  0  0
  186.1410  179.1380  137.6810 O   0  0  0  0  0  0  0  0  0  0  0  0
  187.1310  178.9050  136.7090 C   0  0  0  0  0  2  0  0  0  0  0  0
  190.2990  177.0870  137.8620 C   0  0  0  0  0  1  0  0  0  0  0  0
  188.4290  178.5830  137.3720 C   0  0  0  0  0  3  0  0  0  0  0  0
  188.9990  177.3970  137.1940 C   0  0  0  0  0  3  0  0  0  0  0  0
  184.0270  178.3080  142.2540 C   0  0  0  0  0  2  0  0  0  0  0  0
  184.0750  179.4290  143.6920 S   0  0  0  0  0  0  0  0  0  0  0  0
  186.0280  177.4450  143.8150 C   0  0  0  0  0  2  0  0  0  0  0  0
  185.6890  178.8530  144.3260 C   0  0  0  0  0  3  0  0  0  0  0  0
  185.7670  179.0180  145.8560 C   0  0  0  0  0  2  0  0  0  0  0  0
  187.8450  177.6140  146.3680 C   0  0  0  0  0  2  0  0  0  0  0  0
  188.3140  177.8850  144.9350 C   0  0  0  0  0  2  0  0  0  0  0  0
  186.3410  177.8000  146.5870 C   0  0  0  0  0  2  0  0  0  0  0  0
  187.5270  177.1180  143.8650 C   0  0  0  0  0  2  0  0  0  0  0  0
  2 12  1  0  0  0  0
  3 14  1  0  0  0  0
  4  1  1  6  0  0  0
  4  6  1  0  0  0  0
  5  3  1  6  0  0  0
  6 29  1  0  0  0  0
  8  5  1  0  0  0  0
  8 11  1  1  0  0  0
  8 13  1  0  0  0  0
  9 14  1  0  0  0  0
  9 11  1  0  0  0  0
 10  7  1  6  0  0  0
 10  5  1  0  0  0  0
 10  1  1  0  0  0  0
 10 19  1  0  0  0  0
 12  6  1  0  0  0  0
 13  4  1  0  0  0  0
 14 17  1  0  0  0  0
 15 13  1  0  0  0  0
 15  2  1  0  0  0  0
 16 17  1  0  0  0  0
 19 18  2  0  0  0  0
 20 24  1  0  0  0  0
 20 15  1  0  0  0  0
 21 23  1  0  0  0  0
 23 22  1  0  0  0  0
 23 20  1  0  0  0  0
 25 27  1  0  0  0  0
 25 24  1  0  0  0  0
 28 27  2  0  0  0  0
 28 26  1  0  0  0  0
 29 30  1  0  0  0  0
 30 32  1  0  0  0  0
 31 37  1  0  0  0  0
 31 32  1  0  0  0  0
 32 33  1  0  0  0  0
 33 36  1  0  0  0  0
 34 36  1  0  0  0  0
 35 34  1  0  0  0  0
 37 35  1  0  0  0  0
M  END
>  <MODEL>
6

>  <REMARK>
 VINA RESULT:      -5.0      3.985      6.456
  Name = 
  10 active torsions:
  status: ('A' for Active; 'I' for Inactive)
    1  A    between atoms: C_1  and  C_23
    2  A    between atoms: C_1  and  O_33
    3  A    between atoms: C_1  and  C_36
    4  A    between atoms: C_6  and  S_31
    5  A    between atoms: N_14  and  C_37
    6  A    between atoms: C_17  and  C_26
    7  A    between atoms: C_17  and  O_33
    8  A    between atoms: C_24  and  C_28
    9  A    between atoms: O_30  and  C_32
   10  A    between atoms: S_31  and  C_37
                            x       y       z     vdW  Elec       q    Type
                         _______ _______ _______ _____ _____    ______ ____

>  <TORSDO>
F 10

$$$$
=
 OpenBabel11052415253D

 37 40  0  0  1  0  0  0  0  0999 V2000
  181.9800  178.4560  136.9870 O   0  0  0  0  0  0  0  0  0  0  0  0
  183.7960  175.4570  138.1820 C   0  0  0  0  0  2  0  0  0  0  0  0
  179.2830  179.6330  139.4880 C   0  0  0  0  0  2  0  0  0  0  0  0
  182.9250  178.2220  138.0040 C   0  0  2  0  0  3  0  0  0  0  0  0
  180.6540  179.1380  139.0070 C   0  0  1  0  0  3  0  0  0  0  0  0
  184.2220  177.8080  137.4500 N   0  0  0  0  0  0  0  0  0  0  0  0
  179.6530  178.8330  136.7070 C   0  0  0  0  0  1  0  0  0  0  0  0
  180.9650  177.7310  139.5320 C   0  0  2  0  0  3  0  0  0  0  0  0
  179.5090  178.1610  141.5210 C   0  0  0  0  0  2  0  0  0  0  0  0
  180.9020  179.2600  137.4700 C   0  0  2  0  0  0  0  0  0  0  0  0
  180.8890  177.7030  141.0530 C   0  0  0  0  0  2  0  0  0  0  0  0
  184.2440  176.3920  137.0530 C   0  0  0  0  0  2  0  0  0  0  0  0
  182.3490  177.2610  139.0690 C   0  0  1  0  0  3  0  0  0  0  0  0
  179.1890  179.5710  141.0140 C   0  0  1  0  0  3  0  0  0  0  0  0
  182.3690  175.7880  138.6130 C   0  0  1  0  0  3  0  0  0  0  0  0
  179.7190  180.5030  142.9500 C   0  0  0  0  0  1  0  0  0  0  0  0
  180.0530  180.5030  141.5940 O   0  0  0  0  0  0  0  0  0  0  0  0
  181.5190  181.4820  138.0230 O   0  0  0  0  0  0  0  0  0  0  0  0
  181.1830  180.6980  137.1500 C   0  0  0  0  0  3  0  0  0  0  0  0
  181.3480  175.4460  137.4910 C   0  0  2  0  0  3  0  0  0  0  0  0
  178.9310  175.6040  137.6890 O   0  0  0  0  0  1  0  0  0  0  0  0
  180.0910  174.4970  139.4630 C   0  0  0  0  0  1  0  0  0  0  0  0
  180.0370  174.8010  137.9770 C   0  0  2  0  0  3  0  0  0  0  0  0
  181.9120  174.8100  136.3560 O   0  0  0  0  0  0  0  0  0  0  0  0
  181.6380  173.4320  136.4100 C   0  0  0  0  0  2  0  0  0  0  0  0
  184.7560  171.3020  135.7730 C   0  0  0  0  0  1  0  0  0  0  0  0
  182.7300  172.6680  135.7380 C   0  0  0  0  0  3  0  0  0  0  0  0
  183.6700  172.0640  136.4570 C   0  0  0  0  0  3  0  0  0  0  0  0
  185.2560  178.0440  138.4510 C   0  0  0  0  0  2  0  0  0  0  0  0
  186.9060  177.8970  137.6880 S   0  0  0  0  0  0  0  0  0  0  0  0
  187.6680  178.6260  140.2680 C   0  0  0  0  0  2  0  0  0  0  0  0
  187.7940  177.4960  139.2350 C   0  0  0  0  0  3  0  0  0  0  0  0
  189.2390  177.0520  138.9390 C   0  0  0  0  0  2  0  0  0  0  0  0
  190.2460  177.1570  141.2900 C   0  0  0  0  0  2  0  0  0  0  0  0
  188.8350  176.9440  141.8450 C   0  0  0  0  0  2  0  0  0  0  0  0
  190.2880  177.6900  139.8550 C   0  0  0  0  0  2  0  0  0  0  0  0
  187.9210  178.1700  141.7120 C   0  0  0  0  0  2  0  0  0  0  0  0
  1 10  1  0  0  0  0
  2 15  1  0  0  0  0
  3 14  1  0  0  0  0
  4  1  1  6  0  0  0
  4 13  1  0  0  0  0
  5  3  1  6  0  0  0
  5  8  1  0  0  0  0
  6  4  1  0  0  0  0
  6 29  1  0  0  0  0
  8 11  1  1  0  0  0
 10  7  1  6  0  0  0
 10  5  1  0  0  0  0
 11  9  1  0  0  0  0
 12  6  1  0  0  0  0
 12  2  1  0  0  0  0
 13  8  1  0  0  0  0
 14  9  1  0  0  0  0
 14 17  1  0  0  0  0
 15 13  1  0  0  0  0
 17 16  1  0  0  0  0
 19 10  1  0  0  0  0
 19 18  2  0  0  0  0
 20 23  1  0  0  0  0
 20 15  1  0  0  0  0
 21 23  1  0  0  0  0
 23 22  1  0  0  0  0
 24 25  1  0  0  0  0
 24 20  1  0  0  0  0
 26 28  1  0  0  0  0
 27 25  1  0  0  0  0
 27 28  2  0  0  0  0
 30 29  1  0  0  0  0
 30 32  1  0  0  0  0
 31 37  1  0  0  0  0
 32 31  1  0  0  0  0
 33 32  1  0  0  0  0
 33 36  1  0  0  0  0
 34 35  1  0  0  0  0
 36 34  1  0  0  0  0
 37 35  1  0  0  0  0
M  END
>  <MODEL>
7

>  <REMARK>
 VINA RESULT:      -4.7      4.765      8.667
  Name = 
  10 active torsions:
  status: ('A' for Active; 'I' for Inactive)
    1  A    between atoms: C_1  and  C_23
    2  A    between atoms: C_1  and  O_33
    3  A    between atoms: C_1  and  C_36
    4  A    between atoms: C_6  and  S_31
    5  A    between atoms: N_14  and  C_37
    6  A    between atoms: C_17  and  C_26
    7  A    between atoms: C_17  and  O_33
    8  A    between atoms: C_24  and  C_28
    9  A    between atoms: O_30  and  C_32
   10  A    between atoms: S_31  and  C_37
                            x       y       z     vdW  Elec       q    Type
                         _______ _______ _______ _____ _____    ______ ____

>  <TORSDO>
F 10

$$$$
=
 OpenBabel11052415253D

 37 40  0  0  1  0  0  0  0  0999 V2000
  182.7670  178.2010  138.2370 O   0  0  0  0  0  0  0  0  0  0  0  0
  179.3920  176.9730  139.1490 C   0  0  0  0  0  2  0  0  0  0  0  0
  184.7930  179.3490  141.3180 C   0  0  0  0  0  2  0  0  0  0  0  0
  182.2840  177.0520  138.8910 C   0  0  2  0  0  3  0  0  0  0  0  0
  183.8860  178.4460  140.4710 C   0  0  1  0  0  3  0  0  0  0  0  0
  181.4750  176.2180  137.9910 N   0  0  0  0  0  0  0  0  0  0  0  0
  183.8320  180.2670  138.7200 C   0  0  0  0  0  1  0  0  0  0  0  0
  182.4680  178.3630  141.0510 C   0  0  2  0  0  3  0  0  0  0  0  0
  183.3870  178.8040  143.3360 C   0  0  0  0  0  2  0  0  0  0  0  0
  183.8770  178.7590  138.9410 C   0  0  2  0  0  0  0  0  0  0  0  0
  182.5130  177.8770  142.4940 C   0  0  0  0  0  2  0  0  0  0  0  0
  180.1100  176.7350  137.8150 C   0  0  0  0  0  2  0  0  0  0  0  0
  181.5820  177.4350  140.2130 C   0  0  1  0  0  3  0  0  0  0  0  0
  184.8100  178.8880  142.7760 C   0  0  1  0  0  3  0  0  0  0  0  0
  180.1600  177.9910  139.9910 C   0  0  1  0  0  3  0  0  0  0  0  0
  186.5790  177.9010  143.6690 C   0  0  0  0  0  1  0  0  0  0  0  0
  185.4490  177.6500  142.8870 O   0  0  0  0  0  0  0  0  0  0  0  0
  186.1280  178.9490  138.2190 O   0  0  0  0  0  0  0  0  0  0  0  0
  185.1490  178.2320  138.3450 C   0  0  0  0  0  3  0  0  0  0  0  0
  180.1140  179.4050  139.3460 C   0  0  2  0  0  3  0  0  0  0  0  0
  179.9390  181.6790  140.1850 O   0  0  0  0  0  1  0  0  0  0  0  0
  178.9440  179.9560  141.5130 C   0  0  0  0  0  1  0  0  0  0  0  0
  179.2840  180.4470  140.1170 C   0  0  2  0  0  3  0  0  0  0  0  0
  179.8780  179.4060  137.9480 O   0  0  0  0  0  0  0  0  0  0  0  0
  178.9310  180.4000  137.6370 C   0  0  0  0  0  2  0  0  0  0  0  0
  180.5500  183.0970  135.4530 C   0  0  0  0  0  1  0  0  0  0  0  0
  179.3940  181.1940  136.4620 C   0  0  0  0  0  3  0  0  0  0  0  0
  180.0910  182.3120  136.6370 C   0  0  0  0  0  3  0  0  0  0  0  0
  181.4120  174.8660  138.5340 C   0  0  0  0  0  2  0  0  0  0  0  0
  181.4470  173.6480  137.1780 S   0  0  0  0  0  0  0  0  0  0  0  0
  184.0010  174.4600  136.4110 C   0  0  0  0  0  2  0  0  0  0  0  0
  183.2550  173.3820  137.2110 C   0  0  0  0  0  3  0  0  0  0  0  0
  183.6030  171.9330  136.8190 C   0  0  0  0  0  2  0  0  0  0  0  0
  186.1250  172.1510  136.4370 C   0  0  0  0  0  2  0  0  0  0  0  0
  186.1130  173.3450  137.3970 C   0  0  0  0  0  2  0  0  0  0  0  0
  184.7630  171.8180  135.8240 C   0  0  0  0  0  2  0  0  0  0  0  0
  185.4760  174.6110  136.8090 C   0  0  0  0  0  2  0  0  0  0  0  0
  1 10  1  0  0  0  0
  2 15  1  0  0  0  0
  3 14  1  0  0  0  0
  4  1  1  6  0  0  0
  4 13  1  0  0  0  0
  5  8  1  0  0  0  0
  5  3  1  1  0  0  0
  6 29  1  0  0  0  0
  6  4  1  0  0  0  0
  8 11  1  1  0  0  0
 10  7  1  6  0  0  0
 10  5  1  0  0  0  0
 11  9  1  0  0  0  0
 12  6  1  0  0  0  0
 12  2  1  0  0  0  0
 13  8  1  0  0  0  0
 14 17  1  0  0  0  0
 14  9  1  0  0  0  0
 15 13  1  0  0  0  0
 17 16  1  0  0  0  0
 18 19  2  0  0  0  0
 19 10  1  0  0  0  0
 20 15  1  0  0  0  0
 20 23  1  0  0  0  0
 23 21  1  0  0  0  0
 23 22  1  0  0  0  0
 24 20  1  0  0  0  0
 25 24  1  0  0  0  0
 26 28  1  0  0  0  0
 27 28  2  0  0  0  0
 27 25  1  0  0  0  0
 30 32  1  0  0  0  0
 30 29  1  0  0  0  0
 31 37  1  0  0  0  0
 31 32  1  0  0  0  0
 33 32  1  0  0  0  0
 34 35  1  0  0  0  0
 36 34  1  0  0  0  0
 36 33  1  0  0  0  0
 37 35  1  0  0  0  0
M  END
>  <MODEL>
8

>  <REMARK>
 VINA RESULT:      -4.4      5.676     10.762
  Name = 
  10 active torsions:
  status: ('A' for Active; 'I' for Inactive)
    1  A    between atoms: C_1  and  C_23
    2  A    between atoms: C_1  and  O_33
    3  A    between atoms: C_1  and  C_36
    4  A    between atoms: C_6  and  S_31
    5  A    between atoms: N_14  and  C_37
    6  A    between atoms: C_17  and  C_26
    7  A    between atoms: C_17  and  O_33
    8  A    between atoms: C_24  and  C_28
    9  A    between atoms: O_30  and  C_32
   10  A    between atoms: S_31  and  C_37
                            x       y       z     vdW  Elec       q    Type
                         _______ _______ _______ _____ _____    ______ ____

>  <TORSDO>
F 10

$$$$
=
 OpenBabel11052415253D

 37 40  0  0  1  0  0  0  0  0999 V2000
  181.9650  177.6350  136.1320 O   0  0  0  0  0  0  0  0  0  0  0  0
  183.8700  174.5370  136.8370 C   0  0  0  0  0  2  0  0  0  0  0  0
  179.4620  178.4920  138.9460 C   0  0  0  0  0  2  0  0  0  0  0  0
  182.9840  177.2960  137.0420 C   0  0  2  0  0  3  0  0  0  0  0  0
  180.7930  178.0700  138.3100 C   0  0  1  0  0  3  0  0  0  0  0  0
  184.2370  176.9610  136.3490 N   0  0  0  0  0  0  0  0  0  0  0  0
  179.6220  178.0180  136.0710 C   0  0  0  0  0  1  0  0  0  0  0  0
  181.1450  176.6140  138.6460 C   0  0  2  0  0  3  0  0  0  0  0  0
  179.8420  176.8010  140.7740 C   0  0  0  0  0  2  0  0  0  0  0  0
  180.9250  178.3680  136.7820 C   0  0  2  0  0  0  0  0  0  0  0  0
  181.1840  176.4130  140.1560 C   0  0  0  0  0  2  0  0  0  0  0  0
  184.2300  175.6000  135.7930 C   0  0  0  0  0  2  0  0  0  0  0  0
  182.4910  176.2150  138.0300 C   0  0  1  0  0  3  0  0  0  0  0  0
  179.4830  178.2560  140.4570 C   0  0  1  0  0  3  0  0  0  0  0  0
  182.4790  174.8030  137.4080 C   0  0  1  0  0  3  0  0  0  0  0  0
  179.7860  180.3830  140.9880 C   0  0  0  0  0  1  0  0  0  0  0  0
  180.3870  179.1240  141.0730 O   0  0  0  0  0  0  0  0  0  0  0  0
  180.8020  180.4250  135.6090 O   0  0  0  0  0  0  0  0  0  0  0  0
  181.1790  179.8360  136.6090 C   0  0  0  0  0  3  0  0  0  0  0  0
  181.3770  174.5810  136.3340 C   0  0  2  0  0  3  0  0  0  0  0  0
  179.0120  174.6660  136.8890 O   0  0  0  0  0  1  0  0  0  0  0  0
  180.3720  173.1810  138.1780 C   0  0  0  0  0  1  0  0  0  0  0  0
  180.1280  173.8280  136.8270 C   0  0  2  0  0  3  0  0  0  0  0  0
  181.8610  174.1290  135.0800 O   0  0  0  0  0  0  0  0  0  0  0  0
  181.3340  172.8520  134.8120 C   0  0  0  0  0  2  0  0  0  0  0  0
  183.6200  170.0110  135.9830 C   0  0  0  0  0  1  0  0  0  0  0  0
  182.4200  171.8300  134.8760 C   0  0  0  0  0  3  0  0  0  0  0  0
  182.5300  171.0310  135.9310 C   0  0  0  0  0  3  0  0  0  0  0  0
  185.3430  177.0910  137.2910 C   0  0  0  0  0  2  0  0  0  0  0  0
  186.5890  178.2480  136.6310 S   0  0  0  0  0  0  0  0  0  0  0  0
  187.5520  175.6990  137.2180 C   0  0  0  0  0  2  0  0  0  0  0  0
  188.0000  177.0920  136.7510 C   0  0  0  0  0  3  0  0  0  0  0  0
  189.1460  177.7100  137.5750 C   0  0  0  0  0  2  0  0  0  0  0  0
  190.5980  175.6400  137.9730 C   0  0  0  0  0  2  0  0  0  0  0  0
  189.9960  175.0400  136.6990 C   0  0  0  0  0  2  0  0  0  0  0  0
  189.7600  176.7550  138.6040 C   0  0  0  0  0  2  0  0  0  0  0  0
  188.5390  174.5820  136.8520 C   0  0  0  0  0  2  0  0  0  0  0  0
  1 10  1  0  0  0  0
  2 15  1  0  0  0  0
  3 14  1  0  0  0  0
  4  1  1  6  0  0  0
  4 13  1  0  0  0  0
  5  8  1  0  0  0  0
  5  3  1  6  0  0  0
  6  4  1  0  0  0  0
  6 29  1  0  0  0  0
  8 11  1  1  0  0  0
 10  7  1  6  0  0  0
 10  5  1  0  0  0  0
 11  9  1  0  0  0  0
 12  6  1  0  0  0  0
 12  2  1  0  0  0  0
 13  8  1  0  0  0  0
 14  9  1  0  0  0  0
 14 17  1  0  0  0  0
 15 13  1  0  0  0  0
 16 17  1  0  0  0  0
 18 19  2  0  0  0  0
 19 10  1  0  0  0  0
 20 23  1  0  0  0  0
 20 15  1  0  0  0  0
 23 21  1  0  0  0  0
 23 22  1  0  0  0  0
 24 20  1  0  0  0  0
 25 27  1  0  0  0  0
 25 24  1  0  0  0  0
 27 28  2  0  0  0  0
 28 26  1  0  0  0  0
 30 32  1  0  0  0  0
 30 29  1  0  0  0  0
 32 31  1  0  0  0  0
 32 33  1  0  0  0  0
 33 36  1  0  0  0  0
 34 36  1  0  0  0  0
 35 37  1  0  0  0  0
 35 34  1  0  0  0  0
 37 31  1  0  0  0  0
M  END
>  <MODEL>
9

>  <REMARK>
 VINA RESULT:      -4.2      4.604      8.938
  Name = 
  10 active torsions:
  status: ('A' for Active; 'I' for Inactive)
    1  A    between atoms: C_1  and  C_23
    2  A    between atoms: C_1  and  O_33
    3  A    between atoms: C_1  and  C_36
    4  A    between atoms: C_6  and  S_31
    5  A    between atoms: N_14  and  C_37
    6  A    between atoms: C_17  and  C_26
    7  A    between atoms: C_17  and  O_33
    8  A    between atoms: C_24  and  C_28
    9  A    between atoms: O_30  and  C_32
   10  A    between atoms: S_31  and  C_37
                            x       y       z     vdW  Elec       q    Type
                         _______ _______ _______ _____ _____    ______ ____

>  <TORSDO>
F 10

$$$$
