=
 OpenBabel11052413433D

 27 31  0  0  1  0  0  0  0  0999 V2000
  187.7860  176.5340  143.3280 C   0  0  0  0  0  2  0  0  0  0  0  0
  186.3920  178.6860  143.5750 C   0  0  1  0  0  3  0  0  0  0  0  0
  187.1000  179.2910  141.4240 C   0  0  0  0  0  2  0  0  0  0  0  0
  182.2980  178.7190  142.2340 C   0  0  0  0  0  3  0  0  0  0  0  0
  182.4910  177.3670  140.0890 C   0  0  0  0  0  2  0  0  0  0  0  0
  185.2810  179.3810  144.3900 C   0  0  0  0  0  2  0  0  0  0  0  0
  184.4930  178.7970  140.3280 N   0  0  0  0  0  2  0  0  0  0  0  0
  188.7520  177.5460  138.5070 C   0  0  0  0  0  3  0  0  0  0  0  0
  184.0250  177.4330  140.0930 C   0  0  0  0  0  2  0  0  0  0  0  0
  189.6170  176.6530  139.1450 C   0  0  0  0  0  3  0  0  0  0  0  0
  184.7560  179.0180  141.7610 C   0  0  1  0  0  3  0  0  0  0  0  0
  186.8250  177.3490  144.2050 C   0  0  2  0  0  3  0  0  0  0  0  0
  181.7860  178.2780  141.0740 C   0  0  0  0  0  3  0  0  0  0  0  0
  183.6880  178.3850  142.6780 C   0  0  1  0  0  3  0  0  0  0  0  0
  188.9510  177.3650  142.7990 C   0  0  0  0  0  2  0  0  0  0  0  0
  186.0890  178.5200  142.1370 N   0  0  2  0  0  0  0  0  0  0  0  0
  187.9430  178.3980  139.2640 C   0  0  0  0  0  3  0  0  0  0  0  0
  183.9040  178.7620  144.1440 C   0  0  0  0  0  2  0  0  0  0  0  0
  189.6740  176.6130  140.5400 C   0  0  0  0  0  3  0  0  0  0  0  0
  188.8730  177.4670  141.3070 C   0  0  0  0  0  0  0  0  0  0  0  0
  187.9970  178.3680  140.6610 C   0  0  0  0  0  0  0  0  0  0  0  0
  188.3990  177.8450  148.1520 C   0  0  0  0  0  3  0  0  0  0  0  0
  187.3700  177.5200  145.5930 C   0  0  0  0  0  0  0  0  0  0  0  0
  186.5520  177.9130  146.6610 C   0  0  0  0  0  3  0  0  0  0  0  0
  187.0790  178.0640  147.9060 N   0  0  0  0  0  0  0  0  0  0  0  0
  189.2490  177.4550  147.1140 C   0  0  0  0  0  3  0  0  0  0  0  0
  188.7280  177.2940  145.8300 C   0  0  0  0  0  3  0  0  0  0  0  0
  1 12  1  0  0  0  0
  2 12  1  0  0  0  0
  2  6  1  1  0  0  0
  5  9  1  0  0  0  0
  5 13  1  0  0  0  0
  8 10  2  0  0  0  0
  8 17  1  0  0  0  0
  9  7  1  0  0  0  0
 10 19  1  0  0  0  0
 11  7  1  6  0  0  0
 11 16  1  0  0  0  0
 11 14  1  0  0  0  0
 12 23  1  1  0  0  0
 13  4  2  0  0  0  0
 14  4  1  6  0  0  0
 14 18  1  0  0  0  0
 15  1  1  0  0  0  0
 16  3  1  6  0  0  0
 16  2  1  0  0  0  0
 17 21  2  0  0  0  0
 18  6  1  0  0  0  0
 19 20  2  0  0  0  0
 20 15  1  0  0  0  0
 21 20  1  0  0  0  0
 21  3  1  0  0  0  0
 23 27  2  0  0  0  0
 23 24  1  0  0  0  0
 24 25  2  0  0  0  0
 25 22  1  0  0  0  0
 26 22  2  0  0  0  0
 27 26  1  0  0  0  0
M  END
>  <MODEL>
1

>  <REMARK>
 VINA RESULT:      -9.1      0.000      0.000
  Name = 
  1 active torsions:
  status: ('A' for Active; 'I' for Inactive)
    1  A    between atoms: C_9  and  C_15
                            x       y       z     vdW  Elec       q    Type
                         _______ _______ _______ _____ _____    ______ ____

>  <TORSDO>
F 1

$$$$
=
 OpenBabel11052413433D

 27 31  0  0  1  0  0  0  0  0999 V2000
  189.1720  178.4540  145.5970 C   0  0  0  0  0  2  0  0  0  0  0  0
  189.7280  176.4330  144.0990 C   0  0  1  0  0  3  0  0  0  0  0  0
  187.4600  176.3540  143.5090 C   0  0  0  0  0  2  0  0  0  0  0  0
  190.7760  177.0840  139.9720 C   0  0  0  0  0  3  0  0  0  0  0  0
  189.1370  178.9280  139.3520 C   0  0  0  0  0  2  0  0  0  0  0  0
  190.8660  175.6420  143.4210 C   0  0  0  0  0  2  0  0  0  0  0  0
  188.0200  177.3270  140.8670 N   0  0  0  0  0  2  0  0  0  0  0  0
  184.4810  178.6580  143.8210 C   0  0  0  0  0  3  0  0  0  0  0  0
  188.3180  178.7390  140.6360 C   0  0  0  0  0  2  0  0  0  0  0  0
  184.7130  179.2800  145.0510 C   0  0  0  0  0  3  0  0  0  0  0  0
  189.0290  176.7200  141.7530 C   0  0  1  0  0  3  0  0  0  0  0  0
  190.2620  177.5200  145.0510 C   0  0  2  0  0  3  0  0  0  0  0  0
  190.1640  177.8530  139.0570 C   0  0  0  0  0  3  0  0  0  0  0  0
  190.4690  177.1770  141.4340 C   0  0  1  0  0  3  0  0  0  0  0  0
  187.9670  177.6970  146.1480 C   0  0  0  0  0  2  0  0  0  0  0  0
  188.7250  176.9920  143.1660 N   0  0  2  0  0  0  0  0  0  0  0  0
  185.3830  177.7070  143.3380 C   0  0  0  0  0  3  0  0  0  0  0  0
  191.5010  176.4150  142.2640 C   0  0  0  0  0  2  0  0  0  0  0  0
  185.8470  178.9500  145.7970 C   0  0  0  0  0  3  0  0  0  0  0  0
  186.7530  177.9940  145.3250 C   0  0  0  0  0  0  0  0  0  0  0  0
  186.5190  177.3680  144.0800 C   0  0  0  0  0  0  0  0  0  0  0  0
  192.6500  175.8860  148.2020 C   0  0  0  0  0  3  0  0  0  0  0  0
  191.0940  176.9490  146.1630 C   0  0  0  0  0  0  0  0  0  0  0  0
  191.1510  177.5560  147.4250 C   0  0  0  0  0  3  0  0  0  0  0  0
  191.9200  177.0150  148.4080 N   0  0  0  0  0  0  0  0  0  0  0  0
  192.6230  175.2520  146.9570 C   0  0  0  0  0  3  0  0  0  0  0  0
  191.8410  175.7910  145.9350 C   0  0  0  0  0  3  0  0  0  0  0  0
  1 15  1  0  0  0  0
  2  6  1  6  0  0  0
  2 12  1  0  0  0  0
  3 21  1  0  0  0  0
  5  9  1  0  0  0  0
  8 10  1  0  0  0  0
  9  7  1  0  0  0  0
 10 19  2  0  0  0  0
 11  7  1  6  0  0  0
 11 16  1  0  0  0  0
 12  1  1  0  0  0  0
 12 23  1  1  0  0  0
 13  5  1  0  0  0  0
 13  4  2  0  0  0  0
 14  4  1  6  0  0  0
 14 11  1  0  0  0  0
 14 18  1  0  0  0  0
 16  3  1  1  0  0  0
 16  2  1  0  0  0  0
 17  8  2  0  0  0  0
 17 21  1  0  0  0  0
 18  6  1  0  0  0  0
 20 19  1  0  0  0  0
 20 15  1  0  0  0  0
 21 20  2  0  0  0  0
 22 25  1  0  0  0  0
 23 24  1  0  0  0  0
 24 25  2  0  0  0  0
 26 22  2  0  0  0  0
 27 23  2  0  0  0  0
 27 26  1  0  0  0  0
M  END
>  <MODEL>
2

>  <REMARK>
 VINA RESULT:      -9.1      2.218      5.543
  Name = 
  1 active torsions:
  status: ('A' for Active; 'I' for Inactive)
    1  A    between atoms: C_9  and  C_15
                            x       y       z     vdW  Elec       q    Type
                         _______ _______ _______ _____ _____    ______ ____

>  <TORSDO>
F 1

$$$$
=
 OpenBabel11052413433D

 27 31  0  0  1  0  0  0  0  0999 V2000
  188.2200  176.3870  142.9380 C   0  0  0  0  0  2  0  0  0  0  0  0
  186.8390  178.5440  143.2140 C   0  0  1  0  0  3  0  0  0  0  0  0
  187.7230  179.2710  141.1680 C   0  0  0  0  0  2  0  0  0  0  0  0
  182.8650  178.7350  141.5610 C   0  0  0  0  0  3  0  0  0  0  0  0
  183.2110  177.5180  139.3540 C   0  0  0  0  0  2  0  0  0  0  0  0
  185.6760  179.2050  143.9820 C   0  0  0  0  0  2  0  0  0  0  0  0
  185.2050  178.8940  139.8410 N   0  0  0  0  0  2  0  0  0  0  0  0
  189.5780  177.6850  138.2830 C   0  0  0  0  0  3  0  0  0  0  0  0
  184.7400  177.5560  139.4830 C   0  0  0  0  0  2  0  0  0  0  0  0
  190.3790  176.7380  138.9270 C   0  0  0  0  0  3  0  0  0  0  0  0
  185.3570  179.0190  141.3020 C   0  0  1  0  0  3  0  0  0  0  0  0
  187.2030  177.1620  143.7880 C   0  0  2  0  0  3  0  0  0  0  0  0
  182.4420  178.3770  140.3380 C   0  0  0  0  0  3  0  0  0  0  0  0
  184.2100  178.3480  142.0900 C   0  0  1  0  0  3  0  0  0  0  0  0
  189.4340  177.2290  142.5560 C   0  0  0  0  0  2  0  0  0  0  0  0
  186.6490  178.4750  141.7480 N   0  0  2  0  0  0  0  0  0  0  0  0
  188.7240  178.5020  139.0270 C   0  0  0  0  0  3  0  0  0  0  0  0
  184.3150  178.6270  143.5890 C   0  0  0  0  0  2  0  0  0  0  0  0
  190.3250  176.6090  140.3180 C   0  0  0  0  0  3  0  0  0  0  0  0
  189.4770  177.4260  141.0730 C   0  0  0  0  0  0  0  0  0  0  0  0
  188.6660  178.3820  140.4190 C   0  0  0  0  0  0  0  0  0  0  0  0
  188.4220  177.3600  147.8840 C   0  0  0  0  0  3  0  0  0  0  0  0
  187.6380  177.2350  145.2230 C   0  0  0  0  0  0  0  0  0  0  0  0
  188.9680  177.0020  145.6000 C   0  0  0  0  0  3  0  0  0  0  0  0
  189.3280  177.0710  146.9100 N   0  0  0  0  0  0  0  0  0  0  0  0
  187.0860  177.5950  147.5490 C   0  0  0  0  0  3  0  0  0  0  0  0
  186.6970  177.5290  146.2110 C   0  0  0  0  0  3  0  0  0  0  0  0
  1 12  1  0  0  0  0
  2 12  1  0  0  0  0
  2  6  1  1  0  0  0
  5  9  1  0  0  0  0
  5 13  1  0  0  0  0
  8 10  2  0  0  0  0
  8 17  1  0  0  0  0
  9  7  1  0  0  0  0
 10 19  1  0  0  0  0
 11  7  1  6  0  0  0
 11 16  1  0  0  0  0
 11 14  1  0  0  0  0
 12 23  1  1  0  0  0
 13  4  2  0  0  0  0
 14  4  1  6  0  0  0
 14 18  1  0  0  0  0
 15  1  1  0  0  0  0
 16  3  1  6  0  0  0
 16  2  1  0  0  0  0
 17 21  2  0  0  0  0
 18  6  1  0  0  0  0
 19 20  2  0  0  0  0
 20 15  1  0  0  0  0
 21 20  1  0  0  0  0
 21  3  1  0  0  0  0
 23 24  2  0  0  0  0
 23 27  1  0  0  0  0
 24 25  1  0  0  0  0
 25 22  2  0  0  0  0
 26 22  1  0  0  0  0
 27 26  2  0  0  0  0
M  END
>  <MODEL>
3

>  <REMARK>
 VINA RESULT:      -8.7      0.898      1.170
  Name = 
  1 active torsions:
  status: ('A' for Active; 'I' for Inactive)
    1  A    between atoms: C_9  and  C_15
                            x       y       z     vdW  Elec       q    Type
                         _______ _______ _______ _____ _____    ______ ____

>  <TORSDO>
F 1

$$$$
=
 OpenBabel11052413433D

 27 31  0  0  1  0  0  0  0  0999 V2000
  186.9940  176.8520  144.0920 C   0  0  0  0  0  2  0  0  0  0  0  0
  187.2870  178.6880  142.3100 C   0  0  1  0  0  3  0  0  0  0  0  0
  189.4540  179.0290  143.1380 C   0  0  0  0  0  2  0  0  0  0  0  0
  188.9240  177.6570  138.4610 C   0  0  0  0  0  3  0  0  0  0  0  0
  190.7380  176.0110  139.1430 C   0  0  0  0  0  2  0  0  0  0  0  0
  186.7150  179.2800  141.0050 C   0  0  0  0  0  2  0  0  0  0  0  0
  190.6310  177.8330  140.8090 N   0  0  0  0  0  2  0  0  0  0  0  0
  191.8300  177.1600  145.4060 C   0  0  0  0  0  3  0  0  0  0  0  0
  190.6270  176.3840  140.6280 C   0  0  0  0  0  2  0  0  0  0  0  0
  190.9630  176.5880  146.3400 C   0  0  0  0  0  3  0  0  0  0  0  0
  189.2530  178.3550  140.8610 C   0  0  1  0  0  3  0  0  0  0  0  0
  186.3730  177.6000  142.9040 C   0  0  2  0  0  3  0  0  0  0  0  0
  190.0100  176.9220  138.1750 C   0  0  0  0  0  3  0  0  0  0  0  0
  188.3150  177.6940  139.8280 C   0  0  1  0  0  3  0  0  0  0  0  0
  187.5850  177.7920  145.1390 C   0  0  0  0  0  2  0  0  0  0  0  0
  188.6840  178.2110  142.2100 N   0  0  2  0  0  0  0  0  0  0  0  0
  191.3220  177.9530  144.3740 C   0  0  0  0  0  3  0  0  0  0  0  0
  186.9410  178.3620  139.8020 C   0  0  0  0  0  2  0  0  0  0  0  0
  189.5860  176.8100  146.2430 C   0  0  0  0  0  3  0  0  0  0  0  0
  189.0680  177.6080  145.2170 C   0  0  0  0  0  0  0  0  0  0  0  0
  189.9470  178.1840  144.2710 C   0  0  0  0  0  0  0  0  0  0  0  0
  182.4930  179.1050  143.8920 C   0  0  0  0  0  3  0  0  0  0  0  0
  185.0080  178.1230  143.2460 C   0  0  0  0  0  0  0  0  0  0  0  0
  183.9950  178.2170  142.2810 C   0  0  0  0  0  3  0  0  0  0  0  0
  182.7700  178.7000  142.6230 N   0  0  0  0  0  0  0  0  0  0  0  0
  183.4760  179.0300  144.8820 C   0  0  0  0  0  3  0  0  0  0  0  0
  184.7390  178.5370  144.5520 C   0  0  0  0  0  3  0  0  0  0  0  0
  1 15  1  0  0  0  0
  2  6  1  6  0  0  0
  2 12  1  0  0  0  0
  3 21  1  0  0  0  0
  5  9  1  0  0  0  0
  8 10  1  0  0  0  0
  9  7  1  0  0  0  0
 11  7  1  1  0  0  0
 11 16  1  0  0  0  0
 12 23  1  1  0  0  0
 12  1  1  0  0  0  0
 13  4  2  0  0  0  0
 13  5  1  0  0  0  0
 14  4  1  6  0  0  0
 14 11  1  0  0  0  0
 15 20  1  0  0  0  0
 16  2  1  0  0  0  0
 16  3  1  1  0  0  0
 17  8  2  0  0  0  0
 18 14  1  0  0  0  0
 18  6  1  0  0  0  0
 19 10  2  0  0  0  0
 20 19  1  0  0  0  0
 21 17  1  0  0  0  0
 21 20  2  0  0  0  0
 22 26  1  0  0  0  0
 23 27  1  0  0  0  0
 24 25  1  0  0  0  0
 24 23  2  0  0  0  0
 25 22  2  0  0  0  0
 27 26  2  0  0  0  0
M  END
>  <MODEL>
4

>  <REMARK>
 VINA RESULT:      -8.4      1.926      5.529
  Name = 
  1 active torsions:
  status: ('A' for Active; 'I' for Inactive)
    1  A    between atoms: C_9  and  C_15
                            x       y       z     vdW  Elec       q    Type
                         _______ _______ _______ _____ _____    ______ ____

>  <TORSDO>
F 1

$$$$
=
 OpenBabel11052413433D

 27 31  0  0  1  0  0  0  0  0999 V2000
  189.6830  175.4430  138.0340 C   0  0  0  0  0  2  0  0  0  0  0  0
  190.8730  177.2810  139.3920 C   0  0  1  0  0  3  0  0  0  0  0  0
  188.9330  178.5800  139.1740 C   0  0  0  0  0  2  0  0  0  0  0  0
  190.4410  177.3590  143.6770 C   0  0  0  0  0  3  0  0  0  0  0  0
  187.9820  176.7560  143.9170 C   0  0  0  0  0  2  0  0  0  0  0  0
  192.0680  177.5890  140.3180 C   0  0  0  0  0  2  0  0  0  0  0  0
  188.2700  178.2160  141.9440 N   0  0  0  0  0  2  0  0  0  0  0  0
  185.3480  177.9730  138.1460 C   0  0  0  0  0  3  0  0  0  0  0  0
  187.7080  176.9540  142.4200 C   0  0  0  0  0  2  0  0  0  0  0  0
  185.4850  177.0090  137.1440 C   0  0  0  0  0  3  0  0  0  0  0  0
  189.6170  178.0070  141.3850 C   0  0  1  0  0  3  0  0  0  0  0  0
  190.9450  175.8590  138.8030 C   0  0  2  0  0  3  0  0  0  0  0  0
  189.3250  177.2520  144.4150 C   0  0  0  0  0  3  0  0  0  0  0  0
  190.4740  177.0300  142.2180 C   0  0  1  0  0  3  0  0  0  0  0  0
  189.2300  176.4980  137.0290 C   0  0  0  0  0  2  0  0  0  0  0  0
  189.5460  177.5400  139.9920 N   0  0  2  0  0  0  0  0  0  0  0  0
  186.4800  178.4750  138.7930 C   0  0  0  0  0  3  0  0  0  0  0  0
  191.9110  176.9550  141.7010 C   0  0  0  0  0  2  0  0  0  0  0  0
  186.7540  176.5460  136.7880 C   0  0  0  0  0  3  0  0  0  0  0  0
  187.8950  177.0470  137.4260 C   0  0  0  0  0  0  0  0  0  0  0  0
  187.7550  178.0210  138.4410 C   0  0  0  0  0  0  0  0  0  0  0  0
  194.4530  175.2240  136.4390 C   0  0  0  0  0  3  0  0  0  0  0  0
  192.1800  175.6430  137.9780 C   0  0  0  0  0  0  0  0  0  0  0  0
  192.9900  176.7120  137.5730 C   0  0  0  0  0  3  0  0  0  0  0  0
  194.1000  176.4820  136.8210 N   0  0  0  0  0  0  0  0  0  0  0  0
  193.6700  174.1310  136.8190 C   0  0  0  0  0  3  0  0  0  0  0  0
  192.5280  174.3470  137.5910 C   0  0  0  0  0  3  0  0  0  0  0  0
  1 12  1  0  0  0  0
  2 16  1  0  0  0  0
  2  6  1  1  0  0  0
  4 13  2  0  0  0  0
  5 13  1  0  0  0  0
  6 18  1  0  0  0  0
  7  9  1  0  0  0  0
  8 17  1  0  0  0  0
  9  5  1  0  0  0  0
 10  8  2  0  0  0  0
 11  7  1  1  0  0  0
 11 14  1  0  0  0  0
 12 23  1  6  0  0  0
 12  2  1  0  0  0  0
 14 18  1  6  0  0  0
 14  4  1  0  0  0  0
 15 20  1  0  0  0  0
 15  1  1  0  0  0  0
 16  3  1  6  0  0  0
 16 11  1  0  0  0  0
 19 10  1  0  0  0  0
 19 20  2  0  0  0  0
 20 21  1  0  0  0  0
 21 17  2  0  0  0  0
 21  3  1  0  0  0  0
 22 26  2  0  0  0  0
 22 25  1  0  0  0  0
 24 23  1  0  0  0  0
 25 24  2  0  0  0  0
 26 27  1  0  0  0  0
 27 23  2  0  0  0  0
M  END
>  <MODEL>
5

>  <REMARK>
 VINA RESULT:      -7.8      3.246      7.421
  Name = 
  1 active torsions:
  status: ('A' for Active; 'I' for Inactive)
    1  A    between atoms: C_9  and  C_15
                            x       y       z     vdW  Elec       q    Type
                         _______ _______ _______ _____ _____    ______ ____

>  <TORSDO>
F 1

$$$$
=
 OpenBabel11052413433D

 27 31  0  0  1  0  0  0  0  0999 V2000
  186.6820  179.1390  142.3670 C   0  0  0  0  0  2  0  0  0  0  0  0
  186.0650  177.4630  144.2240 C   0  0  1  0  0  3  0  0  0  0  0  0
  187.9300  176.1960  143.5830 C   0  0  0  0  0  2  0  0  0  0  0  0
  187.7530  177.9510  148.1580 C   0  0  0  0  0  3  0  0  0  0  0  0
  190.1290  178.6400  147.5720 C   0  0  0  0  0  2  0  0  0  0  0  0
  185.2200  177.2480  145.4970 C   0  0  0  0  0  2  0  0  0  0  0  0
  189.3610  176.9300  145.9610 N   0  0  0  0  0  2  0  0  0  0  0  0
  191.0040  176.7530  141.4560 C   0  0  0  0  0  3  0  0  0  0  0  0
  189.9590  178.2560  146.0950 C   0  0  0  0  0  2  0  0  0  0  0  0
  190.5160  177.5760  140.4380 C   0  0  0  0  0  3  0  0  0  0  0  0
  187.8980  177.0320  145.8150 C   0  0  1  0  0  3  0  0  0  0  0  0
  185.7330  178.7950  143.5250 C   0  0  2  0  0  3  0  0  0  0  0  0
  189.0290  178.1800  148.5060 C   0  0  0  0  0  3  0  0  0  0  0  0
  187.2680  178.0870  146.7490 C   0  0  1  0  0  3  0  0  0  0  0  0
  186.8810  177.9750  141.4010 C   0  0  0  0  0  2  0  0  0  0  0  0
  187.5240  177.3170  144.4210 N   0  0  2  0  0  0  0  0  0  0  0  0
  190.1480  176.3110  142.4680 C   0  0  0  0  0  3  0  0  0  0  0  0
  185.7410  178.0590  146.6850 C   0  0  0  0  0  2  0  0  0  0  0  0
  189.1720  177.9570  140.4310 C   0  0  0  0  0  3  0  0  0  0  0  0
  188.3050  177.5150  141.4370 C   0  0  0  0  0  0  0  0  0  0  0  0
  188.8000  176.6840  142.4680 C   0  0  0  0  0  0  0  0  0  0  0  0
  181.6400  179.0360  142.3050 C   0  0  0  0  0  3  0  0  0  0  0  0
  184.2980  178.8720  143.0920 C   0  0  0  0  0  0  0  0  0  0  0  0
  183.9050  178.5410  141.7880 C   0  0  0  0  0  3  0  0  0  0  0  0
  182.5960  178.6280  141.4270 N   0  0  0  0  0  0  0  0  0  0  0  0
  181.9920  179.3780  143.6130 C   0  0  0  0  0  3  0  0  0  0  0  0
  183.3290  179.2960  144.0040 C   0  0  0  0  0  3  0  0  0  0  0  0
  1 12  1  0  0  0  0
  2 16  1  0  0  0  0
  2  6  1  1  0  0  0
  4 13  2  0  0  0  0
  5 13  1  0  0  0  0
  6 18  1  0  0  0  0
  7  9  1  0  0  0  0
  8 17  1  0  0  0  0
  9  5  1  0  0  0  0
 10  8  2  0  0  0  0
 11  7  1  6  0  0  0
 11 14  1  0  0  0  0
 12 23  1  6  0  0  0
 12  2  1  0  0  0  0
 14 18  1  1  0  0  0
 14  4  1  0  0  0  0
 15 20  1  0  0  0  0
 15  1  1  0  0  0  0
 16  3  1  6  0  0  0
 16 11  1  0  0  0  0
 17 21  2  0  0  0  0
 19 10  1  0  0  0  0
 19 20  2  0  0  0  0
 20 21  1  0  0  0  0
 21  3  1  0  0  0  0
 22 26  1  0  0  0  0
 23 27  1  0  0  0  0
 24 23  2  0  0  0  0
 25 24  1  0  0  0  0
 25 22  2  0  0  0  0
 26 27  2  0  0  0  0
M  END
>  <MODEL>
6

>  <REMARK>
 VINA RESULT:      -7.4      1.513      5.724
  Name = 
  1 active torsions:
  status: ('A' for Active; 'I' for Inactive)
    1  A    between atoms: C_9  and  C_15
                            x       y       z     vdW  Elec       q    Type
                         _______ _______ _______ _____ _____    ______ ____

>  <TORSDO>
F 1

$$$$
=
 OpenBabel11052413433D

 27 31  0  0  1  0  0  0  0  0999 V2000
  188.0880  178.9510  141.4350 C   0  0  0  0  0  2  0  0  0  0  0  0
  186.2620  177.6050  142.6550 C   0  0  1  0  0  3  0  0  0  0  0  0
  187.9500  176.1690  143.4200 C   0  0  0  0  0  2  0  0  0  0  0  0
  185.2670  178.5990  146.7270 C   0  0  0  0  0  3  0  0  0  0  0  0
  187.5770  179.0800  147.6760 C   0  0  0  0  0  2  0  0  0  0  0  0
  184.7990  177.6240  143.1470 C   0  0  0  0  0  2  0  0  0  0  0  0
  187.7280  177.1850  146.0960 N   0  0  0  0  0  2  0  0  0  0  0  0
  191.7230  176.2530  143.6070 C   0  0  0  0  0  3  0  0  0  0  0  0
  188.2880  178.4870  146.4510 C   0  0  0  0  0  2  0  0  0  0  0  0
  192.0640  176.9360  142.4370 C   0  0  0  0  0  3  0  0  0  0  0  0
  186.6810  177.3320  145.0690 C   0  0  1  0  0  3  0  0  0  0  0  0
  186.5980  178.8300  141.7840 C   0  0  2  0  0  3  0  0  0  0  0  0
  186.0870  178.8180  147.7670 C   0  0  0  0  0  3  0  0  0  0  0  0
  185.7570  178.5450  145.3140 C   0  0  1  0  0  3  0  0  0  0  0  0
  188.6790  177.6460  140.9080 C   0  0  0  0  0  2  0  0  0  0  0  0
  187.2690  177.4210  143.7230 N   0  0  2  0  0  0  0  0  0  0  0  0
  190.3810  176.0100  143.9090 C   0  0  0  0  0  3  0  0  0  0  0  0
  184.5940  178.5800  144.3240 C   0  0  0  0  0  2  0  0  0  0  0  0
  191.0620  177.3750  141.5670 C   0  0  0  0  0  3  0  0  0  0  0  0
  189.7150  177.1300  141.8570 C   0  0  0  0  0  0  0  0  0  0  0  0
  189.3710  176.4420  143.0430 C   0  0  0  0  0  0  0  0  0  0  0  0
  184.1530  179.0750  138.2830 C   0  0  0  0  0  3  0  0  0  0  0  0
  185.7440  178.9090  140.5530 C   0  0  0  0  0  0  0  0  0  0  0  0
  186.2460  178.5760  139.2870 C   0  0  0  0  0  3  0  0  0  0  0  0
  185.4460  178.6640  138.1900 N   0  0  0  0  0  0  0  0  0  0  0  0
  183.6150  179.4190  139.5260 C   0  0  0  0  0  3  0  0  0  0  0  0
  184.4180  179.3350  140.6630 C   0  0  0  0  0  3  0  0  0  0  0  0
  1 12  1  0  0  0  0
  2  6  1  1  0  0  0
  2 16  1  0  0  0  0
  4 13  2  0  0  0  0
  5 13  1  0  0  0  0
  6 18  1  0  0  0  0
  7  9  1  0  0  0  0
  8 17  1  0  0  0  0
  9  5  1  0  0  0  0
 10  8  2  0  0  0  0
 11 14  1  0  0  0  0
 11  7  1  1  0  0  0
 12 23  1  6  0  0  0
 12  2  1  0  0  0  0
 14 18  1  6  0  0  0
 14  4  1  0  0  0  0
 15  1  1  0  0  0  0
 15 20  1  0  0  0  0
 16  3  1  6  0  0  0
 16 11  1  0  0  0  0
 19 20  2  0  0  0  0
 19 10  1  0  0  0  0
 20 21  1  0  0  0  0
 21  3  1  0  0  0  0
 21 17  2  0  0  0  0
 22 26  1  0  0  0  0
 23 27  1  0  0  0  0
 24 23  2  0  0  0  0
 25 22  2  0  0  0  0
 25 24  1  0  0  0  0
 26 27  2  0  0  0  0
M  END
>  <MODEL>
7

>  <REMARK>
 VINA RESULT:      -7.3      1.722      5.795
  Name = 
  1 active torsions:
  status: ('A' for Active; 'I' for Inactive)
    1  A    between atoms: C_9  and  C_15
                            x       y       z     vdW  Elec       q    Type
                         _______ _______ _______ _____ _____    ______ ____

>  <TORSDO>
F 1

$$$$
=
 OpenBabel11052413433D

 27 31  0  0  1  0  0  0  0  0999 V2000
  186.8130  179.3890  141.3380 C   0  0  0  0  0  2  0  0  0  0  0  0
  187.0310  177.4090  142.9720 C   0  0  1  0  0  3  0  0  0  0  0  0
  188.5060  176.4190  141.4420 C   0  0  0  0  0  2  0  0  0  0  0  0
  190.1490  177.4530  145.9450 C   0  0  0  0  0  3  0  0  0  0  0  0
  192.0740  178.4270  144.5980 C   0  0  0  0  0  2  0  0  0  0  0  0
  186.7740  176.9340  144.4170 C   0  0  0  0  0  2  0  0  0  0  0  0
  190.7580  176.9150  143.1520 N   0  0  0  0  0  2  0  0  0  0  0  0
  190.4510  177.5520  138.4070 C   0  0  0  0  0  3  0  0  0  0  0  0
  191.3320  178.2540  143.2650 C   0  0  0  0  0  2  0  0  0  0  0  0
  189.5780  178.4710  137.8200 C   0  0  0  0  0  3  0  0  0  0  0  0
  189.3580  176.9080  143.6140 C   0  0  1  0  0  3  0  0  0  0  0  0
  186.4180  178.7950  142.6980 C   0  0  2  0  0  3  0  0  0  0  0  0
  191.4520  177.7390  145.7960 C   0  0  0  0  0  3  0  0  0  0  0  0
  189.1350  177.7540  144.8860 C   0  0  1  0  0  3  0  0  0  0  0  0
  186.6310  178.4030  140.1880 C   0  0  0  0  0  2  0  0  0  0  0  0
  188.4480  177.3630  142.5500 N   0  0  2  0  0  0  0  0  0  0  0  0
  190.0850  176.8920  139.5820 C   0  0  0  0  0  3  0  0  0  0  0  0
  187.7130  177.6020  145.4240 C   0  0  0  0  0  2  0  0  0  0  0  0
  188.3370  178.7300  138.4080 C   0  0  0  0  0  3  0  0  0  0  0  0
  187.9580  178.0690  139.5820 C   0  0  0  0  0  0  0  0  0  0  0  0
  188.8430  177.1420  140.1760 C   0  0  0  0  0  0  0  0  0  0  0  0
  182.1760  178.8560  143.2470 C   0  0  0  0  0  3  0  0  0  0  0  0
  184.9290  178.8100  142.8850 C   0  0  0  0  0  0  0  0  0  0  0  0
  184.0510  178.5890  141.8150 C   0  0  0  0  0  3  0  0  0  0  0  0
  182.7060  178.6140  142.0180 N   0  0  0  0  0  0  0  0  0  0  0  0
  183.0170  179.0840  144.3400 C   0  0  0  0  0  3  0  0  0  0  0  0
  184.3990  179.0620  144.1530 C   0  0  0  0  0  3  0  0  0  0  0  0
  1 12  1  0  0  0  0
  2  6  1  1  0  0  0
  5 13  1  0  0  0  0
  6 18  1  0  0  0  0
  7  9  1  0  0  0  0
  8 17  1  0  0  0  0
  9  5  1  0  0  0  0
 10  8  2  0  0  0  0
 10 19  1  0  0  0  0
 11  7  1  6  0  0  0
 11 14  1  0  0  0  0
 12 23  1  6  0  0  0
 12  2  1  0  0  0  0
 13  4  2  0  0  0  0
 14 18  1  1  0  0  0
 14  4  1  0  0  0  0
 15  1  1  0  0  0  0
 16  3  1  6  0  0  0
 16  2  1  0  0  0  0
 16 11  1  0  0  0  0
 17 21  2  0  0  0  0
 19 20  2  0  0  0  0
 20 21  1  0  0  0  0
 20 15  1  0  0  0  0
 21  3  1  0  0  0  0
 22 26  1  0  0  0  0
 23 27  1  0  0  0  0
 24 25  1  0  0  0  0
 24 23  2  0  0  0  0
 25 22  2  0  0  0  0
 27 26  2  0  0  0  0
M  END
>  <MODEL>
8

>  <REMARK>
 VINA RESULT:      -7.3      1.811      5.547
  Name = 
  1 active torsions:
  status: ('A' for Active; 'I' for Inactive)
    1  A    between atoms: C_9  and  C_15
                            x       y       z     vdW  Elec       q    Type
                         _______ _______ _______ _____ _____    ______ ____

>  <TORSDO>
F 1

$$$$
=
 OpenBabel11052413433D

 27 31  0  0  1  0  0  0  0  0999 V2000
  184.5120  179.0150  139.8340 C   0  0  0  0  0  2  0  0  0  0  0  0
  182.6050  178.0310  138.4080 C   0  0  1  0  0  3  0  0  0  0  0  0
  181.3350  177.8690  140.3720 C   0  0  0  0  0  2  0  0  0  0  0  0
  179.6510  180.6710  136.7170 C   0  0  0  0  0  3  0  0  0  0  0  0
  179.3170  182.3020  138.6400 C   0  0  0  0  0  2  0  0  0  0  0  0
  182.0780  177.8370  136.9710 C   0  0  0  0  0  2  0  0  0  0  0  0
  179.6270  180.0260  139.5530 N   0  0  0  0  0  2  0  0  0  0  0  0
  181.5510  179.2560  143.8800 C   0  0  0  0  0  3  0  0  0  0  0  0
  180.0820  181.4120  139.6300 C   0  0  0  0  0  2  0  0  0  0  0  0
  182.9280  179.2690  144.1110 C   0  0  0  0  0  3  0  0  0  0  0  0
  180.4750  179.2500  138.6300 C   0  0  1  0  0  3  0  0  0  0  0  0
  184.0260  178.6260  138.4300 C   0  0  2  0  0  3  0  0  0  0  0  0
  178.9700  181.6650  137.3090 C   0  0  0  0  0  3  0  0  0  0  0  0
  180.8450  180.0280  137.3490 C   0  0  1  0  0  3  0  0  0  0  0  0
  184.2990  177.9060  140.8600 C   0  0  0  0  0  2  0  0  0  0  0  0
  181.7000  178.7870  139.3000 N   0  0  2  0  0  0  0  0  0  0  0  0
  181.0500  178.7940  142.6600 C   0  0  0  0  0  3  0  0  0  0  0  0
  181.5920  179.1470  136.3480 C   0  0  0  0  0  2  0  0  0  0  0  0
  183.8070  178.8200  143.1210 C   0  0  0  0  0  3  0  0  0  0  0  0
  183.3150  178.3490  141.8980 C   0  0  0  0  0  0  0  0  0  0  0  0
  181.9210  178.3390  141.6650 C   0  0  0  0  0  0  0  0  0  0  0  0
  186.8920  176.1400  136.4550 C   0  0  0  0  0  3  0  0  0  0  0  0
  185.0250  177.7500  137.7330 C   0  0  0  0  0  0  0  0  0  0  0  0
  184.7460  176.4090  137.4360 C   0  0  0  0  0  3  0  0  0  0  0  0
  185.6760  175.6400  136.8080 N   0  0  0  0  0  0  0  0  0  0  0  0
  187.2100  177.4710  136.7350 C   0  0  0  0  0  3  0  0  0  0  0  0
  186.2700  178.2760  137.3790 C   0  0  0  0  0  3  0  0  0  0  0  0
  1 15  1  0  0  0  0
  2  6  1  6  0  0  0
  2 12  1  0  0  0  0
  2 16  1  0  0  0  0
  3 21  1  0  0  0  0
  4 13  2  0  0  0  0
  4 14  1  0  0  0  0
  5  9  1  0  0  0  0
  7  9  1  0  0  0  0
  8 10  1  0  0  0  0
 11 16  1  0  0  0  0
 11  7  1  1  0  0  0
 12 23  1  1  0  0  0
 12  1  1  0  0  0  0
 13  5  1  0  0  0  0
 14 18  1  6  0  0  0
 14 11  1  0  0  0  0
 15 20  1  0  0  0  0
 16  3  1  1  0  0  0
 17  8  2  0  0  0  0
 18  6  1  0  0  0  0
 19 10  2  0  0  0  0
 20 19  1  0  0  0  0
 21 20  2  0  0  0  0
 21 17  1  0  0  0  0
 22 26  2  0  0  0  0
 22 25  1  0  0  0  0
 24 23  1  0  0  0  0
 25 24  2  0  0  0  0
 26 27  1  0  0  0  0
 27 23  2  0  0  0  0
M  END
>  <MODEL>
9

>  <REMARK>
 VINA RESULT:      -6.6      4.197      7.526
  Name = 
  1 active torsions:
  status: ('A' for Active; 'I' for Inactive)
    1  A    between atoms: C_9  and  C_15
                            x       y       z     vdW  Elec       q    Type
                         _______ _______ _______ _____ _____    ______ ____

>  <TORSDO>
F 1

$$$$
