=
 OpenBabel11052413493D

 27 31  0  0  1  0  0  0  0  0999 V2000
  184.9210  178.7470  142.2890 C   0  0  0  0  0  0  0  0  0  0  0  0
  185.1070  178.4200  146.6240 S   0  0  0  0  0  0  0  0  0  0  0  0
  187.4530  177.3040  147.5210 N   0  0  0  0  0  1  0  0  0  0  0  0
  183.7760  179.2300  143.0580 C   0  0  0  0  0  0  0  0  0  0  0  0
  186.9880  177.6530  145.0940 C   0  0  0  0  0  0  0  0  0  0  0  0
  188.5390  177.0080  144.5640 Cl  0  0  0  0  0  0  0  0  0  0  0  0
  185.9880  178.1520  144.2410 C   0  0  0  0  0  0  0  0  0  0  0  0
  183.7910  179.3000  141.6510 C   0  0  2  0  0  3  0  0  0  0  0  0
  186.6360  177.7370  146.4390 C   0  0  0  0  0  0  0  0  0  0  0  0
  184.8260  178.6410  144.9840 C   0  0  0  0  0  0  0  0  0  0  0  0
  186.0590  178.1930  142.8020 C   0  0  0  0  0  0  0  0  0  0  0  0
  183.6360  179.2150  144.4180 C   0  0  0  0  0  3  0  0  0  0  0  0
  181.3130  176.3340  139.8330 N   0  0  0  0  0  0  0  0  0  0  0  0
  182.9280  178.2280  141.0490 C   0  0  0  0  0  0  0  0  0  0  0  0
  181.5390  178.2650  141.2200 C   0  0  0  0  0  3  0  0  0  0  0  0
  180.7420  177.2960  140.6070 C   0  0  0  0  0  3  0  0  0  0  0  0
  182.6560  176.2840  139.6360 C   0  0  0  0  0  3  0  0  0  0  0  0
  183.4880  177.2340  140.2320 C   0  0  0  0  0  3  0  0  0  0  0  0
  187.1320  177.7200  142.0440 O   0  0  0  0  0  0  0  0  0  0  0  0
  186.7180  178.4360  139.1320 O   0  0  0  0  0  1  0  0  0  0  0  0
  191.4880  177.1810  141.9780 C   0  0  0  0  0  1  0  0  0  0  0  0
  190.1050  177.2550  141.3670 C   0  0  1  0  0  3  0  0  0  0  0  0
  187.8940  178.1850  139.8260 C   0  0  0  0  0  0  0  0  0  0  0  0
  189.4090  178.5270  141.8300 C   0  0  0  0  0  2  0  0  0  0  0  0
  190.2210  177.2880  139.8470 C   0  0  0  0  0  2  0  0  0  0  0  0
  188.8930  177.5550  139.1970 C   0  0  0  0  0  3  0  0  0  0  0  0
  187.9770  178.5750  141.2820 C   0  0  2  0  0  3  0  0  0  0  0  0
  1 11  2  0  0  0  0
  1  4  1  0  0  0  0
  4 12  2  0  0  0  0
  5  9  2  0  0  0  0
  6  5  1  0  0  0  0
  7 10  2  0  0  0  0
  7  5  1  0  0  0  0
  8 14  1  6  0  0  0
  8  1  1  0  0  0  0
  8  4  1  0  0  0  0
  9  2  1  0  0  0  0
  9  3  1  0  0  0  0
 10  2  1  0  0  0  0
 11  7  1  0  0  0  0
 12 10  1  0  0  0  0
 13 16  1  0  0  0  0
 14 15  1  0  0  0  0
 16 15  2  0  0  0  0
 17 13  2  0  0  0  0
 17 18  1  0  0  0  0
 18 14  2  0  0  0  0
 19 11  1  0  0  0  0
 20 23  1  0  0  0  0
 22 24  1  0  0  0  0
 22 21  1  1  0  0  0
 23 27  1  0  0  0  0
 25 22  1  0  0  0  0
 26 23  2  0  0  0  0
 26 25  1  0  0  0  0
 27 24  1  0  0  0  0
 27 19  1  1  0  0  0
M  END
>  <MODEL>
1

>  <REMARK>
 VINA RESULT:      -8.3      0.000      0.000
  Name = 
  3 active torsions:
  status: ('A' for Active; 'I' for Inactive)
    1  A    between atoms: O_3  and  C_19
    2  A    between atoms: O_3  and  C_26
    3  A    between atoms: C_9  and  C_15
                            x       y       z     vdW  Elec       q    Type
                         _______ _______ _______ _____ _____    ______ ____

>  <TORSDO>
F 3

$$$$
=
 OpenBabel11052413493D

 27 31  0  0  1  0  0  0  0  0999 V2000
  190.2800  178.1700  142.7780 C   0  0  0  0  0  0  0  0  0  0  0  0
  190.2860  177.1460  138.5490 S   0  0  0  0  0  0  0  0  0  0  0  0
  187.7760  177.1790  137.4290 N   0  0  0  0  0  1  0  0  0  0  0  0
  191.5650  177.8680  142.1520 C   0  0  0  0  0  0  0  0  0  0  0  0
  188.1660  177.7150  139.8340 C   0  0  0  0  0  0  0  0  0  0  0  0
  186.4690  178.0330  140.1810 Cl  0  0  0  0  0  0  0  0  0  0  0  0
  189.2120  177.8130  140.7700 C   0  0  0  0  0  0  0  0  0  0  0  0
  191.4810  178.2080  143.5170 C   0  0  2  0  0  3  0  0  0  0  0  0
  188.6140  177.3530  138.5660 C   0  0  0  0  0  0  0  0  0  0  0  0
  190.5140  177.5120  140.1710 C   0  0  0  0  0  0  0  0  0  0  0  0
  189.0620  178.1610  142.1610 C   0  0  0  0  0  0  0  0  0  0  0  0
  191.7820  177.5230  140.8470 C   0  0  0  0  0  3  0  0  0  0  0  0
  192.0200  174.7540  145.9710 N   0  0  0  0  0  0  0  0  0  0  0  0
  191.6230  176.9890  144.3850 C   0  0  0  0  0  0  0  0  0  0  0  0
  191.7970  175.7280  143.8020 C   0  0  0  0  0  3  0  0  0  0  0  0
  191.9870  174.6120  144.6190 C   0  0  0  0  0  3  0  0  0  0  0  0
  191.8710  175.9680  146.5630 C   0  0  0  0  0  3  0  0  0  0  0  0
  191.6780  177.1090  145.7820 C   0  0  0  0  0  3  0  0  0  0  0  0
  187.8440  178.4340  142.7860 O   0  0  0  0  0  0  0  0  0  0  0  0
  184.8260  178.2030  142.7660 O   0  0  0  0  0  1  0  0  0  0  0  0
  188.5430  177.5770  147.0340 C   0  0  0  0  0  1  0  0  0  0  0  0
  187.7200  178.0100  145.8380 C   0  0  1  0  0  3  0  0  0  0  0  0
  185.7250  177.9950  143.8020 C   0  0  0  0  0  0  0  0  0  0  0  0
  187.8560  176.9790  144.7260 C   0  0  0  0  0  2  0  0  0  0  0  0
  186.2520  178.1060  146.2380 C   0  0  0  0  0  2  0  0  0  0  0  0
  185.3700  178.3430  145.0450 C   0  0  0  0  0  3  0  0  0  0  0  0
  187.0930  177.4430  143.4800 C   0  0  2  0  0  3  0  0  0  0  0  0
  1  8  1  0  0  0  0
  2  9  1  0  0  0  0
  2 10  1  0  0  0  0
  3  9  1  0  0  0  0
  4  1  2  0  0  0  0
  4  8  1  0  0  0  0
  5  6  1  0  0  0  0
  5  7  1  0  0  0  0
  7 11  2  0  0  0  0
  8 14  1  1  0  0  0
  9  5  2  0  0  0  0
 10  7  1  0  0  0  0
 10 12  2  0  0  0  0
 11  1  1  0  0  0  0
 11 19  1  0  0  0  0
 12  4  1  0  0  0  0
 13 17  1  0  0  0  0
 14 18  1  0  0  0  0
 15 14  2  0  0  0  0
 15 16  1  0  0  0  0
 16 13  2  0  0  0  0
 18 17  2  0  0  0  0
 20 23  1  0  0  0  0
 22 25  1  0  0  0  0
 22 21  1  1  0  0  0
 23 26  2  0  0  0  0
 24 22  1  0  0  0  0
 26 25  1  0  0  0  0
 27 19  1  1  0  0  0
 27 23  1  0  0  0  0
 27 24  1  0  0  0  0
M  END
>  <MODEL>
2

>  <REMARK>
 VINA RESULT:      -8.3      3.693      7.719
  Name = 
  3 active torsions:
  status: ('A' for Active; 'I' for Inactive)
    1  A    between atoms: O_3  and  C_19
    2  A    between atoms: O_3  and  C_26
    3  A    between atoms: C_9  and  C_15
                            x       y       z     vdW  Elec       q    Type
                         _______ _______ _______ _____ _____    ______ ____

>  <TORSDO>
F 3

$$$$
=
 OpenBabel11052413493D

 27 31  0  0  1  0  0  0  0  0999 V2000
  189.9840  178.6190  142.9150 C   0  0  0  0  0  0  0  0  0  0  0  0
  190.9840  176.4870  139.2560 S   0  0  0  0  0  0  0  0  0  0  0  0
  188.8840  176.3360  137.4890 N   0  0  0  0  0  1  0  0  0  0  0  0
  191.3420  178.0970  142.7810 C   0  0  0  0  0  0  0  0  0  0  0  0
  188.6860  177.4850  139.6950 C   0  0  0  0  0  0  0  0  0  0  0  0
  187.0100  177.9660  139.4490 Cl  0  0  0  0  0  0  0  0  0  0  0  0
  189.4510  177.7820  140.8380 C   0  0  0  0  0  0  0  0  0  0  0  0
  190.9420  178.7980  143.9360 C   0  0  2  0  0  3  0  0  0  0  0  0
  189.4050  176.7710  138.7400 C   0  0  0  0  0  0  0  0  0  0  0  0
  190.8170  177.2680  140.7330 C   0  0  0  0  0  0  0  0  0  0  0  0
  188.9810  178.5010  141.9960 C   0  0  0  0  0  0  0  0  0  0  0  0
  191.8530  177.4010  141.7210 C   0  0  0  0  0  3  0  0  0  0  0  0
  190.3170  176.2040  147.2710 N   0  0  0  0  0  0  0  0  0  0  0  0
  190.6980  177.8550  145.0800 C   0  0  0  0  0  0  0  0  0  0  0  0
  191.6870  176.9390  145.4580 C   0  0  0  0  0  3  0  0  0  0  0  0
  191.4720  176.1090  146.5610 C   0  0  0  0  0  3  0  0  0  0  0  0
  189.3470  177.0960  146.9370 C   0  0  0  0  0  3  0  0  0  0  0  0
  189.5230  177.9430  145.8420 C   0  0  0  0  0  3  0  0  0  0  0  0
  187.6840  178.9920  142.1570 O   0  0  0  0  0  0  0  0  0  0  0  0
  185.0130  179.4740  140.8180 O   0  0  0  0  0  1  0  0  0  0  0  0
  186.2270  177.6100  146.0600 C   0  0  0  0  0  1  0  0  0  0  0  0
  186.1210  178.3300  144.7320 C   0  0  1  0  0  3  0  0  0  0  0  0
  185.2950  178.9670  142.0790 C   0  0  0  0  0  0  0  0  0  0  0  0
  186.5710  177.4020  143.6120 C   0  0  0  0  0  2  0  0  0  0  0  0
  184.6710  178.7280  144.4830 C   0  0  0  0  0  2  0  0  0  0  0  0
  184.4790  179.2730  143.0950 C   0  0  0  0  0  3  0  0  0  0  0  0
  186.5460  178.1440  142.2690 C   0  0  2  0  0  3  0  0  0  0  0  0
  1  8  1  0  0  0  0
  2 10  1  0  0  0  0
  3  9  1  0  0  0  0
  4  1  1  0  0  0  0
  4  8  1  0  0  0  0
  5  7  1  0  0  0  0
  6  5  1  0  0  0  0
  7 11  1  0  0  0  0
  8 14  1  1  0  0  0
  9  2  1  0  0  0  0
  9  5  2  0  0  0  0
 10  7  2  0  0  0  0
 10 12  1  0  0  0  0
 11 19  1  0  0  0  0
 11  1  2  0  0  0  0
 12  4  2  0  0  0  0
 14 15  2  0  0  0  0
 14 18  1  0  0  0  0
 15 16  1  0  0  0  0
 16 13  2  0  0  0  0
 17 13  1  0  0  0  0
 18 17  2  0  0  0  0
 20 23  1  0  0  0  0
 22 21  1  1  0  0  0
 23 27  1  0  0  0  0
 23 26  2  0  0  0  0
 24 22  1  0  0  0  0
 25 22  1  0  0  0  0
 26 25  1  0  0  0  0
 27 19  1  1  0  0  0
 27 24  1  0  0  0  0
M  END
>  <MODEL>
3

>  <REMARK>
 VINA RESULT:      -8.2      3.278      7.430
  Name = 
  3 active torsions:
  status: ('A' for Active; 'I' for Inactive)
    1  A    between atoms: O_3  and  C_19
    2  A    between atoms: O_3  and  C_26
    3  A    between atoms: C_9  and  C_15
                            x       y       z     vdW  Elec       q    Type
                         _______ _______ _______ _____ _____    ______ ____

>  <TORSDO>
F 3

$$$$
=
 OpenBabel11052413493D

 27 31  0  0  1  0  0  0  0  0999 V2000
  187.5960  178.9110  141.8620 C   0  0  0  0  0  0  0  0  0  0  0  0
  184.9580  177.8720  138.5600 S   0  0  0  0  0  0  0  0  0  0  0  0
  182.3060  177.8110  139.2790 N   0  0  0  0  0  1  0  0  0  0  0  0
  188.2050  178.6530  140.5580 C   0  0  0  0  0  0  0  0  0  0  0  0
  184.1120  178.3700  140.9070 C   0  0  0  0  0  0  0  0  0  0  0  0
  183.0070  178.6280  142.2530 Cl  0  0  0  0  0  0  0  0  0  0  0  0
  185.5110  178.5080  140.9730 C   0  0  0  0  0  0  0  0  0  0  0  0
  188.9920  178.9950  141.6760 C   0  0  2  0  0  3  0  0  0  0  0  0
  183.6680  178.0190  139.6340 C   0  0  0  0  0  0  0  0  0  0  0  0
  186.1490  178.2530  139.6800 C   0  0  0  0  0  0  0  0  0  0  0  0
  186.2620  178.8560  142.1520 C   0  0  0  0  0  0  0  0  0  0  0  0
  187.5580  178.3120  139.4030 C   0  0  0  0  0  3  0  0  0  0  0  0
  190.9220  175.5910  143.3890 N   0  0  0  0  0  0  0  0  0  0  0  0
  189.6870  177.7850  142.2350 C   0  0  0  0  0  0  0  0  0  0  0  0
  190.9530  177.9100  142.8200 C   0  0  0  0  0  3  0  0  0  0  0  0
  191.5630  176.7900  143.3890 C   0  0  0  0  0  3  0  0  0  0  0  0
  189.6860  175.4450  142.8430 C   0  0  0  0  0  3  0  0  0  0  0  0
  189.0420  176.5400  142.2650 C   0  0  0  0  0  3  0  0  0  0  0  0
  185.7060  179.0870  143.4120 O   0  0  0  0  0  0  0  0  0  0  0  0
  183.4810  179.0880  145.4640 O   0  0  0  0  0  1  0  0  0  0  0  0
  188.9080  177.4200  145.9110 C   0  0  0  0  0  1  0  0  0  0  0  0
  187.5910  178.1230  145.6550 C   0  0  1  0  0  3  0  0  0  0  0  0
  184.7860  178.6270  145.5700 C   0  0  0  0  0  0  0  0  0  0  0  0
  186.7570  177.3050  144.6780 C   0  0  0  0  0  2  0  0  0  0  0  0
  186.8210  178.2530  146.9640 C   0  0  0  0  0  2  0  0  0  0  0  0
  185.4280  178.7680  146.7360 C   0  0  0  0  0  3  0  0  0  0  0  0
  185.4540  178.0450  144.3480 C   0  0  2  0  0  3  0  0  0  0  0  0
  1 11  1  0  0  0  0
  2  9  1  0  0  0  0
  2 10  1  0  0  0  0
  3  9  1  0  0  0  0
  4  8  1  0  0  0  0
  4  1  2  0  0  0  0
  5  7  1  0  0  0  0
  5  6  1  0  0  0  0
  7 11  2  0  0  0  0
  8  1  1  0  0  0  0
  8 14  1  1  0  0  0
  9  5  2  0  0  0  0
 10  7  1  0  0  0  0
 11 19  1  0  0  0  0
 12 10  2  0  0  0  0
 12  4  1  0  0  0  0
 13 16  1  0  0  0  0
 14 18  2  0  0  0  0
 14 15  1  0  0  0  0
 15 16  2  0  0  0  0
 17 13  2  0  0  0  0
 18 17  1  0  0  0  0
 20 23  1  0  0  0  0
 22 21  1  1  0  0  0
 22 25  1  0  0  0  0
 23 26  2  0  0  0  0
 24 22  1  0  0  0  0
 26 25  1  0  0  0  0
 27 19  1  6  0  0  0
 27 24  1  0  0  0  0
 27 23  1  0  0  0  0
M  END
>  <MODEL>
4

>  <REMARK>
 VINA RESULT:      -8.0      2.823      6.674
  Name = 
  3 active torsions:
  status: ('A' for Active; 'I' for Inactive)
    1  A    between atoms: O_3  and  C_19
    2  A    between atoms: O_3  and  C_26
    3  A    between atoms: C_9  and  C_15
                            x       y       z     vdW  Elec       q    Type
                         _______ _______ _______ _____ _____    ______ ____

>  <TORSDO>
F 3

$$$$
=
 OpenBabel11052413493D

 27 31  0  0  1  0  0  0  0  0999 V2000
  188.6160  178.0240  140.9700 C   0  0  0  0  0  0  0  0  0  0  0  0
  184.3830  178.8540  141.5450 S   0  0  0  0  0  0  0  0  0  0  0  0
  183.5190  178.3260  144.1000 N   0  0  0  0  0  1  0  0  0  0  0  0
  187.8600  178.5340  139.8280 C   0  0  0  0  0  0  0  0  0  0  0  0
  185.8870  177.9720  143.3970 C   0  0  0  0  0  0  0  0  0  0  0  0
  186.4200  177.4230  144.9830 Cl  0  0  0  0  0  0  0  0  0  0  0  0
  186.7150  178.0990  142.2670 C   0  0  0  0  0  0  0  0  0  0  0  0
  189.2350  178.2400  139.7210 C   0  0  2  0  0  3  0  0  0  0  0  0
  184.5710  178.3530  143.1430 C   0  0  0  0  0  0  0  0  0  0  0  0
  185.9840  178.6060  141.1050 C   0  0  0  0  0  0  0  0  0  0  0  0
  188.1190  177.7760  142.2180 C   0  0  0  0  0  0  0  0  0  0  0  0
  186.5310  178.8520  139.7980 C   0  0  0  0  0  3  0  0  0  0  0  0
  189.8930  174.6290  137.5370 N   0  0  0  0  0  0  0  0  0  0  0  0
  189.4530  176.9450  138.9920 C   0  0  0  0  0  0  0  0  0  0  0  0
  188.4500  176.4260  138.1650 C   0  0  0  0  0  3  0  0  0  0  0  0
  188.6870  175.2520  137.4460 C   0  0  0  0  0  3  0  0  0  0  0  0
  190.8900  175.1190  138.3190 C   0  0  0  0  0  3  0  0  0  0  0  0
  190.6930  176.2900  139.0540 C   0  0  0  0  0  3  0  0  0  0  0  0
  188.8580  177.2690  143.2890 O   0  0  0  0  0  0  0  0  0  0  0  0
  191.7590  177.0510  142.4550 O   0  0  0  0  0  1  0  0  0  0  0  0
  189.4260  177.3450  147.6410 C   0  0  0  0  0  1  0  0  0  0  0  0
  189.8210  177.0460  146.2100 C   0  0  1  0  0  3  0  0  0  0  0  0
  191.2070  177.1770  143.7220 C   0  0  0  0  0  0  0  0  0  0  0  0
  189.6170  178.2880  145.3540 C   0  0  0  0  0  2  0  0  0  0  0  0
  191.2940  176.6560  146.1600 C   0  0  0  0  0  2  0  0  0  0  0  0
  191.7860  176.5370  144.7450 C   0  0  0  0  0  3  0  0  0  0  0  0
  189.9370  177.9770  143.8870 C   0  0  2  0  0  3  0  0  0  0  0  0
  1 11  1  0  0  0  0
  2  9  1  0  0  0  0
  4  1  2  0  0  0  0
  5  6  1  0  0  0  0
  7  5  1  0  0  0  0
  8 14  1  6  0  0  0
  8  4  1  0  0  0  0
  8  1  1  0  0  0  0
  9  5  2  0  0  0  0
  9  3  1  0  0  0  0
 10  2  1  0  0  0  0
 10  7  1  0  0  0  0
 11  7  2  0  0  0  0
 11 19  1  0  0  0  0
 12  4  1  0  0  0  0
 12 10  2  0  0  0  0
 13 17  1  0  0  0  0
 14 18  1  0  0  0  0
 15 14  2  0  0  0  0
 16 13  2  0  0  0  0
 16 15  1  0  0  0  0
 17 18  2  0  0  0  0
 20 23  1  0  0  0  0
 22 21  1  1  0  0  0
 23 27  1  0  0  0  0
 23 26  2  0  0  0  0
 24 22  1  0  0  0  0
 25 22  1  0  0  0  0
 26 25  1  0  0  0  0
 27 19  1  1  0  0  0
 27 24  1  0  0  0  0
M  END
>  <MODEL>
5

>  <REMARK>
 VINA RESULT:      -7.9      3.095      5.581
  Name = 
  3 active torsions:
  status: ('A' for Active; 'I' for Inactive)
    1  A    between atoms: O_3  and  C_19
    2  A    between atoms: O_3  and  C_26
    3  A    between atoms: C_9  and  C_15
                            x       y       z     vdW  Elec       q    Type
                         _______ _______ _______ _____ _____    ______ ____

>  <TORSDO>
F 3

$$$$
=
 OpenBabel11052413493D

 27 31  0  0  1  0  0  0  0  0999 V2000
  187.6840  178.9490  141.4110 C   0  0  0  0  0  0  0  0  0  0  0  0
  185.9660  177.6730  137.6230 S   0  0  0  0  0  0  0  0  0  0  0  0
  183.2200  177.5640  137.6680 N   0  0  0  0  0  1  0  0  0  0  0  0
  188.6020  178.6490  140.3140 C   0  0  0  0  0  0  0  0  0  0  0  0
  184.5560  178.2550  139.6580 C   0  0  0  0  0  0  0  0  0  0  0  0
  183.1480  178.5430  140.6760 Cl  0  0  0  0  0  0  0  0  0  0  0  0
  185.8920  178.4400  140.0590 C   0  0  0  0  0  0  0  0  0  0  0  0
  189.0810  179.0670  141.5710 C   0  0  2  0  0  3  0  0  0  0  0  0
  184.4470  177.8310  138.3360 C   0  0  0  0  0  0  0  0  0  0  0  0
  186.8350  178.1430  138.9790 C   0  0  0  0  0  0  0  0  0  0  0  0
  186.3220  178.8660  141.3670 C   0  0  0  0  0  0  0  0  0  0  0  0
  188.2680  178.2330  139.0550 C   0  0  0  0  0  3  0  0  0  0  0  0
  190.7430  175.7390  143.6710 N   0  0  0  0  0  0  0  0  0  0  0  0
  189.6390  177.9080  142.3480 C   0  0  0  0  0  0  0  0  0  0  0  0
  189.1050  176.6250  142.1750 C   0  0  0  0  0  3  0  0  0  0  0  0
  189.6700  175.5450  142.8570 C   0  0  0  0  0  3  0  0  0  0  0  0
  191.2910  176.9700  143.8440 C   0  0  0  0  0  3  0  0  0  0  0  0
  190.7560  178.0750  143.1800 C   0  0  0  0  0  3  0  0  0  0  0  0
  185.4670  179.1400  142.4370 O   0  0  0  0  0  0  0  0  0  0  0  0
  182.8290  179.2180  143.9170 O   0  0  0  0  0  1  0  0  0  0  0  0
  187.9900  177.5640  145.6660 C   0  0  0  0  0  1  0  0  0  0  0  0
  186.7740  178.2580  145.0880 C   0  0  1  0  0  3  0  0  0  0  0  0
  184.0700  178.7610  144.3390 C   0  0  0  0  0  0  0  0  0  0  0  0
  186.1810  177.4050  143.9750 C   0  0  0  0  0  2  0  0  0  0  0  0
  185.7240  178.4360  146.1780 C   0  0  0  0  0  2  0  0  0  0  0  0
  184.4250  178.9440  145.6160 C   0  0  0  0  0  3  0  0  0  0  0  0
  184.9960  178.1330  143.3260 C   0  0  2  0  0  3  0  0  0  0  0  0
  1  8  1  0  0  0  0
  2  9  1  0  0  0  0
  2 10  1  0  0  0  0
  3  9  1  0  0  0  0
  4  1  2  0  0  0  0
  4  8  1  0  0  0  0
  5  7  1  0  0  0  0
  5  6  1  0  0  0  0
  7 11  2  0  0  0  0
  8 14  1  1  0  0  0
  9  5  2  0  0  0  0
 10 12  2  0  0  0  0
 10  7  1  0  0  0  0
 11  1  1  0  0  0  0
 11 19  1  0  0  0  0
 12  4  1  0  0  0  0
 13 17  1  0  0  0  0
 14 18  1  0  0  0  0
 15 14  2  0  0  0  0
 15 16  1  0  0  0  0
 16 13  2  0  0  0  0
 18 17  2  0  0  0  0
 20 23  1  0  0  0  0
 22 21  1  1  0  0  0
 22 25  1  0  0  0  0
 23 26  2  0  0  0  0
 24 22  1  0  0  0  0
 26 25  1  0  0  0  0
 27 19  1  6  0  0  0
 27 24  1  0  0  0  0
 27 23  1  0  0  0  0
M  END
>  <MODEL>
6

>  <REMARK>
 VINA RESULT:      -7.8      3.057      6.856
  Name = 
  3 active torsions:
  status: ('A' for Active; 'I' for Inactive)
    1  A    between atoms: O_3  and  C_19
    2  A    between atoms: O_3  and  C_26
    3  A    between atoms: C_9  and  C_15
                            x       y       z     vdW  Elec       q    Type
                         _______ _______ _______ _____ _____    ______ ____

>  <TORSDO>
F 3

$$$$
=
 OpenBabel11052413493D

 27 31  0  0  1  0  0  0  0  0999 V2000
  185.0930  178.5680  141.0210 C   0  0  0  0  0  0  0  0  0  0  0  0
  183.3280  179.0450  144.9700 S   0  0  0  0  0  0  0  0  0  0  0  0
  185.0450  178.3660  147.0060 N   0  0  0  0  0  1  0  0  0  0  0  0
  183.7170  179.0550  141.0980 C   0  0  0  0  0  0  0  0  0  0  0  0
  185.7070  178.2220  144.6040 C   0  0  0  0  0  0  0  0  0  0  0  0
  187.3420  177.6640  144.9470 Cl  0  0  0  0  0  0  0  0  0  0  0  0
  185.1860  178.4510  143.3180 C   0  0  0  0  0  0  0  0  0  0  0  0
  184.3590  178.8740  139.8560 C   0  0  2  0  0  3  0  0  0  0  0  0
  184.7900  178.5070  145.6130 C   0  0  0  0  0  0  0  0  0  0  0  0
  183.8060  178.9370  143.3640 C   0  0  0  0  0  0  0  0  0  0  0  0
  185.8920  178.2410  142.0790 C   0  0  0  0  0  0  0  0  0  0  0  0
  182.9840  179.2690  142.2320 C   0  0  0  0  0  3  0  0  0  0  0  0
  183.0820  175.2530  137.9830 N   0  0  0  0  0  0  0  0  0  0  0  0
  183.8730  177.6240  139.1770 C   0  0  0  0  0  0  0  0  0  0  0  0
  184.4550  177.2080  137.9730 C   0  0  0  0  0  3  0  0  0  0  0  0
  184.0360  176.0140  137.3820 C   0  0  0  0  0  3  0  0  0  0  0  0
  182.5130  175.6250  139.1600 C   0  0  0  0  0  3  0  0  0  0  0  0
  182.9040  176.8120  139.7830 C   0  0  0  0  0  3  0  0  0  0  0  0
  187.1980  177.7580  141.9790 O   0  0  0  0  0  0  0  0  0  0  0  0
  187.7310  178.5210  139.0990 O   0  0  0  0  0  1  0  0  0  0  0  0
  191.3270  176.9240  143.2160 C   0  0  0  0  0  1  0  0  0  0  0  0
  190.2010  177.0960  142.2180 C   0  0  1  0  0  3  0  0  0  0  0  0
  188.6230  178.1860  140.1080 C   0  0  0  0  0  0  0  0  0  0  0  0
  189.4790  178.4090  142.4840 C   0  0  0  0  0  2  0  0  0  0  0  0
  190.7740  177.1320  140.8050 C   0  0  0  0  0  2  0  0  0  0  0  0
  189.7240  177.4930  139.7930 C   0  0  0  0  0  3  0  0  0  0  0  0
  188.2860  178.5590  141.5310 C   0  0  2  0  0  3  0  0  0  0  0  0
  1  4  2  0  0  0  0
  1 11  1  0  0  0  0
  2  9  1  0  0  0  0
  4 12  1  0  0  0  0
  5  6  1  0  0  0  0
  5  9  2  0  0  0  0
  7 10  1  0  0  0  0
  7  5  1  0  0  0  0
  8 14  1  6  0  0  0
  8  1  1  0  0  0  0
  8  4  1  0  0  0  0
  9  3  1  0  0  0  0
 10  2  1  0  0  0  0
 11  7  2  0  0  0  0
 12 10  2  0  0  0  0
 13 17  1  0  0  0  0
 14 18  1  0  0  0  0
 15 14  2  0  0  0  0
 16 15  1  0  0  0  0
 16 13  2  0  0  0  0
 17 18  2  0  0  0  0
 19 11  1  0  0  0  0
 20 23  1  0  0  0  0
 22 24  1  0  0  0  0
 22 21  1  1  0  0  0
 23 27  1  0  0  0  0
 25 22  1  0  0  0  0
 26 23  2  0  0  0  0
 26 25  1  0  0  0  0
 27 19  1  1  0  0  0
 27 24  1  0  0  0  0
M  END
>  <MODEL>
7

>  <REMARK>
 VINA RESULT:      -7.7      1.408      1.987
  Name = 
  3 active torsions:
  status: ('A' for Active; 'I' for Inactive)
    1  A    between atoms: O_3  and  C_19
    2  A    between atoms: O_3  and  C_26
    3  A    between atoms: C_9  and  C_15
                            x       y       z     vdW  Elec       q    Type
                         _______ _______ _______ _____ _____    ______ ____

>  <TORSDO>
F 3

$$$$
=
 OpenBabel11052413493D

 27 31  0  0  1  0  0  0  0  0999 V2000
  188.5530  178.3330  139.3680 C   0  0  0  0  0  0  0  0  0  0  0  0
  184.2080  178.4130  139.1490 S   0  0  0  0  0  0  0  0  0  0  0  0
  183.0090  178.6260  141.6130 N   0  0  0  0  0  1  0  0  0  0  0  0
  187.9360  178.2520  138.0460 C   0  0  0  0  0  0  0  0  0  0  0  0
  185.4890  178.5520  141.3420 C   0  0  0  0  0  0  0  0  0  0  0  0
  185.8190  178.7020  143.0660 Cl  0  0  0  0  0  0  0  0  0  0  0  0
  186.4690  178.4520  140.3390 C   0  0  0  0  0  0  0  0  0  0  0  0
  189.3370  178.2320  138.1990 C   0  0  2  0  0  3  0  0  0  0  0  0
  184.1940  178.5410  140.8290 C   0  0  0  0  0  0  0  0  0  0  0  0
  185.8800  178.3670  139.0020 C   0  0  0  0  0  0  0  0  0  0  0  0
  187.8930  178.4300  140.5600 C   0  0  0  0  0  0  0  0  0  0  0  0
  186.5990  178.2580  137.7620 C   0  0  0  0  0  3  0  0  0  0  0  0
  190.9050  174.3070  137.5800 N   0  0  0  0  0  0  0  0  0  0  0  0
  189.8770  176.8400  138.0270 C   0  0  0  0  0  0  0  0  0  0  0  0
  189.0850  175.8470  137.4380 C   0  0  0  0  0  3  0  0  0  0  0  0
  189.6190  174.5730  137.2290 C   0  0  0  0  0  3  0  0  0  0  0  0
  191.7020  175.2570  138.1370 C   0  0  0  0  0  3  0  0  0  0  0  0
  191.2060  176.5430  138.3630 C   0  0  0  0  0  3  0  0  0  0  0  0
  188.5060  178.4860  141.8130 O   0  0  0  0  0  0  0  0  0  0  0  0
  187.5550  175.9810  143.2200 O   0  0  0  0  0  1  0  0  0  0  0  0
  191.9930  179.3720  144.3290 C   0  0  0  0  0  1  0  0  0  0  0  0
  190.6510  178.7450  144.0140 C   0  0  1  0  0  3  0  0  0  0  0  0
  188.6700  176.7680  143.4680 C   0  0  0  0  0  0  0  0  0  0  0  0
  190.7250  178.0240  142.6760 C   0  0  0  0  0  2  0  0  0  0  0  0
  190.2970  177.7300  145.0960 C   0  0  0  0  0  2  0  0  0  0  0  0
  189.0710  176.9410  144.7330 C   0  0  0  0  0  3  0  0  0  0  0  0
  189.3510  177.4520  142.3060 C   0  0  2  0  0  3  0  0  0  0  0  0
  1 11  1  0  0  0  0
  2  9  1  0  0  0  0
  4  8  1  0  0  0  0
  4  1  2  0  0  0  0
  5  6  1  0  0  0  0
  7 11  2  0  0  0  0
  7  5  1  0  0  0  0
  8 14  1  1  0  0  0
  8  1  1  0  0  0  0
  9  5  2  0  0  0  0
  9  3  1  0  0  0  0
 10  2  1  0  0  0  0
 10  7  1  0  0  0  0
 11 19  1  0  0  0  0
 12  4  1  0  0  0  0
 12 10  2  0  0  0  0
 13 17  1  0  0  0  0
 14 18  1  0  0  0  0
 15 14  2  0  0  0  0
 16 15  1  0  0  0  0
 16 13  2  0  0  0  0
 17 18  2  0  0  0  0
 20 23  1  0  0  0  0
 22 21  1  1  0  0  0
 22 25  1  0  0  0  0
 23 26  2  0  0  0  0
 24 22  1  0  0  0  0
 26 25  1  0  0  0  0
 27 19  1  1  0  0  0
 27 24  1  0  0  0  0
 27 23  1  0  0  0  0
M  END
>  <MODEL>
8

>  <REMARK>
 VINA RESULT:      -7.6      3.264      6.136
  Name = 
  3 active torsions:
  status: ('A' for Active; 'I' for Inactive)
    1  A    between atoms: O_3  and  C_19
    2  A    between atoms: O_3  and  C_26
    3  A    between atoms: C_9  and  C_15
                            x       y       z     vdW  Elec       q    Type
                         _______ _______ _______ _____ _____    ______ ____

>  <TORSDO>
F 3

$$$$
=
 OpenBabel11052413493D

 27 31  0  0  1  0  0  0  0  0999 V2000
  188.2300  176.5010  143.6020 C   0  0  0  0  0  0  0  0  0  0  0  0
  190.6250  177.4120  147.1190 S   0  0  0  0  0  0  0  0  0  0  0  0
  189.1580  178.5180  149.1640 N   0  0  0  0  0  1  0  0  0  0  0  0
  189.6570  176.1890  143.5540 C   0  0  0  0  0  0  0  0  0  0  0  0
  188.1250  177.8630  146.9890 C   0  0  0  0  0  0  0  0  0  0  0  0
  186.4980  178.3470  147.4590 Cl  0  0  0  0  0  0  0  0  0  0  0  0
  188.4720  177.3030  145.7460 C   0  0  0  0  0  0  0  0  0  0  0  0
  188.8160  175.9250  142.4550 C   0  0  2  0  0  3  0  0  0  0  0  0
  189.2160  177.9830  147.8470 C   0  0  0  0  0  0  0  0  0  0  0  0
  189.8980  176.9820  145.6680 C   0  0  0  0  0  0  0  0  0  0  0  0
  187.5630  177.0610  144.6540 C   0  0  0  0  0  0  0  0  0  0  0  0
  190.5770  176.3980  144.5440 C   0  0  0  0  0  3  0  0  0  0  0  0
  189.3070  178.7440  139.2840 N   0  0  0  0  0  0  0  0  0  0  0  0
  189.0080  176.9470  141.3710 C   0  0  0  0  0  0  0  0  0  0  0  0
  190.1220  176.8730  140.5250 C   0  0  0  0  0  3  0  0  0  0  0  0
  190.2590  177.7940  139.4840 C   0  0  0  0  0  3  0  0  0  0  0  0
  188.2080  178.8280  140.0790 C   0  0  0  0  0  3  0  0  0  0  0  0
  188.0340  177.9270  141.1310 C   0  0  0  0  0  3  0  0  0  0  0  0
  186.2020  177.3690  144.6680 O   0  0  0  0  0  0  0  0  0  0  0  0
  184.2640  178.9440  146.3780 O   0  0  0  0  0  1  0  0  0  0  0  0
  184.5000  178.2870  140.7270 C   0  0  0  0  0  1  0  0  0  0  0  0
  184.4730  178.1440  142.2340 C   0  0  1  0  0  3  0  0  0  0  0  0
  184.3430  178.8360  144.9970 C   0  0  0  0  0  0  0  0  0  0  0  0
  185.6700  178.8670  142.8370 C   0  0  0  0  0  2  0  0  0  0  0  0
  183.1970  178.7730  142.7820 C   0  0  0  0  0  2  0  0  0  0  0  0
  183.2100  178.8300  144.2840 C   0  0  0  0  0  3  0  0  0  0  0  0
  185.6990  178.6640  144.3570 C   0  0  2  0  0  3  0  0  0  0  0  0
  1 11  1  0  0  0  0
  2  9  1  0  0  0  0
  4  1  2  0  0  0  0
  4 12  1  0  0  0  0
  5  6  1  0  0  0  0
  5  9  2  0  0  0  0
  7  5  1  0  0  0  0
  8 14  1  6  0  0  0
  8  4  1  0  0  0  0
  8  1  1  0  0  0  0
  9  3  1  0  0  0  0
 10  7  1  0  0  0  0
 10  2  1  0  0  0  0
 11 19  1  0  0  0  0
 11  7  2  0  0  0  0
 12 10  2  0  0  0  0
 13 16  2  0  0  0  0
 13 17  1  0  0  0  0
 15 14  2  0  0  0  0
 16 15  1  0  0  0  0
 17 18  2  0  0  0  0
 18 14  1  0  0  0  0
 22 21  1  6  0  0  0
 22 25  1  0  0  0  0
 22 24  1  0  0  0  0
 23 20  1  0  0  0  0
 24 27  1  0  0  0  0
 25 26  1  0  0  0  0
 26 23  2  0  0  0  0
 27 19  1  6  0  0  0
 27 23  1  0  0  0  0
M  END
>  <MODEL>
9

>  <REMARK>
 VINA RESULT:      -7.6      2.828      5.914
  Name = 
  3 active torsions:
  status: ('A' for Active; 'I' for Inactive)
    1  A    between atoms: O_3  and  C_19
    2  A    between atoms: O_3  and  C_26
    3  A    between atoms: C_9  and  C_15
                            x       y       z     vdW  Elec       q    Type
                         _______ _______ _______ _____ _____    ______ ____

>  <TORSDO>
F 3

$$$$
