=
 OpenBabel11052412283D

 30 33  0  0  0  0  0  0  0  0999 V2000
  186.7970  178.4260  139.2110 N   0  0  0  0  0  0  0  0  0  0  0  0
  188.3370  178.1460  137.3770 C   0  0  0  0  0  0  0  0  0  0  0  0
  189.4110  177.0060  141.9900 N   0  0  0  0  0  0  0  0  0  0  0  0
  186.4750  178.3310  140.5350 C   0  0  0  0  0  0  0  0  0  0  0  0
  183.1460  179.5840  140.1920 O   0  0  0  0  0  0  0  0  0  0  0  0
  184.0180  178.6730  140.1630 C   0  0  0  0  0  0  0  0  0  0  0  0
  188.5970  177.1160  143.0650 C   0  0  0  0  0  0  0  0  0  0  0  0
  185.1880  178.7810  140.9980 N   0  0  0  0  0  0  0  0  0  0  0  0
  189.6010  177.7560  136.9230 C   0  0  0  0  0  3  0  0  0  0  0  0
  187.3420  178.6620  136.3930 C   0  0  0  0  0  1  0  0  0  0  0  0
  188.6370  177.4640  140.9860 C   0  0  0  0  0  0  0  0  0  0  0  0
  190.5570  177.2650  137.8180 C   0  0  0  0  0  3  0  0  0  0  0  0
  188.0250  178.0460  138.7440 C   0  0  0  0  0  0  0  0  0  0  0  0
  187.4160  177.8450  141.3930 N   0  0  0  0  0  0  0  0  0  0  0  0
  189.0000  176.7280  144.4420 C   0  0  0  0  0  1  0  0  0  0  0  0
  187.3580  177.6270  142.7180 C   0  0  0  0  0  3  0  0  0  0  0  0
  190.2580  177.1610  139.1790 C   0  0  0  0  0  3  0  0  0  0  0  0
  188.9980  177.5480  139.6440 C   0  0  0  0  0  0  0  0  0  0  0  0
  183.0210  176.3980  139.6020 C   0  0  0  0  0  3  0  0  0  0  0  0
  184.2790  177.3950  138.0870 O   0  0  0  0  0  0  0  0  0  0  0  0
  183.7860  177.5050  139.2950 C   0  0  0  0  0  0  0  0  0  0  0  0
  183.0920  175.5900  138.4810 C   0  0  0  0  0  3  0  0  0  0  0  0
  183.8880  176.2580  137.5660 C   0  0  0  0  0  3  0  0  0  0  0  0
  185.1020  179.5630  142.2310 C   0  0  0  0  0  2  0  0  0  0  0  0
  184.2190  178.8720  143.2670 C   0  0  0  0  0  2  0  0  0  0  0  0
  184.0090  179.7420  144.4970 C   0  0  0  0  0  2  0  0  0  0  0  0
  184.0640  178.9290  145.7020 N   0  0  0  0  0  2  0  0  0  0  0  0
  186.0290  177.5880  146.1050 O   0  0  0  0  0  0  0  0  0  0  0  0
  185.2740  178.7070  146.3740 N   0  0  0  0  0  0  0  0  0  0  0  0
  185.6460  179.5050  147.2550 O   0  0  0  0  0  0  0  0  0  0  0  0
  1  4  2  0  0  0  0
  2 13  1  0  0  0  0
  3  7  1  0  0  0  0
  4  8  1  0  0  0  0
  4 14  1  0  0  0  0
  6  5  2  0  0  0  0
  6  8  1  0  0  0  0
  7 15  1  0  0  0  0
  8 24  1  0  0  0  0
  9  2  2  0  0  0  0
  9 12  1  0  0  0  0
 10  2  1  0  0  0  0
 11 14  1  0  0  0  0
 11  3  2  0  0  0  0
 12 17  2  0  0  0  0
 13  1  1  0  0  0  0
 13 18  2  0  0  0  0
 14 16  1  0  0  0  0
 16  7  2  0  0  0  0
 17 18  1  0  0  0  0
 18 11  1  0  0  0  0
 20 21  1  0  0  0  0
 21 19  2  0  0  0  0
 21  6  1  0  0  0  0
 22 19  1  0  0  0  0
 23 20  1  0  0  0  0
 23 22  2  0  0  0  0
 24 25  1  0  0  0  0
 25 26  1  0  0  0  0
 26 27  1  0  0  0  0
 27 29  1  0  0  0  0
 28 29  2  0  0  0  0
 29 30  2  0  0  0  0
M  END
>  <MODEL>
1

>  <REMARK>
 VINA RESULT:      -7.3      0.000      0.000
  Name = 
  6 active torsions:
  status: ('A' for Active; 'I' for Inactive)
    1  A    between atoms: N_7  and  N_15
    2  A    between atoms: N_7  and  C_16
    3  A    between atoms: C_8  and  C_12
    4  A    between atoms: N_13  and  C_27
    5  A    between atoms: C_16  and  C_30
    6  A    between atoms: C_27  and  C_30
                            x       y       z     vdW  Elec       q    Type
                         _______ _______ _______ _____ _____    ______ ____

>  <TORSDO>
F 6

$$$$
=
 OpenBabel11052412283D

 30 33  0  0  0  0  0  0  0  0999 V2000
  183.5170  178.8510  140.4760 N   0  0  0  0  0  0  0  0  0  0  0  0
  185.6370  178.5230  141.5750 C   0  0  0  0  0  0  0  0  0  0  0  0
  181.4060  178.9230  143.9560 N   0  0  0  0  0  0  0  0  0  0  0  0
  182.1610  179.0190  140.5050 C   0  0  0  0  0  0  0  0  0  0  0  0
  181.7450  179.2290  136.9620 O   0  0  0  0  0  0  0  0  0  0  0  0
  181.8620  178.6010  138.0490 C   0  0  0  0  0  0  0  0  0  0  0  0
  180.1790  179.0890  143.4110 C   0  0  0  0  0  0  0  0  0  0  0  0
  181.4340  179.2200  139.2780 N   0  0  0  0  0  0  0  0  0  0  0  0
  186.3610  178.3720  142.7630 C   0  0  0  0  0  3  0  0  0  0  0  0
  186.3670  178.4910  140.2750 C   0  0  0  0  0  1  0  0  0  0  0  0
  182.2080  178.8910  142.8730 C   0  0  0  0  0  0  0  0  0  0  0  0
  185.7080  178.3950  144.0000 C   0  0  0  0  0  3  0  0  0  0  0  0
  184.2440  178.6990  141.6240 C   0  0  0  0  0  0  0  0  0  0  0  0
  181.5400  179.0310  141.7170 N   0  0  0  0  0  0  0  0  0  0  0  0
  178.9310  179.1860  144.2120 C   0  0  0  0  0  1  0  0  0  0  0  0
  180.2380  179.1520  142.0290 C   0  0  0  0  0  3  0  0  0  0  0  0
  184.3230  178.5680  144.0610 C   0  0  0  0  0  3  0  0  0  0  0  0
  183.5900  178.7190  142.8800 C   0  0  0  0  0  0  0  0  0  0  0  0
  183.6450  176.8540  137.5430 C   0  0  0  0  0  3  0  0  0  0  0  0
  181.7550  176.1870  138.4670 O   0  0  0  0  0  0  0  0  0  0  0  0
  182.4040  177.2310  138.0150 C   0  0  0  0  0  0  0  0  0  0  0  0
  183.7020  175.4860  137.7340 C   0  0  0  0  0  3  0  0  0  0  0  0
  182.4990  175.1190  138.3130 C   0  0  0  0  0  3  0  0  0  0  0  0
  180.3890  180.2420  139.2240 C   0  0  0  0  0  2  0  0  0  0  0  0
  180.9740  181.6200  138.9260 C   0  0  0  0  0  2  0  0  0  0  0  0
  180.1120  182.3960  137.9430 C   0  0  0  0  0  2  0  0  0  0  0  0
  180.9180  182.8540  136.8220 N   0  0  0  0  0  2  0  0  0  0  0  0
  182.3570  184.6300  137.5960 O   0  0  0  0  0  0  0  0  0  0  0  0
  181.3730  184.1780  136.7460 N   0  0  0  0  0  0  0  0  0  0  0  0
  180.8500  184.9650  135.9340 O   0  0  0  0  0  0  0  0  0  0  0  0
  1  4  2  0  0  0  0
  1 13  1  0  0  0  0
  2 13  2  0  0  0  0
  2  9  1  0  0  0  0
  4 14  1  0  0  0  0
  5  6  2  0  0  0  0
  6  8  1  0  0  0  0
  7  3  1  0  0  0  0
  7 15  1  0  0  0  0
  8  4  1  0  0  0  0
  9 12  2  0  0  0  0
 10  2  1  0  0  0  0
 11 18  1  0  0  0  0
 11  3  2  0  0  0  0
 12 17  1  0  0  0  0
 13 18  1  0  0  0  0
 14 16  1  0  0  0  0
 14 11  1  0  0  0  0
 16  7  2  0  0  0  0
 18 17  2  0  0  0  0
 19 22  1  0  0  0  0
 19 21  2  0  0  0  0
 21  6  1  0  0  0  0
 21 20  1  0  0  0  0
 22 23  2  0  0  0  0
 23 20  1  0  0  0  0
 24  8  1  0  0  0  0
 25 24  1  0  0  0  0
 26 25  1  0  0  0  0
 27 26  1  0  0  0  0
 29 27  1  0  0  0  0
 29 28  2  0  0  0  0
 30 29  2  0  0  0  0
M  END
>  <MODEL>
2

>  <REMARK>
 VINA RESULT:      -6.7      3.898      6.949
  Name = 
  6 active torsions:
  status: ('A' for Active; 'I' for Inactive)
    1  A    between atoms: N_7  and  N_15
    2  A    between atoms: N_7  and  C_16
    3  A    between atoms: C_8  and  C_12
    4  A    between atoms: N_13  and  C_27
    5  A    between atoms: C_16  and  C_30
    6  A    between atoms: C_27  and  C_30
                            x       y       z     vdW  Elec       q    Type
                         _______ _______ _______ _____ _____    ______ ____

>  <TORSDO>
F 6

$$$$
=
 OpenBabel11052412283D

 30 33  0  0  0  0  0  0  0  0999 V2000
  181.9230  178.4410  141.2700 N   0  0  0  0  0  0  0  0  0  0  0  0
  182.4970  178.9660  143.5520 C   0  0  0  0  0  0  0  0  0  0  0  0
  185.7730  178.6340  139.9610 N   0  0  0  0  0  0  0  0  0  0  0  0
  182.2630  178.2220  139.9660 C   0  0  0  0  0  0  0  0  0  0  0  0
  178.9310  177.6390  138.8150 O   0  0  0  0  0  0  0  0  0  0  0  0
  179.9050  178.3770  139.1220 C   0  0  0  0  0  0  0  0  0  0  0  0
  185.5270  178.3650  138.6590 C   0  0  0  0  0  0  0  0  0  0  0  0
  181.2480  177.8680  139.0070 N   0  0  0  0  0  0  0  0  0  0  0  0
  183.4800  179.2650  144.5020 C   0  0  0  0  0  3  0  0  0  0  0  0
  181.0720  178.8960  143.9840 C   0  0  0  0  0  1  0  0  0  0  0  0
  184.5430  178.5910  140.5100 C   0  0  0  0  0  0  0  0  0  0  0  0
  184.8270  179.3410  144.1320 C   0  0  0  0  0  3  0  0  0  0  0  0
  182.8660  178.7390  142.2150 C   0  0  0  0  0  0  0  0  0  0  0  0
  183.5780  178.3070  139.6200 N   0  0  0  0  0  0  0  0  0  0  0  0
  186.5870  178.2980  137.6200 C   0  0  0  0  0  1  0  0  0  0  0  0
  184.1770  178.1650  138.4250 C   0  0  0  0  0  3  0  0  0  0  0  0
  185.2050  179.1180  142.8050 C   0  0  0  0  0  3  0  0  0  0  0  0
  184.2320  178.8190  141.8480 C   0  0  0  0  0  0  0  0  0  0  0  0
  179.0300  180.1370  140.7430 C   0  0  0  0  0  3  0  0  0  0  0  0
  179.9600  180.8140  138.8580 O   0  0  0  0  0  0  0  0  0  0  0  0
  179.6310  179.7580  139.5590 C   0  0  0  0  0  0  0  0  0  0  0  0
  179.0080  181.5190  140.7070 C   0  0  0  0  0  3  0  0  0  0  0  0
  179.6000  181.8910  139.5120 C   0  0  0  0  0  3  0  0  0  0  0  0
  181.5160  176.8040  138.0390 C   0  0  0  0  0  2  0  0  0  0  0  0
  181.6760  175.4530  138.7300 C   0  0  0  0  0  2  0  0  0  0  0  0
  180.5960  174.4710  138.3020 C   0  0  0  0  0  2  0  0  0  0  0  0
  179.4190  174.6230  139.1430 N   0  0  0  0  0  2  0  0  0  0  0  0
  179.1760  175.5610  141.3530 O   0  0  0  0  0  0  0  0  0  0  0  0
  179.5000  174.5010  140.5360 N   0  0  0  0  0  0  0  0  0  0  0  0
  179.9130  173.4380  141.0400 O   0  0  0  0  0  0  0  0  0  0  0  0
  1 13  1  0  0  0  0
  2 10  1  0  0  0  0
  2  9  1  0  0  0  0
  3 11  2  0  0  0  0
  4  1  2  0  0  0  0
  5  6  2  0  0  0  0
  6 21  1  0  0  0  0
  7  3  1  0  0  0  0
  8  6  1  0  0  0  0
  8  4  1  0  0  0  0
 11 18  1  0  0  0  0
 12  9  2  0  0  0  0
 13  2  2  0  0  0  0
 14  4  1  0  0  0  0
 14 11  1  0  0  0  0
 15  7  1  0  0  0  0
 16  7  2  0  0  0  0
 16 14  1  0  0  0  0
 17 12  1  0  0  0  0
 18 13  1  0  0  0  0
 18 17  2  0  0  0  0
 20 23  1  0  0  0  0
 20 21  1  0  0  0  0
 21 19  2  0  0  0  0
 22 19  1  0  0  0  0
 23 22  2  0  0  0  0
 24 25  1  0  0  0  0
 24  8  1  0  0  0  0
 26 25  1  0  0  0  0
 26 27  1  0  0  0  0
 27 29  1  0  0  0  0
 29 30  2  0  0  0  0
 29 28  2  0  0  0  0
M  END
>  <MODEL>
3

>  <REMARK>
 VINA RESULT:      -6.7      3.834      6.912
  Name = 
  6 active torsions:
  status: ('A' for Active; 'I' for Inactive)
    1  A    between atoms: N_7  and  N_15
    2  A    between atoms: N_7  and  C_16
    3  A    between atoms: C_8  and  C_12
    4  A    between atoms: N_13  and  C_27
    5  A    between atoms: C_16  and  C_30
    6  A    between atoms: C_27  and  C_30
                            x       y       z     vdW  Elec       q    Type
                         _______ _______ _______ _____ _____    ______ ____

>  <TORSDO>
F 6

$$$$
=
 OpenBabel11052412283D

 30 33  0  0  0  0  0  0  0  0999 V2000
  186.7380  178.5050  139.4240 N   0  0  0  0  0  0  0  0  0  0  0  0
  188.2540  178.2600  137.5660 C   0  0  0  0  0  0  0  0  0  0  0  0
  189.3980  177.0680  142.1490 N   0  0  0  0  0  0  0  0  0  0  0  0
  186.4350  178.3910  140.7510 C   0  0  0  0  0  0  0  0  0  0  0  0
  183.0930  179.6250  140.4690 O   0  0  0  0  0  0  0  0  0  0  0  0
  183.9700  178.7210  140.4160 C   0  0  0  0  0  0  0  0  0  0  0  0
  188.5990  177.1570  143.2360 C   0  0  0  0  0  0  0  0  0  0  0  0
  185.1500  178.8260  141.2370 N   0  0  0  0  0  0  0  0  0  0  0  0
  189.5150  177.8840  137.0900 C   0  0  0  0  0  3  0  0  0  0  0  0
  187.2430  178.7820  136.6020 C   0  0  0  0  0  1  0  0  0  0  0  0
  188.6080  177.5330  141.1620 C   0  0  0  0  0  0  0  0  0  0  0  0
  190.4870  177.3890  137.9660 C   0  0  0  0  0  3  0  0  0  0  0  0
  187.9620  178.1400  138.9360 C   0  0  0  0  0  0  0  0  0  0  0  0
  187.3900  177.9000  141.5900 N   0  0  0  0  0  0  0  0  0  0  0  0
  189.0220  176.7550  144.6020 C   0  0  0  0  0  1  0  0  0  0  0  0
  187.3510  177.6640  142.9120 C   0  0  0  0  0  3  0  0  0  0  0  0
  190.2070  177.2650  139.3290 C   0  0  0  0  0  3  0  0  0  0  0  0
  188.9510  177.6370  139.8160 C   0  0  0  0  0  0  0  0  0  0  0  0
  182.9940  176.4390  139.8450 C   0  0  0  0  0  3  0  0  0  0  0  0
  184.1990  177.4790  138.3140 O   0  0  0  0  0  0  0  0  0  0  0  0
  183.7350  177.5620  139.5360 C   0  0  0  0  0  0  0  0  0  0  0  0
  183.0500  175.6500  138.7100 C   0  0  0  0  0  3  0  0  0  0  0  0
  183.8120  176.3430  137.7860 C   0  0  0  0  0  3  0  0  0  0  0  0
  185.0760  179.5910  142.4810 C   0  0  0  0  0  2  0  0  0  0  0  0
  184.3160  178.8250  143.5600 C   0  0  0  0  0  2  0  0  0  0  0  0
  183.0460  179.5500  143.9780 C   0  0  0  0  0  2  0  0  0  0  0  0
  181.9160  178.6340  143.9610 N   0  0  0  0  0  2  0  0  0  0  0  0
  179.6800  178.0710  143.2510 O   0  0  0  0  0  0  0  0  0  0  0  0
  180.7050  178.9850  143.3510 N   0  0  0  0  0  0  0  0  0  0  0  0
  180.5700  180.1200  142.8540 O   0  0  0  0  0  0  0  0  0  0  0  0
  1  4  2  0  0  0  0
  2 13  1  0  0  0  0
  3  7  1  0  0  0  0
  4  8  1  0  0  0  0
  4 14  1  0  0  0  0
  6  5  2  0  0  0  0
  6  8  1  0  0  0  0
  7 15  1  0  0  0  0
  8 24  1  0  0  0  0
  9  2  2  0  0  0  0
  9 12  1  0  0  0  0
 10  2  1  0  0  0  0
 11 14  1  0  0  0  0
 11  3  2  0  0  0  0
 12 17  2  0  0  0  0
 13  1  1  0  0  0  0
 13 18  2  0  0  0  0
 14 16  1  0  0  0  0
 16  7  2  0  0  0  0
 17 18  1  0  0  0  0
 18 11  1  0  0  0  0
 20 21  1  0  0  0  0
 21 19  2  0  0  0  0
 21  6  1  0  0  0  0
 22 19  1  0  0  0  0
 23 20  1  0  0  0  0
 23 22  2  0  0  0  0
 24 25  1  0  0  0  0
 25 26  1  0  0  0  0
 27 26  1  0  0  0  0
 28 29  2  0  0  0  0
 29 27  1  0  0  0  0
 30 29  2  0  0  0  0
M  END
>  <MODEL>
4

>  <REMARK>
 VINA RESULT:      -6.6      1.979      2.118
  Name = 
  6 active torsions:
  status: ('A' for Active; 'I' for Inactive)
    1  A    between atoms: N_7  and  N_15
    2  A    between atoms: N_7  and  C_16
    3  A    between atoms: C_8  and  C_12
    4  A    between atoms: N_13  and  C_27
    5  A    between atoms: C_16  and  C_30
    6  A    between atoms: C_27  and  C_30
                            x       y       z     vdW  Elec       q    Type
                         _______ _______ _______ _____ _____    ______ ____

>  <TORSDO>
F 6

$$$$
=
 OpenBabel11052412283D

 30 33  0  0  0  0  0  0  0  0999 V2000
  181.9930  178.3670  141.1500 N   0  0  0  0  0  0  0  0  0  0  0  0
  182.5460  178.8620  143.4440 C   0  0  0  0  0  0  0  0  0  0  0  0
  185.8400  178.6800  139.8590 N   0  0  0  0  0  0  0  0  0  0  0  0
  182.3420  178.1810  139.8430 C   0  0  0  0  0  0  0  0  0  0  0  0
  179.0280  177.5370  138.6690 O   0  0  0  0  0  0  0  0  0  0  0  0
  179.9830  178.2930  138.9940 C   0  0  0  0  0  0  0  0  0  0  0  0
  185.6050  178.4290  138.5510 C   0  0  0  0  0  0  0  0  0  0  0  0
  181.3390  177.8200  138.8740 N   0  0  0  0  0  0  0  0  0  0  0  0
  183.5180  179.1680  144.4030 C   0  0  0  0  0  3  0  0  0  0  0  0
  181.1220  178.7490  143.8690 C   0  0  0  0  0  1  0  0  0  0  0  0
  184.6100  178.5950  140.4020 C   0  0  0  0  0  0  0  0  0  0  0  0
  184.8640  179.2840  144.0390 C   0  0  0  0  0  3  0  0  0  0  0  0
  182.9250  178.6700  142.1040 C   0  0  0  0  0  0  0  0  0  0  0  0
  183.6560  178.3040  139.5040 N   0  0  0  0  0  0  0  0  0  0  0  0
  186.6700  178.4080  137.5150 C   0  0  0  0  0  1  0  0  0  0  0  0
  184.2610  178.2000  138.3080 C   0  0  0  0  0  3  0  0  0  0  0  0
  185.2520  179.0950  142.7100 C   0  0  0  0  0  3  0  0  0  0  0  0
  184.2890  178.7900  141.7430 C   0  0  0  0  0  0  0  0  0  0  0  0
  178.9750  179.9970  140.5970 C   0  0  0  0  0  3  0  0  0  0  0  0
  180.0610  180.7380  138.8240 O   0  0  0  0  0  0  0  0  0  0  0  0
  179.6740  179.6590  139.4560 C   0  0  0  0  0  0  0  0  0  0  0  0
  178.9570  181.3800  140.6100 C   0  0  0  0  0  3  0  0  0  0  0  0
  179.6480  181.7930  139.4840 C   0  0  0  0  0  3  0  0  0  0  0  0
  181.6360  176.7820  137.8870 C   0  0  0  0  0  2  0  0  0  0  0  0
  181.8180  175.4200  138.5530 C   0  0  0  0  0  2  0  0  0  0  0  0
  182.3850  174.3920  137.5850 C   0  0  0  0  0  2  0  0  0  0  0  0
  183.8290  174.3040  137.7370 N   0  0  0  0  0  2  0  0  0  0  0  0
  185.8140  172.9690  138.0520 O   0  0  0  0  0  0  0  0  0  0  0  0
  184.4900  173.0690  137.6910 N   0  0  0  0  0  0  0  0  0  0  0  0
  183.8870  172.0610  137.2750 O   0  0  0  0  0  0  0  0  0  0  0  0
  1 13  1  0  0  0  0
  2 10  1  0  0  0  0
  2  9  1  0  0  0  0
  3 11  2  0  0  0  0
  4  1  2  0  0  0  0
  5  6  2  0  0  0  0
  6 21  1  0  0  0  0
  7  3  1  0  0  0  0
  8  6  1  0  0  0  0
  8  4  1  0  0  0  0
 11 18  1  0  0  0  0
 12  9  2  0  0  0  0
 13  2  2  0  0  0  0
 14  4  1  0  0  0  0
 14 11  1  0  0  0  0
 15  7  1  0  0  0  0
 16  7  2  0  0  0  0
 16 14  1  0  0  0  0
 17 12  1  0  0  0  0
 18 13  1  0  0  0  0
 18 17  2  0  0  0  0
 19 22  1  0  0  0  0
 20 21  1  0  0  0  0
 20 23  1  0  0  0  0
 21 19  2  0  0  0  0
 23 22  2  0  0  0  0
 24 25  1  0  0  0  0
 24  8  1  0  0  0  0
 26 27  1  0  0  0  0
 26 25  1  0  0  0  0
 29 27  1  0  0  0  0
 29 28  2  0  0  0  0
 30 29  2  0  0  0  0
M  END
>  <MODEL>
5

>  <REMARK>
 VINA RESULT:      -6.6      3.903      7.082
  Name = 
  6 active torsions:
  status: ('A' for Active; 'I' for Inactive)
    1  A    between atoms: N_7  and  N_15
    2  A    between atoms: N_7  and  C_16
    3  A    between atoms: C_8  and  C_12
    4  A    between atoms: N_13  and  C_27
    5  A    between atoms: C_16  and  C_30
    6  A    between atoms: C_27  and  C_30
                            x       y       z     vdW  Elec       q    Type
                         _______ _______ _______ _____ _____    ______ ____

>  <TORSDO>
F 6

$$$$
=
 OpenBabel11052412283D

 30 33  0  0  0  0  0  0  0  0999 V2000
  185.1510  178.4070  138.7390 N   0  0  0  0  0  0  0  0  0  0  0  0
  187.5540  178.2530  138.6280 C   0  0  0  0  0  0  0  0  0  0  0  0
  185.0810  178.7840  142.7910 N   0  0  0  0  0  0  0  0  0  0  0  0
  183.9860  178.5390  139.4410 C   0  0  0  0  0  0  0  0  0  0  0  0
  181.8270  178.3660  136.5980 O   0  0  0  0  0  0  0  0  0  0  0  0
  182.5230  177.8590  137.5180 C   0  0  0  0  0  0  0  0  0  0  0  0
  183.7390  178.8580  142.9360 C   0  0  0  0  0  0  0  0  0  0  0  0
  182.7270  178.5910  138.7430 N   0  0  0  0  0  0  0  0  0  0  0  0
  188.7860  178.2470  139.2900 C   0  0  0  0  0  3  0  0  0  0  0  0
  187.5300  178.1060  137.1440 C   0  0  0  0  0  1  0  0  0  0  0  0
  185.2290  178.6600  141.4580 C   0  0  0  0  0  0  0  0  0  0  0  0
  188.8460  178.3810  140.6810 C   0  0  0  0  0  3  0  0  0  0  0  0
  186.3660  178.3950  139.3650 C   0  0  0  0  0  0  0  0  0  0  0  0
  184.0610  178.6610  140.7960 N   0  0  0  0  0  0  0  0  0  0  0  0
  183.0610  179.0030  144.2500 C   0  0  0  0  0  1  0  0  0  0  0  0
  183.0880  178.7780  141.7160 C   0  0  0  0  0  3  0  0  0  0  0  0
  187.6710  178.5220  141.4250 C   0  0  0  0  0  3  0  0  0  0  0  0
  186.4350  178.5280  140.7740 C   0  0  0  0  0  0  0  0  0  0  0  0
  183.7640  176.0630  136.2060 C   0  0  0  0  0  3  0  0  0  0  0  0
  182.9990  175.5560  138.2140 O   0  0  0  0  0  0  0  0  0  0  0  0
  183.0780  176.5080  137.3180 C   0  0  0  0  0  0  0  0  0  0  0  0
  184.0930  174.7500  136.4890 C   0  0  0  0  0  3  0  0  0  0  0  0
  183.5940  174.4830  137.7530 C   0  0  0  0  0  3  0  0  0  0  0  0
  181.7220  179.5730  139.1510 C   0  0  0  0  0  2  0  0  0  0  0  0
  182.1140  180.9820  138.7160 C   0  0  0  0  0  2  0  0  0  0  0  0
  181.1920  181.5120  137.6280 C   0  0  0  0  0  2  0  0  0  0  0  0
  180.8390  182.8970  137.9010 N   0  0  0  0  0  2  0  0  0  0  0  0
  180.8980  184.1950  135.8680 O   0  0  0  0  0  0  0  0  0  0  0  0
  181.3690  183.9460  137.1370 N   0  0  0  0  0  0  0  0  0  0  0  0
  182.3050  184.6290  137.5930 O   0  0  0  0  0  0  0  0  0  0  0  0
  1 13  1  0  0  0  0
  1  4  2  0  0  0  0
  2  9  2  0  0  0  0
  2 13  1  0  0  0  0
  3  7  1  0  0  0  0
  4 14  1  0  0  0  0
  5  6  2  0  0  0  0
  6  8  1  0  0  0  0
  7 15  1  0  0  0  0
  8 24  1  0  0  0  0
  8  4  1  0  0  0  0
  9 12  1  0  0  0  0
 10  2  1  0  0  0  0
 11  3  2  0  0  0  0
 12 17  2  0  0  0  0
 13 18  2  0  0  0  0
 14 11  1  0  0  0  0
 14 16  1  0  0  0  0
 16  7  2  0  0  0  0
 18 17  1  0  0  0  0
 18 11  1  0  0  0  0
 19 22  1  0  0  0  0
 19 21  2  0  0  0  0
 21  6  1  0  0  0  0
 21 20  1  0  0  0  0
 22 23  2  0  0  0  0
 23 20  1  0  0  0  0
 25 24  1  0  0  0  0
 26 27  1  0  0  0  0
 26 25  1  0  0  0  0
 28 29  2  0  0  0  0
 29 30  2  0  0  0  0
 29 27  1  0  0  0  0
M  END
>  <MODEL>
6

>  <REMARK>
 VINA RESULT:      -6.4      3.222      5.452
  Name = 
  6 active torsions:
  status: ('A' for Active; 'I' for Inactive)
    1  A    between atoms: N_7  and  N_15
    2  A    between atoms: N_7  and  C_16
    3  A    between atoms: C_8  and  C_12
    4  A    between atoms: N_13  and  C_27
    5  A    between atoms: C_16  and  C_30
    6  A    between atoms: C_27  and  C_30
                            x       y       z     vdW  Elec       q    Type
                         _______ _______ _______ _____ _____    ______ ____

>  <TORSDO>
F 6

$$$$
=
 OpenBabel11052412283D

 30 33  0  0  0  0  0  0  0  0999 V2000
  189.2720  176.4990  136.6680 N   0  0  0  0  0  0  0  0  0  0  0  0
  191.5090  175.9060  135.9950 C   0  0  0  0  0  0  0  0  0  0  0  0
  190.3640  177.4320  140.4770 N   0  0  0  0  0  0  0  0  0  0  0  0
  188.3720  176.9310  137.6010 C   0  0  0  0  0  0  0  0  0  0  0  0
  185.5170  176.7600  135.4590 O   0  0  0  0  0  0  0  0  0  0  0  0
  186.3620  176.2670  136.2540 C   0  0  0  0  0  0  0  0  0  0  0  0
  189.1340  177.7630  140.9340 C   0  0  0  0  0  0  0  0  0  0  0  0
  186.9900  177.1110  137.2390 N   0  0  0  0  0  0  0  0  0  0  0  0
  192.8630  175.7710  136.3220 C   0  0  0  0  0  3  0  0  0  0  0  0
  191.0620  175.5640  134.6140 C   0  0  0  0  0  1  0  0  0  0  0  0
  190.1230  177.1030  139.1930 C   0  0  0  0  0  0  0  0  0  0  0  0
  193.3180  176.0800  137.6080 C   0  0  0  0  0  3  0  0  0  0  0  0
  190.5990  176.3560  136.9660 C   0  0  0  0  0  0  0  0  0  0  0  0
  188.8300  177.2220  138.8510 N   0  0  0  0  0  0  0  0  0  0  0  0
  188.8670  178.2050  142.3270 C   0  0  0  0  0  1  0  0  0  0  0  0
  188.1710  177.6350  139.9470 C   0  0  0  0  0  3  0  0  0  0  0  0
  192.4210  176.5280  138.5820 C   0  0  0  0  0  3  0  0  0  0  0  0
  191.0670  176.6660  138.2670 C   0  0  0  0  0  0  0  0  0  0  0  0
  187.1480  174.1550  135.0660 C   0  0  0  0  0  3  0  0  0  0  0  0
  186.4880  173.9950  137.1670 O   0  0  0  0  0  0  0  0  0  0  0  0
  186.6520  174.8240  136.1680 C   0  0  0  0  0  0  0  0  0  0  0  0
  187.2660  172.8380  135.4710 C   0  0  0  0  0  3  0  0  0  0  0  0
  186.8430  172.7910  136.7880 C   0  0  0  0  0  3  0  0  0  0  0  0
  186.2770  178.3030  137.7010 C   0  0  0  0  0  2  0  0  0  0  0  0
  184.8990  177.9470  138.2520 C   0  0  0  0  0  2  0  0  0  0  0  0
  184.3060  179.0880  139.0630 C   0  0  0  0  0  2  0  0  0  0  0  0
  185.2080  179.4590  140.1420 N   0  0  0  0  0  2  0  0  0  0  0  0
  184.2390  177.9200  141.7280 O   0  0  0  0  0  0  0  0  0  0  0  0
  184.9630  179.0600  141.4630 N   0  0  0  0  0  0  0  0  0  0  0  0
  185.3650  179.7680  142.4060 O   0  0  0  0  0  0  0  0  0  0  0  0
  1 13  1  0  0  0  0
  1  4  2  0  0  0  0
  2  9  2  0  0  0  0
  2 13  1  0  0  0  0
  3  7  1  0  0  0  0
  4 14  1  0  0  0  0
  5  6  2  0  0  0  0
  6  8  1  0  0  0  0
  7 15  1  0  0  0  0
  8  4  1  0  0  0  0
  8 24  1  0  0  0  0
  9 12  1  0  0  0  0
 10  2  1  0  0  0  0
 11  3  2  0  0  0  0
 12 17  2  0  0  0  0
 13 18  2  0  0  0  0
 14 11  1  0  0  0  0
 14 16  1  0  0  0  0
 16  7  2  0  0  0  0
 18 17  1  0  0  0  0
 18 11  1  0  0  0  0
 19 22  1  0  0  0  0
 19 21  2  0  0  0  0
 21  6  1  0  0  0  0
 21 20  1  0  0  0  0
 22 23  2  0  0  0  0
 23 20  1  0  0  0  0
 24 25  1  0  0  0  0
 25 26  1  0  0  0  0
 26 27  1  0  0  0  0
 27 29  1  0  0  0  0
 29 28  2  0  0  0  0
 29 30  2  0  0  0  0
M  END
>  <MODEL>
7

>  <REMARK>
 VINA RESULT:      -6.3      2.744      4.349
  Name = 
  6 active torsions:
  status: ('A' for Active; 'I' for Inactive)
    1  A    between atoms: N_7  and  N_15
    2  A    between atoms: N_7  and  C_16
    3  A    between atoms: C_8  and  C_12
    4  A    between atoms: N_13  and  C_27
    5  A    between atoms: C_16  and  C_30
    6  A    between atoms: C_27  and  C_30
                            x       y       z     vdW  Elec       q    Type
                         _______ _______ _______ _____ _____    ______ ____

>  <TORSDO>
F 6

$$$$
=
 OpenBabel11052412283D

 30 33  0  0  0  0  0  0  0  0999 V2000
  182.8820  178.3540  141.0680 N   0  0  0  0  0  0  0  0  0  0  0  0
  182.2780  178.7480  143.3680 C   0  0  0  0  0  0  0  0  0  0  0  0
  186.8780  178.6960  141.7660 N   0  0  0  0  0  0  0  0  0  0  0  0
  183.8110  178.2220  140.0750 C   0  0  0  0  0  0  0  0  0  0  0  0
  181.4580  177.6510  137.4470 O   0  0  0  0  0  0  0  0  0  0  0  0
  182.1340  178.3860  138.2160 C   0  0  0  0  0  0  0  0  0  0  0  0
  187.2940  178.5030  140.4940 C   0  0  0  0  0  0  0  0  0  0  0  0
  183.3920  177.9100  138.7330 N   0  0  0  0  0  0  0  0  0  0  0  0
  182.6750  179.0050  144.6840 C   0  0  0  0  0  3  0  0  0  0  0  0
  180.8230  178.6260  143.0630 C   0  0  0  0  0  1  0  0  0  0  0  0
  185.5390  178.5970  141.6580 C   0  0  0  0  0  0  0  0  0  0  0  0
  184.0310  179.1280  145.0060 C   0  0  0  0  0  3  0  0  0  0  0  0
  183.2480  178.6100  142.3600 C   0  0  0  0  0  0  0  0  0  0  0  0
  185.1280  178.3510  140.4030 N   0  0  0  0  0  0  0  0  0  0  0  0
  188.7220  178.5190  140.0850 C   0  0  0  0  0  1  0  0  0  0  0  0
  186.2280  178.2930  139.6340 C   0  0  0  0  0  3  0  0  0  0  0  0
  185.0050  178.9940  144.0120 C   0  0  0  0  0  3  0  0  0  0  0  0
  184.6190  178.7360  142.6940 C   0  0  0  0  0  0  0  0  0  0  0  0
  180.4020  180.0310  139.1010 C   0  0  0  0  0  3  0  0  0  0  0  0
  182.3060  180.8300  138.3190 O   0  0  0  0  0  0  0  0  0  0  0  0
  181.6240  179.7330  138.5310 C   0  0  0  0  0  0  0  0  0  0  0  0
  180.3860  181.4090  139.2140 C   0  0  0  0  0  3  0  0  0  0  0  0
  181.5960  181.8590  138.7130 C   0  0  0  0  0  3  0  0  0  0  0  0
  184.1360  176.9120  137.9630 C   0  0  0  0  0  2  0  0  0  0  0  0
  184.7000  177.5100  136.6770 C   0  0  0  0  0  2  0  0  0  0  0  0
  185.8550  176.6840  136.1320 C   0  0  0  0  0  2  0  0  0  0  0  0
  186.8600  177.5550  135.5430 N   0  0  0  0  0  2  0  0  0  0  0  0
  187.5990  179.4530  136.8360 O   0  0  0  0  0  0  0  0  0  0  0  0
  187.8250  178.1910  136.3350 N   0  0  0  0  0  0  0  0  0  0  0  0
  188.9160  177.6290  136.5490 O   0  0  0  0  0  0  0  0  0  0  0  0
  1 13  1  0  0  0  0
  2  9  1  0  0  0  0
  4 14  1  0  0  0  0
  4  1  2  0  0  0  0
  5  6  2  0  0  0  0
  6 21  1  0  0  0  0
  6  8  1  0  0  0  0
  7  3  1  0  0  0  0
  8  4  1  0  0  0  0
  9 12  2  0  0  0  0
 10  2  1  0  0  0  0
 11  3  2  0  0  0  0
 11 18  1  0  0  0  0
 13 18  1  0  0  0  0
 13  2  2  0  0  0  0
 14 11  1  0  0  0  0
 15  7  1  0  0  0  0
 16 14  1  0  0  0  0
 16  7  2  0  0  0  0
 17 12  1  0  0  0  0
 18 17  2  0  0  0  0
 19 22  1  0  0  0  0
 20 21  1  0  0  0  0
 20 23  1  0  0  0  0
 21 19  2  0  0  0  0
 23 22  2  0  0  0  0
 24  8  1  0  0  0  0
 25 24  1  0  0  0  0
 26 25  1  0  0  0  0
 27 26  1  0  0  0  0
 27 29  1  0  0  0  0
 29 30  2  0  0  0  0
 29 28  2  0  0  0  0
M  END
>  <MODEL>
8

>  <REMARK>
 VINA RESULT:      -6.3      3.412      6.676
  Name = 
  6 active torsions:
  status: ('A' for Active; 'I' for Inactive)
    1  A    between atoms: N_7  and  N_15
    2  A    between atoms: N_7  and  C_16
    3  A    between atoms: C_8  and  C_12
    4  A    between atoms: N_13  and  C_27
    5  A    between atoms: C_16  and  C_30
    6  A    between atoms: C_27  and  C_30
                            x       y       z     vdW  Elec       q    Type
                         _______ _______ _______ _____ _____    ______ ____

>  <TORSDO>
F 6

$$$$
=
 OpenBabel11052412283D

 30 33  0  0  0  0  0  0  0  0999 V2000
  185.6640  178.4090  139.1790 N   0  0  0  0  0  0  0  0  0  0  0  0
  188.0550  178.1330  139.0390 C   0  0  0  0  0  0  0  0  0  0  0  0
  185.6450  178.6320  143.2440 N   0  0  0  0  0  0  0  0  0  0  0  0
  184.5140  178.5760  139.8960 C   0  0  0  0  0  0  0  0  0  0  0  0
  182.3270  178.6290  137.0700 O   0  0  0  0  0  0  0  0  0  0  0  0
  183.0020  178.0500  137.9640 C   0  0  0  0  0  0  0  0  0  0  0  0
  184.3100  178.7710  143.4040 C   0  0  0  0  0  0  0  0  0  0  0  0
  183.2540  178.7220  139.2140 N   0  0  0  0  0  0  0  0  0  0  0  0
  189.2900  178.0360  139.6890 C   0  0  0  0  0  3  0  0  0  0  0  0
  188.0120  178.0450  137.5510 C   0  0  0  0  0  1  0  0  0  0  0  0
  185.7760  178.5520  141.9050 C   0  0  0  0  0  0  0  0  0  0  0  0
  189.3670  178.1120  141.0830 C   0  0  0  0  0  3  0  0  0  0  0  0
  186.8820  178.3080  139.7930 C   0  0  0  0  0  0  0  0  0  0  0  0
  184.6050  178.6410  141.2540 N   0  0  0  0  0  0  0  0  0  0  0  0
  183.6510  178.9010  144.7290 C   0  0  0  0  0  1  0  0  0  0  0  0
  183.6470  178.7730  142.1870 C   0  0  0  0  0  3  0  0  0  0  0  0
  188.2080  178.2860  141.8440 C   0  0  0  0  0  3  0  0  0  0  0  0
  186.9680  178.3830  141.2050 C   0  0  0  0  0  0  0  0  0  0  0  0
  183.0560  175.5320  138.3430 C   0  0  0  0  0  3  0  0  0  0  0  0
  184.3800  176.3890  136.7990 O   0  0  0  0  0  0  0  0  0  0  0  0
  183.4830  176.6800  137.7070 C   0  0  0  0  0  0  0  0  0  0  0  0
  183.7750  174.5070  137.7560 C   0  0  0  0  0  3  0  0  0  0  0  0
  184.5860  175.0940  136.8000 C   0  0  0  0  0  3  0  0  0  0  0  0
  182.3050  179.7390  139.6680 C   0  0  0  0  0  2  0  0  0  0  0  0
  180.8820  179.1900  139.7140 C   0  0  0  0  0  2  0  0  0  0  0  0
  180.7530  178.0420  140.7030 C   0  0  0  0  0  2  0  0  0  0  0  0
  179.6870  178.3170  141.6540 N   0  0  0  0  0  2  0  0  0  0  0  0
  179.6810  177.8780  144.0270 O   0  0  0  0  0  0  0  0  0  0  0  0
  179.9700  178.7100  142.9690 N   0  0  0  0  0  0  0  0  0  0  0  0
  180.4460  179.8410  143.1860 O   0  0  0  0  0  0  0  0  0  0  0  0
  1 13  1  0  0  0  0
  1  4  2  0  0  0  0
  2  9  2  0  0  0  0
  2 13  1  0  0  0  0
  3  7  1  0  0  0  0
  4 14  1  0  0  0  0
  5  6  2  0  0  0  0
  6  8  1  0  0  0  0
  7 15  1  0  0  0  0
  8 24  1  0  0  0  0
  8  4  1  0  0  0  0
  9 12  1  0  0  0  0
 10  2  1  0  0  0  0
 11  3  2  0  0  0  0
 12 17  2  0  0  0  0
 13 18  2  0  0  0  0
 14 11  1  0  0  0  0
 14 16  1  0  0  0  0
 16  7  2  0  0  0  0
 18 17  1  0  0  0  0
 18 11  1  0  0  0  0
 20 23  1  0  0  0  0
 20 21  1  0  0  0  0
 21  6  1  0  0  0  0
 21 19  2  0  0  0  0
 22 19  1  0  0  0  0
 23 22  2  0  0  0  0
 24 25  1  0  0  0  0
 25 26  1  0  0  0  0
 26 27  1  0  0  0  0
 27 29  1  0  0  0  0
 29 30  2  0  0  0  0
 29 28  2  0  0  0  0
M  END
>  <MODEL>
9

>  <REMARK>
 VINA RESULT:      -6.2      2.488      3.779
  Name = 
  6 active torsions:
  status: ('A' for Active; 'I' for Inactive)
    1  A    between atoms: N_7  and  N_15
    2  A    between atoms: N_7  and  C_16
    3  A    between atoms: C_8  and  C_12
    4  A    between atoms: N_13  and  C_27
    5  A    between atoms: C_16  and  C_30
    6  A    between atoms: C_27  and  C_30
                            x       y       z     vdW  Elec       q    Type
                         _______ _______ _______ _____ _____    ______ ____

>  <TORSDO>
F 6

$$$$
