=
 OpenBabel11052413123D

 31 34  0  0  1  0  0  0  0  0999 V2000
  185.1370  178.1790  145.5520 C   0  0  0  0  0  0  0  0  0  0  0  0
  188.5420  177.3250  144.2470 C   0  0  0  0  0  0  0  0  0  0  0  0
  189.3110  176.8880  145.4940 C   0  0  2  0  0  3  0  0  0  0  0  0
  190.0190  177.7810  147.7110 C   0  0  0  0  0  0  0  0  0  0  0  0
  187.1820  177.7240  144.3100 C   0  0  0  0  0  0  0  0  0  0  0  0
  184.4870  178.5350  144.3690 C   0  0  0  0  0  3  0  0  0  0  0  0
  189.1560  177.8080  146.6800 C   0  0  0  0  0  3  0  0  0  0  0  0
  188.4270  177.5500  141.8170 C   0  0  0  0  0  0  0  0  0  0  0  0
  184.4710  178.2270  146.7310 F   0  0  0  0  0  0  0  0  0  0  0  0
  191.0030  175.8330  144.0000 C   0  0  0  0  0  2  0  0  0  0  0  0
  189.8140  178.6200  148.7570 F   0  0  0  0  0  0  0  0  0  0  0  0
  187.1430  177.9820  141.9230 N   0  0  0  0  0  0  0  0  0  0  0  0
  189.1410  177.1770  142.9670 C   0  0  0  0  0  0  0  0  0  0  0  0
  189.0420  177.4540  140.5270 N   0  0  0  0  0  2  0  0  0  0  0  0
  186.4730  177.7740  145.5220 C   0  0  0  0  0  3  0  0  0  0  0  0
  191.2920  176.9590  147.6750 C   0  0  0  0  0  2  0  0  0  0  0  0
  186.5070  178.0680  143.1160 C   0  0  0  0  0  0  0  0  0  0  0  0
  185.1710  178.4770  143.1530 C   0  0  0  0  0  3  0  0  0  0  0  0
  190.5570  176.6730  142.8120 C   0  0  0  0  0  2  0  0  0  0  0  0
  190.8020  176.6680  145.2420 C   0  0  2  0  0  3  0  0  0  0  0  0
  191.3890  176.0040  146.4780 C   0  0  0  0  0  2  0  0  0  0  0  0
  189.1140  179.0060  138.6600 C   0  0  0  0  0  1  0  0  0  0  0  0
  188.3660  177.8450  139.2960 C   0  0  1  0  0  3  0  0  0  0  0  0
  187.2900  176.8510  137.3940 O   0  0  0  0  0  1  0  0  0  0  0  0
  188.3040  176.6560  138.3350 C   0  0  1  0  0  3  0  0  0  0  0  0
  189.7160  176.7580  136.4390 O   0  0  0  0  0  0  0  0  0  0  0  0
  189.6060  176.4520  137.6170 C   0  0  0  0  0  0  0  0  0  0  0  0
  190.7540  175.8150  138.3340 C   0  0  0  0  0  2  0  0  0  0  0  0
  192.0310  176.6240  138.1710 C   0  0  0  0  0  3  0  0  0  0  0  0
  193.0920  175.7560  137.5300 C   0  0  0  0  0  1  0  0  0  0  0  0
  192.5280  177.0930  139.5250 C   0  0  0  0  0  1  0  0  0  0  0  0
  1  9  1  0  0  0  0
  2  5  1  0  0  0  0
  2  3  1  0  0  0  0
  3  7  1  1  0  0  0
  4 11  1  0  0  0  0
  5 15  2  0  0  0  0
  6  1  2  0  0  0  0
  7  4  2  0  0  0  0
  8 12  2  0  0  0  0
  8 13  1  0  0  0  0
 12 17  1  0  0  0  0
 13  2  2  0  0  0  0
 14  8  1  0  0  0  0
 15  1  1  0  0  0  0
 16  4  1  0  0  0  0
 17 18  2  0  0  0  0
 17  5  1  0  0  0  0
 18  6  1  0  0  0  0
 19 13  1  0  0  0  0
 19 10  1  0  0  0  0
 20 10  1  6  0  0  0
 20  3  1  0  0  0  0
 20 21  1  0  0  0  0
 21 16  1  0  0  0  0
 23 22  1  6  0  0  0
 23 14  1  0  0  0  0
 25 24  1  6  0  0  0
 25 23  1  0  0  0  0
 26 27  2  0  0  0  0
 27 28  1  0  0  0  0
 27 25  1  0  0  0  0
 29 28  1  0  0  0  0
 29 31  1  0  0  0  0
 30 29  1  0  0  0  0
M  END
>  <MODEL>
1

>  <REMARK>
 VINA RESULT:      -9.6      0.000      0.000
  Name = 
  5 active torsions:
  status: ('A' for Active; 'I' for Inactive)
    1  A    between atoms: C_1  and  C_24
    2  A    between atoms: C_9  and  C_22
    3  A    between atoms: C_9  and  N_23
    4  A    between atoms: C_19  and  C_22
    5  A    between atoms: C_19  and  C_24
                            x       y       z     vdW  Elec       q    Type
                         _______ _______ _______ _____ _____    ______ ____

>  <TORSDO>
F 5

$$$$
=
 OpenBabel11052413123D

 31 34  0  0  1  0  0  0  0  0999 V2000
  185.4830  177.9980  145.3400 C   0  0  0  0  0  0  0  0  0  0  0  0
  188.9460  177.1350  144.2050 C   0  0  0  0  0  0  0  0  0  0  0  0
  189.6660  176.7450  145.4960 C   0  0  2  0  0  3  0  0  0  0  0  0
  190.2740  177.7150  147.7100 C   0  0  0  0  0  0  0  0  0  0  0  0
  187.5820  177.5230  144.2000 C   0  0  0  0  0  0  0  0  0  0  0  0
  184.8800  178.3100  144.1210 C   0  0  0  0  0  3  0  0  0  0  0  0
  189.4550  177.7010  146.6440 C   0  0  0  0  0  3  0  0  0  0  0  0
  188.9310  177.2800  141.7670 C   0  0  0  0  0  0  0  0  0  0  0  0
  184.7690  178.0780  146.4890 F   0  0  0  0  0  0  0  0  0  0  0  0
  191.4270  175.6580  144.1080 C   0  0  0  0  0  2  0  0  0  0  0  0
  190.0200  178.5850  148.7200 F   0  0  0  0  0  0  0  0  0  0  0  0
  187.6400  177.7030  141.8060 N   0  0  0  0  0  0  0  0  0  0  0  0
  189.5990  176.9520  142.9570 C   0  0  0  0  0  0  0  0  0  0  0  0
  189.5990  177.1490  140.5070 N   0  0  0  0  0  2  0  0  0  0  0  0
  186.8230  177.6050  145.3790 C   0  0  0  0  0  3  0  0  0  0  0  0
  191.5550  176.9040  147.7540 C   0  0  0  0  0  2  0  0  0  0  0  0
  186.9540  177.8220  142.9690 C   0  0  0  0  0  0  0  0  0  0  0  0
  185.6140  178.2200  142.9370 C   0  0  0  0  0  3  0  0  0  0  0  0
  191.0240  176.4560  142.8760 C   0  0  0  0  0  2  0  0  0  0  0  0
  191.1680  176.5310  145.3140 C   0  0  2  0  0  3  0  0  0  0  0  0
  191.7090  175.9120  146.5930 C   0  0  0  0  0  2  0  0  0  0  0  0
  189.2180  178.9640  138.9400 C   0  0  0  0  0  1  0  0  0  0  0  0
  188.9720  177.4940  139.2370 C   0  0  1  0  0  3  0  0  0  0  0  0
  190.3060  175.5830  138.6620 O   0  0  0  0  0  1  0  0  0  0  0  0
  189.5410  176.6180  138.1190 C   0  0  1  0  0  3  0  0  0  0  0  0
  188.3150  174.8180  137.1950 O   0  0  0  0  0  0  0  0  0  0  0  0
  188.4550  176.0300  137.2660 C   0  0  0  0  0  0  0  0  0  0  0  0
  187.5820  176.9330  136.4530 C   0  0  0  0  0  2  0  0  0  0  0  0
  186.1180  176.7840  136.8350 C   0  0  0  0  0  3  0  0  0  0  0  0
  185.2730  176.7850  135.5780 C   0  0  0  0  0  1  0  0  0  0  0  0
  185.6890  177.9390  137.7190 C   0  0  0  0  0  1  0  0  0  0  0  0
  1 15  1  0  0  0  0
  1  9  1  0  0  0  0
  2  3  1  0  0  0  0
  3  7  1  1  0  0  0
  4 16  1  0  0  0  0
  4 11  1  0  0  0  0
  5  2  1  0  0  0  0
  5 15  2  0  0  0  0
  6  1  2  0  0  0  0
  7  4  2  0  0  0  0
  8 12  2  0  0  0  0
  8 13  1  0  0  0  0
 12 17  1  0  0  0  0
 13  2  2  0  0  0  0
 14  8  1  0  0  0  0
 17  5  1  0  0  0  0
 18 17  2  0  0  0  0
 18  6  1  0  0  0  0
 19 13  1  0  0  0  0
 19 10  1  0  0  0  0
 20 10  1  6  0  0  0
 20  3  1  0  0  0  0
 20 21  1  0  0  0  0
 21 16  1  0  0  0  0
 23 22  1  6  0  0  0
 23 14  1  0  0  0  0
 25 24  1  1  0  0  0
 25 23  1  0  0  0  0
 26 27  2  0  0  0  0
 27 25  1  0  0  0  0
 28 29  1  0  0  0  0
 28 27  1  0  0  0  0
 29 31  1  0  0  0  0
 30 29  1  0  0  0  0
M  END
>  <MODEL>
2

>  <REMARK>
 VINA RESULT:      -9.5      1.338      2.509
  Name = 
  5 active torsions:
  status: ('A' for Active; 'I' for Inactive)
    1  A    between atoms: C_1  and  C_24
    2  A    between atoms: C_9  and  C_22
    3  A    between atoms: C_9  and  N_23
    4  A    between atoms: C_19  and  C_22
    5  A    between atoms: C_19  and  C_24
                            x       y       z     vdW  Elec       q    Type
                         _______ _______ _______ _____ _____    ______ ____

>  <TORSDO>
F 5

$$$$
=
 OpenBabel11052413123D

 31 34  0  0  1  0  0  0  0  0999 V2000
  184.7230  178.4490  144.5140 C   0  0  0  0  0  0  0  0  0  0  0  0
  188.1810  177.5220  143.4140 C   0  0  0  0  0  0  0  0  0  0  0  0
  188.8530  177.0360  144.6980 C   0  0  2  0  0  3  0  0  0  0  0  0
  189.4390  177.8610  146.9760 C   0  0  0  0  0  0  0  0  0  0  0  0
  186.8310  177.9590  143.3980 C   0  0  0  0  0  0  0  0  0  0  0  0
  184.1620  178.8480  143.3000 C   0  0  0  0  0  3  0  0  0  0  0  0
  188.6470  177.9360  145.8920 C   0  0  0  0  0  3  0  0  0  0  0  0
  188.2320  177.8000  140.9870 C   0  0  0  0  0  0  0  0  0  0  0  0
  183.9830  178.4930  145.6480 F   0  0  0  0  0  0  0  0  0  0  0  0
  190.6100  175.9620  143.2940 C   0  0  0  0  0  2  0  0  0  0  0  0
  189.1900  178.6840  148.0260 F   0  0  0  0  0  0  0  0  0  0  0  0
  186.9560  178.2670  141.0200 N   0  0  0  0  0  0  0  0  0  0  0  0
  188.8580  177.3830  142.1730 C   0  0  0  0  0  0  0  0  0  0  0  0
  188.9270  177.7120  139.7390 N   0  0  0  0  0  2  0  0  0  0  0  0
  186.0470  178.0050  144.5620 C   0  0  0  0  0  3  0  0  0  0  0  0
  190.6880  177.0030  147.0050 C   0  0  0  0  0  2  0  0  0  0  0  0
  186.2460  178.3480  142.1710 C   0  0  0  0  0  0  0  0  0  0  0  0
  184.9230  178.7960  142.1300 C   0  0  0  0  0  3  0  0  0  0  0  0
  190.2660  176.8400  142.0980 C   0  0  0  0  0  2  0  0  0  0  0  0
  190.3510  176.7770  144.5390 C   0  0  2  0  0  3  0  0  0  0  0  0
  190.8370  176.0700  145.7950 C   0  0  0  0  0  2  0  0  0  0  0  0
  189.1230  179.3440  137.9510 C   0  0  0  0  0  1  0  0  0  0  0  0
  188.3450  178.1490  138.4750 C   0  0  1  0  0  3  0  0  0  0  0  0
  189.1720  175.9590  137.9420 O   0  0  0  0  0  1  0  0  0  0  0  0
  188.3760  177.0020  137.4630 C   0  0  1  0  0  3  0  0  0  0  0  0
  186.7580  175.2830  137.2920 O   0  0  0  0  0  0  0  0  0  0  0  0
  187.0000  176.4760  137.1750 C   0  0  0  0  0  0  0  0  0  0  0  0
  185.9380  177.4100  136.6850 C   0  0  0  0  0  2  0  0  0  0  0  0
  184.6520  177.2570  137.4810 C   0  0  0  0  0  3  0  0  0  0  0  0
  183.4750  177.2530  136.5290 C   0  0  0  0  0  1  0  0  0  0  0  0
  184.4980  178.4120  138.4510 C   0  0  0  0  0  1  0  0  0  0  0  0
  1 15  1  0  0  0  0
  1  9  1  0  0  0  0
  2  3  1  0  0  0  0
  3  7  1  1  0  0  0
  4 16  1  0  0  0  0
  4 11  1  0  0  0  0
  5  2  1  0  0  0  0
  5 15  2  0  0  0  0
  6  1  2  0  0  0  0
  7  4  2  0  0  0  0
  8 12  2  0  0  0  0
  8 13  1  0  0  0  0
 12 17  1  0  0  0  0
 13  2  2  0  0  0  0
 14  8  1  0  0  0  0
 17  5  1  0  0  0  0
 18 17  2  0  0  0  0
 18  6  1  0  0  0  0
 19 13  1  0  0  0  0
 19 10  1  0  0  0  0
 20 10  1  6  0  0  0
 20  3  1  0  0  0  0
 20 21  1  0  0  0  0
 21 16  1  0  0  0  0
 23 22  1  6  0  0  0
 23 14  1  0  0  0  0
 25 24  1  1  0  0  0
 25 23  1  0  0  0  0
 27 26  2  0  0  0  0
 27 25  1  0  0  0  0
 28 27  1  0  0  0  0
 28 29  1  0  0  0  0
 29 31  1  0  0  0  0
 30 29  1  0  0  0  0
M  END
>  <MODEL>
3

>  <REMARK>
 VINA RESULT:      -9.3      1.735      3.070
  Name = 
  5 active torsions:
  status: ('A' for Active; 'I' for Inactive)
    1  A    between atoms: C_1  and  C_24
    2  A    between atoms: C_9  and  C_22
    3  A    between atoms: C_9  and  N_23
    4  A    between atoms: C_19  and  C_22
    5  A    between atoms: C_19  and  C_24
                            x       y       z     vdW  Elec       q    Type
                         _______ _______ _______ _____ _____    ______ ____

>  <TORSDO>
F 5

$$$$
=
 OpenBabel11052413123D

 31 34  0  0  1  0  0  0  0  0999 V2000
  182.8320  178.6720  143.3810 C   0  0  0  0  0  0  0  0  0  0  0  0
  186.5240  178.0450  143.3480 C   0  0  0  0  0  0  0  0  0  0  0  0
  186.8520  177.7230  144.8060 C   0  0  2  0  0  3  0  0  0  0  0  0
  186.7110  178.7590  147.0690 C   0  0  0  0  0  0  0  0  0  0  0  0
  185.2010  178.3340  142.9270 C   0  0  0  0  0  0  0  0  0  0  0  0
  182.6000  178.9260  142.0290 C   0  0  0  0  0  3  0  0  0  0  0  0
  186.2480  178.6740  145.8090 C   0  0  0  0  0  3  0  0  0  0  0  0
  187.2240  178.1600  141.0100 C   0  0  0  0  0  0  0  0  0  0  0  0
  181.8050  178.7140  144.2640 F   0  0  0  0  0  0  0  0  0  0  0  0
  189.0130  176.7480  144.0360 C   0  0  0  0  0  2  0  0  0  0  0  0
  186.1130  179.6210  147.9290 F   0  0  0  0  0  0  0  0  0  0  0  0
  185.9550  178.4900  140.6530 N   0  0  0  0  0  0  0  0  0  0  0  0
  187.5290  177.8940  142.3550 C   0  0  0  0  0  0  0  0  0  0  0  0
  188.2440  178.0620  140.0100 N   0  0  0  0  0  2  0  0  0  0  0  0
  184.1230  178.3760  143.8260 C   0  0  0  0  0  3  0  0  0  0  0  0
  187.9700  178.0430  147.5150 C   0  0  0  0  0  2  0  0  0  0  0  0
  184.9500  178.5730  141.5570 C   0  0  0  0  0  0  0  0  0  0  0  0
  183.6570  178.8740  141.1180 C   0  0  0  0  0  3  0  0  0  0  0  0
  188.9420  177.5000  142.7150 C   0  0  0  0  0  2  0  0  0  0  0  0
  188.3510  177.6140  145.0830 C   0  0  2  0  0  3  0  0  0  0  0  0
  188.5260  177.0500  146.4840 C   0  0  0  0  0  2  0  0  0  0  0  0
  189.1960  179.0900  138.0260 C   0  0  0  0  0  1  0  0  0  0  0  0
  188.0010  178.3470  138.6010 C   0  0  1  0  0  3  0  0  0  0  0  0
  186.3950  176.8390  137.6450 O   0  0  0  0  0  1  0  0  0  0  0  0
  187.7640  177.0410  137.8380 C   0  0  1  0  0  3  0  0  0  0  0  0
  188.0330  177.7440  135.5940 O   0  0  0  0  0  0  0  0  0  0  0  0
  188.4520  177.0430  136.5040 C   0  0  0  0  0  0  0  0  0  0  0  0
  189.6200  176.1360  136.2730 C   0  0  0  0  0  2  0  0  0  0  0  0
  189.8850  175.2520  137.4810 C   0  0  0  0  0  3  0  0  0  0  0  0
  191.1480  175.7210  138.1730 C   0  0  0  0  0  1  0  0  0  0  0  0
  190.0680  173.8120  137.0450 C   0  0  0  0  0  1  0  0  0  0  0  0
  1 15  1  0  0  0  0
  1  9  1  0  0  0  0
  2  3  1  0  0  0  0
  3 20  1  0  0  0  0
  3  7  1  1  0  0  0
  4 16  1  0  0  0  0
  4 11  1  0  0  0  0
  5  2  1  0  0  0  0
  5 15  2  0  0  0  0
  6  1  2  0  0  0  0
  7  4  2  0  0  0  0
  8 13  1  0  0  0  0
 12  8  2  0  0  0  0
 12 17  1  0  0  0  0
 13 19  1  0  0  0  0
 13  2  2  0  0  0  0
 14  8  1  0  0  0  0
 17  5  1  0  0  0  0
 18 17  2  0  0  0  0
 18  6  1  0  0  0  0
 19 10  1  0  0  0  0
 20 10  1  6  0  0  0
 20 21  1  0  0  0  0
 21 16  1  0  0  0  0
 23 22  1  6  0  0  0
 23 14  1  0  0  0  0
 25 24  1  6  0  0  0
 25 23  1  0  0  0  0
 26 27  2  0  0  0  0
 27 25  1  0  0  0  0
 28 27  1  0  0  0  0
 28 29  1  0  0  0  0
 29 30  1  0  0  0  0
 31 29  1  0  0  0  0
M  END
>  <MODEL>
4

>  <REMARK>
 VINA RESULT:      -8.9      1.699      2.584
  Name = 
  5 active torsions:
  status: ('A' for Active; 'I' for Inactive)
    1  A    between atoms: C_1  and  C_24
    2  A    between atoms: C_9  and  C_22
    3  A    between atoms: C_9  and  N_23
    4  A    between atoms: C_19  and  C_22
    5  A    between atoms: C_19  and  C_24
                            x       y       z     vdW  Elec       q    Type
                         _______ _______ _______ _____ _____    ______ ____

>  <TORSDO>
F 5

$$$$
=
 OpenBabel11052413123D

 31 34  0  0  1  0  0  0  0  0999 V2000
  190.6650  177.6480  142.2330 C   0  0  0  0  0  0  0  0  0  0  0  0
  187.3440  178.0040  143.9280 C   0  0  0  0  0  0  0  0  0  0  0  0
  187.7040  178.1610  145.4050 C   0  0  2  0  0  3  0  0  0  0  0  0
  188.8760  176.9270  147.2260 C   0  0  0  0  0  0  0  0  0  0  0  0
  188.3400  177.8530  142.9290 C   0  0  0  0  0  0  0  0  0  0  0  0
  190.2660  177.5410  140.9000 C   0  0  0  0  0  3  0  0  0  0  0  0
  188.7180  177.1640  145.9120 C   0  0  0  0  0  3  0  0  0  0  0  0
  185.6650  178.0610  142.1540 C   0  0  0  0  0  0  0  0  0  0  0  0
  191.9810  177.5960  142.5520 F   0  0  0  0  0  0  0  0  0  0  0  0
  185.4080  179.0440  145.8030 C   0  0  0  0  0  2  0  0  0  0  0  0
  189.8180  176.0330  147.6200 F   0  0  0  0  0  0  0  0  0  0  0  0
  186.6420  177.8600  141.2310 N   0  0  0  0  0  0  0  0  0  0  0  0
  185.9960  178.1750  143.5140 C   0  0  0  0  0  0  0  0  0  0  0  0
  184.3010  178.1790  141.7340 N   0  0  0  0  0  2  0  0  0  0  0  0
  189.7090  177.8040  143.2390 C   0  0  0  0  0  3  0  0  0  0  0  0
  187.9400  177.5030  148.2700 C   0  0  0  0  0  2  0  0  0  0  0  0
  187.9500  177.7650  141.5730 C   0  0  0  0  0  0  0  0  0  0  0  0
  188.9100  177.6020  140.5710 C   0  0  0  0  0  3  0  0  0  0  0  0
  184.8900  178.4280  144.5120 C   0  0  0  0  0  2  0  0  0  0  0  0
  186.4910  178.1330  146.3330 C   0  0  2  0  0  3  0  0  0  0  0  0
  186.9560  178.5460  147.7210 C   0  0  0  0  0  2  0  0  0  0  0  0
  182.7510  177.0430  140.2500 C   0  0  0  0  0  1  0  0  0  0  0  0
  183.8870  178.0490  140.3430 C   0  0  1  0  0  3  0  0  0  0  0  0
  184.5520  180.1280  139.3420 O   0  0  0  0  0  1  0  0  0  0  0  0
  183.4440  179.4100  139.8000 C   0  0  1  0  0  3  0  0  0  0  0  0
  182.8040  178.8060  137.6040 O   0  0  0  0  0  0  0  0  0  0  0  0
  182.4550  179.2680  138.6800 C   0  0  0  0  0  0  0  0  0  0  0  0
  181.0510  179.7510  138.8680 C   0  0  0  0  0  2  0  0  0  0  0  0
  181.0060  181.2540  139.0930 C   0  0  0  0  0  3  0  0  0  0  0  0
  179.6660  181.6270  139.6910 C   0  0  0  0  0  1  0  0  0  0  0  0
  181.1800  181.9850  137.7760 C   0  0  0  0  0  1  0  0  0  0  0  0
  1  9  1  0  0  0  0
  1 15  1  0  0  0  0
  2  3  1  0  0  0  0
  3  7  1  1  0  0  0
  3 20  1  0  0  0  0
  4 11  1  0  0  0  0
  4 16  1  0  0  0  0
  5 15  2  0  0  0  0
  5  2  1  0  0  0  0
  6  1  2  0  0  0  0
  7  4  2  0  0  0  0
  8 13  1  0  0  0  0
 12 17  1  0  0  0  0
 12  8  2  0  0  0  0
 13  2  2  0  0  0  0
 13 19  1  0  0  0  0
 14  8  1  0  0  0  0
 17  5  1  0  0  0  0
 18  6  1  0  0  0  0
 18 17  2  0  0  0  0
 19 10  1  0  0  0  0
 20 10  1  6  0  0  0
 20 21  1  0  0  0  0
 21 16  1  0  0  0  0
 23 22  1  1  0  0  0
 23 14  1  0  0  0  0
 25 24  1  6  0  0  0
 25 23  1  0  0  0  0
 26 27  2  0  0  0  0
 27 28  1  0  0  0  0
 27 25  1  0  0  0  0
 28 29  1  0  0  0  0
 29 30  1  0  0  0  0
 31 29  1  0  0  0  0
M  END
>  <MODEL>
5

>  <REMARK>
 VINA RESULT:      -8.9      3.551      6.425
  Name = 
  5 active torsions:
  status: ('A' for Active; 'I' for Inactive)
    1  A    between atoms: C_1  and  C_24
    2  A    between atoms: C_9  and  C_22
    3  A    between atoms: C_9  and  N_23
    4  A    between atoms: C_19  and  C_22
    5  A    between atoms: C_19  and  C_24
                            x       y       z     vdW  Elec       q    Type
                         _______ _______ _______ _____ _____    ______ ____

>  <TORSDO>
F 5

$$$$
=
 OpenBabel11052413123D

 31 34  0  0  1  0  0  0  0  0999 V2000
  189.7380  177.9320  141.9530 C   0  0  0  0  0  0  0  0  0  0  0  0
  186.9430  178.2190  144.4290 C   0  0  0  0  0  0  0  0  0  0  0  0
  187.6540  178.2200  145.7820 C   0  0  2  0  0  3  0  0  0  0  0  0
  189.1620  176.7810  147.1490 C   0  0  0  0  0  0  0  0  0  0  0  0
  187.6610  178.1370  143.2090 C   0  0  0  0  0  0  0  0  0  0  0  0
  189.0270  177.9680  140.7530 C   0  0  0  0  0  3  0  0  0  0  0  0
  188.7060  177.1500  145.9380 C   0  0  0  0  0  3  0  0  0  0  0  0
  184.8930  178.4980  143.1290 C   0  0  0  0  0  0  0  0  0  0  0  0
  191.0880  177.8120  141.9370 F   0  0  0  0  0  0  0  0  0  0  0  0
  185.5690  179.1270  146.8020 C   0  0  0  0  0  2  0  0  0  0  0  0
  190.1230  175.8260  147.2220 F   0  0  0  0  0  0  0  0  0  0  0  0
  185.6090  178.3590  141.9820 N   0  0  0  0  0  0  0  0  0  0  0  0
  185.5450  178.4690  144.3720 C   0  0  0  0  0  0  0  0  0  0  0  0
  183.4770  178.6960  143.0650 N   0  0  0  0  0  2  0  0  0  0  0  0
  189.0600  178.0180  143.1710 C   0  0  0  0  0  3  0  0  0  0  0  0
  188.5340  177.2800  148.4340 C   0  0  0  0  0  2  0  0  0  0  0  0
  186.9540  178.1930  141.9860 C   0  0  0  0  0  0  0  0  0  0  0  0
  187.6370  178.1000  140.7700 C   0  0  0  0  0  3  0  0  0  0  0  0
  184.7250  178.6560  145.6270 C   0  0  0  0  0  2  0  0  0  0  0  0
  186.6980  178.1380  146.9720 C   0  0  2  0  0  3  0  0  0  0  0  0
  187.5030  178.4000  148.2350 C   0  0  0  0  0  2  0  0  0  0  0  0
  183.1750  177.5400  140.9510 C   0  0  0  0  0  1  0  0  0  0  0  0
  182.7350  178.7140  141.8100 C   0  0  1  0  0  3  0  0  0  0  0  0
  180.9980  178.6840  143.4680 O   0  0  0  0  0  1  0  0  0  0  0  0
  181.2320  178.6400  142.0910 C   0  0  1  0  0  3  0  0  0  0  0  0
  180.0530  180.6910  142.0980 O   0  0  0  0  0  0  0  0  0  0  0  0
  180.4870  179.7640  141.4310 C   0  0  0  0  0  0  0  0  0  0  0  0
  180.2240  179.7120  139.9590 C   0  0  0  0  0  2  0  0  0  0  0  0
  181.0170  180.7750  139.2150 C   0  0  0  0  0  3  0  0  0  0  0  0
  180.0760  181.5810  138.3450 C   0  0  0  0  0  1  0  0  0  0  0  0
  182.0660  180.1240  138.3350 C   0  0  0  0  0  1  0  0  0  0  0  0
  1 15  1  0  0  0  0
  2  3  1  0  0  0  0
  3  7  1  6  0  0  0
  3 20  1  0  0  0  0
  4 11  1  0  0  0  0
  4 16  1  0  0  0  0
  5  2  1  0  0  0  0
  6 18  1  0  0  0  0
  6  1  2  0  0  0  0
  7  4  2  0  0  0  0
  8 13  1  0  0  0  0
  9  1  1  0  0  0  0
 12 17  1  0  0  0  0
 12  8  2  0  0  0  0
 13  2  2  0  0  0  0
 13 19  1  0  0  0  0
 14  8  1  0  0  0  0
 15  5  2  0  0  0  0
 17  5  1  0  0  0  0
 18 17  2  0  0  0  0
 19 10  1  0  0  0  0
 20 10  1  6  0  0  0
 20 21  1  0  0  0  0
 21 16  1  0  0  0  0
 23 22  1  6  0  0  0
 23 25  1  0  0  0  0
 23 14  1  0  0  0  0
 25 24  1  1  0  0  0
 27 25  1  0  0  0  0
 27 26  2  0  0  0  0
 28 27  1  0  0  0  0
 29 28  1  0  0  0  0
 30 29  1  0  0  0  0
 31 29  1  0  0  0  0
M  END
>  <MODEL>
6

>  <REMARK>
 VINA RESULT:      -8.7      4.024      6.902
  Name = 
  5 active torsions:
  status: ('A' for Active; 'I' for Inactive)
    1  A    between atoms: C_1  and  C_24
    2  A    between atoms: C_9  and  C_22
    3  A    between atoms: C_9  and  N_23
    4  A    between atoms: C_19  and  C_22
    5  A    between atoms: C_19  and  C_24
                            x       y       z     vdW  Elec       q    Type
                         _______ _______ _______ _____ _____    ______ ____

>  <TORSDO>
F 5

$$$$
=
 OpenBabel11052413123D

 31 34  0  0  1  0  0  0  0  0999 V2000
  187.4870  178.5960  140.0100 C   0  0  0  0  0  0  0  0  0  0  0  0
  185.3320  178.4910  143.0720 C   0  0  0  0  0  0  0  0  0  0  0  0
  186.3370  178.4890  144.2240 C   0  0  2  0  0  3  0  0  0  0  0  0
  188.2310  177.1280  145.1040 C   0  0  0  0  0  0  0  0  0  0  0  0
  185.7510  178.5400  141.7170 C   0  0  0  0  0  0  0  0  0  0  0  0
  186.5150  178.6280  139.0090 C   0  0  0  0  0  3  0  0  0  0  0  0
  187.4780  177.5150  144.0590 C   0  0  0  0  0  3  0  0  0  0  0  0
  183.0210  178.6430  142.2960 C   0  0  0  0  0  0  0  0  0  0  0  0
  188.8000  178.6040  139.6780 F   0  0  0  0  0  0  0  0  0  0  0  0
  184.4820  179.1420  145.7550 C   0  0  0  0  0  2  0  0  0  0  0  0
  189.2550  176.2650  144.8870 F   0  0  0  0  0  0  0  0  0  0  0  0
  183.4580  178.6320  141.0090 N   0  0  0  0  0  0  0  0  0  0  0  0
  183.9450  178.6110  143.3530 C   0  0  0  0  0  0  0  0  0  0  0  0
  181.6170  178.7110  142.5710 N   0  0  0  0  0  2  0  0  0  0  0  0
  187.1070  178.5550  141.3540 C   0  0  0  0  0  3  0  0  0  0  0  0
  187.8820  177.4990  146.5310 C   0  0  0  0  0  2  0  0  0  0  0  0
  184.7750  178.5920  140.6950 C   0  0  0  0  0  0  0  0  0  0  0  0
  185.1610  178.6280  139.3520 C   0  0  0  0  0  3  0  0  0  0  0  0
  183.4280  178.6550  144.7720 C   0  0  0  0  0  2  0  0  0  0  0  0
  185.6940  178.2550  145.5910 C   0  0  2  0  0  3  0  0  0  0  0  0
  186.7480  178.5260  146.6530 C   0  0  0  0  0  2  0  0  0  0  0  0
  179.8350  177.4140  141.5520 C   0  0  0  0  0  1  0  0  0  0  0  0
  180.6040  178.7240  141.5230 C   0  0  1  0  0  3  0  0  0  0  0  0
  180.0550  180.6560  142.8390 O   0  0  0  0  0  1  0  0  0  0  0  0
  179.6560  179.9070  141.7290 C   0  0  1  0  0  3  0  0  0  0  0  0
  179.2080  181.9510  140.6230 O   0  0  0  0  0  0  0  0  0  0  0  0
  179.6120  180.8020  140.5240 C   0  0  0  0  0  0  0  0  0  0  0  0
  180.0080  180.2600  139.1860 C   0  0  0  0  0  2  0  0  0  0  0  0
  180.8380  181.2640  138.4030 C   0  0  0  0  0  3  0  0  0  0  0  0
  180.6210  181.0420  136.9210 C   0  0  0  0  0  1  0  0  0  0  0  0
  182.3100  181.0850  138.7180 C   0  0  0  0  0  1  0  0  0  0  0  0
  1 15  1  0  0  0  0
  2 13  2  0  0  0  0
  2  3  1  0  0  0  0
  3  7  1  6  0  0  0
  3 20  1  0  0  0  0
  4 16  1  0  0  0  0
  5  2  1  0  0  0  0
  6 18  1  0  0  0  0
  6  1  2  0  0  0  0
  7  4  2  0  0  0  0
  8 14  1  0  0  0  0
  8 13  1  0  0  0  0
  9  1  1  0  0  0  0
 11  4  1  0  0  0  0
 12  8  2  0  0  0  0
 13 19  1  0  0  0  0
 15  5  2  0  0  0  0
 16 21  1  0  0  0  0
 17 12  1  0  0  0  0
 17  5  1  0  0  0  0
 18 17  2  0  0  0  0
 19 10  1  0  0  0  0
 20 10  1  1  0  0  0
 20 21  1  0  0  0  0
 23 22  1  1  0  0  0
 23 25  1  0  0  0  0
 23 14  1  0  0  0  0
 25 24  1  1  0  0  0
 27 26  2  0  0  0  0
 27 25  1  0  0  0  0
 28 27  1  0  0  0  0
 29 31  1  0  0  0  0
 29 28  1  0  0  0  0
 30 29  1  0  0  0  0
M  END
>  <MODEL>
7

>  <REMARK>
 VINA RESULT:      -8.7      4.762      7.627
  Name = 
  5 active torsions:
  status: ('A' for Active; 'I' for Inactive)
    1  A    between atoms: C_1  and  C_24
    2  A    between atoms: C_9  and  C_22
    3  A    between atoms: C_9  and  N_23
    4  A    between atoms: C_19  and  C_22
    5  A    between atoms: C_19  and  C_24
                            x       y       z     vdW  Elec       q    Type
                         _______ _______ _______ _____ _____    ______ ____

>  <TORSDO>
F 5

$$$$
=
 OpenBabel11052413123D

 31 34  0  0  1  0  0  0  0  0999 V2000
  186.5010  177.9090  145.9730 C   0  0  0  0  0  0  0  0  0  0  0  0
  187.4980  178.0950  142.3680 C   0  0  0  0  0  0  0  0  0  0  0  0
  188.9500  177.6170  142.3670 C   0  0  2  0  0  3  0  0  0  0  0  0
  191.1590  178.2170  143.3530 C   0  0  0  0  0  0  0  0  0  0  0  0
  186.7360  178.1610  143.5620 C   0  0  0  0  0  0  0  0  0  0  0  0
  185.1710  178.3240  145.8970 C   0  0  0  0  0  3  0  0  0  0  0  0
  189.8160  178.2420  143.4320 C   0  0  0  0  0  3  0  0  0  0  0  0
  185.4930  178.7350  141.1280 C   0  0  0  0  0  0  0  0  0  0  0  0
  187.0420  177.5880  147.1740 F   0  0  0  0  0  0  0  0  0  0  0  0
  188.7620  177.2620  139.9070 C   0  0  0  0  0  2  0  0  0  0  0  0
  191.8830  178.7800  144.3530 F   0  0  0  0  0  0  0  0  0  0  0  0
  184.8100  178.8420  142.2990 N   0  0  0  0  0  0  0  0  0  0  0  0
  186.8360  178.3240  141.1320 C   0  0  0  0  0  0  0  0  0  0  0  0
  184.8320  179.0200  139.8900 N   0  0  0  0  0  2  0  0  0  0  0  0
  187.2760  177.8260  144.8140 C   0  0  0  0  0  3  0  0  0  0  0  0
  191.8860  177.7220  142.1190 C   0  0  0  0  0  2  0  0  0  0  0  0
  185.3810  178.5610  143.4950 C   0  0  0  0  0  0  0  0  0  0  0  0
  184.6110  178.6470  144.6590 C   0  0  0  0  0  3  0  0  0  0  0  0
  187.5570  178.1870  139.8120 C   0  0  0  0  0  2  0  0  0  0  0  0
  189.6440  177.7850  141.0160 C   0  0  2  0  0  3  0  0  0  0  0  0
  190.9750  177.0510  141.0810 C   0  0  0  0  0  2  0  0  0  0  0  0
  183.3320  180.5610  138.7630 C   0  0  0  0  0  1  0  0  0  0  0  0
  183.4480  179.4720  139.8160 C   0  0  1  0  0  3  0  0  0  0  0  0
  183.2950  177.1560  139.1990 O   0  0  0  0  0  1  0  0  0  0  0  0
  182.5330  178.2940  139.4730 C   0  0  1  0  0  3  0  0  0  0  0  0
  180.7390  177.1080  140.4610 O   0  0  0  0  0  0  0  0  0  0  0  0
  181.5780  177.9880  140.5900 C   0  0  0  0  0  0  0  0  0  0  0  0
  181.6160  178.8070  141.8410 C   0  0  0  0  0  2  0  0  0  0  0  0
  180.2450  178.8920  142.4930 C   0  0  0  0  0  3  0  0  0  0  0  0
  179.7010  180.2950  142.3260 C   0  0  0  0  0  1  0  0  0  0  0  0
  180.3490  178.5760  143.9720 C   0  0  0  0  0  1  0  0  0  0  0  0
  1  9  1  0  0  0  0
  2  5  1  0  0  0  0
  3  2  1  0  0  0  0
  3  7  1  1  0  0  0
  4  7  2  0  0  0  0
  4 11  1  0  0  0  0
  5 15  1  0  0  0  0
  6  1  1  0  0  0  0
  8 13  1  0  0  0  0
  8 12  2  0  0  0  0
 12 17  1  0  0  0  0
 13  2  2  0  0  0  0
 14  8  1  0  0  0  0
 15  1  2  0  0  0  0
 16  4  1  0  0  0  0
 17  5  2  0  0  0  0
 17 18  1  0  0  0  0
 18  6  2  0  0  0  0
 19 10  1  0  0  0  0
 19 13  1  0  0  0  0
 20 10  1  6  0  0  0
 20 21  1  0  0  0  0
 20  3  1  0  0  0  0
 21 16  1  0  0  0  0
 23 22  1  6  0  0  0
 23 14  1  0  0  0  0
 25 24  1  1  0  0  0
 25 23  1  0  0  0  0
 25 27  1  0  0  0  0
 26 27  2  0  0  0  0
 27 28  1  0  0  0  0
 28 29  1  0  0  0  0
 29 31  1  0  0  0  0
 30 29  1  0  0  0  0
M  END
>  <MODEL>
8

>  <REMARK>
 VINA RESULT:      -8.7      3.173      6.264
  Name = 
  5 active torsions:
  status: ('A' for Active; 'I' for Inactive)
    1  A    between atoms: C_1  and  C_24
    2  A    between atoms: C_9  and  C_22
    3  A    between atoms: C_9  and  N_23
    4  A    between atoms: C_19  and  C_22
    5  A    between atoms: C_19  and  C_24
                            x       y       z     vdW  Elec       q    Type
                         _______ _______ _______ _____ _____    ______ ____

>  <TORSDO>
F 5

$$$$
=
 OpenBabel11052413123D

 31 34  0  0  1  0  0  0  0  0999 V2000
  187.4300  178.1080  136.7580 C   0  0  0  0  0  0  0  0  0  0  0  0
  186.2840  178.4020  140.3110 C   0  0  0  0  0  0  0  0  0  0  0  0
  184.7610  178.4680  140.1980 C   0  0  2  0  0  3  0  0  0  0  0  0
  182.9820  179.8710  139.1590 C   0  0  0  0  0  0  0  0  0  0  0  0
  187.1120  178.2720  139.1670 C   0  0  0  0  0  0  0  0  0  0  0  0
  188.8120  178.0220  136.9370 C   0  0  0  0  0  3  0  0  0  0  0  0
  184.2510  179.4260  139.1500 C   0  0  0  0  0  3  0  0  0  0  0  0
  188.2840  178.2120  141.7010 C   0  0  0  0  0  0  0  0  0  0  0  0
  186.9060  178.0770  135.5090 F   0  0  0  0  0  0  0  0  0  0  0  0
  184.6230  177.9120  142.6240 C   0  0  0  0  0  2  0  0  0  0  0  0
  182.5790  180.7160  138.1770 F   0  0  0  0  0  0  0  0  0  0  0  0
  189.0490  178.1460  140.5800 N   0  0  0  0  0  0  0  0  0  0  0  0
  186.8870  178.3030  141.5940 C   0  0  0  0  0  0  0  0  0  0  0  0
  188.9040  178.1660  142.9910 N   0  0  0  0  0  2  0  0  0  0  0  0
  186.5870  178.2300  137.8650 C   0  0  0  0  0  3  0  0  0  0  0  0
  182.0350  179.5860  140.3070 C   0  0  0  0  0  2  0  0  0  0  0  0
  188.5110  178.1620  139.3370 C   0  0  0  0  0  0  0  0  0  0  0  0
  189.3510  178.0470  138.2250 C   0  0  0  0  0  3  0  0  0  0  0  0
  186.0630  178.3440  142.8590 C   0  0  0  0  0  2  0  0  0  0  0  0
  184.0660  178.7830  141.5220 C   0  0  2  0  0  3  0  0  0  0  0  0
  182.5730  178.5720  141.3270 C   0  0  0  0  0  2  0  0  0  0  0  0
  190.8170  179.3120  143.9540 C   0  0  0  0  0  1  0  0  0  0  0  0
  190.3490  178.0940  143.1730 C   0  0  1  0  0  3  0  0  0  0  0  0
  191.9770  176.3610  143.5050 O   0  0  0  0  0  1  0  0  0  0  0  0
  190.7180  176.8070  143.9150 C   0  0  1  0  0  3  0  0  0  0  0  0
  191.7460  177.3780  145.9680 O   0  0  0  0  0  0  0  0  0  0  0  0
  190.7290  177.0060  145.4020 C   0  0  0  0  0  0  0  0  0  0  0  0
  189.5030  176.6860  146.1990 C   0  0  0  0  0  2  0  0  0  0  0  0
  188.8080  177.9490  146.6810 C   0  0  0  0  0  3  0  0  0  0  0  0
  188.9940  178.0810  148.1780 C   0  0  0  0  0  1  0  0  0  0  0  0
  187.3250  177.8790  146.3720 C   0  0  0  0  0  1  0  0  0  0  0  0
  1  6  2  0  0  0  0
  1 15  1  0  0  0  0
  2 13  2  0  0  0  0
  3  7  1  6  0  0  0
  3  2  1  0  0  0  0
  3 20  1  0  0  0  0
  4 16  1  0  0  0  0
  5 17  1  0  0  0  0
  5  2  1  0  0  0  0
  6 18  1  0  0  0  0
  7  4  2  0  0  0  0
  8 14  1  0  0  0  0
  9  1  1  0  0  0  0
 10 19  1  0  0  0  0
 11  4  1  0  0  0  0
 12  8  2  0  0  0  0
 13  8  1  0  0  0  0
 13 19  1  0  0  0  0
 14 23  1  0  0  0  0
 15  5  2  0  0  0  0
 16 21  1  0  0  0  0
 17 12  1  0  0  0  0
 18 17  2  0  0  0  0
 20 21  1  6  0  0  0
 20 10  1  0  0  0  0
 23 25  1  0  0  0  0
 23 22  1  1  0  0  0
 25 24  1  6  0  0  0
 25 27  1  0  0  0  0
 27 26  2  0  0  0  0
 27 28  1  0  0  0  0
 28 29  1  0  0  0  0
 29 30  1  0  0  0  0
 31 29  1  0  0  0  0
M  END
>  <MODEL>
9

>  <REMARK>
 VINA RESULT:      -8.6      3.990      7.955
  Name = 
  5 active torsions:
  status: ('A' for Active; 'I' for Inactive)
    1  A    between atoms: C_1  and  C_24
    2  A    between atoms: C_9  and  C_22
    3  A    between atoms: C_9  and  N_23
    4  A    between atoms: C_19  and  C_22
    5  A    between atoms: C_19  and  C_24
                            x       y       z     vdW  Elec       q    Type
                         _______ _______ _______ _____ _____    ______ ____

>  <TORSDO>
F 5

$$$$
