=
 OpenBabel11052412283D

 30 34  0  0  1  0  0  0  0  0999 V2000
  184.9900  178.7100  140.8860 C   0  0  0  0  0  2  0  0  0  0  0  0
  184.3870  179.6800  139.9820 N   0  0  0  0  0  2  0  0  0  0  0  0
  182.6370  180.4150  138.6440 O   0  0  0  0  0  0  0  0  0  0  0  0
  183.0800  179.5280  139.4220 C   0  0  0  0  0  0  0  0  0  0  0  0
  182.2380  178.3190  139.7360 C   0  0  1  0  0  3  0  0  0  0  0  0
  179.0640  177.7740  141.4670 O   0  0  0  0  0  1  0  0  0  0  0  0
  180.8890  178.7610  140.3050 C   0  0  2  0  0  3  0  0  0  0  0  0
  181.0400  179.1760  141.7630 C   0  0  2  0  0  3  0  0  0  0  0  0
  180.4600  177.8040  141.4030 C   0  0  1  0  0  3  0  0  0  0  0  0
  179.6000  180.2770  143.3210 O   0  0  0  0  0  0  0  0  0  0  0  0
  180.0170  180.2070  142.1350 C   0  0  0  0  0  0  0  0  0  0  0  0
  179.5600  181.1500  141.1710 N   0  0  0  0  0  1  0  0  0  0  0  0
  182.2940  175.6760  138.8980 S   0  0  0  0  0  1  0  0  0  0  0  0
  182.0640  177.4360  138.4890 C   0  0  1  0  0  3  0  0  0  0  0  0
  180.6820  177.5970  137.8800 C   0  0  0  0  0  1  0  0  0  0  0  0
  185.3940  179.3780  142.1920 C   0  0  0  0  0  2  0  0  0  0  0  0
  184.7830  178.6560  143.3800 C   0  0  0  0  0  2  0  0  0  0  0  0
  185.0870  179.3850  144.6070 N   0  0  0  0  0  0  0  0  0  0  0  0
  186.0400  178.6700  145.4960 C   0  0  1  0  0  0  0  0  0  0  0  0
  185.5240  178.6760  146.9140 C   0  0  0  0  0  2  0  0  0  0  0  0
  184.5950  178.5690  145.7270 C   0  0  1  0  0  3  0  0  0  0  0  0
  186.5150  177.2740  145.0670 C   0  0  0  0  0  2  0  0  0  0  0  0
  190.6390  176.1490  143.4220 C   0  0  1  0  0  3  0  0  0  0  0  0
  190.3790  177.4690  145.5340 C   0  0  0  0  0  2  0  0  0  0  0  0
  190.2670  176.3770  142.0840 O   0  0  0  0  0  0  0  0  0  0  0  0
  187.9600  177.2750  144.6810 C   0  0  0  0  0  0  0  0  0  0  0  0
  190.9220  177.4830  144.1100 C   0  0  0  0  0  2  0  0  0  0  0  0
  189.2300  175.9840  142.9530 C   0  0  2  0  0  3  0  0  0  0  0  0
  188.8710  177.4520  145.6570 C   0  0  0  0  0  3  0  0  0  0  0  0
  188.3240  177.1830  143.2240 C   0  0  0  0  0  2  0  0  0  0  0  0
  1 16  1  0  0  0  0
  2  1  1  0  0  0  0
  3  4  2  0  0  0  0
  4  2  1  0  0  0  0
  5  4  1  6  0  0  0
  7  5  1  1  0  0  0
  7  9  1  0  0  0  0
  7  8  1  0  0  0  0
  8 11  1  6  0  0  0
  9  6  1  6  0  0  0
  9  8  1  0  0  0  0
 11 10  2  0  0  0  0
 12 11  1  0  0  0  0
 14 15  1  1  0  0  0
 14 13  1  0  0  0  0
 14  5  1  0  0  0  0
 16 17  1  0  0  0  0
 17 18  1  0  0  0  0
 18 19  1  0  0  0  0
 18 21  1  0  0  0  0
 19 22  1  6  0  0  0
 19 21  1  0  0  0  0
 19 20  1  0  0  0  0
 21 20  1  1  0  0  0
 23 27  1  1  0  0  0
 24 29  1  0  0  0  0
 25 28  1  0  0  0  0
 25 23  1  0  0  0  0
 26 22  1  0  0  0  0
 26 29  2  0  0  0  0
 27 24  1  0  0  0  0
 28 30  1  1  0  0  0
 28 23  1  0  0  0  0
 30 26  1  0  0  0  0
M  END
>  <MODEL>
1

>  <REMARK>
 VINA RESULT:      -7.5      0.000      0.000
  Name = 
  10 active torsions:
  status: ('A' for Active; 'I' for Inactive)
    1  A    between atoms: C_3  and  C_11
    2  A    between atoms: C_3  and  C_19
    3  A    between atoms: C_4  and  C_13
    4  A    between atoms: N_7  and  C_16
    5  A    between atoms: C_8  and  C_13
    6  A    between atoms: C_9  and  C_17
    7  A    between atoms: N_10  and  C_15
    8  A    between atoms: C_13  and  C_30
    9  A    between atoms: C_15  and  C_26
   10  A    between atoms: C_16  and  C_26
                            x       y       z     vdW  Elec       q    Type
                         _______ _______ _______ _____ _____    ______ ____

>  <TORSDO>
F 10

$$$$
=
 OpenBabel11052412283D

 30 34  0  0  1  0  0  0  0  0999 V2000
  184.6630  178.4000  142.0750 C   0  0  0  0  0  2  0  0  0  0  0  0
  184.8430  179.3560  140.9900 N   0  0  0  0  0  2  0  0  0  0  0  0
  184.3120  180.1830  138.8860 O   0  0  0  0  0  0  0  0  0  0  0  0
  184.0880  179.3180  139.7750 C   0  0  0  0  0  0  0  0  0  0  0  0
  183.0470  178.2550  139.5420 C   0  0  1  0  0  3  0  0  0  0  0  0
  179.3950  178.2320  139.7100 O   0  0  0  0  0  1  0  0  0  0  0  0
  181.6620  178.8980  139.4470 C   0  0  2  0  0  3  0  0  0  0  0  0
  181.2250  179.4150  140.8110 C   0  0  2  0  0  3  0  0  0  0  0  0
  180.6700  178.0940  140.2670 C   0  0  1  0  0  3  0  0  0  0  0  0
  179.6050  180.9600  141.6490 O   0  0  0  0  0  0  0  0  0  0  0  0
  180.2990  180.5850  140.6680 C   0  0  0  0  0  0  0  0  0  0  0  0
  180.2460  181.3180  139.4470 N   0  0  0  0  0  1  0  0  0  0  0  0
  183.0520  175.6640  138.5550 S   0  0  0  0  0  1  0  0  0  0  0  0
  183.3770  177.4350  138.2840 C   0  0  1  0  0  3  0  0  0  0  0  0
  182.5510  177.8840  137.0910 C   0  0  0  0  0  1  0  0  0  0  0  0
  183.9830  179.0650  143.2620 C   0  0  0  0  0  2  0  0  0  0  0  0
  184.2880  178.3160  144.5480 C   0  0  0  0  0  2  0  0  0  0  0  0
  185.0520  179.1750  145.4470 N   0  0  0  0  0  0  0  0  0  0  0  0
  186.3350  178.5690  145.8930 C   0  0  1  0  0  0  0  0  0  0  0  0
  186.4830  178.7210  147.3870 C   0  0  0  0  0  2  0  0  0  0  0  0
  185.1390  178.4780  146.7390 C   0  0  1  0  0  3  0  0  0  0  0  0
  186.6540  177.1410  145.4290 C   0  0  0  0  0  2  0  0  0  0  0  0
  190.6550  178.1320  143.4310 C   0  0  1  0  0  3  0  0  0  0  0  0
  188.8980  176.7840  142.2630 C   0  0  0  0  0  2  0  0  0  0  0  0
  191.3950  177.9450  144.6140 O   0  0  0  0  0  0  0  0  0  0  0  0
  187.9110  177.0900  144.6180 C   0  0  0  0  0  0  0  0  0  0  0  0
  190.3180  176.7750  142.8170 C   0  0  0  0  0  2  0  0  0  0  0  0
  190.0590  178.3620  144.7820 C   0  0  2  0  0  3  0  0  0  0  0  0
  187.7950  176.8590  143.2960 C   0  0  0  0  0  3  0  0  0  0  0  0
  189.2360  177.1950  145.3210 C   0  0  0  0  0  2  0  0  0  0  0  0
  1 16  1  0  0  0  0
  2  1  1  0  0  0  0
  3  4  2  0  0  0  0
  4  2  1  0  0  0  0
  5  4  1  6  0  0  0
  7  5  1  1  0  0  0
  7  9  1  0  0  0  0
  7  8  1  0  0  0  0
  8 11  1  6  0  0  0
  9  6  1  6  0  0  0
  9  8  1  0  0  0  0
 11 10  2  0  0  0  0
 12 11  1  0  0  0  0
 14 15  1  6  0  0  0
 14 13  1  0  0  0  0
 14  5  1  0  0  0  0
 16 17  1  0  0  0  0
 17 18  1  0  0  0  0
 18 19  1  0  0  0  0
 18 21  1  0  0  0  0
 19 22  1  6  0  0  0
 19 21  1  0  0  0  0
 19 20  1  0  0  0  0
 21 20  1  1  0  0  0
 23 27  1  1  0  0  0
 23 25  1  0  0  0  0
 23 28  1  0  0  0  0
 24 27  1  0  0  0  0
 24 29  1  0  0  0  0
 25 28  1  0  0  0  0
 26 30  1  0  0  0  0
 26 22  1  0  0  0  0
 28 30  1  1  0  0  0
 29 26  2  0  0  0  0
M  END
>  <MODEL>
2

>  <REMARK>
 VINA RESULT:      -7.4      1.294      1.744
  Name = 
  10 active torsions:
  status: ('A' for Active; 'I' for Inactive)
    1  A    between atoms: C_3  and  C_11
    2  A    between atoms: C_3  and  C_19
    3  A    between atoms: C_4  and  C_13
    4  A    between atoms: N_7  and  C_16
    5  A    between atoms: C_8  and  C_13
    6  A    between atoms: C_9  and  C_17
    7  A    between atoms: N_10  and  C_15
    8  A    between atoms: C_13  and  C_30
    9  A    between atoms: C_15  and  C_26
   10  A    between atoms: C_16  and  C_26
                            x       y       z     vdW  Elec       q    Type
                         _______ _______ _______ _____ _____    ______ ____

>  <TORSDO>
F 10

$$$$
=
 OpenBabel11052412283D

 30 34  0  0  1  0  0  0  0  0999 V2000
  185.0000  178.6430  139.8900 C   0  0  0  0  0  2  0  0  0  0  0  0
  184.4040  179.8940  139.4390 N   0  0  0  0  0  2  0  0  0  0  0  0
  182.6290  181.1190  138.5780 O   0  0  0  0  0  0  0  0  0  0  0  0
  183.0630  179.9960  138.9530 C   0  0  0  0  0  0  0  0  0  0  0  0
  182.1740  178.7840  138.8690 C   0  0  1  0  0  3  0  0  0  0  0  0
  179.1630  177.7960  140.6950 O   0  0  0  0  0  1  0  0  0  0  0  0
  180.8570  179.0550  139.6000 C   0  0  2  0  0  3  0  0  0  0  0  0
  181.1060  179.2190  141.0930 C   0  0  2  0  0  3  0  0  0  0  0  0
  180.5490  177.9040  140.5390 C   0  0  1  0  0  3  0  0  0  0  0  0
  179.4660  180.9560  140.9980 O   0  0  0  0  0  0  0  0  0  0  0  0
  180.0790  180.1200  141.7110 C   0  0  0  0  0  0  0  0  0  0  0  0
  179.7450  179.9920  143.0900 N   0  0  0  0  0  1  0  0  0  0  0  0
  182.1870  176.5940  137.1670 S   0  0  0  0  0  1  0  0  0  0  0  0
  181.9340  178.3820  137.4040 C   0  0  1  0  0  3  0  0  0  0  0  0
  180.5220  178.7170  136.9560 C   0  0  0  0  0  1  0  0  0  0  0  0
  184.6680  178.3930  141.3530 C   0  0  0  0  0  2  0  0  0  0  0  0
  185.6720  179.0840  142.2610 C   0  0  0  0  0  2  0  0  0  0  0  0
  184.9760  179.6870  143.3930 N   0  0  0  0  0  0  0  0  0  0  0  0
  185.2210  178.9810  144.6790 C   0  0  1  0  0  0  0  0  0  0  0  0
  183.9140  178.7540  145.3980 C   0  0  0  0  0  2  0  0  0  0  0  0
  184.0180  178.6890  143.8910 C   0  0  1  0  0  3  0  0  0  0  0  0
  186.0840  177.7120  144.6490 C   0  0  0  0  0  2  0  0  0  0  0  0
  189.8850  176.8940  147.0710 C   0  0  1  0  0  3  0  0  0  0  0  0
  187.8050  177.7830  148.1450 C   0  0  0  0  0  2  0  0  0  0  0  0
  190.7390  177.3780  146.0630 O   0  0  0  0  0  0  0  0  0  0  0  0
  187.1980  177.7760  145.6450 C   0  0  0  0  0  0  0  0  0  0  0  0
  189.2690  178.0680  147.8290 C   0  0  0  0  0  2  0  0  0  0  0  0
  189.5170  176.8330  145.6240 C   0  0  2  0  0  3  0  0  0  0  0  0
  186.8740  177.7540  146.9520 C   0  0  0  0  0  3  0  0  0  0  0  0
  188.6060  177.9640  145.1510 C   0  0  0  0  0  2  0  0  0  0  0  0
  1 16  1  0  0  0  0
  2  1  1  0  0  0  0
  3  4  2  0  0  0  0
  4  2  1  0  0  0  0
  5  4  1  6  0  0  0
  7  5  1  6  0  0  0
  7  9  1  0  0  0  0
  7  8  1  0  0  0  0
  8 11  1  1  0  0  0
  9  6  1  1  0  0  0
  9  8  1  0  0  0  0
 10 11  2  0  0  0  0
 11 12  1  0  0  0  0
 13 14  1  0  0  0  0
 14 15  1  1  0  0  0
 14  5  1  0  0  0  0
 16 17  1  0  0  0  0
 17 18  1  0  0  0  0
 18 21  1  0  0  0  0
 18 19  1  0  0  0  0
 19 22  1  1  0  0  0
 19 20  1  0  0  0  0
 21 19  1  0  0  0  0
 21 20  1  1  0  0  0
 22 26  1  0  0  0  0
 23 27  1  1  0  0  0
 25 23  1  0  0  0  0
 26 29  2  0  0  0  0
 27 24  1  0  0  0  0
 28 30  1  1  0  0  0
 28 25  1  0  0  0  0
 28 23  1  0  0  0  0
 29 24  1  0  0  0  0
 30 26  1  0  0  0  0
M  END
>  <MODEL>
3

>  <REMARK>
 VINA RESULT:      -7.3      1.587      2.027
  Name = 
  10 active torsions:
  status: ('A' for Active; 'I' for Inactive)
    1  A    between atoms: C_3  and  C_11
    2  A    between atoms: C_3  and  C_19
    3  A    between atoms: C_4  and  C_13
    4  A    between atoms: N_7  and  C_16
    5  A    between atoms: C_8  and  C_13
    6  A    between atoms: C_9  and  C_17
    7  A    between atoms: N_10  and  C_15
    8  A    between atoms: C_13  and  C_30
    9  A    between atoms: C_15  and  C_26
   10  A    between atoms: C_16  and  C_26
                            x       y       z     vdW  Elec       q    Type
                         _______ _______ _______ _____ _____    ______ ____

>  <TORSDO>
F 10

$$$$
=
 OpenBabel11052412283D

 30 34  0  0  1  0  0  0  0  0999 V2000
  188.4920  177.8070  140.3260 C   0  0  0  0  0  2  0  0  0  0  0  0
  188.7800  178.7360  139.2410 N   0  0  0  0  0  2  0  0  0  0  0  0
  188.4170  179.5510  137.0970 O   0  0  0  0  0  0  0  0  0  0  0  0
  188.1010  178.7110  137.9830 C   0  0  0  0  0  0  0  0  0  0  0  0
  187.0310  177.6900  137.7000 C   0  0  1  0  0  3  0  0  0  0  0  0
  183.3900  177.7370  137.3590 O   0  0  0  0  0  1  0  0  0  0  0  0
  185.6560  178.3610  137.7240 C   0  0  2  0  0  3  0  0  0  0  0  0
  185.0260  178.2250  139.1040 C   0  0  2  0  0  3  0  0  0  0  0  0
  184.5820  177.3140  137.9560 C   0  0  1  0  0  3  0  0  0  0  0  0
  184.3450  180.5080  138.9060 O   0  0  0  0  0  0  0  0  0  0  0  0
  184.1000  179.3700  139.3850 C   0  0  0  0  0  0  0  0  0  0  0  0
  182.9080  179.1640  140.1380 N   0  0  0  0  0  1  0  0  0  0  0  0
  187.1040  175.1800  136.5250 S   0  0  0  0  0  1  0  0  0  0  0  0
  187.2910  176.9830  136.3590 C   0  0  1  0  0  3  0  0  0  0  0  0
  186.3290  177.4560  135.2820 C   0  0  0  0  0  1  0  0  0  0  0  0
  188.0590  178.5630  141.5730 C   0  0  0  0  0  2  0  0  0  0  0  0
  186.8360  177.9160  142.2000 C   0  0  0  0  0  2  0  0  0  0  0  0
  186.0030  178.9400  142.8200 N   0  0  0  0  0  0  0  0  0  0  0  0
  185.7000  178.6690  144.2510 C   0  0  1  0  0  0  0  0  0  0  0  0
  184.2270  178.8590  144.5110 C   0  0  0  0  0  2  0  0  0  0  0  0
  184.7400  178.2920  143.2070 C   0  0  1  0  0  3  0  0  0  0  0  0
  186.2230  177.3590  144.8590 C   0  0  0  0  0  2  0  0  0  0  0  0
  189.9740  177.0400  147.4680 C   0  0  1  0  0  3  0  0  0  0  0  0
  187.8340  177.9960  148.3500 C   0  0  0  0  0  2  0  0  0  0  0  0
  190.8420  177.4060  146.4230 O   0  0  0  0  0  0  0  0  0  0  0  0
  187.3040  177.6070  145.8640 C   0  0  0  0  0  0  0  0  0  0  0  0
  189.2970  178.2870  148.0330 C   0  0  0  0  0  2  0  0  0  0  0  0
  189.6520  176.7580  146.0360 C   0  0  2  0  0  3  0  0  0  0  0  0
  186.9410  177.7610  147.1510 C   0  0  0  0  0  3  0  0  0  0  0  0
  188.7190  177.7750  145.3820 C   0  0  0  0  0  2  0  0  0  0  0  0
  1 16  1  0  0  0  0
  2  1  1  0  0  0  0
  3  4  2  0  0  0  0
  4  2  1  0  0  0  0
  5  4  1  6  0  0  0
  7  5  1  1  0  0  0
  7  9  1  0  0  0  0
  7  8  1  0  0  0  0
  8 11  1  6  0  0  0
  9  6  1  6  0  0  0
  9  8  1  0  0  0  0
 10 11  2  0  0  0  0
 11 12  1  0  0  0  0
 14 15  1  6  0  0  0
 14 13  1  0  0  0  0
 14  5  1  0  0  0  0
 16 17  1  0  0  0  0
 17 18  1  0  0  0  0
 18 21  1  0  0  0  0
 18 19  1  0  0  0  0
 19 20  1  0  0  0  0
 19 22  1  1  0  0  0
 21 19  1  0  0  0  0
 21 20  1  1  0  0  0
 22 26  1  0  0  0  0
 23 27  1  6  0  0  0
 25 23  1  0  0  0  0
 26 29  2  0  0  0  0
 27 24  1  0  0  0  0
 28 30  1  6  0  0  0
 28 25  1  0  0  0  0
 28 23  1  0  0  0  0
 29 24  1  0  0  0  0
 30 26  1  0  0  0  0
M  END
>  <MODEL>
4

>  <REMARK>
 VINA RESULT:      -7.3      3.132      4.305
  Name = 
  10 active torsions:
  status: ('A' for Active; 'I' for Inactive)
    1  A    between atoms: C_3  and  C_11
    2  A    between atoms: C_3  and  C_19
    3  A    between atoms: C_4  and  C_13
    4  A    between atoms: N_7  and  C_16
    5  A    between atoms: C_8  and  C_13
    6  A    between atoms: C_9  and  C_17
    7  A    between atoms: N_10  and  C_15
    8  A    between atoms: C_13  and  C_30
    9  A    between atoms: C_15  and  C_26
   10  A    between atoms: C_16  and  C_26
                            x       y       z     vdW  Elec       q    Type
                         _______ _______ _______ _____ _____    ______ ____

>  <TORSDO>
F 10

$$$$
=
 OpenBabel11052412283D

 30 34  0  0  1  0  0  0  0  0999 V2000
  188.6940  177.9510  140.4570 C   0  0  0  0  0  2  0  0  0  0  0  0
  188.7420  178.9020  139.3540 N   0  0  0  0  0  2  0  0  0  0  0  0
  188.9650  179.4070  137.0990 O   0  0  0  0  0  0  0  0  0  0  0  0
  188.9310  178.5160  137.9900 C   0  0  0  0  0  0  0  0  0  0  0  0
  189.1050  177.0690  137.6100 C   0  0  1  0  0  3  0  0  0  0  0  0
  186.7460  174.7200  136.0980 O   0  0  0  0  0  1  0  0  0  0  0  0
  188.0190  176.6610  136.6130 C   0  0  2  0  0  3  0  0  0  0  0  0
  186.6380  176.8890  137.2140 C   0  0  2  0  0  3  0  0  0  0  0  0
  187.2400  175.4800  137.1630 C   0  0  1  0  0  3  0  0  0  0  0  0
  184.4020  177.0110  136.3760 O   0  0  0  0  0  0  0  0  0  0  0  0
  185.6290  177.1740  136.1420 C   0  0  0  0  0  0  0  0  0  0  0  0
  186.0430  177.6890  134.8810 N   0  0  0  0  0  1  0  0  0  0  0  0
  191.3350  175.4510  137.9250 S   0  0  0  0  0  1  0  0  0  0  0  0
  190.5140  176.8180  137.0460 C   0  0  1  0  0  3  0  0  0  0  0  0
  190.4690  176.4640  135.5700 C   0  0  0  0  0  1  0  0  0  0  0  0
  188.1380  178.6140  141.7070 C   0  0  0  0  0  2  0  0  0  0  0  0
  186.8080  177.9960  142.1020 C   0  0  0  0  0  2  0  0  0  0  0  0
  185.9870  178.9910  142.7830 N   0  0  0  0  0  0  0  0  0  0  0  0
  185.7450  178.6750  144.2160 C   0  0  1  0  0  0  0  0  0  0  0  0
  184.2810  178.8390  144.5400 C   0  0  0  0  0  2  0  0  0  0  0  0
  184.7490  178.3150  143.2010 C   0  0  1  0  0  3  0  0  0  0  0  0
  186.3080  177.3560  144.7660 C   0  0  0  0  0  2  0  0  0  0  0  0
  189.9950  177.0090  147.4610 C   0  0  1  0  0  3  0  0  0  0  0  0
  187.8290  177.9390  148.3060 C   0  0  0  0  0  2  0  0  0  0  0  0
  190.8870  177.3980  146.4430 O   0  0  0  0  0  0  0  0  0  0  0  0
  187.3620  177.5920  145.8010 C   0  0  0  0  0  0  0  0  0  0  0  0
  189.2970  178.2430  148.0300 C   0  0  0  0  0  2  0  0  0  0  0  0
  189.7100  176.7510  146.0160 C   0  0  2  0  0  3  0  0  0  0  0  0
  186.9670  177.7210  147.0820 C   0  0  0  0  0  3  0  0  0  0  0  0
  188.7880  177.7750  145.3580 C   0  0  0  0  0  2  0  0  0  0  0  0
  1 16  1  0  0  0  0
  2  1  1  0  0  0  0
  3  4  2  0  0  0  0
  4  2  1  0  0  0  0
  5  4  1  6  0  0  0
  7  9  1  0  0  0  0
  7  8  1  0  0  0  0
  7  5  1  1  0  0  0
  8 11  1  6  0  0  0
  9  6  1  6  0  0  0
  9  8  1  0  0  0  0
 11 10  2  0  0  0  0
 12 11  1  0  0  0  0
 14 15  1  6  0  0  0
 14  5  1  0  0  0  0
 14 13  1  0  0  0  0
 16 17  1  0  0  0  0
 17 18  1  0  0  0  0
 18 21  1  0  0  0  0
 18 19  1  0  0  0  0
 19 20  1  0  0  0  0
 19 22  1  1  0  0  0
 21 19  1  0  0  0  0
 21 20  1  1  0  0  0
 22 26  1  0  0  0  0
 23 27  1  6  0  0  0
 25 23  1  0  0  0  0
 26 29  2  0  0  0  0
 27 24  1  0  0  0  0
 28 30  1  6  0  0  0
 28 25  1  0  0  0  0
 28 23  1  0  0  0  0
 29 24  1  0  0  0  0
 30 26  1  0  0  0  0
M  END
>  <MODEL>
5

>  <REMARK>
 VINA RESULT:      -7.1      4.309      6.056
  Name = 
  10 active torsions:
  status: ('A' for Active; 'I' for Inactive)
    1  A    between atoms: C_3  and  C_11
    2  A    between atoms: C_3  and  C_19
    3  A    between atoms: C_4  and  C_13
    4  A    between atoms: N_7  and  C_16
    5  A    between atoms: C_8  and  C_13
    6  A    between atoms: C_9  and  C_17
    7  A    between atoms: N_10  and  C_15
    8  A    between atoms: C_13  and  C_30
    9  A    between atoms: C_15  and  C_26
   10  A    between atoms: C_16  and  C_26
                            x       y       z     vdW  Elec       q    Type
                         _______ _______ _______ _____ _____    ______ ____

>  <TORSDO>
F 10

$$$$
=
 OpenBabel11052412283D

 30 34  0  0  1  0  0  0  0  0999 V2000
  187.9580  178.5900  141.5670 C   0  0  0  0  0  2  0  0  0  0  0  0
  188.4020  177.2190  141.7830 N   0  0  0  0  0  2  0  0  0  0  0  0
  189.4360  175.5830  143.0660 O   0  0  0  0  0  0  0  0  0  0  0  0
  189.0830  176.7890  142.9650 C   0  0  0  0  0  0  0  0  0  0  0  0
  189.3950  177.7570  144.0750 C   0  0  1  0  0  3  0  0  0  0  0  0
  190.1870  176.1220  147.2490 O   0  0  0  0  0  1  0  0  0  0  0  0
  189.0410  177.1280  145.4250 C   0  0  2  0  0  3  0  0  0  0  0  0
  189.0890  178.1790  146.5260 C   0  0  2  0  0  3  0  0  0  0  0  0
  190.2440  177.1890  146.3470 C   0  0  1  0  0  3  0  0  0  0  0  0
  187.1280  177.1270  147.3990 O   0  0  0  0  0  0  0  0  0  0  0  0
  188.1410  177.8360  147.6360 C   0  0  0  0  0  0  0  0  0  0  0  0
  188.4130  178.2520  148.9700 N   0  0  0  0  0  1  0  0  0  0  0  0
  191.7020  177.5000  142.5590 S   0  0  0  0  0  1  0  0  0  0  0  0
  190.8690  178.1910  144.0240 C   0  0  1  0  0  3  0  0  0  0  0  0
  191.0050  179.7030  143.9680 C   0  0  0  0  0  1  0  0  0  0  0  0
  186.4590  178.6300  141.3150 C   0  0  0  0  0  2  0  0  0  0  0  0
  185.7340  179.3000  142.4700 C   0  0  0  0  0  2  0  0  0  0  0  0
  185.6110  178.3630  143.5810 N   0  0  0  0  0  0  0  0  0  0  0  0
  184.3200  178.4800  144.3110 C   0  0  1  0  0  0  0  0  0  0  0  0
  184.5720  178.5200  145.7980 C   0  0  0  0  0  2  0  0  0  0  0  0
  185.5190  179.1640  144.8110 C   0  0  1  0  0  3  0  0  0  0  0  0
  183.3420  179.5780  143.8680 C   0  0  0  0  0  2  0  0  0  0  0  0
  179.7640  178.8470  141.1030 C   0  0  1  0  0  3  0  0  0  0  0  0
  179.7060  178.2180  143.5260 C   0  0  0  0  0  2  0  0  0  0  0  0
  180.5680  178.4530  140.0180 O   0  0  0  0  0  0  0  0  0  0  0  0
  182.1320  179.0050  143.1990 C   0  0  0  0  0  0  0  0  0  0  0  0
  179.6420  177.6930  142.0960 C   0  0  0  0  0  2  0  0  0  0  0  0
  181.1560  179.3600  140.9220 C   0  0  2  0  0  3  0  0  0  0  0  0
  181.0480  178.7660  143.9610 C   0  0  0  0  0  3  0  0  0  0  0  0
  182.2150  178.6300  141.7450 C   0  0  0  0  0  2  0  0  0  0  0  0
  1  2  1  0  0  0  0
  2  4  1  0  0  0  0
  4  3  2  0  0  0  0
  5  4  1  6  0  0  0
  7  5  1  6  0  0  0
  7  9  1  0  0  0  0
  7  8  1  0  0  0  0
  8 11  1  1  0  0  0
  9  8  1  0  0  0  0
  9  6  1  1  0  0  0
 10 11  2  0  0  0  0
 11 12  1  0  0  0  0
 13 14  1  0  0  0  0
 14 15  1  6  0  0  0
 14  5  1  0  0  0  0
 16  1  1  0  0  0  0
 16 17  1  0  0  0  0
 17 18  1  0  0  0  0
 18 19  1  0  0  0  0
 18 21  1  0  0  0  0
 19 22  1  6  0  0  0
 19 21  1  0  0  0  0
 19 20  1  0  0  0  0
 21 20  1  1  0  0  0
 23 27  1  1  0  0  0
 24 29  1  0  0  0  0
 25 28  1  0  0  0  0
 25 23  1  0  0  0  0
 26 22  1  0  0  0  0
 26 29  2  0  0  0  0
 27 24  1  0  0  0  0
 28 23  1  0  0  0  0
 28 30  1  1  0  0  0
 30 26  1  0  0  0  0
M  END
>  <MODEL>
6

>  <REMARK>
 VINA RESULT:      -7.0      3.065      8.470
  Name = 
  10 active torsions:
  status: ('A' for Active; 'I' for Inactive)
    1  A    between atoms: C_3  and  C_11
    2  A    between atoms: C_3  and  C_19
    3  A    between atoms: C_4  and  C_13
    4  A    between atoms: N_7  and  C_16
    5  A    between atoms: C_8  and  C_13
    6  A    between atoms: C_9  and  C_17
    7  A    between atoms: N_10  and  C_15
    8  A    between atoms: C_13  and  C_30
    9  A    between atoms: C_15  and  C_26
   10  A    between atoms: C_16  and  C_26
                            x       y       z     vdW  Elec       q    Type
                         _______ _______ _______ _____ _____    ______ ____

>  <TORSDO>
F 10

$$$$
=
 OpenBabel11052412283D

 30 34  0  0  1  0  0  0  0  0999 V2000
  189.1830  177.4110  139.8520 C   0  0  0  0  0  2  0  0  0  0  0  0
  189.2340  178.4910  138.8760 N   0  0  0  0  0  2  0  0  0  0  0  0
  188.4160  179.5930  137.0020 O   0  0  0  0  0  0  0  0  0  0  0  0
  188.2950  178.6290  137.8050 C   0  0  0  0  0  0  0  0  0  0  0  0
  187.1820  177.6310  137.6170 C   0  0  1  0  0  3  0  0  0  0  0  0
  183.5530  177.8380  137.2220 O   0  0  0  0  0  1  0  0  0  0  0  0
  185.8310  178.3470  137.6740 C   0  0  2  0  0  3  0  0  0  0  0  0
  185.1710  178.1230  139.0270 C   0  0  2  0  0  3  0  0  0  0  0  0
  184.7170  177.3240  137.8010 C   0  0  1  0  0  3  0  0  0  0  0  0
  184.5090  180.4170  138.9120 O   0  0  0  0  0  0  0  0  0  0  0  0
  184.2790  179.2730  139.3860 C   0  0  0  0  0  0  0  0  0  0  0  0
  183.1350  179.0690  140.2090 N   0  0  0  0  0  1  0  0  0  0  0  0
  186.8020  177.8550  134.8790 S   0  0  0  0  0  1  0  0  0  0  0  0
  187.3580  176.8590  136.2990 C   0  0  1  0  0  3  0  0  0  0  0  0
  188.8100  176.4790  136.0630 C   0  0  0  0  0  1  0  0  0  0  0  0
  188.4720  177.8690  141.1160 C   0  0  0  0  0  2  0  0  0  0  0  0
  189.4280  177.8950  142.2960 C   0  0  0  0  0  2  0  0  0  0  0  0
  189.8690  176.5380  142.6010 N   0  0  0  0  0  0  0  0  0  0  0  0
  190.3590  176.3760  143.9950 C   0  0  1  0  0  0  0  0  0  0  0  0
  191.6730  175.6350  143.9970 C   0  0  0  0  0  2  0  0  0  0  0  0
  191.3070  176.6090  142.9000 C   0  0  1  0  0  3  0  0  0  0  0  0
  190.4060  177.6240  144.8890 C   0  0  0  0  0  2  0  0  0  0  0  0
  186.5960  178.4080  147.3080 C   0  0  1  0  0  3  0  0  0  0  0  0
  188.7890  177.9340  148.4210 C   0  0  0  0  0  2  0  0  0  0  0  0
  185.7780  177.6770  146.4260 O   0  0  0  0  0  0  0  0  0  0  0  0
  189.3310  177.6020  145.9290 C   0  0  0  0  0  0  0  0  0  0  0  0
  187.3600  177.4460  148.2160 C   0  0  0  0  0  2  0  0  0  0  0  0
  186.9200  178.2730  145.8550 C   0  0  2  0  0  3  0  0  0  0  0  0
  189.6820  177.8710  147.2010 C   0  0  0  0  0  3  0  0  0  0  0  0
  187.9420  177.1850  145.5300 C   0  0  0  0  0  2  0  0  0  0  0  0
  1 16  1  0  0  0  0
  2  1  1  0  0  0  0
  3  4  2  0  0  0  0
  4  2  1  0  0  0  0
  5  4  1  6  0  0  0
  7  5  1  1  0  0  0
  7  9  1  0  0  0  0
  7  8  1  0  0  0  0
  8 11  1  6  0  0  0
  9  6  1  6  0  0  0
  9  8  1  0  0  0  0
 10 11  2  0  0  0  0
 11 12  1  0  0  0  0
 13 14  1  0  0  0  0
 14 15  1  6  0  0  0
 14  5  1  0  0  0  0
 16 17  1  0  0  0  0
 17 18  1  0  0  0  0
 18 21  1  0  0  0  0
 18 19  1  0  0  0  0
 19 20  1  0  0  0  0
 19 22  1  1  0  0  0
 21 19  1  0  0  0  0
 21 20  1  6  0  0  0
 22 26  1  0  0  0  0
 23 27  1  1  0  0  0
 25 23  1  0  0  0  0
 26 29  2  0  0  0  0
 27 24  1  0  0  0  0
 28 30  1  1  0  0  0
 28 25  1  0  0  0  0
 28 23  1  0  0  0  0
 29 24  1  0  0  0  0
 30 26  1  0  0  0  0
M  END
>  <MODEL>
7

>  <REMARK>
 VINA RESULT:      -6.9      3.525      5.408
  Name = 
  10 active torsions:
  status: ('A' for Active; 'I' for Inactive)
    1  A    between atoms: C_3  and  C_11
    2  A    between atoms: C_3  and  C_19
    3  A    between atoms: C_4  and  C_13
    4  A    between atoms: N_7  and  C_16
    5  A    between atoms: C_8  and  C_13
    6  A    between atoms: C_9  and  C_17
    7  A    between atoms: N_10  and  C_15
    8  A    between atoms: C_13  and  C_30
    9  A    between atoms: C_15  and  C_26
   10  A    between atoms: C_16  and  C_26
                            x       y       z     vdW  Elec       q    Type
                         _______ _______ _______ _____ _____    ______ ____

>  <TORSDO>
F 10

$$$$
=
 OpenBabel11052412283D

 30 34  0  0  1  0  0  0  0  0999 V2000
  188.6410  177.9490  140.2500 C   0  0  0  0  0  2  0  0  0  0  0  0
  188.7040  178.9030  139.1510 N   0  0  0  0  0  2  0  0  0  0  0  0
  188.8710  179.4100  136.8910 O   0  0  0  0  0  0  0  0  0  0  0  0
  188.8180  178.5170  137.7780 C   0  0  0  0  0  0  0  0  0  0  0  0
  188.8920  177.0640  137.3860 C   0  0  1  0  0  3  0  0  0  0  0  0
  191.3170  174.3900  137.9690 O   0  0  0  0  0  1  0  0  0  0  0  0
  190.0260  176.3780  138.1510 C   0  0  2  0  0  3  0  0  0  0  0  0
  191.3750  176.8000  137.5870 C   0  0  2  0  0  3  0  0  0  0  0  0
  190.7730  175.4400  137.2220 C   0  0  1  0  0  3  0  0  0  0  0  0
  193.6140  176.4230  138.3360 O   0  0  0  0  0  0  0  0  0  0  0  0
  192.4380  176.7480  138.6440 C   0  0  0  0  0  0  0  0  0  0  0  0
  192.1400  177.1260  139.9850 N   0  0  0  0  0  1  0  0  0  0  0  0
  186.1580  177.4140  137.0810 S   0  0  0  0  0  1  0  0  0  0  0  0
  187.5440  176.3650  137.6250 C   0  0  1  0  0  3  0  0  0  0  0  0
  187.4560  175.0480  136.8720 C   0  0  0  0  0  1  0  0  0  0  0  0
  188.1100  178.6200  141.5070 C   0  0  0  0  0  2  0  0  0  0  0  0
  186.8060  177.9800  141.9520 C   0  0  0  0  0  2  0  0  0  0  0  0
  186.0040  178.9570  142.6810 N   0  0  0  0  0  0  0  0  0  0  0  0
  185.8370  178.6250  144.1210 C   0  0  1  0  0  0  0  0  0  0  0  0
  184.3870  178.7630  144.5160 C   0  0  0  0  0  2  0  0  0  0  0  0
  184.7980  178.2590  143.1510 C   0  0  1  0  0  3  0  0  0  0  0  0
  186.4440  177.3100  144.6310 C   0  0  0  0  0  2  0  0  0  0  0  0
  190.1200  176.9930  147.3450 C   0  0  1  0  0  3  0  0  0  0  0  0
  187.9300  177.8620  148.1900 C   0  0  0  0  0  2  0  0  0  0  0  0
  191.0100  177.4180  146.3400 O   0  0  0  0  0  0  0  0  0  0  0  0
  187.4870  177.5490  145.6770 C   0  0  0  0  0  0  0  0  0  0  0  0
  189.3930  178.2010  147.9300 C   0  0  0  0  0  2  0  0  0  0  0  0
  189.8500  176.7540  145.8940 C   0  0  2  0  0  3  0  0  0  0  0  0
  187.0800  177.6470  146.9570 C   0  0  0  0  0  3  0  0  0  0  0  0
  188.9110  177.7690  145.2470 C   0  0  0  0  0  2  0  0  0  0  0  0
  1 16  1  0  0  0  0
  2  1  1  0  0  0  0
  3  4  2  0  0  0  0
  4  2  1  0  0  0  0
  5 14  1  0  0  0  0
  5  4  1  1  0  0  0
  7  5  1  6  0  0  0
  8  7  1  0  0  0  0
  8 11  1  1  0  0  0
  9  8  1  0  0  0  0
  9  6  1  1  0  0  0
  9  7  1  0  0  0  0
 10 11  2  0  0  0  0
 11 12  1  0  0  0  0
 13 14  1  0  0  0  0
 14 15  1  6  0  0  0
 16 17  1  0  0  0  0
 17 18  1  0  0  0  0
 18 21  1  0  0  0  0
 18 19  1  0  0  0  0
 19 20  1  0  0  0  0
 19 22  1  1  0  0  0
 21 19  1  0  0  0  0
 21 20  1  1  0  0  0
 22 26  1  0  0  0  0
 23 27  1  6  0  0  0
 25 23  1  0  0  0  0
 26 29  2  0  0  0  0
 27 24  1  0  0  0  0
 28 30  1  6  0  0  0
 28 25  1  0  0  0  0
 28 23  1  0  0  0  0
 29 24  1  0  0  0  0
 30 26  1  0  0  0  0
M  END
>  <MODEL>
8

>  <REMARK>
 VINA RESULT:      -6.9      4.616      7.100
  Name = 
  10 active torsions:
  status: ('A' for Active; 'I' for Inactive)
    1  A    between atoms: C_3  and  C_11
    2  A    between atoms: C_3  and  C_19
    3  A    between atoms: C_4  and  C_13
    4  A    between atoms: N_7  and  C_16
    5  A    between atoms: C_8  and  C_13
    6  A    between atoms: C_9  and  C_17
    7  A    between atoms: N_10  and  C_15
    8  A    between atoms: C_13  and  C_30
    9  A    between atoms: C_15  and  C_26
   10  A    between atoms: C_16  and  C_26
                            x       y       z     vdW  Elec       q    Type
                         _______ _______ _______ _____ _____    ______ ____

>  <TORSDO>
F 10

$$$$
=
 OpenBabel11052412283D

 30 34  0  0  1  0  0  0  0  0999 V2000
  184.4320  178.9960  141.2730 C   0  0  0  0  0  2  0  0  0  0  0  0
  183.1440  178.4770  141.7170 N   0  0  0  0  0  2  0  0  0  0  0  0
  180.9050  177.9810  141.3530 O   0  0  0  0  0  0  0  0  0  0  0  0
  181.9800  178.4430  140.8860 C   0  0  0  0  0  0  0  0  0  0  0  0
  182.0210  178.9660  139.4740 C   0  0  1  0  0  3  0  0  0  0  0  0
  182.6530  177.2850  136.2880 O   0  0  0  0  0  1  0  0  0  0  0  0
  181.9110  177.8010  138.4880 C   0  0  2  0  0  3  0  0  0  0  0  0
  183.0940  176.8570  138.6510 C   0  0  2  0  0  3  0  0  0  0  0  0
  183.0580  177.8630  137.4960 C   0  0  1  0  0  3  0  0  0  0  0  0
  183.6110  174.6410  137.9190 O   0  0  0  0  0  0  0  0  0  0  0  0
  182.7190  175.4560  138.2690 C   0  0  0  0  0  0  0  0  0  0  0  0
  181.3660  175.0220  138.3620 N   0  0  0  0  0  1  0  0  0  0  0  0
  181.5530  181.4550  138.3460 S   0  0  0  0  0  1  0  0  0  0  0  0
  180.9130  180.0070  139.2450 C   0  0  1  0  0  3  0  0  0  0  0  0
  179.7610  179.4290  138.4400 C   0  0  0  0  0  1  0  0  0  0  0  0
  185.3050  179.3440  142.4680 C   0  0  0  0  0  2  0  0  0  0  0  0
  184.8930  178.5440  143.6910 C   0  0  0  0  0  2  0  0  0  0  0  0
  185.2110  179.2960  144.9000 N   0  0  0  0  0  0  0  0  0  0  0  0
  186.2180  178.6260  145.7650 C   0  0  1  0  0  0  0  0  0  0  0  0
  185.7480  178.6280  147.1980 C   0  0  0  0  0  2  0  0  0  0  0  0
  184.7850  178.4750  146.0430 C   0  0  1  0  0  3  0  0  0  0  0  0
  186.7290  177.2440  145.3330 C   0  0  0  0  0  2  0  0  0  0  0  0
  190.8980  176.3410  143.6650 C   0  0  1  0  0  3  0  0  0  0  0  0
  190.5630  177.1280  146.0180 C   0  0  0  0  0  2  0  0  0  0  0  0
  190.6140  176.9000  142.4050 O   0  0  0  0  0  0  0  0  0  0  0  0
  188.1930  177.2650  145.0280 C   0  0  0  0  0  0  0  0  0  0  0  0
  191.1890  177.4560  144.6670 C   0  0  0  0  0  2  0  0  0  0  0  0
  189.5130  176.3630  143.1030 C   0  0  2  0  0  3  0  0  0  0  0  0
  189.0510  177.1570  146.0610 C   0  0  0  0  0  3  0  0  0  0  0  0
  188.6390  177.5060  143.6120 C   0  0  0  0  0  2  0  0  0  0  0  0
  1  2  1  0  0  0  0
  1 16  1  0  0  0  0
  4  3  2  0  0  0  0
  4  2  1  0  0  0  0
  5  4  1  1  0  0  0
  7  8  1  0  0  0  0
  7  5  1  1  0  0  0
  8 11  1  6  0  0  0
  9  6  1  6  0  0  0
  9  7  1  0  0  0  0
  9  8  1  0  0  0  0
 10 11  2  0  0  0  0
 11 12  1  0  0  0  0
 13 14  1  0  0  0  0
 14 15  1  6  0  0  0
 14  5  1  0  0  0  0
 16 17  1  0  0  0  0
 17 18  1  0  0  0  0
 18 19  1  0  0  0  0
 18 21  1  0  0  0  0
 19 22  1  6  0  0  0
 19 21  1  0  0  0  0
 19 20  1  0  0  0  0
 21 20  1  1  0  0  0
 23 27  1  1  0  0  0
 24 29  1  0  0  0  0
 25 28  1  0  0  0  0
 25 23  1  0  0  0  0
 26 22  1  0  0  0  0
 26 29  2  0  0  0  0
 27 24  1  0  0  0  0
 28 30  1  1  0  0  0
 28 23  1  0  0  0  0
 30 26  1  0  0  0  0
M  END
>  <MODEL>
9

>  <REMARK>
 VINA RESULT:      -6.8      2.224      3.344
  Name = 
  10 active torsions:
  status: ('A' for Active; 'I' for Inactive)
    1  A    between atoms: C_3  and  C_11
    2  A    between atoms: C_3  and  C_19
    3  A    between atoms: C_4  and  C_13
    4  A    between atoms: N_7  and  C_16
    5  A    between atoms: C_8  and  C_13
    6  A    between atoms: C_9  and  C_17
    7  A    between atoms: N_10  and  C_15
    8  A    between atoms: C_13  and  C_30
    9  A    between atoms: C_15  and  C_26
   10  A    between atoms: C_16  and  C_26
                            x       y       z     vdW  Elec       q    Type
                         _______ _______ _______ _____ _____    ______ ____

>  <TORSDO>
F 10

$$$$
