=
 OpenBabel11052412383D

 30 32  0  0  1  0  0  0  0  0999 V2000
  190.4780  175.8060  143.0600 C   0  0  0  0  0  0  0  0  0  0  0  0
  189.2960  178.8280  144.4380 C   0  0  0  0  0  2  0  0  0  0  0  0
  188.2700  178.5330  141.7390 C   0  0  0  0  0  1  0  0  0  0  0  0
  188.4860  177.6130  143.9540 C   0  0  2  0  0  3  0  0  0  0  0  0
  191.1520  176.1290  144.2870 N   0  0  0  0  0  2  0  0  0  0  0  0
  190.2730  174.5930  142.7840 O   0  0  0  0  0  0  0  0  0  0  0  0
  190.7970  178.6710  144.2070 C   0  0  0  0  0  2  0  0  0  0  0  0
  191.3340  177.4340  144.8580 C   0  0  0  0  0  0  0  0  0  0  0  0
  188.5970  177.3290  142.5050 N   0  0  0  0  0  0  0  0  0  0  0  0
  191.9470  177.5430  145.9500 O   0  0  0  0  0  0  0  0  0  0  0  0
  189.9550  176.8840  142.1350 C   0  0  2  0  0  3  0  0  0  0  0  0
  186.6430  177.5060  145.6350 C   0  0  0  0  0  3  0  0  0  0  0  0
  187.0510  177.7260  144.3810 C   0  0  0  0  0  3  0  0  0  0  0  0
  187.5830  177.1330  146.7360 C   0  0  0  0  0  2  0  0  0  0  0  0
  187.7960  178.3190  147.6520 C   0  0  0  0  0  3  0  0  0  0  0  0
  189.1820  178.2310  148.2560 C   0  0  0  0  0  2  0  0  0  0  0  0
  187.9750  177.8230  149.0710 C   0  0  0  0  0  2  0  0  0  0  0  0
  189.9870  176.4170  140.6770 C   0  0  0  0  0  2  0  0  0  0  0  0
  190.6240  177.4550  139.7560 C   0  0  0  0  0  2  0  0  0  0  0  0
  190.2220  177.2650  138.2910 C   0  0  2  0  0  0  0  0  0  0  0  0
  191.0530  176.6600  135.8790 C   0  0  0  0  0  1  0  0  0  0  0  0
  189.8200  175.8480  137.9180 C   0  0  0  0  0  2  0  0  0  0  0  0
  191.1150  176.4330  137.3800 C   0  0  2  0  0  0  0  0  0  0  0  0
  189.4070  178.2860  137.6330 N   0  0  0  0  0  2  0  0  0  0  0  0
  188.1480  178.2930  138.2480 N   0  0  0  0  0  0  0  0  0  0  0  0
  185.5060  178.1850  138.1760 S   0  0  0  0  0  1  0  0  0  0  0  0
  186.9700  178.2050  137.4580 C   0  0  0  0  0  3  0  0  0  0  0  0
  192.3240  175.7180  137.9630 C   0  0  0  0  0  2  0  0  0  0  0  0
  193.4760  176.4700  137.7410 O   0  0  0  0  0  0  0  0  0  0  0  0
  193.8080  176.9250  138.9300 O   0  0  0  0  0  1  0  0  0  0  0  0
  1  5  1  0  0  0  0
  3  9  1  0  0  0  0
  4 13  1  6  0  0  0
  4  2  1  0  0  0  0
  5  8  1  0  0  0  0
  6  1  2  0  0  0  0
  7  2  1  0  0  0  0
  7  8  1  0  0  0  0
  8 10  2  0  0  0  0
  9  4  1  0  0  0  0
 11 18  1  6  0  0  0
 11  9  1  0  0  0  0
 11  1  1  0  0  0  0
 12 14  1  0  0  0  0
 13 12  2  0  0  0  0
 14 15  1  0  0  0  0
 15 16  1  0  0  0  0
 15 17  1  0  0  0  0
 16 17  1  0  0  0  0
 19 18  1  0  0  0  0
 20 19  1  1  0  0  0
 22 20  1  0  0  0  0
 23 21  1  6  0  0  0
 23 22  1  0  0  0  0
 23 28  1  0  0  0  0
 23 20  1  0  0  0  0
 24 25  1  0  0  0  0
 24 20  1  0  0  0  0
 27 26  1  0  0  0  0
 27 25  2  0  0  0  0
 29 28  1  0  0  0  0
 29 30  1  0  0  0  0
M  END
>  <MODEL>
1

>  <REMARK>
 VINA RESULT:      -6.4      0.000      0.000
  Name = 
  11 active torsions:
  status: ('A' for Active; 'I' for Inactive)
    1  A    between atoms: C_1  and  C_4
    2  A    between atoms: C_1  and  C_22
    3  A    between atoms: C_4  and  N_5
    4  A    between atoms: N_5  and  N_21
    5  A    between atoms: C_10  and  C_25
    6  A    between atoms: C_11  and  C_24
    7  A    between atoms: C_12  and  C_27
    8  A    between atoms: O_13  and  C_27
    9  A    between atoms: C_15  and  C_25
   10  A    between atoms: C_17  and  N_21
   11  A    between atoms: C_22  and  C_29
                            x       y       z     vdW  Elec       q    Type
                         _______ _______ _______ _____ _____    ______ ____

>  <TORSDO>
F 11

$$$$
=
 OpenBabel11052412383D

 30 32  0  0  1  0  0  0  0  0999 V2000
  184.2740  178.7520  139.5950 C   0  0  0  0  0  0  0  0  0  0  0  0
  181.0910  177.3900  140.2600 C   0  0  0  0  0  2  0  0  0  0  0  0
  182.0910  178.7120  142.6430 C   0  0  0  0  0  1  0  0  0  0  0  0
  181.5330  178.8630  140.3060 C   0  0  2  0  0  3  0  0  0  0  0  0
  183.8430  177.8730  138.5440 N   0  0  0  0  0  2  0  0  0  0  0  0
  184.9780  179.7540  139.2950 O   0  0  0  0  0  0  0  0  0  0  0  0
  182.2400  176.4360  139.9420 C   0  0  0  0  0  2  0  0  0  0  0  0
  182.9130  176.7840  138.6510 C   0  0  0  0  0  0  0  0  0  0  0  0
  182.5520  179.1760  141.3320 N   0  0  0  0  0  0  0  0  0  0  0  0
  182.6360  176.1130  137.6250 O   0  0  0  0  0  0  0  0  0  0  0  0
  183.8490  178.5380  141.0320 C   0  0  2  0  0  3  0  0  0  0  0  0
  180.2170  180.9020  139.7190 C   0  0  0  0  0  3  0  0  0  0  0  0
  180.3430  179.7710  140.4210 C   0  0  0  0  0  3  0  0  0  0  0  0
  181.2500  181.3660  138.7430 C   0  0  0  0  0  2  0  0  0  0  0  0
  180.5740  181.9580  137.5250 C   0  0  0  0  0  3  0  0  0  0  0  0
  181.0890  183.3670  137.3150 C   0  0  0  0  0  2  0  0  0  0  0  0
  179.7350  183.1440  137.9520 C   0  0  0  0  0  2  0  0  0  0  0  0
  184.9270  179.0320  142.0010 C   0  0  0  0  0  2  0  0  0  0  0  0
  185.3650  177.9410  142.9750 C   0  0  0  0  0  2  0  0  0  0  0  0
  186.8870  177.8870  143.1480 C   0  0  2  0  0  0  0  0  0  0  0  0
  188.8840  178.1360  144.8280 C   0  0  0  0  0  1  0  0  0  0  0  0
  187.4350  176.5270  143.5440 C   0  0  0  0  0  2  0  0  0  0  0  0
  187.4650  177.6730  144.5400 C   0  0  2  0  0  0  0  0  0  0  0  0
  187.7410  178.5990  142.1990 N   0  0  0  0  0  2  0  0  0  0  0  0
  188.1160  177.6950  141.1950 N   0  0  0  0  0  2  0  0  0  0  0  0
  189.4430  177.8880  138.9160 S   0  0  0  0  0  0  0  0  0  0  0  0
  188.1120  178.1030  139.8340 C   0  0  0  0  0  3  0  0  0  0  0  0
  186.5310  177.4090  145.7100 C   0  0  0  0  0  2  0  0  0  0  0  0
  186.4100  178.5550  146.4930 O   0  0  0  0  0  0  0  0  0  0  0  0
  185.1150  178.6940  146.6780 O   0  0  0  0  0  1  0  0  0  0  0  0
  1 11  1  0  0  0  0
  2  4  1  0  0  0  0
  4 13  1  1  0  0  0
  4  9  1  0  0  0  0
  5  8  1  0  0  0  0
  5  1  1  0  0  0  0
  6  1  2  0  0  0  0
  7  2  1  0  0  0  0
  8  7  1  0  0  0  0
  9  3  1  0  0  0  0
 10  8  2  0  0  0  0
 11  9  1  0  0  0  0
 11 18  1  1  0  0  0
 12 13  2  0  0  0  0
 14 12  1  0  0  0  0
 15 17  1  0  0  0  0
 15 14  1  0  0  0  0
 16 15  1  0  0  0  0
 16 17  1  0  0  0  0
 18 19  1  0  0  0  0
 20 19  1  6  0  0  0
 20 22  1  0  0  0  0
 20 23  1  0  0  0  0
 22 23  1  0  0  0  0
 23 21  1  1  0  0  0
 23 28  1  0  0  0  0
 24 20  1  0  0  0  0
 25 24  1  0  0  0  0
 26 27  2  0  0  0  0
 27 25  1  0  0  0  0
 28 29  1  0  0  0  0
 29 30  1  0  0  0  0
M  END
>  <MODEL>
2

>  <REMARK>
 VINA RESULT:      -6.3      5.431      9.029
  Name = 
  11 active torsions:
  status: ('A' for Active; 'I' for Inactive)
    1  A    between atoms: C_1  and  C_4
    2  A    between atoms: C_1  and  C_22
    3  A    between atoms: C_4  and  N_5
    4  A    between atoms: N_5  and  N_21
    5  A    between atoms: C_10  and  C_25
    6  A    between atoms: C_11  and  C_24
    7  A    between atoms: C_12  and  C_27
    8  A    between atoms: O_13  and  C_27
    9  A    between atoms: C_15  and  C_25
   10  A    between atoms: C_17  and  N_21
   11  A    between atoms: C_22  and  C_29
                            x       y       z     vdW  Elec       q    Type
                         _______ _______ _______ _____ _____    ______ ____

>  <TORSDO>
F 11

$$$$
=
 OpenBabel11052412383D

 30 32  0  0  1  0  0  0  0  0999 V2000
  190.7970  175.9760  143.1060 C   0  0  0  0  0  0  0  0  0  0  0  0
  189.5240  178.7460  144.8770 C   0  0  0  0  0  2  0  0  0  0  0  0
  188.8060  178.9820  142.0750 C   0  0  0  0  0  1  0  0  0  0  0  0
  188.7520  177.6710  144.0940 C   0  0  2  0  0  3  0  0  0  0  0  0
  191.3330  176.0470  144.4370 N   0  0  0  0  0  2  0  0  0  0  0  0
  190.6020  174.8420  142.5920 O   0  0  0  0  0  0  0  0  0  0  0  0
  191.0390  178.5740  144.7850 C   0  0  0  0  0  2  0  0  0  0  0  0
  191.4750  177.2200  145.2530 C   0  0  0  0  0  0  0  0  0  0  0  0
  189.0210  177.6480  142.6390 N   0  0  0  0  0  0  0  0  0  0  0  0
  191.9610  177.1070  146.4070 O   0  0  0  0  0  0  0  0  0  0  0  0
  190.4030  177.2240  142.3430 C   0  0  2  0  0  3  0  0  0  0  0  0
  186.7500  177.5140  145.5790 C   0  0  0  0  0  3  0  0  0  0  0  0
  187.2800  177.7630  144.3770 C   0  0  0  0  0  3  0  0  0  0  0  0
  187.5790  177.1260  146.7620 C   0  0  0  0  0  2  0  0  0  0  0  0
  187.6570  178.2840  147.7340 C   0  0  0  0  0  3  0  0  0  0  0  0
  189.0450  178.3260  148.3380 C   0  0  0  0  0  2  0  0  0  0  0  0
  187.8940  177.7450  149.1280 C   0  0  0  0  0  2  0  0  0  0  0  0
  190.5920  177.0250  140.8360 C   0  0  0  0  0  2  0  0  0  0  0  0
  189.2860  176.6530  140.1380 C   0  0  0  0  0  2  0  0  0  0  0  0
  189.2160  177.1840  138.7030 C   0  0  2  0  0  0  0  0  0  0  0  0
  187.6400  177.9570  136.7560 C   0  0  0  0  0  1  0  0  0  0  0  0
  189.2070  178.6970  138.5820 C   0  0  0  0  0  2  0  0  0  0  0  0
  187.9570  177.9050  138.2420 C   0  0  2  0  0  0  0  0  0  0  0  0
  190.0000  176.5270  137.6580 N   0  0  0  0  0  2  0  0  0  0  0  0
  190.2310  175.2040  138.0600 N   0  0  0  0  0  2  0  0  0  0  0  0
  192.7730  174.7200  137.5150 S   0  0  0  0  0  0  0  0  0  0  0  0
  191.1800  174.4050  137.3670 C   0  0  0  0  0  3  0  0  0  0  0  0
  186.8420  178.1820  139.2370 C   0  0  0  0  0  2  0  0  0  0  0  0
  185.8520  178.9600  138.6420 O   0  0  0  0  0  0  0  0  0  0  0  0
  185.1780  179.4680  139.6510 O   0  0  0  0  0  1  0  0  0  0  0  0
  1  5  1  0  0  0  0
  3  9  1  0  0  0  0
  4 13  1  6  0  0  0
  4  2  1  0  0  0  0
  5  8  1  0  0  0  0
  6  1  2  0  0  0  0
  7  2  1  0  0  0  0
  7  8  1  0  0  0  0
  8 10  2  0  0  0  0
  9  4  1  0  0  0  0
 11 18  1  6  0  0  0
 11  9  1  0  0  0  0
 11  1  1  0  0  0  0
 12 14  1  0  0  0  0
 13 12  2  0  0  0  0
 14 15  1  0  0  0  0
 15 16  1  0  0  0  0
 15 17  1  0  0  0  0
 16 17  1  0  0  0  0
 19 18  1  0  0  0  0
 20 19  1  1  0  0  0
 22 20  1  0  0  0  0
 23 21  1  6  0  0  0
 23 22  1  0  0  0  0
 23 20  1  0  0  0  0
 23 28  1  0  0  0  0
 24 25  1  0  0  0  0
 24 20  1  0  0  0  0
 27 26  2  0  0  0  0
 27 25  1  0  0  0  0
 29 28  1  0  0  0  0
 29 30  1  0  0  0  0
M  END
>  <MODEL>
3

>  <REMARK>
 VINA RESULT:      -6.0      2.663      3.380
  Name = 
  11 active torsions:
  status: ('A' for Active; 'I' for Inactive)
    1  A    between atoms: C_1  and  C_4
    2  A    between atoms: C_1  and  C_22
    3  A    between atoms: C_4  and  N_5
    4  A    between atoms: N_5  and  N_21
    5  A    between atoms: C_10  and  C_25
    6  A    between atoms: C_11  and  C_24
    7  A    between atoms: C_12  and  C_27
    8  A    between atoms: O_13  and  C_27
    9  A    between atoms: C_15  and  C_25
   10  A    between atoms: C_17  and  N_21
   11  A    between atoms: C_22  and  C_29
                            x       y       z     vdW  Elec       q    Type
                         _______ _______ _______ _____ _____    ______ ____

>  <TORSDO>
F 11

$$$$
=
 OpenBabel11052412383D

 30 32  0  0  1  0  0  0  0  0999 V2000
  191.8390  177.0780  139.6310 C   0  0  0  0  0  0  0  0  0  0  0  0
  189.0940  176.5150  137.4910 C   0  0  0  0  0  2  0  0  0  0  0  0
  188.1740  177.8170  139.9160 C   0  0  0  0  0  1  0  0  0  0  0  0
  189.6460  177.8530  138.0120 C   0  0  2  0  0  3  0  0  0  0  0  0
  192.1870  176.2140  138.5380 N   0  0  0  0  0  2  0  0  0  0  0  0
  192.7120  177.8670  140.0800 O   0  0  0  0  0  0  0  0  0  0  0  0
  189.8330  175.3070  138.0610 C   0  0  0  0  0  2  0  0  0  0  0  0
  191.3030  175.3710  137.7830 C   0  0  0  0  0  0  0  0  0  0  0  0
  189.5530  178.0370  139.4770 N   0  0  0  0  0  0  0  0  0  0  0  0
  191.7710  174.6770  136.8450 O   0  0  0  0  0  0  0  0  0  0  0  0
  190.4370  177.1050  140.2050 C   0  0  2  0  0  3  0  0  0  0  0  0
  187.9190  178.8900  136.5350 C   0  0  0  0  0  3  0  0  0  0  0  0
  189.0260  179.0060  137.2760 C   0  0  0  0  0  3  0  0  0  0  0  0
  187.1860  177.5960  136.3770 C   0  0  0  0  0  2  0  0  0  0  0  0
  185.7840  177.7310  136.9320 C   0  0  0  0  0  3  0  0  0  0  0  0
  185.2420  176.3490  137.2340 C   0  0  0  0  0  2  0  0  0  0  0  0
  184.8100  177.0730  135.9780 C   0  0  0  0  0  2  0  0  0  0  0  0
  190.4630  177.4460  141.6980 C   0  0  0  0  0  2  0  0  0  0  0  0
  189.8990  176.3150  142.5530 C   0  0  0  0  0  2  0  0  0  0  0  0
  189.1510  176.8300  143.7870 C   0  0  2  0  0  0  0  0  0  0  0  0
  189.1300  176.9650  146.4050 C   0  0  0  0  0  1  0  0  0  0  0  0
  189.5780  178.2080  144.2630 C   0  0  0  0  0  2  0  0  0  0  0  0
  189.9080  176.9840  145.0990 C   0  0  2  0  0  0  0  0  0  0  0  0
  187.7110  176.6020  143.8980 N   0  0  0  0  0  2  0  0  0  0  0  0
  187.0570  177.7310  143.3870 N   0  0  0  0  0  2  0  0  0  0  0  0
  185.7250  178.5370  145.5240 S   0  0  0  0  0  0  0  0  0  0  0  0
  185.8170  178.1480  143.9430 C   0  0  0  0  0  3  0  0  0  0  0  0
  191.4070  176.7320  145.1370 C   0  0  0  0  0  2  0  0  0  0  0  0
  191.8930  176.9350  146.4270 O   0  0  0  0  0  0  0  0  0  0  0  0
  192.3420  175.7560  146.8010 O   0  0  0  0  0  1  0  0  0  0  0  0
  1  6  2  0  0  0  0
  1 11  1  0  0  0  0
  2  4  1  0  0  0  0
  2  7  1  0  0  0  0
  4 13  1  6  0  0  0
  4  9  1  0  0  0  0
  5  1  1  0  0  0  0
  8  7  1  0  0  0  0
  8  5  1  0  0  0  0
  9  3  1  0  0  0  0
  9 11  1  0  0  0  0
 10  8  2  0  0  0  0
 11 18  1  1  0  0  0
 12 13  2  0  0  0  0
 14 12  1  0  0  0  0
 14 15  1  0  0  0  0
 15 16  1  0  0  0  0
 17 15  1  0  0  0  0
 17 16  1  0  0  0  0
 18 19  1  0  0  0  0
 20 19  1  6  0  0  0
 20 24  1  0  0  0  0
 20 22  1  0  0  0  0
 20 23  1  0  0  0  0
 22 23  1  0  0  0  0
 23 28  1  0  0  0  0
 23 21  1  1  0  0  0
 25 24  1  0  0  0  0
 25 27  1  0  0  0  0
 27 26  2  0  0  0  0
 28 29  1  0  0  0  0
 29 30  1  0  0  0  0
M  END
>  <MODEL>
4

>  <REMARK>
 VINA RESULT:      -5.9      2.292      7.533
  Name = 
  11 active torsions:
  status: ('A' for Active; 'I' for Inactive)
    1  A    between atoms: C_1  and  C_4
    2  A    between atoms: C_1  and  C_22
    3  A    between atoms: C_4  and  N_5
    4  A    between atoms: N_5  and  N_21
    5  A    between atoms: C_10  and  C_25
    6  A    between atoms: C_11  and  C_24
    7  A    between atoms: C_12  and  C_27
    8  A    between atoms: O_13  and  C_27
    9  A    between atoms: C_15  and  C_25
   10  A    between atoms: C_17  and  N_21
   11  A    between atoms: C_22  and  C_29
                            x       y       z     vdW  Elec       q    Type
                         _______ _______ _______ _____ _____    ______ ____

>  <TORSDO>
F 11

$$$$
=
 OpenBabel11052412383D

 30 32  0  0  1  0  0  0  0  0999 V2000
  188.2990  178.4680  140.9270 C   0  0  0  0  0  0  0  0  0  0  0  0
  188.6450  177.0860  144.1510 C   0  0  0  0  0  2  0  0  0  0  0  0
  190.9170  176.3090  142.5220 C   0  0  0  0  0  1  0  0  0  0  0  0
  189.5680  178.0830  143.4310 C   0  0  2  0  0  3  0  0  0  0  0  0
  187.0920  178.6020  141.6940 N   0  0  0  0  0  2  0  0  0  0  0  0
  188.5970  179.3750  140.1040 O   0  0  0  0  0  0  0  0  0  0  0  0
  187.4790  176.6220  143.2810 C   0  0  0  0  0  2  0  0  0  0  0  0
  186.6610  177.7730  142.7850 C   0  0  0  0  0  0  0  0  0  0  0  0
  190.2200  177.5590  142.2110 N   0  0  0  0  0  0  0  0  0  0  0  0
  185.5730  178.0330  143.3570 O   0  0  0  0  0  0  0  0  0  0  0  0
  189.2440  177.3030  141.1330 C   0  0  2  0  0  3  0  0  0  0  0  0
  190.8040  178.1510  145.6000 C   0  0  0  0  0  3  0  0  0  0  0  0
  190.5740  178.6600  144.3850 C   0  0  0  0  0  3  0  0  0  0  0  0
  190.0830  176.9490  146.1210 C   0  0  0  0  0  2  0  0  0  0  0  0
  189.8370  177.1040  147.6070 C   0  0  0  0  0  3  0  0  0  0  0  0
  188.3570  176.9370  147.8800 C   0  0  0  0  0  2  0  0  0  0  0  0
  188.9670  178.3210  147.8400 C   0  0  0  0  0  2  0  0  0  0  0  0
  189.9660  176.9450  139.8300 C   0  0  0  0  0  2  0  0  0  0  0  0
  189.0270  176.3020  138.8140 C   0  0  0  0  0  2  0  0  0  0  0  0
  189.3660  176.6950  137.3720 C   0  0  2  0  0  0  0  0  0  0  0  0
  188.4130  177.1530  134.9740 C   0  0  0  0  0  1  0  0  0  0  0  0
  189.3090  178.1850  137.0870 C   0  0  0  0  0  2  0  0  0  0  0  0
  188.2670  177.2610  136.4820 C   0  0  2  0  0  0  0  0  0  0  0  0
  190.4650  176.0180  136.6850 N   0  0  0  0  0  2  0  0  0  0  0  0
  190.4690  174.6790  137.0960 N   0  0  0  0  0  2  0  0  0  0  0  0
  188.4650  173.0060  136.6710 S   0  0  0  0  0  0  0  0  0  0  0  0
  189.8950  173.6780  136.2660 C   0  0  0  0  0  3  0  0  0  0  0  0
  186.8890  177.5280  137.0670 C   0  0  0  0  0  2  0  0  0  0  0  0
  186.7680  178.8730  137.4080 O   0  0  0  0  0  0  0  0  0  0  0  0
  185.7990  178.9030  138.2980 O   0  0  0  0  0  1  0  0  0  0  0  0
  1 11  1  0  0  0  0
  1  5  1  0  0  0  0
  4  2  1  0  0  0  0
  4 13  1  1  0  0  0
  5  8  1  0  0  0  0
  6  1  2  0  0  0  0
  7  2  1  0  0  0  0
  8  7  1  0  0  0  0
  8 10  2  0  0  0  0
  9  3  1  0  0  0  0
  9  4  1  0  0  0  0
 11 18  1  6  0  0  0
 11  9  1  0  0  0  0
 12 14  1  0  0  0  0
 13 12  2  0  0  0  0
 14 15  1  0  0  0  0
 15 17  1  0  0  0  0
 15 16  1  0  0  0  0
 17 16  1  0  0  0  0
 19 18  1  0  0  0  0
 20 19  1  1  0  0  0
 22 20  1  0  0  0  0
 23 21  1  6  0  0  0
 23 28  1  0  0  0  0
 23 22  1  0  0  0  0
 23 20  1  0  0  0  0
 24 25  1  0  0  0  0
 24 20  1  0  0  0  0
 27 26  2  0  0  0  0
 27 25  1  0  0  0  0
 28 29  1  0  0  0  0
 29 30  1  0  0  0  0
M  END
>  <MODEL>
5

>  <REMARK>
 VINA RESULT:      -5.8      3.104      4.160
  Name = 
  11 active torsions:
  status: ('A' for Active; 'I' for Inactive)
    1  A    between atoms: C_1  and  C_4
    2  A    between atoms: C_1  and  C_22
    3  A    between atoms: C_4  and  N_5
    4  A    between atoms: N_5  and  N_21
    5  A    between atoms: C_10  and  C_25
    6  A    between atoms: C_11  and  C_24
    7  A    between atoms: C_12  and  C_27
    8  A    between atoms: O_13  and  C_27
    9  A    between atoms: C_15  and  C_25
   10  A    between atoms: C_17  and  N_21
   11  A    between atoms: C_22  and  C_29
                            x       y       z     vdW  Elec       q    Type
                         _______ _______ _______ _____ _____    ______ ____

>  <TORSDO>
F 11

$$$$
=
 OpenBabel11052412383D

 30 32  0  0  1  0  0  0  0  0999 V2000
  190.5150  175.8340  142.9240 C   0  0  0  0  0  0  0  0  0  0  0  0
  189.2580  178.9770  143.9090 C   0  0  0  0  0  2  0  0  0  0  0  0
  188.0900  178.2280  141.3600 C   0  0  0  0  0  1  0  0  0  0  0  0
  188.4870  177.6680  143.6680 C   0  0  2  0  0  3  0  0  0  0  0  0
  191.2430  176.3710  144.0410 N   0  0  0  0  0  2  0  0  0  0  0  0
  190.3600  174.5860  142.8480 O   0  0  0  0  0  0  0  0  0  0  0  0
  190.7490  178.8520  143.6050 C   0  0  0  0  0  2  0  0  0  0  0  0
  191.3890  177.7540  144.3960 C   0  0  0  0  0  0  0  0  0  0  0  0
  188.5260  177.1710  142.2750 N   0  0  0  0  0  0  0  0  0  0  0  0
  192.0590  178.0560  145.4160 O   0  0  0  0  0  0  0  0  0  0  0  0
  189.8810  176.7340  141.8850 C   0  0  2  0  0  3  0  0  0  0  0  0
  186.7280  177.5370  145.4360 C   0  0  0  0  0  3  0  0  0  0  0  0
  187.0760  177.7830  144.1690 C   0  0  0  0  0  3  0  0  0  0  0  0
  187.7190  177.1310  146.4800 C   0  0  0  0  0  2  0  0  0  0  0  0
  187.9850  178.2930  147.4130 C   0  0  0  0  0  3  0  0  0  0  0  0
  189.3000  178.0580  148.1270 C   0  0  0  0  0  2  0  0  0  0  0  0
  187.9940  177.7890  148.8410 C   0  0  0  0  0  2  0  0  0  0  0  0
  189.8510  176.0510  140.5140 C   0  0  0  0  0  2  0  0  0  0  0  0
  190.7690  176.7430  139.5100 C   0  0  0  0  0  2  0  0  0  0  0  0
  190.6810  176.1220  138.1120 C   0  0  2  0  0  0  0  0  0  0  0  0
  189.3820  176.0920  135.8350 C   0  0  0  0  0  1  0  0  0  0  0  0
  191.4560  176.8620  137.0350 C   0  0  0  0  0  2  0  0  0  0  0  0
  189.9370  176.8720  137.0150 C   0  0  2  0  0  0  0  0  0  0  0  0
  190.7420  174.6680  137.9680 N   0  0  0  0  0  2  0  0  0  0  0  0
  192.0480  174.3280  137.5880 N   0  0  0  0  0  2  0  0  0  0  0  0
  193.5980  173.4880  135.6170 S   0  0  0  0  0  0  0  0  0  0  0  0
  192.2620  173.3850  136.5470 C   0  0  0  0  0  3  0  0  0  0  0  0
  189.3930  178.2640  137.2930 C   0  0  0  0  0  2  0  0  0  0  0  0
  188.0270  178.1980  137.5620 O   0  0  0  0  0  0  0  0  0  0  0  0
  187.5330  179.3010  137.0400 O   0  0  0  0  0  1  0  0  0  0  0  0
  1  5  1  0  0  0  0
  3  9  1  0  0  0  0
  4  2  1  0  0  0  0
  4 13  1  6  0  0  0
  5  8  1  0  0  0  0
  6  1  2  0  0  0  0
  7  2  1  0  0  0  0
  7  8  1  0  0  0  0
  8 10  2  0  0  0  0
  9  4  1  0  0  0  0
 11 18  1  6  0  0  0
 11  9  1  0  0  0  0
 11  1  1  0  0  0  0
 12 14  1  0  0  0  0
 13 12  2  0  0  0  0
 14 15  1  0  0  0  0
 15 16  1  0  0  0  0
 15 17  1  0  0  0  0
 16 17  1  0  0  0  0
 19 18  1  0  0  0  0
 20 19  1  1  0  0  0
 22 20  1  0  0  0  0
 23 21  1  6  0  0  0
 23 22  1  0  0  0  0
 23 28  1  0  0  0  0
 23 20  1  0  0  0  0
 24 20  1  0  0  0  0
 25 24  1  0  0  0  0
 26 27  2  0  0  0  0
 27 25  1  0  0  0  0
 28 29  1  0  0  0  0
 30 29  1  0  0  0  0
M  END
>  <MODEL>
6

>  <REMARK>
 VINA RESULT:      -5.7      2.756      3.181
  Name = 
  11 active torsions:
  status: ('A' for Active; 'I' for Inactive)
    1  A    between atoms: C_1  and  C_4
    2  A    between atoms: C_1  and  C_22
    3  A    between atoms: C_4  and  N_5
    4  A    between atoms: N_5  and  N_21
    5  A    between atoms: C_10  and  C_25
    6  A    between atoms: C_11  and  C_24
    7  A    between atoms: C_12  and  C_27
    8  A    between atoms: O_13  and  C_27
    9  A    between atoms: C_15  and  C_25
   10  A    between atoms: C_17  and  N_21
   11  A    between atoms: C_22  and  C_29
                            x       y       z     vdW  Elec       q    Type
                         _______ _______ _______ _____ _____    ______ ____

>  <TORSDO>
F 11

$$$$
=
 OpenBabel11052412383D

 30 32  0  0  1  0  0  0  0  0999 V2000
  183.7990  179.6870  139.0960 C   0  0  0  0  0  0  0  0  0  0  0  0
  180.3090  179.3520  139.4640 C   0  0  0  0  0  2  0  0  0  0  0  0
  181.5440  176.7280  139.5630 C   0  0  0  0  0  1  0  0  0  0  0  0
  181.4190  178.9610  140.4530 C   0  0  2  0  0  3  0  0  0  0  0  0
  183.1140  180.9150  138.8010 N   0  0  0  0  0  2  0  0  0  0  0  0
  184.9390  179.7440  139.6290 O   0  0  0  0  0  0  0  0  0  0  0  0
  180.8530  179.8900  138.1430 C   0  0  0  0  0  2  0  0  0  0  0  0
  181.7580  181.0650  138.3500 C   0  0  0  0  0  0  0  0  0  0  0  0
  182.3270  177.8930  139.9800 N   0  0  0  0  0  0  0  0  0  0  0  0
  181.3070  182.2200  138.1430 O   0  0  0  0  0  0  0  0  0  0  0  0
  183.1550  178.3400  138.8430 C   0  0  2  0  0  3  0  0  0  0  0  0
  181.5260  178.7530  142.9400 C   0  0  0  0  0  3  0  0  0  0  0  0
  180.8400  178.6310  141.7980 C   0  0  0  0  0  3  0  0  0  0  0  0
  182.9390  179.2410  142.9830 C   0  0  0  0  0  2  0  0  0  0  0  0
  183.6420  178.6670  144.1940 C   0  0  0  0  0  3  0  0  0  0  0  0
  184.8160  179.5560  144.5480 C   0  0  0  0  0  2  0  0  0  0  0  0
  185.0470  178.2590  143.8040 C   0  0  0  0  0  2  0  0  0  0  0  0
  184.2120  177.2840  138.5010 C   0  0  0  0  0  2  0  0  0  0  0  0
  184.5440  177.2670  137.0120 C   0  0  0  0  0  2  0  0  0  0  0  0
  185.7860  176.4270  136.6970 C   0  0  2  0  0  0  0  0  0  0  0  0
  188.1660  176.4100  135.5990 C   0  0  0  0  0  1  0  0  0  0  0  0
  186.8720  176.4730  137.7570 C   0  0  0  0  0  2  0  0  0  0  0  0
  187.1030  177.1330  136.4090 C   0  0  2  0  0  0  0  0  0  0  0  0
  185.6210  175.1030  136.0980 N   0  0  0  0  0  2  0  0  0  0  0  0
  185.5090  174.1710  137.1380 N   0  0  0  0  0  2  0  0  0  0  0  0
  183.9590  172.0500  136.8320 S   0  0  0  0  0  0  0  0  0  0  0  0
  184.2590  173.5480  137.4020 C   0  0  0  0  0  3  0  0  0  0  0  0
  187.1910  178.6450  136.5460 C   0  0  0  0  0  2  0  0  0  0  0  0
  187.9230  178.9800  137.6830 O   0  0  0  0  0  0  0  0  0  0  0  0
  189.0530  179.4670  137.2180 O   0  0  0  0  0  1  0  0  0  0  0  0
  1  6  2  0  0  0  0
  2  4  1  0  0  0  0
  3  9  1  0  0  0  0
  4 13  1  1  0  0  0
  5  1  1  0  0  0  0
  7  8  1  0  0  0  0
  7  2  1  0  0  0  0
  8  5  1  0  0  0  0
  9  4  1  0  0  0  0
 10  8  2  0  0  0  0
 11 18  1  1  0  0  0
 11  1  1  0  0  0  0
 11  9  1  0  0  0  0
 12 14  1  0  0  0  0
 13 12  2  0  0  0  0
 14 15  1  0  0  0  0
 15 16  1  0  0  0  0
 17 15  1  0  0  0  0
 17 16  1  0  0  0  0
 19 18  1  0  0  0  0
 20 19  1  1  0  0  0
 20 22  1  0  0  0  0
 23 21  1  6  0  0  0
 23 28  1  0  0  0  0
 23 20  1  0  0  0  0
 23 22  1  0  0  0  0
 24 20  1  0  0  0  0
 24 25  1  0  0  0  0
 25 27  1  0  0  0  0
 26 27  2  0  0  0  0
 28 29  1  0  0  0  0
 30 29  1  0  0  0  0
M  END
>  <MODEL>
7

>  <REMARK>
 VINA RESULT:      -5.6      5.400      7.435
  Name = 
  11 active torsions:
  status: ('A' for Active; 'I' for Inactive)
    1  A    between atoms: C_1  and  C_4
    2  A    between atoms: C_1  and  C_22
    3  A    between atoms: C_4  and  N_5
    4  A    between atoms: N_5  and  N_21
    5  A    between atoms: C_10  and  C_25
    6  A    between atoms: C_11  and  C_24
    7  A    between atoms: C_12  and  C_27
    8  A    between atoms: O_13  and  C_27
    9  A    between atoms: C_15  and  C_25
   10  A    between atoms: C_17  and  N_21
   11  A    between atoms: C_22  and  C_29
                            x       y       z     vdW  Elec       q    Type
                         _______ _______ _______ _____ _____    ______ ____

>  <TORSDO>
F 11

$$$$
=
 OpenBabel11052412383D

 30 32  0  0  1  0  0  0  0  0999 V2000
  187.7690  178.2400  140.9610 C   0  0  0  0  0  0  0  0  0  0  0  0
  189.0020  177.3570  144.1440 C   0  0  0  0  0  2  0  0  0  0  0  0
  190.7600  176.2850  142.0980 C   0  0  0  0  0  1  0  0  0  0  0  0
  189.6770  178.2100  143.0560 C   0  0  2  0  0  3  0  0  0  0  0  0
  186.8140  178.5190  141.9970 N   0  0  0  0  0  2  0  0  0  0  0  0
  187.8160  179.0030  139.9600 O   0  0  0  0  0  0  0  0  0  0  0  0
  187.6520  176.7950  143.7040 C   0  0  0  0  0  2  0  0  0  0  0  0
  186.7100  177.8780  143.2780 C   0  0  0  0  0  0  0  0  0  0  0  0
  189.9820  177.4890  141.8000 N   0  0  0  0  0  0  0  0  0  0  0  0
  185.8140  178.2490  144.0770 O   0  0  0  0  0  0  0  0  0  0  0  0
  188.7550  177.0970  141.0800 C   0  0  2  0  0  3  0  0  0  0  0  0
  191.6800  178.3620  144.5410 C   0  0  0  0  0  3  0  0  0  0  0  0
  190.8950  178.9000  143.6010 C   0  0  0  0  0  3  0  0  0  0  0  0
  191.4220  177.0130  145.1330 C   0  0  0  0  0  2  0  0  0  0  0  0
  191.6800  177.0510  146.6240 C   0  0  0  0  0  3  0  0  0  0  0  0
  191.8280  175.6320  147.1320 C   0  0  0  0  0  2  0  0  0  0  0  0
  190.5300  176.3790  147.3430 C   0  0  0  0  0  2  0  0  0  0  0  0
  189.1010  176.5270  139.7010 C   0  0  0  0  0  2  0  0  0  0  0  0
  190.0810  177.4180  138.9420 C   0  0  0  0  0  2  0  0  0  0  0  0
  190.4000  176.8810  137.5440 C   0  0  2  0  0  0  0  0  0  0  0  0
  192.2950  176.3340  135.8170 C   0  0  0  0  0  1  0  0  0  0  0  0
  190.6600  175.3860  137.4790 C   0  0  0  0  0  2  0  0  0  0  0  0
  191.8020  176.3610  137.2540 C   0  0  2  0  0  0  0  0  0  0  0  0
  189.6510  177.3850  136.3940 N   0  0  0  0  0  2  0  0  0  0  0  0
  188.9200  178.5040  136.8150 N   0  0  0  0  0  2  0  0  0  0  0  0
  186.4710  177.5200  136.9940 S   0  0  0  0  0  0  0  0  0  0  0  0
  187.5470  178.6280  136.4690 C   0  0  0  0  0  3  0  0  0  0  0  0
  192.8220  176.2830  138.3790 C   0  0  0  0  0  2  0  0  0  0  0  0
  194.1100  176.2180  137.8520 O   0  0  0  0  0  0  0  0  0  0  0  0
  194.6960  175.2540  138.5280 O   0  0  0  0  0  1  0  0  0  0  0  0
  1 11  1  0  0  0  0
  1  5  1  0  0  0  0
  4 13  1  1  0  0  0
  4  2  1  0  0  0  0
  5  8  1  0  0  0  0
  6  1  2  0  0  0  0
  7  2  1  0  0  0  0
  8  7  1  0  0  0  0
  8 10  2  0  0  0  0
  9  3  1  0  0  0  0
  9  4  1  0  0  0  0
 11 18  1  6  0  0  0
 11  9  1  0  0  0  0
 12 14  1  0  0  0  0
 13 12  2  0  0  0  0
 14 15  1  0  0  0  0
 15 16  1  0  0  0  0
 15 17  1  0  0  0  0
 16 17  1  0  0  0  0
 19 18  1  0  0  0  0
 20 19  1  1  0  0  0
 22 20  1  0  0  0  0
 23 21  1  6  0  0  0
 23 22  1  0  0  0  0
 23 20  1  0  0  0  0
 23 28  1  0  0  0  0
 24 25  1  0  0  0  0
 24 20  1  0  0  0  0
 27 25  1  0  0  0  0
 27 26  2  0  0  0  0
 29 28  1  0  0  0  0
 29 30  1  0  0  0  0
M  END
>  <MODEL>
8

>  <REMARK>
 VINA RESULT:      -5.6      2.275      3.206
  Name = 
  11 active torsions:
  status: ('A' for Active; 'I' for Inactive)
    1  A    between atoms: C_1  and  C_4
    2  A    between atoms: C_1  and  C_22
    3  A    between atoms: C_4  and  N_5
    4  A    between atoms: N_5  and  N_21
    5  A    between atoms: C_10  and  C_25
    6  A    between atoms: C_11  and  C_24
    7  A    between atoms: C_12  and  C_27
    8  A    between atoms: O_13  and  C_27
    9  A    between atoms: C_15  and  C_25
   10  A    between atoms: C_17  and  N_21
   11  A    between atoms: C_22  and  C_29
                            x       y       z     vdW  Elec       q    Type
                         _______ _______ _______ _____ _____    ______ ____

>  <TORSDO>
F 11

$$$$
=
 OpenBabel11052412383D

 30 32  0  0  1  0  0  0  0  0999 V2000
  190.4630  176.9980  141.3050 C   0  0  0  0  0  0  0  0  0  0  0  0
  188.8980  178.5480  144.0570 C   0  0  0  0  0  2  0  0  0  0  0  0
  187.2540  178.8980  141.6910 C   0  0  0  0  0  1  0  0  0  0  0  0
  188.3820  177.3880  143.1890 C   0  0  2  0  0  3  0  0  0  0  0  0
  191.3420  177.0800  142.4380 N   0  0  0  0  0  2  0  0  0  0  0  0
  190.5570  176.0030  140.5370 O   0  0  0  0  0  0  0  0  0  0  0  0
  190.2380  179.0990  143.5760 C   0  0  0  0  0  2  0  0  0  0  0  0
  191.2870  178.0330  143.5100 C   0  0  0  0  0  0  0  0  0  0  0  0
  188.1370  177.7340  141.7710 N   0  0  0  0  0  0  0  0  0  0  0  0
  192.1350  177.9610  144.4360 O   0  0  0  0  0  0  0  0  0  0  0  0
  189.3920  178.0390  141.0550 C   0  0  2  0  0  3  0  0  0  0  0  0
  186.8060  176.9710  145.0810 C   0  0  0  0  0  3  0  0  0  0  0  0
  187.1730  176.7530  143.8140 C   0  0  0  0  0  3  0  0  0  0  0  0
  187.5650  177.8780  145.9960 C   0  0  0  0  0  2  0  0  0  0  0  0
  187.9300  177.1360  147.2640 C   0  0  0  0  0  3  0  0  0  0  0  0
  188.7290  178.0600  148.1600 C   0  0  0  0  0  2  0  0  0  0  0  0
  189.4360  177.0020  147.3430 C   0  0  0  0  0  2  0  0  0  0  0  0
  189.1270  178.2040  139.5550 C   0  0  0  0  0  2  0  0  0  0  0  0
  188.2900  177.0590  138.9920 C   0  0  0  0  0  2  0  0  0  0  0  0
  187.9870  177.2340  137.5000 C   0  0  2  0  0  0  0  0  0  0  0  0
  186.1110  177.3430  135.6720 C   0  0  0  0  0  1  0  0  0  0  0  0
  187.7390  178.6670  137.0630 C   0  0  0  0  0  2  0  0  0  0  0  0
  186.5920  177.6720  137.0760 C   0  0  2  0  0  0  0  0  0  0  0  0
  188.7420  176.4550  136.5200 N   0  0  0  0  0  2  0  0  0  0  0  0
  189.3310  175.3740  137.1900 N   0  0  0  0  0  2  0  0  0  0  0  0
  191.8040  176.3100  137.2570 S   0  0  0  0  0  0  0  0  0  0  0  0
  190.7190  175.1130  137.0360 C   0  0  0  0  0  3  0  0  0  0  0  0
  185.5630  178.0320  138.1350 C   0  0  0  0  0  2  0  0  0  0  0  0
  185.6810  179.3780  138.4780 O   0  0  0  0  0  0  0  0  0  0  0  0
  184.5540  179.6630  139.0940 O   0  0  0  0  0  1  0  0  0  0  0  0
  1  5  1  0  0  0  0
  3  9  1  0  0  0  0
  4 13  1  1  0  0  0
  4  2  1  0  0  0  0
  5  8  1  0  0  0  0
  6  1  2  0  0  0  0
  7  2  1  0  0  0  0
  8  7  1  0  0  0  0
  8 10  2  0  0  0  0
  9  4  1  0  0  0  0
 11 18  1  6  0  0  0
 11  1  1  0  0  0  0
 11  9  1  0  0  0  0
 12 14  1  0  0  0  0
 13 12  2  0  0  0  0
 14 15  1  0  0  0  0
 15 17  1  0  0  0  0
 15 16  1  0  0  0  0
 17 16  1  0  0  0  0
 19 18  1  0  0  0  0
 20 19  1  1  0  0  0
 22 23  1  0  0  0  0
 22 20  1  0  0  0  0
 23 21  1  6  0  0  0
 23 20  1  0  0  0  0
 23 28  1  0  0  0  0
 24 25  1  0  0  0  0
 24 20  1  0  0  0  0
 27 25  1  0  0  0  0
 27 26  2  0  0  0  0
 28 29  1  0  0  0  0
 29 30  1  0  0  0  0
M  END
>  <MODEL>
9

>  <REMARK>
 VINA RESULT:      -5.6      2.829      3.710
  Name = 
  11 active torsions:
  status: ('A' for Active; 'I' for Inactive)
    1  A    between atoms: C_1  and  C_4
    2  A    between atoms: C_1  and  C_22
    3  A    between atoms: C_4  and  N_5
    4  A    between atoms: N_5  and  N_21
    5  A    between atoms: C_10  and  C_25
    6  A    between atoms: C_11  and  C_24
    7  A    between atoms: C_12  and  C_27
    8  A    between atoms: O_13  and  C_27
    9  A    between atoms: C_15  and  C_25
   10  A    between atoms: C_17  and  N_21
   11  A    between atoms: C_22  and  C_29
                            x       y       z     vdW  Elec       q    Type
                         _______ _______ _______ _____ _____    ______ ____

>  <TORSDO>
F 11

$$$$
