=
 OpenBabel11052416533D

 32 36  0  0  1  0  0  0  0  0999 V2000
  187.6920  177.7070  147.0230 C   0  0  0  0  0  3  0  0  0  0  0  0
  185.4630  178.2930  142.2280 C   0  0  0  0  0  0  0  0  0  0  0  0
  180.9370  179.0910  143.5850 C   0  0  0  0  0  3  0  0  0  0  0  0
  180.5670  179.2010  142.2430 C   0  0  0  0  0  3  0  0  0  0  0  0
  187.2270  177.9090  143.8590 C   0  0  0  0  0  0  0  0  0  0  0  0
  184.9450  178.3130  144.5940 C   0  0  0  0  0  3  0  0  0  0  0  0
  186.5470  177.9180  146.3670 C   0  0  0  0  0  3  0  0  0  0  0  0
  182.2340  178.8390  143.9030 N   0  0  0  0  0  0  0  0  0  0  0  0
  184.5230  178.4340  143.2660 C   0  0  0  0  0  0  0  0  0  0  0  0
  183.1840  178.6920  142.9380 C   0  0  0  0  0  0  0  0  0  0  0  0
  183.7810  178.6570  140.5830 C   0  0  0  0  0  0  0  0  0  0  0  0
  189.0460  176.7820  145.1730 C   0  0  0  0  0  2  0  0  0  0  0  0
  186.2850  178.0610  144.9160 C   0  0  0  0  0  0  0  0  0  0  0  0
  188.6990  177.7090  144.0340 C   0  0  0  0  0  2  0  0  0  0  0  0
  189.0570  177.6140  146.4340 C   0  0  2  0  0  3  0  0  0  0  0  0
  181.5070  179.0560  141.2730 N   0  0  0  0  0  0  0  0  0  0  0  0
  182.8080  178.8060  141.5840 C   0  0  0  0  0  0  0  0  0  0  0  0
  186.7990  178.0400  142.5330 C   0  0  0  0  0  3  0  0  0  0  0  0
  185.0730  178.4090  140.9310 N   0  0  0  0  0  0  0  0  0  0  0  0
  189.9990  177.0080  147.4630 C   0  0  0  0  0  2  0  0  0  0  0  0
  191.3490  176.7470  146.8750 C   0  0  0  0  0  0  0  0  0  0  0  0
  191.7850  177.4590  145.9850 O   0  0  0  0  0  0  0  0  0  0  0  0
  192.1530  175.5910  147.3590 C   0  0  0  0  0  1  0  0  0  0  0  0
  183.4320  178.8010  139.1360 C   0  0  0  0  0  2  0  0  0  0  0  0
  183.2770  176.4070  138.3610 C   0  0  0  0  0  0  0  0  0  0  0  0
  185.0660  177.4680  137.5720 C   0  0  0  0  0  0  0  0  0  0  0  0
  185.2030  176.2790  137.0890 N   0  0  0  0  0  0  0  0  0  0  0  0
  184.0770  175.4590  137.5290 C   0  0  0  0  0  3  0  0  0  0  0  0
  185.9560  178.4640  137.3430 F   0  0  0  0  0  0  0  0  0  0  0  0
  183.8650  177.5910  138.3710 C   0  0  2  0  0  3  0  0  0  0  0  0
  182.0710  176.0640  139.0670 C   0  0  0  0  0  0  0  0  0  0  0  0
  181.0600  175.7760  139.6580 C   0  0  0  0  0  3  0  0  0  0  0  0
  2 18  2  0  0  0  0
  2  9  1  0  0  0  0
  3  8  1  0  0  0  0
  4  3  2  0  0  0  0
  5 14  1  0  0  0  0
  5 13  2  0  0  0  0
  6 13  1  0  0  0  0
  7  1  2  0  0  0  0
  9  6  2  0  0  0  0
 10  9  1  0  0  0  0
 10  8  2  0  0  0  0
 11 19  2  0  0  0  0
 11 17  1  0  0  0  0
 12 15  1  0  0  0  0
 13  7  1  0  0  0  0
 14 12  1  0  0  0  0
 15  1  1  0  0  0  0
 15 20  1  1  0  0  0
 16 17  2  0  0  0  0
 16  4  1  0  0  0  0
 17 10  1  0  0  0  0
 18  5  1  0  0  0  0
 19  2  1  0  0  0  0
 21 23  1  0  0  0  0
 21 20  1  0  0  0  0
 22 21  2  0  0  0  0
 24 11  1  0  0  0  0
 25 30  1  0  0  0  0
 25 31  1  0  0  0  0
 26 30  1  0  0  0  0
 27 28  1  0  0  0  0
 27 26  2  0  0  0  0
 28 25  2  0  0  0  0
 29 26  1  0  0  0  0
 30 24  1  1  0  0  0
 31 32  3  0  0  0  0
M  END
>  <MODEL>
1

>  <REMARK>
 VINA RESULT:      -9.8      0.000      0.000
  Name = 
  5 active torsions:
  status: ('A' for Active; 'I' for Inactive)
    1  A    between atoms: C_1  and  C_10
    2  A    between atoms: C_6  and  C_7
    3  A    between atoms: C_10  and  C_24
    4  A    between atoms: C_16  and  C_27
    5  A    between atoms: C_27  and  C_32
                            x       y       z     vdW  Elec       q    Type
                         _______ _______ _______ _____ _____    ______ ____

>  <TORSDO>
F 5

$$$$
=
 OpenBabel11052416533D

 32 36  0  0  1  0  0  0  0  0999 V2000
  187.6230  177.5800  146.8230 C   0  0  0  0  0  3  0  0  0  0  0  0
  185.4680  178.4050  142.0290 C   0  0  0  0  0  0  0  0  0  0  0  0
  180.9140  179.0980  143.3500 C   0  0  0  0  0  3  0  0  0  0  0  0
  180.5650  179.2770  142.0110 C   0  0  0  0  0  3  0  0  0  0  0  0
  187.2080  177.9470  143.6660 C   0  0  0  0  0  0  0  0  0  0  0  0
  184.9110  178.2960  144.3840 C   0  0  0  0  0  3  0  0  0  0  0  0
  186.4870  177.8170  146.1600 C   0  0  0  0  0  3  0  0  0  0  0  0
  182.2070  178.8390  143.6770 N   0  0  0  0  0  0  0  0  0  0  0  0
  184.5100  178.4840  143.0570 C   0  0  0  0  0  0  0  0  0  0  0  0
  183.1740  178.7500  142.7210 C   0  0  0  0  0  0  0  0  0  0  0  0
  183.8100  178.8440  140.3780 C   0  0  0  0  0  0  0  0  0  0  0  0
  189.0130  176.7640  144.9490 C   0  0  0  0  0  2  0  0  0  0  0  0
  186.2470  178.0360  144.7140 C   0  0  0  0  0  0  0  0  0  0  0  0
  188.6780  177.7490  143.8550 C   0  0  0  0  0  2  0  0  0  0  0  0
  188.9980  177.5280  146.2530 C   0  0  2  0  0  3  0  0  0  0  0  0
  181.5220  179.1910  141.0500 N   0  0  0  0  0  0  0  0  0  0  0  0
  182.8200  178.9330  141.3690 C   0  0  0  0  0  0  0  0  0  0  0  0
  186.8000  178.1460  142.3420 C   0  0  0  0  0  3  0  0  0  0  0  0
  185.0980  178.5870  140.7340 N   0  0  0  0  0  0  0  0  0  0  0  0
  189.9280  176.8750  147.2630 C   0  0  0  0  0  2  0  0  0  0  0  0
  191.3160  176.7510  146.7220 C   0  0  0  0  0  0  0  0  0  0  0  0
  191.7260  177.5360  145.8830 O   0  0  0  0  0  0  0  0  0  0  0  0
  192.1940  175.6410  147.1890 C   0  0  0  0  0  1  0  0  0  0  0  0
  183.4840  179.0630  138.9350 C   0  0  0  0  0  2  0  0  0  0  0  0
  184.4180  177.2190  137.4920 C   0  0  0  0  0  0  0  0  0  0  0  0
  182.2940  176.8900  138.0690 C   0  0  0  0  0  0  0  0  0  0  0  0
  182.5490  175.8670  137.3230 N   0  0  0  0  0  0  0  0  0  0  0  0
  183.9350  175.9490  136.8690 C   0  0  0  0  0  3  0  0  0  0  0  0
  181.0840  177.0990  138.6430 F   0  0  0  0  0  0  0  0  0  0  0  0
  183.4430  177.7580  138.2050 C   0  0  2  0  0  3  0  0  0  0  0  0
  185.7310  177.7760  137.3110 C   0  0  0  0  0  0  0  0  0  0  0  0
  186.8320  178.2430  137.1600 C   0  0  0  0  0  3  0  0  0  0  0  0
  2 18  2  0  0  0  0
  2  9  1  0  0  0  0
  3  8  1  0  0  0  0
  4  3  2  0  0  0  0
  5 14  1  0  0  0  0
  5 13  2  0  0  0  0
  6 13  1  0  0  0  0
  7  1  2  0  0  0  0
  9  6  2  0  0  0  0
 10  9  1  0  0  0  0
 10  8  2  0  0  0  0
 11 19  2  0  0  0  0
 11 17  1  0  0  0  0
 12 15  1  0  0  0  0
 13  7  1  0  0  0  0
 14 12  1  0  0  0  0
 15  1  1  0  0  0  0
 15 20  1  1  0  0  0
 16 17  2  0  0  0  0
 16  4  1  0  0  0  0
 17 10  1  0  0  0  0
 18  5  1  0  0  0  0
 19  2  1  0  0  0  0
 21 23  1  0  0  0  0
 21 20  1  0  0  0  0
 22 21  2  0  0  0  0
 24 11  1  0  0  0  0
 25 30  1  0  0  0  0
 26 30  1  0  0  0  0
 26 29  1  0  0  0  0
 27 26  2  0  0  0  0
 28 27  1  0  0  0  0
 28 25  2  0  0  0  0
 30 24  1  6  0  0  0
 31 25  1  0  0  0  0
 32 31  3  0  0  0  0
M  END
>  <MODEL>
2

>  <REMARK>
 VINA RESULT:      -9.7      1.193      1.877
  Name = 
  5 active torsions:
  status: ('A' for Active; 'I' for Inactive)
    1  A    between atoms: C_1  and  C_10
    2  A    between atoms: C_6  and  C_7
    3  A    between atoms: C_10  and  C_24
    4  A    between atoms: C_16  and  C_27
    5  A    between atoms: C_27  and  C_32
                            x       y       z     vdW  Elec       q    Type
                         _______ _______ _______ _____ _____    ______ ____

>  <TORSDO>
F 5

$$$$
=
 OpenBabel11052416533D

 32 36  0  0  1  0  0  0  0  0999 V2000
  191.1460  176.4780  144.9110 C   0  0  0  0  0  3  0  0  0  0  0  0
  188.5800  177.7810  140.4370 C   0  0  0  0  0  0  0  0  0  0  0  0
  191.7270  176.1030  137.2370 C   0  0  0  0  0  3  0  0  0  0  0  0
  190.8920  176.5370  136.2060 C   0  0  0  0  0  3  0  0  0  0  0  0
  188.9780  177.5900  142.8290 C   0  0  0  0  0  0  0  0  0  0  0  0
  190.6020  176.7200  141.2420 C   0  0  0  0  0  3  0  0  0  0  0  0
  191.2000  176.4660  143.5760 C   0  0  0  0  0  3  0  0  0  0  0  0
  191.3570  176.3060  138.5290 N   0  0  0  0  0  0  0  0  0  0  0  0
  189.8020  177.1360  140.1730 C   0  0  0  0  0  0  0  0  0  0  0  0
  190.1850  176.9270  138.8400 C   0  0  0  0  0  0  0  0  0  0  0  0
  188.1330  178.0040  138.1100 C   0  0  0  0  0  0  0  0  0  0  0  0
  189.4090  178.2080  145.2240 C   0  0  0  0  0  2  0  0  0  0  0  0
  190.2120  176.9270  142.5710 C   0  0  0  0  0  0  0  0  0  0  0  0
  188.3870  177.8220  144.1830 C   0  0  0  0  0  2  0  0  0  0  0  0
  190.0050  176.9260  145.7570 C   0  0  2  0  0  3  0  0  0  0  0  0
  189.7210  177.1580  136.5060 N   0  0  0  0  0  0  0  0  0  0  0  0
  189.3430  177.3640  137.7970 C   0  0  0  0  0  0  0  0  0  0  0  0
  188.1790  177.9950  141.7540 C   0  0  0  0  0  3  0  0  0  0  0  0
  187.7860  178.1910  139.4120 N   0  0  0  0  0  0  0  0  0  0  0  0
  190.4940  177.1190  147.1840 C   0  0  0  0  0  2  0  0  0  0  0  0
  189.4020  177.6330  148.0670 C   0  0  0  0  0  0  0  0  0  0  0  0
  189.6010  178.5790  148.8110 O   0  0  0  0  0  0  0  0  0  0  0  0
  188.0720  176.9630  148.0600 C   0  0  0  0  0  1  0  0  0  0  0  0
  187.1950  178.4540  137.0350 C   0  0  0  0  0  2  0  0  0  0  0  0
  184.8930  177.5540  137.5300 C   0  0  0  0  0  0  0  0  0  0  0  0
  186.0520  176.2720  136.1280 C   0  0  0  0  0  0  0  0  0  0  0  0
  184.9460  175.6200  136.2640 N   0  0  0  0  0  0  0  0  0  0  0  0
  184.0710  176.3590  137.1690 C   0  0  0  0  0  2  0  0  0  0  0  0
  187.0710  175.8390  135.3470 F   0  0  0  0  0  0  0  0  0  0  0  0
  186.0550  177.4950  136.9020 C   0  0  0  0  0  0  0  0  0  0  0  0
  184.4860  178.5850  138.4460 C   0  0  0  0  0  0  0  0  0  0  0  0
  184.1450  179.4490  139.2150 C   0  0  0  0  0  3  0  0  0  0  0  0
  1 15  1  0  0  0  0
  2 18  1  0  0  0  0
  3  8  1  0  0  0  0
  4 16  1  0  0  0  0
  4  3  2  0  0  0  0
  5 14  1  0  0  0  0
  6 13  2  0  0  0  0
  7  1  2  0  0  0  0
  8 10  2  0  0  0  0
  9  2  2  0  0  0  0
  9  6  1  0  0  0  0
 10  9  1  0  0  0  0
 11 19  2  0  0  0  0
 12 15  1  0  0  0  0
 13  5  1  0  0  0  0
 13  7  1  0  0  0  0
 14 12  1  0  0  0  0
 15 20  1  1  0  0  0
 16 17  2  0  0  0  0
 17 11  1  0  0  0  0
 17 10  1  0  0  0  0
 18  5  2  0  0  0  0
 19  2  1  0  0  0  0
 20 21  1  0  0  0  0
 21 22  2  0  0  0  0
 23 21  1  0  0  0  0
 24 11  1  0  0  0  0
 25 31  1  0  0  0  0
 26 27  2  0  0  0  0
 26 30  1  0  0  0  0
 27 28  1  0  0  0  0
 28 25  1  0  0  0  0
 29 26  1  0  0  0  0
 30 24  1  0  0  0  0
 30 25  2  0  0  0  0
 31 32  3  0  0  0  0
M  END
>  <MODEL>
3

>  <REMARK>
 VINA RESULT:      -8.9      3.130      5.579
  Name = 
  5 active torsions:
  status: ('A' for Active; 'I' for Inactive)
    1  A    between atoms: C_1  and  C_10
    2  A    between atoms: C_6  and  C_7
    3  A    between atoms: C_10  and  C_24
    4  A    between atoms: C_16  and  C_27
    5  A    between atoms: C_27  and  C_32
                            x       y       z     vdW  Elec       q    Type
                         _______ _______ _______ _____ _____    ______ ____

>  <TORSDO>
F 5

$$$$
=
 OpenBabel11052416533D

 32 36  0  0  1  0  0  0  0  0999 V2000
  187.5840  177.6900  146.8660 C   0  0  0  0  0  3  0  0  0  0  0  0
  185.3390  178.4000  142.0950 C   0  0  0  0  0  0  0  0  0  0  0  0
  180.8460  179.3040  143.4940 C   0  0  0  0  0  3  0  0  0  0  0  0
  180.4700  179.4430  142.1570 C   0  0  0  0  0  3  0  0  0  0  0  0
  187.1030  177.9470  143.7080 C   0  0  0  0  0  0  0  0  0  0  0  0
  184.8380  178.4040  144.4650 C   0  0  0  0  0  3  0  0  0  0  0  0
  186.4400  177.9410  146.2210 C   0  0  0  0  0  3  0  0  0  0  0  0
  182.1380  179.0130  143.8010 N   0  0  0  0  0  0  0  0  0  0  0  0
  184.4110  178.5540  143.1420 C   0  0  0  0  0  0  0  0  0  0  0  0
  183.0770  178.8530  142.8270 C   0  0  0  0  0  0  0  0  0  0  0  0
  183.6570  178.8310  140.4670 C   0  0  0  0  0  0  0  0  0  0  0  0
  188.8990  176.7530  144.9950 C   0  0  0  0  0  2  0  0  0  0  0  0
  186.1720  178.1100  144.7740 C   0  0  0  0  0  0  0  0  0  0  0  0
  188.5700  177.7040  143.8700 C   0  0  0  0  0  2  0  0  0  0  0  0
  188.9420  177.5680  146.2660 C   0  0  2  0  0  3  0  0  0  0  0  0
  181.4000  179.2840  141.1790 N   0  0  0  0  0  0  0  0  0  0  0  0
  182.6950  178.9940  141.4760 C   0  0  0  0  0  0  0  0  0  0  0  0
  186.6690  178.1060  142.3870 C   0  0  0  0  0  3  0  0  0  0  0  0
  184.9440  178.5430  140.8030 N   0  0  0  0  0  0  0  0  0  0  0  0
  189.8740  176.9230  147.2800 C   0  0  0  0  0  2  0  0  0  0  0  0
  191.2540  176.7660  146.7260 C   0  0  0  0  0  0  0  0  0  0  0  0
  191.6820  177.5540  145.8990 O   0  0  0  0  0  0  0  0  0  0  0  0
  192.0980  175.6190  147.1640 C   0  0  0  0  0  1  0  0  0  0  0  0
  183.3020  179.0040  139.0250 C   0  0  0  0  0  2  0  0  0  0  0  0
  181.1660  178.2780  137.8990 C   0  0  0  0  0  0  0  0  0  0  0  0
  182.1490  176.6460  139.0490 C   0  0  0  0  0  0  0  0  0  0  0  0
  181.0830  176.0750  138.5960 N   0  0  0  0  0  0  0  0  0  0  0  0
  180.3300  177.0430  137.8040 C   0  0  0  0  0  3  0  0  0  0  0  0
  183.0560  176.0040  139.8250 F   0  0  0  0  0  0  0  0  0  0  0  0
  182.2410  178.0270  138.6280 C   0  0  2  0  0  3  0  0  0  0  0  0
  180.8280  179.5460  137.3120 C   0  0  0  0  0  0  0  0  0  0  0  0
  180.5440  180.6100  136.8200 C   0  0  0  0  0  3  0  0  0  0  0  0
  2 18  2  0  0  0  0
  2  9  1  0  0  0  0
  3  8  1  0  0  0  0
  4  3  2  0  0  0  0
  5 14  1  0  0  0  0
  5 13  2  0  0  0  0
  6 13  1  0  0  0  0
  7  1  2  0  0  0  0
  9  6  2  0  0  0  0
 10  9  1  0  0  0  0
 10  8  2  0  0  0  0
 11 19  2  0  0  0  0
 11 17  1  0  0  0  0
 12 15  1  0  0  0  0
 13  7  1  0  0  0  0
 14 12  1  0  0  0  0
 15  1  1  0  0  0  0
 15 20  1  1  0  0  0
 16 17  2  0  0  0  0
 16  4  1  0  0  0  0
 17 10  1  0  0  0  0
 18  5  1  0  0  0  0
 19  2  1  0  0  0  0
 21 23  1  0  0  0  0
 21 20  1  0  0  0  0
 22 21  2  0  0  0  0
 24 11  1  0  0  0  0
 25 30  1  0  0  0  0
 26 29  1  0  0  0  0
 27 26  2  0  0  0  0
 28 25  2  0  0  0  0
 28 27  1  0  0  0  0
 30 24  1  1  0  0  0
 30 26  1  0  0  0  0
 31 25  1  0  0  0  0
 32 31  3  0  0  0  0
M  END
>  <MODEL>
4

>  <REMARK>
 VINA RESULT:      -8.9      1.589      2.004
  Name = 
  5 active torsions:
  status: ('A' for Active; 'I' for Inactive)
    1  A    between atoms: C_1  and  C_10
    2  A    between atoms: C_6  and  C_7
    3  A    between atoms: C_10  and  C_24
    4  A    between atoms: C_16  and  C_27
    5  A    between atoms: C_27  and  C_32
                            x       y       z     vdW  Elec       q    Type
                         _______ _______ _______ _____ _____    ______ ____

>  <TORSDO>
F 5

$$$$
=
 OpenBabel11052416533D

 32 36  0  0  1  0  0  0  0  0999 V2000
  182.1550  178.6640  143.4540 C   0  0  0  0  0  3  0  0  0  0  0  0
  187.4140  178.1320  144.0640 C   0  0  0  0  0  0  0  0  0  0  0  0
  187.6410  178.2470  148.8500 C   0  0  0  0  0  3  0  0  0  0  0  0
  189.0280  178.1060  148.7750 C   0  0  0  0  0  3  0  0  0  0  0  0
  185.2910  178.3160  142.8900 C   0  0  0  0  0  0  0  0  0  0  0  0
  185.3570  178.3760  145.3200 C   0  0  0  0  0  3  0  0  0  0  0  0
  183.1540  178.6110  144.3410 C   0  0  0  0  0  3  0  0  0  0  0  0
  186.9090  178.2880  147.7050 N   0  0  0  0  0  0  0  0  0  0  0  0
  186.7480  178.2350  145.3000 C   0  0  0  0  0  0  0  0  0  0  0  0
  187.5030  178.1940  146.4820 C   0  0  0  0  0  0  0  0  0  0  0  0
  189.5230  177.9520  145.1530 C   0  0  0  0  0  0  0  0  0  0  0  0
  183.4560  179.1970  141.4210 C   0  0  0  0  0  2  0  0  0  0  0  0
  184.6090  178.4110  144.1370 C   0  0  0  0  0  0  0  0  0  0  0  0
  184.6360  178.2650  141.5470 C   0  0  0  0  0  2  0  0  0  0  0  0
  182.2550  178.4700  141.9810 C   0  0  2  0  0  3  0  0  0  0  0  0
  189.6290  178.0110  147.5600 N   0  0  0  0  0  0  0  0  0  0  0  0
  188.9040  178.0500  146.4100 C   0  0  0  0  0  0  0  0  0  0  0  0
  186.6830  178.1670  142.8790 C   0  0  0  0  0  3  0  0  0  0  0  0
  188.7650  177.9920  144.0240 N   0  0  0  0  0  0  0  0  0  0  0  0
  180.9770  178.9740  141.3290 C   0  0  0  0  0  2  0  0  0  0  0  0
  179.9740  177.8740  141.1800 C   0  0  0  0  0  0  0  0  0  0  0  0
  178.9460  177.8810  141.8360 O   0  0  0  0  0  0  0  0  0  0  0  0
  180.2490  176.7470  140.2460 C   0  0  0  0  0  1  0  0  0  0  0  0
  191.0020  177.7660  145.0320 C   0  0  0  0  0  2  0  0  0  0  0  0
  191.8620  175.4740  145.6360 C   0  0  0  0  0  0  0  0  0  0  0  0
  191.2040  175.6320  143.5160 C   0  0  0  0  0  0  0  0  0  0  0  0
  191.6280  174.4150  143.5940 N   0  0  0  0  0  0  0  0  0  0  0  0
  192.0940  174.1640  144.9550 C   0  0  0  0  0  2  0  0  0  0  0  0
  190.7070  176.1670  142.3750 F   0  0  0  0  0  0  0  0  0  0  0  0
  191.3280  176.3280  144.7790 C   0  0  0  0  0  0  0  0  0  0  0  0
  192.2030  175.7610  147.0030 C   0  0  0  0  0  0  0  0  0  0  0  0
  192.4890  176.0010  148.1500 C   0  0  0  0  0  3  0  0  0  0  0  0
  1  7  2  0  0  0  0
  2  9  1  0  0  0  0
  4  3  1  0  0  0  0
  5 13  1  0  0  0  0
  8  3  2  0  0  0  0
  9  6  1  0  0  0  0
  9 10  2  0  0  0  0
 10  8  1  0  0  0  0
 11 17  2  0  0  0  0
 12 14  1  0  0  0  0
 12 15  1  0  0  0  0
 13  7  1  0  0  0  0
 13  6  2  0  0  0  0
 14  5  1  0  0  0  0
 15 20  1  6  0  0  0
 15  1  1  0  0  0  0
 16  4  2  0  0  0  0
 17 10  1  0  0  0  0
 17 16  1  0  0  0  0
 18  5  2  0  0  0  0
 18  2  1  0  0  0  0
 19  2  2  0  0  0  0
 19 11  1  0  0  0  0
 21 20  1  0  0  0  0
 21 22  2  0  0  0  0
 23 21  1  0  0  0  0
 24 11  1  0  0  0  0
 25 31  1  0  0  0  0
 26 27  2  0  0  0  0
 26 30  1  0  0  0  0
 27 28  1  0  0  0  0
 28 25  1  0  0  0  0
 29 26  1  0  0  0  0
 30 24  1  0  0  0  0
 30 25  2  0  0  0  0
 31 32  3  0  0  0  0
M  END
>  <MODEL>
5

>  <REMARK>
 VINA RESULT:      -8.6      4.014      8.690
  Name = 
  5 active torsions:
  status: ('A' for Active; 'I' for Inactive)
    1  A    between atoms: C_1  and  C_10
    2  A    between atoms: C_6  and  C_7
    3  A    between atoms: C_10  and  C_24
    4  A    between atoms: C_16  and  C_27
    5  A    between atoms: C_27  and  C_32
                            x       y       z     vdW  Elec       q    Type
                         _______ _______ _______ _____ _____    ______ ____

>  <TORSDO>
F 5

$$$$
=
 OpenBabel11052416533D

 32 36  0  0  1  0  0  0  0  0999 V2000
  180.5220  179.8720  142.5820 C   0  0  0  0  0  3  0  0  0  0  0  0
  185.4020  177.8430  143.1990 C   0  0  0  0  0  0  0  0  0  0  0  0
  186.0530  178.8240  147.8430 C   0  0  0  0  0  3  0  0  0  0  0  0
  187.3200  178.2420  147.7760 C   0  0  0  0  0  3  0  0  0  0  0  0
  183.3450  178.4500  142.0500 C   0  0  0  0  0  0  0  0  0  0  0  0
  183.6290  178.9650  144.4090 C   0  0  0  0  0  3  0  0  0  0  0  0
  181.5290  179.6840  143.4410 C   0  0  0  0  0  3  0  0  0  0  0  0
  185.2760  178.8670  146.7290 N   0  0  0  0  0  0  0  0  0  0  0  0
  184.9050  178.3920  144.3950 C   0  0  0  0  0  0  0  0  0  0  0  0
  185.7070  178.3500  145.5450 C   0  0  0  0  0  0  0  0  0  0  0  0
  187.4390  177.2260  144.2630 C   0  0  0  0  0  0  0  0  0  0  0  0
  181.7480  179.5560  140.4590 C   0  0  0  0  0  2  0  0  0  0  0  0
  182.8310  178.9990  143.2590 C   0  0  0  0  0  0  0  0  0  0  0  0
  182.5950  178.3430  140.7600 C   0  0  0  0  0  2  0  0  0  0  0  0
  180.4350  179.3700  141.1820 C   0  0  2  0  0  3  0  0  0  0  0  0
  187.7600  177.7240  146.6000 N   0  0  0  0  0  0  0  0  0  0  0  0
  186.9870  177.7610  145.4800 C   0  0  0  0  0  0  0  0  0  0  0  0
  184.6190  177.8710  142.0460 C   0  0  0  0  0  3  0  0  0  0  0  0
  186.6380  177.2790  143.1650 N   0  0  0  0  0  0  0  0  0  0  0  0
  179.3200  180.1110  140.4600 C   0  0  0  0  0  2  0  0  0  0  0  0
  179.2250  179.6880  139.0290 C   0  0  0  0  0  0  0  0  0  0  0  0
  179.3610  180.5040  138.1320 O   0  0  0  0  0  0  0  0  0  0  0  0
  178.9310  178.2660  138.6980 C   0  0  0  0  0  1  0  0  0  0  0  0
  188.7760  176.5640  144.1580 C   0  0  0  0  0  2  0  0  0  0  0  0
  190.8800  177.7800  144.8290 C   0  0  0  0  0  0  0  0  0  0  0  0
  189.9260  178.6220  143.0040 C   0  0  0  0  0  0  0  0  0  0  0  0
  190.9420  179.3990  143.1800 N   0  0  0  0  0  0  0  0  0  0  0  0
  191.6770  178.9540  144.3620 C   0  0  0  0  0  2  0  0  0  0  0  0
  189.0470  178.7790  141.9850 F   0  0  0  0  0  0  0  0  0  0  0  0
  189.8560  177.5880  144.0150 C   0  0  0  0  0  0  0  0  0  0  0  0
  191.1720  177.0050  146.0050 C   0  0  0  0  0  0  0  0  0  0  0  0
  191.4160  176.3550  146.9920 C   0  0  0  0  0  3  0  0  0  0  0  0
  1  7  2  0  0  0  0
  2  9  1  0  0  0  0
  4  3  1  0  0  0  0
  5 13  1  0  0  0  0
  8  3  2  0  0  0  0
  9  6  1  0  0  0  0
  9 10  2  0  0  0  0
 10  8  1  0  0  0  0
 11 17  2  0  0  0  0
 12 14  1  0  0  0  0
 12 15  1  0  0  0  0
 13  7  1  0  0  0  0
 13  6  2  0  0  0  0
 14  5  1  0  0  0  0
 15 20  1  6  0  0  0
 15  1  1  0  0  0  0
 16  4  2  0  0  0  0
 17 10  1  0  0  0  0
 17 16  1  0  0  0  0
 18  5  2  0  0  0  0
 18  2  1  0  0  0  0
 19  2  2  0  0  0  0
 19 11  1  0  0  0  0
 21 20  1  0  0  0  0
 22 21  2  0  0  0  0
 23 21  1  0  0  0  0
 24 11  1  0  0  0  0
 25 31  1  0  0  0  0
 26 27  2  0  0  0  0
 26 30  1  0  0  0  0
 27 28  1  0  0  0  0
 28 25  1  0  0  0  0
 29 26  1  0  0  0  0
 30 24  1  0  0  0  0
 30 25  2  0  0  0  0
 31 32  3  0  0  0  0
M  END
>  <MODEL>
6

>  <REMARK>
 VINA RESULT:      -8.4      3.778      8.591
  Name = 
  5 active torsions:
  status: ('A' for Active; 'I' for Inactive)
    1  A    between atoms: C_1  and  C_10
    2  A    between atoms: C_6  and  C_7
    3  A    between atoms: C_10  and  C_24
    4  A    between atoms: C_16  and  C_27
    5  A    between atoms: C_27  and  C_32
                            x       y       z     vdW  Elec       q    Type
                         _______ _______ _______ _____ _____    ______ ____

>  <TORSDO>
F 5

$$$$
=
 OpenBabel11052416533D

 32 36  0  0  1  0  0  0  0  0999 V2000
  181.6660  179.3100  143.4710 C   0  0  0  0  0  3  0  0  0  0  0  0
  186.6840  177.6760  144.1420 C   0  0  0  0  0  0  0  0  0  0  0  0
  187.1770  178.6260  148.8130 C   0  0  0  0  0  3  0  0  0  0  0  0
  188.4870  178.1500  148.7590 C   0  0  0  0  0  3  0  0  0  0  0  0
  184.6040  178.1330  142.9670 C   0  0  0  0  0  0  0  0  0  0  0  0
  184.8060  178.6290  145.3380 C   0  0  0  0  0  3  0  0  0  0  0  0
  182.6700  179.1900  144.3450 C   0  0  0  0  0  3  0  0  0  0  0  0
  186.4160  178.6240  147.6860 N   0  0  0  0  0  0  0  0  0  0  0  0
  186.1250  178.1620  145.3380 C   0  0  0  0  0  0  0  0  0  0  0  0
  186.9090  178.1660  146.5010 C   0  0  0  0  0  0  0  0  0  0  0  0
  188.7470  177.2090  145.2330 C   0  0  0  0  0  0  0  0  0  0  0  0
  182.9480  179.1320  141.3650 C   0  0  0  0  0  2  0  0  0  0  0  0
  184.0260  178.6170  144.1750 C   0  0  0  0  0  0  0  0  0  0  0  0
  183.8860  177.9880  141.6620 C   0  0  0  0  0  2  0  0  0  0  0  0
  181.6430  178.8270  142.0620 C   0  0  2  0  0  3  0  0  0  0  0  0
  188.9880  177.6910  147.5820 N   0  0  0  0  0  0  0  0  0  0  0  0
  188.2330  177.6840  146.4500 C   0  0  0  0  0  0  0  0  0  0  0  0
  185.9210  177.6600  142.9760 C   0  0  0  0  0  3  0  0  0  0  0  0
  187.9630  177.2160  144.1210 N   0  0  0  0  0  0  0  0  0  0  0  0
  180.4830  179.4870  141.3320 C   0  0  0  0  0  2  0  0  0  0  0  0
  180.2440  178.8470  140.0020 C   0  0  0  0  0  0  0  0  0  0  0  0
  180.2560  179.5160  138.9820 O   0  0  0  0  0  0  0  0  0  0  0  0
  179.9570  177.3870  139.9270 C   0  0  0  0  0  1  0  0  0  0  0  0
  190.1360  176.6600  145.1410 C   0  0  0  0  0  2  0  0  0  0  0  0
  191.2010  177.8100  143.1660 C   0  0  0  0  0  0  0  0  0  0  0  0
  190.5300  175.7370  142.7150 C   0  0  0  0  0  0  0  0  0  0  0  0
  191.0010  176.1370  141.5820 N   0  0  0  0  0  0  0  0  0  0  0  0
  191.4910  177.5050  141.7320 C   0  0  0  0  0  3  0  0  0  0  0  0
  189.9970  174.5040  142.8980 F   0  0  0  0  0  0  0  0  0  0  0  0
  190.6430  176.7560  143.7370 C   0  0  2  0  0  3  0  0  0  0  0  0
  191.4620  179.0710  143.8070 C   0  0  0  0  0  0  0  0  0  0  0  0
  191.6800  180.1280  144.3440 C   0  0  0  0  0  3  0  0  0  0  0  0
  1  7  2  0  0  0  0
  2  9  1  0  0  0  0
  4  3  1  0  0  0  0
  5 18  2  0  0  0  0
  5 13  1  0  0  0  0
  8  3  2  0  0  0  0
  9  6  1  0  0  0  0
  9 10  2  0  0  0  0
 10  8  1  0  0  0  0
 11 17  2  0  0  0  0
 12 14  1  0  0  0  0
 12 15  1  0  0  0  0
 13  7  1  0  0  0  0
 13  6  2  0  0  0  0
 14  5  1  0  0  0  0
 15 20  1  6  0  0  0
 15  1  1  0  0  0  0
 16  4  2  0  0  0  0
 17 10  1  0  0  0  0
 17 16  1  0  0  0  0
 18  2  1  0  0  0  0
 19  2  2  0  0  0  0
 19 11  1  0  0  0  0
 21 20  1  0  0  0  0
 22 21  2  0  0  0  0
 23 21  1  0  0  0  0
 24 11  1  0  0  0  0
 25 30  1  0  0  0  0
 25 31  1  0  0  0  0
 26 29  1  0  0  0  0
 26 30  1  0  0  0  0
 27 28  1  0  0  0  0
 27 26  2  0  0  0  0
 28 25  2  0  0  0  0
 30 24  1  6  0  0  0
 31 32  3  0  0  0  0
M  END
>  <MODEL>
7

>  <REMARK>
 VINA RESULT:      -8.4      4.041      8.275
  Name = 
  5 active torsions:
  status: ('A' for Active; 'I' for Inactive)
    1  A    between atoms: C_1  and  C_10
    2  A    between atoms: C_6  and  C_7
    3  A    between atoms: C_10  and  C_24
    4  A    between atoms: C_16  and  C_27
    5  A    between atoms: C_27  and  C_32
                            x       y       z     vdW  Elec       q    Type
                         _______ _______ _______ _____ _____    ______ ____

>  <TORSDO>
F 5

$$$$
=
 OpenBabel11052416533D

 32 36  0  0  1  0  0  0  0  0999 V2000
  189.8990  176.9090  145.2120 C   0  0  0  0  0  3  0  0  0  0  0  0
  185.8000  178.4000  142.1670 C   0  0  0  0  0  0  0  0  0  0  0  0
  187.9040  178.1270  137.8700 C   0  0  0  0  0  3  0  0  0  0  0  0
  186.7120  178.5420  137.2740 C   0  0  0  0  0  3  0  0  0  0  0  0
  187.0080  177.8610  144.2080 C   0  0  0  0  0  0  0  0  0  0  0  0
  188.1170  177.7040  142.0490 C   0  0  0  0  0  3  0  0  0  0  0  0
  189.5000  177.1610  143.9620 C   0  0  0  0  0  3  0  0  0  0  0  0
  187.9650  177.9930  139.2210 N   0  0  0  0  0  0  0  0  0  0  0  0
  186.9470  178.1160  141.4030 C   0  0  0  0  0  0  0  0  0  0  0  0
  186.8850  178.2560  140.0080 C   0  0  0  0  0  0  0  0  0  0  0  0
  184.5640  178.9460  140.2070 C   0  0  0  0  0  0  0  0  0  0  0  0
  188.1190  178.1000  146.4470 C   0  0  0  0  0  2  0  0  0  0  0  0
  188.1710  177.5610  143.4420 C   0  0  0  0  0  0  0  0  0  0  0  0
  186.8810  177.6910  145.6880 C   0  0  0  0  0  2  0  0  0  0  0  0
  189.0550  176.9140  146.4400 C   0  0  2  0  0  3  0  0  0  0  0  0
  185.6290  178.8070  138.0500 N   0  0  0  0  0  0  0  0  0  0  0  0
  185.6820  178.6740  139.4030 C   0  0  0  0  0  0  0  0  0  0  0  0
  185.8390  178.2640  143.5530 C   0  0  0  0  0  3  0  0  0  0  0  0
  184.6530  178.8000  141.5570 N   0  0  0  0  0  0  0  0  0  0  0  0
  189.9600  176.9440  147.6620 C   0  0  0  0  0  2  0  0  0  0  0  0
  191.3670  176.5830  147.3040 C   0  0  0  0  0  0  0  0  0  0  0  0
  192.0560  177.3500  146.6510 O   0  0  0  0  0  0  0  0  0  0  0  0
  191.9190  175.2640  147.7210 C   0  0  0  0  0  1  0  0  0  0  0  0
  183.2590  179.3610  139.6040 C   0  0  0  0  0  2  0  0  0  0  0  0
  181.3960  177.9410  140.5360 C   0  0  0  0  0  0  0  0  0  0  0  0
  182.2360  177.1460  138.6350 C   0  0  0  0  0  0  0  0  0  0  0  0
  181.3420  176.2670  138.9430 N   0  0  0  0  0  0  0  0  0  0  0  0
  180.6950  176.6680  140.1880 C   0  0  0  0  0  2  0  0  0  0  0  0
  183.0110  177.0530  137.5270 F   0  0  0  0  0  0  0  0  0  0  0  0
  182.2960  178.2170  139.6070 C   0  0  0  0  0  0  0  0  0  0  0  0
  181.1460  178.7200  141.7190 C   0  0  0  0  0  0  0  0  0  0  0  0
  180.9380  179.3730  142.7110 C   0  0  0  0  0  3  0  0  0  0  0  0
  1 15  1  0  0  0  0
  2 18  1  0  0  0  0
  3  8  1  0  0  0  0
  4  3  2  0  0  0  0
  4 16  1  0  0  0  0
  5 14  1  0  0  0  0
  6 13  2  0  0  0  0
  7  1  2  0  0  0  0
  8 10  2  0  0  0  0
  9  6  1  0  0  0  0
  9  2  2  0  0  0  0
 10  9  1  0  0  0  0
 11 19  2  0  0  0  0
 13  7  1  0  0  0  0
 13  5  1  0  0  0  0
 14 12  1  0  0  0  0
 15 12  1  0  0  0  0
 15 20  1  1  0  0  0
 16 17  2  0  0  0  0
 17 10  1  0  0  0  0
 17 11  1  0  0  0  0
 18  5  2  0  0  0  0
 19  2  1  0  0  0  0
 21 20  1  0  0  0  0
 21 23  1  0  0  0  0
 22 21  2  0  0  0  0
 24 30  1  0  0  0  0
 24 11  1  0  0  0  0
 25 31  1  0  0  0  0
 26 27  2  0  0  0  0
 26 30  1  0  0  0  0
 27 28  1  0  0  0  0
 28 25  1  0  0  0  0
 29 26  1  0  0  0  0
 30 25  2  0  0  0  0
 31 32  3  0  0  0  0
M  END
>  <MODEL>
8

>  <REMARK>
 VINA RESULT:      -8.3      1.670      3.735
  Name = 
  5 active torsions:
  status: ('A' for Active; 'I' for Inactive)
    1  A    between atoms: C_1  and  C_10
    2  A    between atoms: C_6  and  C_7
    3  A    between atoms: C_10  and  C_24
    4  A    between atoms: C_16  and  C_27
    5  A    between atoms: C_27  and  C_32
                            x       y       z     vdW  Elec       q    Type
                         _______ _______ _______ _____ _____    ______ ____

>  <TORSDO>
F 5

$$$$
=
 OpenBabel11052416533D

 32 36  0  0  1  0  0  0  0  0999 V2000
  187.2850  178.2630  145.7090 C   0  0  0  0  0  3  0  0  0  0  0  0
  183.5890  178.2810  141.8830 C   0  0  0  0  0  0  0  0  0  0  0  0
  179.7250  179.2100  144.5600 C   0  0  0  0  0  3  0  0  0  0  0  0
  178.9330  179.1640  143.4120 C   0  0  0  0  0  3  0  0  0  0  0  0
  185.8040  178.0960  142.8720 C   0  0  0  0  0  0  0  0  0  0  0  0
  183.8720  178.5730  144.2700 C   0  0  0  0  0  3  0  0  0  0  0  0
  185.9810  178.3920  145.4480 C   0  0  0  0  0  3  0  0  0  0  0  0
  181.0650  179.0030  144.4590 N   0  0  0  0  0  0  0  0  0  0  0  0
  183.0350  178.5370  143.1500 C   0  0  0  0  0  0  0  0  0  0  0  0
  181.6530  178.7500  143.2560 C   0  0  0  0  0  0  0  0  0  0  0  0
  181.4490  178.4450  140.8540 C   0  0  0  0  0  0  0  0  0  0  0  0
  187.9980  177.1370  143.6270 C   0  0  0  0  0  2  0  0  0  0  0  0
  185.2530  178.3650  144.1580 C   0  0  0  0  0  0  0  0  0  0  0  0
  187.2590  177.9250  142.5730 C   0  0  0  0  0  2  0  0  0  0  0  0
  188.3860  178.1090  144.7170 C   0  0  2  0  0  3  0  0  0  0  0  0
  179.5100  178.9120  142.2080 N   0  0  0  0  0  0  0  0  0  0  0  0
  180.8500  178.7040  142.0970 C   0  0  0  0  0  0  0  0  0  0  0  0
  184.9600  178.0710  141.7550 C   0  0  0  0  0  3  0  0  0  0  0  0
  182.7930  178.2450  140.7820 N   0  0  0  0  0  0  0  0  0  0  0  0
  189.6370  177.6300  145.4360 C   0  0  0  0  0  2  0  0  0  0  0  0
  190.8440  177.7430  144.5600 C   0  0  0  0  0  0  0  0  0  0  0  0
  191.5560  176.7720  144.3600 O   0  0  0  0  0  0  0  0  0  0  0  0
  191.1950  179.0570  143.9540 C   0  0  0  0  0  1  0  0  0  0  0  0
  180.6400  178.4200  139.5970 C   0  0  0  0  0  2  0  0  0  0  0  0
  181.2580  179.8480  137.6120 C   0  0  0  0  0  0  0  0  0  0  0  0
  180.5780  181.0340  139.3680 C   0  0  0  0  0  0  0  0  0  0  0  0
  180.8680  181.9460  138.5010 N   0  0  0  0  0  0  0  0  0  0  0  0
  181.3320  181.3020  137.2760 C   0  0  0  0  0  3  0  0  0  0  0  0
  180.1190  181.3180  140.6110 F   0  0  0  0  0  0  0  0  0  0  0  0
  180.8030  179.7030  138.8460 C   0  0  2  0  0  3  0  0  0  0  0  0
  181.6550  178.7790  136.7350 C   0  0  0  0  0  0  0  0  0  0  0  0
  181.9880  177.8850  135.9980 C   0  0  0  0  0  3  0  0  0  0  0  0
  2  9  1  0  0  0  0
  4  3  2  0  0  0  0
  5 13  2  0  0  0  0
  7  1  2  0  0  0  0
  8  3  1  0  0  0  0
  9 10  1  0  0  0  0
  9  6  2  0  0  0  0
 10  8  2  0  0  0  0
 11 17  1  0  0  0  0
 12 15  1  0  0  0  0
 13  6  1  0  0  0  0
 13  7  1  0  0  0  0
 14  5  1  0  0  0  0
 14 12  1  0  0  0  0
 15 20  1  1  0  0  0
 15  1  1  0  0  0  0
 16  4  1  0  0  0  0
 17 16  2  0  0  0  0
 17 10  1  0  0  0  0
 18  2  2  0  0  0  0
 18  5  1  0  0  0  0
 19 11  2  0  0  0  0
 19  2  1  0  0  0  0
 21 20  1  0  0  0  0
 22 21  2  0  0  0  0
 23 21  1  0  0  0  0
 24 11  1  0  0  0  0
 25 30  1  0  0  0  0
 26 29  1  0  0  0  0
 27 26  2  0  0  0  0
 28 25  2  0  0  0  0
 28 27  1  0  0  0  0
 30 26  1  0  0  0  0
 30 24  1  1  0  0  0
 31 25  1  0  0  0  0
 32 31  3  0  0  0  0
M  END
>  <MODEL>
9

>  <REMARK>
 VINA RESULT:      -8.3      2.458      3.328
  Name = 
  5 active torsions:
  status: ('A' for Active; 'I' for Inactive)
    1  A    between atoms: C_1  and  C_10
    2  A    between atoms: C_6  and  C_7
    3  A    between atoms: C_10  and  C_24
    4  A    between atoms: C_16  and  C_27
    5  A    between atoms: C_27  and  C_32
                            x       y       z     vdW  Elec       q    Type
                         _______ _______ _______ _____ _____    ______ ____

>  <TORSDO>
F 5

$$$$
