=
 OpenBabel11052415213D

 37 42  0  0  1  0  0  0  0  0999 V2000
  180.8140  178.2040  137.7460 C   0  0  2  0  0  3  0  0  0  0  0  0
  181.3390  177.6470  139.1080 C   0  0  1  0  0  0  0  0  0  0  0  0
  180.0480  177.6250  135.3720 C   0  0  1  0  0  3  0  0  0  0  0  0
  181.4850  178.6860  140.2520 C   0  0  1  0  0  0  0  0  0  0  0  0
  182.2440  180.6210  139.2860 C   0  0  0  0  0  2  0  0  0  0  0  0
  179.1990  178.7070  135.6180 O   0  0  0  0  0  0  0  0  0  0  0  0
  180.8250  180.3220  136.3530 C   0  0  0  0  0  0  0  0  0  0  0  0
  180.6610  177.1190  136.6740 C   0  0  0  0  0  2  0  0  0  0  0  0
  181.0460  181.5600  136.4190 O   0  0  0  0  0  0  0  0  0  0  0  0
  181.1300  180.0050  139.8970 O   0  0  0  0  0  0  0  0  0  0  0  0
  181.4960  179.4230  137.2640 N   0  0  0  0  0  0  0  0  0  0  0  0
  180.3080  177.6920  140.2600 C   0  0  1  0  0  0  0  0  0  0  0  0
  182.6650  179.9340  137.9790 C   0  0  0  0  0  2  0  0  0  0  0  0
  179.9470  179.8260  135.2390 C   0  0  0  0  0  2  0  0  0  0  0  0
  178.9310  178.2620  139.9160 C   0  0  0  0  0  1  0  0  0  0  0  0
  183.8400  178.3130  141.1320 C   0  0  0  0  0  3  0  0  0  0  0  0
  182.4800  178.5410  141.3880 C   0  0  0  0  0  0  0  0  0  0  0  0
  182.0660  178.7750  142.7070 C   0  0  0  0  0  3  0  0  0  0  0  0
  182.5700  178.9260  145.0320 F   0  0  0  0  0  0  0  0  0  0  0  0
  184.3320  178.4570  143.4960 C   0  0  0  0  0  3  0  0  0  0  0  0
  182.9850  178.7180  143.7600 C   0  0  0  0  0  0  0  0  0  0  0  0
  184.7600  178.2600  142.1810 C   0  0  0  0  0  3  0  0  0  0  0  0
  183.7820  174.9540  137.0250 C   0  0  0  0  0  2  0  0  0  0  0  0
  183.7440  176.9250  138.5420 C   0  0  0  0  0  2  0  0  0  0  0  0
  182.4630  174.5140  137.5920 C   0  0  0  0  0  3  0  0  0  0  0  0
  181.8410  175.2030  138.5590 C   0  0  0  0  0  3  0  0  0  0  0  0
  182.3820  176.5010  139.1230 C   0  0  2  0  0  3  0  0  0  0  0  0
  183.9160  176.4790  137.0920 C   0  0  1  0  0  3  0  0  0  0  0  0
  185.2250  177.0320  136.5090 C   0  0  0  0  0  0  0  0  0  0  0  0
  186.5210  176.5610  137.1330 C   0  0  0  0  0  2  0  0  0  0  0  0
  185.3210  177.2840  135.0170 C   0  0  0  0  0  1  0  0  0  0  0  0
  186.0270  177.9870  137.3680 C   0  0  0  0  0  2  0  0  0  0  0  0
  179.5990  175.2850  135.2740 O   0  0  0  0  0  1  0  0  0  0  0  0
  179.2830  176.5090  134.6850 C   0  0  0  0  0  2  0  0  0  0  0  0
  180.3440  176.5040  141.2310 C   0  0  0  0  0  2  0  0  0  0  0  0
  179.1720  174.5180  141.9840 N   0  0  0  0  0  1  0  0  0  0  0  0
  179.2680  175.4830  140.9040 C   0  0  0  0  0  2  0  0  0  0  0  0
  1  8  1  6  0  0  0
  1  2  1  0  0  0  0
  2 27  1  6  0  0  0
  2  4  1  0  0  0  0
  2 12  1  0  0  0  0
  3 34  1  1  0  0  0
  3  6  1  0  0  0  0
  3  8  1  0  0  0  0
  4 12  1  0  0  0  0
  4 17  1  1  0  0  0
  5 10  1  0  0  0  0
  7  9  2  0  0  0  0
  7 11  1  0  0  0  0
 10  4  1  0  0  0  0
 11  1  1  0  0  0  0
 11 13  1  0  0  0  0
 12 15  1  6  0  0  0
 12 35  1  0  0  0  0
 13  5  1  0  0  0  0
 14  6  1  0  0  0  0
 14  7  1  0  0  0  0
 16 17  2  0  0  0  0
 16 22  1  0  0  0  0
 17 18  1  0  0  0  0
 18 21  2  0  0  0  0
 20 21  1  0  0  0  0
 21 19  1  0  0  0  0
 22 20  2  0  0  0  0
 23 28  1  0  0  0  0
 23 25  1  0  0  0  0
 25 26  2  0  0  0  0
 26 27  1  0  0  0  0
 27 24  1  6  0  0  0
 28 29  1  1  0  0  0
 28 24  1  0  0  0  0
 29 30  1  0  0  0  0
 29 32  1  0  0  0  0
 30 32  1  0  0  0  0
 31 29  1  0  0  0  0
 34 33  1  0  0  0  0
 37 35  1  0  0  0  0
 37 36  1  0  0  0  0
M  END
>  <MODEL>
1

>  <REMARK>
 VINA RESULT:      -5.0      0.000      0.000
  Name = 
  6 active torsions:
  status: ('A' for Active; 'I' for Inactive)
    1  A    between atoms: C_3  and  C_30
    2  A    between atoms: C_4  and  C_28
    3  A    between atoms: C_5  and  C_23
    4  A    between atoms: C_6  and  C_7
    5  A    between atoms: C_14  and  C_31
    6  A    between atoms: C_14  and  C_37
                            x       y       z     vdW  Elec       q    Type
                         _______ _______ _______ _____ _____    ______ ____

>  <TORSDO>
F 6

$$$$
=
 OpenBabel11052415213D

 37 42  0  0  1  0  0  0  0  0999 V2000
  182.2520  178.1240  140.5520 C   0  0  2  0  0  3  0  0  0  0  0  0
  181.0420  177.6880  139.6640 C   0  0  1  0  0  0  0  0  0  0  0  0
  182.9940  179.0140  142.8350 C   0  0  1  0  0  3  0  0  0  0  0  0
  181.4040  177.0790  138.2820 C   0  0  1  0  0  0  0  0  0  0  0  0
  183.2050  178.2590  137.4960 C   0  0  0  0  0  2  0  0  0  0  0  0
  184.0860  178.1880  142.5570 O   0  0  0  0  0  0  0  0  0  0  0  0
  184.6280  178.9850  140.3510 C   0  0  0  0  0  0  0  0  0  0  0  0
  181.8250  178.6840  141.9130 C   0  0  0  0  0  2  0  0  0  0  0  0
  185.5820  179.1060  139.5380 O   0  0  0  0  0  0  0  0  0  0  0  0
  182.7870  177.0120  138.0120 O   0  0  0  0  0  0  0  0  0  0  0  0
  183.2680  178.9480  139.8640 N   0  0  0  0  0  0  0  0  0  0  0  0
  180.9350  176.1630  139.4290 C   0  0  1  0  0  0  0  0  0  0  0  0
  183.0280  179.4090  138.4980 C   0  0  0  0  0  2  0  0  0  0  0  0
  184.9530  178.9990  141.8180 C   0  0  0  0  0  2  0  0  0  0  0  0
  182.0080  175.2980  140.0930 C   0  0  0  0  0  1  0  0  0  0  0  0
  180.1000  178.3810  136.5320 C   0  0  0  0  0  3  0  0  0  0  0  0
  180.4870  177.1480  137.0750 C   0  0  0  0  0  0  0  0  0  0  0  0
  180.1300  175.9670  136.4070 C   0  0  0  0  0  3  0  0  0  0  0  0
  178.9910  174.8700  134.6240 F   0  0  0  0  0  0  0  0  0  0  0  0
  178.9380  177.2510  134.7360 C   0  0  0  0  0  3  0  0  0  0  0  0
  179.3470  176.0170  135.2500 C   0  0  0  0  0  0  0  0  0  0  0  0
  179.3200  178.4330  135.3740 C   0  0  0  0  0  3  0  0  0  0  0  0
  178.9950  181.2100  140.6460 C   0  0  0  0  0  2  0  0  0  0  0  0
  179.7660  179.7450  138.7890 C   0  0  0  0  0  2  0  0  0  0  0  0
  178.9310  180.0080  141.5450 C   0  0  0  0  0  3  0  0  0  0  0  0
  179.2390  178.7780  141.1070 C   0  0  0  0  0  3  0  0  0  0  0  0
  179.7250  178.5040  139.6990 C   0  0  2  0  0  3  0  0  0  0  0  0
  180.0700  181.0220  139.5700 C   0  0  1  0  0  3  0  0  0  0  0  0
  180.2320  182.2130  138.6140 C   0  0  0  0  0  0  0  0  0  0  0  0
  180.7840  181.9310  137.2330 C   0  0  0  0  0  2  0  0  0  0  0  0
  179.2060  183.3300  138.6440 C   0  0  0  0  0  1  0  0  0  0  0  0
  181.6400  182.6520  138.2730 C   0  0  0  0  0  2  0  0  0  0  0  0
  183.6470  179.1770  145.1230 O   0  0  0  0  0  1  0  0  0  0  0  0
  182.5780  178.8550  144.2860 C   0  0  0  0  0  2  0  0  0  0  0  0
  179.5100  175.5950  139.3930 C   0  0  0  0  0  2  0  0  0  0  0  0
  178.9860  175.0760  141.7040 N   0  0  0  0  0  1  0  0  0  0  0  0
  179.3230  174.4900  140.4200 C   0  0  0  0  0  2  0  0  0  0  0  0
  1  8  1  1  0  0  0
  2 27  1  1  0  0  0
  2  1  1  0  0  0  0
  3 34  1  1  0  0  0
  4 17  1  6  0  0  0
  4 12  1  0  0  0  0
  4  2  1  0  0  0  0
  5 10  1  0  0  0  0
  5 13  1  0  0  0  0
  6  3  1  0  0  0  0
  7 14  1  0  0  0  0
  8  3  1  0  0  0  0
  9  7  2  0  0  0  0
 10  4  1  0  0  0  0
 11  7  1  0  0  0  0
 11  1  1  0  0  0  0
 12  2  1  0  0  0  0
 12 15  1  1  0  0  0
 13 11  1  0  0  0  0
 14  6  1  0  0  0  0
 16 17  1  0  0  0  0
 18 17  2  0  0  0  0
 19 21  1  0  0  0  0
 20 21  2  0  0  0  0
 20 22  1  0  0  0  0
 21 18  1  0  0  0  0
 22 16  2  0  0  0  0
 23 25  1  0  0  0  0
 24 28  1  0  0  0  0
 26 25  2  0  0  0  0
 27 24  1  1  0  0  0
 27 26  1  0  0  0  0
 28 29  1  6  0  0  0
 28 23  1  0  0  0  0
 29 31  1  0  0  0  0
 30 32  1  0  0  0  0
 30 29  1  0  0  0  0
 32 29  1  0  0  0  0
 34 33  1  0  0  0  0
 35 12  1  0  0  0  0
 35 37  1  0  0  0  0
 37 36  1  0  0  0  0
M  END
>  <MODEL>
2

>  <REMARK>
 VINA RESULT:      -4.6      2.984      6.644
  Name = 
  6 active torsions:
  status: ('A' for Active; 'I' for Inactive)
    1  A    between atoms: C_3  and  C_30
    2  A    between atoms: C_4  and  C_28
    3  A    between atoms: C_5  and  C_23
    4  A    between atoms: C_6  and  C_7
    5  A    between atoms: C_14  and  C_31
    6  A    between atoms: C_14  and  C_37
                            x       y       z     vdW  Elec       q    Type
                         _______ _______ _______ _____ _____    ______ ____

>  <TORSDO>
F 6

$$$$
=
 OpenBabel11052415213D

 37 42  0  0  1  0  0  0  0  0999 V2000
  182.0460  177.7630  136.4630 C   0  0  2  0  0  3  0  0  0  0  0  0
  183.3740  177.0940  136.9420 C   0  0  1  0  0  0  0  0  0  0  0  0
  180.4120  179.7050  136.7930 C   0  0  1  0  0  3  0  0  0  0  0  0
  183.8580  175.8780  136.1070 C   0  0  1  0  0  0  0  0  0  0  0  0
  181.9820  174.7060  135.5090 C   0  0  0  0  0  2  0  0  0  0  0  0
  180.3000  179.5590  135.4080 O   0  0  0  0  0  0  0  0  0  0  0  0
  179.8670  177.1930  135.2990 C   0  0  0  0  0  0  0  0  0  0  0  0
  181.6460  178.9760  137.3100 C   0  0  0  0  0  2  0  0  0  0  0  0
  179.3120  176.3100  134.5940 O   0  0  0  0  0  0  0  0  0  0  0  0
  183.0180  175.5350  135.0260 O   0  0  0  0  0  0  0  0  0  0  0  0
  180.9320  176.8270  136.2040 N   0  0  0  0  0  0  0  0  0  0  0  0
  184.5590  177.2420  135.9600 C   0  0  1  0  0  0  0  0  0  0  0  0
  181.0800  175.4100  136.5330 C   0  0  0  0  0  2  0  0  0  0  0  0
  179.3080  178.5870  135.2420 C   0  0  0  0  0  2  0  0  0  0  0  0
  184.2770  178.0170  134.6700 C   0  0  0  0  0  1  0  0  0  0  0  0
  184.1390  173.7620  137.4880 C   0  0  0  0  0  3  0  0  0  0  0  0
  184.7070  174.7580  136.6790 C   0  0  0  0  0  0  0  0  0  0  0  0
  186.0470  174.6330  136.2860 C   0  0  0  0  0  3  0  0  0  0  0  0
  188.1230  173.4640  136.3750 F   0  0  0  0  0  0  0  0  0  0  0  0
  186.2570  172.5960  137.5780 C   0  0  0  0  0  3  0  0  0  0  0  0
  186.8240  173.5650  136.7450 C   0  0  0  0  0  0  0  0  0  0  0  0
  184.9120  172.6920  137.9440 C   0  0  0  0  0  3  0  0  0  0  0  0
  182.7840  178.5180  140.8390 C   0  0  0  0  0  2  0  0  0  0  0  0
  182.4990  176.5790  139.3070 C   0  0  0  0  0  2  0  0  0  0  0  0
  183.9710  178.9590  140.0310 C   0  0  0  0  0  3  0  0  0  0  0  0
  184.4000  178.2680  138.9650 C   0  0  0  0  0  3  0  0  0  0  0  0
  183.7010  177.0240  138.4550 C   0  0  2  0  0  3  0  0  0  0  0  0
  181.7840  177.7610  139.9580 C   0  0  1  0  0  3  0  0  0  0  0  0
  180.5180  177.2900  140.6890 C   0  0  0  0  0  0  0  0  0  0  0  0
  180.1440  175.8280  140.5670 C   0  0  0  0  0  2  0  0  0  0  0  0
  180.1720  177.8980  142.0340 C   0  0  0  0  0  1  0  0  0  0  0  0
  179.3250  176.8960  139.8440 C   0  0  0  0  0  2  0  0  0  0  0  0
  180.7130  181.9370  136.0070 O   0  0  0  0  0  1  0  0  0  0  0  0
  180.4830  181.1780  137.1550 C   0  0  0  0  0  2  0  0  0  0  0  0
  185.9370  177.4450  136.6040 C   0  0  0  0  0  2  0  0  0  0  0  0
  187.5900  179.2190  136.6340 N   0  0  0  0  0  1  0  0  0  0  0  0
  186.8180  178.3520  135.7630 C   0  0  0  0  0  2  0  0  0  0  0  0
  1  2  1  0  0  0  0
  1  8  1  1  0  0  0
  2 27  1  1  0  0  0
  3 34  1  6  0  0  0
  3  8  1  0  0  0  0
  4 17  1  1  0  0  0
  4  2  1  0  0  0  0
  5 13  1  0  0  0  0
  6  3  1  0  0  0  0
  7 11  1  0  0  0  0
  9  7  2  0  0  0  0
 10  5  1  0  0  0  0
 10  4  1  0  0  0  0
 11  1  1  0  0  0  0
 11 13  1  0  0  0  0
 12 15  1  6  0  0  0
 12  4  1  0  0  0  0
 12 35  1  0  0  0  0
 12  2  1  0  0  0  0
 14  7  1  0  0  0  0
 14  6  1  0  0  0  0
 16 22  1  0  0  0  0
 17 16  2  0  0  0  0
 18 17  1  0  0  0  0
 18 21  2  0  0  0  0
 19 21  1  0  0  0  0
 20 22  2  0  0  0  0
 21 20  1  0  0  0  0
 25 23  1  0  0  0  0
 26 25  2  0  0  0  0
 27 26  1  1  0  0  0
 27 24  1  0  0  0  0
 28 24  1  1  0  0  0
 28 29  1  0  0  0  0
 28 23  1  0  0  0  0
 29 31  1  0  0  0  0
 30 29  1  0  0  0  0
 32 30  1  0  0  0  0
 32 29  1  0  0  0  0
 33 34  1  0  0  0  0
 37 35  1  0  0  0  0
 37 36  1  0  0  0  0
M  END
>  <MODEL>
3

>  <REMARK>
 VINA RESULT:      -4.3      2.719      6.324
  Name = 
  6 active torsions:
  status: ('A' for Active; 'I' for Inactive)
    1  A    between atoms: C_3  and  C_30
    2  A    between atoms: C_4  and  C_28
    3  A    between atoms: C_5  and  C_23
    4  A    between atoms: C_6  and  C_7
    5  A    between atoms: C_14  and  C_31
    6  A    between atoms: C_14  and  C_37
                            x       y       z     vdW  Elec       q    Type
                         _______ _______ _______ _____ _____    ______ ____

>  <TORSDO>
F 6

$$$$
=
 OpenBabel11052415213D

 37 42  0  0  1  0  0  0  0  0999 V2000
  182.4310  177.8220  137.5040 C   0  0  2  0  0  3  0  0  0  0  0  0
  182.1770  178.0150  139.0330 C   0  0  1  0  0  0  0  0  0  0  0  0
  181.4770  176.9640  135.2880 C   0  0  1  0  0  3  0  0  0  0  0  0
  183.2700  178.8010  139.8050 C   0  0  1  0  0  0  0  0  0  0  0  0
  185.2850  178.1680  138.9160 C   0  0  0  0  0  2  0  0  0  0  0  0
  182.2060  178.0530  134.8050 O   0  0  0  0  0  0  0  0  0  0  0  0
  184.3300  177.5920  135.8400 C   0  0  0  0  0  0  0  0  0  0  0  0
  181.2970  177.0680  136.7990 C   0  0  0  0  0  2  0  0  0  0  0  0
  185.5690  177.7750  135.7060 O   0  0  0  0  0  0  0  0  0  0  0  0
  184.3570  179.2290  139.0140 O   0  0  0  0  0  0  0  0  0  0  0  0
  183.7790  177.3310  137.1500 N   0  0  0  0  0  0  0  0  0  0  0  0
  181.9290  179.4790  139.4630 C   0  0  1  0  0  0  0  0  0  0  0  0
  184.7090  176.9340  138.2070 C   0  0  0  0  0  2  0  0  0  0  0  0
  183.4910  177.5420  134.5940 C   0  0  0  0  0  2  0  0  0  0  0  0
  181.9600  180.5280  138.3480 C   0  0  0  0  0  1  0  0  0  0  0  0
  184.8430  178.3000  141.7370 C   0  0  0  0  0  3  0  0  0  0  0  0
  183.5520  178.6050  141.2830 C   0  0  0  0  0  0  0  0  0  0  0  0
  182.5440  178.8660  142.2230 C   0  0  0  0  0  3  0  0  0  0  0  0
  181.8210  178.9960  144.4900 F   0  0  0  0  0  0  0  0  0  0  0  0
  184.0890  178.4230  144.0330 C   0  0  0  0  0  3  0  0  0  0  0  0
  182.8070  178.7610  143.5920 C   0  0  0  0  0  0  0  0  0  0  0  0
  185.1090  178.1990  143.1050 C   0  0  0  0  0  3  0  0  0  0  0  0
  179.2930  174.9830  139.2650 C   0  0  0  0  0  2  0  0  0  0  0  0
  181.7280  175.4920  139.2770 C   0  0  0  0  0  2  0  0  0  0  0  0
  179.0230  176.3450  139.8380 C   0  0  0  0  0  3  0  0  0  0  0  0
  180.0130  177.2040  140.1220 C   0  0  0  0  0  3  0  0  0  0  0  0
  181.4720  176.9000  139.8460 C   0  0  2  0  0  3  0  0  0  0  0  0
  180.5680  174.9980  138.4150 C   0  0  1  0  0  3  0  0  0  0  0  0
  180.9160  173.6530  137.7620 C   0  0  0  0  0  0  0  0  0  0  0  0
  179.8120  172.9280  137.0240 C   0  0  0  0  0  2  0  0  0  0  0  0
  182.2890  173.4640  137.1460 C   0  0  0  0  0  1  0  0  0  0  0  0
  180.3140  172.4020  138.3670 C   0  0  0  0  0  2  0  0  0  0  0  0
  179.3080  175.9740  135.2520 O   0  0  0  0  0  1  0  0  0  0  0  0
  180.1240  176.9010  134.6030 C   0  0  0  0  0  2  0  0  0  0  0  0
  180.8910  179.6800  140.5750 C   0  0  0  0  0  2  0  0  0  0  0  0
  179.3870  181.3900  141.4090 N   0  0  0  0  0  1  0  0  0  0  0  0
  179.8740  180.7460  140.2040 C   0  0  0  0  0  2  0  0  0  0  0  0
  1  8  1  1  0  0  0
  1  2  1  0  0  0  0
  2 12  1  0  0  0  0
  2  4  1  0  0  0  0
  2 27  1  1  0  0  0
  3 34  1  6  0  0  0
  3  8  1  0  0  0  0
  4 17  1  1  0  0  0
  5 10  1  0  0  0  0
  6  3  1  0  0  0  0
  7 11  1  0  0  0  0
  9  7  2  0  0  0  0
 10  4  1  0  0  0  0
 11  1  1  0  0  0  0
 11 13  1  0  0  0  0
 12 15  1  6  0  0  0
 12  4  1  0  0  0  0
 12 35  1  0  0  0  0
 13  5  1  0  0  0  0
 14  6  1  0  0  0  0
 14  7  1  0  0  0  0
 16 22  1  0  0  0  0
 17 16  2  0  0  0  0
 17 18  1  0  0  0  0
 18 21  2  0  0  0  0
 21 20  1  0  0  0  0
 21 19  1  0  0  0  0
 22 20  2  0  0  0  0
 23 25  1  0  0  0  0
 25 26  2  0  0  0  0
 27 24  1  6  0  0  0
 27 26  1  0  0  0  0
 28 29  1  1  0  0  0
 28 23  1  0  0  0  0
 28 24  1  0  0  0  0
 29 32  1  0  0  0  0
 30 29  1  0  0  0  0
 30 32  1  0  0  0  0
 31 29  1  0  0  0  0
 34 33  1  0  0  0  0
 37 35  1  0  0  0  0
 37 36  1  0  0  0  0
M  END
>  <MODEL>
4

>  <REMARK>
 VINA RESULT:      -3.8      2.065      3.756
  Name = 
  6 active torsions:
  status: ('A' for Active; 'I' for Inactive)
    1  A    between atoms: C_3  and  C_30
    2  A    between atoms: C_4  and  C_28
    3  A    between atoms: C_5  and  C_23
    4  A    between atoms: C_6  and  C_7
    5  A    between atoms: C_14  and  C_31
    6  A    between atoms: C_14  and  C_37
                            x       y       z     vdW  Elec       q    Type
                         _______ _______ _______ _____ _____    ______ ____

>  <TORSDO>
F 6

$$$$
=
 OpenBabel11052415213D

 37 42  0  0  1  0  0  0  0  0999 V2000
  183.5560  177.2670  137.4770 C   0  0  2  0  0  3  0  0  0  0  0  0
  182.3560  177.4680  138.4570 C   0  0  1  0  0  0  0  0  0  0  0  0
  184.6830  175.6940  135.8010 C   0  0  1  0  0  3  0  0  0  0  0  0
  182.2470  178.8710  139.1120 C   0  0  1  0  0  0  0  0  0  0  0  0
  184.3890  179.5530  139.5600 C   0  0  0  0  0  2  0  0  0  0  0  0
  184.9870  176.9140  135.1930 O   0  0  0  0  0  0  0  0  0  0  0  0
  185.9280  178.0690  137.0840 C   0  0  0  0  0  0  0  0  0  0  0  0
  183.5820  175.8730  136.8410 C   0  0  0  0  0  2  0  0  0  0  0  0
  186.7400  178.9800  137.3960 O   0  0  0  0  0  0  0  0  0  0  0  0
  183.2620  179.7770  138.7370 O   0  0  0  0  0  0  0  0  0  0  0  0
  184.8680  177.7070  137.9960 N   0  0  0  0  0  0  0  0  0  0  0  0
  181.2910  178.4790  137.9690 C   0  0  1  0  0  0  0  0  0  0  0  0
  184.9900  178.1520  139.3840 C   0  0  0  0  0  2  0  0  0  0  0  0
  186.1780  177.3190  135.8060 C   0  0  0  0  0  2  0  0  0  0  0  0
  181.5500  179.1320  136.6100 C   0  0  0  0  0  1  0  0  0  0  0  0
  182.1300  178.5500  141.6310 C   0  0  0  0  0  3  0  0  0  0  0  0
  181.5970  179.1130  140.4620 C   0  0  0  0  0  0  0  0  0  0  0  0
  180.5340  180.0210  140.5680 C   0  0  0  0  0  3  0  0  0  0  0  0
  178.9310  181.1750  141.9020 F   0  0  0  0  0  0  0  0  0  0  0  0
  180.4880  179.7190  142.9690 C   0  0  0  0  0  3  0  0  0  0  0  0
  179.9710  180.3120  141.8140 C   0  0  0  0  0  0  0  0  0  0  0  0
  181.5720  178.8430  142.8780 C   0  0  0  0  0  3  0  0  0  0  0  0
  179.6580  174.3390  139.1570 C   0  0  0  0  0  2  0  0  0  0  0  0
  182.0220  174.9240  138.6490 C   0  0  0  0  0  2  0  0  0  0  0  0
  179.4990  175.6600  139.8540 C   0  0  0  0  0  3  0  0  0  0  0  0
  180.5120  176.5340  139.9570 C   0  0  0  0  0  3  0  0  0  0  0  0
  181.8750  176.2900  139.3410 C   0  0  2  0  0  3  0  0  0  0  0  0
  180.7060  174.4390  138.0440 C   0  0  1  0  0  3  0  0  0  0  0  0
  180.9220  173.1410  137.2520 C   0  0  0  0  0  0  0  0  0  0  0  0
  180.1220  172.9570  135.9800 C   0  0  0  0  0  2  0  0  0  0  0  0
  182.3110  172.5340  137.1930 C   0  0  0  0  0  1  0  0  0  0  0  0
  179.7890  172.1380  137.2250 C   0  0  0  0  0  2  0  0  0  0  0  0
  184.8970  173.4660  134.9780 O   0  0  0  0  0  1  0  0  0  0  0  0
  184.2550  174.6830  134.7530 C   0  0  0  0  0  2  0  0  0  0  0  0
  179.8360  178.1250  138.3030 C   0  0  0  0  0  2  0  0  0  0  0  0
  178.9310  176.9160  136.4060 N   0  0  0  0  0  1  0  0  0  0  0  0
  178.9460  178.2030  137.0740 C   0  0  0  0  0  2  0  0  0  0  0  0
  1  8  1  1  0  0  0
  1 11  1  0  0  0  0
  1  2  1  0  0  0  0
  2  4  1  0  0  0  0
  2 27  1  1  0  0  0
  3 34  1  6  0  0  0
  3  8  1  0  0  0  0
  4 17  1  1  0  0  0
  6  3  1  0  0  0  0
  6 14  1  0  0  0  0
  7  9  2  0  0  0  0
  7 11  1  0  0  0  0
 10  4  1  0  0  0  0
 10  5  1  0  0  0  0
 11 13  1  0  0  0  0
 12 15  1  6  0  0  0
 12 35  1  0  0  0  0
 12  2  1  0  0  0  0
 12  4  1  0  0  0  0
 13  5  1  0  0  0  0
 14  7  1  0  0  0  0
 16 22  1  0  0  0  0
 17 18  1  0  0  0  0
 17 16  2  0  0  0  0
 18 21  2  0  0  0  0
 21 19  1  0  0  0  0
 21 20  1  0  0  0  0
 22 20  2  0  0  0  0
 23 25  1  0  0  0  0
 25 26  2  0  0  0  0
 27 24  1  6  0  0  0
 27 26  1  0  0  0  0
 28 29  1  1  0  0  0
 28 24  1  0  0  0  0
 28 23  1  0  0  0  0
 30 32  1  0  0  0  0
 30 29  1  0  0  0  0
 31 29  1  0  0  0  0
 32 29  1  0  0  0  0
 34 33  1  0  0  0  0
 36 37  1  0  0  0  0
 37 35  1  0  0  0  0
M  END
>  <MODEL>
5

>  <REMARK>
 VINA RESULT:      -2.9      2.601      4.482
  Name = 
  6 active torsions:
  status: ('A' for Active; 'I' for Inactive)
    1  A    between atoms: C_3  and  C_30
    2  A    between atoms: C_4  and  C_28
    3  A    between atoms: C_5  and  C_23
    4  A    between atoms: C_6  and  C_7
    5  A    between atoms: C_14  and  C_31
    6  A    between atoms: C_14  and  C_37
                            x       y       z     vdW  Elec       q    Type
                         _______ _______ _______ _____ _____    ______ ____

>  <TORSDO>
F 6

$$$$
=
 OpenBabel11052415213D

 37 42  0  0  1  0  0  0  0  0999 V2000
  190.4630  176.0800  136.6040 C   0  0  2  0  0  3  0  0  0  0  0  0
  191.8890  175.5830  137.0040 C   0  0  1  0  0  0  0  0  0  0  0  0
  188.6740  177.8810  136.9420 C   0  0  1  0  0  3  0  0  0  0  0  0
  192.4190  174.3520  136.2190 C   0  0  1  0  0  0  0  0  0  0  0  0
  190.6270  172.9620  135.8910 C   0  0  0  0  0  2  0  0  0  0  0  0
  188.4570  177.6080  135.5890 O   0  0  0  0  0  0  0  0  0  0  0  0
  188.2600  175.2120  135.6990 C   0  0  0  0  0  0  0  0  0  0  0  0
  190.0170  177.3170  137.3930 C   0  0  0  0  0  2  0  0  0  0  0  0
  187.7380  174.2240  135.1170 O   0  0  0  0  0  0  0  0  0  0  0  0
  191.5280  173.8420  135.2520 O   0  0  0  0  0  0  0  0  0  0  0  0
  189.4320  175.0250  136.5230 N   0  0  0  0  0  0  0  0  0  0  0  0
  192.9620  175.7590  135.9050 C   0  0  1  0  0  0  0  0  0  0  0  0
  189.7520  173.6610  136.9410 C   0  0  0  0  0  2  0  0  0  0  0  0
  187.5580  176.5370  135.5910 C   0  0  0  0  0  2  0  0  0  0  0  0
  192.4910  176.3940  134.5940 C   0  0  0  0  0  1  0  0  0  0  0  0
  193.5000  172.0540  136.3100 C   0  0  0  0  0  3  0  0  0  0  0  0
  193.4240  173.3700  136.7900 C   0  0  0  0  0  0  0  0  0  0  0  0
  194.3840  173.8150  137.7110 C   0  0  0  0  0  3  0  0  0  0  0  0
  196.2740  173.3760  139.0950 F   0  0  0  0  0  0  0  0  0  0  0  0
  195.4100  171.6220  137.7320 C   0  0  0  0  0  3  0  0  0  0  0  0
  195.3640  172.9410  138.1910 C   0  0  0  0  0  0  0  0  0  0  0  0
  194.4810  171.1810  136.7870 C   0  0  0  0  0  3  0  0  0  0  0  0
  192.1120  177.7190  140.6020 C   0  0  0  0  0  2  0  0  0  0  0  0
  191.1770  175.7080  139.4740 C   0  0  0  0  0  2  0  0  0  0  0  0
  193.2760  177.6890  139.6530 C   0  0  0  0  0  3  0  0  0  0  0  0
  193.3950  176.7460  138.7070 C   0  0  0  0  0  3  0  0  0  0  0  0
  192.3520  175.6710  138.4800 C   0  0  2  0  0  3  0  0  0  0  0  0
  190.8620  177.1280  139.9410 C   0  0  1  0  0  3  0  0  0  0  0  0
  189.6060  177.1380  140.8250 C   0  0  0  0  0  0  0  0  0  0  0  0
  188.2620  177.1280  140.1300 C   0  0  0  0  0  2  0  0  0  0  0  0
  189.6210  176.3780  142.1380 C   0  0  0  0  0  1  0  0  0  0  0  0
  188.7590  178.3930  140.8270 C   0  0  0  0  0  2  0  0  0  0  0  0
  187.3710  179.8750  136.8320 O   0  0  0  0  0  1  0  0  0  0  0  0
  188.6260  179.3780  137.1850 C   0  0  0  0  0  2  0  0  0  0  0  0
  194.3630  176.1450  136.3980 C   0  0  0  0  0  2  0  0  0  0  0  0
  195.4520  178.0370  135.3420 N   0  0  0  0  0  1  0  0  0  0  0  0
  195.2510  176.6030  135.2540 C   0  0  0  0  0  2  0  0  0  0  0  0
  1  2  1  0  0  0  0
  1  8  1  1  0  0  0
  2 27  1  1  0  0  0
  3 34  1  6  0  0  0
  3  8  1  0  0  0  0
  4 17  1  1  0  0  0
  4  2  1  0  0  0  0
  5 13  1  0  0  0  0
  6 14  1  0  0  0  0
  6  3  1  0  0  0  0
  7 11  1  0  0  0  0
  9  7  2  0  0  0  0
 10  5  1  0  0  0  0
 10  4  1  0  0  0  0
 11  1  1  0  0  0  0
 11 13  1  0  0  0  0
 12 15  1  6  0  0  0
 12  4  1  0  0  0  0
 12 35  1  0  0  0  0
 12  2  1  0  0  0  0
 14  7  1  0  0  0  0
 16 22  2  0  0  0  0
 16 17  1  0  0  0  0
 17 18  2  0  0  0  0
 18 21  1  0  0  0  0
 20 21  2  0  0  0  0
 21 19  1  0  0  0  0
 22 20  1  0  0  0  0
 25 23  1  0  0  0  0
 26 25  2  0  0  0  0
 27 26  1  6  0  0  0
 27 24  1  0  0  0  0
 28 24  1  1  0  0  0
 28 23  1  0  0  0  0
 28 29  1  0  0  0  0
 29 32  1  0  0  0  0
 29 31  1  0  0  0  0
 30 29  1  0  0  0  0
 30 32  1  0  0  0  0
 33 34  1  0  0  0  0
 37 36  1  0  0  0  0
 37 35  1  0  0  0  0
M  END
>  <MODEL>
6

>  <REMARK>
 VINA RESULT:      -2.8      7.483     11.457
  Name = 
  6 active torsions:
  status: ('A' for Active; 'I' for Inactive)
    1  A    between atoms: C_3  and  C_30
    2  A    between atoms: C_4  and  C_28
    3  A    between atoms: C_5  and  C_23
    4  A    between atoms: C_6  and  C_7
    5  A    between atoms: C_14  and  C_31
    6  A    between atoms: C_14  and  C_37
                            x       y       z     vdW  Elec       q    Type
                         _______ _______ _______ _____ _____    ______ ____

>  <TORSDO>
F 6

$$$$
=
 OpenBabel11052415213D

 37 42  0  0  1  0  0  0  0  0999 V2000
  184.8710  178.5140  138.4910 C   0  0  2  0  0  3  0  0  0  0  0  0
  183.3170  178.5250  138.6500 C   0  0  1  0  0  0  0  0  0  0  0  0
  186.8400  177.9780  136.9440 C   0  0  1  0  0  3  0  0  0  0  0  0
  182.7760  179.1650  139.9570 C   0  0  1  0  0  0  0  0  0  0  0  0
  184.2260  178.5670  141.6280 C   0  0  0  0  0  2  0  0  0  0  0  0
  187.3750  179.0880  137.6020 O   0  0  0  0  0  0  0  0  0  0  0  0
  186.9890  178.4170  139.8810 C   0  0  0  0  0  0  0  0  0  0  0  0
  185.3330  177.9000  137.1640 C   0  0  0  0  0  2  0  0  0  0  0  0
  187.4220  178.5650  141.0550 O   0  0  0  0  0  0  0  0  0  0  0  0
  183.7730  179.6440  140.8340 O   0  0  0  0  0  0  0  0  0  0  0  0
  185.6170  178.0180  139.6660 N   0  0  0  0  0  0  0  0  0  0  0  0
  182.6790  179.9340  138.6250 C   0  0  1  0  0  0  0  0  0  0  0  0
  184.8910  177.4550  140.8040 C   0  0  0  0  0  2  0  0  0  0  0  0
  187.9690  178.5560  138.7510 C   0  0  0  0  0  2  0  0  0  0  0  0
  183.6410  181.1110  138.4450 C   0  0  0  0  0  1  0  0  0  0  0  0
  180.9700  177.4620  140.5000 C   0  0  0  0  0  3  0  0  0  0  0  0
  181.4550  178.7750  140.5920 C   0  0  0  0  0  0  0  0  0  0  0  0
  180.7730  179.6980  141.3980 C   0  0  0  0  0  3  0  0  0  0  0  0
  178.9310  180.2380  142.8110 F   0  0  0  0  0  0  0  0  0  0  0  0
  179.0990  178.0310  141.9250 C   0  0  0  0  0  3  0  0  0  0  0  0
  179.5920  179.3330  142.0510 C   0  0  0  0  0  0  0  0  0  0  0  0
  179.7920  177.0940  141.1550 C   0  0  0  0  0  3  0  0  0  0  0  0
  182.7140  175.5580  135.7530 C   0  0  0  0  0  2  0  0  0  0  0  0
  183.2250  176.0030  138.1470 C   0  0  0  0  0  2  0  0  0  0  0  0
  181.9620  176.8570  135.6900 C   0  0  0  0  0  3  0  0  0  0  0  0
  181.8360  177.6550  136.7600 C   0  0  0  0  0  3  0  0  0  0  0  0
  182.4760  177.3470  138.0980 C   0  0  2  0  0  3  0  0  0  0  0  0
  183.8340  175.6330  136.7960 C   0  0  1  0  0  3  0  0  0  0  0  0
  184.6800  174.3570  136.9180 C   0  0  0  0  0  0  0  0  0  0  0  0
  186.1570  174.5220  137.2060 C   0  0  0  0  0  2  0  0  0  0  0  0
  184.0690  173.1230  137.5530 C   0  0  0  0  0  1  0  0  0  0  0  0
  185.6870  174.0760  135.8230 C   0  0  0  0  0  2  0  0  0  0  0  0
  186.0840  177.5330  134.7270 O   0  0  0  0  0  1  0  0  0  0  0  0
  187.1500  178.0540  135.4600 C   0  0  0  0  0  2  0  0  0  0  0  0
  181.3190  180.0360  137.9210 C   0  0  0  0  0  2  0  0  0  0  0  0
  180.1160  181.9830  138.7230 N   0  0  0  0  0  1  0  0  0  0  0  0
  180.9430  181.4810  137.6410 C   0  0  0  0  0  2  0  0  0  0  0  0
  1  8  1  6  0  0  0
  1  2  1  0  0  0  0
  1 11  1  0  0  0  0
  2 27  1  6  0  0  0
  2  4  1  0  0  0  0
  3 34  1  6  0  0  0
  3  8  1  0  0  0  0
  3  6  1  0  0  0  0
  4 17  1  1  0  0  0
  4 10  1  0  0  0  0
  6 14  1  0  0  0  0
  7  9  2  0  0  0  0
 10  5  1  0  0  0  0
 11  7  1  0  0  0  0
 11 13  1  0  0  0  0
 12 15  1  6  0  0  0
 12  2  1  0  0  0  0
 12  4  1  0  0  0  0
 13  5  1  0  0  0  0
 14  7  1  0  0  0  0
 16 17  2  0  0  0  0
 16 22  1  0  0  0  0
 17 18  1  0  0  0  0
 18 21  2  0  0  0  0
 20 21  1  0  0  0  0
 21 19  1  0  0  0  0
 22 20  2  0  0  0  0
 25 23  1  0  0  0  0
 25 26  2  0  0  0  0
 27 26  1  6  0  0  0
 27 24  1  0  0  0  0
 28 23  1  6  0  0  0
 28 29  1  0  0  0  0
 28 24  1  0  0  0  0
 29 30  1  0  0  0  0
 29 31  1  0  0  0  0
 32 29  1  0  0  0  0
 32 30  1  0  0  0  0
 33 34  1  0  0  0  0
 35 12  1  0  0  0  0
 37 35  1  0  0  0  0
 37 36  1  0  0  0  0
M  END
>  <MODEL>
7

>  <REMARK>
 VINA RESULT:      -2.7      2.846      4.992
  Name = 
  6 active torsions:
  status: ('A' for Active; 'I' for Inactive)
    1  A    between atoms: C_3  and  C_30
    2  A    between atoms: C_4  and  C_28
    3  A    between atoms: C_5  and  C_23
    4  A    between atoms: C_6  and  C_7
    5  A    between atoms: C_14  and  C_31
    6  A    between atoms: C_14  and  C_37
                            x       y       z     vdW  Elec       q    Type
                         _______ _______ _______ _____ _____    ______ ____

>  <TORSDO>
F 6

$$$$
=
 OpenBabel11052415213D

 37 42  0  0  1  0  0  0  0  0999 V2000
  184.5990  178.0590  138.2140 C   0  0  2  0  0  3  0  0  0  0  0  0
  183.5070  178.1060  139.3310 C   0  0  1  0  0  0  0  0  0  0  0  0
  185.2360  177.1420  135.9100 C   0  0  1  0  0  3  0  0  0  0  0  0
  183.7960  179.0650  140.5170 C   0  0  1  0  0  0  0  0  0  0  0  0
  186.0450  178.9330  140.9350 C   0  0  0  0  0  2  0  0  0  0  0  0
  185.8630  178.3890  135.8300 O   0  0  0  0  0  0  0  0  0  0  0  0
  187.0990  178.3380  137.8950 C   0  0  0  0  0  0  0  0  0  0  0  0
  184.2340  177.1200  137.0590 C   0  0  0  0  0  2  0  0  0  0  0  0
  188.1330  178.7920  138.4530 O   0  0  0  0  0  0  0  0  0  0  0  0
  185.0200  179.7610  140.4270 O   0  0  0  0  0  0  0  0  0  0  0  0
  185.9840  177.8920  138.7000 N   0  0  0  0  0  0  0  0  0  0  0  0
  182.7620  179.4560  139.4430 C   0  0  1  0  0  0  0  0  0  0  0  0
  186.2330  177.6460  140.1200 C   0  0  0  0  0  2  0  0  0  0  0  0
  187.1220  178.1790  136.4010 C   0  0  0  0  0  2  0  0  0  0  0  0
  183.1830  180.5480  138.4560 C   0  0  0  0  0  1  0  0  0  0  0  0
  184.1060  178.7070  143.0140 C   0  0  0  0  0  3  0  0  0  0  0  0
  183.2460  178.8510  141.9150 C   0  0  0  0  0  0  0  0  0  0  0  0
  181.8650  178.9360  142.1380 C   0  0  0  0  0  3  0  0  0  0  0  0
  180.0090  178.8780  143.6330 F   0  0  0  0  0  0  0  0  0  0  0  0
  182.2100  178.6370  144.5150 C   0  0  0  0  0  3  0  0  0  0  0  0
  181.3460  178.8150  143.4310 C   0  0  0  0  0  0  0  0  0  0  0  0
  183.5910  178.5890  144.3070 C   0  0  0  0  0  3  0  0  0  0  0  0
  181.1880  174.8210  138.1510 C   0  0  0  0  0  2  0  0  0  0  0  0
  183.3620  175.5450  139.1210 C   0  0  0  0  0  2  0  0  0  0  0  0
  180.5430  176.0510  138.7240 C   0  0  0  0  0  3  0  0  0  0  0  0
  181.2360  176.9450  139.4450 C   0  0  0  0  0  3  0  0  0  0  0  0
  182.7240  176.8210  139.6990 C   0  0  2  0  0  3  0  0  0  0  0  0
  182.6660  175.0820  137.8420 C   0  0  1  0  0  3  0  0  0  0  0  0
  183.4100  173.8880  137.2260 C   0  0  0  0  0  0  0  0  0  0  0  0
  183.1610  173.5890  135.7640 C   0  0  0  0  0  2  0  0  0  0  0  0
  184.8250  173.5850  137.6790 C   0  0  0  0  0  1  0  0  0  0  0  0
  182.5920  172.6730  136.8440 C   0  0  0  0  0  2  0  0  0  0  0  0
  183.1570  176.9320  134.7610 O   0  0  0  0  0  1  0  0  0  0  0  0
  184.5390  176.8270  134.5990 C   0  0  0  0  0  2  0  0  0  0  0  0
  181.2680  179.3650  139.7800 C   0  0  0  0  0  2  0  0  0  0  0  0
  179.7450  180.0530  138.0220 N   0  0  0  0  0  1  0  0  0  0  0  0
  180.4880  180.5210  139.1770 C   0  0  0  0  0  2  0  0  0  0  0  0
  1  8  1  6  0  0  0
  1 11  1  0  0  0  0
  1  2  1  0  0  0  0
  2 12  1  0  0  0  0
  2 27  1  1  0  0  0
  2  4  1  0  0  0  0
  3 34  1  6  0  0  0
  3  8  1  0  0  0  0
  4 17  1  1  0  0  0
  6  3  1  0  0  0  0
  6 14  1  0  0  0  0
  7  9  2  0  0  0  0
  7 11  1  0  0  0  0
 10  4  1  0  0  0  0
 10  5  1  0  0  0  0
 11 13  1  0  0  0  0
 12 15  1  6  0  0  0
 12 35  1  0  0  0  0
 12  4  1  0  0  0  0
 13  5  1  0  0  0  0
 14  7  1  0  0  0  0
 16 22  1  0  0  0  0
 17 18  1  0  0  0  0
 17 16  2  0  0  0  0
 18 21  2  0  0  0  0
 21 19  1  0  0  0  0
 21 20  1  0  0  0  0
 22 20  2  0  0  0  0
 23 25  1  0  0  0  0
 25 26  2  0  0  0  0
 26 27  1  0  0  0  0
 27 24  1  6  0  0  0
 28 29  1  1  0  0  0
 28 23  1  0  0  0  0
 28 24  1  0  0  0  0
 29 31  1  0  0  0  0
 30 32  1  0  0  0  0
 30 29  1  0  0  0  0
 32 29  1  0  0  0  0
 34 33  1  0  0  0  0
 36 37  1  0  0  0  0
 37 35  1  0  0  0  0
M  END
>  <MODEL>
8

>  <REMARK>
 VINA RESULT:      -2.6      2.573      4.267
  Name = 
  6 active torsions:
  status: ('A' for Active; 'I' for Inactive)
    1  A    between atoms: C_3  and  C_30
    2  A    between atoms: C_4  and  C_28
    3  A    between atoms: C_5  and  C_23
    4  A    between atoms: C_6  and  C_7
    5  A    between atoms: C_14  and  C_31
    6  A    between atoms: C_14  and  C_37
                            x       y       z     vdW  Elec       q    Type
                         _______ _______ _______ _____ _____    ______ ____

>  <TORSDO>
F 6

$$$$
=
 OpenBabel11052415213D

 37 42  0  0  1  0  0  0  0  0999 V2000
  184.0590  176.2640  136.3570 C   0  0  2  0  0  3  0  0  0  0  0  0
  185.2270  177.0170  137.0720 C   0  0  1  0  0  0  0  0  0  0  0  0
  181.5800  176.3160  135.7190 C   0  0  1  0  0  3  0  0  0  0  0  0
  186.6310  176.3670  136.9380 C   0  0  1  0  0  0  0  0  0  0  0  0
  186.3170  174.0990  137.0490 C   0  0  0  0  0  2  0  0  0  0  0  0
  182.0820  175.6570  134.5940 O   0  0  0  0  0  0  0  0  0  0  0  0
  183.3480  173.9250  135.6850 C   0  0  0  0  0  0  0  0  0  0  0  0
  182.7100  176.9780  136.5000 C   0  0  0  0  0  2  0  0  0  0  0  0
  183.7850  172.7550  135.5260 O   0  0  0  0  0  0  0  0  0  0  0  0
  186.6570  175.1690  136.1920 O   0  0  0  0  0  0  0  0  0  0  0  0
  183.9940  174.8120  136.6250 N   0  0  0  0  0  0  0  0  0  0  0  0
  186.2820  177.6210  136.1150 C   0  0  1  0  0  0  0  0  0  0  0  0
  184.8920  174.2130  137.6110 C   0  0  0  0  0  2  0  0  0  0  0  0
  182.0890  174.3070  134.9580 C   0  0  0  0  0  2  0  0  0  0  0  0
  186.0400  177.4100  134.6190 C   0  0  0  0  0  1  0  0  0  0  0  0
  189.0370  176.0980  137.7120 C   0  0  0  0  0  3  0  0  0  0  0  0
  187.7310  176.5390  137.9700 C   0  0  0  0  0  0  0  0  0  0  0  0
  187.4770  177.2700  139.1390 C   0  0  0  0  0  3  0  0  0  0  0  0
  188.2370  178.1920  141.2010 F   0  0  0  0  0  0  0  0  0  0  0  0
  189.7890  177.0290  139.8150 C   0  0  0  0  0  3  0  0  0  0  0  0
  188.4980  177.5020  140.0660 C   0  0  0  0  0  0  0  0  0  0  0  0
  190.0590  176.3320  138.6350 C   0  0  0  0  0  3  0  0  0  0  0  0
  182.7080  179.3200  139.5020 C   0  0  0  0  0  2  0  0  0  0  0  0
  183.8300  177.1160  139.2300 C   0  0  0  0  0  2  0  0  0  0  0  0
  183.8190  179.9620  138.7200 C   0  0  0  0  0  3  0  0  0  0  0  0
  184.8540  179.2530  138.2460 C   0  0  0  0  0  3  0  0  0  0  0  0
  184.9670  177.7520  138.4100 C   0  0  2  0  0  3  0  0  0  0  0  0
  182.5100  177.8660  139.0620 C   0  0  1  0  0  3  0  0  0  0  0  0
  181.3750  177.1280  139.7880 C   0  0  0  0  0  0  0  0  0  0  0  0
  179.9850  177.7200  139.6940 C   0  0  0  0  0  2  0  0  0  0  0  0
  181.3910  175.6130  139.8360 C   0  0  0  0  0  1  0  0  0  0  0  0
  180.7680  177.7970  141.0030 C   0  0  0  0  0  2  0  0  0  0  0  0
  180.8100  178.5610  135.9500 O   0  0  0  0  0  1  0  0  0  0  0  0
  180.5540  177.3530  135.3000 C   0  0  0  0  0  2  0  0  0  0  0  0
  186.8640  178.9760  136.5390 C   0  0  0  0  0  2  0  0  0  0  0  0
  189.0550  179.7530  137.2290 N   0  0  0  0  0  1  0  0  0  0  0  0
  188.3290  179.0980  136.1570 C   0  0  0  0  0  2  0  0  0  0  0  0
  1  8  1  1  0  0  0
  1 11  1  0  0  0  0
  1  2  1  0  0  0  0
  2 27  1  1  0  0  0
  3 34  1  6  0  0  0
  3  8  1  0  0  0  0
  4  2  1  0  0  0  0
  4 17  1  1  0  0  0
  5 13  1  0  0  0  0
  6 14  1  0  0  0  0
  6  3  1  0  0  0  0
  7 11  1  0  0  0  0
  9  7  2  0  0  0  0
 10  4  1  0  0  0  0
 10  5  1  0  0  0  0
 11 13  1  0  0  0  0
 12 15  1  6  0  0  0
 12 35  1  0  0  0  0
 12  4  1  0  0  0  0
 12  2  1  0  0  0  0
 14  7  1  0  0  0  0
 16 17  2  0  0  0  0
 16 22  1  0  0  0  0
 17 18  1  0  0  0  0
 18 21  2  0  0  0  0
 20 21  1  0  0  0  0
 21 19  1  0  0  0  0
 22 20  2  0  0  0  0
 25 23  1  0  0  0  0
 26 25  2  0  0  0  0
 27 26  1  6  0  0  0
 27 24  1  0  0  0  0
 28 24  1  1  0  0  0
 28 23  1  0  0  0  0
 28 29  1  0  0  0  0
 29 31  1  0  0  0  0
 29 32  1  0  0  0  0
 30 29  1  0  0  0  0
 30 32  1  0  0  0  0
 34 33  1  0  0  0  0
 37 35  1  0  0  0  0
 37 36  1  0  0  0  0
M  END
>  <MODEL>
9

>  <REMARK>
 VINA RESULT:      -2.6      2.986      6.430
  Name = 
  6 active torsions:
  status: ('A' for Active; 'I' for Inactive)
    1  A    between atoms: C_3  and  C_30
    2  A    between atoms: C_4  and  C_28
    3  A    between atoms: C_5  and  C_23
    4  A    between atoms: C_6  and  C_7
    5  A    between atoms: C_14  and  C_31
    6  A    between atoms: C_14  and  C_37
                            x       y       z     vdW  Elec       q    Type
                         _______ _______ _______ _____ _____    ______ ____

>  <TORSDO>
F 6

$$$$
