=
 OpenBabel11052413363D

 28 30  0  0  1  0  0  0  0  0999 V2000
  190.1120  177.3540  139.5680 O   0  0  0  0  0  0  0  0  0  0  0  0
  190.9720  178.0930  142.0610 C   0  0  0  0  0  1  0  0  0  0  0  0
  189.7020  177.2520  141.9730 C   0  0  1  0  0  0  0  0  0  0  0  0
  189.8620  177.8360  136.7160 C   0  0  0  0  0  2  0  0  0  0  0  0
  187.9720  178.9480  141.9110 C   0  0  0  0  0  2  0  0  0  0  0  0
  186.8170  178.0140  139.8740 C   0  0  2  0  0  3  0  0  0  0  0  0
  188.6390  177.9450  142.8360 C   0  0  1  0  0  3  0  0  0  0  0  0
  187.5870  178.4690  137.4790 C   0  0  0  0  0  2  0  0  0  0  0  0
  188.1610  178.4540  140.4780 C   0  0  2  0  0  3  0  0  0  0  0  0
  190.4170  176.5510  137.3270 C   0  0  0  0  0  2  0  0  0  0  0  0
  186.9410  177.4750  138.4340 C   0  0  0  0  0  2  0  0  0  0  0  0
  188.3760  177.7310  136.4150 C   0  0  0  0  0  2  0  0  0  0  0  0
  189.8580  176.2770  138.7160 C   0  0  0  0  0  2  0  0  0  0  0  0
  189.1220  177.2700  140.5560 C   0  0  1  0  0  3  0  0  0  0  0  0
  183.9220  179.7630  139.0890 C   0  0  0  0  0  2  0  0  0  0  0  0
  184.7060  178.4980  140.8830 C   0  0  1  0  0  3  0  0  0  0  0  0
  183.4250  178.9580  140.2580 C   0  0  2  0  0  3  0  0  0  0  0  0
  185.7730  179.0370  140.0470 N   0  0  2  0  0  0  0  0  0  0  0  0
  185.2420  179.3660  138.8330 O   0  0  0  0  0  0  0  0  0  0  0  0
  182.6620  177.7700  139.7720 C   0  0  0  0  0  3  0  0  0  0  0  0
  183.0830  176.6420  139.9740 O   0  0  0  0  0  0  0  0  0  0  0  0
  184.8380  179.0500  142.2940 C   0  0  0  0  0  2  0  0  0  0  0  0
  183.6310  178.6610  143.1270 C   0  0  0  0  0  2  0  0  0  0  0  0
  183.8780  179.0320  144.5740 C   0  0  0  0  0  1  0  0  0  0  0  0
  187.2010  177.4350  144.7390 N   0  0  0  0  0  1  0  0  0  0  0  0
  187.5600  177.0200  143.3950 C   0  0  0  0  0  2  0  0  0  0  0  0
  190.0720  175.8300  142.4140 C   0  0  0  0  0  2  0  0  0  0  0  0
  191.0360  175.8330  143.4280 O   0  0  0  0  0  1  0  0  0  0  0  0
  3  2  1  1  0  0  0
  3 27  1  0  0  0  0
  3  7  1  0  0  0  0
  4 10  1  0  0  0  0
  5  7  1  0  0  0  0
  6 11  1  6  0  0  0
  6 18  1  0  0  0  0
  6  9  1  0  0  0  0
  7 26  1  6  0  0  0
  8 11  1  0  0  0  0
  9 14  1  0  0  0  0
  9  5  1  1  0  0  0
 10 13  1  0  0  0  0
 12  4  1  0  0  0  0
 12  8  1  0  0  0  0
 13  1  1  0  0  0  0
 14  1  1  6  0  0  0
 14  3  1  0  0  0  0
 15 17  1  0  0  0  0
 16 22  1  1  0  0  0
 17 20  1  6  0  0  0
 17 16  1  0  0  0  0
 18 19  1  6  0  0  0
 18 16  1  0  0  0  0
 19 15  1  0  0  0  0
 20 21  2  0  0  0  0
 22 23  1  0  0  0  0
 23 24  1  0  0  0  0
 26 25  1  0  0  0  0
 27 28  1  0  0  0  0
M  END
>  <MODEL>
1

>  <REMARK>
 VINA RESULT:      -6.2      0.000      0.000
  Name = 
  6 active torsions:
  status: ('A' for Active; 'I' for Inactive)
    1  A    between atoms: C_3  and  C_7
    2  A    between atoms: C_9  and  C_14
    3  A    between atoms: C_10  and  N_13
    4  A    between atoms: C_11  and  C_22
    5  A    between atoms: C_12  and  C_15
    6  A    between atoms: C_14  and  C_18
                            x       y       z     vdW  Elec       q    Type
                         _______ _______ _______ _____ _____    ______ ____

>  <TORSDO>
F 6

$$$$
=
 OpenBabel11052413363D

 28 30  0  0  1  0  0  0  0  0999 V2000
  184.0740  175.6330  136.5820 O   0  0  0  0  0  0  0  0  0  0  0  0
  186.0110  177.2380  135.5000 C   0  0  0  0  0  1  0  0  0  0  0  0
  186.1230  176.8980  136.9830 C   0  0  1  0  0  0  0  0  0  0  0  0
  181.3450  174.6450  136.6730 C   0  0  0  0  0  2  0  0  0  0  0  0
  184.9620  178.7560  138.0200 C   0  0  0  0  0  2  0  0  0  0  0  0
  183.4610  177.3150  139.4420 C   0  0  2  0  0  3  0  0  0  0  0  0
  186.3540  178.2170  137.7340 C   0  0  1  0  0  3  0  0  0  0  0  0
  181.3120  176.2310  138.5820 C   0  0  0  0  0  2  0  0  0  0  0  0
  183.9980  177.5710  138.0250 C   0  0  2  0  0  3  0  0  0  0  0  0
  182.5810  173.7530  136.5920 C   0  0  0  0  0  2  0  0  0  0  0  0
  182.5010  176.1100  139.5240 C   0  0  0  0  0  2  0  0  0  0  0  0
  180.8830  174.8560  138.1060 C   0  0  0  0  0  2  0  0  0  0  0  0
  183.8130  174.4070  137.2000 C   0  0  0  0  0  2  0  0  0  0  0  0
  184.7960  176.3660  137.5320 C   0  0  1  0  0  3  0  0  0  0  0  0
  181.0850  179.7270  140.2150 C   0  0  0  0  0  2  0  0  0  0  0  0
  182.4260  178.2270  141.3930 C   0  0  1  0  0  3  0  0  0  0  0  0
  181.1520  179.0030  141.5320 C   0  0  2  0  0  3  0  0  0  0  0  0
  182.9420  178.5430  140.0670 N   0  0  2  0  0  0  0  0  0  0  0  0
  181.9180  179.0460  139.3160 O   0  0  0  0  0  0  0  0  0  0  0  0
  180.0080  178.0500  141.6490 C   0  0  0  0  0  3  0  0  0  0  0  0
  179.4110  177.9310  142.7070 O   0  0  0  0  0  0  0  0  0  0  0  0
  183.4310  178.6640  142.4470 C   0  0  0  0  0  2  0  0  0  0  0  0
  182.7200  179.0180  143.7390 C   0  0  0  0  0  2  0  0  0  0  0  0
  183.7070  178.9720  144.8860 C   0  0  0  0  0  1  0  0  0  0  0  0
  188.3990  178.7130  138.9660 N   0  0  0  0  0  1  0  0  0  0  0  0
  187.0950  178.0810  139.0610 C   0  0  0  0  0  2  0  0  0  0  0  0
  187.2480  175.8640  137.1250 C   0  0  0  0  0  2  0  0  0  0  0  0
  188.3480  176.1770  136.3200 O   0  0  0  0  0  1  0  0  0  0  0  0
  1 13  1  0  0  0  0
  3  2  1  6  0  0  0
  3 27  1  0  0  0  0
  3 14  1  0  0  0  0
  3  7  1  0  0  0  0
  4 12  1  0  0  0  0
  6 11  1  6  0  0  0
  6 18  1  0  0  0  0
  7  5  1  0  0  0  0
  7 26  1  1  0  0  0
  8 11  1  0  0  0  0
  9  5  1  1  0  0  0
  9  6  1  0  0  0  0
 10  4  1  0  0  0  0
 10 13  1  0  0  0  0
 12  8  1  0  0  0  0
 14  1  1  6  0  0  0
 14  9  1  0  0  0  0
 15 17  1  0  0  0  0
 16 17  1  0  0  0  0
 16 22  1  1  0  0  0
 17 20  1  6  0  0  0
 18 19  1  6  0  0  0
 18 16  1  0  0  0  0
 19 15  1  0  0  0  0
 20 21  2  0  0  0  0
 22 23  1  0  0  0  0
 23 24  1  0  0  0  0
 25 26  1  0  0  0  0
 28 27  1  0  0  0  0
M  END
>  <MODEL>
2

>  <REMARK>
 VINA RESULT:      -5.6      3.336      5.457
  Name = 
  6 active torsions:
  status: ('A' for Active; 'I' for Inactive)
    1  A    between atoms: C_3  and  C_7
    2  A    between atoms: C_9  and  C_14
    3  A    between atoms: C_10  and  N_13
    4  A    between atoms: C_11  and  C_22
    5  A    between atoms: C_12  and  C_15
    6  A    between atoms: C_14  and  C_18
                            x       y       z     vdW  Elec       q    Type
                         _______ _______ _______ _____ _____    ______ ____

>  <TORSDO>
F 6

$$$$
=
 OpenBabel11052413363D

 28 30  0  0  1  0  0  0  0  0999 V2000
  185.8340  178.0700  144.9240 O   0  0  0  0  0  0  0  0  0  0  0  0
  187.4760  176.4750  146.4250 C   0  0  0  0  0  1  0  0  0  0  0  0
  188.1290  177.5770  145.5960 C   0  0  1  0  0  0  0  0  0  0  0  0
  183.4110  178.4910  143.3800 C   0  0  0  0  0  2  0  0  0  0  0  0
  188.6530  176.4200  143.5320 C   0  0  0  0  0  2  0  0  0  0  0  0
  187.5750  178.1360  142.0340 C   0  0  2  0  0  3  0  0  0  0  0  0
  189.2830  176.9350  144.8150 C   0  0  1  0  0  3  0  0  0  0  0  0
  185.0660  178.2150  141.5510 C   0  0  0  0  0  2  0  0  0  0  0  0
  187.3930  177.2430  143.2720 C   0  0  2  0  0  3  0  0  0  0  0  0
  183.8620  179.3830  144.5340 C   0  0  0  0  0  2  0  0  0  0  0  0
  186.3460  179.0180  141.7300 C   0  0  0  0  0  2  0  0  0  0  0  0
  183.8740  179.0200  142.0320 C   0  0  0  0  0  2  0  0  0  0  0  0
  185.3730  179.3740  144.7220 C   0  0  0  0  0  2  0  0  0  0  0  0
  187.1740  178.0990  144.5180 C   0  0  1  0  0  3  0  0  0  0  0  0
  187.8650  177.2850  138.6800 C   0  0  0  0  0  2  0  0  0  0  0  0
  189.2910  178.0090  140.3760 C   0  0  1  0  0  3  0  0  0  0  0  0
  189.1830  177.9790  138.8820 C   0  0  2  0  0  3  0  0  0  0  0  0
  188.0740  177.3780  140.8750 N   0  0  2  0  0  0  0  0  0  0  0  0
  187.1430  177.3920  139.8770 O   0  0  0  0  0  0  0  0  0  0  0  0
  189.1070  179.3800  138.3680 C   0  0  0  0  0  3  0  0  0  0  0  0
  188.9070  179.5910  137.1820 O   0  0  0  0  0  0  0  0  0  0  0  0
  190.5020  177.2140  140.8380 C   0  0  0  0  0  2  0  0  0  0  0  0
  191.4740  177.0220  139.6900 C   0  0  0  0  0  2  0  0  0  0  0  0
  192.8760  177.3510  140.1590 C   0  0  0  0  0  1  0  0  0  0  0  0
  191.6450  177.4750  145.0980 N   0  0  0  0  0  1  0  0  0  0  0  0
  190.4170  177.8870  144.4420 C   0  0  0  0  0  2  0  0  0  0  0  0
  188.5410  178.6890  146.5700 C   0  0  0  0  0  2  0  0  0  0  0  0
  189.0070  178.1720  147.7830 O   0  0  0  0  0  1  0  0  0  0  0  0
  3  2  1  1  0  0  0
  3 27  1  0  0  0  0
  4 10  1  0  0  0  0
  5  7  1  0  0  0  0
  6 11  1  6  0  0  0
  6  9  1  0  0  0  0
  7 26  1  6  0  0  0
  7  3  1  0  0  0  0
  8 11  1  0  0  0  0
  8 12  1  0  0  0  0
  9  5  1  1  0  0  0
  9 14  1  0  0  0  0
 10 13  1  0  0  0  0
 12  4  1  0  0  0  0
 13  1  1  0  0  0  0
 14  1  1  1  0  0  0
 14  3  1  0  0  0  0
 15 17  1  0  0  0  0
 15 19  1  0  0  0  0
 16 22  1  6  0  0  0
 16 18  1  0  0  0  0
 17 20  1  1  0  0  0
 17 16  1  0  0  0  0
 18 19  1  6  0  0  0
 18  6  1  0  0  0  0
 21 20  2  0  0  0  0
 23 24  1  0  0  0  0
 23 22  1  0  0  0  0
 26 25  1  0  0  0  0
 27 28  1  0  0  0  0
M  END
>  <MODEL>
3

>  <REMARK>
 VINA RESULT:      -5.6      2.578      5.943
  Name = 
  6 active torsions:
  status: ('A' for Active; 'I' for Inactive)
    1  A    between atoms: C_3  and  C_7
    2  A    between atoms: C_9  and  C_14
    3  A    between atoms: C_10  and  N_13
    4  A    between atoms: C_11  and  C_22
    5  A    between atoms: C_12  and  C_15
    6  A    between atoms: C_14  and  C_18
                            x       y       z     vdW  Elec       q    Type
                         _______ _______ _______ _____ _____    ______ ____

>  <TORSDO>
F 6

$$$$
=
 OpenBabel11052413363D

 28 30  0  0  1  0  0  0  0  0999 V2000
  187.2910  178.5230  144.0210 O   0  0  0  0  0  0  0  0  0  0  0  0
  185.0780  180.1300  143.8720 C   0  0  0  0  0  1  0  0  0  0  0  0
  185.0350  178.7980  143.1280 C   0  0  1  0  0  0  0  0  0  0  0  0
  190.1590  178.1610  144.2840 C   0  0  0  0  0  2  0  0  0  0  0  0
  185.8140  179.4220  140.9190 C   0  0  0  0  0  2  0  0  0  0  0  0
  187.5680  177.6170  140.7820 C   0  0  2  0  0  3  0  0  0  0  0  0
  184.5540  179.0910  141.7000 C   0  0  1  0  0  3  0  0  0  0  0  0
  189.8850  177.8140  141.8420 C   0  0  0  0  0  2  0  0  0  0  0  0
  186.9900  178.7590  141.6340 C   0  0  2  0  0  3  0  0  0  0  0  0
  189.1200  177.4650  145.1590 C   0  0  0  0  0  2  0  0  0  0  0  0
  188.7430  176.8830  141.4600 C   0  0  0  0  0  2  0  0  0  0  0  0
  190.5730  177.3080  143.0950 C   0  0  0  0  0  2  0  0  0  0  0  0
  187.7850  177.2880  144.4500 C   0  0  0  0  0  2  0  0  0  0  0  0
  186.4410  178.2160  142.9510 C   0  0  1  0  0  3  0  0  0  0  0  0
  189.4670  178.8600  138.1550 C   0  0  0  0  0  2  0  0  0  0  0  0
  188.3040  176.8960  138.6270 C   0  0  1  0  0  3  0  0  0  0  0  0
  189.4250  177.4060  137.7730 C   0  0  2  0  0  3  0  0  0  0  0  0
  187.8390  178.0420  139.3990 N   0  0  2  0  0  0  0  0  0  0  0  0
  188.8190  178.9920  139.3910 O   0  0  0  0  0  0  0  0  0  0  0  0
  190.6950  176.7340  138.1800 C   0  0  0  0  0  3  0  0  0  0  0  0
  190.6700  175.6240  138.6870 O   0  0  0  0  0  0  0  0  0  0  0  0
  187.1700  176.3740  137.7580 C   0  0  0  0  0  2  0  0  0  0  0  0
  186.2480  177.5100  137.3590 C   0  0  0  0  0  2  0  0  0  0  0  0
  184.8090  177.0860  137.5650 C   0  0  0  0  0  1  0  0  0  0  0  0
  182.4830  178.2890  140.6920 N   0  0  0  0  0  1  0  0  0  0  0  0
  183.8540  177.9260  141.0050 C   0  0  0  0  0  2  0  0  0  0  0  0
  184.1330  177.8580  143.9390 C   0  0  0  0  0  2  0  0  0  0  0  0
  183.0760  178.5460  144.5440 O   0  0  0  0  0  1  0  0  0  0  0  0
  1 13  1  0  0  0  0
  3  2  1  1  0  0  0
  3 27  1  0  0  0  0
  4 10  1  0  0  0  0
  5  7  1  0  0  0  0
  6 11  1  1  0  0  0
  6  9  1  0  0  0  0
  7 26  1  6  0  0  0
  7  3  1  0  0  0  0
  8 12  1  0  0  0  0
  9  5  1  6  0  0  0
  9 14  1  0  0  0  0
 11  8  1  0  0  0  0
 12  4  1  0  0  0  0
 13 10  1  0  0  0  0
 14  3  1  0  0  0  0
 14  1  1  1  0  0  0
 15 19  1  0  0  0  0
 16 22  1  6  0  0  0
 16 18  1  0  0  0  0
 17 15  1  0  0  0  0
 17 20  1  1  0  0  0
 17 16  1  0  0  0  0
 18 19  1  1  0  0  0
 18  6  1  0  0  0  0
 20 21  2  0  0  0  0
 23 24  1  0  0  0  0
 23 22  1  0  0  0  0
 25 26  1  0  0  0  0
 27 28  1  0  0  0  0
M  END
>  <MODEL>
4

>  <REMARK>
 VINA RESULT:      -5.5      2.231      5.774
  Name = 
  6 active torsions:
  status: ('A' for Active; 'I' for Inactive)
    1  A    between atoms: C_3  and  C_7
    2  A    between atoms: C_9  and  C_14
    3  A    between atoms: C_10  and  N_13
    4  A    between atoms: C_11  and  C_22
    5  A    between atoms: C_12  and  C_15
    6  A    between atoms: C_14  and  C_18
                            x       y       z     vdW  Elec       q    Type
                         _______ _______ _______ _____ _____    ______ ____

>  <TORSDO>
F 6

$$$$
=
 OpenBabel11052413363D

 28 30  0  0  1  0  0  0  0  0999 V2000
  184.8950  178.4180  141.4370 O   0  0  0  0  0  0  0  0  0  0  0  0
  183.3730  177.7570  143.6160 C   0  0  0  0  0  1  0  0  0  0  0  0
  184.5100  178.7530  143.8250 C   0  0  1  0  0  0  0  0  0  0  0  0
  186.0830  177.7640  138.8700 C   0  0  0  0  0  2  0  0  0  0  0  0
  186.3400  177.3070  144.4850 C   0  0  0  0  0  2  0  0  0  0  0  0
  187.9740  178.2340  142.8040 C   0  0  2  0  0  3  0  0  0  0  0  0
  185.3130  178.2770  145.0430 C   0  0  1  0  0  3  0  0  0  0  0  0
  188.0530  177.5020  140.3560 C   0  0  0  0  0  2  0  0  0  0  0  0
  186.5630  177.6630  143.0160 C   0  0  2  0  0  3  0  0  0  0  0  0
  185.2320  179.0030  139.1340 C   0  0  0  0  0  2  0  0  0  0  0  0
  188.2560  178.6430  141.3440 C   0  0  0  0  0  2  0  0  0  0  0  0
  187.5690  178.0450  139.0260 C   0  0  0  0  0  2  0  0  0  0  0  0
  185.2910  179.4530  140.5860 C   0  0  0  0  0  2  0  0  0  0  0  0
  185.5070  178.7080  142.6630 C   0  0  1  0  0  3  0  0  0  0  0  0
  190.4950  175.8460  142.8320 C   0  0  0  0  0  2  0  0  0  0  0  0
  190.2820  178.0950  143.4090 C   0  0  1  0  0  3  0  0  0  0  0  0
  191.3200  177.0910  143.0130 C   0  0  2  0  0  3  0  0  0  0  0  0
  189.0120  177.3770  143.4020 N   0  0  2  0  0  0  0  0  0  0  0  0
  189.1630  176.2450  142.6550 O   0  0  0  0  0  0  0  0  0  0  0  0
  191.9230  177.4980  141.7080 C   0  0  0  0  0  3  0  0  0  0  0  0
  191.4210  177.1340  140.6570 O   0  0  0  0  0  0  0  0  0  0  0  0
  190.5590  178.6220  144.8080 C   0  0  0  0  0  2  0  0  0  0  0  0
  189.7480  177.8510  145.8320 C   0  0  0  0  0  2  0  0  0  0  0  0
  190.6710  176.9590  146.6360 C   0  0  0  0  0  1  0  0  0  0  0  0
  185.6810  179.3580  147.1990 N   0  0  0  0  0  1  0  0  0  0  0  0
  186.0560  179.3780  145.7960 C   0  0  0  0  0  2  0  0  0  0  0  0
  183.8720  180.1410  143.9680 C   0  0  0  0  0  2  0  0  0  0  0  0
  182.5060  180.1190  143.6700 O   0  0  0  0  0  1  0  0  0  0  0  0
  3  2  1  6  0  0  0
  3 27  1  0  0  0  0
  3  7  1  0  0  0  0
  4 12  1  0  0  0  0
  4 10  1  0  0  0  0
  5  7  1  0  0  0  0
  6 11  1  6  0  0  0
  6  9  1  0  0  0  0
  6 18  1  0  0  0  0
  7 26  1  6  0  0  0
  8 11  1  0  0  0  0
  9  5  1  1  0  0  0
 10 13  1  0  0  0  0
 12  8  1  0  0  0  0
 13  1  1  0  0  0  0
 14  1  1  6  0  0  0
 14  9  1  0  0  0  0
 14  3  1  0  0  0  0
 15 17  1  0  0  0  0
 16 22  1  1  0  0  0
 17 20  1  6  0  0  0
 17 16  1  0  0  0  0
 18 19  1  6  0  0  0
 18 16  1  0  0  0  0
 19 15  1  0  0  0  0
 21 20  2  0  0  0  0
 22 23  1  0  0  0  0
 23 24  1  0  0  0  0
 26 25  1  0  0  0  0
 28 27  1  0  0  0  0
M  END
>  <MODEL>
5

>  <REMARK>
 VINA RESULT:      -5.5      2.135      6.075
  Name = 
  6 active torsions:
  status: ('A' for Active; 'I' for Inactive)
    1  A    between atoms: C_3  and  C_7
    2  A    between atoms: C_9  and  C_14
    3  A    between atoms: C_10  and  N_13
    4  A    between atoms: C_11  and  C_22
    5  A    between atoms: C_12  and  C_15
    6  A    between atoms: C_14  and  C_18
                            x       y       z     vdW  Elec       q    Type
                         _______ _______ _______ _____ _____    ______ ____

>  <TORSDO>
F 6

$$$$
=
 OpenBabel11052413363D

 28 30  0  0  1  0  0  0  0  0999 V2000
  186.1710  178.3490  138.4110 O   0  0  0  0  0  0  0  0  0  0  0  0
  188.8340  178.9550  138.2060 C   0  0  0  0  0  1  0  0  0  0  0  0
  188.4350  177.8490  139.1780 C   0  0  1  0  0  0  0  0  0  0  0  0
  183.3720  179.1100  138.2950 C   0  0  0  0  0  2  0  0  0  0  0  0
  188.1700  179.0670  141.2560 C   0  0  0  0  0  2  0  0  0  0  0  0
  185.8810  178.1440  141.7660 C   0  0  2  0  0  3  0  0  0  0  0  0
  189.1260  178.1470  140.5150 C   0  0  1  0  0  3  0  0  0  0  0  0
  183.7250  179.0700  140.7510 C   0  0  0  0  0  2  0  0  0  0  0  0
  186.7670  178.8170  140.7060 C   0  0  2  0  0  3  0  0  0  0  0  0
  183.9760  177.9330  137.5340 C   0  0  0  0  0  2  0  0  0  0  0  0
  184.4550  177.8360  141.2650 C   0  0  0  0  0  2  0  0  0  0  0  0
  182.7790  178.6860  139.6300 C   0  0  0  0  0  2  0  0  0  0  0  0
  185.2030  177.3580  138.2270 C   0  0  0  0  0  2  0  0  0  0  0  0
  186.9370  177.9030  139.4950 C   0  0  1  0  0  3  0  0  0  0  0  0
  184.7360  180.2520  144.2760 C   0  0  0  0  0  2  0  0  0  0  0  0
  185.3380  178.0080  144.0890 C   0  0  1  0  0  3  0  0  0  0  0  0
  184.5060  178.9210  144.9370 C   0  0  2  0  0  3  0  0  0  0  0  0
  185.9270  178.8520  143.0560 N   0  0  2  0  0  0  0  0  0  0  0  0
  185.2010  180.0050  142.9770 O   0  0  0  0  0  0  0  0  0  0  0  0
  183.0690  178.5310  144.8130 C   0  0  0  0  0  3  0  0  0  0  0  0
  182.3550  179.0660  143.9800 O   0  0  0  0  0  0  0  0  0  0  0  0
  186.4430  177.3730  144.9190 C   0  0  0  0  0  2  0  0  0  0  0  0
  186.4200  177.9200  146.3330 C   0  0  0  0  0  2  0  0  0  0  0  0
  187.8320  177.9630  146.8790 C   0  0  0  0  0  1  0  0  0  0  0  0
  189.3550  177.3050  142.7930 N   0  0  0  0  0  1  0  0  0  0  0  0
  189.3900  176.9260  141.3910 C   0  0  0  0  0  2  0  0  0  0  0  0
  188.8260  176.5150  138.5270 C   0  0  0  0  0  2  0  0  0  0  0  0
  188.5880  176.5190  137.1490 O   0  0  0  0  0  1  0  0  0  0  0  0
  3  2  1  6  0  0  0
  3 14  1  0  0  0  0
  3  7  1  0  0  0  0
  4 12  1  0  0  0  0
  6 11  1  6  0  0  0
  6 18  1  0  0  0  0
  7  5  1  0  0  0  0
  7 26  1  1  0  0  0
  8 11  1  0  0  0  0
  9  5  1  1  0  0  0
  9  6  1  0  0  0  0
 10 13  1  0  0  0  0
 10  4  1  0  0  0  0
 12  8  1  0  0  0  0
 13  1  1  0  0  0  0
 14  1  1  6  0  0  0
 14  9  1  0  0  0  0
 15 17  1  0  0  0  0
 16 22  1  1  0  0  0
 16 17  1  0  0  0  0
 17 20  1  6  0  0  0
 18 19  1  6  0  0  0
 18 16  1  0  0  0  0
 19 15  1  0  0  0  0
 21 20  2  0  0  0  0
 22 23  1  0  0  0  0
 23 24  1  0  0  0  0
 26 25  1  0  0  0  0
 27  3  1  0  0  0  0
 28 27  1  0  0  0  0
M  END
>  <MODEL>
6

>  <REMARK>
 VINA RESULT:      -5.5      2.171      4.356
  Name = 
  6 active torsions:
  status: ('A' for Active; 'I' for Inactive)
    1  A    between atoms: C_3  and  C_7
    2  A    between atoms: C_9  and  C_14
    3  A    between atoms: C_10  and  N_13
    4  A    between atoms: C_11  and  C_22
    5  A    between atoms: C_12  and  C_15
    6  A    between atoms: C_14  and  C_18
                            x       y       z     vdW  Elec       q    Type
                         _______ _______ _______ _____ _____    ______ ____

>  <TORSDO>
F 6

$$$$
=
 OpenBabel11052413363D

 28 30  0  0  1  0  0  0  0  0999 V2000
  186.7850  178.5330  138.9640 O   0  0  0  0  0  0  0  0  0  0  0  0
  188.6930  178.9640  137.0470 C   0  0  0  0  0  1  0  0  0  0  0  0
  188.7140  177.6230  137.7740 C   0  0  1  0  0  0  0  0  0  0  0  0
  184.9850  179.5020  141.0250 C   0  0  0  0  0  2  0  0  0  0  0  0
  190.2460  178.0570  139.6010 C   0  0  0  0  0  2  0  0  0  0  0  0
  188.7020  177.1960  141.3980 C   0  0  2  0  0  3  0  0  0  0  0  0
  190.1550  177.3820  138.2430 C   0  0  1  0  0  3  0  0  0  0  0  0
  186.8160  178.5810  142.4250 C   0  0  0  0  0  2  0  0  0  0  0  0
  188.8340  178.1250  140.1800 C   0  0  2  0  0  3  0  0  0  0  0  0
  184.5580  178.6200  139.8540 C   0  0  0  0  0  2  0  0  0  0  0  0
  187.2880  177.1940  142.0150 C   0  0  0  0  0  2  0  0  0  0  0  0
  185.3110  178.6870  142.2670 C   0  0  0  0  0  2  0  0  0  0  0  0
  185.6920  177.7470  139.3380 C   0  0  0  0  0  2  0  0  0  0  0  0
  187.8910  177.6790  139.0650 C   0  0  1  0  0  3  0  0  0  0  0  0
  190.2410  178.5650  144.1930 C   0  0  0  0  0  2  0  0  0  0  0  0
  189.6540  176.4340  143.4530 C   0  0  1  0  0  3  0  0  0  0  0  0
  189.9430  177.1870  144.7160 C   0  0  2  0  0  3  0  0  0  0  0  0
  189.7860  177.4040  142.3720 N   0  0  2  0  0  0  0  0  0  0  0  0
  189.6920  178.6570  142.9060 O   0  0  0  0  0  0  0  0  0  0  0  0
  188.7120  177.2160  145.5610 C   0  0  0  0  0  3  0  0  0  0  0  0
  187.9880  178.1990  145.5620 O   0  0  0  0  0  0  0  0  0  0  0  0
  190.6650  175.3150  143.2580 C   0  0  0  0  0  2  0  0  0  0  0  0
  191.9010  175.5710  144.0980 C   0  0  0  0  0  2  0  0  0  0  0  0
  192.2760  174.3050  144.8400 C   0  0  0  0  0  1  0  0  0  0  0  0
  191.9590  175.7440  138.1460 N   0  0  0  0  0  1  0  0  0  0  0  0
  190.5420  175.9160  138.4120 C   0  0  0  0  0  2  0  0  0  0  0  0
  188.1630  176.5730  136.8000 C   0  0  0  0  0  2  0  0  0  0  0  0
  187.1840  177.1080  135.9570 O   0  0  0  0  0  1  0  0  0  0  0  0
  1 13  1  0  0  0  0
  3  2  1  6  0  0  0
  3  7  1  0  0  0  0
  3 14  1  0  0  0  0
  4 12  1  0  0  0  0
  6 11  1  1  0  0  0
  6 18  1  0  0  0  0
  7 26  1  1  0  0  0
  7  5  1  0  0  0  0
  9  5  1  6  0  0  0
  9  6  1  0  0  0  0
 10  4  1  0  0  0  0
 11  8  1  0  0  0  0
 12  8  1  0  0  0  0
 13 10  1  0  0  0  0
 14  1  1  6  0  0  0
 14  9  1  0  0  0  0
 15 17  1  0  0  0  0
 16 22  1  6  0  0  0
 16 17  1  0  0  0  0
 17 20  1  1  0  0  0
 18 19  1  1  0  0  0
 18 16  1  0  0  0  0
 19 15  1  0  0  0  0
 20 21  2  0  0  0  0
 22 23  1  0  0  0  0
 23 24  1  0  0  0  0
 25 26  1  0  0  0  0
 27  3  1  0  0  0  0
 28 27  1  0  0  0  0
M  END
>  <MODEL>
7

>  <REMARK>
 VINA RESULT:      -5.5      2.498      6.243
  Name = 
  6 active torsions:
  status: ('A' for Active; 'I' for Inactive)
    1  A    between atoms: C_3  and  C_7
    2  A    between atoms: C_9  and  C_14
    3  A    between atoms: C_10  and  N_13
    4  A    between atoms: C_11  and  C_22
    5  A    between atoms: C_12  and  C_15
    6  A    between atoms: C_14  and  C_18
                            x       y       z     vdW  Elec       q    Type
                         _______ _______ _______ _____ _____    ______ ____

>  <TORSDO>
F 6

$$$$
=
 OpenBabel11052413363D

 28 30  0  0  1  0  0  0  0  0999 V2000
  188.7740  173.9970  135.7000 O   0  0  0  0  0  0  0  0  0  0  0  0
  190.5710  175.8500  134.7850 C   0  0  0  0  0  1  0  0  0  0  0  0
  189.9720  176.0720  136.1700 C   0  0  1  0  0  0  0  0  0  0  0  0
  186.6990  172.0200  135.2390 C   0  0  0  0  0  2  0  0  0  0  0  0
  188.0580  177.4750  135.6800 C   0  0  0  0  0  2  0  0  0  0  0  0
  186.4080  176.0530  136.9490 C   0  0  2  0  0  3  0  0  0  0  0  0
  189.4750  177.5230  136.2230 C   0  0  1  0  0  3  0  0  0  0  0  0
  185.3250  173.9460  135.9890 C   0  0  0  0  0  2  0  0  0  0  0  0
  187.5270  176.0590  135.8950 C   0  0  2  0  0  3  0  0  0  0  0  0
  187.9620  171.7670  136.0570 C   0  0  0  0  0  2  0  0  0  0  0  0
  185.8460  174.6460  137.2370 C   0  0  0  0  0  2  0  0  0  0  0  0
  185.5280  172.4480  136.1100 C   0  0  0  0  0  2  0  0  0  0  0  0
  188.5160  173.0380  136.6840 C   0  0  0  0  0  2  0  0  0  0  0  0
  188.7130  175.2240  136.3730 C   0  0  1  0  0  3  0  0  0  0  0  0
  183.2920  177.2320  135.9680 C   0  0  0  0  0  2  0  0  0  0  0  0
  184.6180  177.3310  137.8830 C   0  0  1  0  0  3  0  0  0  0  0  0
  183.1860  177.4370  137.4540 C   0  0  2  0  0  3  0  0  0  0  0  0
  185.3790  177.0680  136.6670 N   0  0  2  0  0  0  0  0  0  0  0  0
  184.5190  176.6020  135.7140 O   0  0  0  0  0  0  0  0  0  0  0  0
  182.4070  176.3210  138.0690 C   0  0  0  0  0  3  0  0  0  0  0  0
  182.9050  175.6280  138.9410 O   0  0  0  0  0  0  0  0  0  0  0  0
  185.0850  178.6390  138.5020 C   0  0  0  0  0  2  0  0  0  0  0  0
  184.0350  179.1740  139.4570 C   0  0  0  0  0  2  0  0  0  0  0  0
  184.2940  178.6290  140.8460 C   0  0  0  0  0  1  0  0  0  0  0  0
  188.6740  179.3780  137.5890 N   0  0  0  0  0  1  0  0  0  0  0  0
  189.4310  178.1390  137.6190 C   0  0  0  0  0  2  0  0  0  0  0  0
  191.0610  175.7200  137.1930 C   0  0  0  0  0  2  0  0  0  0  0  0
  190.5230  175.1330  138.3430 O   0  0  0  0  0  1  0  0  0  0  0  0
  1 13  1  0  0  0  0
  3  2  1  6  0  0  0
  3  7  1  0  0  0  0
  3 14  1  0  0  0  0
  3 27  1  0  0  0  0
  4 10  1  0  0  0  0
  4 12  1  0  0  0  0
  5  7  1  0  0  0  0
  6 11  1  6  0  0  0
  7 26  1  1  0  0  0
  8 12  1  0  0  0  0
  8 11  1  0  0  0  0
  9  5  1  1  0  0  0
  9 14  1  0  0  0  0
  9  6  1  0  0  0  0
 10 13  1  0  0  0  0
 14  1  1  6  0  0  0
 15 17  1  0  0  0  0
 16 22  1  6  0  0  0
 17 16  1  0  0  0  0
 17 20  1  1  0  0  0
 18 19  1  6  0  0  0
 18  6  1  0  0  0  0
 18 16  1  0  0  0  0
 19 15  1  0  0  0  0
 20 21  2  0  0  0  0
 22 23  1  0  0  0  0
 23 24  1  0  0  0  0
 25 26  1  0  0  0  0
 27 28  1  0  0  0  0
M  END
>  <MODEL>
8

>  <REMARK>
 VINA RESULT:      -5.1      3.381      5.023
  Name = 
  6 active torsions:
  status: ('A' for Active; 'I' for Inactive)
    1  A    between atoms: C_3  and  C_7
    2  A    between atoms: C_9  and  C_14
    3  A    between atoms: C_10  and  N_13
    4  A    between atoms: C_11  and  C_22
    5  A    between atoms: C_12  and  C_15
    6  A    between atoms: C_14  and  C_18
                            x       y       z     vdW  Elec       q    Type
                         _______ _______ _______ _____ _____    ______ ____

>  <TORSDO>
F 6

$$$$
=
 OpenBabel11052413363D

 28 30  0  0  1  0  0  0  0  0999 V2000
  188.6160  175.7900  136.7220 O   0  0  0  0  0  0  0  0  0  0  0  0
  188.3950  178.5150  136.5600 C   0  0  0  0  0  1  0  0  0  0  0  0
  187.5530  177.8000  137.6120 C   0  0  1  0  0  0  0  0  0  0  0  0
  189.1000  173.1990  135.5060 C   0  0  0  0  0  2  0  0  0  0  0  0
  185.4740  177.4180  136.4270 C   0  0  0  0  0  2  0  0  0  0  0  0
  185.3550  174.9590  136.9710 C   0  0  2  0  0  3  0  0  0  0  0  0
  186.1150  178.3170  137.4700 C   0  0  1  0  0  3  0  0  0  0  0  0
  186.6240  173.1600  135.6730 C   0  0  0  0  0  2  0  0  0  0  0  0
  186.2360  176.0940  136.4240 C   0  0  2  0  0  3  0  0  0  0  0  0
  189.8260  173.7170  136.7450 C   0  0  0  0  0  2  0  0  0  0  0  0
  186.0750  173.5970  137.0240 C   0  0  0  0  0  2  0  0  0  0  0  0
  187.8910  172.3490  135.8630 C   0  0  0  0  0  2  0  0  0  0  0  0
  188.9920  174.7160  137.5340 C   0  0  0  0  0  2  0  0  0  0  0  0
  187.4560  176.3000  137.3200 C   0  0  1  0  0  3  0  0  0  0  0  0
  182.7950  173.5970  135.0620 C   0  0  0  0  0  2  0  0  0  0  0  0
  183.0560  174.3690  137.2460 C   0  0  1  0  0  3  0  0  0  0  0  0
  182.1960  173.4500  136.4340 C   0  0  2  0  0  3  0  0  0  0  0  0
  184.0360  174.9200  136.3170 N   0  0  2  0  0  0  0  0  0  0  0  0
  184.0890  174.1120  135.2190 O   0  0  0  0  0  0  0  0  0  0  0  0
  182.3770  172.0500  136.9230 C   0  0  0  0  0  3  0  0  0  0  0  0
  183.4750  171.6610  137.2860 O   0  0  0  0  0  0  0  0  0  0  0  0
  182.2210  175.4970  137.8320 C   0  0  0  0  0  2  0  0  0  0  0  0
  182.6110  175.7450  139.2770 C   0  0  0  0  0  2  0  0  0  0  0  0
  181.8880  176.9720  139.7890 C   0  0  0  0  0  1  0  0  0  0  0  0
  184.8980  179.5830  139.1630 N   0  0  0  0  0  1  0  0  0  0  0  0
  185.2750  178.2450  138.7430 C   0  0  0  0  0  2  0  0  0  0  0  0
  188.2090  178.0690  138.9740 C   0  0  0  0  0  2  0  0  0  0  0  0
  189.0980  179.1470  138.9190 O   0  0  0  0  0  1  0  0  0  0  0  0
  1 13  1  0  0  0  0
  3  2  1  6  0  0  0
  3 27  1  0  0  0  0
  4 12  1  0  0  0  0
  4 10  1  0  0  0  0
  5  7  1  0  0  0  0
  6 11  1  6  0  0  0
  7  3  1  0  0  0  0
  7 26  1  1  0  0  0
  8 12  1  0  0  0  0
  8 11  1  0  0  0  0
  9  5  1  1  0  0  0
  9  6  1  0  0  0  0
  9 14  1  0  0  0  0
 10 13  1  0  0  0  0
 14  1  1  6  0  0  0
 14  3  1  0  0  0  0
 15 19  1  0  0  0  0
 15 17  1  0  0  0  0
 16 22  1  6  0  0  0
 17 20  1  1  0  0  0
 17 16  1  0  0  0  0
 18 19  1  6  0  0  0
 18  6  1  0  0  0  0
 18 16  1  0  0  0  0
 20 21  2  0  0  0  0
 22 23  1  0  0  0  0
 23 24  1  0  0  0  0
 26 25  1  0  0  0  0
 28 27  1  0  0  0  0
M  END
>  <MODEL>
9

>  <REMARK>
 VINA RESULT:      -5.1      3.743      5.437
  Name = 
  6 active torsions:
  status: ('A' for Active; 'I' for Inactive)
    1  A    between atoms: C_3  and  C_7
    2  A    between atoms: C_9  and  C_14
    3  A    between atoms: C_10  and  N_13
    4  A    between atoms: C_11  and  C_22
    5  A    between atoms: C_12  and  C_15
    6  A    between atoms: C_14  and  C_18
                            x       y       z     vdW  Elec       q    Type
                         _______ _______ _______ _____ _____    ______ ____

>  <TORSDO>
F 6

$$$$
