=
 OpenBabel11052416563D

 32 36  0  0  1  0  0  0  0  0999 V2000
  190.9250  176.3780  140.4150 N   0  0  0  0  0  0  0  0  0  0  0  0
  186.5040  178.4060  141.7950 C   0  0  0  0  0  0  0  0  0  0  0  0
  186.1070  177.6690  146.5840 C   0  0  0  0  0  3  0  0  0  0  0  0
  184.8350  178.2400  146.5540 C   0  0  0  0  0  3  0  0  0  0  0  0
  188.4890  177.7480  140.5710 C   0  0  0  0  0  0  0  0  0  0  0  0
  188.3620  177.3630  142.9640 C   0  0  0  0  0  3  0  0  0  0  0  0
  190.4790  176.7320  141.7660 C   0  0  0  0  0  0  0  0  0  0  0  0
  186.8550  177.5620  145.4100 C   0  0  0  0  0  3  0  0  0  0  0  0
  187.0750  177.9240  142.9950 C   0  0  0  0  0  0  0  0  0  0  0  0
  186.3370  178.0260  144.1880 C   0  0  0  0  0  0  0  0  0  0  0  0
  184.5260  179.0720  142.9380 C   0  0  0  0  0  0  0  0  0  0  0  0
  190.3500  176.9470  139.2320 C   0  0  0  0  0  3  0  0  0  0  0  0
  189.0710  177.2720  141.7620 C   0  0  0  0  0  0  0  0  0  0  0  0
  189.1990  177.6130  139.2930 C   0  0  0  0  0  3  0  0  0  0  0  0
  184.3050  178.7070  145.3490 C   0  0  0  0  0  3  0  0  0  0  0  0
  185.0440  178.6050  144.1600 C   0  0  0  0  0  0  0  0  0  0  0  0
  187.2120  178.3130  140.5940 C   0  0  0  0  0  3  0  0  0  0  0  0
  185.2630  178.9550  141.8010 N   0  0  0  0  0  0  0  0  0  0  0  0
  191.4210  177.7670  142.3600 C   0  0  0  0  0  2  0  0  0  0  0  0
  191.6150  176.5600  144.5610 C   0  0  0  0  0  0  0  0  0  0  0  0
  191.3360  177.7400  143.8110 N   0  0  0  0  0  2  0  0  0  0  0  0
  191.9470  175.4930  143.9800 O   0  0  0  0  0  0  0  0  0  0  0  0
  191.5120  176.5880  146.0440 C   0  0  0  0  0  1  0  0  0  0  0  0
  183.1530  179.6630  142.8430 C   0  0  0  0  0  2  0  0  0  0  0  0
  182.3280  178.7570  140.8290 C   0  0  2  0  0  3  0  0  0  0  0  0
  181.1700  179.5020  140.1520 C   0  0  0  0  0  2  0  0  0  0  0  0
  180.8830  179.0120  142.8230 C   0  0  1  0  0  3  0  0  0  0  0  0
  179.7830  178.3830  141.9740 C   0  0  0  0  0  2  0  0  0  0  0  0
  179.8080  178.9230  140.5430 C   0  0  0  0  0  2  0  0  0  0  0  0
  182.5010  177.3660  140.2440 C   0  0  0  0  0  1  0  0  0  0  0  0
  180.7560  178.5300  144.1880 N   0  0  0  0  0  1  0  0  0  0  0  0
  182.2210  178.6810  142.3000 N   0  0  0  0  0  0  0  0  0  0  0  0
  1  7  1  0  0  0  0
  2 18  1  0  0  0  0
  2  9  1  0  0  0  0
  4  3  1  0  0  0  0
  5 17  1  0  0  0  0
  5 13  1  0  0  0  0
  6  9  2  0  0  0  0
  7 19  1  0  0  0  0
  8  3  2  0  0  0  0
  9 10  1  0  0  0  0
 10  8  1  0  0  0  0
 11 16  1  0  0  0  0
 12 14  1  0  0  0  0
 12  1  2  0  0  0  0
 13  7  2  0  0  0  0
 13  6  1  0  0  0  0
 14  5  2  0  0  0  0
 15  4  2  0  0  0  0
 16 10  2  0  0  0  0
 16 15  1  0  0  0  0
 17  2  2  0  0  0  0
 18 11  2  0  0  0  0
 19 21  1  0  0  0  0
 20 23  1  0  0  0  0
 21 20  1  0  0  0  0
 22 20  2  0  0  0  0
 24 11  1  0  0  0  0
 25 30  1  6  0  0  0
 25 32  1  0  0  0  0
 26 29  1  0  0  0  0
 26 25  1  0  0  0  0
 27 31  1  1  0  0  0
 28 27  1  0  0  0  0
 29 28  1  0  0  0  0
 32 27  1  0  0  0  0
 32 24  1  0  0  0  0
M  END
>  <MODEL>
1

>  <REMARK>
 VINA RESULT:      -9.8      0.000      0.000
  Name = 
  4 active torsions:
  status: ('A' for Active; 'I' for Inactive)
    1  A    between atoms: N_10  and  C_24
    2  A    between atoms: C_12  and  C_24
    3  A    between atoms: C_16  and  C_27
    4  A    between atoms: C_27  and  N_32
                            x       y       z     vdW  Elec       q    Type
                         _______ _______ _______ _____ _____    ______ ____

>  <TORSDO>
F 4

$$$$
=
 OpenBabel11052416563D

 32 36  0  0  1  0  0  0  0  0999 V2000
  190.8020  176.3850  143.7270 N   0  0  0  0  0  0  0  0  0  0  0  0
  186.8770  178.3560  141.2240 C   0  0  0  0  0  0  0  0  0  0  0  0
  183.2010  178.5550  144.4000 C   0  0  0  0  0  3  0  0  0  0  0  0
  182.3670  179.0260  143.3860 C   0  0  0  0  0  3  0  0  0  0  0  0
  189.0820  177.5980  141.8830 C   0  0  0  0  0  0  0  0  0  0  0  0
  187.2950  177.6870  143.5230 C   0  0  0  0  0  3  0  0  0  0  0  0
  189.5790  176.9690  144.2860 C   0  0  0  0  0  0  0  0  0  0  0  0
  184.5400  178.2670  144.1280 C   0  0  0  0  0  3  0  0  0  0  0  0
  186.4070  178.1580  142.5420 C   0  0  0  0  0  0  0  0  0  0  0  0
  185.0610  178.4460  142.8350 C   0  0  0  0  0  0  0  0  0  0  0  0
  184.7330  179.1050  140.5120 C   0  0  0  0  0  0  0  0  0  0  0  0
  191.2660  176.6700  142.4020 C   0  0  0  0  0  3  0  0  0  0  0  0
  188.6270  177.4060  143.2020 C   0  0  0  0  0  0  0  0  0  0  0  0
  190.4640  177.2590  141.5180 C   0  0  0  0  0  3  0  0  0  0  0  0
  182.8680  179.2100  142.0960 C   0  0  0  0  0  3  0  0  0  0  0  0
  184.2110  178.9230  141.8060 C   0  0  0  0  0  0  0  0  0  0  0  0
  188.2060  178.0720  140.9030 C   0  0  0  0  0  3  0  0  0  0  0  0
  186.0370  178.8130  140.2600 N   0  0  0  0  0  0  0  0  0  0  0  0
  189.9360  178.1600  145.1620 C   0  0  0  0  0  2  0  0  0  0  0  0
  189.2940  177.6710  147.5470 C   0  0  0  0  0  0  0  0  0  0  0  0
  189.0070  178.2520  146.2770 N   0  0  0  0  0  2  0  0  0  0  0  0
  190.3750  177.0540  147.7420 O   0  0  0  0  0  0  0  0  0  0  0  0
  188.3080  177.7950  148.6520 C   0  0  0  0  0  1  0  0  0  0  0  0
  183.8730  179.5760  139.3790 C   0  0  0  0  0  2  0  0  0  0  0  0
  183.4010  177.4520  138.4710 C   0  0  2  0  0  3  0  0  0  0  0  0
  183.1360  177.3830  136.9610 C   0  0  0  0  0  2  0  0  0  0  0  0
  181.7740  179.3130  138.3310 C   0  0  1  0  0  3  0  0  0  0  0  0
  180.8590  178.3190  137.6230 C   0  0  0  0  0  2  0  0  0  0  0  0
  181.6410  177.4490  136.6370 C   0  0  0  0  0  2  0  0  0  0  0  0
  182.9650  176.1720  139.1630 C   0  0  0  0  0  1  0  0  0  0  0  0
  180.9660  180.1670  139.1860 N   0  0  0  0  0  1  0  0  0  0  0  0
  182.7960  178.6230  139.1390 N   0  0  0  0  0  0  0  0  0  0  0  0
  1  7  1  0  0  0  0
  2  9  1  0  0  0  0
  4  3  2  0  0  0  0
  5 13  1  0  0  0  0
  7 19  1  0  0  0  0
  8  3  1  0  0  0  0
  9 10  1  0  0  0  0
  9  6  2  0  0  0  0
 10  8  2  0  0  0  0
 11 16  1  0  0  0  0
 12  1  2  0  0  0  0
 13  6  1  0  0  0  0
 13  7  2  0  0  0  0
 14  5  2  0  0  0  0
 14 12  1  0  0  0  0
 15  4  1  0  0  0  0
 16 15  2  0  0  0  0
 16 10  1  0  0  0  0
 17  2  2  0  0  0  0
 17  5  1  0  0  0  0
 18 11  2  0  0  0  0
 18  2  1  0  0  0  0
 19 21  1  0  0  0  0
 20 22  2  0  0  0  0
 20 23  1  0  0  0  0
 21 20  1  0  0  0  0
 24 11  1  0  0  0  0
 25 32  1  0  0  0  0
 25 30  1  1  0  0  0
 26 25  1  0  0  0  0
 27 32  1  0  0  0  0
 27 31  1  1  0  0  0
 28 27  1  0  0  0  0
 29 26  1  0  0  0  0
 29 28  1  0  0  0  0
 32 24  1  0  0  0  0
M  END
>  <MODEL>
2

>  <REMARK>
 VINA RESULT:      -9.6      2.167      3.219
  Name = 
  4 active torsions:
  status: ('A' for Active; 'I' for Inactive)
    1  A    between atoms: N_10  and  C_24
    2  A    between atoms: C_12  and  C_24
    3  A    between atoms: C_16  and  C_27
    4  A    between atoms: C_27  and  N_32
                            x       y       z     vdW  Elec       q    Type
                         _______ _______ _______ _____ _____    ______ ____

>  <TORSDO>
F 4

$$$$
=
 OpenBabel11052416563D

 32 36  0  0  1  0  0  0  0  0999 V2000
  180.0880  178.4090  142.3470 N   0  0  0  0  0  0  0  0  0  0  0  0
  185.1310  178.6850  142.1320 C   0  0  0  0  0  0  0  0  0  0  0  0
  186.3270  178.0890  137.4580 C   0  0  0  0  0  3  0  0  0  0  0  0
  187.6760  178.1370  137.8100 C   0  0  0  0  0  3  0  0  0  0  0  0
  182.8180  178.7650  142.8490 C   0  0  0  0  0  0  0  0  0  0  0  0
  183.3450  178.4790  140.4980 C   0  0  0  0  0  3  0  0  0  0  0  0
  180.9280  178.6350  141.1670 C   0  0  0  0  0  0  0  0  0  0  0  0
  185.3420  178.2150  138.4400 C   0  0  0  0  0  3  0  0  0  0  0  0
  184.7180  178.5140  140.7920 C   0  0  0  0  0  0  0  0  0  0  0  0
  185.6960  178.3880  139.7890 C   0  0  0  0  0  0  0  0  0  0  0  0
  187.4230  178.6110  141.4950 C   0  0  0  0  0  0  0  0  0  0  0  0
  180.5400  178.6600  143.6840 C   0  0  0  0  0  3  0  0  0  0  0  0
  182.3940  178.6030  141.5160 C   0  0  0  0  0  0  0  0  0  0  0  0
  181.8330  178.8450  143.9360 C   0  0  0  0  0  3  0  0  0  0  0  0
  188.0460  178.3090  139.1460 C   0  0  0  0  0  3  0  0  0  0  0  0
  187.0680  178.4350  140.1440 C   0  0  0  0  0  0  0  0  0  0  0  0
  184.1820  178.8070  143.1500 C   0  0  0  0  0  3  0  0  0  0  0  0
  186.4530  178.7250  142.4410 N   0  0  0  0  0  0  0  0  0  0  0  0
  180.5810  179.9770  140.5420 C   0  0  0  0  0  2  0  0  0  0  0  0
  181.1750  180.4320  138.1380 C   0  0  0  0  0  0  0  0  0  0  0  0
  180.3430  179.8130  139.1170 N   0  0  0  0  0  2  0  0  0  0  0  0
  182.1520  181.1470  138.4840 O   0  0  0  0  0  0  0  0  0  0  0  0
  180.8860  180.2310  136.6940 C   0  0  0  0  0  1  0  0  0  0  0  0
  188.8560  178.6360  141.9320 C   0  0  0  0  0  2  0  0  0  0  0  0
  189.1280  177.9210  144.1610 C   0  0  2  0  0  3  0  0  0  0  0  0
  190.5200  178.0960  144.7840 C   0  0  0  0  0  2  0  0  0  0  0  0
  190.4490  176.9350  142.3140 C   0  0  1  0  0  3  0  0  0  0  0  0
  191.0760  176.0430  143.3800 C   0  0  0  0  0  2  0  0  0  0  0  0
  191.3680  176.8280  144.6600 C   0  0  0  0  0  2  0  0  0  0  0  0
  188.2670  176.9920  144.9990 C   0  0  0  0  0  1  0  0  0  0  0  0
  190.2750  176.1610  141.0960 N   0  0  0  0  0  1  0  0  0  0  0  0
  189.1470  177.4680  142.7550 N   0  0  0  0  0  0  0  0  0  0  0  0
  1 12  1  0  0  0  0
  2 18  1  0  0  0  0
  2 17  1  0  0  0  0
  3  4  2  0  0  0  0
  3  8  1  0  0  0  0
  4 15  1  0  0  0  0
  5 17  2  0  0  0  0
  5 14  1  0  0  0  0
  6  9  1  0  0  0  0
  6 13  2  0  0  0  0
  7 13  1  0  0  0  0
  7  1  2  0  0  0  0
  8 10  2  0  0  0  0
  9  2  2  0  0  0  0
 10 16  1  0  0  0  0
 10  9  1  0  0  0  0
 11 24  1  0  0  0  0
 11 18  2  0  0  0  0
 12 14  2  0  0  0  0
 13  5  1  0  0  0  0
 15 16  2  0  0  0  0
 16 11  1  0  0  0  0
 19  7  1  0  0  0  0
 20 22  2  0  0  0  0
 20 21  1  0  0  0  0
 21 19  1  0  0  0  0
 23 20  1  0  0  0  0
 24 32  1  0  0  0  0
 25 26  1  0  0  0  0
 25 30  1  1  0  0  0
 27 31  1  6  0  0  0
 27 32  1  0  0  0  0
 27 28  1  0  0  0  0
 28 29  1  0  0  0  0
 29 26  1  0  0  0  0
 32 25  1  0  0  0  0
M  END
>  <MODEL>
3

>  <REMARK>
 VINA RESULT:      -9.2      2.847      8.836
  Name = 
  4 active torsions:
  status: ('A' for Active; 'I' for Inactive)
    1  A    between atoms: N_10  and  C_24
    2  A    between atoms: C_12  and  C_24
    3  A    between atoms: C_16  and  C_27
    4  A    between atoms: C_27  and  N_32
                            x       y       z     vdW  Elec       q    Type
                         _______ _______ _______ _____ _____    ______ ____

>  <TORSDO>
F 4

$$$$
=
 OpenBabel11052416563D

 32 36  0  0  1  0  0  0  0  0999 V2000
  191.0600  176.5560  142.3040 N   0  0  0  0  0  0  0  0  0  0  0  0
  186.6270  178.5200  140.8720 C   0  0  0  0  0  0  0  0  0  0  0  0
  183.7890  178.4890  144.8190 C   0  0  0  0  0  3  0  0  0  0  0  0
  182.7340  178.9780  144.0490 C   0  0  0  0  0  3  0  0  0  0  0  0
  188.9380  177.7970  140.9660 C   0  0  0  0  0  0  0  0  0  0  0  0
  187.5800  177.7690  142.9770 C   0  0  0  0  0  3  0  0  0  0  0  0
  189.9910  177.0840  143.1570 C   0  0  0  0  0  0  0  0  0  0  0  0
  185.0320  178.2480  144.2310 C   0  0  0  0  0  3  0  0  0  0  0  0
  186.4800  178.2560  142.2520 C   0  0  0  0  0  0  0  0  0  0  0  0
  185.2350  178.4940  142.8620 C   0  0  0  0  0  0  0  0  0  0  0  0
  184.3640  179.2390  140.7110 C   0  0  0  0  0  0  0  0  0  0  0  0
  191.1980  176.9090  140.9210 C   0  0  0  0  0  3  0  0  0  0  0  0
  188.8050  177.5380  142.3440 C   0  0  0  0  0  0  0  0  0  0  0  0
  190.2020  177.5110  140.2750 C   0  0  0  0  0  3  0  0  0  0  0  0
  182.9180  179.2280  142.6870 C   0  0  0  0  0  3  0  0  0  0  0  0
  184.1610  178.9900  142.0810 C   0  0  0  0  0  0  0  0  0  0  0  0
  187.8500  178.2870  140.2390 C   0  0  0  0  0  3  0  0  0  0  0  0
  185.5790  178.9940  140.1510 N   0  0  0  0  0  0  0  0  0  0  0  0
  190.5220  178.2470  143.9800 C   0  0  0  0  0  2  0  0  0  0  0  0
  190.7210  177.1540  146.2400 C   0  0  0  0  0  0  0  0  0  0  0  0
  191.3190  177.7470  145.0880 N   0  0  0  0  0  2  0  0  0  0  0  0
  189.4700  177.0460  146.3300 O   0  0  0  0  0  0  0  0  0  0  0  0
  191.5840  176.6600  147.3440 C   0  0  0  0  0  1  0  0  0  0  0  0
  183.2560  179.7320  139.8310 C   0  0  0  0  0  2  0  0  0  0  0  0
  182.8720  177.7150  138.6740 C   0  0  2  0  0  3  0  0  0  0  0  0
  182.3290  177.8250  137.2420 C   0  0  0  0  0  2  0  0  0  0  0  0
  181.0400  179.3150  139.1330 C   0  0  1  0  0  3  0  0  0  0  0  0
  180.1300  178.3090  138.4360 C   0  0  0  0  0  2  0  0  0  0  0  0
  180.8030  177.7150  137.1980 C   0  0  0  0  0  2  0  0  0  0  0  0
  182.7340  176.2980  139.2050 C   0  0  0  0  0  1  0  0  0  0  0  0
  180.3180  179.9090  140.2460 N   0  0  0  0  0  1  0  0  0  0  0  0
  182.2740  178.6750  139.6230 N   0  0  0  0  0  0  0  0  0  0  0  0
  1  7  1  0  0  0  0
  2  9  1  0  0  0  0
  4  3  2  0  0  0  0
  5 13  1  0  0  0  0
  7 19  1  0  0  0  0
  8  3  1  0  0  0  0
  9 10  1  0  0  0  0
  9  6  2  0  0  0  0
 10  8  2  0  0  0  0
 11 16  1  0  0  0  0
 12  1  2  0  0  0  0
 13  6  1  0  0  0  0
 13  7  2  0  0  0  0
 14 12  1  0  0  0  0
 14  5  2  0  0  0  0
 15  4  1  0  0  0  0
 16 15  2  0  0  0  0
 16 10  1  0  0  0  0
 17  2  2  0  0  0  0
 17  5  1  0  0  0  0
 18 11  2  0  0  0  0
 18  2  1  0  0  0  0
 19 21  1  0  0  0  0
 20 22  2  0  0  0  0
 20 23  1  0  0  0  0
 21 20  1  0  0  0  0
 24 11  1  0  0  0  0
 25 30  1  1  0  0  0
 25 32  1  0  0  0  0
 26 25  1  0  0  0  0
 27 32  1  0  0  0  0
 27 31  1  1  0  0  0
 28 27  1  0  0  0  0
 29 26  1  0  0  0  0
 29 28  1  0  0  0  0
 32 24  1  0  0  0  0
M  END
>  <MODEL>
4

>  <REMARK>
 VINA RESULT:      -9.1      1.823      2.414
  Name = 
  4 active torsions:
  status: ('A' for Active; 'I' for Inactive)
    1  A    between atoms: N_10  and  C_24
    2  A    between atoms: C_12  and  C_24
    3  A    between atoms: C_16  and  C_27
    4  A    between atoms: C_27  and  N_32
                            x       y       z     vdW  Elec       q    Type
                         _______ _______ _______ _____ _____    ______ ____

>  <TORSDO>
F 4

$$$$
=
 OpenBabel11052416563D

 32 36  0  0  1  0  0  0  0  0999 V2000
  189.2830  178.0860  137.1480 N   0  0  0  0  0  0  0  0  0  0  0  0
  188.6960  177.2120  142.0920 C   0  0  0  0  0  0  0  0  0  0  0  0
  184.5190  179.3490  143.3640 C   0  0  0  0  0  3  0  0  0  0  0  0
  184.7510  178.9860  144.6900 C   0  0  0  0  0  3  0  0  0  0  0  0
  189.4620  177.1910  139.7930 C   0  0  0  0  0  0  0  0  0  0  0  0
  187.3590  178.2640  140.3570 C   0  0  0  0  0  3  0  0  0  0  0  0
  188.0580  178.2060  137.9450 C   0  0  0  0  0  0  0  0  0  0  0  0
  185.4380  179.0020  142.3710 C   0  0  0  0  0  3  0  0  0  0  0  0
  187.5420  177.9300  141.7100 C   0  0  0  0  0  0  0  0  0  0  0  0
  186.6040  178.2870  142.6950 C   0  0  0  0  0  0  0  0  0  0  0  0
  188.0030  177.2010  144.3690 C   0  0  0  0  0  0  0  0  0  0  0  0
  190.4020  177.2900  137.5570 C   0  0  0  0  0  3  0  0  0  0  0  0
  188.3100  177.9000  139.3990 C   0  0  0  0  0  0  0  0  0  0  0  0
  190.4950  176.8460  138.8080 C   0  0  0  0  0  3  0  0  0  0  0  0
  185.9040  178.2750  145.0300 C   0  0  0  0  0  3  0  0  0  0  0  0
  186.8380  177.9200  144.0440 C   0  0  0  0  0  0  0  0  0  0  0  0
  189.6480  176.8510  141.1350 C   0  0  0  0  0  3  0  0  0  0  0  0
  188.8930  176.8760  143.3930 N   0  0  0  0  0  0  0  0  0  0  0  0
  187.0000  177.2590  137.4000 C   0  0  0  0  0  2  0  0  0  0  0  0
  184.4870  177.1390  137.5060 C   0  0  0  0  0  0  0  0  0  0  0  0
  185.6940  177.8970  137.4460 N   0  0  0  0  0  2  0  0  0  0  0  0
  184.5180  175.8800  137.5200 O   0  0  0  0  0  0  0  0  0  0  0  0
  183.1780  177.8430  137.5510 C   0  0  0  0  0  1  0  0  0  0  0  0
  188.3190  176.8160  145.7820 C   0  0  0  0  0  2  0  0  0  0  0  0
  190.6640  176.9160  145.5710 C   0  0  2  0  0  3  0  0  0  0  0  0
  191.4850  175.9780  146.4660 C   0  0  0  0  0  2  0  0  0  0  0  0
  189.5330  177.4230  147.7140 C   0  0  1  0  0  3  0  0  0  0  0  0
  190.9290  177.6970  148.2640 C   0  0  0  0  0  2  0  0  0  0  0  0
  191.9390  176.6670  147.7560 C   0  0  0  0  0  2  0  0  0  0  0  0
  191.5410  177.9920  144.9540 C   0  0  0  0  0  1  0  0  0  0  0  0
  188.6030  178.3760  148.2970 N   0  0  0  0  0  1  0  0  0  0  0  0
  189.5020  177.5310  146.2440 N   0  0  0  0  0  0  0  0  0  0  0  0
  1 12  2  0  0  0  0
  1  7  1  0  0  0  0
  2 18  1  0  0  0  0
  3  4  1  0  0  0  0
  4 15  2  0  0  0  0
  5 17  1  0  0  0  0
  6  9  2  0  0  0  0
  7 13  2  0  0  0  0
  8 10  1  0  0  0  0
  8  3  2  0  0  0  0
  9  2  1  0  0  0  0
  9 10  1  0  0  0  0
 10 16  2  0  0  0  0
 11 24  1  0  0  0  0
 12 14  1  0  0  0  0
 13  5  1  0  0  0  0
 13  6  1  0  0  0  0
 14  5  2  0  0  0  0
 16 11  1  0  0  0  0
 16 15  1  0  0  0  0
 17  2  2  0  0  0  0
 18 11  2  0  0  0  0
 19 21  1  0  0  0  0
 19  7  1  0  0  0  0
 20 22  2  0  0  0  0
 20 23  1  0  0  0  0
 21 20  1  0  0  0  0
 24 32  1  0  0  0  0
 25 30  1  1  0  0  0
 25 32  1  0  0  0  0
 25 26  1  0  0  0  0
 26 29  1  0  0  0  0
 27 28  1  0  0  0  0
 27 31  1  1  0  0  0
 29 28  1  0  0  0  0
 32 27  1  0  0  0  0
M  END
>  <MODEL>
5

>  <REMARK>
 VINA RESULT:      -9.0      3.364      7.149
  Name = 
  4 active torsions:
  status: ('A' for Active; 'I' for Inactive)
    1  A    between atoms: N_10  and  C_24
    2  A    between atoms: C_12  and  C_24
    3  A    between atoms: C_16  and  C_27
    4  A    between atoms: C_27  and  N_32
                            x       y       z     vdW  Elec       q    Type
                         _______ _______ _______ _____ _____    ______ ____

>  <TORSDO>
F 4

$$$$
=
 OpenBabel11052416563D

 32 36  0  0  1  0  0  0  0  0999 V2000
  188.6070  178.2560  147.5800 N   0  0  0  0  0  0  0  0  0  0  0  0
  185.5560  178.5460  143.5590 C   0  0  0  0  0  0  0  0  0  0  0  0
  188.4220  178.1740  139.6490 C   0  0  0  0  0  3  0  0  0  0  0  0
  187.3100  178.3730  138.8310 C   0  0  0  0  0  3  0  0  0  0  0  0
  186.4450  178.3580  145.8050 C   0  0  0  0  0  0  0  0  0  0  0  0
  187.9300  178.1480  143.8970 C   0  0  0  0  0  3  0  0  0  0  0  0
  188.8990  177.8640  146.1970 C   0  0  0  0  0  0  0  0  0  0  0  0
  188.2770  178.1640  141.0380 C   0  0  0  0  0  3  0  0  0  0  0  0
  186.8490  178.3490  143.0230 C   0  0  0  0  0  0  0  0  0  0  0  0
  187.0140  178.3540  141.6260 C   0  0  0  0  0  0  0  0  0  0  0  0
  184.6210  178.7440  141.3790 C   0  0  0  0  0  0  0  0  0  0  0  0
  187.2720  178.3790  148.0880 C   0  0  0  0  0  3  0  0  0  0  0  0
  187.7360  178.1520  145.2820 C   0  0  0  0  0  0  0  0  0  0  0  0
  186.2330  178.4160  147.2570 C   0  0  0  0  0  3  0  0  0  0  0  0
  186.0480  178.5630  139.3980 C   0  0  0  0  0  3  0  0  0  0  0  0
  185.8860  178.5570  140.7920 C   0  0  0  0  0  0  0  0  0  0  0  0
  185.3640  178.5520  144.9420 C   0  0  0  0  0  3  0  0  0  0  0  0
  184.4960  178.7380  142.7340 N   0  0  0  0  0  0  0  0  0  0  0  0
  189.2330  176.3810  146.1470 C   0  0  0  0  0  2  0  0  0  0  0  0
  191.5990  176.1750  146.9840 C   0  0  0  0  0  0  0  0  0  0  0  0
  190.1930  176.0540  147.1890 N   0  0  0  0  0  2  0  0  0  0  0  0
  192.0550  176.5740  145.8790 O   0  0  0  0  0  0  0  0  0  0  0  0
  192.5360  175.8270  148.0830 C   0  0  0  0  0  1  0  0  0  0  0  0
  183.4000  178.9950  140.5480 C   0  0  0  0  0  2  0  0  0  0  0  0
  182.4770  177.2100  139.3170 C   0  0  2  0  0  3  0  0  0  0  0  0
  181.2280  177.5140  138.4780 C   0  0  0  0  0  2  0  0  0  0  0  0
  181.1780  178.3870  141.0650 C   0  0  1  0  0  3  0  0  0  0  0  0
  180.0540  177.4090  140.7380 C   0  0  0  0  0  2  0  0  0  0  0  0
  179.9360  177.1810  139.2300 C   0  0  0  0  0  2  0  0  0  0  0  0
  182.6850  175.7130  139.4670 C   0  0  0  0  0  1  0  0  0  0  0  0
  181.1850  178.6320  142.4980 N   0  0  0  0  0  1  0  0  0  0  0  0
  182.4880  177.8610  140.6430 N   0  0  0  0  0  0  0  0  0  0  0  0
  1 12  1  0  0  0  0
  2 17  1  0  0  0  0
  3  8  1  0  0  0  0
  4 15  1  0  0  0  0
  4  3  2  0  0  0  0
  5 14  1  0  0  0  0
  6 13  2  0  0  0  0
  7  1  2  0  0  0  0
  8 10  2  0  0  0  0
  9  2  2  0  0  0  0
  9  6  1  0  0  0  0
 10  9  1  0  0  0  0
 11 18  2  0  0  0  0
 13  5  1  0  0  0  0
 13  7  1  0  0  0  0
 14 12  2  0  0  0  0
 15 16  2  0  0  0  0
 16 11  1  0  0  0  0
 16 10  1  0  0  0  0
 17  5  2  0  0  0  0
 18  2  1  0  0  0  0
 19  7  1  0  0  0  0
 19 21  1  0  0  0  0
 20 21  1  0  0  0  0
 20 23  1  0  0  0  0
 22 20  2  0  0  0  0
 24 32  1  0  0  0  0
 24 11  1  0  0  0  0
 25 30  1  1  0  0  0
 25 32  1  0  0  0  0
 26 29  1  0  0  0  0
 26 25  1  0  0  0  0
 27 31  1  1  0  0  0
 28 27  1  0  0  0  0
 29 28  1  0  0  0  0
 32 27  1  0  0  0  0
M  END
>  <MODEL>
6

>  <REMARK>
 VINA RESULT:      -8.5      2.079      4.386
  Name = 
  4 active torsions:
  status: ('A' for Active; 'I' for Inactive)
    1  A    between atoms: N_10  and  C_24
    2  A    between atoms: C_12  and  C_24
    3  A    between atoms: C_16  and  C_27
    4  A    between atoms: C_27  and  N_32
                            x       y       z     vdW  Elec       q    Type
                         _______ _______ _______ _____ _____    ______ ____

>  <TORSDO>
F 4

$$$$
=
 OpenBabel11052416563D

 32 36  0  0  1  0  0  0  0  0999 V2000
  184.3160  179.3760  145.2900 N   0  0  0  0  0  0  0  0  0  0  0  0
  187.0630  178.0620  141.2540 C   0  0  0  0  0  0  0  0  0  0  0  0
  191.6680  177.7670  142.7830 C   0  0  0  0  0  3  0  0  0  0  0  0
  192.0720  177.4970  141.4760 C   0  0  0  0  0  3  0  0  0  0  0  0
  185.2480  178.5480  142.7840 C   0  0  0  0  0  0  0  0  0  0  0  0
  187.5220  178.4010  143.6160 C   0  0  0  0  0  3  0  0  0  0  0  0
  185.6750  178.8280  145.2650 C   0  0  0  0  0  0  0  0  0  0  0  0
  190.3180  177.9770  143.0700 C   0  0  0  0  0  3  0  0  0  0  0  0
  187.9890  178.1310  142.3190 C   0  0  0  0  0  0  0  0  0  0  0  0
  189.3530  177.9200  142.0490 C   0  0  0  0  0  0  0  0  0  0  0  0
  188.8010  177.5860  139.6990 C   0  0  0  0  0  0  0  0  0  0  0  0
  183.3950  179.2220  144.2020 C   0  0  0  0  0  3  0  0  0  0  0  0
  186.1610  178.6100  143.8540 C   0  0  0  0  0  0  0  0  0  0  0  0
  183.8210  178.8160  143.0080 C   0  0  0  0  0  3  0  0  0  0  0  0
  191.1270  177.4360  140.4490 C   0  0  0  0  0  3  0  0  0  0  0  0
  189.7660  177.6460  140.7210 C   0  0  0  0  0  0  0  0  0  0  0  0
  185.7030  178.2740  141.4920 C   0  0  0  0  0  3  0  0  0  0  0  0
  187.4900  177.7990  139.9930 N   0  0  0  0  0  0  0  0  0  0  0  0
  185.7090  177.5120  146.0260 C   0  0  0  0  0  2  0  0  0  0  0  0
  187.7470  177.6750  147.4960 C   0  0  0  0  0  0  0  0  0  0  0  0
  186.3310  177.7060  147.3250 N   0  0  0  0  0  2  0  0  0  0  0  0
  188.5080  177.4750  146.5120 O   0  0  0  0  0  0  0  0  0  0  0  0
  188.3300  177.8790  148.8480 C   0  0  0  0  0  1  0  0  0  0  0  0
  189.1830  177.3330  138.2730 C   0  0  0  0  0  2  0  0  0  0  0  0
  188.0360  175.7070  137.0100 C   0  0  2  0  0  3  0  0  0  0  0  0
  188.4590  175.5360  135.5450 C   0  0  0  0  0  2  0  0  0  0  0  0
  188.0100  178.0990  136.3730 C   0  0  1  0  0  3  0  0  0  0  0  0
  187.1070  177.6730  135.2190 C   0  0  0  0  0  2  0  0  0  0  0  0
  187.5860  176.3610  134.5950 C   0  0  0  0  0  2  0  0  0  0  0  0
  186.7050  175.0250  137.2790 C   0  0  0  0  0  1  0  0  0  0  0  0
  187.5610  179.3900  136.8680 N   0  0  0  0  0  1  0  0  0  0  0  0
  187.9890  177.1110  137.4660 N   0  0  0  0  0  0  0  0  0  0  0  0
  2 17  2  0  0  0  0
  2  9  1  0  0  0  0
  3  8  1  0  0  0  0
  4  3  2  0  0  0  0
  5 14  2  0  0  0  0
  5 13  1  0  0  0  0
  6 13  1  0  0  0  0
  7  1  1  0  0  0  0
  7 19  1  0  0  0  0
  9  6  2  0  0  0  0
 10  9  1  0  0  0  0
 10  8  2  0  0  0  0
 11 18  2  0  0  0  0
 11 16  1  0  0  0  0
 12  1  2  0  0  0  0
 13  7  2  0  0  0  0
 14 12  1  0  0  0  0
 15 16  2  0  0  0  0
 15  4  1  0  0  0  0
 16 10  1  0  0  0  0
 17  5  1  0  0  0  0
 18  2  1  0  0  0  0
 19 21  1  0  0  0  0
 20 23  1  0  0  0  0
 21 20  1  0  0  0  0
 22 20  2  0  0  0  0
 24 11  1  0  0  0  0
 25 30  1  6  0  0  0
 25 32  1  0  0  0  0
 26 25  1  0  0  0  0
 27 31  1  1  0  0  0
 27 32  1  0  0  0  0
 28 27  1  0  0  0  0
 29 28  1  0  0  0  0
 29 26  1  0  0  0  0
 32 24  1  0  0  0  0
M  END
>  <MODEL>
7

>  <REMARK>
 VINA RESULT:      -8.5      2.859      6.676
  Name = 
  4 active torsions:
  status: ('A' for Active; 'I' for Inactive)
    1  A    between atoms: N_10  and  C_24
    2  A    between atoms: C_12  and  C_24
    3  A    between atoms: C_16  and  C_27
    4  A    between atoms: C_27  and  N_32
                            x       y       z     vdW  Elec       q    Type
                         _______ _______ _______ _____ _____    ______ ____

>  <TORSDO>
F 4

$$$$
=
 OpenBabel11052416563D

 32 36  0  0  1  0  0  0  0  0999 V2000
  187.1110  178.5230  147.4280 N   0  0  0  0  0  0  0  0  0  0  0  0
  185.9310  178.4440  142.5130 C   0  0  0  0  0  0  0  0  0  0  0  0
  190.1200  177.8440  140.1200 C   0  0  0  0  0  3  0  0  0  0  0  0
  189.4310  177.9560  138.9120 C   0  0  0  0  0  3  0  0  0  0  0  0
  185.8430  178.4440  144.9350 C   0  0  0  0  0  0  0  0  0  0  0  0
  187.9650  178.1250  143.8030 C   0  0  0  0  0  3  0  0  0  0  0  0
  187.9280  178.0350  146.3130 C   0  0  0  0  0  0  0  0  0  0  0  0
  189.4290  177.9340  141.3300 C   0  0  0  0  0  3  0  0  0  0  0  0
  187.3270  178.2360  142.5560 C   0  0  0  0  0  0  0  0  0  0  0  0
  188.0390  178.1400  141.3470 C   0  0  0  0  0  0  0  0  0  0  0  0
  185.9490  178.4580  140.1330 C   0  0  0  0  0  0  0  0  0  0  0  0
  185.6850  178.6550  147.3490 C   0  0  0  0  0  3  0  0  0  0  0  0
  187.2330  178.2280  144.9900 C   0  0  0  0  0  0  0  0  0  0  0  0
  185.0670  178.6060  146.1710 C   0  0  0  0  0  3  0  0  0  0  0  0
  188.0490  178.1600  138.9090 C   0  0  0  0  0  3  0  0  0  0  0  0
  187.3420  178.2550  140.1180 C   0  0  0  0  0  0  0  0  0  0  0  0
  185.2000  178.5500  143.6990 C   0  0  0  0  0  3  0  0  0  0  0  0
  185.2920  178.5510  141.3200 N   0  0  0  0  0  0  0  0  0  0  0  0
  188.2400  176.5610  146.5160 C   0  0  0  0  0  2  0  0  0  0  0  0
  190.7400  176.5280  146.8170 C   0  0  0  0  0  0  0  0  0  0  0  0
  189.4220  176.4140  147.3500 N   0  0  0  0  0  2  0  0  0  0  0  0
  190.9190  176.7630  145.5920 O   0  0  0  0  0  0  0  0  0  0  0  0
  191.9130  176.3690  147.7150 C   0  0  0  0  0  1  0  0  0  0  0  0
  185.1660  178.6190  138.8660 C   0  0  0  0  0  2  0  0  0  0  0  0
  183.3970  177.0680  138.7280 C   0  0  2  0  0  3  0  0  0  0  0  0
  182.6560  176.9730  137.3870 C   0  0  0  0  0  2  0  0  0  0  0  0
  183.0270  179.4910  138.3780 C   0  0  1  0  0  3  0  0  0  0  0  0
  181.5570  179.1310  138.1850 C   0  0  0  0  0  2  0  0  0  0  0  0
  181.4020  177.8520  137.3610 C   0  0  0  0  0  2  0  0  0  0  0  0
  182.6170  176.3790  139.8340 C   0  0  0  0  0  1  0  0  0  0  0  0
  183.1110  180.7560  139.0890 N   0  0  0  0  0  1  0  0  0  0  0  0
  183.7430  178.4460  139.1320 N   0  0  0  0  0  0  0  0  0  0  0  0
  2  9  2  0  0  0  0
  2 17  1  0  0  0  0
  3  8  1  0  0  0  0
  4  3  2  0  0  0  0
  5 13  1  0  0  0  0
  5 14  1  0  0  0  0
  6 13  2  0  0  0  0
  7 19  1  0  0  0  0
  7  1  2  0  0  0  0
  8 10  2  0  0  0  0
  9  6  1  0  0  0  0
 10  9  1  0  0  0  0
 11 18  2  0  0  0  0
 12  1  1  0  0  0  0
 13  7  1  0  0  0  0
 14 12  2  0  0  0  0
 15  4  1  0  0  0  0
 15 16  2  0  0  0  0
 16 11  1  0  0  0  0
 16 10  1  0  0  0  0
 17  5  2  0  0  0  0
 18  2  1  0  0  0  0
 19 21  1  0  0  0  0
 20 21  1  0  0  0  0
 20 23  1  0  0  0  0
 22 20  2  0  0  0  0
 24 32  1  0  0  0  0
 24 11  1  0  0  0  0
 25 32  1  0  0  0  0
 25 30  1  1  0  0  0
 26 25  1  0  0  0  0
 27 31  1  1  0  0  0
 27 32  1  0  0  0  0
 28 27  1  0  0  0  0
 29 26  1  0  0  0  0
 29 28  1  0  0  0  0
M  END
>  <MODEL>
8

>  <REMARK>
 VINA RESULT:      -8.5      2.440      4.950
  Name = 
  4 active torsions:
  status: ('A' for Active; 'I' for Inactive)
    1  A    between atoms: N_10  and  C_24
    2  A    between atoms: C_12  and  C_24
    3  A    between atoms: C_16  and  C_27
    4  A    between atoms: C_27  and  N_32
                            x       y       z     vdW  Elec       q    Type
                         _______ _______ _______ _____ _____    ______ ____

>  <TORSDO>
F 4

$$$$
=
 OpenBabel11052416563D

 32 36  0  0  1  0  0  0  0  0999 V2000
  189.7440  178.1380  137.2550 N   0  0  0  0  0  0  0  0  0  0  0  0
  187.8770  177.4170  141.8980 C   0  0  0  0  0  0  0  0  0  0  0  0
  183.3930  179.2950  141.8660 C   0  0  0  0  0  3  0  0  0  0  0  0
  183.2740  179.0020  143.2240 C   0  0  0  0  0  3  0  0  0  0  0  0
  189.2430  177.3620  139.8970 C   0  0  0  0  0  0  0  0  0  0  0  0
  187.0080  178.3010  139.8080 C   0  0  0  0  0  3  0  0  0  0  0  0
  188.3430  178.2000  137.6820 C   0  0  0  0  0  0  0  0  0  0  0  0
  184.5680  178.9770  141.1810 C   0  0  0  0  0  3  0  0  0  0  0  0
  186.8320  178.0350  141.1760 C   0  0  0  0  0  0  0  0  0  0  0  0
  185.6400  178.3610  141.8490 C   0  0  0  0  0  0  0  0  0  0  0  0
  186.5890  177.4450  143.8980 C   0  0  0  0  0  0  0  0  0  0  0  0
  190.7540  177.4420  137.9970 C   0  0  0  0  0  3  0  0  0  0  0  0
  188.2050  177.9700  139.1660 C   0  0  0  0  0  0  0  0  0  0  0  0
  190.5250  177.0550  139.2500 C   0  0  0  0  0  3  0  0  0  0  0  0
  184.3300  178.3890  143.9040 C   0  0  0  0  0  3  0  0  0  0  0  0
  185.5170  178.0650  143.2290 C   0  0  0  0  0  0  0  0  0  0  0  0
  189.0740  177.0890  141.2560 C   0  0  0  0  0  3  0  0  0  0  0  0
  187.7290  177.1470  143.2200 N   0  0  0  0  0  0  0  0  0  0  0  0
  187.5320  177.1600  136.9260 C   0  0  0  0  0  2  0  0  0  0  0  0
  188.2760  174.8180  136.3750 C   0  0  0  0  0  0  0  0  0  0  0  0
  187.9410  175.8240  137.3290 N   0  0  0  0  0  2  0  0  0  0  0  0
  188.2270  175.0610  135.1400 O   0  0  0  0  0  0  0  0  0  0  0  0
  188.6870  173.4680  136.8430 C   0  0  0  0  0  1  0  0  0  0  0  0
  186.5270  177.1380  145.3630 C   0  0  0  0  0  2  0  0  0  0  0  0
  188.6790  177.3500  146.3030 C   0  0  2  0  0  3  0  0  0  0  0  0
  188.8790  176.7950  147.7190 C   0  0  0  0  0  2  0  0  0  0  0  0
  186.6970  178.3950  147.3550 C   0  0  1  0  0  3  0  0  0  0  0  0
  187.6670  178.9310  148.4020 C   0  0  0  0  0  2  0  0  0  0  0  0
  188.7050  177.8760  148.7890 C   0  0  0  0  0  2  0  0  0  0  0  0
  189.8330  178.2510  145.9000 C   0  0  0  0  0  1  0  0  0  0  0  0
  185.6850  179.4060  147.0920 N   0  0  0  0  0  1  0  0  0  0  0  0
  187.3930  178.0490  146.1030 N   0  0  0  0  0  0  0  0  0  0  0  0
  1  7  2  0  0  0  0
  1 12  1  0  0  0  0
  2 18  1  0  0  0  0
  3  4  1  0  0  0  0
  4 15  2  0  0  0  0
  5 17  1  0  0  0  0
  6  9  2  0  0  0  0
  7 13  1  0  0  0  0
  8 10  1  0  0  0  0
  8  3  2  0  0  0  0
  9 10  1  0  0  0  0
  9  2  1  0  0  0  0
 10 16  2  0  0  0  0
 11 24  1  0  0  0  0
 12 14  2  0  0  0  0
 13  6  1  0  0  0  0
 13  5  2  0  0  0  0
 14  5  1  0  0  0  0
 16 11  1  0  0  0  0
 16 15  1  0  0  0  0
 17  2  2  0  0  0  0
 18 11  2  0  0  0  0
 19 21  1  0  0  0  0
 19  7  1  0  0  0  0
 20 23  1  0  0  0  0
 20 21  1  0  0  0  0
 22 20  2  0  0  0  0
 24 32  1  0  0  0  0
 25 30  1  1  0  0  0
 25 26  1  0  0  0  0
 26 29  1  0  0  0  0
 27 31  1  6  0  0  0
 27 28  1  0  0  0  0
 28 29  1  0  0  0  0
 32 25  1  0  0  0  0
 32 27  1  0  0  0  0
M  END
>  <MODEL>
9

>  <REMARK>
 VINA RESULT:      -8.4      3.015      6.231
  Name = 
  4 active torsions:
  status: ('A' for Active; 'I' for Inactive)
    1  A    between atoms: N_10  and  C_24
    2  A    between atoms: C_12  and  C_24
    3  A    between atoms: C_16  and  C_27
    4  A    between atoms: C_27  and  N_32
                            x       y       z     vdW  Elec       q    Type
                         _______ _______ _______ _____ _____    ______ ____

>  <TORSDO>
F 4

$$$$
