=
 OpenBabel11052416473D

 32 38  0  0  1  0  0  0  0  0999 V2000
  185.9550  178.6660  137.7800 O   0  0  0  0  0  0  0  0  0  0  0  0
  187.2380  178.0400  142.2210 C   0  0  0  0  0  0  0  0  0  0  0  0
  183.6650  178.9970  145.4570 C   0  0  0  0  0  3  0  0  0  0  0  0
  184.4590  178.5850  146.4570 C   0  0  0  0  0  3  0  0  0  0  0  0
  189.4910  177.3000  143.3400 C   0  0  2  0  0  3  0  0  0  0  0  0
  190.5210  178.3400  142.8180 C   0  0  2  0  0  3  0  0  0  0  0  0
  186.6760  177.9550  139.8000 C   0  0  1  0  0  3  0  0  0  0  0  0
  184.9250  178.6690  141.3000 C   0  0  0  0  0  2  0  0  0  0  0  0
  190.7980  177.4360  145.6460 C   0  0  2  0  0  3  0  0  0  0  0  0
  185.0250  179.0730  138.7700 C   0  0  0  0  0  2  0  0  0  0  0  0
  183.8750  178.5000  144.0480 C   0  0  0  0  0  2  0  0  0  0  0  0
  185.8590  178.3510  142.4590 C   0  0  0  0  0  0  0  0  0  0  0  0
  185.3380  178.2570  143.7700 C   0  0  0  0  0  0  0  0  0  0  0  0
  187.5110  177.5610  144.5680 C   0  0  0  0  0  0  0  0  0  0  0  0
  191.9230  178.0130  144.8170 C   0  0  0  0  0  2  0  0  0  0  0  0
  185.7400  179.0500  140.0770 C   0  0  2  0  0  3  0  0  0  0  0  0
  191.3270  179.0450  143.8930 C   0  0  0  0  0  2  0  0  0  0  0  0
  187.0680  178.1860  138.4280 N   0  0  0  0  0  0  0  0  0  0  0  0
  185.5850  177.6190  146.2010 C   0  0  0  0  0  2  0  0  0  0  0  0
  186.1690  177.8340  144.8310 C   0  0  0  0  0  0  0  0  0  0  0  0
  188.4210  176.9890  145.4860 N   0  0  0  0  0  2  0  0  0  0  0  0
  187.8080  178.0390  140.8120 C   0  0  0  0  0  2  0  0  0  0  0  0
  189.9670  179.2830  141.9760 F   0  0  0  0  0  0  0  0  0  0  0  0
  191.3550  176.4350  146.6370 C   0  0  0  0  0  1  0  0  0  0  0  0
  188.0550  177.7330  143.3220 C   0  0  0  0  0  0  0  0  0  0  0  0
  189.6960  176.7790  144.8060 C   0  0  1  0  0  3  0  0  0  0  0  0
  187.3720  176.8860  137.8440 C   0  0  0  0  0  2  0  0  0  0  0  0
  188.6520  176.9620  137.0220 C   0  0  0  0  0  2  0  0  0  0  0  0
  189.8010  177.5410  137.8360 C   0  0  0  0  0  2  0  0  0  0  0  0
  190.4620  176.4560  138.6660 C   0  0  0  0  0  3  0  0  0  0  0  0
  191.5540  177.0800  139.5130 C   0  0  0  0  0  2  0  0  0  0  0  0
  191.9130  176.3320  138.2470 C   0  0  0  0  0  2  0  0  0  0  0  0
  1 18  1  0  0  0  0
  1 10  1  0  0  0  0
  2 12  2  0  0  0  0
  2 25  1  0  0  0  0
  3  4  2  0  0  0  0
  5 25  1  1  0  0  0
  5 26  1  0  0  0  0
  6 23  1  1  0  0  0
  6  5  1  0  0  0  0
  6 17  1  0  0  0  0
  7 16  1  0  0  0  0
  7 22  1  1  0  0  0
  8 12  1  0  0  0  0
  9 24  1  1  0  0  0
 11  3  1  0  0  0  0
 12 13  1  0  0  0  0
 13 11  1  0  0  0  0
 13 20  2  0  0  0  0
 14 20  1  0  0  0  0
 14 21  1  0  0  0  0
 15  9  1  0  0  0  0
 16 10  1  6  0  0  0
 16  8  1  0  0  0  0
 17 15  1  0  0  0  0
 18  7  1  0  0  0  0
 19  4  1  0  0  0  0
 20 19  1  0  0  0  0
 22  2  1  0  0  0  0
 25 14  2  0  0  0  0
 26 21  1  1  0  0  0
 26  9  1  0  0  0  0
 27 18  1  0  0  0  0
 28 29  1  0  0  0  0
 28 27  1  0  0  0  0
 29 30  1  0  0  0  0
 30 31  1  0  0  0  0
 32 30  1  0  0  0  0
 32 31  1  0  0  0  0
M  END
>  <MODEL>
1

>  <REMARK>
 VINA RESULT:      -8.9      0.000      0.000
  Name = 
  4 active torsions:
  status: ('A' for Active; 'I' for Inactive)
    1  A    between atoms: C_1  and  C_10
    2  A    between atoms: C_10  and  C_19
    3  A    between atoms: C_19  and  C_24
    4  A    between atoms: N_23  and  C_24
                            x       y       z     vdW  Elec       q    Type
                         _______ _______ _______ _____ _____    ______ ____

>  <TORSDO>
F 4

$$$$
=
 OpenBabel11052416473D

 32 38  0  0  1  0  0  0  0  0999 V2000
  182.1930  178.9370  141.0210 O   0  0  0  0  0  0  0  0  0  0  0  0
  186.1610  177.9070  143.2450 C   0  0  0  0  0  0  0  0  0  0  0  0
  186.1150  179.0990  148.0130 C   0  0  0  0  0  3  0  0  0  0  0  0
  187.3230  178.5390  148.1660 C   0  0  0  0  0  3  0  0  0  0  0  0
  188.4240  176.8380  142.4580 C   0  0  2  0  0  3  0  0  0  0  0  0
  188.8940  177.7750  141.3100 C   0  0  2  0  0  3  0  0  0  0  0  0
  184.0400  178.0290  141.9550 C   0  0  1  0  0  3  0  0  0  0  0  0
  183.9860  178.8610  144.2190 C   0  0  0  0  0  2  0  0  0  0  0  0
  190.9850  176.6840  143.1350 C   0  0  2  0  0  3  0  0  0  0  0  0
  182.3050  179.3960  142.3580 C   0  0  0  0  0  2  0  0  0  0  0  0
  185.1960  178.6620  146.9000 C   0  0  0  0  0  2  0  0  0  0  0  0
  185.4170  178.3680  144.3800 C   0  0  0  0  0  0  0  0  0  0  0  0
  185.9780  178.2620  145.6730 C   0  0  0  0  0  0  0  0  0  0  0  0
  187.9610  177.2650  144.7160 C   0  0  0  0  0  0  0  0  0  0  0  0
  191.2450  177.1670  141.7260 C   0  0  0  0  0  2  0  0  0  0  0  0
  183.7270  179.2110  142.7650 C   0  0  2  0  0  3  0  0  0  0  0  0
  190.3040  178.3150  141.4570 C   0  0  0  0  0  2  0  0  0  0  0  0
  183.3630  178.2890  140.7040 N   0  0  0  0  0  0  0  0  0  0  0  0
  187.7990  177.4600  147.2290 C   0  0  0  0  0  2  0  0  0  0  0  0
  187.2550  177.6820  145.8440 C   0  0  0  0  0  0  0  0  0  0  0  0
  189.1720  176.5360  144.7370 N   0  0  0  0  0  2  0  0  0  0  0  0
  185.5540  177.9180  141.8530 C   0  0  0  0  0  2  0  0  0  0  0  0
  188.0300  178.8250  141.0720 F   0  0  0  0  0  0  0  0  0  0  0  0
  191.9500  175.5670  143.4780 C   0  0  0  0  0  1  0  0  0  0  0  0
  187.4720  177.4410  143.4480 C   0  0  0  0  0  0  0  0  0  0  0  0
  189.5430  176.2130  143.3620 C   0  0  1  0  0  3  0  0  0  0  0  0
  182.9950  176.9990  140.1380 C   0  0  0  0  0  2  0  0  0  0  0  0
  183.2500  176.9870  138.6370 C   0  0  0  0  0  2  0  0  0  0  0  0
  184.3540  177.9620  138.2540 C   0  0  0  0  0  2  0  0  0  0  0  0
  185.5600  177.2140  137.7160 C   0  0  0  0  0  3  0  0  0  0  0  0
  186.8220  177.9040  138.1950 C   0  0  0  0  0  2  0  0  0  0  0  0
  186.3280  178.1270  136.7820 C   0  0  0  0  0  2  0  0  0  0  0  0
  1 10  1  0  0  0  0
  2 25  2  0  0  0  0
  2 12  1  0  0  0  0
  3  4  2  0  0  0  0
  5 26  1  0  0  0  0
  5 25  1  1  0  0  0
  6 23  1  1  0  0  0
  6 17  1  0  0  0  0
  6  5  1  0  0  0  0
  7 22  1  6  0  0  0
  7 16  1  0  0  0  0
  8 12  1  0  0  0  0
  9 26  1  0  0  0  0
  9 24  1  6  0  0  0
 11  3  1  0  0  0  0
 12 13  2  0  0  0  0
 13 20  1  0  0  0  0
 13 11  1  0  0  0  0
 14 21  1  0  0  0  0
 14 20  2  0  0  0  0
 15  9  1  0  0  0  0
 16 10  1  1  0  0  0
 16  8  1  0  0  0  0
 17 15  1  0  0  0  0
 18  1  1  0  0  0  0
 18  7  1  0  0  0  0
 19  4  1  0  0  0  0
 20 19  1  0  0  0  0
 22  2  1  0  0  0  0
 25 14  1  0  0  0  0
 26 21  1  1  0  0  0
 27 18  1  0  0  0  0
 28 27  1  0  0  0  0
 29 28  1  0  0  0  0
 30 31  1  0  0  0  0
 30 29  1  0  0  0  0
 32 30  1  0  0  0  0
 32 31  1  0  0  0  0
M  END
>  <MODEL>
2

>  <REMARK>
 VINA RESULT:      -8.5      2.163      3.448
  Name = 
  4 active torsions:
  status: ('A' for Active; 'I' for Inactive)
    1  A    between atoms: C_1  and  C_10
    2  A    between atoms: C_10  and  C_19
    3  A    between atoms: C_19  and  C_24
    4  A    between atoms: N_23  and  C_24
                            x       y       z     vdW  Elec       q    Type
                         _______ _______ _______ _____ _____    ______ ____

>  <TORSDO>
F 4

$$$$
=
 OpenBabel11052416473D

 32 38  0  0  1  0  0  0  0  0999 V2000
  181.9680  178.8870  141.3320 O   0  0  0  0  0  0  0  0  0  0  0  0
  186.0560  177.9140  143.3570 C   0  0  0  0  0  0  0  0  0  0  0  0
  186.2410  179.1420  148.1120 C   0  0  0  0  0  3  0  0  0  0  0  0
  187.4620  178.5950  148.2070 C   0  0  0  0  0  3  0  0  0  0  0  0
  188.2860  176.8610  142.4620 C   0  0  2  0  0  3  0  0  0  0  0  0
  188.6870  177.7940  141.2850 C   0  0  2  0  0  3  0  0  0  0  0  0
  183.8700  178.0050  142.1760 C   0  0  1  0  0  3  0  0  0  0  0  0
  183.9240  178.8540  144.4340 C   0  0  0  0  0  2  0  0  0  0  0  0
  190.8800  176.7370  143.0080 C   0  0  2  0  0  3  0  0  0  0  0  0
  182.1440  179.3570  142.6580 C   0  0  0  0  0  2  0  0  0  0  0  0
  185.2710  178.6870  147.0500 C   0  0  0  0  0  2  0  0  0  0  0  0
  185.3660  178.3760  144.5250 C   0  0  0  0  0  0  0  0  0  0  0  0
  185.9940  178.2850  145.7890 C   0  0  0  0  0  0  0  0  0  0  0  0
  187.9350  177.3000  144.7380 C   0  0  0  0  0  0  0  0  0  0  0  0
  191.0620  177.2120  141.5840 C   0  0  0  0  0  2  0  0  0  0  0  0
  183.5870  179.1900  142.9930 C   0  0  2  0  0  3  0  0  0  0  0  0
  190.0970  178.3490  141.3560 C   0  0  0  0  0  2  0  0  0  0  0  0
  183.1280  178.2490  140.9600 N   0  0  0  0  0  0  0  0  0  0  0  0
  187.9000  177.5130  147.2540 C   0  0  0  0  0  2  0  0  0  0  0  0
  187.2830  177.7190  145.8980 C   0  0  0  0  0  0  0  0  0  0  0  0
  189.1520  176.5830  144.7020 N   0  0  0  0  0  2  0  0  0  0  0  0
  185.3780  177.9080  141.9970 C   0  0  0  0  0  2  0  0  0  0  0  0
  187.8010  178.8330  141.0840 F   0  0  0  0  0  0  0  0  0  0  0  0
  191.8720  175.6330  143.3090 C   0  0  0  0  0  1  0  0  0  0  0  0
  187.3790  177.4620  143.4960 C   0  0  0  0  0  0  0  0  0  0  0  0
  189.4560  176.2540  143.3120 C   0  0  1  0  0  3  0  0  0  0  0  0
  182.7440  176.9500  140.4230 C   0  0  0  0  0  2  0  0  0  0  0  0
  183.2050  176.8180  138.9780 C   0  0  0  0  0  2  0  0  0  0  0  0
  182.7690  175.4900  138.3750 C   0  0  0  0  0  2  0  0  0  0  0  0
  183.7190  175.0730  137.2670 C   0  0  0  0  0  3  0  0  0  0  0  0
  183.3240  173.6970  136.7710 C   0  0  0  0  0  2  0  0  0  0  0  0
  184.4940  173.8520  137.7180 C   0  0  0  0  0  2  0  0  0  0  0  0
  1 10  1  0  0  0  0
  2 25  2  0  0  0  0
  2 12  1  0  0  0  0
  3  4  2  0  0  0  0
  5 26  1  0  0  0  0
  5 25  1  1  0  0  0
  6 23  1  1  0  0  0
  6 17  1  0  0  0  0
  6  5  1  0  0  0  0
  7 22  1  6  0  0  0
  7 16  1  0  0  0  0
  8 12  1  0  0  0  0
  9 24  1  6  0  0  0
  9 26  1  0  0  0  0
 11  3  1  0  0  0  0
 12 13  2  0  0  0  0
 13 20  1  0  0  0  0
 13 11  1  0  0  0  0
 14 20  2  0  0  0  0
 15  9  1  0  0  0  0
 16 10  1  1  0  0  0
 16  8  1  0  0  0  0
 17 15  1  0  0  0  0
 18  1  1  0  0  0  0
 18  7  1  0  0  0  0
 19  4  1  0  0  0  0
 20 19  1  0  0  0  0
 21 14  1  0  0  0  0
 22  2  1  0  0  0  0
 25 14  1  0  0  0  0
 26 21  1  1  0  0  0
 27 18  1  0  0  0  0
 28 27  1  0  0  0  0
 29 28  1  0  0  0  0
 30 32  1  0  0  0  0
 30 29  1  0  0  0  0
 31 30  1  0  0  0  0
 31 32  1  0  0  0  0
M  END
>  <MODEL>
3

>  <REMARK>
 VINA RESULT:      -8.0      2.573      4.138
  Name = 
  4 active torsions:
  status: ('A' for Active; 'I' for Inactive)
    1  A    between atoms: C_1  and  C_10
    2  A    between atoms: C_10  and  C_19
    3  A    between atoms: C_19  and  C_24
    4  A    between atoms: N_23  and  C_24
                            x       y       z     vdW  Elec       q    Type
                         _______ _______ _______ _____ _____    ______ ____

>  <TORSDO>
F 4

$$$$
=
 OpenBabel11052416473D

 32 38  0  0  1  0  0  0  0  0999 V2000
  188.8080  177.5190  136.8060 O   0  0  0  0  0  0  0  0  0  0  0  0
  188.3320  177.6110  141.4450 C   0  0  0  0  0  0  0  0  0  0  0  0
  184.1000  179.6030  142.9530 C   0  0  0  0  0  3  0  0  0  0  0  0
  184.4080  179.2990  144.2230 C   0  0  0  0  0  3  0  0  0  0  0  0
  189.8810  176.8320  143.4140 C   0  0  2  0  0  3  0  0  0  0  0  0
  191.2000  177.6190  143.1780 C   0  0  2  0  0  3  0  0  0  0  0  0
  188.6390  177.1280  139.0260 C   0  0  1  0  0  3  0  0  0  0  0  0
  186.6400  178.3270  139.6520 C   0  0  0  0  0  2  0  0  0  0  0  0
  190.3080  177.2510  146.0000 C   0  0  2  0  0  3  0  0  0  0  0  0
  187.6830  178.2200  137.3120 C   0  0  0  0  0  2  0  0  0  0  0  0
  184.6910  178.8210  141.8060 C   0  0  0  0  0  2  0  0  0  0  0  0
  187.0390  178.1280  141.1070 C   0  0  0  0  0  0  0  0  0  0  0  0
  186.0880  178.3530  142.1290 C   0  0  0  0  0  0  0  0  0  0  0  0
  187.6820  177.5650  143.7660 C   0  0  0  0  0  0  0  0  0  0  0  0
  191.7370  177.5150  145.5800 C   0  0  0  0  0  2  0  0  0  0  0  0
  187.8840  178.3620  138.7820 C   0  0  2  0  0  3  0  0  0  0  0  0
  191.6980  178.4150  144.3700 C   0  0  0  0  0  2  0  0  0  0  0  0
  189.5180  177.0400  137.8810 N   0  0  0  0  0  0  0  0  0  0  0  0
  185.3550  178.1710  144.5390 C   0  0  0  0  0  2  0  0  0  0  0  0
  186.4070  178.0450  143.4700 C   0  0  0  0  0  0  0  0  0  0  0  0
  188.0950  177.0750  145.0260 N   0  0  0  0  0  2  0  0  0  0  0  0
  189.3450  177.2680  140.3660 C   0  0  0  0  0  2  0  0  0  0  0  0
  191.1560  178.4420  142.0710 F   0  0  0  0  0  0  0  0  0  0  0  0
  190.2930  176.4000  147.2530 C   0  0  0  0  0  1  0  0  0  0  0  0
  188.6460  177.4250  142.8020 C   0  0  0  0  0  0  0  0  0  0  0  0
  189.4650  176.5840  144.9060 C   0  0  1  0  0  3  0  0  0  0  0  0
  189.7610  175.6260  137.6340 C   0  0  0  0  0  2  0  0  0  0  0  0
  190.3100  175.4210  136.2290 C   0  0  0  0  0  2  0  0  0  0  0  0
  191.8270  175.2970  136.2370 C   0  0  0  0  0  2  0  0  0  0  0  0
  192.3130  174.8170  137.5920 C   0  0  0  0  0  3  0  0  0  0  0  0
  193.5660  175.5830  137.9670 C   0  0  0  0  0  2  0  0  0  0  0  0
  193.6750  174.1740  137.4260 C   0  0  0  0  0  2  0  0  0  0  0  0
  1 10  1  0  0  0  0
  1 18  1  0  0  0  0
  2 25  1  0  0  0  0
  3  4  2  0  0  0  0
  4 19  1  0  0  0  0
  5 25  1  6  0  0  0
  5 26  1  0  0  0  0
  6 23  1  6  0  0  0
  6  5  1  0  0  0  0
  6 17  1  0  0  0  0
  7 22  1  1  0  0  0
  8 12  1  0  0  0  0
  9 24  1  1  0  0  0
 11 13  1  0  0  0  0
 11  3  1  0  0  0  0
 12  2  2  0  0  0  0
 12 13  1  0  0  0  0
 13 20  2  0  0  0  0
 14 21  1  0  0  0  0
 15  9  1  0  0  0  0
 16 10  1  6  0  0  0
 16  7  1  0  0  0  0
 16  8  1  0  0  0  0
 17 15  1  0  0  0  0
 18  7  1  0  0  0  0
 20 14  1  0  0  0  0
 20 19  1  0  0  0  0
 22  2  1  0  0  0  0
 25 14  2  0  0  0  0
 26 21  1  6  0  0  0
 26  9  1  0  0  0  0
 27 18  1  0  0  0  0
 28 29  1  0  0  0  0
 28 27  1  0  0  0  0
 29 30  1  0  0  0  0
 30 31  1  0  0  0  0
 32 30  1  0  0  0  0
 32 31  1  0  0  0  0
M  END
>  <MODEL>
4

>  <REMARK>
 VINA RESULT:      -7.9      1.506      2.081
  Name = 
  4 active torsions:
  status: ('A' for Active; 'I' for Inactive)
    1  A    between atoms: C_1  and  C_10
    2  A    between atoms: C_10  and  C_19
    3  A    between atoms: C_19  and  C_24
    4  A    between atoms: N_23  and  C_24
                            x       y       z     vdW  Elec       q    Type
                         _______ _______ _______ _____ _____    ______ ____

>  <TORSDO>
F 4

$$$$
=
 OpenBabel11052416473D

 32 38  0  0  1  0  0  0  0  0999 V2000
  189.7100  177.4860  136.6940 O   0  0  0  0  0  0  0  0  0  0  0  0
  188.7380  177.5600  141.2550 C   0  0  0  0  0  0  0  0  0  0  0  0
  184.3290  179.4620  142.3000 C   0  0  0  0  0  3  0  0  0  0  0  0
  184.5040  179.1630  143.5950 C   0  0  0  0  0  3  0  0  0  0  0  0
  190.0820  176.8090  143.3790 C   0  0  2  0  0  3  0  0  0  0  0  0
  191.4030  177.6230  143.2860 C   0  0  2  0  0  3  0  0  0  0  0  0
  189.3120  177.0890  138.8830 C   0  0  1  0  0  3  0  0  0  0  0  0
  187.2330  178.2450  139.2910 C   0  0  0  0  0  2  0  0  0  0  0  0
  190.2210  177.2320  145.9950 C   0  0  2  0  0  3  0  0  0  0  0  0
  188.5240  178.1630  137.0760 C   0  0  0  0  0  2  0  0  0  0  0  0
  185.0540  178.6950  141.2230 C   0  0  0  0  0  2  0  0  0  0  0  0
  187.4780  178.0510  140.7800 C   0  0  0  0  0  0  0  0  0  0  0  0
  186.4190  178.2550  141.6940 C   0  0  0  0  0  0  0  0  0  0  0  0
  187.8430  177.4970  143.4930 C   0  0  0  0  0  0  0  0  0  0  0  0
  191.6810  177.5260  145.7310 C   0  0  0  0  0  2  0  0  0  0  0  0
  188.5620  178.3070  138.5590 C   0  0  2  0  0  3  0  0  0  0  0  0
  191.7530  178.4270  144.5240 C   0  0  0  0  0  2  0  0  0  0  0  0
  190.3100  177.0210  137.8390 N   0  0  0  0  0  0  0  0  0  0  0  0
  185.4350  178.0540  144.0110 C   0  0  0  0  0  2  0  0  0  0  0  0
  186.5970  177.9510  143.0620 C   0  0  0  0  0  0  0  0  0  0  0  0
  188.1290  177.0120  144.7900 N   0  0  0  0  0  2  0  0  0  0  0  0
  189.8670  177.2400  140.2910 C   0  0  0  0  0  2  0  0  0  0  0  0
  191.4610  178.4470  142.1790 F   0  0  0  0  0  0  0  0  0  0  0  0
  190.0880  176.3780  147.2400 C   0  0  0  0  0  1  0  0  0  0  0  0
  188.9070  177.3780  142.6380 C   0  0  0  0  0  0  0  0  0  0  0  0
  189.5130  176.5500  144.8180 C   0  0  1  0  0  3  0  0  0  0  0  0
  190.6080  175.6120  137.6200 C   0  0  0  0  0  2  0  0  0  0  0  0
  189.8850  175.1050  136.3790 C   0  0  0  0  0  2  0  0  0  0  0  0
  188.7240  174.1920  136.7470 C   0  0  0  0  0  2  0  0  0  0  0  0
  187.4360  174.6920  136.1190 C   0  0  0  0  0  3  0  0  0  0  0  0
  186.4370  174.9970  137.2180 C   0  0  0  0  0  2  0  0  0  0  0  0
  186.3250  173.7100  136.4290 C   0  0  0  0  0  2  0  0  0  0  0  0
  1 10  1  0  0  0  0
  1 18  1  0  0  0  0
  2 25  1  0  0  0  0
  3  4  2  0  0  0  0
  4 19  1  0  0  0  0
  5 25  1  6  0  0  0
  5 26  1  0  0  0  0
  6 23  1  6  0  0  0
  6  5  1  0  0  0  0
  6 17  1  0  0  0  0
  7 22  1  1  0  0  0
  8 12  1  0  0  0  0
  9 24  1  1  0  0  0
 11 13  1  0  0  0  0
 11  3  1  0  0  0  0
 12  2  2  0  0  0  0
 12 13  1  0  0  0  0
 13 20  2  0  0  0  0
 14 21  1  0  0  0  0
 15  9  1  0  0  0  0
 16 10  1  6  0  0  0
 16  7  1  0  0  0  0
 16  8  1  0  0  0  0
 17 15  1  0  0  0  0
 18  7  1  0  0  0  0
 20 14  1  0  0  0  0
 20 19  1  0  0  0  0
 22  2  1  0  0  0  0
 25 14  2  0  0  0  0
 26 21  1  6  0  0  0
 26  9  1  0  0  0  0
 27 18  1  0  0  0  0
 28 29  1  0  0  0  0
 28 27  1  0  0  0  0
 30 32  1  0  0  0  0
 30 29  1  0  0  0  0
 30 31  1  0  0  0  0
 32 31  1  0  0  0  0
M  END
>  <MODEL>
5

>  <REMARK>
 VINA RESULT:      -7.8      1.731      2.905
  Name = 
  4 active torsions:
  status: ('A' for Active; 'I' for Inactive)
    1  A    between atoms: C_1  and  C_10
    2  A    between atoms: C_10  and  C_19
    3  A    between atoms: C_19  and  C_24
    4  A    between atoms: N_23  and  C_24
                            x       y       z     vdW  Elec       q    Type
                         _______ _______ _______ _____ _____    ______ ____

>  <TORSDO>
F 4

$$$$
=
 OpenBabel11052416473D

 32 38  0  0  1  0  0  0  0  0999 V2000
  190.1340  177.5060  139.5230 O   0  0  0  0  0  0  0  0  0  0  0  0
  185.9820  178.1970  141.5320 C   0  0  0  0  0  0  0  0  0  0  0  0
  186.0650  177.7630  146.4270 C   0  0  0  0  0  3  0  0  0  0  0  0
  184.7780  178.1350  146.4830 C   0  0  0  0  0  3  0  0  0  0  0  0
  183.6040  178.7510  140.5730 C   0  0  2  0  0  3  0  0  0  0  0  0
  183.3270  177.5870  139.5810 C   0  0  2  0  0  3  0  0  0  0  0  0
  188.1360  178.2300  140.2920 C   0  0  1  0  0  3  0  0  0  0  0  0
  188.2490  177.7700  142.6580 C   0  0  0  0  0  2  0  0  0  0  0  0
  181.0300  178.5860  141.2000 C   0  0  2  0  0  3  0  0  0  0  0  0
  190.0530  177.2420  140.9140 C   0  0  0  0  0  2  0  0  0  0  0  0
  186.9380  178.1710  145.2660 C   0  0  0  0  0  2  0  0  0  0  0  0
  186.7530  178.0410  142.7300 C   0  0  0  0  0  0  0  0  0  0  0  0
  186.1410  178.2480  143.9870 C   0  0  0  0  0  0  0  0  0  0  0  0
  184.0560  178.7520  142.8730 C   0  0  0  0  0  0  0  0  0  0  0  0
  180.8970  177.8590  139.8800 C   0  0  0  0  0  2  0  0  0  0  0  0
  188.6070  177.2510  141.2770 C   0  0  2  0  0  3  0  0  0  0  0  0
  182.0180  176.8530  139.7990 C   0  0  0  0  0  2  0  0  0  0  0  0
  188.8850  177.8980  139.1010 N   0  0  0  0  0  0  0  0  0  0  0  0
  184.1660  178.9680  145.3870 C   0  0  0  0  0  2  0  0  0  0  0  0
  184.7830  178.6310  144.0570 C   0  0  0  0  0  0  0  0  0  0  0  0
  182.7440  179.2680  142.7730 N   0  0  0  0  0  2  0  0  0  0  0  0
  186.6280  178.0760  140.1630 C   0  0  0  0  0  2  0  0  0  0  0  0
  184.3560  176.6690  139.5140 F   0  0  0  0  0  0  0  0  0  0  0  0
  179.8880  179.5680  141.3590 C   0  0  0  0  0  1  0  0  0  0  0  0
  184.6080  178.4680  141.6520 C   0  0  0  0  0  0  0  0  0  0  0  0
  182.3710  179.3140  141.3620 C   0  0  1  0  0  3  0  0  0  0  0  0
  189.0600  179.1310  138.3450 C   0  0  0  0  0  2  0  0  0  0  0  0
  188.7310  178.9020  136.8760 C   0  0  0  0  0  2  0  0  0  0  0  0
  187.2300  178.7800  136.6560 C   0  0  0  0  0  2  0  0  0  0  0  0
  186.9090  177.5170  135.8780 C   0  0  0  0  0  3  0  0  0  0  0  0
  185.4960  177.0780  136.2090 C   0  0  0  0  0  2  0  0  0  0  0  0
  186.6750  176.3840  136.8560 C   0  0  0  0  0  2  0  0  0  0  0  0
  1 10  1  0  0  0  0
  2 25  2  0  0  0  0
  2 12  1  0  0  0  0
  3  4  2  0  0  0  0
  5 26  1  0  0  0  0
  5 25  1  1  0  0  0
  6 23  1  1  0  0  0
  6 17  1  0  0  0  0
  6  5  1  0  0  0  0
  7 22  1  6  0  0  0
  7 16  1  0  0  0  0
  8 12  1  0  0  0  0
  9 24  1  6  0  0  0
  9 26  1  0  0  0  0
 11  3  1  0  0  0  0
 12 13  2  0  0  0  0
 13 20  1  0  0  0  0
 13 11  1  0  0  0  0
 14 20  2  0  0  0  0
 15  9  1  0  0  0  0
 16 10  1  1  0  0  0
 16  8  1  0  0  0  0
 17 15  1  0  0  0  0
 18  1  1  0  0  0  0
 18  7  1  0  0  0  0
 19  4  1  0  0  0  0
 20 19  1  0  0  0  0
 21 14  1  0  0  0  0
 22  2  1  0  0  0  0
 25 14  1  0  0  0  0
 26 21  1  1  0  0  0
 27 18  1  0  0  0  0
 28 27  1  0  0  0  0
 29 28  1  0  0  0  0
 30 31  1  0  0  0  0
 30 29  1  0  0  0  0
 30 32  1  0  0  0  0
 31 32  1  0  0  0  0
M  END
>  <MODEL>
6

>  <REMARK>
 VINA RESULT:      -7.7      2.750      5.810
  Name = 
  4 active torsions:
  status: ('A' for Active; 'I' for Inactive)
    1  A    between atoms: C_1  and  C_10
    2  A    between atoms: C_10  and  C_19
    3  A    between atoms: C_19  and  C_24
    4  A    between atoms: N_23  and  C_24
                            x       y       z     vdW  Elec       q    Type
                         _______ _______ _______ _____ _____    ______ ____

>  <TORSDO>
F 4

$$$$
=
 OpenBabel11052416473D

 32 38  0  0  1  0  0  0  0  0999 V2000
  183.3260  179.3250  144.3920 O   0  0  0  0  0  0  0  0  0  0  0  0
  187.4490  177.7680  142.8640 C   0  0  0  0  0  0  0  0  0  0  0  0
  190.7720  177.1600  146.4340 C   0  0  0  0  0  3  0  0  0  0  0  0
  191.6340  176.6450  145.5450 C   0  0  0  0  0  3  0  0  0  0  0  0
  188.3590  177.1710  140.4770 C   0  0  2  0  0  3  0  0  0  0  0  0
  188.1530  178.4810  139.6660 C   0  0  2  0  0  3  0  0  0  0  0  0
  185.0890  178.2370  143.4860 C   0  0  1  0  0  3  0  0  0  0  0  0
  186.7000  178.1950  145.2820 C   0  0  0  0  0  2  0  0  0  0  0  0
  190.6350  176.9150  139.1350 C   0  0  2  0  0  3  0  0  0  0  0  0
  184.3760  179.2760  145.3440 C   0  0  0  0  0  2  0  0  0  0  0  0
  189.2850  177.1070  146.1880 C   0  0  0  0  0  2  0  0  0  0  0  0
  187.7430  177.7510  144.2670 C   0  0  0  0  0  0  0  0  0  0  0  0
  188.9720  177.2150  144.7160 C   0  0  0  0  0  0  0  0  0  0  0  0
  189.5830  176.7320  142.4280 C   0  0  0  0  0  0  0  0  0  0  0  0
  190.0080  177.8860  138.1590 C   0  0  0  0  0  2  0  0  0  0  0  0
  185.6390  179.0310  144.5910 C   0  0  2  0  0  3  0  0  0  0  0  0
  189.3910  179.0040  138.9610 C   0  0  0  0  0  2  0  0  0  0  0  0
  183.8360  178.8950  143.1890 N   0  0  0  0  0  0  0  0  0  0  0  0
  191.1420  176.0010  144.2760 C   0  0  0  0  0  2  0  0  0  0  0  0
  189.8910  176.6790  143.7870 C   0  0  0  0  0  0  0  0  0  0  0  0
  190.3250  176.1070  141.4000 N   0  0  0  0  0  2  0  0  0  0  0  0
  186.1020  178.2480  142.3520 C   0  0  0  0  0  2  0  0  0  0  0  0
  187.5900  179.5010  140.4080 F   0  0  0  0  0  0  0  0  0  0  0  0
  191.3250  175.8000  138.3750 C   0  0  0  0  0  1  0  0  0  0  0  0
  188.4380  177.3280  141.9670 C   0  0  0  0  0  0  0  0  0  0  0  0
  189.6320  176.3210  140.1330 C   0  0  1  0  0  3  0  0  0  0  0  0
  182.9260  177.8780  142.6810 C   0  0  0  0  0  2  0  0  0  0  0  0
  182.4360  178.2540  141.2900 C   0  0  0  0  0  2  0  0  0  0  0  0
  183.1610  177.4600  140.2120 C   0  0  0  0  0  2  0  0  0  0  0  0
  183.3290  178.2980  138.9580 C   0  0  0  0  0  3  0  0  0  0  0  0
  184.6730  177.9830  138.3310 C   0  0  0  0  0  2  0  0  0  0  0  0
  184.4970  179.2420  139.1520 C   0  0  0  0  0  2  0  0  0  0  0  0
  1 10  1  0  0  0  0
  2 12  1  0  0  0  0
  4  3  2  0  0  0  0
  5 25  1  1  0  0  0
  6 23  1  1  0  0  0
  6  5  1  0  0  0  0
  7 22  1  6  0  0  0
  7 16  1  0  0  0  0
  9 24  1  6  0  0  0
  9 26  1  0  0  0  0
 11  3  1  0  0  0  0
 12 13  2  0  0  0  0
 12  8  1  0  0  0  0
 13 11  1  0  0  0  0
 14 20  2  0  0  0  0
 15 17  1  0  0  0  0
 15  9  1  0  0  0  0
 16  8  1  1  0  0  0
 16 10  1  0  0  0  0
 17  6  1  0  0  0  0
 18  7  1  0  0  0  0
 18  1  1  0  0  0  0
 19  4  1  0  0  0  0
 20 19  1  0  0  0  0
 20 13  1  0  0  0  0
 21 14  1  0  0  0  0
 22  2  1  0  0  0  0
 25 14  1  0  0  0  0
 25  2  2  0  0  0  0
 26  5  1  0  0  0  0
 26 21  1  1  0  0  0
 27 18  1  0  0  0  0
 28 27  1  0  0  0  0
 29 28  1  0  0  0  0
 30 32  1  0  0  0  0
 30 29  1  0  0  0  0
 31 30  1  0  0  0  0
 31 32  1  0  0  0  0
M  END
>  <MODEL>
7

>  <REMARK>
 VINA RESULT:      -7.5      2.214      5.614
  Name = 
  4 active torsions:
  status: ('A' for Active; 'I' for Inactive)
    1  A    between atoms: C_1  and  C_10
    2  A    between atoms: C_10  and  C_19
    3  A    between atoms: C_19  and  C_24
    4  A    between atoms: N_23  and  C_24
                            x       y       z     vdW  Elec       q    Type
                         _______ _______ _______ _____ _____    ______ ____

>  <TORSDO>
F 4

$$$$
=
 OpenBabel11052416473D

 32 38  0  0  1  0  0  0  0  0999 V2000
  190.5350  178.1260  143.8110 O   0  0  0  0  0  0  0  0  0  0  0  0
  189.8370  176.8140  139.3900 C   0  0  0  0  0  0  0  0  0  0  0  0
  193.9900  176.2380  136.8270 C   0  0  0  0  0  3  0  0  0  0  0  0
  193.2830  175.7930  135.7780 C   0  0  0  0  0  3  0  0  0  0  0  0
  187.6710  176.3410  137.9890 C   0  0  2  0  0  3  0  0  0  0  0  0
  186.8670  177.6680  138.0950 C   0  0  2  0  0  3  0  0  0  0  0  0
  189.9800  177.1530  141.8490 C   0  0  1  0  0  3  0  0  0  0  0  0
  192.0630  177.1230  140.6320 C   0  0  0  0  0  2  0  0  0  0  0  0
  186.8120  176.2360  135.4800 C   0  0  2  0  0  3  0  0  0  0  0  0
  191.6790  178.0940  142.9740 C   0  0  0  0  0  2  0  0  0  0  0  0
  193.4480  176.1240  138.2290 C   0  0  0  0  0  2  0  0  0  0  0  0
  191.2700  176.7620  139.3840 C   0  0  0  0  0  0  0  0  0  0  0  0
  191.9460  176.2690  138.2440 C   0  0  0  0  0  0  0  0  0  0  0  0
  189.8180  175.8930  137.1620 C   0  0  0  0  0  0  0  0  0  0  0  0
  185.7530  177.2100  135.9460 C   0  0  0  0  0  2  0  0  0  0  0  0
  191.1910  177.9320  141.5740 C   0  0  2  0  0  3  0  0  0  0  0  0
  186.4400  178.2700  136.7700 C   0  0  0  0  0  2  0  0  0  0  0  0
  189.4510  177.7620  143.0480 N   0  0  0  0  0  0  0  0  0  0  0  0
  191.9250  175.1720  135.9700 C   0  0  0  0  0  2  0  0  0  0  0  0
  191.2100  175.8070  137.1310 C   0  0  0  0  0  0  0  0  0  0  0  0
  188.9470  175.3380  136.1970 N   0  0  0  0  0  2  0  0  0  0  0  0
  189.0740  177.2490  140.6300 C   0  0  0  0  0  2  0  0  0  0  0  0
  187.5030  178.6340  138.8480 F   0  0  0  0  0  0  0  0  0  0  0  0
  186.1810  175.1810  134.5940 C   0  0  0  0  0  1  0  0  0  0  0  0
  189.1490  176.4500  138.2200 C   0  0  0  0  0  0  0  0  0  0  0  0
  187.5710  175.5630  136.6310 C   0  0  1  0  0  3  0  0  0  0  0  0
  188.7440  176.7220  143.7840 C   0  0  0  0  0  2  0  0  0  0  0  0
  188.2350  177.2660  145.1120 C   0  0  0  0  0  2  0  0  0  0  0  0
  186.7150  177.3190  145.1440 C   0  0  0  0  0  2  0  0  0  0  0  0
  186.2420  178.5660  145.8690 C   0  0  0  0  0  3  0  0  0  0  0  0
  184.9350  178.2630  146.5730 C   0  0  0  0  0  2  0  0  0  0  0  0
  184.9310  179.0200  145.2620 C   0  0  0  0  0  2  0  0  0  0  0  0
  2 22  1  0  0  0  0
  3 11  1  0  0  0  0
  4 19  1  0  0  0  0
  4  3  2  0  0  0  0
  5  6  1  0  0  0  0
  5 25  1  6  0  0  0
  6 23  1  6  0  0  0
  7 22  1  6  0  0  0
  7 18  1  0  0  0  0
  9 24  1  1  0  0  0
  9 15  1  0  0  0  0
  9 26  1  0  0  0  0
 10  1  1  0  0  0  0
 11 13  1  0  0  0  0
 12  2  1  0  0  0  0
 12  8  1  0  0  0  0
 13 12  2  0  0  0  0
 14 25  1  0  0  0  0
 15 17  1  0  0  0  0
 16  8  1  6  0  0  0
 16  7  1  0  0  0  0
 16 10  1  0  0  0  0
 17  6  1  0  0  0  0
 18 27  1  0  0  0  0
 18  1  1  0  0  0  0
 19 20  1  0  0  0  0
 20 14  2  0  0  0  0
 20 13  1  0  0  0  0
 21 14  1  0  0  0  0
 25  2  2  0  0  0  0
 26 21  1  6  0  0  0
 26  5  1  0  0  0  0
 27 28  1  0  0  0  0
 28 29  1  0  0  0  0
 29 30  1  0  0  0  0
 30 31  1  0  0  0  0
 32 30  1  0  0  0  0
 32 31  1  0  0  0  0
M  END
>  <MODEL>
8

>  <REMARK>
 VINA RESULT:      -7.5      2.460      8.685
  Name = 
  4 active torsions:
  status: ('A' for Active; 'I' for Inactive)
    1  A    between atoms: C_1  and  C_10
    2  A    between atoms: C_10  and  C_19
    3  A    between atoms: C_19  and  C_24
    4  A    between atoms: N_23  and  C_24
                            x       y       z     vdW  Elec       q    Type
                         _______ _______ _______ _____ _____    ______ ____

>  <TORSDO>
F 4

$$$$
=
 OpenBabel11052416473D

 32 38  0  0  1  0  0  0  0  0999 V2000
  190.5130  178.1260  143.8520 O   0  0  0  0  0  0  0  0  0  0  0  0
  189.8130  176.8740  139.4130 C   0  0  0  0  0  0  0  0  0  0  0  0
  193.9650  176.3140  136.8450 C   0  0  0  0  0  3  0  0  0  0  0  0
  193.2560  175.8870  135.7900 C   0  0  0  0  0  3  0  0  0  0  0  0
  187.6450  176.4290  138.0050 C   0  0  2  0  0  3  0  0  0  0  0  0
  186.8470  177.7580  138.1280 C   0  0  2  0  0  3  0  0  0  0  0  0
  189.9550  177.1800  141.8760 C   0  0  1  0  0  3  0  0  0  0  0  0
  192.0390  177.1580  140.6600 C   0  0  0  0  0  2  0  0  0  0  0  0
  186.7870  176.3610  135.4940 C   0  0  2  0  0  3  0  0  0  0  0  0
  191.6570  178.1000  143.0150 C   0  0  0  0  0  2  0  0  0  0  0  0
  193.4210  176.1850  138.2460 C   0  0  0  0  0  2  0  0  0  0  0  0
  191.2450  176.8170  139.4080 C   0  0  0  0  0  0  0  0  0  0  0  0
  191.9190  176.3350  138.2620 C   0  0  0  0  0  0  0  0  0  0  0  0
  189.7910  175.9830  137.1730 C   0  0  0  0  0  0  0  0  0  0  0  0
  185.7320  177.3330  135.9730 C   0  0  0  0  0  2  0  0  0  0  0  0
  191.1700  177.9580  141.6130 C   0  0  2  0  0  3  0  0  0  0  0  0
  186.4230  178.3790  136.8100 C   0  0  0  0  0  2  0  0  0  0  0  0
  189.4280  177.7760  143.0840 N   0  0  0  0  0  0  0  0  0  0  0  0
  191.8950  175.2680  135.9730 C   0  0  0  0  0  2  0  0  0  0  0  0
  191.1820  175.8920  137.1420 C   0  0  0  0  0  0  0  0  0  0  0  0
  188.9180  175.4450  136.2000 N   0  0  0  0  0  2  0  0  0  0  0  0
  189.0510  177.2960  140.6580 C   0  0  0  0  0  2  0  0  0  0  0  0
  187.4870  178.7120  138.8940 F   0  0  0  0  0  0  0  0  0  0  0  0
  186.1530  175.3200  134.5940 C   0  0  0  0  0  1  0  0  0  0  0  0
  189.1240  176.5290  138.2380 C   0  0  0  0  0  0  0  0  0  0  0  0
  187.5430  175.6690  136.6360 C   0  0  1  0  0  3  0  0  0  0  0  0
  188.7160  176.7300  143.8050 C   0  0  0  0  0  2  0  0  0  0  0  0
  187.3650  177.2420  144.2840 C   0  0  0  0  0  2  0  0  0  0  0  0
  187.4610  177.8420  145.6800 C   0  0  0  0  0  2  0  0  0  0  0  0
  188.4960  177.0990  146.5060 C   0  0  0  0  0  3  0  0  0  0  0  0
  188.0550  177.0910  147.9560 C   0  0  0  0  0  2  0  0  0  0  0  0
  189.1180  178.0630  147.4950 C   0  0  0  0  0  2  0  0  0  0  0  0
  2 22  1  0  0  0  0
  3 11  1  0  0  0  0
  4 19  1  0  0  0  0
  4  3  2  0  0  0  0
  5  6  1  0  0  0  0
  5 25  1  6  0  0  0
  6 23  1  6  0  0  0
  7 22  1  6  0  0  0
  7 18  1  0  0  0  0
  9 24  1  1  0  0  0
  9 15  1  0  0  0  0
  9 26  1  0  0  0  0
 10  1  1  0  0  0  0
 11 13  1  0  0  0  0
 12  2  1  0  0  0  0
 12  8  1  0  0  0  0
 13 12  2  0  0  0  0
 14 25  1  0  0  0  0
 15 17  1  0  0  0  0
 16  8  1  6  0  0  0
 16  7  1  0  0  0  0
 16 10  1  0  0  0  0
 17  6  1  0  0  0  0
 18 27  1  0  0  0  0
 18  1  1  0  0  0  0
 19 20  1  0  0  0  0
 20 14  2  0  0  0  0
 20 13  1  0  0  0  0
 21 14  1  0  0  0  0
 25  2  2  0  0  0  0
 26 21  1  6  0  0  0
 26  5  1  0  0  0  0
 27 28  1  0  0  0  0
 28 29  1  0  0  0  0
 29 30  1  0  0  0  0
 30 32  1  0  0  0  0
 30 31  1  0  0  0  0
 32 31  1  0  0  0  0
M  END
>  <MODEL>
9

>  <REMARK>
 VINA RESULT:      -7.4      2.639      8.600
  Name = 
  4 active torsions:
  status: ('A' for Active; 'I' for Inactive)
    1  A    between atoms: C_1  and  C_10
    2  A    between atoms: C_10  and  C_19
    3  A    between atoms: C_19  and  C_24
    4  A    between atoms: N_23  and  C_24
                            x       y       z     vdW  Elec       q    Type
                         _______ _______ _______ _____ _____    ______ ____

>  <TORSDO>
F 4

$$$$
