=
 OpenBabel11052415203D

 37 44  0  0  1  0  0  0  0  0999 V2000
  183.0130  174.9700  137.2140 C   0  0  0  0  0  0  0  0  0  0  0  0
  181.5080  177.6150  136.9800 C   0  0  1  0  0  0  0  0  0  0  0  0
  183.2450  174.0610  136.0540 C   0  0  1  0  0  3  0  0  0  0  0  0
  181.9620  178.1750  138.3220 C   0  0  1  0  0  0  0  0  0  0  0  0
  179.1130  175.0520  134.9300 C   0  0  0  0  0  2  0  0  0  0  0  0
  183.7320  176.7070  138.8370 C   0  0  0  0  0  2  0  0  0  0  0  0
  183.4700  174.8280  134.8900 O   0  0  0  0  0  0  0  0  0  0  0  0
  180.4270  175.2800  137.1380 C   0  0  1  0  0  3  0  0  0  0  0  0
  179.3230  176.5350  134.7230 C   0  0  0  0  0  2  0  0  0  0  0  0
  185.6730  175.8380  135.4550 C   0  0  1  0  0  3  0  0  0  0  0  0
  181.6820  174.8340  137.9400 C   0  0  0  0  0  2  0  0  0  0  0  0
  179.1010  177.2190  136.0550 C   0  0  0  0  0  2  0  0  0  0  0  0
  184.9880  177.1370  135.7830 C   0  0  0  0  0  2  0  0  0  0  0  0
  183.4060  178.0890  138.4880 N   0  0  0  0  0  2  0  0  0  0  0  0
  180.1880  176.8190  137.0580 C   0  0  2  0  0  3  0  0  0  0  0  0
  183.9450  175.8810  137.5960 C   0  0  0  0  0  0  0  0  0  0  0  0
  180.1820  174.4540  135.8480 C   0  0  1  0  0  3  0  0  0  0  0  0
  181.4940  179.1490  137.2350 C   0  0  1  0  0  0  0  0  0  0  0  0
  185.2760  176.1440  136.9100 C   0  0  1  0  0  3  0  0  0  0  0  0
  184.8400  174.8800  134.5940 C   0  0  0  0  0  2  0  0  0  0  0  0
  181.6640  178.5960  135.8350 C   0  0  0  0  0  2  0  0  0  0  0  0
  180.1280  177.1880  139.7850 C   0  0  0  0  0  3  0  0  0  0  0  0
  181.1440  178.1360  139.5990 C   0  0  0  0  0  0  0  0  0  0  0  0
  181.4930  178.9800  140.6650 C   0  0  0  0  0  3  0  0  0  0  0  0
  181.1340  179.7420  142.8950 F   0  0  0  0  0  0  0  0  0  0  0  0
  179.7700  177.9830  142.0420 C   0  0  0  0  0  3  0  0  0  0  0  0
  180.8010  178.9120  141.8780 C   0  0  0  0  0  0  0  0  0  0  0  0
  179.4370  177.1190  140.9960 C   0  0  0  0  0  3  0  0  0  0  0  0
  179.7600  173.0230  136.1950 C   0  0  0  0  0  0  0  0  0  0  0  0
  180.3890  171.9030  135.3990 C   0  0  0  0  0  2  0  0  0  0  0  0
  179.3120  172.6630  137.6020 C   0  0  0  0  0  1  0  0  0  0  0  0
  178.9570  172.3270  135.1160 C   0  0  0  0  0  2  0  0  0  0  0  0
  183.5970  171.8260  137.2030 C   0  0  0  0  0  1  0  0  0  0  0  0
  184.2330  172.9080  136.3490 C   0  0  0  0  0  2  0  0  0  0  0  0
  180.0860  179.7150  137.4240 C   0  0  0  0  0  2  0  0  0  0  0  0
  180.2170  182.3480  137.8440 C   0  0  0  0  0  3  0  0  0  0  0  0
  180.1580  181.1590  137.6560 C   0  0  0  0  0  0  0  0  0  0  0  0
  1 16  2  0  0  0  0
  1 11  1  0  0  0  0
  2 21  1  6  0  0  0
  2 15  1  0  0  0  0
  2 18  1  0  0  0  0
  2  4  1  0  0  0  0
  3 34  1  1  0  0  0
  3  1  1  0  0  0  0
  4 14  1  0  0  0  0
  4 23  1  1  0  0  0
  7  3  1  0  0  0  0
  8 11  1  6  0  0  0
  9  5  1  0  0  0  0
  9 12  1  0  0  0  0
 10 20  1  6  0  0  0
 10 13  1  0  0  0  0
 10 19  1  0  0  0  0
 14  6  1  0  0  0  0
 15 12  1  6  0  0  0
 15  8  1  0  0  0  0
 16  6  1  0  0  0  0
 17  5  1  1  0  0  0
 17 29  1  0  0  0  0
 17  8  1  0  0  0  0
 18 35  1  1  0  0  0
 18  4  1  0  0  0  0
 19 13  1  6  0  0  0
 19 16  1  0  0  0  0
 20  7  1  0  0  0  0
 21 18  1  0  0  0  0
 22 28  1  0  0  0  0
 23 22  2  0  0  0  0
 23 24  1  0  0  0  0
 24 27  2  0  0  0  0
 27 26  1  0  0  0  0
 27 25  1  0  0  0  0
 28 26  2  0  0  0  0
 29 31  1  0  0  0  0
 30 29  1  0  0  0  0
 32 30  1  0  0  0  0
 32 29  1  0  0  0  0
 34 33  1  0  0  0  0
 35 37  1  0  0  0  0
 37 36  3  0  0  0  0
M  END
>  <MODEL>
1

>  <REMARK>
 VINA RESULT:      -4.4      0.000      0.000
  Name = 
  5 active torsions:
  status: ('A' for Active; 'I' for Inactive)
    1  A    between atoms: C_3  and  C_30
    2  A    between atoms: C_5  and  C_23
    3  A    between atoms: C_6  and  C_7
    4  A    between atoms: C_14  and  C_31
    5  A    between atoms: C_14  and  C_37
                            x       y       z     vdW  Elec       q    Type
                         _______ _______ _______ _____ _____    ______ ____

>  <TORSDO>
F 5

$$$$
=
 OpenBabel11052415203D

 37 44  0  0  1  0  0  0  0  0999 V2000
  183.2870  175.1870  137.2080 C   0  0  0  0  0  0  0  0  0  0  0  0
  181.5690  177.6710  136.7700 C   0  0  1  0  0  0  0  0  0  0  0  0
  183.5960  174.2090  136.1240 C   0  0  1  0  0  3  0  0  0  0  0  0
  181.9730  178.3720  138.0600 C   0  0  1  0  0  0  0  0  0  0  0  0
  179.3980  174.7630  134.9430 C   0  0  0  0  0  2  0  0  0  0  0  0
  183.8570  177.1020  138.6830 C   0  0  0  0  0  2  0  0  0  0  0  0
  183.7590  174.8960  134.9010 O   0  0  0  0  0  0  0  0  0  0  0  0
  180.6850  175.2750  137.1200 C   0  0  1  0  0  3  0  0  0  0  0  0
  179.4860  176.2380  134.6170 C   0  0  0  0  0  2  0  0  0  0  0  0
  185.8700  176.1270  135.3720 C   0  0  1  0  0  3  0  0  0  0  0  0
  181.9700  175.0000  137.9490 C   0  0  0  0  0  2  0  0  0  0  0  0
  179.2050  177.0050  135.8910 C   0  0  0  0  0  2  0  0  0  0  0  0
  185.0790  177.3870  135.5990 C   0  0  0  0  0  2  0  0  0  0  0  0
  183.4190  178.4190  138.2270 N   0  0  0  0  0  2  0  0  0  0  0  0
  180.3200  176.7780  136.9180 C   0  0  2  0  0  3  0  0  0  0  0  0
  184.1410  176.1990  137.5110 C   0  0  0  0  0  0  0  0  0  0  0  0
  180.5120  174.3310  135.9010 C   0  0  1  0  0  3  0  0  0  0  0  0
  181.4290  179.2140  136.9010 C   0  0  1  0  0  0  0  0  0  0  0  0
  185.4460  176.5140  136.8010 C   0  0  1  0  0  3  0  0  0  0  0  0
  185.1210  175.0370  134.5950 C   0  0  0  0  0  2  0  0  0  0  0  0
  181.6470  178.5660  135.5490 C   0  0  0  0  0  2  0  0  0  0  0  0
  181.0010  179.5320  140.1060 C   0  0  0  0  0  3  0  0  0  0  0  0
  181.1590  178.3690  139.3400 C   0  0  0  0  0  0  0  0  0  0  0  0
  180.4470  177.2140  139.7000 C   0  0  0  0  0  3  0  0  0  0  0  0
  178.9620  176.0840  141.1840 F   0  0  0  0  0  0  0  0  0  0  0  0
  179.5050  178.3660  141.6080 C   0  0  0  0  0  3  0  0  0  0  0  0
  179.6330  177.2080  140.8360 C   0  0  0  0  0  0  0  0  0  0  0  0
  180.1860  179.5290  141.2400 C   0  0  0  0  0  3  0  0  0  0  0  0
  180.2080  172.9020  136.3640 C   0  0  0  0  0  0  0  0  0  0  0  0
  180.8280  171.7730  135.5750 C   0  0  0  0  0  2  0  0  0  0  0  0
  179.9120  172.6030  137.8240 C   0  0  0  0  0  1  0  0  0  0  0  0
  179.3530  172.1010  135.4040 C   0  0  0  0  0  2  0  0  0  0  0  0
  184.0640  171.9250  137.1240 C   0  0  0  0  0  1  0  0  0  0  0  0
  184.6750  173.1700  136.5060 C   0  0  0  0  0  2  0  0  0  0  0  0
  179.9790  179.6760  137.0510 C   0  0  0  0  0  2  0  0  0  0  0  0
  179.8680  182.3420  136.9950 C   0  0  0  0  0  3  0  0  0  0  0  0
  179.9170  181.1380  137.0210 C   0  0  0  0  0  0  0  0  0  0  0  0
  1 16  2  0  0  0  0
  1 11  1  0  0  0  0
  2 21  1  6  0  0  0
  2 18  1  0  0  0  0
  2 15  1  0  0  0  0
  2  4  1  0  0  0  0
  3 34  1  1  0  0  0
  3  1  1  0  0  0  0
  4 14  1  0  0  0  0
  4 23  1  1  0  0  0
  7  3  1  0  0  0  0
  8 11  1  6  0  0  0
  9  5  1  0  0  0  0
  9 12  1  0  0  0  0
 10 20  1  6  0  0  0
 10 13  1  0  0  0  0
 10 19  1  0  0  0  0
 14  6  1  0  0  0  0
 15 12  1  6  0  0  0
 15  8  1  0  0  0  0
 16  6  1  0  0  0  0
 17  5  1  6  0  0  0
 17 29  1  0  0  0  0
 17  8  1  0  0  0  0
 18 35  1  1  0  0  0
 18  4  1  0  0  0  0
 19 13  1  6  0  0  0
 19 16  1  0  0  0  0
 20  7  1  0  0  0  0
 21 18  1  0  0  0  0
 22 28  1  0  0  0  0
 23 24  1  0  0  0  0
 23 22  2  0  0  0  0
 24 27  2  0  0  0  0
 27 25  1  0  0  0  0
 27 26  1  0  0  0  0
 28 26  2  0  0  0  0
 29 31  1  0  0  0  0
 30 29  1  0  0  0  0
 32 30  1  0  0  0  0
 32 29  1  0  0  0  0
 34 33  1  0  0  0  0
 36 37  3  0  0  0  0
 37 35  1  0  0  0  0
M  END
>  <MODEL>
2

>  <REMARK>
 VINA RESULT:      -4.0      0.892      1.168
  Name = 
  5 active torsions:
  status: ('A' for Active; 'I' for Inactive)
    1  A    between atoms: C_3  and  C_30
    2  A    between atoms: C_5  and  C_23
    3  A    between atoms: C_6  and  C_7
    4  A    between atoms: C_14  and  C_31
    5  A    between atoms: C_14  and  C_37
                            x       y       z     vdW  Elec       q    Type
                         _______ _______ _______ _____ _____    ______ ____

>  <TORSDO>
F 5

$$$$
=
 OpenBabel11052415203D

 37 44  0  0  1  0  0  0  0  0999 V2000
  179.8450  179.3510  138.4020 C   0  0  0  0  0  0  0  0  0  0  0  0
  182.0120  177.2650  137.8830 C   0  0  1  0  0  0  0  0  0  0  0  0
  180.1380  180.7120  138.9390 C   0  0  1  0  0  3  0  0  0  0  0  0
  181.1480  176.3480  137.0270 C   0  0  1  0  0  0  0  0  0  0  0  0
  182.9850  178.6490  141.5770 C   0  0  0  0  0  2  0  0  0  0  0  0
  179.3270  177.7680  136.5590 C   0  0  0  0  0  2  0  0  0  0  0  0
  181.3630  181.1750  138.4110 O   0  0  0  0  0  0  0  0  0  0  0  0
  180.9810  177.8210  140.1800 C   0  0  1  0  0  3  0  0  0  0  0  0
  183.8880  178.1040  140.4930 C   0  0  0  0  0  2  0  0  0  0  0  0
  180.7220  181.4730  136.0250 C   0  0  1  0  0  3  0  0  0  0  0  0
  179.6880  178.2280  139.4190 C   0  0  0  0  0  2  0  0  0  0  0  0
  183.3370  176.7590  140.0730 C   0  0  0  0  0  2  0  0  0  0  0  0
  181.4320  180.1930  135.6780 C   0  0  0  0  0  2  0  0  0  0  0  0
  180.4680  177.0760  135.9640 N   0  0  0  0  0  2  0  0  0  0  0  0
  181.9760  176.9200  139.3870 C   0  0  2  0  0  3  0  0  0  0  0  0
  179.7330  179.1270  137.0670 C   0  0  0  0  0  0  0  0  0  0  0  0
  181.5860  178.9610  141.0410 C   0  0  1  0  0  3  0  0  0  0  0  0
  182.6720  176.2730  136.8840 C   0  0  1  0  0  0  0  0  0  0  0  0
  179.9300  180.1550  135.9660 C   0  0  1  0  0  3  0  0  0  0  0  0
  181.1350  182.0870  137.3690 C   0  0  0  0  0  2  0  0  0  0  0  0
  183.3650  177.5640  137.2680 C   0  0  0  0  0  2  0  0  0  0  0  0
  179.9810  175.0050  138.8460 C   0  0  0  0  0  3  0  0  0  0  0  0
  180.4480  175.0990  137.5280 C   0  0  0  0  0  0  0  0  0  0  0  0
  180.1500  174.0680  136.6230 C   0  0  0  0  0  3  0  0  0  0  0  0
  179.1730  171.9420  136.1670 F   0  0  0  0  0  0  0  0  0  0  0  0
  179.0060  172.8430  138.3680 C   0  0  0  0  0  3  0  0  0  0  0  0
  179.4420  172.9390  137.0440 C   0  0  0  0  0  0  0  0  0  0  0  0
  179.2720  173.8780  139.2680 C   0  0  0  0  0  3  0  0  0  0  0  0
  180.6800  179.2720  142.2370 C   0  0  0  0  0  0  0  0  0  0  0  0
  181.1740  178.8590  143.6040 C   0  0  0  0  0  2  0  0  0  0  0  0
  179.7310  180.4590  142.2080 C   0  0  0  0  0  1  0  0  0  0  0  0
  180.0900  178.0510  142.9100 C   0  0  0  0  0  2  0  0  0  0  0  0
  178.9730  182.6880  140.0220 C   0  0  0  0  0  1  0  0  0  0  0  0
  178.9310  181.6770  138.8900 C   0  0  0  0  0  2  0  0  0  0  0  0
  183.3360  175.0790  137.5720 C   0  0  0  0  0  2  0  0  0  0  0  0
  184.4190  173.4640  135.7430 C   0  0  0  0  0  3  0  0  0  0  0  0
  183.9300  174.1940  136.5670 C   0  0  0  0  0  0  0  0  0  0  0  0
  1  3  1  0  0  0  0
  1 11  1  0  0  0  0
  2 21  1  6  0  0  0
  2 15  1  0  0  0  0
  3 34  1  6  0  0  0
  4 23  1  1  0  0  0
  4  2  1  0  0  0  0
  6 16  1  0  0  0  0
  7  3  1  0  0  0  0
  8 11  1  6  0  0  0
  8 17  1  0  0  0  0
  9  5  1  0  0  0  0
 10 13  1  6  0  0  0
 10 20  1  0  0  0  0
 12  9  1  0  0  0  0
 14  6  1  0  0  0  0
 14  4  1  0  0  0  0
 15 12  1  1  0  0  0
 15  8  1  0  0  0  0
 16  1  2  0  0  0  0
 17  5  1  1  0  0  0
 17 29  1  0  0  0  0
 18  4  1  0  0  0  0
 18 21  1  0  0  0  0
 18 35  1  1  0  0  0
 18  2  1  0  0  0  0
 19 13  1  6  0  0  0
 19 10  1  0  0  0  0
 19 16  1  0  0  0  0
 20  7  1  0  0  0  0
 22 28  1  0  0  0  0
 23 22  2  0  0  0  0
 24 27  2  0  0  0  0
 24 23  1  0  0  0  0
 25 27  1  0  0  0  0
 26 28  2  0  0  0  0
 27 26  1  0  0  0  0
 29 32  1  0  0  0  0
 29 30  1  0  0  0  0
 31 29  1  0  0  0  0
 32 30  1  0  0  0  0
 34 33  1  0  0  0  0
 36 37  3  0  0  0  0
 37 35  1  0  0  0  0
M  END
>  <MODEL>
3

>  <REMARK>
 VINA RESULT:      -3.9      2.633      6.989
  Name = 
  5 active torsions:
  status: ('A' for Active; 'I' for Inactive)
    1  A    between atoms: C_3  and  C_30
    2  A    between atoms: C_5  and  C_23
    3  A    between atoms: C_6  and  C_7
    4  A    between atoms: C_14  and  C_31
    5  A    between atoms: C_14  and  C_37
                            x       y       z     vdW  Elec       q    Type
                         _______ _______ _______ _____ _____    ______ ____

>  <TORSDO>
F 5

$$$$
=
 OpenBabel11052415203D

 37 44  0  0  1  0  0  0  0  0999 V2000
  181.7460  176.3030  136.1040 C   0  0  0  0  0  0  0  0  0  0  0  0
  181.0260  178.3840  138.2180 C   0  0  1  0  0  0  0  0  0  0  0  0
  182.5550  175.0860  136.4020 C   0  0  1  0  0  3  0  0  0  0  0  0
  179.9400  179.0710  137.4000 C   0  0  1  0  0  0  0  0  0  0  0  0
  184.9850  177.7700  138.8950 C   0  0  0  0  0  2  0  0  0  0  0  0
  179.5980  177.4820  135.6940 C   0  0  0  0  0  2  0  0  0  0  0  0
  182.2310  174.6070  137.6910 O   0  0  0  0  0  0  0  0  0  0  0  0
  183.2900  178.2020  136.9980 C   0  0  1  0  0  3  0  0  0  0  0  0
  183.8970  178.1580  139.8710 C   0  0  0  0  0  2  0  0  0  0  0  0
  179.8990  173.8330  137.2930 C   0  0  1  0  0  3  0  0  0  0  0  0
  182.5130  177.5830  135.8020 C   0  0  0  0  0  2  0  0  0  0  0  0
  183.1840  179.3660  139.3050 C   0  0  0  0  0  2  0  0  0  0  0  0
  179.3770  175.0680  137.9770 C   0  0  0  0  0  2  0  0  0  0  0  0
  178.9810  178.1200  136.8560 N   0  0  0  0  0  2  0  0  0  0  0  0
  182.4280  178.9990  138.0240 C   0  0  2  0  0  3  0  0  0  0  0  0
  180.3880  176.2680  136.1090 C   0  0  0  0  0  0  0  0  0  0  0  0
  184.4010  177.2800  137.5670 C   0  0  1  0  0  3  0  0  0  0  0  0
  179.9160  179.2110  138.9260 C   0  0  1  0  0  0  0  0  0  0  0  0
  179.5230  175.0680  136.4540 C   0  0  1  0  0  3  0  0  0  0  0  0
  181.3660  173.5060  137.6030 C   0  0  0  0  0  2  0  0  0  0  0  0
  180.5960  178.0580  139.6340 C   0  0  0  0  0  2  0  0  0  0  0  0
  180.8580  180.3530  135.4030 C   0  0  0  0  0  3  0  0  0  0  0  0
  180.1330  180.3470  136.6020 C   0  0  0  0  0  0  0  0  0  0  0  0
  179.4680  181.5170  137.0030 C   0  0  0  0  0  3  0  0  0  0  0  0
  178.9400  183.8140  136.6490 F   0  0  0  0  0  0  0  0  0  0  0  0
  180.3210  182.6890  135.0660 C   0  0  0  0  0  3  0  0  0  0  0  0
  179.5720  182.6860  136.2450 C   0  0  0  0  0  0  0  0  0  0  0  0
  180.9610  181.5210  134.6430 C   0  0  0  0  0  3  0  0  0  0  0  0
  185.5530  177.1420  136.5660 C   0  0  0  0  0  0  0  0  0  0  0  0
  186.7790  176.3870  137.0240 C   0  0  0  0  0  2  0  0  0  0  0  0
  185.2870  177.1280  135.0700 C   0  0  0  0  0  1  0  0  0  0  0  0
  186.8050  177.9060  136.9440 C   0  0  0  0  0  2  0  0  0  0  0  0
  183.9990  173.8300  134.7380 C   0  0  0  0  0  1  0  0  0  0  0  0
  182.5880  174.0570  135.2490 C   0  0  0  0  0  2  0  0  0  0  0  0
  180.4180  180.5500  139.4690 C   0  0  0  0  0  2  0  0  0  0  0  0
  178.9310  181.2970  141.5570 C   0  0  0  0  0  3  0  0  0  0  0  0
  179.6010  180.9590  140.6140 C   0  0  0  0  0  0  0  0  0  0  0  0
  1 16  2  0  0  0  0
  1  3  1  0  0  0  0
  2 18  1  0  0  0  0
  2 21  1  1  0  0  0
  3 34  1  6  0  0  0
  3  7  1  0  0  0  0
  4 23  1  6  0  0  0
  4  2  1  0  0  0  0
  4 18  1  0  0  0  0
  5  9  1  0  0  0  0
  6 16  1  0  0  0  0
  6 14  1  0  0  0  0
  8 11  1  1  0  0  0
  8 17  1  0  0  0  0
  8 15  1  0  0  0  0
 10 20  1  1  0  0  0
 10 13  1  0  0  0  0
 11  1  1  0  0  0  0
 12  9  1  0  0  0  0
 14  4  1  0  0  0  0
 15  2  1  0  0  0  0
 15 12  1  1  0  0  0
 16 19  1  0  0  0  0
 17 29  1  6  0  0  0
 17  5  1  0  0  0  0
 18 35  1  1  0  0  0
 18 21  1  0  0  0  0
 19 10  1  0  0  0  0
 19 13  1  1  0  0  0
 20  7  1  0  0  0  0
 22 23  1  0  0  0  0
 23 24  2  0  0  0  0
 26 27  2  0  0  0  0
 27 25  1  0  0  0  0
 27 24  1  0  0  0  0
 28 26  1  0  0  0  0
 28 22  2  0  0  0  0
 29 32  1  0  0  0  0
 29 30  1  0  0  0  0
 31 29  1  0  0  0  0
 32 30  1  0  0  0  0
 33 34  1  0  0  0  0
 35 37  1  0  0  0  0
 37 36  3  0  0  0  0
M  END
>  <MODEL>
4

>  <REMARK>
 VINA RESULT:      -3.8      2.239      5.416
  Name = 
  5 active torsions:
  status: ('A' for Active; 'I' for Inactive)
    1  A    between atoms: C_3  and  C_30
    2  A    between atoms: C_5  and  C_23
    3  A    between atoms: C_6  and  C_7
    4  A    between atoms: C_14  and  C_31
    5  A    between atoms: C_14  and  C_37
                            x       y       z     vdW  Elec       q    Type
                         _______ _______ _______ _____ _____    ______ ____

>  <TORSDO>
F 5

$$$$
=
 OpenBabel11052415203D

 37 44  0  0  1  0  0  0  0  0999 V2000
  184.7980  175.6520  136.0570 C   0  0  0  0  0  0  0  0  0  0  0  0
  183.2540  177.1400  138.2290 C   0  0  1  0  0  0  0  0  0  0  0  0
  186.0500  174.8870  136.3280 C   0  0  1  0  0  3  0  0  0  0  0  0
  181.9800  177.3290  137.4160 C   0  0  1  0  0  0  0  0  0  0  0  0
  187.0940  178.2530  138.9540 C   0  0  0  0  0  2  0  0  0  0  0  0
  182.3530  175.8140  135.6510 C   0  0  0  0  0  2  0  0  0  0  0  0
  185.9600  174.2660  137.5930 O   0  0  0  0  0  0  0  0  0  0  0  0
  185.3800  177.9920  137.0440 C   0  0  1  0  0  3  0  0  0  0  0  0
  185.9440  178.1000  139.9250 C   0  0  0  0  0  2  0  0  0  0  0  0
  184.1850  172.5850  137.1270 C   0  0  1  0  0  3  0  0  0  0  0  0
  184.9440  177.1480  135.8140 C   0  0  0  0  0  2  0  0  0  0  0  0
  184.7830  178.9090  139.3880 C   0  0  0  0  0  2  0  0  0  0  0  0
  183.1830  173.4500  137.8440 C   0  0  0  0  0  2  0  0  0  0  0  0
  181.5210  176.0810  136.8230 N   0  0  0  0  0  2  0  0  0  0  0  0
  184.2580  178.3030  138.0820 C   0  0  2  0  0  3  0  0  0  0  0  0
  183.5860  175.0400  136.0370 C   0  0  0  0  0  0  0  0  0  0  0  0
  186.7770  177.6120  137.6010 C   0  0  1  0  0  3  0  0  0  0  0  0
  181.8960  177.3860  138.9450 C   0  0  1  0  0  0  0  0  0  0  0  0
  183.3170  173.5720  136.3250 C   0  0  1  0  0  3  0  0  0  0  0  0
  185.6500  172.9050  137.4510 C   0  0  0  0  0  2  0  0  0  0  0  0
  183.0040  176.6070  139.6260 C   0  0  0  0  0  2  0  0  0  0  0  0
  181.5700  178.6270  135.2660 C   0  0  0  0  0  3  0  0  0  0  0  0
  181.6090  178.5950  136.6670 C   0  0  0  0  0  0  0  0  0  0  0  0
  181.1730  179.7190  137.3870 C   0  0  0  0  0  3  0  0  0  0  0  0
  180.3540  181.9570  137.4200 F   0  0  0  0  0  0  0  0  0  0  0  0
  180.7510  180.9030  135.3190 C   0  0  0  0  0  3  0  0  0  0  0  0
  180.7570  180.8720  136.7160 C   0  0  0  0  0  0  0  0  0  0  0  0
  181.1540  179.7780  134.5940 C   0  0  0  0  0  3  0  0  0  0  0  0
  187.8790  178.0190  136.6160 C   0  0  0  0  0  0  0  0  0  0  0  0
  189.2850  177.5580  136.9220 C   0  0  0  0  0  2  0  0  0  0  0  0
  187.5640  178.2520  135.1480 C   0  0  0  0  0  1  0  0  0  0  0  0
  188.8860  179.0030  137.1750 C   0  0  0  0  0  2  0  0  0  0  0  0
  187.9010  174.4260  134.6560 C   0  0  0  0  0  1  0  0  0  0  0  0
  186.5220  174.0170  135.1400 C   0  0  0  0  0  2  0  0  0  0  0  0
  181.7760  178.7880  139.5440 C   0  0  0  0  0  2  0  0  0  0  0  0
  180.2800  178.7070  141.7530 C   0  0  0  0  0  3  0  0  0  0  0  0
  180.9560  178.7430  140.7560 C   0  0  0  0  0  0  0  0  0  0  0  0
  1  3  1  0  0  0  0
  2 18  1  0  0  0  0
  2 21  1  1  0  0  0
  3 34  1  6  0  0  0
  3  7  1  0  0  0  0
  4 23  1  6  0  0  0
  4  2  1  0  0  0  0
  4 18  1  0  0  0  0
  5  9  1  0  0  0  0
  6 16  1  0  0  0  0
  6 14  1  0  0  0  0
  8 11  1  1  0  0  0
  8 17  1  0  0  0  0
  8 15  1  0  0  0  0
 10 20  1  1  0  0  0
 10 13  1  0  0  0  0
 11  1  1  0  0  0  0
 12  9  1  0  0  0  0
 14  4  1  0  0  0  0
 15  2  1  0  0  0  0
 15 12  1  1  0  0  0
 16  1  2  0  0  0  0
 16 19  1  0  0  0  0
 17 29  1  6  0  0  0
 17  5  1  0  0  0  0
 18 35  1  1  0  0  0
 18 21  1  0  0  0  0
 19 10  1  0  0  0  0
 19 13  1  1  0  0  0
 20  7  1  0  0  0  0
 22 23  1  0  0  0  0
 23 24  2  0  0  0  0
 26 27  2  0  0  0  0
 27 24  1  0  0  0  0
 27 25  1  0  0  0  0
 28 22  2  0  0  0  0
 28 26  1  0  0  0  0
 29 30  1  0  0  0  0
 29 32  1  0  0  0  0
 30 32  1  0  0  0  0
 31 29  1  0  0  0  0
 33 34  1  0  0  0  0
 35 37  1  0  0  0  0
 37 36  3  0  0  0  0
M  END
>  <MODEL>
5

>  <REMARK>
 VINA RESULT:      -3.8      2.346      5.816
  Name = 
  5 active torsions:
  status: ('A' for Active; 'I' for Inactive)
    1  A    between atoms: C_3  and  C_30
    2  A    between atoms: C_5  and  C_23
    3  A    between atoms: C_6  and  C_7
    4  A    between atoms: C_14  and  C_31
    5  A    between atoms: C_14  and  C_37
                            x       y       z     vdW  Elec       q    Type
                         _______ _______ _______ _____ _____    ______ ____

>  <TORSDO>
F 5

$$$$
=
 OpenBabel11052415203D

 37 44  0  0  1  0  0  0  0  0999 V2000
  181.4700  179.5700  139.3000 C   0  0  0  0  0  0  0  0  0  0  0  0
  182.1090  176.7790  138.2440 C   0  0  1  0  0  0  0  0  0  0  0  0
  180.0830  180.0270  139.6060 C   0  0  1  0  0  3  0  0  0  0  0  0
  183.6040  176.8410  138.5260 C   0  0  1  0  0  0  0  0  0  0  0  0
  178.9750  177.9070  135.9180 C   0  0  0  0  0  2  0  0  0  0  0  0
  183.7070  178.7120  139.9550 C   0  0  0  0  0  2  0  0  0  0  0  0
  179.3380  178.9520  140.1380 O   0  0  0  0  0  0  0  0  0  0  0  0
  181.2320  178.7540  136.8380 C   0  0  1  0  0  3  0  0  0  0  0  0
  179.3820  176.5220  136.3660 C   0  0  0  0  0  2  0  0  0  0  0  0
  180.4910  178.6660  142.3250 C   0  0  1  0  0  3  0  0  0  0  0  0
  181.9340  179.6950  137.8550 C   0  0  0  0  0  2  0  0  0  0  0  0
  180.8400  176.3350  136.0080 C   0  0  0  0  0  2  0  0  0  0  0  0
  181.2170  177.4660  141.7800 C   0  0  0  0  0  2  0  0  0  0  0  0
  183.8850  177.2630  139.8920 N   0  0  0  0  0  2  0  0  0  0  0  0
  181.7260  177.2740  136.8340 C   0  0  2  0  0  3  0  0  0  0  0  0
  182.2760  179.0610  140.2680 C   0  0  0  0  0  0  0  0  0  0  0  0
  179.7040  178.9930  136.7130 C   0  0  1  0  0  3  0  0  0  0  0  0
  182.9330  175.4700  138.3990 C   0  0  1  0  0  0  0  0  0  0  0  0
  181.8980  178.8350  141.7220 C   0  0  1  0  0  3  0  0  0  0  0  0
  179.2400  179.0670  141.5330 C   0  0  0  0  0  2  0  0  0  0  0  0
  181.4570  175.5020  138.7370 C   0  0  0  0  0  2  0  0  0  0  0  0
  184.4010  177.1030  136.1240 C   0  0  0  0  0  3  0  0  0  0  0  0
  184.6680  177.1770  137.4970 C   0  0  0  0  0  0  0  0  0  0  0  0
  185.9010  177.6930  137.9260 C   0  0  0  0  0  3  0  0  0  0  0  0
  188.0630  178.5590  137.4180 F   0  0  0  0  0  0  0  0  0  0  0  0
  186.6040  177.9710  135.6270 C   0  0  0  0  0  3  0  0  0  0  0  0
  186.8700  178.0770  136.9950 C   0  0  0  0  0  0  0  0  0  0  0  0
  185.3680  177.4880  135.1920 C   0  0  0  0  0  3  0  0  0  0  0  0
  179.4220  180.3410  136.0410 C   0  0  0  0  0  0  0  0  0  0  0  0
  178.9320  180.3110  134.6120 C   0  0  0  0  0  2  0  0  0  0  0  0
  178.9960  181.5470  136.8610 C   0  0  0  0  0  1  0  0  0  0  0  0
  180.3730  180.6900  134.9150 C   0  0  0  0  0  2  0  0  0  0  0  0
  178.9340  182.2810  139.7960 C   0  0  0  0  0  1  0  0  0  0  0  0
  180.0190  181.3780  140.3550 C   0  0  0  0  0  2  0  0  0  0  0  0
  183.1680  174.7460  137.0730 C   0  0  0  0  0  2  0  0  0  0  0  0
  184.6110  172.5390  137.4900 C   0  0  0  0  0  3  0  0  0  0  0  0
  183.9600  173.5350  137.3010 C   0  0  0  0  0  0  0  0  0  0  0  0
  1  3  1  0  0  0  0
  1 16  2  0  0  0  0
  2 18  1  0  0  0  0
  2  4  1  0  0  0  0
  2 21  1  1  0  0  0
  3  7  1  0  0  0  0
  3 34  1  1  0  0  0
  4 23  1  6  0  0  0
  4 14  1  0  0  0  0
  5  9  1  0  0  0  0
  6 16  1  0  0  0  0
  7 20  1  0  0  0  0
  8 11  1  1  0  0  0
 10 20  1  6  0  0  0
 11  1  1  0  0  0  0
 12  9  1  0  0  0  0
 13 10  1  0  0  0  0
 14  6  1  0  0  0  0
 15 12  1  1  0  0  0
 15  8  1  0  0  0  0
 15  2  1  0  0  0  0
 16 19  1  0  0  0  0
 17  5  1  6  0  0  0
 17  8  1  0  0  0  0
 18 35  1  6  0  0  0
 18  4  1  0  0  0  0
 18 21  1  0  0  0  0
 19 13  1  6  0  0  0
 19 10  1  0  0  0  0
 22 23  1  0  0  0  0
 23 24  2  0  0  0  0
 26 27  2  0  0  0  0
 27 25  1  0  0  0  0
 27 24  1  0  0  0  0
 28 26  1  0  0  0  0
 28 22  2  0  0  0  0
 29 17  1  0  0  0  0
 29 31  1  0  0  0  0
 30 32  1  0  0  0  0
 30 29  1  0  0  0  0
 32 29  1  0  0  0  0
 33 34  1  0  0  0  0
 35 37  1  0  0  0  0
 37 36  3  0  0  0  0
M  END
>  <MODEL>
6

>  <REMARK>
 VINA RESULT:      -3.4      2.688      6.750
  Name = 
  5 active torsions:
  status: ('A' for Active; 'I' for Inactive)
    1  A    between atoms: C_3  and  C_30
    2  A    between atoms: C_5  and  C_23
    3  A    between atoms: C_6  and  C_7
    4  A    between atoms: C_14  and  C_31
    5  A    between atoms: C_14  and  C_37
                            x       y       z     vdW  Elec       q    Type
                         _______ _______ _______ _____ _____    ______ ____

>  <TORSDO>
F 5

$$$$
=
 OpenBabel11052415203D

 37 44  0  0  1  0  0  0  0  0999 V2000
  183.0000  175.2400  137.8960 C   0  0  0  0  0  0  0  0  0  0  0  0
  182.6050  178.2250  138.3930 C   0  0  1  0  0  0  0  0  0  0  0  0
  182.0310  174.4080  137.1250 C   0  0  1  0  0  3  0  0  0  0  0  0
  184.0350  178.5020  138.8380 C   0  0  1  0  0  0  0  0  0  0  0  0
  178.9440  176.6930  139.2620 C   0  0  0  0  0  2  0  0  0  0  0  0
  185.1100  176.5300  138.1260 C   0  0  0  0  0  2  0  0  0  0  0  0
  181.4920  175.1700  136.0650 O   0  0  0  0  0  0  0  0  0  0  0  0
  181.4590  176.3200  139.6980 C   0  0  1  0  0  3  0  0  0  0  0  0
  179.3040  178.0560  138.7140 C   0  0  0  0  0  2  0  0  0  0  0  0
  183.5150  175.4160  134.6360 C   0  0  1  0  0  3  0  0  0  0  0  0
  182.7040  175.4480  139.3750 C   0  0  0  0  0  2  0  0  0  0  0  0
  180.3480  178.6550  139.6300 C   0  0  0  0  0  2  0  0  0  0  0  0
  183.6870  176.8270  135.1300 C   0  0  0  0  0  2  0  0  0  0  0  0
  185.0120  177.9700  137.8980 N   0  0  0  0  0  2  0  0  0  0  0  0
  181.6560  177.8600  139.5540 C   0  0  2  0  0  3  0  0  0  0  0  0
  184.0900  175.7900  137.3010 C   0  0  0  0  0  0  0  0  0  0  0  0
  180.1240  175.7230  139.1780 C   0  0  1  0  0  3  0  0  0  0  0  0
  183.1900  179.6630  138.3030 C   0  0  1  0  0  0  0  0  0  0  0  0
  184.4480  175.6980  135.8270 C   0  0  1  0  0  3  0  0  0  0  0  0
  182.1130  174.8320  134.8530 C   0  0  0  0  0  2  0  0  0  0  0  0
  182.0960  179.2090  137.3590 C   0  0  0  0  0  2  0  0  0  0  0  0
  183.6260  178.2860  141.3410 C   0  0  0  0  0  3  0  0  0  0  0  0
  184.4900  178.6000  140.2820 C   0  0  0  0  0  0  0  0  0  0  0  0
  185.8350  178.8860  140.5620 C   0  0  0  0  0  3  0  0  0  0  0  0
  187.5920  179.2040  142.1420 F   0  0  0  0  0  0  0  0  0  0  0  0
  185.4180  178.6250  142.9310 C   0  0  0  0  0  3  0  0  0  0  0  0
  186.2950  178.9100  141.8820 C   0  0  0  0  0  0  0  0  0  0  0  0
  184.0840  178.3090  142.6600 C   0  0  0  0  0  3  0  0  0  0  0  0
  179.7550  174.4600  139.9650 C   0  0  0  0  0  0  0  0  0  0  0  0
  178.9320  174.6430  141.2180 C   0  0  0  0  0  2  0  0  0  0  0  0
  179.6010  173.1220  139.2620 C   0  0  0  0  0  1  0  0  0  0  0  0
  180.4210  174.3510  141.3200 C   0  0  0  0  0  2  0  0  0  0  0  0
  181.4200  171.9770  136.7320 C   0  0  0  0  0  1  0  0  0  0  0  0
  182.5490  172.9900  136.7900 C   0  0  0  0  0  2  0  0  0  0  0  0
  182.6280  180.6080  139.3660 C   0  0  0  0  0  2  0  0  0  0  0  0
  181.3620  182.6440  138.1910 C   0  0  0  0  0  3  0  0  0  0  0  0
  181.9340  181.7250  138.7210 C   0  0  0  0  0  0  0  0  0  0  0  0
  1 11  1  0  0  0  0
  2 21  1  6  0  0  0
  2  4  1  0  0  0  0
  2 15  1  0  0  0  0
  3 34  1  6  0  0  0
  3  1  1  0  0  0  0
  4 23  1  1  0  0  0
  7  3  1  0  0  0  0
  8 11  1  6  0  0  0
  9  5  1  0  0  0  0
  9 12  1  0  0  0  0
 10 20  1  1  0  0  0
 10 13  1  0  0  0  0
 10 19  1  0  0  0  0
 14  6  1  0  0  0  0
 14  4  1  0  0  0  0
 15 12  1  6  0  0  0
 15  8  1  0  0  0  0
 16  1  2  0  0  0  0
 16  6  1  0  0  0  0
 17  5  1  1  0  0  0
 17  8  1  0  0  0  0
 17 29  1  0  0  0  0
 18  2  1  0  0  0  0
 18  4  1  0  0  0  0
 18 35  1  1  0  0  0
 19 13  1  6  0  0  0
 19 16  1  0  0  0  0
 20  7  1  0  0  0  0
 21 18  1  0  0  0  0
 22 28  1  0  0  0  0
 23 24  1  0  0  0  0
 23 22  2  0  0  0  0
 24 27  2  0  0  0  0
 27 25  1  0  0  0  0
 27 26  1  0  0  0  0
 28 26  2  0  0  0  0
 29 30  1  0  0  0  0
 29 32  1  0  0  0  0
 30 32  1  0  0  0  0
 31 29  1  0  0  0  0
 33 34  1  0  0  0  0
 36 37  3  0  0  0  0
 37 35  1  0  0  0  0
M  END
>  <MODEL>
7

>  <REMARK>
 VINA RESULT:      -3.0      2.345      3.481
  Name = 
  5 active torsions:
  status: ('A' for Active; 'I' for Inactive)
    1  A    between atoms: C_3  and  C_30
    2  A    between atoms: C_5  and  C_23
    3  A    between atoms: C_6  and  C_7
    4  A    between atoms: C_14  and  C_31
    5  A    between atoms: C_14  and  C_37
                            x       y       z     vdW  Elec       q    Type
                         _______ _______ _______ _____ _____    ______ ____

>  <TORSDO>
F 5

$$$$
=
 OpenBabel11052415203D

 37 44  0  0  1  0  0  0  0  0999 V2000
  181.5040  178.1340  138.8190 C   0  0  0  0  0  0  0  0  0  0  0  0
  181.2980  175.7930  136.8710 C   0  0  1  0  0  0  0  0  0  0  0  0
  180.3280  178.9520  139.2350 C   0  0  1  0  0  3  0  0  0  0  0  0
  182.6660  175.2020  137.1880 C   0  0  1  0  0  0  0  0  0  0  0  0
  179.1190  178.6780  135.0180 C   0  0  0  0  0  2  0  0  0  0  0  0
  183.1910  176.3470  139.1800 C   0  0  0  0  0  2  0  0  0  0  0  0
  179.1900  178.1220  139.3450 O   0  0  0  0  0  0  0  0  0  0  0  0
  181.3670  178.2870  136.2210 C   0  0  1  0  0  3  0  0  0  0  0  0
  178.9560  177.1750  134.9650 C   0  0  0  0  0  2  0  0  0  0  0  0
  179.8410  176.7530  141.3190 C   0  0  1  0  0  3  0  0  0  0  0  0
  182.1900  178.5270  137.5180 C   0  0  0  0  0  2  0  0  0  0  0  0
  180.2980  176.5830  134.5940 C   0  0  0  0  0  2  0  0  0  0  0  0
  180.1840  175.6070  140.4060 C   0  0  0  0  0  2  0  0  0  0  0  0
  182.8700  175.0350  138.6200 N   0  0  0  0  0  2  0  0  0  0  0  0
  181.3200  176.8130  135.7130 C   0  0  2  0  0  3  0  0  0  0  0  0
  181.9350  177.0840  139.5650 C   0  0  0  0  0  0  0  0  0  0  0  0
  180.0490  179.1040  136.1570 C   0  0  1  0  0  3  0  0  0  0  0  0
  181.5930  174.2950  136.5780 C   0  0  1  0  0  0  0  0  0  0  0  0
  181.2920  176.5680  140.8420 C   0  0  1  0  0  3  0  0  0  0  0  0
  178.9330  177.8180  140.6900 C   0  0  0  0  0  2  0  0  0  0  0  0
  180.1840  174.7660  136.8750 C   0  0  0  0  0  2  0  0  0  0  0  0
  184.0690  176.5630  135.5580 C   0  0  0  0  0  3  0  0  0  0  0  0
  183.9190  175.4250  136.3630 C   0  0  0  0  0  0  0  0  0  0  0  0
  185.0020  174.5420  136.5030 C   0  0  0  0  0  3  0  0  0  0  0  0
  187.2270  173.8990  135.9380 F   0  0  0  0  0  0  0  0  0  0  0  0
  186.3210  175.8890  134.9860 C   0  0  0  0  0  3  0  0  0  0  0  0
  186.1940  174.7660  135.8080 C   0  0  0  0  0  0  0  0  0  0  0  0
  185.2600  176.7890  134.8640 C   0  0  0  0  0  3  0  0  0  0  0  0
  180.3470  180.5970  135.9890 C   0  0  0  0  0  0  0  0  0  0  0  0
  180.8110  181.3510  137.2130 C   0  0  0  0  0  2  0  0  0  0  0  0
  180.8150  181.1530  134.6540 C   0  0  0  0  0  1  0  0  0  0  0  0
  179.3840  181.5140  136.7140 C   0  0  0  0  0  2  0  0  0  0  0  0
  179.6730  181.1050  140.4060 C   0  0  0  0  0  1  0  0  0  0  0  0
  180.6190  179.9180  140.4060 C   0  0  0  0  0  2  0  0  0  0  0  0
  181.7590  173.9940  135.0880 C   0  0  0  0  0  2  0  0  0  0  0  0
  181.5790  171.3640  134.6690 C   0  0  0  0  0  3  0  0  0  0  0  0
  181.6590  172.5510  134.8580 C   0  0  0  0  0  0  0  0  0  0  0  0
  1  3  1  0  0  0  0
  1 16  2  0  0  0  0
  2 21  1  1  0  0  0
  2  4  1  0  0  0  0
  3  7  1  0  0  0  0
  3 34  1  1  0  0  0
  4 23  1  6  0  0  0
  4 14  1  0  0  0  0
  6 16  1  0  0  0  0
  7 20  1  0  0  0  0
  8 11  1  1  0  0  0
  9  5  1  0  0  0  0
 10 13  1  6  0  0  0
 11  1  1  0  0  0  0
 12  9  1  0  0  0  0
 14  6  1  0  0  0  0
 15 12  1  1  0  0  0
 15  8  1  0  0  0  0
 15  2  1  0  0  0  0
 16 19  1  0  0  0  0
 17  5  1  6  0  0  0
 17  8  1  0  0  0  0
 18 35  1  6  0  0  0
 18  2  1  0  0  0  0
 18 21  1  0  0  0  0
 18  4  1  0  0  0  0
 19 13  1  6  0  0  0
 19 10  1  0  0  0  0
 20 10  1  0  0  0  0
 22 23  1  0  0  0  0
 23 24  2  0  0  0  0
 26 27  2  0  0  0  0
 27 25  1  0  0  0  0
 27 24  1  0  0  0  0
 28 26  1  0  0  0  0
 28 22  2  0  0  0  0
 29 17  1  0  0  0  0
 29 32  1  0  0  0  0
 29 30  1  0  0  0  0
 31 29  1  0  0  0  0
 32 30  1  0  0  0  0
 33 34  1  0  0  0  0
 36 37  3  0  0  0  0
 37 35  1  0  0  0  0
M  END
>  <MODEL>
8

>  <REMARK>
 VINA RESULT:      -2.9      2.610      6.831
  Name = 
  5 active torsions:
  status: ('A' for Active; 'I' for Inactive)
    1  A    between atoms: C_3  and  C_30
    2  A    between atoms: C_5  and  C_23
    3  A    between atoms: C_6  and  C_7
    4  A    between atoms: C_14  and  C_31
    5  A    between atoms: C_14  and  C_37
                            x       y       z     vdW  Elec       q    Type
                         _______ _______ _______ _____ _____    ______ ____

>  <TORSDO>
F 5

$$$$
=
 OpenBabel11052415203D

 37 44  0  0  1  0  0  0  0  0999 V2000
  183.2980  177.5420  139.2280 C   0  0  0  0  0  0  0  0  0  0  0  0
  181.9420  176.4990  136.7010 C   0  0  1  0  0  0  0  0  0  0  0  0
  184.0410  178.8360  139.2780 C   0  0  1  0  0  3  0  0  0  0  0  0
  181.0980  175.4410  137.3990 C   0  0  1  0  0  0  0  0  0  0  0  0
  185.5820  177.6720  135.3290 C   0  0  0  0  0  2  0  0  0  0  0  0
  181.3020  176.1250  139.6450 C   0  0  0  0  0  2  0  0  0  0  0  0
  183.3940  179.7850  138.4560 O   0  0  0  0  0  0  0  0  0  0  0  0
  184.4600  176.3380  137.2310 C   0  0  1  0  0  3  0  0  0  0  0  0
  184.2530  177.6430  134.6080 C   0  0  0  0  0  2  0  0  0  0  0  0
  181.2950  180.1190  139.7510 C   0  0  1  0  0  3  0  0  0  0  0  0
  184.0680  176.3250  138.7350 C   0  0  0  0  0  2  0  0  0  0  0  0
  183.6770  176.2530  134.7670 C   0  0  0  0  0  2  0  0  0  0  0  0
  180.5560  179.2500  138.7690 C   0  0  0  0  0  2  0  0  0  0  0  0
  180.3640  175.9890  138.5320 N   0  0  0  0  0  2  0  0  0  0  0  0
  183.3180  175.9790  136.2320 C   0  0  2  0  0  3  0  0  0  0  0  0
  181.9940  177.4620  139.5980 C   0  0  0  0  0  0  0  0  0  0  0  0
  185.4060  177.5040  136.8410 C   0  0  1  0  0  3  0  0  0  0  0  0
  180.6490  175.9580  136.0290 C   0  0  1  0  0  0  0  0  0  0  0  0
  181.1160  178.6180  140.0450 C   0  0  1  0  0  3  0  0  0  0  0  0
  182.6310  180.6680  139.2350 C   0  0  0  0  0  2  0  0  0  0  0  0
  181.1520  177.3550  135.7310 C   0  0  0  0  0  2  0  0  0  0  0  0
  180.5080  173.0160  137.8970 C   0  0  0  0  0  3  0  0  0  0  0  0
  181.4520  173.9690  137.4900 C   0  0  0  0  0  0  0  0  0  0  0  0
  182.7080  173.5340  137.0370 C   0  0  0  0  0  3  0  0  0  0  0  0
  184.2520  171.7670  136.6190 F   0  0  0  0  0  0  0  0  0  0  0  0
  182.0930  171.2360  137.4780 C   0  0  0  0  0  3  0  0  0  0  0  0
  183.0310  172.1740  137.0430 C   0  0  0  0  0  0  0  0  0  0  0  0
  180.8290  171.6570  137.9020 C   0  0  0  0  0  3  0  0  0  0  0  0
  186.7940  177.3020  137.4580 C   0  0  0  0  0  0  0  0  0  0  0  0
  187.2070  178.2530  138.5570 C   0  0  0  0  0  2  0  0  0  0  0  0
  187.4350  175.9240  137.5010 C   0  0  0  0  0  1  0  0  0  0  0  0
  187.7810  178.4100  137.1570 C   0  0  0  0  0  2  0  0  0  0  0  0
  185.3330  178.2640  141.3840 C   0  0  0  0  0  1  0  0  0  0  0  0
  184.4320  179.2790  140.7060 C   0  0  0  0  0  2  0  0  0  0  0  0
  180.9280  175.0220  134.8520 C   0  0  0  0  0  2  0  0  0  0  0  0
  178.9310  173.2700  134.5940 C   0  0  0  0  0  3  0  0  0  0  0  0
  179.8320  174.0610  134.7090 C   0  0  0  0  0  0  0  0  0  0  0  0
  1  3  1  0  0  0  0
  1 16  2  0  0  0  0
  2 21  1  1  0  0  0
  2  4  1  0  0  0  0
  3 34  1  1  0  0  0
  4 23  1  1  0  0  0
  4 14  1  0  0  0  0
  7 20  1  0  0  0  0
  7  3  1  0  0  0  0
  8 11  1  1  0  0  0
  9 12  1  0  0  0  0
  9  5  1  0  0  0  0
 10 13  1  6  0  0  0
 10 19  1  0  0  0  0
 11  1  1  0  0  0  0
 14  6  1  0  0  0  0
 15 12  1  6  0  0  0
 15  2  1  0  0  0  0
 15  8  1  0  0  0  0
 16  6  1  0  0  0  0
 16 19  1  0  0  0  0
 17  5  1  6  0  0  0
 17  8  1  0  0  0  0
 17 29  1  0  0  0  0
 18 35  1  6  0  0  0
 18  2  1  0  0  0  0
 18  4  1  0  0  0  0
 19 13  1  6  0  0  0
 20 10  1  0  0  0  0
 21 18  1  0  0  0  0
 22 28  1  0  0  0  0
 23 22  2  0  0  0  0
 24 27  2  0  0  0  0
 24 23  1  0  0  0  0
 25 27  1  0  0  0  0
 26 28  2  0  0  0  0
 27 26  1  0  0  0  0
 29 31  1  0  0  0  0
 29 30  1  0  0  0  0
 32 29  1  0  0  0  0
 32 30  1  0  0  0  0
 34 33  1  0  0  0  0
 36 37  3  0  0  0  0
 37 35  1  0  0  0  0
M  END
>  <MODEL>
9

>  <REMARK>
 VINA RESULT:      -2.8      2.688      6.464
  Name = 
  5 active torsions:
  status: ('A' for Active; 'I' for Inactive)
    1  A    between atoms: C_3  and  C_30
    2  A    between atoms: C_5  and  C_23
    3  A    between atoms: C_6  and  C_7
    4  A    between atoms: C_14  and  C_31
    5  A    between atoms: C_14  and  C_37
                            x       y       z     vdW  Elec       q    Type
                         _______ _______ _______ _____ _____    ______ ____

>  <TORSDO>
F 5

$$$$
