=
 OpenBabel11052412453D

 25 28  0  0  1  0  0  0  0  0999 V2000
  187.5170  178.0860  145.7000 C   0  0  0  0  0  0  0  0  0  0  0  0
  188.7700  177.5840  145.3370 C   0  0  0  0  0  0  0  0  0  0  0  0
  187.9440  177.5570  148.0010 C   0  0  0  0  0  3  0  0  0  0  0  0
  186.4880  178.6800  144.8100 C   0  0  2  0  0  3  0  0  0  0  0  0
  183.7340  178.9120  143.9450 C   0  0  0  0  0  2  0  0  0  0  0  0
  189.1670  177.0680  147.6490 N   0  0  0  0  0  0  0  0  0  0  0  0
  185.3950  179.1670  145.8020 C   0  0  1  0  0  3  0  0  0  0  0  0
  183.9830  178.7060  145.4370 C   0  0  0  0  0  2  0  0  0  0  0  0
  190.9570  176.5020  146.0040 C   0  0  2  0  0  3  0  0  0  0  0  0
  191.9140  176.7520  147.0690 N   0  0  0  0  0  1  0  0  0  0  0  0
  189.2130  177.6030  143.9770 N   0  0  0  0  0  2  0  0  0  0  0  0
  184.7400  178.1500  143.0680 C   0  0  0  0  0  2  0  0  0  0  0  0
  187.1160  178.0800  147.0100 C   0  0  0  0  0  0  0  0  0  0  0  0
  185.7710  178.6620  147.2020 C   0  0  0  0  0  2  0  0  0  0  0  0
  191.5020  177.0770  144.6960 C   0  0  0  0  0  2  0  0  0  0  0  0
  185.9530  177.6230  143.8400 C   0  0  0  0  0  2  0  0  0  0  0  0
  190.4570  176.9470  143.5870 C   0  0  2  0  0  3  0  0  0  0  0  0
  189.6110  177.0870  146.3560 C   0  0  0  0  0  0  0  0  0  0  0  0
  190.9700  177.5020  142.2640 C   0  0  0  0  0  2  0  0  0  0  0  0
  190.4230  176.7320  141.0690 C   0  0  0  0  0  2  0  0  0  0  0  0
  189.8380  177.6990  138.7850 N   0  0  0  0  0  0  0  0  0  0  0  0
  190.8710  176.8970  138.1500 C   0  0  0  0  0  1  0  0  0  0  0  0
  189.0320  178.5700  137.9460 C   0  0  0  0  0  1  0  0  0  0  0  0
  189.6190  177.6430  140.2030 C   0  0  0  0  0  0  0  0  0  0  0  0
  188.7210  178.3500  140.7340 O   0  0  0  0  0  0  0  0  0  0  0  0
  1 13  1  0  0  0  0
  2  1  2  0  0  0  0
  2 18  1  0  0  0  0
  4 16  1  6  0  0  0
  4  1  1  0  0  0  0
  4  7  1  0  0  0  0
  5  8  1  0  0  0  0
  6  3  1  0  0  0  0
  7  8  1  6  0  0  0
  7 14  1  0  0  0  0
  9 18  1  0  0  0  0
  9 10  1  1  0  0  0
 11  2  1  0  0  0  0
 12 16  1  0  0  0  0
 12  5  1  0  0  0  0
 13 14  1  0  0  0  0
 13  3  2  0  0  0  0
 15  9  1  0  0  0  0
 17 19  1  6  0  0  0
 17 11  1  0  0  0  0
 17 15  1  0  0  0  0
 18  6  2  0  0  0  0
 20 19  1  0  0  0  0
 21 24  1  0  0  0  0
 22 21  1  0  0  0  0
 23 21  1  0  0  0  0
 24 25  2  0  0  0  0
 24 20  1  0  0  0  0
M  END
>  <MODEL>
1

>  <REMARK>
 VINA RESULT:     -10.0      0.000      0.000
  Name = 
  3 active torsions:
  status: ('A' for Active; 'I' for Inactive)
    1  A    between atoms: C_6  and  C_15
    2  A    between atoms: C_6  and  C_23
    3  A    between atoms: C_15  and  C_21
                            x       y       z     vdW  Elec       q    Type
                         _______ _______ _______ _____ _____    ______ ____

>  <TORSDO>
F 3

$$$$
=
 OpenBabel11052412453D

 25 28  0  0  1  0  0  0  0  0999 V2000
  187.3850  177.8290  145.4980 C   0  0  0  0  0  0  0  0  0  0  0  0
  186.5820  178.3450  144.4770 C   0  0  0  0  0  0  0  0  0  0  0  0
  185.7380  178.4390  147.1330 C   0  0  0  0  0  3  0  0  0  0  0  0
  188.7160  177.1870  145.3650 C   0  0  2  0  0  3  0  0  0  0  0  0
  191.4600  176.8710  146.2340 C   0  0  0  0  0  2  0  0  0  0  0  0
  184.9530  178.9410  146.1380 N   0  0  0  0  0  0  0  0  0  0  0  0
  189.0280  176.7080  146.8100 C   0  0  1  0  0  3  0  0  0  0  0  0
  190.4110  177.1280  147.3130 C   0  0  0  0  0  2  0  0  0  0  0  0
  184.4450  179.4930  143.7570 C   0  0  2  0  0  3  0  0  0  0  0  0
  183.0430  179.2960  144.0870 N   0  0  0  0  0  1  0  0  0  0  0  0
  186.9950  178.2930  143.1080 N   0  0  0  0  0  2  0  0  0  0  0  0
  191.1630  177.6260  144.9290 C   0  0  0  0  0  2  0  0  0  0  0  0
  186.9650  177.8680  146.8010 C   0  0  0  0  0  0  0  0  0  0  0  0
  187.9380  177.2640  147.7360 C   0  0  0  0  0  2  0  0  0  0  0  0
  184.7270  178.8890  142.3810 C   0  0  0  0  0  2  0  0  0  0  0  0
  189.7460  178.2010  144.8600 C   0  0  0  0  0  2  0  0  0  0  0  0
  186.2210  178.9620  142.0680 C   0  0  2  0  0  3  0  0  0  0  0  0
  185.3280  178.8910  144.8240 C   0  0  0  0  0  0  0  0  0  0  0  0
  186.5370  178.3770  140.6960 C   0  0  0  0  0  2  0  0  0  0  0  0
  188.0360  178.2190  140.4730 C   0  0  0  0  0  2  0  0  0  0  0  0
  189.5140  177.4820  138.5320 N   0  0  0  0  0  0  0  0  0  0  0  0
  190.4940  176.9270  139.4530 C   0  0  0  0  0  1  0  0  0  0  0  0
  189.7730  177.3740  137.1060 C   0  0  0  0  0  1  0  0  0  0  0  0
  188.3240  178.1270  139.0110 C   0  0  0  0  0  0  0  0  0  0  0  0
  187.4900  178.6040  138.1960 O   0  0  0  0  0  0  0  0  0  0  0  0
  1 13  1  0  0  0  0
  2 18  1  0  0  0  0
  2  1  2  0  0  0  0
  4 16  1  1  0  0  0
  4  1  1  0  0  0  0
  4  7  1  0  0  0  0
  5  8  1  0  0  0  0
  6  3  1  0  0  0  0
  7  8  1  1  0  0  0
  7 14  1  0  0  0  0
  9 10  1  1  0  0  0
  9 18  1  0  0  0  0
 11  2  1  0  0  0  0
 12  5  1  0  0  0  0
 13  3  2  0  0  0  0
 13 14  1  0  0  0  0
 15  9  1  0  0  0  0
 16 12  1  0  0  0  0
 17 19  1  6  0  0  0
 17 15  1  0  0  0  0
 17 11  1  0  0  0  0
 18  6  2  0  0  0  0
 20 19  1  0  0  0  0
 21 24  1  0  0  0  0
 21 22  1  0  0  0  0
 23 21  1  0  0  0  0
 24 20  1  0  0  0  0
 25 24  2  0  0  0  0
M  END
>  <MODEL>
2

>  <REMARK>
 VINA RESULT:      -9.5      2.090      4.711
  Name = 
  3 active torsions:
  status: ('A' for Active; 'I' for Inactive)
    1  A    between atoms: C_6  and  C_15
    2  A    between atoms: C_6  and  C_23
    3  A    between atoms: C_15  and  C_21
                            x       y       z     vdW  Elec       q    Type
                         _______ _______ _______ _____ _____    ______ ____

>  <TORSDO>
F 3

$$$$
=
 OpenBabel11052412453D

 25 28  0  0  1  0  0  0  0  0999 V2000
  189.1180  177.1370  144.3130 C   0  0  0  0  0  0  0  0  0  0  0  0
  188.2220  177.6520  145.2540 C   0  0  0  0  0  0  0  0  0  0  0  0
  190.7840  176.8550  146.0170 C   0  0  0  0  0  3  0  0  0  0  0  0
  188.8880  176.9320  142.8610 C   0  0  2  0  0  3  0  0  0  0  0  0
  189.7660  177.1660  140.1120 C   0  0  0  0  0  2  0  0  0  0  0  0
  189.9100  177.3550  146.9370 N   0  0  0  0  0  0  0  0  0  0  0  0
  190.1840  176.2140  142.3910 C   0  0  1  0  0  3  0  0  0  0  0  0
  190.8300  176.8550  141.1610 C   0  0  0  0  0  2  0  0  0  0  0  0
  187.7180  178.3190  147.6420 C   0  0  2  0  0  3  0  0  0  0  0  0
  187.9300  177.6750  148.9270 N   0  0  0  0  0  1  0  0  0  0  0  0
  186.9010  178.0520  144.8800 N   0  0  0  0  0  2  0  0  0  0  0  0
  188.6740  178.1100  140.6390 C   0  0  0  0  0  2  0  0  0  0  0  0
  190.3730  176.7370  144.6910 C   0  0  0  0  0  0  0  0  0  0  0  0
  191.1710  176.2080  143.5650 C   0  0  0  0  0  2  0  0  0  0  0  0
  186.2480  178.1730  147.2440 C   0  0  0  0  0  2  0  0  0  0  0  0
  188.6900  178.2790  142.1610 C   0  0  0  0  0  2  0  0  0  0  0  0
  186.0250  178.7220  145.8350 C   0  0  2  0  0  3  0  0  0  0  0  0
  188.6400  177.7340  146.5990 C   0  0  0  0  0  0  0  0  0  0  0  0
  184.5660  178.6020  145.4100 C   0  0  0  0  0  2  0  0  0  0  0  0
  184.1880  179.6400  144.3610 C   0  0  0  0  0  2  0  0  0  0  0  0
  183.7840  178.7380  142.0120 N   0  0  0  0  0  0  0  0  0  0  0  0
  185.1440  179.0720  141.6200 C   0  0  0  0  0  1  0  0  0  0  0  0
  182.9190  178.1130  141.0260 C   0  0  0  0  0  1  0  0  0  0  0  0
  183.2990  179.0220  143.3330 C   0  0  0  0  0  0  0  0  0  0  0  0
  182.1150  178.7280  143.6510 O   0  0  0  0  0  0  0  0  0  0  0  0
  1 13  2  0  0  0  0
  1  2  1  0  0  0  0
  2 18  2  0  0  0  0
  3  6  2  0  0  0  0
  4 16  1  6  0  0  0
  4  1  1  0  0  0  0
  5 12  1  0  0  0  0
  5  8  1  0  0  0  0
  7  8  1  6  0  0  0
  7  4  1  0  0  0  0
  7 14  1  0  0  0  0
  9 10  1  1  0  0  0
 11  2  1  0  0  0  0
 11 17  1  0  0  0  0
 12 16  1  0  0  0  0
 13  3  1  0  0  0  0
 14 13  1  0  0  0  0
 15  9  1  0  0  0  0
 17 19  1  6  0  0  0
 17 15  1  0  0  0  0
 18  6  1  0  0  0  0
 18  9  1  0  0  0  0
 20 19  1  0  0  0  0
 21 24  1  0  0  0  0
 22 21  1  0  0  0  0
 23 21  1  0  0  0  0
 24 25  2  0  0  0  0
 24 20  1  0  0  0  0
M  END
>  <MODEL>
3

>  <REMARK>
 VINA RESULT:      -9.3      2.389      5.524
  Name = 
  3 active torsions:
  status: ('A' for Active; 'I' for Inactive)
    1  A    between atoms: C_6  and  C_15
    2  A    between atoms: C_6  and  C_23
    3  A    between atoms: C_15  and  C_21
                            x       y       z     vdW  Elec       q    Type
                         _______ _______ _______ _____ _____    ______ ____

>  <TORSDO>
F 3

$$$$
=
 OpenBabel11052412453D

 25 28  0  0  1  0  0  0  0  0999 V2000
  186.7890  178.1620  144.3540 C   0  0  0  0  0  0  0  0  0  0  0  0
  187.9400  177.6660  143.7360 C   0  0  0  0  0  0  0  0  0  0  0  0
  187.6240  177.4900  146.5020 C   0  0  0  0  0  3  0  0  0  0  0  0
  185.6280  178.8230  143.7080 C   0  0  2  0  0  3  0  0  0  0  0  0
  182.7680  179.1450  143.3870 C   0  0  0  0  0  2  0  0  0  0  0  0
  188.7480  177.0070  145.9000 N   0  0  0  0  0  0  0  0  0  0  0  0
  184.7510  179.2650  144.9130 C   0  0  1  0  0  3  0  0  0  0  0  0
  183.2840  178.8460  144.7930 C   0  0  0  0  0  2  0  0  0  0  0  0
  190.1870  176.5160  143.9200 C   0  0  2  0  0  3  0  0  0  0  0  0
  191.3310  176.6890  144.8000 N   0  0  0  0  0  1  0  0  0  0  0  0
  188.1230  177.7610  142.3210 N   0  0  0  0  0  2  0  0  0  0  0  0
  183.5740  178.4230  142.2970 C   0  0  0  0  0  2  0  0  0  0  0  0
  186.6400  178.0830  145.7140 C   0  0  0  0  0  0  0  0  0  0  0  0
  185.3680  178.6710  146.1860 C   0  0  0  0  0  2  0  0  0  0  0  0
  190.4920  177.1610  142.5670 C   0  0  0  0  0  2  0  0  0  0  0  0
  184.8970  177.8340  142.7960 C   0  0  0  0  0  2  0  0  0  0  0  0
  189.2570  177.1130  141.6680 C   0  0  2  0  0  3  0  0  0  0  0  0
  188.9430  177.0980  144.5500 C   0  0  0  0  0  0  0  0  0  0  0  0
  189.5280  177.7390  140.3060 C   0  0  0  0  0  2  0  0  0  0  0  0
  188.2420  178.1220  139.5850 C   0  0  0  0  0  2  0  0  0  0  0  0
  188.3180  177.4090  137.1390 N   0  0  0  0  0  0  0  0  0  0  0  0
  187.8450  176.0780  137.4840 C   0  0  0  0  0  1  0  0  0  0  0  0
  188.5780  177.7050  135.7400 C   0  0  0  0  0  1  0  0  0  0  0  0
  188.5320  178.4080  138.1490 C   0  0  0  0  0  0  0  0  0  0  0  0
  188.9460  179.5540  137.8280 O   0  0  0  0  0  0  0  0  0  0  0  0
  1 13  1  0  0  0  0
  2  1  2  0  0  0  0
  2 18  1  0  0  0  0
  4 16  1  6  0  0  0
  4  1  1  0  0  0  0
  4  7  1  0  0  0  0
  5  8  1  0  0  0  0
  6  3  1  0  0  0  0
  7  8  1  6  0  0  0
  7 14  1  0  0  0  0
  9 18  1  0  0  0  0
  9 10  1  1  0  0  0
 11  2  1  0  0  0  0
 12 16  1  0  0  0  0
 12  5  1  0  0  0  0
 13 14  1  0  0  0  0
 13  3  2  0  0  0  0
 15  9  1  0  0  0  0
 17 19  1  6  0  0  0
 17 11  1  0  0  0  0
 17 15  1  0  0  0  0
 18  6  2  0  0  0  0
 20 19  1  0  0  0  0
 21 22  1  0  0  0  0
 21 24  1  0  0  0  0
 23 21  1  0  0  0  0
 24 20  1  0  0  0  0
 25 24  2  0  0  0  0
M  END
>  <MODEL>
4

>  <REMARK>
 VINA RESULT:      -9.2      1.560      2.047
  Name = 
  3 active torsions:
  status: ('A' for Active; 'I' for Inactive)
    1  A    between atoms: C_6  and  C_15
    2  A    between atoms: C_6  and  C_23
    3  A    between atoms: C_15  and  C_21
                            x       y       z     vdW  Elec       q    Type
                         _______ _______ _______ _____ _____    ______ ____

>  <TORSDO>
F 3

$$$$
=
 OpenBabel11052412453D

 25 28  0  0  1  0  0  0  0  0999 V2000
  187.3980  177.8260  145.3950 C   0  0  0  0  0  0  0  0  0  0  0  0
  186.3620  178.3310  144.6040 C   0  0  0  0  0  0  0  0  0  0  0  0
  186.1820  178.3850  147.3870 C   0  0  0  0  0  3  0  0  0  0  0  0
  188.6710  177.2160  144.9370 C   0  0  2  0  0  3  0  0  0  0  0  0
  191.5500  176.9570  145.1150 C   0  0  0  0  0  2  0  0  0  0  0  0
  185.1700  178.8760  146.6170 N   0  0  0  0  0  0  0  0  0  0  0  0
  189.3320  176.7340  146.2580 C   0  0  1  0  0  3  0  0  0  0  0  0
  190.7870  177.1820  146.4180 C   0  0  0  0  0  2  0  0  0  0  0  0
  184.0910  179.4340  144.4350 C   0  0  2  0  0  3  0  0  0  0  0  0
  182.8150  179.2010  145.0900 N   0  0  0  0  0  1  0  0  0  0  0  0
  186.4340  178.2990  143.1760 N   0  0  0  0  0  2  0  0  0  0  0  0
  190.9310  177.7150  143.9300 C   0  0  0  0  0  2  0  0  0  0  0  0
  187.3040  177.8450  146.7610 C   0  0  0  0  0  0  0  0  0  0  0  0
  188.4860  177.2570  147.4260 C   0  0  0  0  0  2  0  0  0  0  0  0
  184.0450  178.8470  143.0240 C   0  0  0  0  0  2  0  0  0  0  0  0
  189.5270  178.2580  144.2120 C   0  0  0  0  0  2  0  0  0  0  0  0
  185.4180  178.9580  142.3610 C   0  0  2  0  0  3  0  0  0  0  0  0
  185.2180  178.8450  145.2500 C   0  0  0  0  0  0  0  0  0  0  0  0
  185.4070  178.3900  140.9460 C   0  0  0  0  0  2  0  0  0  0  0  0
  183.9920  178.2320  140.4040 C   0  0  0  0  0  2  0  0  0  0  0  0
  182.2800  179.7370  139.2640 N   0  0  0  0  0  0  0  0  0  0  0  0
  181.1850  178.9400  139.7950 C   0  0  0  0  0  1  0  0  0  0  0  0
  181.9550  180.8890  138.4400 C   0  0  0  0  0  1  0  0  0  0  0  0
  183.6480  179.3980  139.5370 C   0  0  0  0  0  0  0  0  0  0  0  0
  184.5820  180.0990  139.0630 O   0  0  0  0  0  0  0  0  0  0  0  0
  1 13  1  0  0  0  0
  2 18  1  0  0  0  0
  2  1  2  0  0  0  0
  4 16  1  1  0  0  0
  4  1  1  0  0  0  0
  4  7  1  0  0  0  0
  5  8  1  0  0  0  0
  6  3  1  0  0  0  0
  7  8  1  1  0  0  0
  7 14  1  0  0  0  0
  9 10  1  1  0  0  0
  9 18  1  0  0  0  0
 11  2  1  0  0  0  0
 12 16  1  0  0  0  0
 12  5  1  0  0  0  0
 13  3  2  0  0  0  0
 13 14  1  0  0  0  0
 15  9  1  0  0  0  0
 17 19  1  6  0  0  0
 17 15  1  0  0  0  0
 17 11  1  0  0  0  0
 18  6  2  0  0  0  0
 20 19  1  0  0  0  0
 21 24  1  0  0  0  0
 21 22  1  0  0  0  0
 23 21  1  0  0  0  0
 24 20  1  0  0  0  0
 25 24  2  0  0  0  0
M  END
>  <MODEL>
5

>  <REMARK>
 VINA RESULT:      -9.1      3.203      5.904
  Name = 
  3 active torsions:
  status: ('A' for Active; 'I' for Inactive)
    1  A    between atoms: C_6  and  C_15
    2  A    between atoms: C_6  and  C_23
    3  A    between atoms: C_15  and  C_21
                            x       y       z     vdW  Elec       q    Type
                         _______ _______ _______ _____ _____    ______ ____

>  <TORSDO>
F 3

$$$$
=
 OpenBabel11052412453D

 25 28  0  0  1  0  0  0  0  0999 V2000
  187.9450  177.4320  143.7100 C   0  0  0  0  0  0  0  0  0  0  0  0
  186.7320  177.9980  144.1110 C   0  0  0  0  0  0  0  0  0  0  0  0
  188.7480  177.4940  145.9710 C   0  0  0  0  0  3  0  0  0  0  0  0
  188.3450  177.0250  142.3400 C   0  0  2  0  0  3  0  0  0  0  0  0
  190.2890  176.9640  140.1950 C   0  0  0  0  0  2  0  0  0  0  0  0
  187.5650  178.0450  146.3640 N   0  0  0  0  0  0  0  0  0  0  0  0
  189.7270  176.3480  142.5570 C   0  0  1  0  0  3  0  0  0  0  0  0
  190.8210  176.8700  141.6230 C   0  0  0  0  0  2  0  0  0  0  0  0
  185.2670  178.9300  145.9520 C   0  0  2  0  0  3  0  0  0  0  0  0
  184.9310  178.4740  147.2910 N   0  0  0  0  0  1  0  0  0  0  0  0
  185.6830  178.2500  143.1720 N   0  0  0  0  0  2  0  0  0  0  0  0
  189.0660  177.8870  140.0810 C   0  0  0  0  0  2  0  0  0  0  0  0
  188.9310  177.1770  144.6260 C   0  0  0  0  0  0  0  0  0  0  0  0
  190.1330  176.5650  144.0210 C   0  0  0  0  0  2  0  0  0  0  0  0
  184.1000  178.6280  145.0110 C   0  0  0  0  0  2  0  0  0  0  0  0
  188.4420  178.2520  141.4300 C   0  0  0  0  0  2  0  0  0  0  0  0
  184.4800  178.9730  143.5710 C   0  0  2  0  0  3  0  0  0  0  0  0
  186.5480  178.2840  145.4810 C   0  0  0  0  0  0  0  0  0  0  0  0
  183.3340  178.6930  142.6050 C   0  0  0  0  0  2  0  0  0  0  0  0
  183.8180  178.0380  141.3180 C   0  0  0  0  0  2  0  0  0  0  0  0
  182.3900  179.0130  139.4460 N   0  0  0  0  0  0  0  0  0  0  0  0
  181.2920  178.1220  139.7810 C   0  0  0  0  0  1  0  0  0  0  0  0
  182.2070  179.9460  138.3460 C   0  0  0  0  0  1  0  0  0  0  0  0
  183.6290  178.9740  140.1710 C   0  0  0  0  0  0  0  0  0  0  0  0
  184.5700  179.7530  139.8600 O   0  0  0  0  0  0  0  0  0  0  0  0
  1  2  2  0  0  0  0
  1 13  1  0  0  0  0
  2 18  1  0  0  0  0
  3  6  1  0  0  0  0
  4 16  1  6  0  0  0
  4  7  1  0  0  0  0
  4  1  1  0  0  0  0
  5  8  1  0  0  0  0
  7  8  1  6  0  0  0
  7 14  1  0  0  0  0
  9 10  1  1  0  0  0
 11 17  1  0  0  0  0
 11  2  1  0  0  0  0
 12  5  1  0  0  0  0
 12 16  1  0  0  0  0
 13  3  2  0  0  0  0
 14 13  1  0  0  0  0
 15  9  1  0  0  0  0
 17 19  1  6  0  0  0
 17 15  1  0  0  0  0
 18  9  1  0  0  0  0
 18  6  2  0  0  0  0
 20 19  1  0  0  0  0
 21 22  1  0  0  0  0
 21 24  1  0  0  0  0
 23 21  1  0  0  0  0
 24 20  1  0  0  0  0
 25 24  2  0  0  0  0
M  END
>  <MODEL>
6

>  <REMARK>
 VINA RESULT:      -9.1      2.881      5.852
  Name = 
  3 active torsions:
  status: ('A' for Active; 'I' for Inactive)
    1  A    between atoms: C_6  and  C_15
    2  A    between atoms: C_6  and  C_23
    3  A    between atoms: C_15  and  C_21
                            x       y       z     vdW  Elec       q    Type
                         _______ _______ _______ _____ _____    ______ ____

>  <TORSDO>
F 3

$$$$
=
 OpenBabel11052412453D

 25 28  0  0  1  0  0  0  0  0999 V2000
  186.5440  178.1090  143.8060 C   0  0  0  0  0  0  0  0  0  0  0  0
  187.2700  178.0780  142.6120 C   0  0  0  0  0  0  0  0  0  0  0  0
  184.7380  179.2440  142.7050 C   0  0  0  0  0  3  0  0  0  0  0  0
  186.9500  177.5680  145.1270 C   0  0  2  0  0  3  0  0  0  0  0  0
  187.2000  177.8500  147.9970 C   0  0  0  0  0  2  0  0  0  0  0  0
  185.4450  179.2130  141.5400 N   0  0  0  0  0  0  0  0  0  0  0  0
  185.6850  177.7800  146.0040 C   0  0  1  0  0  3  0  0  0  0  0  0
  185.9710  178.4710  147.3390 C   0  0  0  0  0  2  0  0  0  0  0  0
  187.4440  178.6510  140.1540 C   0  0  2  0  0  3  0  0  0  0  0  0
  186.5350  178.5150  139.0280 N   0  0  0  0  0  1  0  0  0  0  0  0
  188.5640  177.4720  142.5450 N   0  0  0  0  0  2  0  0  0  0  0  0
  188.4550  177.9490  147.1160 C   0  0  0  0  0  2  0  0  0  0  0  0
  185.2960  178.6740  143.8470 C   0  0  0  0  0  0  0  0  0  0  0  0
  184.6780  178.6000  145.1880 C   0  0  0  0  0  2  0  0  0  0  0  0
  188.4890  177.5360  140.0920 C   0  0  0  0  0  2  0  0  0  0  0  0
  188.1590  178.3370  145.6650 C   0  0  0  0  0  2  0  0  0  0  0  0
  189.3760  177.5730  141.3360 C   0  0  2  0  0  3  0  0  0  0  0  0
  186.6790  178.6300  141.4560 C   0  0  0  0  0  0  0  0  0  0  0  0
  190.4370  176.4790  141.3030 C   0  0  0  0  0  2  0  0  0  0  0  0
  191.7260  176.9120  141.9890 C   0  0  0  0  0  2  0  0  0  0  0  0
  191.6160  177.4590  144.4760 N   0  0  0  0  0  0  0  0  0  0  0  0
  191.5780  178.8840  144.1890 C   0  0  0  0  0  1  0  0  0  0  0  0
  191.5700  177.0370  145.8660 C   0  0  0  0  0  1  0  0  0  0  0  0
  191.7050  176.4890  143.4210 C   0  0  0  0  0  0  0  0  0  0  0  0
  191.7410  175.2590  143.6920 O   0  0  0  0  0  0  0  0  0  0  0  0
  1 13  1  0  0  0  0
  1  4  1  0  0  0  0
  2  1  2  0  0  0  0
  3 13  2  0  0  0  0
  4 16  1  1  0  0  0
  4  7  1  0  0  0  0
  6  3  1  0  0  0  0
  7 14  1  6  0  0  0
  7  8  1  0  0  0  0
  8  5  1  0  0  0  0
  9 10  1  6  0  0  0
  9 18  1  0  0  0  0
 11  2  1  0  0  0  0
 12  5  1  0  0  0  0
 13 14  1  0  0  0  0
 15  9  1  0  0  0  0
 15 17  1  0  0  0  0
 16 12  1  0  0  0  0
 17 19  1  6  0  0  0
 17 11  1  0  0  0  0
 18  6  2  0  0  0  0
 18  2  1  0  0  0  0
 19 20  1  0  0  0  0
 20 24  1  0  0  0  0
 21 23  1  0  0  0  0
 22 21  1  0  0  0  0
 24 25  2  0  0  0  0
 24 21  1  0  0  0  0
M  END
>  <MODEL>
7

>  <REMARK>
 VINA RESULT:      -9.0      2.049      5.015
  Name = 
  3 active torsions:
  status: ('A' for Active; 'I' for Inactive)
    1  A    between atoms: C_6  and  C_15
    2  A    between atoms: C_6  and  C_23
    3  A    between atoms: C_15  and  C_21
                            x       y       z     vdW  Elec       q    Type
                         _______ _______ _______ _____ _____    ______ ____

>  <TORSDO>
F 3

$$$$
=
 OpenBabel11052412453D

 25 28  0  0  1  0  0  0  0  0999 V2000
  187.0890  178.1490  144.7810 C   0  0  0  0  0  0  0  0  0  0  0  0
  188.2260  177.6480  144.1410 C   0  0  0  0  0  0  0  0  0  0  0  0
  187.9420  177.4380  146.9080 C   0  0  0  0  0  3  0  0  0  0  0  0
  185.9270  178.8310  144.1580 C   0  0  2  0  0  3  0  0  0  0  0  0
  183.0670  179.1900  143.8790 C   0  0  0  0  0  2  0  0  0  0  0  0
  189.0530  176.9500  146.2860 N   0  0  0  0  0  0  0  0  0  0  0  0
  185.0710  179.2670  145.3800 C   0  0  1  0  0  3  0  0  0  0  0  0
  183.5980  178.8670  145.2730 C   0  0  0  0  0  2  0  0  0  0  0  0
  190.4600  176.4690  144.2810 C   0  0  2  0  0  3  0  0  0  0  0  0
  191.6180  176.6170  145.1470 N   0  0  0  0  0  1  0  0  0  0  0  0
  188.3920  177.7590  142.7250 N   0  0  0  0  0  2  0  0  0  0  0  0
  183.8510  178.4740  142.7680 C   0  0  0  0  0  2  0  0  0  0  0  0
  186.9550  178.0530  146.1410 C   0  0  0  0  0  0  0  0  0  0  0  0
  185.6970  178.6500  146.6370 C   0  0  0  0  0  2  0  0  0  0  0  0
  190.7560  177.1280  142.9330 C   0  0  0  0  0  2  0  0  0  0  0  0
  185.1720  177.8630  143.2430 C   0  0  0  0  0  2  0  0  0  0  0  0
  189.5090  177.1060  142.0490 C   0  0  2  0  0  3  0  0  0  0  0  0
  189.2320  177.0570  144.9340 C   0  0  0  0  0  0  0  0  0  0  0  0
  189.7700  177.7480  140.6910 C   0  0  0  0  0  2  0  0  0  0  0  0
  190.9820  177.1420  139.9960 C   0  0  0  0  0  2  0  0  0  0  0  0
  191.5900  176.3090  137.6650 N   0  0  0  0  0  0  0  0  0  0  0  0
  193.0070  176.4850  137.9420 C   0  0  0  0  0  1  0  0  0  0  0  0
  191.2030  175.7960  136.3620 C   0  0  0  0  0  1  0  0  0  0  0  0
  190.5940  176.6390  138.6460 C   0  0  0  0  0  0  0  0  0  0  0  0
  189.3710  176.4830  138.3840 O   0  0  0  0  0  0  0  0  0  0  0  0
  1 13  1  0  0  0  0
  2  1  2  0  0  0  0
  2 18  1  0  0  0  0
  4 16  1  6  0  0  0
  4  1  1  0  0  0  0
  4  7  1  0  0  0  0
  5  8  1  0  0  0  0
  6  3  1  0  0  0  0
  7  8  1  6  0  0  0
  7 14  1  0  0  0  0
  9 18  1  0  0  0  0
  9 10  1  1  0  0  0
 11  2  1  0  0  0  0
 12 16  1  0  0  0  0
 12  5  1  0  0  0  0
 13 14  1  0  0  0  0
 13  3  2  0  0  0  0
 15  9  1  0  0  0  0
 17 19  1  6  0  0  0
 17 11  1  0  0  0  0
 17 15  1  0  0  0  0
 18  6  2  0  0  0  0
 20 19  1  0  0  0  0
 21 22  1  0  0  0  0
 21 24  1  0  0  0  0
 23 21  1  0  0  0  0
 24 20  1  0  0  0  0
 25 24  2  0  0  0  0
M  END
>  <MODEL>
8

>  <REMARK>
 VINA RESULT:      -8.9      1.374      1.727
  Name = 
  3 active torsions:
  status: ('A' for Active; 'I' for Inactive)
    1  A    between atoms: C_6  and  C_15
    2  A    between atoms: C_6  and  C_23
    3  A    between atoms: C_15  and  C_21
                            x       y       z     vdW  Elec       q    Type
                         _______ _______ _______ _____ _____    ______ ____

>  <TORSDO>
F 3

$$$$
=
 OpenBabel11052412453D

 25 28  0  0  1  0  0  0  0  0999 V2000
  186.0950  177.9710  144.3020 C   0  0  0  0  0  0  0  0  0  0  0  0
  184.9840  178.3150  143.5270 C   0  0  0  0  0  0  0  0  0  0  0  0
  184.9470  178.6600  146.2940 C   0  0  0  0  0  3  0  0  0  0  0  0
  187.3840  177.4030  143.8350 C   0  0  2  0  0  3  0  0  0  0  0  0
  190.2790  177.3620  143.8660 C   0  0  0  0  0  2  0  0  0  0  0  0
  183.8620  178.9940  145.5390 N   0  0  0  0  0  0  0  0  0  0  0  0
  188.1470  177.1140  145.1580 C   0  0  1  0  0  3  0  0  0  0  0  0
  189.5710  177.6750  145.1820 C   0  0  0  0  0  2  0  0  0  0  0  0
  182.6320  179.2360  143.3800 C   0  0  2  0  0  3  0  0  0  0  0  0
  181.4120  178.9900  144.1310 N   0  0  0  0  0  1  0  0  0  0  0  0
  184.9830  178.1320  142.1080 N   0  0  0  0  0  2  0  0  0  0  0  0
  189.5440  177.9420  142.6480 C   0  0  0  0  0  2  0  0  0  0  0  0
  186.0710  178.1330  145.6620 C   0  0  0  0  0  0  0  0  0  0  0  0
  187.3270  177.7020  146.3130 C   0  0  0  0  0  2  0  0  0  0  0  0
  182.5550  178.4970  142.0430 C   0  0  0  0  0  2  0  0  0  0  0  0
  188.1210  178.4150  142.9550 C   0  0  0  0  0  2  0  0  0  0  0  0
  183.8800  178.6270  141.2910 C   0  0  2  0  0  3  0  0  0  0  0  0
  183.8400  178.8170  144.1830 C   0  0  0  0  0  0  0  0  0  0  0  0
  183.8360  177.9100  139.9470 C   0  0  0  0  0  2  0  0  0  0  0  0
  184.4370  178.7510  138.8290 C   0  0  0  0  0  2  0  0  0  0  0  0
  186.0030  177.3700  137.3670 N   0  0  0  0  0  0  0  0  0  0  0  0
  184.8890  176.9230  136.5480 C   0  0  0  0  0  1  0  0  0  0  0  0
  187.3370  176.9030  137.0280 C   0  0  0  0  0  1  0  0  0  0  0  0
  185.7990  178.2440  138.4880 C   0  0  0  0  0  0  0  0  0  0  0  0
  186.7790  178.6160  139.1880 O   0  0  0  0  0  0  0  0  0  0  0  0
  1 13  1  0  0  0  0
  2 18  1  0  0  0  0
  2  1  2  0  0  0  0
  4 16  1  6  0  0  0
  4  1  1  0  0  0  0
  4  7  1  0  0  0  0
  5  8  1  0  0  0  0
  6  3  1  0  0  0  0
  7  8  1  6  0  0  0
  7 14  1  0  0  0  0
  9 10  1  1  0  0  0
  9 18  1  0  0  0  0
 11  2  1  0  0  0  0
 12 16  1  0  0  0  0
 12  5  1  0  0  0  0
 13  3  2  0  0  0  0
 13 14  1  0  0  0  0
 15  9  1  0  0  0  0
 17 19  1  6  0  0  0
 17 15  1  0  0  0  0
 17 11  1  0  0  0  0
 18  6  2  0  0  0  0
 20 19  1  0  0  0  0
 21 24  1  0  0  0  0
 22 21  1  0  0  0  0
 23 21  1  0  0  0  0
 24 20  1  0  0  0  0
 24 25  2  0  0  0  0
M  END
>  <MODEL>
9

>  <REMARK>
 VINA RESULT:      -8.7      3.066      5.654
  Name = 
  3 active torsions:
  status: ('A' for Active; 'I' for Inactive)
    1  A    between atoms: C_6  and  C_15
    2  A    between atoms: C_6  and  C_23
    3  A    between atoms: C_15  and  C_21
                            x       y       z     vdW  Elec       q    Type
                         _______ _______ _______ _____ _____    ______ ____

>  <TORSDO>
F 3

$$$$
