=
 OpenBabel11052415383D

 34 38  0  0  1  0  0  0  0  0999 V2000
  183.1120  178.9380  141.6890 C   0  0  0  0  0  0  0  0  0  0  0  0
  180.2340  180.1950  139.6250 C   0  0  0  0  0  3  0  0  0  0  0  0
  180.2680  179.2340  141.7540 O   0  0  0  0  0  0  0  0  0  0  0  0
  185.0530  178.0670  142.9260 C   0  0  0  0  0  0  0  0  0  0  0  0
  184.3360  178.3870  141.6830 C   0  0  0  0  0  3  0  0  0  0  0  0
  183.1730  178.7980  144.2130 C   0  0  0  0  0  0  0  0  0  0  0  0
  182.6770  178.9410  145.3610 O   0  0  0  0  0  0  0  0  0  0  0  0
  184.4850  178.2440  144.0820 N   0  0  0  0  0  0  0  0  0  0  0  0
  186.3720  177.5140  142.8390 N   0  0  0  0  0  2  0  0  0  0  0  0
  180.9730  178.9830  142.9350 C   0  0  0  0  0  0  0  0  0  0  0  0
  182.4430  179.3200  142.9950 C   0  0  2  0  0  3  0  0  0  0  0  0
  180.3530  178.5600  143.9470 O   0  0  0  0  0  0  0  0  0  0  0  0
  180.8300  180.7140  138.3620 C   0  0  0  0  0  2  0  0  0  0  0  0
  181.3340  179.6080  137.4970 C   0  0  0  0  0  0  0  0  0  0  0  0
  182.3290  178.8160  137.9070 C   0  0  0  0  0  3  0  0  0  0  0  0
  180.9280  179.5420  140.5600 C   0  0  0  0  0  0  0  0  0  0  0  0
  182.9350  178.8090  139.2520 C   0  0  0  0  0  3  0  0  0  0  0  0
  182.3660  179.1640  140.4210 C   0  0  0  0  0  0  0  0  0  0  0  0
  187.7250  177.5700  146.3800 C   0  0  0  0  0  2  0  0  0  0  0  0
  188.6740  177.0670  143.5860 C   0  0  0  0  0  2  0  0  0  0  0  0
  191.3740  176.6950  146.9290 C   0  0  0  0  0  0  0  0  0  0  0  0
  190.0480  177.0940  147.1490 C   0  0  0  0  0  3  0  0  0  0  0  0
  189.1530  177.2120  146.0820 C   0  0  0  0  0  0  0  0  0  0  0  0
  190.9040  176.5100  144.5530 C   0  0  0  0  0  3  0  0  0  0  0  0
  189.5800  176.8970  144.7730 C   0  0  0  0  0  0  0  0  0  0  0  0
  191.7950  176.4050  145.6240 C   0  0  0  0  0  3  0  0  0  0  0  0
  187.1980  177.1320  143.9820 C   0  0  1  0  0  3  0  0  0  0  0  0
  186.9920  178.0920  145.1480 C   0  0  0  0  0  2  0  0  0  0  0  0
  192.3140  176.5810  148.0580 C   0  0  0  0  0  0  0  0  0  0  0  0
  192.3800  177.4920  148.9250 O   0  0  0  0  0  0  0  0  0  0  0  0
  193.1590  175.4400  148.1820 N   0  0  0  0  0  1  0  0  0  0  0  0
  180.8010  179.4720  136.1310 C   0  0  0  0  0  0  0  0  0  0  0  0
  180.8080  180.5620  135.2690 O   0  0  0  0  0  0  0  0  0  0  0  0
  180.3320  178.3720  135.7300 O   0  0  0  0  0  1  0  0  0  0  0  0
  2 16  2  0  0  0  0
  3 10  1  0  0  0  0
  4  8  2  0  0  0  0
  5  1  2  0  0  0  0
  5  4  1  0  0  0  0
  6  7  2  0  0  0  0
  8  6  1  0  0  0  0
  9  4  1  0  0  0  0
 10 11  1  0  0  0  0
 10 12  2  0  0  0  0
 11  1  1  6  0  0  0
 11  6  1  0  0  0  0
 13  2  1  0  0  0  0
 14 15  2  0  0  0  0
 14 13  1  0  0  0  0
 15 17  1  0  0  0  0
 16  3  1  0  0  0  0
 17 18  2  0  0  0  0
 18 16  1  0  0  0  0
 18  1  1  0  0  0  0
 20 27  1  0  0  0  0
 20 25  1  0  0  0  0
 21 22  1  0  0  0  0
 21 29  1  0  0  0  0
 23 19  1  0  0  0  0
 23 22  2  0  0  0  0
 24 25  2  0  0  0  0
 24 26  1  0  0  0  0
 25 23  1  0  0  0  0
 26 21  2  0  0  0  0
 27  9  1  6  0  0  0
 27 28  1  0  0  0  0
 28 19  1  0  0  0  0
 29 31  1  0  0  0  0
 29 30  2  0  0  0  0
 32 14  1  0  0  0  0
 33 32  2  0  0  0  0
 34 32  1  0  0  0  0
M  END
>  <MODEL>
1

>  <REMARK>
 VINA RESULT:      -9.8      0.000      0.000
  Name = 
  3 active torsions:
  status: ('A' for Active; 'I' for Inactive)
    1  A    between atoms: C_3  and  C_25
    2  A    between atoms: C_7  and  C_11
    3  A    between atoms: N_18  and  C_30
                            x       y       z     vdW  Elec       q    Type
                         _______ _______ _______ _____ _____    ______ ____

>  <TORSDO>
F 3

$$$$
=
 OpenBabel11052415383D

 34 38  0  0  1  0  0  0  0  0999 V2000
  183.1320  178.6280  141.7140 C   0  0  0  0  0  0  0  0  0  0  0  0
  179.6180  178.9410  140.4210 C   0  0  0  0  0  3  0  0  0  0  0  0
  180.4080  178.4970  142.5740 O   0  0  0  0  0  0  0  0  0  0  0  0
  185.4670  178.3590  142.4440 C   0  0  0  0  0  0  0  0  0  0  0  0
  184.3990  178.2800  141.4360 C   0  0  0  0  0  3  0  0  0  0  0  0
  183.8790  179.0650  144.0890 C   0  0  0  0  0  0  0  0  0  0  0  0
  183.6830  179.3840  145.2910 O   0  0  0  0  0  0  0  0  0  0  0  0
  185.1980  178.7010  143.6680 N   0  0  0  0  0  0  0  0  0  0  0  0
  186.8030  178.0070  142.0620 N   0  0  0  0  0  2  0  0  0  0  0  0
  181.4340  178.6250  143.5140 C   0  0  0  0  0  0  0  0  0  0  0  0
  182.7640  179.1850  143.0740 C   0  0  2  0  0  3  0  0  0  0  0  0
  181.2030  178.3500  144.7220 O   0  0  0  0  0  0  0  0  0  0  0  0
  179.7400  179.2490  138.9680 C   0  0  0  0  0  2  0  0  0  0  0  0
  180.2200  178.0670  138.1940 C   0  0  0  0  0  0  0  0  0  0  0  0
  181.4300  177.5460  138.4170 C   0  0  0  0  0  3  0  0  0  0  0  0
  180.6530  178.6260  141.2020 C   0  0  0  0  0  0  0  0  0  0  0  0
  182.3540  177.9310  139.5000 C   0  0  0  0  0  3  0  0  0  0  0  0
  182.0500  178.4490  140.7070 C   0  0  0  0  0  0  0  0  0  0  0  0
  190.3490  177.3620  143.2360 C   0  0  0  0  0  2  0  0  0  0  0  0
  187.5740  177.5170  144.3470 C   0  0  0  0  0  2  0  0  0  0  0  0
  190.9410  176.7520  146.9320 C   0  0  0  0  0  0  0  0  0  0  0  0
  191.1440  176.8900  145.5520 C   0  0  0  0  0  3  0  0  0  0  0  0
  190.0690  177.1480  144.6960 C   0  0  0  0  0  0  0  0  0  0  0  0
  188.5680  177.1530  146.6050 C   0  0  0  0  0  3  0  0  0  0  0  0
  188.7710  177.3010  145.2310 C   0  0  0  0  0  0  0  0  0  0  0  0
  189.6470  176.8830  147.4520 C   0  0  0  0  0  3  0  0  0  0  0  0
  187.9600  178.0180  142.9540 C   0  0  1  0  0  3  0  0  0  0  0  0
  189.1010  177.1880  142.3770 C   0  0  0  0  0  2  0  0  0  0  0  0
  192.0790  176.4720  147.8270 C   0  0  0  0  0  0  0  0  0  0  0  0
  192.3800  177.2800  148.7440 O   0  0  0  0  0  0  0  0  0  0  0  0
  192.8510  175.2850  147.6630 N   0  0  0  0  0  1  0  0  0  0  0  0
  179.3880  177.5500  137.0940 C   0  0  0  0  0  0  0  0  0  0  0  0
  178.9970  178.3940  136.0610 O   0  0  0  0  0  0  0  0  0  0  0  0
  179.0210  176.3440  137.0770 O   0  0  0  0  0  1  0  0  0  0  0  0
  2 16  2  0  0  0  0
  3 10  1  0  0  0  0
  4  8  2  0  0  0  0
  5  1  2  0  0  0  0
  5  4  1  0  0  0  0
  6  7  2  0  0  0  0
  8  6  1  0  0  0  0
  9  4  1  0  0  0  0
 10 12  2  0  0  0  0
 11  1  1  6  0  0  0
 11 10  1  0  0  0  0
 11  6  1  0  0  0  0
 13  2  1  0  0  0  0
 14 15  2  0  0  0  0
 14 13  1  0  0  0  0
 15 17  1  0  0  0  0
 16  3  1  0  0  0  0
 17 18  2  0  0  0  0
 18 16  1  0  0  0  0
 18  1  1  0  0  0  0
 19 23  1  0  0  0  0
 20 25  1  0  0  0  0
 21 26  1  0  0  0  0
 21 29  1  0  0  0  0
 22 21  2  0  0  0  0
 23 25  2  0  0  0  0
 23 22  1  0  0  0  0
 24 26  2  0  0  0  0
 25 24  1  0  0  0  0
 27  9  1  6  0  0  0
 27 20  1  0  0  0  0
 28 27  1  0  0  0  0
 28 19  1  0  0  0  0
 29 30  2  0  0  0  0
 31 29  1  0  0  0  0
 32 14  1  0  0  0  0
 33 32  2  0  0  0  0
 34 32  1  0  0  0  0
M  END
>  <MODEL>
2

>  <REMARK>
 VINA RESULT:      -9.6      1.191      1.780
  Name = 
  3 active torsions:
  status: ('A' for Active; 'I' for Inactive)
    1  A    between atoms: C_3  and  C_25
    2  A    between atoms: C_7  and  C_11
    3  A    between atoms: N_18  and  C_30
                            x       y       z     vdW  Elec       q    Type
                         _______ _______ _______ _____ _____    ______ ____

>  <TORSDO>
F 3

$$$$
=
 OpenBabel11052415383D

 34 38  0  0  1  0  0  0  0  0999 V2000
  192.0690  176.0390  137.3500 C   0  0  0  0  0  0  0  0  0  0  0  0
  194.6120  175.4030  134.6570 C   0  0  0  0  0  3  0  0  0  0  0  0
  192.2980  175.0790  134.6660 O   0  0  0  0  0  0  0  0  0  0  0  0
  190.4950  176.4110  139.2050 C   0  0  0  0  0  0  0  0  0  0  0  0
  191.8260  176.0880  138.6690 C   0  0  0  0  0  3  0  0  0  0  0  0
  189.6170  176.5320  136.9830 C   0  0  0  0  0  0  0  0  0  0  0  0
  188.5990  176.7100  136.2640 O   0  0  0  0  0  0  0  0  0  0  0  0
  189.4860  176.5890  138.4060 N   0  0  0  0  0  0  0  0  0  0  0  0
  190.3220  176.4810  140.6260 N   0  0  0  0  0  2  0  0  0  0  0  0
  191.0480  175.4410  135.1750 C   0  0  0  0  0  0  0  0  0  0  0  0
  190.9830  176.3860  136.3510 C   0  0  2  0  0  3  0  0  0  0  0  0
  190.0040  175.0410  134.5950 O   0  0  0  0  0  0  0  0  0  0  0  0
  195.9250  175.8180  135.2250 C   0  0  0  0  0  2  0  0  0  0  0  0
  196.3900  174.8710  136.2810 C   0  0  0  0  0  0  0  0  0  0  0  0
  195.6970  174.7090  137.4110 C   0  0  0  0  0  3  0  0  0  0  0  0
  193.4800  175.3540  135.3620 C   0  0  0  0  0  0  0  0  0  0  0  0
  194.3690  175.2800  137.7030 C   0  0  0  0  0  3  0  0  0  0  0  0
  193.3980  175.6150  136.8300 C   0  0  0  0  0  0  0  0  0  0  0  0
  187.1280  178.3390  141.4700 C   0  0  0  0  0  2  0  0  0  0  0  0
  189.2310  176.6920  142.8220 C   0  0  0  0  0  2  0  0  0  0  0  0
  185.8720  178.2310  145.0470 C   0  0  0  0  0  0  0  0  0  0  0  0
  186.0010  178.5380  143.6860 C   0  0  0  0  0  3  0  0  0  0  0  0
  187.0760  178.0430  142.9420 C   0  0  0  0  0  0  0  0  0  0  0  0
  187.9010  176.9030  144.9210 C   0  0  0  0  0  3  0  0  0  0  0  0
  188.0250  177.1990  143.5610 C   0  0  0  0  0  0  0  0  0  0  0  0
  186.8300  177.4120  145.6590 C   0  0  0  0  0  3  0  0  0  0  0  0
  189.0610  176.7730  141.3030 C   0  0  1  0  0  3  0  0  0  0  0  0
  188.5240  178.1390  140.8910 C   0  0  0  0  0  2  0  0  0  0  0  0
  184.7400  178.7650  145.8260 C   0  0  0  0  0  0  0  0  0  0  0  0
  184.8480  178.9360  147.0690 O   0  0  0  0  0  0  0  0  0  0  0  0
  183.5110  179.0910  145.1830 N   0  0  0  0  0  1  0  0  0  0  0  0
  197.6930  174.2030  136.1130 C   0  0  0  0  0  0  0  0  0  0  0  0
  198.8700  174.9230  136.2700 O   0  0  0  0  0  1  0  0  0  0  0  0
  197.7530  172.9770  135.8260 O   0  0  0  0  0  0  0  0  0  0  0  0
  1  5  2  0  0  0  0
  2 13  1  0  0  0  0
  2 16  2  0  0  0  0
  3 10  1  0  0  0  0
  3 16  1  0  0  0  0
  4  9  1  0  0  0  0
  5  4  1  0  0  0  0
  6  8  1  0  0  0  0
  7  6  2  0  0  0  0
  8  4  2  0  0  0  0
 11 10  1  6  0  0  0
 11  6  1  0  0  0  0
 11  1  1  0  0  0  0
 12 10  2  0  0  0  0
 13 14  1  0  0  0  0
 14 15  2  0  0  0  0
 15 17  1  0  0  0  0
 16 18  1  0  0  0  0
 18  1  1  0  0  0  0
 18 17  2  0  0  0  0
 19 23  1  0  0  0  0
 20 25  1  0  0  0  0
 21 26  1  0  0  0  0
 21 29  1  0  0  0  0
 22 21  2  0  0  0  0
 23 25  2  0  0  0  0
 23 22  1  0  0  0  0
 24 26  2  0  0  0  0
 25 24  1  0  0  0  0
 27  9  1  6  0  0  0
 27 20  1  0  0  0  0
 28 27  1  0  0  0  0
 28 19  1  0  0  0  0
 29 30  2  0  0  0  0
 31 29  1  0  0  0  0
 32 33  1  0  0  0  0
 32 14  1  0  0  0  0
 34 32  2  0  0  0  0
M  END
>  <MODEL>
3

>  <REMARK>
 VINA RESULT:      -9.6      7.468     11.004
  Name = 
  3 active torsions:
  status: ('A' for Active; 'I' for Inactive)
    1  A    between atoms: C_3  and  C_25
    2  A    between atoms: C_7  and  C_11
    3  A    between atoms: N_18  and  C_30
                            x       y       z     vdW  Elec       q    Type
                         _______ _______ _______ _____ _____    ______ ____

>  <TORSDO>
F 3

$$$$
=
 OpenBabel11052415383D

 34 38  0  0  1  0  0  0  0  0999 V2000
  187.4790  177.8980  143.0060 C   0  0  0  0  0  0  0  0  0  0  0  0
  184.7160  179.0580  145.2740 C   0  0  0  0  0  3  0  0  0  0  0  0
  186.6100  177.7680  145.7270 O   0  0  0  0  0  0  0  0  0  0  0  0
  189.1940  177.1180  141.4230 C   0  0  0  0  0  0  0  0  0  0  0  0
  187.8260  177.5360  141.7610 C   0  0  0  0  0  3  0  0  0  0  0  0
  189.8410  177.3440  143.7160 C   0  0  0  0  0  0  0  0  0  0  0  0
  190.7620  177.2190  144.5650 O   0  0  0  0  0  0  0  0  0  0  0  0
  190.1020  177.0140  142.3480 N   0  0  0  0  0  0  0  0  0  0  0  0
  189.4980  176.7820  140.0630 N   0  0  0  0  0  2  0  0  0  0  0  0
  187.9230  177.4250  145.3950 C   0  0  0  0  0  0  0  0  0  0  0  0
  188.5150  177.9540  144.1110 C   0  0  2  0  0  3  0  0  0  0  0  0
  188.6110  176.7530  146.2090 O   0  0  0  0  0  0  0  0  0  0  0  0
  183.7960  179.8630  144.4220 C   0  0  0  0  0  2  0  0  0  0  0  0
  183.0350  179.0020  143.4690 C   0  0  0  0  0  0  0  0  0  0  0  0
  183.6660  178.3030  142.5220 C   0  0  0  0  0  3  0  0  0  0  0  0
  185.7510  178.3640  144.7970 C   0  0  0  0  0  0  0  0  0  0  0  0
  185.1270  178.1560  142.3800 C   0  0  0  0  0  3  0  0  0  0  0  0
  186.0670  178.2240  143.3450 C   0  0  0  0  0  0  0  0  0  0  0  0
  193.1720  176.9820  139.1550 C   0  0  0  0  0  2  0  0  0  0  0  0
  190.6680  175.6280  138.2320 C   0  0  0  0  0  2  0  0  0  0  0  0
  194.4300  174.8810  136.2580 C   0  0  0  0  0  0  0  0  0  0  0  0
  194.3720  175.7980  137.3170 C   0  0  0  0  0  3  0  0  0  0  0  0
  193.1660  176.0490  137.9780 C   0  0  0  0  0  0  0  0  0  0  0  0
  192.0560  174.4440  136.5320 C   0  0  0  0  0  3  0  0  0  0  0  0
  192.0000  175.3490  137.5950 C   0  0  0  0  0  0  0  0  0  0  0  0
  193.2630  174.2080  135.8700 C   0  0  0  0  0  3  0  0  0  0  0  0
  190.8030  176.3350  139.5820 C   0  0  1  0  0  3  0  0  0  0  0  0
  191.7780  177.5030  139.4860 C   0  0  0  0  0  2  0  0  0  0  0  0
  195.7040  174.6290  135.5610 C   0  0  0  0  0  0  0  0  0  0  0  0
  195.8680  173.5690  134.9010 O   0  0  0  0  0  0  0  0  0  0  0  0
  196.7620  175.5800  135.6260 N   0  0  0  0  0  1  0  0  0  0  0  0
  181.5630  179.0230  143.5100 C   0  0  0  0  0  0  0  0  0  0  0  0
  180.8620  180.0200  142.8420 O   0  0  0  0  0  0  0  0  0  0  0  0
  180.9240  178.1440  144.1500 O   0  0  0  0  0  1  0  0  0  0  0  0
  1 18  1  0  0  0  0
  4  5  1  0  0  0  0
  4  8  2  0  0  0  0
  5  1  2  0  0  0  0
  6 11  1  0  0  0  0
  6  7  2  0  0  0  0
  8  6  1  0  0  0  0
  9  4  1  0  0  0  0
 10  3  1  0  0  0  0
 10 12  2  0  0  0  0
 11  1  1  6  0  0  0
 11 10  1  0  0  0  0
 13  2  1  0  0  0  0
 14 32  1  0  0  0  0
 14 13  1  0  0  0  0
 15 14  2  0  0  0  0
 16  2  2  0  0  0  0
 16  3  1  0  0  0  0
 17 15  1  0  0  0  0
 17 18  2  0  0  0  0
 18 16  1  0  0  0  0
 19 28  1  0  0  0  0
 20 27  1  0  0  0  0
 21 22  1  0  0  0  0
 22 23  2  0  0  0  0
 23 19  1  0  0  0  0
 24 25  2  0  0  0  0
 25 23  1  0  0  0  0
 25 20  1  0  0  0  0
 26 21  2  0  0  0  0
 26 24  1  0  0  0  0
 27  9  1  6  0  0  0
 28 27  1  0  0  0  0
 29 31  1  0  0  0  0
 29 21  1  0  0  0  0
 30 29  2  0  0  0  0
 32 34  1  0  0  0  0
 33 32  2  0  0  0  0
M  END
>  <MODEL>
4

>  <REMARK>
 VINA RESULT:      -9.4      5.778      8.068
  Name = 
  3 active torsions:
  status: ('A' for Active; 'I' for Inactive)
    1  A    between atoms: C_3  and  C_25
    2  A    between atoms: C_7  and  C_11
    3  A    between atoms: N_18  and  C_30
                            x       y       z     vdW  Elec       q    Type
                         _______ _______ _______ _____ _____    ______ ____

>  <TORSDO>
F 3

$$$$
=
 OpenBabel11052415383D

 34 38  0  0  1  0  0  0  0  0999 V2000
  191.7470  176.4700  137.8970 C   0  0  0  0  0  0  0  0  0  0  0  0
  193.2680  175.3990  134.6310 C   0  0  0  0  0  3  0  0  0  0  0  0
  191.0290  175.6440  135.2550 O   0  0  0  0  0  0  0  0  0  0  0  0
  190.8490  177.1020  140.0990 C   0  0  0  0  0  0  0  0  0  0  0  0
  191.8730  176.4990  139.2330 C   0  0  0  0  0  3  0  0  0  0  0  0
  189.4860  177.5630  138.1880 C   0  0  0  0  0  0  0  0  0  0  0  0
  188.3940  178.0230  137.7620 O   0  0  0  0  0  0  0  0  0  0  0  0
  189.7450  177.5650  139.5950 N   0  0  0  0  0  0  0  0  0  0  0  0
  191.0720  177.1280  141.5150 N   0  0  0  0  0  2  0  0  0  0  0  0
  190.0840  176.2670  136.0740 C   0  0  0  0  0  0  0  0  0  0  0  0
  190.5620  177.1280  137.2180 C   0  0  2  0  0  3  0  0  0  0  0  0
  188.8600  176.1650  135.7940 O   0  0  0  0  0  0  0  0  0  0  0  0
  194.7440  175.4500  134.8290 C   0  0  0  0  0  2  0  0  0  0  0  0
  195.2150  174.3590  135.7300 C   0  0  0  0  0  0  0  0  0  0  0  0
  194.8190  174.3020  137.0050 C   0  0  0  0  0  3  0  0  0  0  0  0
  192.3810  175.5840  135.6110 C   0  0  0  0  0  0  0  0  0  0  0  0
  193.7960  175.1590  137.6340 C   0  0  0  0  0  3  0  0  0  0  0  0
  192.7480  175.7700  137.0470 C   0  0  0  0  0  0  0  0  0  0  0  0
  189.5080  177.7580  144.9100 C   0  0  0  0  0  2  0  0  0  0  0  0
  188.6950  177.4820  142.0430 C   0  0  0  0  0  2  0  0  0  0  0  0
  185.7630  178.3300  145.0910 C   0  0  0  0  0  0  0  0  0  0  0  0
  187.1050  178.1430  145.4520 C   0  0  0  0  0  3  0  0  0  0  0  0
  188.0740  177.8760  144.4800 C   0  0  0  0  0  0  0  0  0  0  0  0
  186.3640  178.0020  142.7610 C   0  0  0  0  0  3  0  0  0  0  0  0
  187.7030  177.8260  143.1180 C   0  0  0  0  0  0  0  0  0  0  0  0
  185.4000  178.2560  143.7400 C   0  0  0  0  0  3  0  0  0  0  0  0
  190.1420  177.6750  142.4990 C   0  0  1  0  0  3  0  0  0  0  0  0
  190.3650  177.0440  143.8700 C   0  0  0  0  0  2  0  0  0  0  0  0
  184.7460  178.6020  146.1230 C   0  0  0  0  0  0  0  0  0  0  0  0
  185.0310  178.4810  147.3440 O   0  0  0  0  0  0  0  0  0  0  0  0
  183.4310  179.0030  145.7510 N   0  0  0  0  0  1  0  0  0  0  0  0
  196.2210  173.4060  135.2290 C   0  0  0  0  0  0  0  0  0  0  0  0
  195.8220  172.1800  134.7130 O   0  0  0  0  0  0  0  0  0  0  0  0
  197.4490  173.6900  135.2650 O   0  0  0  0  0  1  0  0  0  0  0  0
  1  5  2  0  0  0  0
  2 13  1  0  0  0  0
  2 16  2  0  0  0  0
  3 16  1  0  0  0  0
  3 10  1  0  0  0  0
  4  9  1  0  0  0  0
  5  4  1  0  0  0  0
  6  8  1  0  0  0  0
  7  6  2  0  0  0  0
  8  4  2  0  0  0  0
 11 10  1  6  0  0  0
 11  1  1  0  0  0  0
 11  6  1  0  0  0  0
 12 10  2  0  0  0  0
 13 14  1  0  0  0  0
 14 15  2  0  0  0  0
 15 17  1  0  0  0  0
 16 18  1  0  0  0  0
 18 17  2  0  0  0  0
 18  1  1  0  0  0  0
 20 27  1  0  0  0  0
 20 25  1  0  0  0  0
 21 22  1  0  0  0  0
 21 29  1  0  0  0  0
 23 19  1  0  0  0  0
 23 22  2  0  0  0  0
 24 25  2  0  0  0  0
 24 26  1  0  0  0  0
 25 23  1  0  0  0  0
 26 21  2  0  0  0  0
 27  9  1  6  0  0  0
 27 28  1  0  0  0  0
 28 19  1  0  0  0  0
 29 30  2  0  0  0  0
 31 29  1  0  0  0  0
 32 34  1  0  0  0  0
 32 14  1  0  0  0  0
 33 32  2  0  0  0  0
M  END
>  <MODEL>
5

>  <REMARK>
 VINA RESULT:      -9.4      7.187     10.263
  Name = 
  3 active torsions:
  status: ('A' for Active; 'I' for Inactive)
    1  A    between atoms: C_3  and  C_25
    2  A    between atoms: C_7  and  C_11
    3  A    between atoms: N_18  and  C_30
                            x       y       z     vdW  Elec       q    Type
                         _______ _______ _______ _____ _____    ______ ____

>  <TORSDO>
F 3

$$$$
=
 OpenBabel11052415383D

 34 38  0  0  1  0  0  0  0  0999 V2000
  191.5630  176.3590  137.7470 C   0  0  0  0  0  0  0  0  0  0  0  0
  193.4280  175.3820  134.6330 C   0  0  0  0  0  3  0  0  0  0  0  0
  191.1500  175.2590  135.1400 O   0  0  0  0  0  0  0  0  0  0  0  0
  190.4480  176.9520  139.8590 C   0  0  0  0  0  0  0  0  0  0  0  0
  191.6080  176.4910  139.0820 C   0  0  0  0  0  3  0  0  0  0  0  0
  189.1330  177.0430  137.8620 C   0  0  0  0  0  0  0  0  0  0  0  0
  188.0020  177.2740  137.3580 O   0  0  0  0  0  0  0  0  0  0  0  0
  189.3090  177.1780  139.2760 N   0  0  0  0  0  0  0  0  0  0  0  0
  190.5830  177.1030  141.2770 N   0  0  0  0  0  2  0  0  0  0  0  0
  190.0660  175.7500  135.8720 C   0  0  0  0  0  0  0  0  0  0  0  0
  190.3200  176.7510  136.9730 C   0  0  2  0  0  3  0  0  0  0  0  0
  188.8970  175.4140  135.5460 O   0  0  0  0  0  0  0  0  0  0  0  0
  194.8590  175.7100  134.8910 C   0  0  0  0  0  2  0  0  0  0  0  0
  195.4640  174.7770  135.8860 C   0  0  0  0  0  0  0  0  0  0  0  0
  195.0150  174.7280  137.1430 C   0  0  0  0  0  3  0  0  0  0  0  0
  192.4690  175.4640  135.5590 C   0  0  0  0  0  0  0  0  0  0  0  0
  193.8230  175.4230  137.6660 C   0  0  0  0  0  3  0  0  0  0  0  0
  192.7180  175.8000  136.9920 C   0  0  0  0  0  0  0  0  0  0  0  0
  188.1500  176.9420  144.1790 C   0  0  0  0  0  2  0  0  0  0  0  0
  188.3010  178.0160  141.3890 C   0  0  0  0  0  2  0  0  0  0  0  0
  184.7740  178.6290  143.7960 C   0  0  0  0  0  0  0  0  0  0  0  0
  185.8450  177.8850  144.3110 C   0  0  0  0  0  3  0  0  0  0  0  0
  187.0020  177.6810  143.5530 C   0  0  0  0  0  0  0  0  0  0  0  0
  186.0330  178.9880  141.7500 C   0  0  0  0  0  3  0  0  0  0  0  0
  187.1050  178.2570  142.2670 C   0  0  0  0  0  0  0  0  0  0  0  0
  184.8760  179.1770  142.5100 C   0  0  0  0  0  3  0  0  0  0  0  0
  189.5180  177.5330  142.1800 C   0  0  1  0  0  3  0  0  0  0  0  0
  189.1310  176.4120  143.1380 C   0  0  0  0  0  2  0  0  0  0  0  0
  183.5540  178.8310  144.5980 C   0  0  0  0  0  0  0  0  0  0  0  0
  183.6340  179.0010  145.8430 O   0  0  0  0  0  0  0  0  0  0  0  0
  182.2730  178.8360  143.9750 N   0  0  0  0  0  1  0  0  0  0  0  0
  196.6490  173.9930  135.4970 C   0  0  0  0  0  0  0  0  0  0  0  0
  197.9240  174.4830  135.7530 O   0  0  0  0  0  1  0  0  0  0  0  0
  196.5210  172.8740  134.9290 O   0  0  0  0  0  0  0  0  0  0  0  0
  1  5  2  0  0  0  0
  2 13  1  0  0  0  0
  2 16  2  0  0  0  0
  3 16  1  0  0  0  0
  3 10  1  0  0  0  0
  4  9  1  0  0  0  0
  5  4  1  0  0  0  0
  6  8  1  0  0  0  0
  7  6  2  0  0  0  0
  8  4  2  0  0  0  0
 11 10  1  6  0  0  0
 11  1  1  0  0  0  0
 11  6  1  0  0  0  0
 12 10  2  0  0  0  0
 13 14  1  0  0  0  0
 14 15  2  0  0  0  0
 15 17  1  0  0  0  0
 16 18  1  0  0  0  0
 18 17  2  0  0  0  0
 18  1  1  0  0  0  0
 20 27  1  0  0  0  0
 20 25  1  0  0  0  0
 21 22  1  0  0  0  0
 21 29  1  0  0  0  0
 23 19  1  0  0  0  0
 23 22  2  0  0  0  0
 24 25  2  0  0  0  0
 24 26  1  0  0  0  0
 25 23  1  0  0  0  0
 26 21  2  0  0  0  0
 27  9  1  6  0  0  0
 27 28  1  0  0  0  0
 28 19  1  0  0  0  0
 29 30  2  0  0  0  0
 31 29  1  0  0  0  0
 32 33  1  0  0  0  0
 32 14  1  0  0  0  0
 34 32  2  0  0  0  0
M  END
>  <MODEL>
6

>  <REMARK>
 VINA RESULT:      -9.3      7.139     10.563
  Name = 
  3 active torsions:
  status: ('A' for Active; 'I' for Inactive)
    1  A    between atoms: C_3  and  C_25
    2  A    between atoms: C_7  and  C_11
    3  A    between atoms: N_18  and  C_30
                            x       y       z     vdW  Elec       q    Type
                         _______ _______ _______ _____ _____    ______ ____

>  <TORSDO>
F 3

$$$$
=
 OpenBabel11052415383D

 34 38  0  0  1  0  0  0  0  0999 V2000
  188.3740  178.1470  141.6970 C   0  0  0  0  0  0  0  0  0  0  0  0
  191.6800  177.3860  143.3150 C   0  0  0  0  0  3  0  0  0  0  0  0
  190.8760  176.8590  141.1860 O   0  0  0  0  0  0  0  0  0  0  0  0
  186.1500  178.6220  140.7580 C   0  0  0  0  0  0  0  0  0  0  0  0
  187.0610  178.3500  141.8800 C   0  0  0  0  0  3  0  0  0  0  0  0
  187.9580  178.3640  139.2130 C   0  0  0  0  0  0  0  0  0  0  0  0
  188.3150  178.3510  138.0060 O   0  0  0  0  0  0  0  0  0  0  0  0
  186.5840  178.5990  139.5340 N   0  0  0  0  0  0  0  0  0  0  0  0
  184.7650  178.8660  141.0370 N   0  0  0  0  0  2  0  0  0  0  0  0
  190.0210  177.1730  140.1260 C   0  0  0  0  0  0  0  0  0  0  0  0
  188.9880  178.2570  140.3150 C   0  0  2  0  0  3  0  0  0  0  0  0
  190.1820  176.6060  139.0120 O   0  0  0  0  0  0  0  0  0  0  0  0
  191.6200  177.9900  144.6760 C   0  0  0  0  0  2  0  0  0  0  0  0
  190.6900  177.2400  145.5690 C   0  0  0  0  0  0  0  0  0  0  0  0
  189.3840  177.1690  145.2970 C   0  0  0  0  0  3  0  0  0  0  0  0
  190.6390  177.3310  142.4810 C   0  0  0  0  0  0  0  0  0  0  0  0
  188.7270  177.6520  144.0680 C   0  0  0  0  0  3  0  0  0  0  0  0
  189.2600  177.7790  142.8360 C   0  0  0  0  0  0  0  0  0  0  0  0
  181.3060  179.4530  139.6030 C   0  0  0  0  0  2  0  0  0  0  0  0
  183.9110  178.2000  138.8270 C   0  0  0  0  0  2  0  0  0  0  0  0
  180.5950  178.2700  136.0700 C   0  0  0  0  0  0  0  0  0  0  0  0
  180.4390  178.8040  137.3560 C   0  0  0  0  0  3  0  0  0  0  0  0
  181.5020  178.8010  138.2640 C   0  0  0  0  0  0  0  0  0  0  0  0
  182.9080  177.7400  136.5910 C   0  0  0  0  0  3  0  0  0  0  0  0
  182.7560  178.2820  137.8700 C   0  0  0  0  0  0  0  0  0  0  0  0
  181.8360  177.7370  135.6950 C   0  0  0  0  0  3  0  0  0  0  0  0
  183.7420  179.1320  140.0290 C   0  0  1  0  0  3  0  0  0  0  0  0
  182.3440  178.9990  140.6230 C   0  0  0  0  0  2  0  0  0  0  0  0
  179.4660  178.2690  135.1220 C   0  0  0  0  0  0  0  0  0  0  0  0
  178.9310  179.3530  134.7700 O   0  0  0  0  0  0  0  0  0  0  0  0
  178.9670  177.0430  134.5950 N   0  0  0  0  0  1  0  0  0  0  0  0
  191.2110  176.6750  146.8260 C   0  0  0  0  0  0  0  0  0  0  0  0
  192.1400  175.6420  146.7930 O   0  0  0  0  0  0  0  0  0  0  0  0
  190.8220  177.1180  147.9410 O   0  0  0  0  0  1  0  0  0  0  0  0
  1  5  2  0  0  0  0
  1 18  1  0  0  0  0
  2 13  1  0  0  0  0
  3 16  1  0  0  0  0
  4  9  1  0  0  0  0
  4  5  1  0  0  0  0
  6  8  1  0  0  0  0
  7  6  2  0  0  0  0
  8  4  2  0  0  0  0
 10 11  1  0  0  0  0
 10  3  1  0  0  0  0
 11  6  1  6  0  0  0
 11  1  1  0  0  0  0
 12 10  2  0  0  0  0
 13 14  1  0  0  0  0
 14 32  1  0  0  0  0
 15 14  2  0  0  0  0
 16 18  1  0  0  0  0
 16  2  2  0  0  0  0
 17 15  1  0  0  0  0
 18 17  2  0  0  0  0
 19 28  1  0  0  0  0
 20 27  1  0  0  0  0
 21 22  1  0  0  0  0
 22 23  2  0  0  0  0
 23 19  1  0  0  0  0
 24 25  2  0  0  0  0
 25 23  1  0  0  0  0
 25 20  1  0  0  0  0
 26 21  2  0  0  0  0
 26 24  1  0  0  0  0
 27 28  1  0  0  0  0
 27  9  1  1  0  0  0
 29 21  1  0  0  0  0
 30 29  2  0  0  0  0
 31 29  1  0  0  0  0
 32 34  1  0  0  0  0
 33 32  2  0  0  0  0
M  END
>  <MODEL>
7

>  <REMARK>
 VINA RESULT:      -9.2      3.775     11.461
  Name = 
  3 active torsions:
  status: ('A' for Active; 'I' for Inactive)
    1  A    between atoms: C_3  and  C_25
    2  A    between atoms: C_7  and  C_11
    3  A    between atoms: N_18  and  C_30
                            x       y       z     vdW  Elec       q    Type
                         _______ _______ _______ _____ _____    ______ ____

>  <TORSDO>
F 3

$$$$
=
 OpenBabel11052415383D

 34 38  0  0  1  0  0  0  0  0999 V2000
  187.9130  178.2060  141.6600 C   0  0  0  0  0  0  0  0  0  0  0  0
  191.3250  177.8030  143.1820 C   0  0  0  0  0  3  0  0  0  0  0  0
  190.5580  177.3210  141.0280 O   0  0  0  0  0  0  0  0  0  0  0  0
  185.6240  178.4290  140.7830 C   0  0  0  0  0  0  0  0  0  0  0  0
  186.5870  178.2100  141.8720 C   0  0  0  0  0  3  0  0  0  0  0  0
  187.4180  178.5370  139.2040 C   0  0  0  0  0  0  0  0  0  0  0  0
  187.7470  178.6590  137.9940 O   0  0  0  0  0  0  0  0  0  0  0  0
  186.0310  178.5540  139.5550 N   0  0  0  0  0  0  0  0  0  0  0  0
  184.2250  178.4570  141.0940 N   0  0  0  0  0  2  0  0  0  0  0  0
  189.6450  177.5860  140.0040 C   0  0  0  0  0  0  0  0  0  0  0  0
  188.4750  178.4980  140.2830 C   0  0  2  0  0  3  0  0  0  0  0  0
  189.8600  177.1270  138.8500 O   0  0  0  0  0  0  0  0  0  0  0  0
  191.2110  178.2960  144.5830 C   0  0  0  0  0  2  0  0  0  0  0  0
  190.4140  177.3610  145.4300 C   0  0  0  0  0  0  0  0  0  0  0  0
  189.1250  177.1280  145.1680 C   0  0  0  0  0  3  0  0  0  0  0  0
  190.2850  177.6620  142.3580 C   0  0  0  0  0  0  0  0  0  0  0  0
  188.3810  177.5990  143.9840 C   0  0  0  0  0  3  0  0  0  0  0  0
  188.8640  177.8860  142.7590 C   0  0  0  0  0  0  0  0  0  0  0  0
  182.1720  177.8720  137.9620 C   0  0  0  0  0  2  0  0  0  0  0  0
  183.0200  180.1230  139.7430 C   0  0  0  0  0  2  0  0  0  0  0  0
  180.4520  180.8450  136.3530 C   0  0  0  0  0  0  0  0  0  0  0  0
  180.9270  179.5490  136.6000 C   0  0  0  0  0  3  0  0  0  0  0  0
  181.7520  179.2900  137.6980 C   0  0  0  0  0  0  0  0  0  0  0  0
  181.6220  181.6310  138.3310 C   0  0  0  0  0  3  0  0  0  0  0  0
  182.0870  180.3380  138.5850 C   0  0  0  0  0  0  0  0  0  0  0  0
  180.8070  181.8830  137.2250 C   0  0  0  0  0  3  0  0  0  0  0  0
  183.1540  178.6460  140.1190 C   0  0  1  0  0  3  0  0  0  0  0  0
  183.3880  177.7910  138.8790 C   0  0  0  0  0  2  0  0  0  0  0  0
  179.5900  181.1120  135.1880 C   0  0  0  0  0  0  0  0  0  0  0  0
  179.0080  180.1640  134.5980 O   0  0  0  0  0  0  0  0  0  0  0  0
  179.4060  182.4430  134.7160 N   0  0  0  0  0  1  0  0  0  0  0  0
  191.0350  176.7880  146.6370 C   0  0  0  0  0  0  0  0  0  0  0  0
  192.0640  175.8620  146.5160 O   0  0  0  0  0  0  0  0  0  0  0  0
  190.6410  177.1260  147.7850 O   0  0  0  0  0  1  0  0  0  0  0  0
  1  5  2  0  0  0  0
  1 18  1  0  0  0  0
  2 13  1  0  0  0  0
  3 16  1  0  0  0  0
  4  9  1  0  0  0  0
  4  5  1  0  0  0  0
  6  8  1  0  0  0  0
  7  6  2  0  0  0  0
  8  4  2  0  0  0  0
 10 11  1  0  0  0  0
 10  3  1  0  0  0  0
 11  6  1  6  0  0  0
 11  1  1  0  0  0  0
 12 10  2  0  0  0  0
 13 14  1  0  0  0  0
 14 32  1  0  0  0  0
 15 14  2  0  0  0  0
 16 18  1  0  0  0  0
 16  2  2  0  0  0  0
 17 15  1  0  0  0  0
 18 17  2  0  0  0  0
 19 28  1  0  0  0  0
 20 27  1  0  0  0  0
 21 22  2  0  0  0  0
 21 26  1  0  0  0  0
 22 23  1  0  0  0  0
 23 19  1  0  0  0  0
 23 25  2  0  0  0  0
 24 25  1  0  0  0  0
 25 20  1  0  0  0  0
 26 24  2  0  0  0  0
 27  9  1  1  0  0  0
 28 27  1  0  0  0  0
 29 21  1  0  0  0  0
 30 29  2  0  0  0  0
 31 29  1  0  0  0  0
 32 34  1  0  0  0  0
 33 32  2  0  0  0  0
M  END
>  <MODEL>
8

>  <REMARK>
 VINA RESULT:      -9.2      3.753     11.505
  Name = 
  3 active torsions:
  status: ('A' for Active; 'I' for Inactive)
    1  A    between atoms: C_3  and  C_25
    2  A    between atoms: C_7  and  C_11
    3  A    between atoms: N_18  and  C_30
                            x       y       z     vdW  Elec       q    Type
                         _______ _______ _______ _____ _____    ______ ____

>  <TORSDO>
F 3

$$$$
=
 OpenBabel11052415383D

 34 38  0  0  1  0  0  0  0  0999 V2000
  183.5970  178.7070  142.0820 C   0  0  0  0  0  0  0  0  0  0  0  0
  180.7990  179.8390  139.8430 C   0  0  0  0  0  3  0  0  0  0  0  0
  180.7610  179.0780  142.0510 O   0  0  0  0  0  0  0  0  0  0  0  0
  185.4860  177.9060  143.4400 C   0  0  0  0  0  0  0  0  0  0  0  0
  184.8050  178.1270  142.1560 C   0  0  0  0  0  3  0  0  0  0  0  0
  183.5990  178.7980  144.6080 C   0  0  0  0  0  0  0  0  0  0  0  0
  183.0820  179.0580  145.7270 O   0  0  0  0  0  0  0  0  0  0  0  0
  184.8990  178.2030  144.5600 N   0  0  0  0  0  0  0  0  0  0  0  0
  186.7920  177.3150  143.4350 N   0  0  0  0  0  2  0  0  0  0  0  0
  181.4330  178.9190  143.2660 C   0  0  0  0  0  0  0  0  0  0  0  0
  182.9100  179.2240  143.3310 C   0  0  2  0  0  3  0  0  0  0  0  0
  180.7800  178.6070  144.2970 O   0  0  0  0  0  0  0  0  0  0  0  0
  181.4360  180.2260  138.5520 C   0  0  0  0  0  2  0  0  0  0  0  0
  181.9290  179.0320  137.8050 C   0  0  0  0  0  0  0  0  0  0  0  0
  182.8930  178.2560  138.3090 C   0  0  0  0  0  3  0  0  0  0  0  0
  181.4550  179.2590  140.8500 C   0  0  0  0  0  0  0  0  0  0  0  0
  183.4690  178.3580  139.6630 C   0  0  0  0  0  3  0  0  0  0  0  0
  182.8850  178.8340  140.7810 C   0  0  0  0  0  0  0  0  0  0  0  0
  188.0890  177.6800  146.9780 C   0  0  0  0  0  2  0  0  0  0  0  0
  189.0600  176.8520  144.2710 C   0  0  0  0  0  2  0  0  0  0  0  0
  191.6880  176.7150  147.6880 C   0  0  0  0  0  0  0  0  0  0  0  0
  190.3770  177.1900  147.8400 C   0  0  0  0  0  3  0  0  0  0  0  0
  189.5050  177.2340  146.7480 C   0  0  0  0  0  0  0  0  0  0  0  0
  191.2470  176.3050  145.3350 C   0  0  0  0  0  3  0  0  0  0  0  0
  189.9380  176.7670  145.4870 C   0  0  0  0  0  0  0  0  0  0  0  0
  192.1160  176.2750  146.4290 C   0  0  0  0  0  3  0  0  0  0  0  0
  187.5820  177.0190  144.6280 C   0  0  1  0  0  3  0  0  0  0  0  0
  187.4000  178.1030  145.6850 C   0  0  0  0  0  2  0  0  0  0  0  0
  192.6040  176.6800  148.8420 C   0  0  0  0  0  0  0  0  0  0  0  0
  193.0970  175.5880  149.2290 O   0  0  0  0  0  0  0  0  0  0  0  0
  192.9400  177.8800  149.5330 N   0  0  0  0  0  1  0  0  0  0  0  0
  181.4220  178.7840  136.4440 C   0  0  0  0  0  0  0  0  0  0  0  0
  180.0620  178.5920  136.2320 O   0  0  0  0  0  1  0  0  0  0  0  0
  182.2110  178.7420  135.4610 O   0  0  0  0  0  0  0  0  0  0  0  0
  1  5  2  0  0  0  0
  2 16  2  0  0  0  0
  3 10  1  0  0  0  0
  4  8  2  0  0  0  0
  5  4  1  0  0  0  0
  6  7  2  0  0  0  0
  8  6  1  0  0  0  0
  9  4  1  0  0  0  0
 10 11  1  0  0  0  0
 10 12  2  0  0  0  0
 11  1  1  6  0  0  0
 11  6  1  0  0  0  0
 13  2  1  0  0  0  0
 14 15  2  0  0  0  0
 14 13  1  0  0  0  0
 15 17  1  0  0  0  0
 16  3  1  0  0  0  0
 17 18  2  0  0  0  0
 18 16  1  0  0  0  0
 18  1  1  0  0  0  0
 20 27  1  0  0  0  0
 20 25  1  0  0  0  0
 21 22  1  0  0  0  0
 21 29  1  0  0  0  0
 23 19  1  0  0  0  0
 23 22  2  0  0  0  0
 24 25  2  0  0  0  0
 24 26  1  0  0  0  0
 25 23  1  0  0  0  0
 26 21  2  0  0  0  0
 27  9  1  6  0  0  0
 27 28  1  0  0  0  0
 28 19  1  0  0  0  0
 29 30  2  0  0  0  0
 29 31  1  0  0  0  0
 32 14  1  0  0  0  0
 33 32  1  0  0  0  0
 34 32  2  0  0  0  0
M  END
>  <MODEL>
9

>  <REMARK>
 VINA RESULT:      -9.0      0.985      1.054
  Name = 
  3 active torsions:
  status: ('A' for Active; 'I' for Inactive)
    1  A    between atoms: C_3  and  C_25
    2  A    between atoms: C_7  and  C_11
    3  A    between atoms: N_18  and  C_30
                            x       y       z     vdW  Elec       q    Type
                         _______ _______ _______ _____ _____    ______ ____

>  <TORSDO>
F 3

$$$$
