=
 OpenBabel11052414303D

 32 37  0  0  1  0  0  0  0  0999 V2000
  181.8770  178.8180  140.5200 C   0  0  1  0  0  3  0  0  0  0  0  0
  182.3920  179.4020  138.2120 C   0  0  2  0  0  3  0  0  0  0  0  0
  186.3270  178.2750  141.7760 C   0  0  1  0  0  3  0  0  0  0  0  0
  182.3180  179.4590  141.7570 N   0  0  0  0  0  2  0  0  0  0  0  0
  181.6230  179.8640  139.4560 C   0  0  1  0  0  3  0  0  0  0  0  0
  181.5120  179.0050  137.0040 C   0  0  2  0  0  3  0  0  0  0  0  0
  187.6920  178.8490  141.4380 C   0  0  0  0  0  1  0  0  0  0  0  0
  183.1010  174.7780  138.3520 O   0  0  0  0  0  0  0  0  0  0  0  0
  183.3150  178.2790  138.6990 C   0  0  1  0  0  3  0  0  0  0  0  0
  180.9630  175.4700  139.1790 C   0  0  0  0  0  1  0  0  0  0  0  0
  182.1020  176.5830  137.1910 C   0  0  1  0  0  3  0  0  0  0  0  0
  180.4170  180.0030  136.8060 C   0  0  0  0  0  0  0  0  0  0  0  0
  185.8050  178.8540  143.1040 C   0  0  1  0  0  3  0  0  0  0  0  0
  183.4060  178.6430  142.2570 C   0  0  2  0  0  3  0  0  0  0  0  0
  180.9520  177.6000  137.1970 C   0  0  0  0  0  2  0  0  0  0  0  0
  180.1080  180.0170  139.2700 C   0  0  0  0  0  2  0  0  0  0  0  0
  184.4320  179.5270  142.9780 C   0  0  0  0  0  2  0  0  0  0  0  0
  185.3490  178.4110  140.6020 C   0  0  2  0  0  3  0  0  0  0  0  0
  185.2720  179.7460  140.1830 O   0  0  0  0  0  1  0  0  0  0  0  0
  182.8920  177.8730  140.0460 N   0  0  1  0  0  0  0  0  0  0  0  0
  180.1020  180.3900  135.5740 C   0  0  0  0  0  2  0  0  0  0  0  0
  183.9620  177.8940  141.0550 C   0  0  2  0  0  3  0  0  0  0  0  0
  183.4220  177.0790  137.7260 C   0  0  2  0  0  3  0  0  0  0  0  0
  179.7900  180.5770  137.9640 N   0  0  0  0  0  0  0  0  0  0  0  0
  181.8530  175.2950  137.9530 C   0  0  1  0  0  3  0  0  0  0  0  0
  184.0240  175.8480  138.3790 C   0  0  0  0  0  2  0  0  0  0  0  0
  178.9310  181.7530  137.8980 C   0  0  0  0  0  2  0  0  0  0  0  0
  179.6270  182.9470  138.5240 C   0  0  0  0  0  2  0  0  0  0  0  0
  180.6170  183.5270  137.5360 C   0  0  0  0  0  1  0  0  0  0  0  0
  185.7510  177.5520  144.3740 S   0  0  0  0  0  0  0  0  0  0  0  0
  185.9500  178.7030  146.8340 C   0  0  0  0  0  1  0  0  0  0  0  0
  185.0490  178.6710  145.6180 C   0  0  0  0  0  2  0  0  0  0  0  0
  1  4  1  1  0  0  0
  2  9  1  0  0  0  0
  2  5  1  0  0  0  0
  3 13  1  0  0  0  0
  4 14  1  0  0  0  0
  5  1  1  0  0  0  0
  6 15  1  0  0  0  0
  6  2  1  0  0  0  0
  7  3  1  0  0  0  0
  8 26  1  0  0  0  0
  9 20  1  0  0  0  0
 11 15  1  0  0  0  0
 11 23  1  0  0  0  0
 11 25  1  0  0  0  0
 12  6  1  0  0  0  0
 12 24  1  0  0  0  0
 13 30  1  0  0  0  0
 14 17  1  0  0  0  0
 16  5  1  0  0  0  0
 17 13  1  0  0  0  0
 18 22  1  0  0  0  0
 18  3  1  0  0  0  0
 19 18  1  0  0  0  0
 20  1  1  0  0  0  0
 20 22  1  0  0  0  0
 21 12  2  0  0  0  0
 22 14  1  0  0  0  0
 23 26  1  0  0  0  0
 23  9  1  0  0  0  0
 24 16  1  0  0  0  0
 25  8  1  0  0  0  0
 25 10  1  0  0  0  0
 27 24  1  0  0  0  0
 27 28  1  0  0  0  0
 29 28  1  0  0  0  0
 30 32  1  0  0  0  0
 32 31  1  0  0  0  0
M  END
>  <MODEL>
1

>  <REMARK>
 VINA RESULT:      -4.9      0.000      0.000
  Name = 
  4 active torsions:
  status: ('A' for Active; 'I' for Inactive)
    1  A    between atoms: C_14  and  C_21
    2  A    between atoms: C_14  and  N_29
    3  A    between atoms: C_15  and  S_19
    4  A    between atoms: S_19  and  C_26
                            x       y       z     vdW  Elec       q    Type
                         _______ _______ _______ _____ _____    ______ ____

>  <TORSDO>
F 4

$$$$
=
 OpenBabel11052414303D

 32 37  0  0  1  0  0  0  0  0999 V2000
  189.2930  175.1380  135.0900 C   0  0  1  0  0  3  0  0  0  0  0  0
  187.9870  174.5280  137.0540 C   0  0  2  0  0  3  0  0  0  0  0  0
  193.1880  176.0190  137.4820 C   0  0  1  0  0  3  0  0  0  0  0  0
  190.5410  174.5630  134.5940 N   0  0  0  0  0  2  0  0  0  0  0  0
  188.4100  174.0480  135.6600 C   0  0  1  0  0  3  0  0  0  0  0  0
  186.4800  174.8310  137.2170 C   0  0  2  0  0  3  0  0  0  0  0  0
  193.9020  175.5310  138.7310 C   0  0  0  0  0  1  0  0  0  0  0  0
  188.2620  179.1920  137.3320 O   0  0  0  0  0  0  0  0  0  0  0  0
  188.8940  175.7250  137.3650 C   0  0  1  0  0  3  0  0  0  0  0  0
  187.4680  178.3780  135.2240 C   0  0  0  0  0  1  0  0  0  0  0  0
  186.8540  177.2910  137.4460 C   0  0  1  0  0  3  0  0  0  0  0  0
  185.6600  173.7550  136.5800 C   0  0  0  0  0  0  0  0  0  0  0  0
  193.8480  175.4420  136.2160 C   0  0  1  0  0  3  0  0  0  0  0  0
  191.5900  175.4650  135.0260 C   0  0  2  0  0  3  0  0  0  0  0  0
  186.1490  176.1980  136.6310 C   0  0  0  0  0  2  0  0  0  0  0  0
  187.2590  173.7870  134.6800 C   0  0  0  0  0  2  0  0  0  0  0  0
  192.8710  174.6740  135.3160 C   0  0  0  0  0  2  0  0  0  0  0  0
  191.6740  175.7840  137.5670 C   0  0  2  0  0  3  0  0  0  0  0  0
  191.4040  174.4360  137.8380 O   0  0  0  0  0  1  0  0  0  0  0  0
  189.5700  176.1370  136.1260 N   0  0  1  0  0  0  0  0  0  0  0  0
  184.5700  173.3140  137.1980 C   0  0  0  0  0  2  0  0  0  0  0  0
  191.0340  176.2170  136.2260 C   0  0  2  0  0  3  0  0  0  0  0  0
  188.1730  176.9010  138.0650 C   0  0  2  0  0  3  0  0  0  0  0  0
  186.1240  173.1710  135.3520 N   0  0  0  0  0  0  0  0  0  0  0  0
  187.1600  178.5800  136.7040 C   0  0  1  0  0  3  0  0  0  0  0  0
  188.9780  178.1890  138.0240 C   0  0  0  0  0  2  0  0  0  0  0  0
  185.5720  171.9380  134.8040 C   0  0  0  0  0  2  0  0  0  0  0  0
  186.1490  170.7370  135.5310 C   0  0  0  0  0  2  0  0  0  0  0  0
  187.5160  170.4150  134.9660 C   0  0  0  0  0  1  0  0  0  0  0  0
  194.6560  176.7720  135.2730 S   0  0  0  0  0  0  0  0  0  0  0  0
  196.5270  174.9900  136.1340 C   0  0  0  0  0  1  0  0  0  0  0  0
  196.1020  175.7430  134.8920 C   0  0  0  0  0  2  0  0  0  0  0  0
  1  4  1  1  0  0  0
  1  5  1  0  0  0  0
  1 20  1  0  0  0  0
  2  6  1  0  0  0  0
  2  9  1  0  0  0  0
  3 18  1  0  0  0  0
  3  7  1  0  0  0  0
  4 14  1  0  0  0  0
  5  2  1  0  0  0  0
  8 26  1  0  0  0  0
  9 23  1  0  0  0  0
 10 25  1  0  0  0  0
 11 23  1  0  0  0  0
 12 21  2  0  0  0  0
 12  6  1  0  0  0  0
 13  3  1  0  0  0  0
 14 17  1  0  0  0  0
 14 22  1  0  0  0  0
 15  6  1  0  0  0  0
 15 11  1  0  0  0  0
 16 24  1  0  0  0  0
 16  5  1  0  0  0  0
 17 13  1  0  0  0  0
 18 19  1  0  0  0  0
 20 22  1  0  0  0  0
 20  9  1  0  0  0  0
 22 18  1  0  0  0  0
 24 12  1  0  0  0  0
 25  8  1  0  0  0  0
 25 11  1  0  0  0  0
 26 23  1  0  0  0  0
 27 24  1  0  0  0  0
 27 28  1  0  0  0  0
 29 28  1  0  0  0  0
 30 13  1  0  0  0  0
 32 30  1  0  0  0  0
 32 31  1  0  0  0  0
M  END
>  <MODEL>
2

>  <REMARK>
 VINA RESULT:      -4.8      6.876      9.859
  Name = 
  4 active torsions:
  status: ('A' for Active; 'I' for Inactive)
    1  A    between atoms: C_14  and  C_21
    2  A    between atoms: C_14  and  N_29
    3  A    between atoms: C_15  and  S_19
    4  A    between atoms: S_19  and  C_26
                            x       y       z     vdW  Elec       q    Type
                         _______ _______ _______ _____ _____    ______ ____

>  <TORSDO>
F 4

$$$$
=
 OpenBabel11052414303D

 32 37  0  0  1  0  0  0  0  0999 V2000
  188.0210  174.3680  137.0400 C   0  0  1  0  0  3  0  0  0  0  0  0
  189.2330  175.7440  135.4370 C   0  0  2  0  0  3  0  0  0  0  0  0
  183.8340  176.0500  135.8950 C   0  0  1  0  0  3  0  0  0  0  0  0
  186.9430  173.4090  136.8070 N   0  0  0  0  0  2  0  0  0  0  0  0
  189.0270  174.3000  135.9110 C   0  0  1  0  0  3  0  0  0  0  0  0
  190.6430  176.3260  135.6910 C   0  0  2  0  0  3  0  0  0  0  0  0
  183.1090  176.5870  134.6720 C   0  0  0  0  0  1  0  0  0  0  0  0
  188.1180  178.7580  138.8400 O   0  0  0  0  0  0  0  0  0  0  0  0
  188.1050  176.5520  136.0910 C   0  0  1  0  0  3  0  0  0  0  0  0
  189.2260  176.7780  139.6050 C   0  0  0  0  0  1  0  0  0  0  0  0
  189.8220  177.9380  137.4150 C   0  0  1  0  0  3  0  0  0  0  0  0
  191.6930  175.3250  135.3290 C   0  0  0  0  0  0  0  0  0  0  0  0
  183.4020  174.6020  136.1940 C   0  0  1  0  0  3  0  0  0  0  0  0
  185.7170  174.1050  137.1460 C   0  0  2  0  0  3  0  0  0  0  0  0
  190.7790  176.7690  137.1430 C   0  0  0  0  0  2  0  0  0  0  0  0
  190.2890  173.5930  136.4210 C   0  0  0  0  0  2  0  0  0  0  0  0
  184.5750  173.6150  136.2470 C   0  0  0  0  0  2  0  0  0  0  0  0
  185.3520  176.2440  135.7830 C   0  0  2  0  0  3  0  0  0  0  0  0
  185.8300  175.6780  134.5940 O   0  0  0  0  0  1  0  0  0  0  0  0
  187.4810  175.7270  137.1350 N   0  0  1  0  0  0  0  0  0  0  0  0
  192.7840  175.7280  134.6880 C   0  0  0  0  0  2  0  0  0  0  0  0
  186.0220  175.5900  137.0150 C   0  0  2  0  0  3  0  0  0  0  0  0
  188.5420  177.9410  136.6170 C   0  0  2  0  0  3  0  0  0  0  0  0
  191.4500  173.9380  135.6140 N   0  0  0  0  0  0  0  0  0  0  0  0
  189.3610  178.0990  138.8530 C   0  0  1  0  0  3  0  0  0  0  0  0
  187.5310  178.5500  137.5710 C   0  0  0  0  0  2  0  0  0  0  0  0
  192.2580  172.8620  135.0530 C   0  0  0  0  0  2  0  0  0  0  0  0
  193.0600  172.1830  136.1470 C   0  0  0  0  0  2  0  0  0  0  0  0
  194.4380  172.8070  136.2220 C   0  0  0  0  0  1  0  0  0  0  0  0
  182.4590  174.5420  137.7490 S   0  0  0  0  0  0  0  0  0  0  0  0
  182.7880  176.5950  139.5080 C   0  0  0  0  0  1  0  0  0  0  0  0
  182.6330  176.3270  138.0260 C   0  0  0  0  0  2  0  0  0  0  0  0
  1  4  1  6  0  0  0
  1 20  1  0  0  0  0
  2  6  1  0  0  0  0
  2  5  1  0  0  0  0
  2  9  1  0  0  0  0
  3 13  1  0  0  0  0
  4 14  1  0  0  0  0
  5 16  1  0  0  0  0
  5  1  1  0  0  0  0
  6 15  1  0  0  0  0
  7  3  1  0  0  0  0
  8 25  1  0  0  0  0
  9 23  1  0  0  0  0
  9 20  1  0  0  0  0
 11 25  1  0  0  0  0
 12 24  1  0  0  0  0
 12  6  1  0  0  0  0
 13 17  1  0  0  0  0
 13 30  1  0  0  0  0
 15 11  1  0  0  0  0
 17 14  1  0  0  0  0
 18  3  1  0  0  0  0
 18 22  1  0  0  0  0
 19 18  1  0  0  0  0
 21 12  2  0  0  0  0
 22 20  1  0  0  0  0
 22 14  1  0  0  0  0
 23 11  1  0  0  0  0
 23 26  1  0  0  0  0
 24 16  1  0  0  0  0
 25 10  1  0  0  0  0
 26  8  1  0  0  0  0
 27 24  1  0  0  0  0
 27 28  1  0  0  0  0
 28 29  1  0  0  0  0
 30 32  1  0  0  0  0
 32 31  1  0  0  0  0
M  END
>  <MODEL>
3

>  <REMARK>
 VINA RESULT:      -4.5      5.875      9.736
  Name = 
  4 active torsions:
  status: ('A' for Active; 'I' for Inactive)
    1  A    between atoms: C_14  and  C_21
    2  A    between atoms: C_14  and  N_29
    3  A    between atoms: C_15  and  S_19
    4  A    between atoms: S_19  and  C_26
                            x       y       z     vdW  Elec       q    Type
                         _______ _______ _______ _____ _____    ______ ____

>  <TORSDO>
F 4

$$$$
=
 OpenBabel11052414303D

 32 37  0  0  1  0  0  0  0  0999 V2000
  185.7570  176.6220  137.5370 C   0  0  1  0  0  3  0  0  0  0  0  0
  184.6740  176.6860  135.3560 C   0  0  2  0  0  3  0  0  0  0  0  0
  190.0550  176.1480  135.8120 C   0  0  1  0  0  3  0  0  0  0  0  0
  186.8050  177.4850  138.0750 N   0  0  0  0  0  2  0  0  0  0  0  0
  184.8000  177.4330  136.6900 C   0  0  1  0  0  3  0  0  0  0  0  0
  183.2780  176.0860  135.0670 C   0  0  2  0  0  3  0  0  0  0  0  0
  190.8550  176.5750  134.5940 C   0  0  0  0  0  1  0  0  0  0  0  0
  185.7550  172.1660  135.9040 O   0  0  0  0  0  0  0  0  0  0  0  0
  185.8030  175.6480  135.3630 C   0  0  1  0  0  3  0  0  0  0  0  0
  184.5350  173.1130  137.7330 C   0  0  0  0  0  1  0  0  0  0  0  0
  184.0850  173.7330  135.3030 C   0  0  1  0  0  3  0  0  0  0  0  0
  182.2070  177.0700  135.4100 C   0  0  0  0  0  0  0  0  0  0  0  0
  190.4150  177.0150  137.0330 C   0  0  1  0  0  3  0  0  0  0  0  0
  188.0410  176.7420  137.9300 C   0  0  2  0  0  3  0  0  0  0  0  0
  183.0960  174.7810  135.8310 C   0  0  0  0  0  2  0  0  0  0  0  0
  183.4890  177.6130  137.4660 C   0  0  0  0  0  2  0  0  0  0  0  0
  189.2030  177.7090  137.6670 C   0  0  0  0  0  2  0  0  0  0  0  0
  188.5530  176.0800  135.5080 C   0  0  2  0  0  3  0  0  0  0  0  0
  188.1060  177.3010  134.9830 O   0  0  0  0  0  1  0  0  0  0  0  0
  186.3460  175.5530  136.7250 N   0  0  1  0  0  0  0  0  0  0  0  0
  181.1620  177.2060  134.6000 C   0  0  0  0  0  2  0  0  0  0  0  0
  187.8020  175.7340  136.8160 C   0  0  2  0  0  3  0  0  0  0  0  0
  185.3980  174.2680  134.7890 C   0  0  2  0  0  3  0  0  0  0  0  0
  182.3810  177.9020  136.5690 N   0  0  0  0  0  0  0  0  0  0  0  0
  184.4860  172.6450  136.2820 C   0  0  1  0  0  3  0  0  0  0  0  0
  186.3890  173.1740  135.1430 C   0  0  0  0  0  2  0  0  0  0  0  0
  181.5570  179.0770  136.8300 C   0  0  0  0  0  2  0  0  0  0  0  0
  181.9090  179.6730  138.1800 C   0  0  0  0  0  2  0  0  0  0  0  0
  181.1870  180.9930  138.3510 C   0  0  0  0  0  1  0  0  0  0  0  0
  191.2840  176.0100  138.2770 S   0  0  0  0  0  0  0  0  0  0  0  0
  193.7130  175.2980  137.2730 C   0  0  0  0  0  1  0  0  0  0  0  0
  192.9180  176.5210  137.6760 C   0  0  0  0  0  2  0  0  0  0  0  0
  1  4  1  6  0  0  0
  2  9  1  0  0  0  0
  2  5  1  0  0  0  0
  3 13  1  0  0  0  0
  5 16  1  0  0  0  0
  5  1  1  0  0  0  0
  6  2  1  0  0  0  0
  6 12  1  0  0  0  0
  6 15  1  0  0  0  0
  7  3  1  0  0  0  0
  8 25  1  0  0  0  0
  9 20  1  0  0  0  0
 11 15  1  0  0  0  0
 11 25  1  0  0  0  0
 12 24  1  0  0  0  0
 13 17  1  0  0  0  0
 13 30  1  0  0  0  0
 14  4  1  0  0  0  0
 17 14  1  0  0  0  0
 18  3  1  0  0  0  0
 18 22  1  0  0  0  0
 19 18  1  0  0  0  0
 20 22  1  0  0  0  0
 20  1  1  0  0  0  0
 21 12  2  0  0  0  0
 22 14  1  0  0  0  0
 23 26  1  0  0  0  0
 23 11  1  0  0  0  0
 23  9  1  0  0  0  0
 24 27  1  0  0  0  0
 24 16  1  0  0  0  0
 25 10  1  0  0  0  0
 26  8  1  0  0  0  0
 27 28  1  0  0  0  0
 28 29  1  0  0  0  0
 31 32  1  0  0  0  0
 32 30  1  0  0  0  0
M  END
>  <MODEL>
4

>  <REMARK>
 VINA RESULT:      -4.4      4.506      6.044
  Name = 
  4 active torsions:
  status: ('A' for Active; 'I' for Inactive)
    1  A    between atoms: C_14  and  C_21
    2  A    between atoms: C_14  and  N_29
    3  A    between atoms: C_15  and  S_19
    4  A    between atoms: S_19  and  C_26
                            x       y       z     vdW  Elec       q    Type
                         _______ _______ _______ _____ _____    ______ ____

>  <TORSDO>
F 4

$$$$
=
 OpenBabel11052414303D

 32 37  0  0  1  0  0  0  0  0999 V2000
  189.8110  175.2900  137.6660 C   0  0  1  0  0  3  0  0  0  0  0  0
  188.7880  175.9110  135.5440 C   0  0  2  0  0  3  0  0  0  0  0  0
  193.9440  174.2350  135.8020 C   0  0  1  0  0  3  0  0  0  0  0  0
  191.0050  175.8290  138.3110 N   0  0  0  0  0  2  0  0  0  0  0  0
  189.0480  176.3990  136.9750 C   0  0  1  0  0  3  0  0  0  0  0  0
  187.3040  175.6570  135.1930 C   0  0  2  0  0  3  0  0  0  0  0  0
  194.8280  174.6770  134.6480 C   0  0  0  0  0  1  0  0  0  0  0  0
  188.9280  171.2360  135.3610 O   0  0  0  0  0  0  0  0  0  0  0  0
  189.6840  174.6780  135.3660 C   0  0  1  0  0  3  0  0  0  0  0  0
  187.9020  172.1120  137.3390 C   0  0  0  0  0  1  0  0  0  0  0  0
  187.6160  173.1820  135.0440 C   0  0  1  0  0  3  0  0  0  0  0  0
  186.4490  176.7710  135.7070 C   0  0  0  0  0  0  0  0  0  0  0  0
  194.4580  174.8100  137.1350 C   0  0  1  0  0  3  0  0  0  0  0  0
  192.0670  174.8850  138.0270 C   0  0  2  0  0  3  0  0  0  0  0  0
  186.8520  174.3120  135.7490 C   0  0  0  0  0  2  0  0  0  0  0  0
  187.7910  176.7160  137.7950 C   0  0  0  0  0  2  0  0  0  0  0  0
  193.4030  175.6270  137.8930 C   0  0  0  0  0  2  0  0  0  0  0  0
  192.4630  174.5200  135.5210 C   0  0  2  0  0  3  0  0  0  0  0  0
  192.2790  175.8720  135.2020 O   0  0  0  0  0  1  0  0  0  0  0  0
  190.1810  174.2640  136.6860 N   0  0  1  0  0  0  0  0  0  0  0  0
  185.4630  177.2390  134.9490 C   0  0  0  0  0  2  0  0  0  0  0  0
  191.6420  174.1330  136.7750 C   0  0  2  0  0  3  0  0  0  0  0  0
  189.0160  173.5160  134.5940 C   0  0  2  0  0  3  0  0  0  0  0  0
  186.7740  177.3590  136.9770 N   0  0  0  0  0  0  0  0  0  0  0  0
  187.7780  171.8960  135.8340 C   0  0  1  0  0  3  0  0  0  0  0  0
  189.7610  172.2020  134.7530 C   0  0  0  0  0  2  0  0  0  0  0  0
  186.2020  178.6200  137.4340 C   0  0  0  0  0  2  0  0  0  0  0  0
  185.4120  178.4030  138.7120 C   0  0  0  0  0  2  0  0  0  0  0  0
  184.0950  177.7340  138.3820 C   0  0  0  0  0  1  0  0  0  0  0  0
  195.0910  173.4700  138.1900 S   0  0  0  0  0  0  0  0  0  0  0  0
  197.5490  174.5930  137.8580 C   0  0  0  0  0  1  0  0  0  0  0  0
  196.6990  173.4490  137.3490 C   0  0  0  0  0  2  0  0  0  0  0  0
  1  4  1  6  0  0  0
  2  5  1  0  0  0  0
  3 13  1  0  0  0  0
  5  1  1  0  0  0  0
  5 16  1  0  0  0  0
  6  2  1  0  0  0  0
  6 12  1  0  0  0  0
  6 15  1  0  0  0  0
  7  3  1  0  0  0  0
  8 25  1  0  0  0  0
  9  2  1  0  0  0  0
  9 20  1  0  0  0  0
 11 15  1  0  0  0  0
 11 25  1  0  0  0  0
 12 24  1  0  0  0  0
 13 17  1  0  0  0  0
 13 30  1  0  0  0  0
 14  4  1  0  0  0  0
 17 14  1  0  0  0  0
 18  3  1  0  0  0  0
 18 22  1  0  0  0  0
 19 18  1  0  0  0  0
 20 22  1  0  0  0  0
 20  1  1  0  0  0  0
 21 12  2  0  0  0  0
 22 14  1  0  0  0  0
 23 26  1  0  0  0  0
 23 11  1  0  0  0  0
 23  9  1  0  0  0  0
 24 27  1  0  0  0  0
 24 16  1  0  0  0  0
 25 10  1  0  0  0  0
 26  8  1  0  0  0  0
 27 28  1  0  0  0  0
 29 28  1  0  0  0  0
 32 31  1  0  0  0  0
 32 30  1  0  0  0  0
M  END
>  <MODEL>
5

>  <REMARK>
 VINA RESULT:      -4.4      7.222      9.227
  Name = 
  4 active torsions:
  status: ('A' for Active; 'I' for Inactive)
    1  A    between atoms: C_14  and  C_21
    2  A    between atoms: C_14  and  N_29
    3  A    between atoms: C_15  and  S_19
    4  A    between atoms: S_19  and  C_26
                            x       y       z     vdW  Elec       q    Type
                         _______ _______ _______ _____ _____    ______ ____

>  <TORSDO>
F 4

$$$$
=
 OpenBabel11052414303D

 32 37  0  0  1  0  0  0  0  0999 V2000
  182.8430  177.4340  137.1320 C   0  0  1  0  0  3  0  0  0  0  0  0
  183.4290  175.3770  138.2980 C   0  0  2  0  0  3  0  0  0  0  0  0
  179.6530  178.7470  140.2590 C   0  0  1  0  0  3  0  0  0  0  0  0
  182.8870  178.8140  137.6110 N   0  0  0  0  0  2  0  0  0  0  0  0
  184.0160  176.6550  137.6860 C   0  0  1  0  0  3  0  0  0  0  0  0
  183.8250  174.0640  137.5850 C   0  0  2  0  0  3  0  0  0  0  0  0
  179.3980  178.6370  141.7520 C   0  0  0  0  0  1  0  0  0  0  0  0
  179.2870  174.3880  136.3570 O   0  0  0  0  0  0  0  0  0  0  0  0
  181.9150  175.6150  138.3590 C   0  0  1  0  0  3  0  0  0  0  0  0
  180.9110  175.2490  134.8220 C   0  0  0  0  0  1  0  0  0  0  0  0
  181.5110  173.6670  136.7270 C   0  0  1  0  0  3  0  0  0  0  0  0
  185.2840  174.0650  137.2620 C   0  0  0  0  0  0  0  0  0  0  0  0
  180.1790  180.1490  139.8970 C   0  0  1  0  0  3  0  0  0  0  0  0
  181.5240  179.1500  137.9710 C   0  0  2  0  0  3  0  0  0  0  0  0
  182.9800  173.8670  136.3310 C   0  0  0  0  0  2  0  0  0  0  0  0
  185.0330  176.4330  136.5590 C   0  0  0  0  0  2  0  0  0  0  0  0
  181.5230  180.1230  139.1560 C   0  0  0  0  0  2  0  0  0  0  0  0
  180.5270  177.5950  139.7470 C   0  0  2  0  0  3  0  0  0  0  0  0
  181.7180  177.5210  140.4830 O   0  0  0  0  0  1  0  0  0  0  0  0
  181.5900  176.7930  137.5430 N   0  0  1  0  0  0  0  0  0  0  0  0
  185.9930  172.9550  137.4410 C   0  0  0  0  0  2  0  0  0  0  0  0
  180.8200  177.8290  138.2460 C   0  0  2  0  0  3  0  0  0  0  0  0
  181.0640  174.3790  137.9800 C   0  0  2  0  0  3  0  0  0  0  0  0
  185.8960  175.2960  136.8430 N   0  0  0  0  0  0  0  0  0  0  0  0
  180.4820  174.0670  135.6860 C   0  0  1  0  0  3  0  0  0  0  0  0
  179.6160  174.7330  137.6880 C   0  0  0  0  0  2  0  0  0  0  0  0
  187.3410  175.4810  136.7840 C   0  0  0  0  0  2  0  0  0  0  0  0
  187.6890  176.9450  136.9820 C   0  0  0  0  0  2  0  0  0  0  0  0
  188.3160  177.1330  138.3470 C   0  0  0  0  0  1  0  0  0  0  0  0
  178.9380  181.0460  138.9140 S   0  0  0  0  0  0  0  0  0  0  0  0
  179.9470  182.7450  137.0410 C   0  0  0  0  0  1  0  0  0  0  0  0
  180.0990  182.3780  138.5010 C   0  0  0  0  0  2  0  0  0  0  0  0
  1 20  1  0  0  0  0
  1  4  1  1  0  0  0
  1  5  1  0  0  0  0
  2  9  1  0  0  0  0
  3  7  1  0  0  0  0
  4 14  1  0  0  0  0
  5  2  1  0  0  0  0
  6  2  1  0  0  0  0
  8 26  1  0  0  0  0
 10 25  1  0  0  0  0
 11 23  1  0  0  0  0
 12 21  2  0  0  0  0
 12  6  1  0  0  0  0
 13  3  1  0  0  0  0
 14 22  1  0  0  0  0
 14 17  1  0  0  0  0
 15 11  1  0  0  0  0
 15  6  1  0  0  0  0
 16 24  1  0  0  0  0
 16  5  1  0  0  0  0
 17 13  1  0  0  0  0
 18  3  1  0  0  0  0
 18 19  1  0  0  0  0
 20 22  1  0  0  0  0
 20  9  1  0  0  0  0
 22 18  1  0  0  0  0
 23  9  1  0  0  0  0
 24 12  1  0  0  0  0
 25  8  1  0  0  0  0
 25 11  1  0  0  0  0
 26 23  1  0  0  0  0
 27 24  1  0  0  0  0
 27 28  1  0  0  0  0
 28 29  1  0  0  0  0
 30 13  1  0  0  0  0
 31 32  1  0  0  0  0
 32 30  1  0  0  0  0
M  END
>  <MODEL>
6

>  <REMARK>
 VINA RESULT:      -4.3      3.666      6.603
  Name = 
  4 active torsions:
  status: ('A' for Active; 'I' for Inactive)
    1  A    between atoms: C_14  and  C_21
    2  A    between atoms: C_14  and  N_29
    3  A    between atoms: C_15  and  S_19
    4  A    between atoms: S_19  and  C_26
                            x       y       z     vdW  Elec       q    Type
                         _______ _______ _______ _____ _____    ______ ____

>  <TORSDO>
F 4

$$$$
=
 OpenBabel11052414303D

 32 37  0  0  1  0  0  0  0  0999 V2000
  182.3340  178.9260  138.6640 C   0  0  1  0  0  3  0  0  0  0  0  0
  180.1160  178.1730  137.9950 C   0  0  2  0  0  3  0  0  0  0  0  0
  181.3540  178.9970  143.2140 C   0  0  1  0  0  3  0  0  0  0  0  0
  183.2890  178.2990  139.5750 N   0  0  0  0  0  2  0  0  0  0  0  0
  181.6130  177.8670  137.8580 C   0  0  1  0  0  3  0  0  0  0  0  0
  179.4120  178.6120  136.6900 C   0  0  2  0  0  3  0  0  0  0  0  0
  180.4870  178.2500  144.2120 C   0  0  0  0  0  1  0  0  0  0  0  0
  179.4610  182.6810  139.0670 O   0  0  0  0  0  0  0  0  0  0  0  0
  180.0140  179.2010  139.1280 C   0  0  1  0  0  3  0  0  0  0  0  0
  181.2380  182.2900  137.5110 C   0  0  0  0  0  1  0  0  0  0  0  0
  179.0690  180.9530  137.4970 C   0  0  1  0  0  3  0  0  0  0  0  0
  179.8370  177.7430  135.5510 C   0  0  0  0  0  0  0  0  0  0  0  0
  182.8240  178.5500  143.3250 C   0  0  1  0  0  3  0  0  0  0  0  0
  183.1520  179.0030  140.8340 C   0  0  2  0  0  3  0  0  0  0  0  0
  179.7010  180.0810  136.4030 C   0  0  0  0  0  2  0  0  0  0  0  0
  182.1570  177.8860  136.4240 C   0  0  0  0  0  2  0  0  0  0  0  0
  183.4070  178.0400  142.0010 C   0  0  0  0  0  2  0  0  0  0  0  0
  180.7780  178.9220  141.7950 C   0  0  2  0  0  3  0  0  0  0  0  0
  180.5740  177.5860  141.4220 O   0  0  0  0  0  1  0  0  0  0  0  0
  181.3580  179.7190  139.4160 N   0  0  1  0  0  0  0  0  0  0  0  0
  178.9310  177.3360  134.6680 C   0  0  0  0  0  2  0  0  0  0  0  0
  181.7620  179.6210  140.8270 C   0  0  2  0  0  3  0  0  0  0  0  0
  178.9870  180.3300  138.8690 C   0  0  2  0  0  3  0  0  0  0  0  0
  181.2040  177.3050  135.4900 N   0  0  0  0  0  0  0  0  0  0  0  0
  179.7300  182.2980  137.7400 C   0  0  1  0  0  3  0  0  0  0  0  0
  179.1680  181.5120  139.8050 C   0  0  0  0  0  2  0  0  0  0  0  0
  181.6540  176.2380  134.6050 C   0  0  0  0  0  2  0  0  0  0  0  0
  182.5080  175.2460  135.3720 C   0  0  0  0  0  2  0  0  0  0  0  0
  181.6160  174.3510  136.2050 C   0  0  0  0  0  1  0  0  0  0  0  0
  183.8420  179.9100  143.9770 S   0  0  0  0  0  0  0  0  0  0  0  0
  185.8010  178.2590  144.8990 C   0  0  0  0  0  1  0  0  0  0  0  0
  184.4950  178.8910  145.3290 C   0  0  0  0  0  2  0  0  0  0  0  0
  1 20  1  0  0  0  0
  1  4  1  1  0  0  0
  2  9  1  0  0  0  0
  3 13  1  0  0  0  0
  3  7  1  0  0  0  0
  4 14  1  0  0  0  0
  5  2  1  0  0  0  0
  5  1  1  0  0  0  0
  6  2  1  0  0  0  0
  8 26  1  0  0  0  0
  9 20  1  0  0  0  0
 10 25  1  0  0  0  0
 11 25  1  0  0  0  0
 11 23  1  0  0  0  0
 12  6  1  0  0  0  0
 13 30  1  0  0  0  0
 14 17  1  0  0  0  0
 15  6  1  0  0  0  0
 15 11  1  0  0  0  0
 16  5  1  0  0  0  0
 17 13  1  0  0  0  0
 18  3  1  0  0  0  0
 19 18  1  0  0  0  0
 20 22  1  0  0  0  0
 21 12  2  0  0  0  0
 22 14  1  0  0  0  0
 22 18  1  0  0  0  0
 23  9  1  0  0  0  0
 23 26  1  0  0  0  0
 24 12  1  0  0  0  0
 24 16  1  0  0  0  0
 25  8  1  0  0  0  0
 27 28  1  0  0  0  0
 27 24  1  0  0  0  0
 28 29  1  0  0  0  0
 30 32  1  0  0  0  0
 31 32  1  0  0  0  0
M  END
>  <MODEL>
7

>  <REMARK>
 VINA RESULT:      -4.3      2.351      4.983
  Name = 
  4 active torsions:
  status: ('A' for Active; 'I' for Inactive)
    1  A    between atoms: C_14  and  C_21
    2  A    between atoms: C_14  and  N_29
    3  A    between atoms: C_15  and  S_19
    4  A    between atoms: S_19  and  C_26
                            x       y       z     vdW  Elec       q    Type
                         _______ _______ _______ _____ _____    ______ ____

>  <TORSDO>
F 4

$$$$
=
 OpenBabel11052414303D

 32 37  0  0  1  0  0  0  0  0999 V2000
  181.5460  178.2910  136.1520 C   0  0  1  0  0  3  0  0  0  0  0  0
  179.9190  179.0890  137.7800 C   0  0  2  0  0  3  0  0  0  0  0  0
  180.6320  173.7850  136.8770 C   0  0  1  0  0  3  0  0  0  0  0  0
  181.3440  177.4410  134.9810 N   0  0  0  0  0  2  0  0  0  0  0  0
  180.3720  179.2310  136.3220 C   0  0  1  0  0  3  0  0  0  0  0  0
  180.1200  180.3460  138.6570 C   0  0  2  0  0  3  0  0  0  0  0  0
  179.4560  172.8990  137.2520 C   0  0  0  0  0  1  0  0  0  0  0  0
  183.4330  177.5050  140.4360 O   0  0  0  0  0  0  0  0  0  0  0  0
  180.6420  177.8440  138.3110 C   0  0  1  0  0  3  0  0  0  0  0  0
  184.1040  179.0610  138.7430 C   0  0  0  0  0  1  0  0  0  0  0  0
  181.9140  179.2760  140.0290 C   0  0  1  0  0  3  0  0  0  0  0  0
  179.6890  181.5710  137.9180 C   0  0  0  0  0  0  0  0  0  0  0  0
  180.9200  173.6980  135.3660 C   0  0  1  0  0  3  0  0  0  0  0  0
  181.7530  176.1110  135.3850 C   0  0  2  0  0  3  0  0  0  0  0  0
  181.5730  180.4520  139.1040 C   0  0  0  0  0  2  0  0  0  0  0  0
  180.8070  180.6410  135.9060 C   0  0  0  0  0  2  0  0  0  0  0  0
  180.8980  175.0610  134.6630 C   0  0  0  0  0  2  0  0  0  0  0  0
  180.4540  175.2140  137.4040 C   0  0  2  0  0  3  0  0  0  0  0  0
  179.2320  175.7460  136.9700 O   0  0  0  0  0  1  0  0  0  0  0  0
  181.6950  177.4700  137.3580 N   0  0  1  0  0  0  0  0  0  0  0  0
  179.0060  182.5140  138.5600 C   0  0  0  0  0  2  0  0  0  0  0  0
  181.6390  176.0730  136.9010 C   0  0  2  0  0  3  0  0  0  0  0  0
  181.1750  177.9890  139.7560 C   0  0  2  0  0  3  0  0  0  0  0  0
  179.9550  181.6560  136.5090 N   0  0  0  0  0  0  0  0  0  0  0  0
  183.3740  178.8630  140.0690 C   0  0  1  0  0  3  0  0  0  0  0  0
  182.1880  176.9170  140.1170 C   0  0  0  0  0  2  0  0  0  0  0  0
  179.3340  182.6520  135.6440 C   0  0  0  0  0  2  0  0  0  0  0  0
  180.3990  183.4970  134.9700 C   0  0  0  0  0  2  0  0  0  0  0  0
  180.8070  184.6240  135.8940 C   0  0  0  0  0  1  0  0  0  0  0  0
  182.5150  172.8710  135.0830 S   0  0  0  0  0  0  0  0  0  0  0  0
  184.1940  172.6170  137.2120 C   0  0  0  0  0  1  0  0  0  0  0  0
  182.7310  172.4910  136.8440 C   0  0  0  0  0  2  0  0  0  0  0  0
  1  4  1  6  0  0  0
  1  5  1  0  0  0  0
  1 20  1  0  0  0  0
  2  9  1  0  0  0  0
  2  6  1  0  0  0  0
  3  7  1  0  0  0  0
  3 18  1  0  0  0  0
  4 14  1  0  0  0  0
  5  2  1  0  0  0  0
  6 15  1  0  0  0  0
  9 23  1  0  0  0  0
 10 25  1  0  0  0  0
 11 25  1  0  0  0  0
 12 21  2  0  0  0  0
 12  6  1  0  0  0  0
 13  3  1  0  0  0  0
 14 22  1  0  0  0  0
 15 11  1  0  0  0  0
 16  5  1  0  0  0  0
 16 24  1  0  0  0  0
 17 13  1  0  0  0  0
 17 14  1  0  0  0  0
 19 18  1  0  0  0  0
 20  9  1  0  0  0  0
 22 20  1  0  0  0  0
 22 18  1  0  0  0  0
 23 11  1  0  0  0  0
 23 26  1  0  0  0  0
 24 12  1  0  0  0  0
 25  8  1  0  0  0  0
 26  8  1  0  0  0  0
 27 24  1  0  0  0  0
 28 27  1  0  0  0  0
 28 29  1  0  0  0  0
 30 13  1  0  0  0  0
 30 32  1  0  0  0  0
 32 31  1  0  0  0  0
M  END
>  <MODEL>
8

>  <REMARK>
 VINA RESULT:      -4.3      3.365      6.223
  Name = 
  4 active torsions:
  status: ('A' for Active; 'I' for Inactive)
    1  A    between atoms: C_14  and  C_21
    2  A    between atoms: C_14  and  N_29
    3  A    between atoms: C_15  and  S_19
    4  A    between atoms: S_19  and  C_26
                            x       y       z     vdW  Elec       q    Type
                         _______ _______ _______ _____ _____    ______ ____

>  <TORSDO>
F 4

$$$$
=
 OpenBabel11052414303D

 32 37  0  0  1  0  0  0  0  0999 V2000
  184.7010  177.0360  137.7190 C   0  0  1  0  0  3  0  0  0  0  0  0
  183.5180  177.4830  135.6370 C   0  0  2  0  0  3  0  0  0  0  0  0
  188.9200  176.9750  135.7530 C   0  0  1  0  0  3  0  0  0  0  0  0
  185.7630  177.8050  138.3640 N   0  0  0  0  0  2  0  0  0  0  0  0
  183.6970  177.9710  137.0800 C   0  0  1  0  0  3  0  0  0  0  0  0
  182.1170  176.9190  135.3020 C   0  0  2  0  0  3  0  0  0  0  0  0
  189.6580  177.6360  134.6020 C   0  0  0  0  0  1  0  0  0  0  0  0
  184.6740  172.9610  135.2870 O   0  0  0  0  0  0  0  0  0  0  0  0
  184.6570  176.4830  135.4020 C   0  0  1  0  0  3  0  0  0  0  0  0
  183.5290  173.5280  137.3120 C   0  0  0  0  0  1  0  0  0  0  0  0
  182.9610  174.5790  135.0610 C   0  0  1  0  0  3  0  0  0  0  0  0
  181.0520  177.8010  135.8690 C   0  0  0  0  0  0  0  0  0  0  0  0
  189.3260  177.6070  137.0980 C   0  0  1  0  0  3  0  0  0  0  0  0
  186.9990  177.1260  138.0300 C   0  0  2  0  0  3  0  0  0  0  0  0
  181.9850  175.4910  135.8170 C   0  0  0  0  0  2  0  0  0  0  0  0
  182.4210  177.9780  137.9320 C   0  0  0  0  0  2  0  0  0  0  0  0
  188.1360  178.1480  137.9010 C   0  0  0  0  0  2  0  0  0  0  0  0
  187.4060  176.9350  135.5070 C   0  0  2  0  0  3  0  0  0  0  0  0
  186.9220  178.2230  135.2380 O   0  0  0  0  0  1  0  0  0  0  0  0
  185.2640  176.1480  136.6980 N   0  0  1  0  0  0  0  0  0  0  0  0
  179.9690  178.0640  135.1440 C   0  0  0  0  0  2  0  0  0  0  0  0
  186.7200  176.3380  136.7590 C   0  0  2  0  0  3  0  0  0  0  0  0
  184.2430  175.2260  134.6000 C   0  0  2  0  0  3  0  0  0  0  0  0
  181.2690  178.4070  137.1530 N   0  0  0  0  0  0  0  0  0  0  0  0
  183.4190  173.3360  135.8030 C   0  0  1  0  0  3  0  0  0  0  0  0
  185.2610  174.1050  134.7010 C   0  0  0  0  0  2  0  0  0  0  0  0
  180.4450  179.4960  137.6640 C   0  0  0  0  0  2  0  0  0  0  0  0
  181.0540  180.8340  137.2880 C   0  0  0  0  0  2  0  0  0  0  0  0
  181.6230  181.4940  138.5270 C   0  0  0  0  0  1  0  0  0  0  0  0
  190.2620  176.4070  138.0940 S   0  0  0  0  0  0  0  0  0  0  0  0
  191.2460  177.4210  140.4220 C   0  0  0  0  0  1  0  0  0  0  0  0
  189.9580  177.3150  139.6350 C   0  0  0  0  0  2  0  0  0  0  0  0
  1  4  1  6  0  0  0
  2  5  1  0  0  0  0
  3 13  1  0  0  0  0
  5  1  1  0  0  0  0
  5 16  1  0  0  0  0
  6  2  1  0  0  0  0
  6 15  1  0  0  0  0
  6 12  1  0  0  0  0
  7  3  1  0  0  0  0
  8 25  1  0  0  0  0
  9  2  1  0  0  0  0
  9 20  1  0  0  0  0
 11 25  1  0  0  0  0
 11 15  1  0  0  0  0
 12 24  1  0  0  0  0
 13 17  1  0  0  0  0
 13 30  1  0  0  0  0
 14  4  1  0  0  0  0
 17 14  1  0  0  0  0
 18  3  1  0  0  0  0
 18 22  1  0  0  0  0
 19 18  1  0  0  0  0
 20 22  1  0  0  0  0
 20  1  1  0  0  0  0
 21 12  2  0  0  0  0
 22 14  1  0  0  0  0
 23 26  1  0  0  0  0
 23 11  1  0  0  0  0
 23  9  1  0  0  0  0
 24 27  1  0  0  0  0
 24 16  1  0  0  0  0
 25 10  1  0  0  0  0
 26  8  1  0  0  0  0
 28 27  1  0  0  0  0
 28 29  1  0  0  0  0
 30 32  1  0  0  0  0
 32 31  1  0  0  0  0
M  END
>  <MODEL>
9

>  <REMARK>
 VINA RESULT:      -4.0      3.855      4.872
  Name = 
  4 active torsions:
  status: ('A' for Active; 'I' for Inactive)
    1  A    between atoms: C_14  and  C_21
    2  A    between atoms: C_14  and  N_29
    3  A    between atoms: C_15  and  S_19
    4  A    between atoms: S_19  and  C_26
                            x       y       z     vdW  Elec       q    Type
                         _______ _______ _______ _____ _____    ______ ____

>  <TORSDO>
F 4

$$$$
