=
 OpenBabel11052412543D

 25 28  0  0  1  0  0  0  0  0999 V2000
  190.1190  177.2200  140.9740 C   0  0  2  0  0  0  0  0  0  0  0  0
  189.0690  178.2520  140.8410 C   0  0  2  0  0  3  0  0  0  0  0  0
  189.5360  177.9610  138.0060 C   0  0  2  0  0  3  0  0  0  0  0  0
  190.5870  176.5630  139.6500 C   0  0  0  0  0  2  0  0  0  0  0  0
  187.8290  177.6230  142.5920 C   0  0  1  0  0  3  0  0  0  0  0  0
  188.2970  178.7200  138.5180 C   0  0  0  0  0  2  0  0  0  0  0  0
  190.2260  176.5660  136.2170 C   0  0  0  0  0  2  0  0  0  0  0  0
  190.1190  175.7430  137.4870 C   0  0  1  0  0  3  0  0  0  0  0  0
  186.7560  178.8010  140.5590 N   0  0  0  0  0  0  0  0  0  0  0  0
  185.5760  178.5210  139.7560 C   0  0  0  0  0  1  0  0  0  0  0  0
  188.7320  176.9400  141.5530 C   0  0  2  0  0  3  0  0  0  0  0  0
  191.1800  177.5590  142.0000 C   0  0  0  0  0  1  0  0  0  0  0  0
  189.4980  177.8500  136.5040 C   0  0  0  0  0  2  0  0  0  0  0  0
  186.5220  178.1490  141.8830 C   0  0  2  0  0  3  0  0  0  0  0  0
  189.6060  176.5980  138.5550 N   0  0  2  0  0  0  0  0  0  0  0  0
  185.8550  179.0340  142.7320 O   0  0  0  0  0  1  0  0  0  0  0  0
  187.9110  178.1810  139.8890 C   0  0  2  0  0  3  0  0  0  0  0  0
  189.1720  174.5790  137.2580 C   0  0  0  0  0  2  0  0  0  0  0  0
  189.8630  173.3720  137.3770 O   0  0  0  0  0  1  0  0  0  0  0  0
  187.5660  176.8070  143.7170 O   0  0  0  0  0  0  0  0  0  0  0  0
  188.5190  177.0760  144.7150 C   0  0  0  0  0  2  0  0  0  0  0  0
  188.2750  177.4960  147.1790 C   0  0  0  0  0  0  0  0  0  0  0  0
  189.3040  176.6040  147.4570 O   0  0  0  0  0  0  0  0  0  0  0  0
  187.6950  178.0930  148.1220 O   0  0  0  0  0  1  0  0  0  0  0  0
  187.8750  177.7440  145.8330 N   0  0  0  0  0  2  0  0  0  0  0  0
  1 11  1  0  0  0  0
  1 12  1  1  0  0  0
  2  1  1  0  0  0  0
  2 11  1  0  0  0  0
  3  6  1  0  0  0  0
  3 15  1  0  0  0  0
  4  1  1  0  0  0  0
  5 20  1  0  0  0  0
  6 17  1  0  0  0  0
  7 13  1  0  0  0  0
  7  8  1  0  0  0  0
  8 15  1  0  0  0  0
  9 14  1  0  0  0  0
 10  9  1  0  0  0  0
 11  5  1  0  0  0  0
 13  3  1  0  0  0  0
 14  5  1  0  0  0  0
 14 16  1  0  0  0  0
 15  4  1  0  0  0  0
 17  9  1  0  0  0  0
 17  2  1  0  0  0  0
 18 19  1  0  0  0  0
 18  8  1  0  0  0  0
 20 21  1  0  0  0  0
 21 25  1  0  0  0  0
 22 23  2  0  0  0  0
 22 24  1  0  0  0  0
 25 22  1  0  0  0  0
M  END
>  <MODEL>
1

>  <REMARK>
 VINA RESULT:      -6.5      0.000      0.000
  Name = 
  4 active torsions:
  status: ('A' for Active; 'I' for Inactive)
    1  A    between atoms: C_6  and  O_15
    2  A    between atoms: C_8  and  C_11
    3  A    between atoms: O_15  and  C_25
    4  A    between atoms: N_21  and  C_25
                            x       y       z     vdW  Elec       q    Type
                         _______ _______ _______ _____ _____    ______ ____

>  <TORSDO>
F 4

$$$$
=
 OpenBabel11052412543D

 25 28  0  0  1  0  0  0  0  0999 V2000
  190.6340  177.0530  139.8610 C   0  0  2  0  0  0  0  0  0  0  0  0
  189.6190  178.0590  139.4800 C   0  0  2  0  0  3  0  0  0  0  0  0
  190.0320  177.0520  136.8050 C   0  0  2  0  0  3  0  0  0  0  0  0
  191.0590  176.0700  138.7400 C   0  0  0  0  0  2  0  0  0  0  0  0
  188.3850  177.9330  141.3410 C   0  0  1  0  0  3  0  0  0  0  0  0
  188.8280  177.9610  137.1190 C   0  0  0  0  0  2  0  0  0  0  0  0
  190.6460  175.2300  135.4170 C   0  0  0  0  0  2  0  0  0  0  0  0
  190.5300  174.7550  136.8530 C   0  0  1  0  0  3  0  0  0  0  0  0
  187.3230  178.6070  139.0840 N   0  0  0  0  0  0  0  0  0  0  0  0
  186.1210  178.1790  138.3840 C   0  0  0  0  0  1  0  0  0  0  0  0
  189.2470  176.9790  140.5000 C   0  0  2  0  0  3  0  0  0  0  0  0
  191.7220  177.5980  140.7630 C   0  0  0  0  0  1  0  0  0  0  0  0
  189.9670  176.5720  135.3790 C   0  0  0  0  0  2  0  0  0  0  0  0
  187.0860  178.3140  140.5310 C   0  0  2  0  0  3  0  0  0  0  0  0
  190.0620  175.8670  137.6770 N   0  0  2  0  0  0  0  0  0  0  0  0
  186.4630  179.4080  141.1350 O   0  0  0  0  0  1  0  0  0  0  0  0
  188.4450  177.7960  138.5840 C   0  0  2  0  0  3  0  0  0  0  0  0
  189.5390  173.6060  136.9280 C   0  0  0  0  0  2  0  0  0  0  0  0
  188.2400  174.1050  137.0350 O   0  0  0  0  0  1  0  0  0  0  0  0
  188.1110  177.4340  142.6360 O   0  0  0  0  0  0  0  0  0  0  0  0
  189.1700  176.6060  143.0450 C   0  0  0  0  0  2  0  0  0  0  0  0
  191.1790  176.7860  144.5390 C   0  0  0  0  0  0  0  0  0  0  0  0
  191.7820  175.7090  143.9000 O   0  0  0  0  0  0  0  0  0  0  0  0
  191.7760  177.3620  145.4850 O   0  0  0  0  0  1  0  0  0  0  0  0
  189.8930  177.2440  144.1310 N   0  0  0  0  0  2  0  0  0  0  0  0
  1 11  1  0  0  0  0
  1 12  1  1  0  0  0
  2  1  1  0  0  0  0
  2 11  1  0  0  0  0
  3  6  1  0  0  0  0
  3 15  1  0  0  0  0
  4  1  1  0  0  0  0
  5 20  1  0  0  0  0
  6 17  1  0  0  0  0
  7  8  1  0  0  0  0
  8 18  1  0  0  0  0
  8 15  1  0  0  0  0
  9 14  1  0  0  0  0
 10  9  1  0  0  0  0
 11  5  1  0  0  0  0
 13  7  1  0  0  0  0
 13  3  1  0  0  0  0
 14 16  1  0  0  0  0
 14  5  1  0  0  0  0
 15  4  1  0  0  0  0
 17  9  1  0  0  0  0
 17  2  1  0  0  0  0
 18 19  1  0  0  0  0
 20 21  1  0  0  0  0
 21 25  1  0  0  0  0
 22 24  1  0  0  0  0
 23 22  2  0  0  0  0
 25 22  1  0  0  0  0
M  END
>  <MODEL>
2

>  <REMARK>
 VINA RESULT:      -6.5      1.924      2.127
  Name = 
  4 active torsions:
  status: ('A' for Active; 'I' for Inactive)
    1  A    between atoms: C_6  and  O_15
    2  A    between atoms: C_8  and  C_11
    3  A    between atoms: O_15  and  C_25
    4  A    between atoms: N_21  and  C_25
                            x       y       z     vdW  Elec       q    Type
                         _______ _______ _______ _____ _____    ______ ____

>  <TORSDO>
F 4

$$$$
=
 OpenBabel11052412543D

 25 28  0  0  1  0  0  0  0  0999 V2000
  190.6100  177.0760  140.3630 C   0  0  2  0  0  0  0  0  0  0  0  0
  189.1580  176.9090  140.5910 C   0  0  2  0  0  3  0  0  0  0  0  0
  189.9210  176.5150  143.3490 C   0  0  2  0  0  3  0  0  0  0  0  0
  191.4870  177.1410  141.6400 C   0  0  0  0  0  2  0  0  0  0  0  0
  188.4600  178.3700  139.0490 C   0  0  1  0  0  3  0  0  0  0  0  0
  188.4450  176.7520  142.9740 C   0  0  0  0  0  2  0  0  0  0  0  0
  191.4700  176.9610  145.0880 C   0  0  0  0  0  2  0  0  0  0  0  0
  191.8070  177.8150  143.8790 C   0  0  1  0  0  3  0  0  0  0  0  0
  187.0450  177.8820  141.1550 N   0  0  0  0  0  0  0  0  0  0  0  0
  186.3700  178.7370  142.1200 C   0  0  0  0  0  1  0  0  0  0  0  0
  189.6680  178.2200  139.9870 C   0  0  2  0  0  3  0  0  0  0  0  0
  191.1380  176.2750  139.1920 C   0  0  0  0  0  1  0  0  0  0  0  0
  190.0770  176.4490  144.8450 C   0  0  0  0  0  2  0  0  0  0  0  0
  187.1720  178.6890  139.9030 C   0  0  2  0  0  3  0  0  0  0  0  0
  190.7900  177.5940  142.8530 N   0  0  2  0  0  0  0  0  0  0  0  0
  186.0340  178.5140  139.1140 O   0  0  0  0  0  1  0  0  0  0  0  0
  188.3800  177.5700  141.6910 C   0  0  2  0  0  3  0  0  0  0  0  0
  191.8240  179.2790  144.2820 C   0  0  0  0  0  2  0  0  0  0  0  0
  190.6770  179.9160  143.8080 O   0  0  0  0  0  1  0  0  0  0  0  0
  188.6820  179.2980  138.0050 O   0  0  0  0  0  0  0  0  0  0  0  0
  189.0830  178.6050  136.8500 C   0  0  0  0  0  2  0  0  0  0  0  0
  187.3090  177.1940  135.7690 C   0  0  0  0  0  0  0  0  0  0  0  0
  186.9980  178.2200  134.8840 O   0  0  0  0  0  0  0  0  0  0  0  0
  186.6820  176.1060  135.7070 O   0  0  0  0  0  1  0  0  0  0  0  0
  188.3350  177.3640  136.7440 N   0  0  0  0  0  2  0  0  0  0  0  0
  1 12  1  6  0  0  0
  1  2  1  0  0  0  0
  1  4  1  0  0  0  0
  2 17  1  0  0  0  0
  3 13  1  0  0  0  0
  4 15  1  0  0  0  0
  5 14  1  0  0  0  0
  5 11  1  0  0  0  0
  6  3  1  0  0  0  0
  8 18  1  0  0  0  0
  8  7  1  0  0  0  0
  9 17  1  0  0  0  0
  9 10  1  0  0  0  0
 11  1  1  0  0  0  0
 11  2  1  0  0  0  0
 13  7  1  0  0  0  0
 14  9  1  0  0  0  0
 15  3  1  0  0  0  0
 15  8  1  0  0  0  0
 16 14  1  0  0  0  0
 17  6  1  0  0  0  0
 19 18  1  0  0  0  0
 20  5  1  0  0  0  0
 21 20  1  0  0  0  0
 22 25  1  0  0  0  0
 23 22  2  0  0  0  0
 24 22  1  0  0  0  0
 25 21  1  0  0  0  0
M  END
>  <MODEL>
3

>  <REMARK>
 VINA RESULT:      -6.1      2.742      6.776
  Name = 
  4 active torsions:
  status: ('A' for Active; 'I' for Inactive)
    1  A    between atoms: C_6  and  O_15
    2  A    between atoms: C_8  and  C_11
    3  A    between atoms: O_15  and  C_25
    4  A    between atoms: N_21  and  C_25
                            x       y       z     vdW  Elec       q    Type
                         _______ _______ _______ _____ _____    ______ ____

>  <TORSDO>
F 4

$$$$
=
 OpenBabel11052412543D

 25 28  0  0  1  0  0  0  0  0999 V2000
  188.3950  177.7090  141.1220 C   0  0  2  0  0  0  0  0  0  0  0  0
  187.3230  177.2750  142.0440 C   0  0  2  0  0  3  0  0  0  0  0  0
  189.4920  176.7890  143.8890 C   0  0  2  0  0  3  0  0  0  0  0  0
  189.8110  177.8170  141.7440 C   0  0  0  0  0  2  0  0  0  0  0  0
  185.7590  178.7160  141.3570 C   0  0  1  0  0  3  0  0  0  0  0  0
  188.0330  176.7980  144.3850 C   0  0  0  0  0  2  0  0  0  0  0  0
  191.6810  177.3500  144.6080 C   0  0  0  0  0  2  0  0  0  0  0  0
  191.2220  178.3470  143.5600 C   0  0  1  0  0  3  0  0  0  0  0  0
  185.7650  177.8170  143.7780 N   0  0  0  0  0  0  0  0  0  0  0  0
  185.6370  178.4590  145.0780 C   0  0  0  0  0  1  0  0  0  0  0  0
  187.2890  178.7000  141.4860 C   0  0  2  0  0  3  0  0  0  0  0  0
  188.2830  177.1120  139.7350 C   0  0  0  0  0  1  0  0  0  0  0  0
  190.4370  176.6260  145.0490 C   0  0  0  0  0  2  0  0  0  0  0  0
  185.1120  178.7350  142.7960 C   0  0  2  0  0  3  0  0  0  0  0  0
  189.8400  178.0400  143.1970 N   0  0  2  0  0  0  0  0  0  0  0  0
  183.7530  178.4320  142.7020 O   0  0  0  0  0  1  0  0  0  0  0  0
  187.2010  177.6970  143.4780 C   0  0  2  0  0  3  0  0  0  0  0  0
  191.3060  179.7530  144.1280 C   0  0  0  0  0  2  0  0  0  0  0  0
  192.5540  179.9540  144.7180 O   0  0  0  0  0  1  0  0  0  0  0  0
  185.2860  179.7530  140.5180 O   0  0  0  0  0  0  0  0  0  0  0  0
  184.5550  179.1910  139.4580 C   0  0  0  0  0  2  0  0  0  0  0  0
  185.2690  177.6680  137.5930 C   0  0  0  0  0  0  0  0  0  0  0  0
  184.2000  176.8150  137.8480 O   0  0  0  0  0  1  0  0  0  0  0  0
  186.0720  177.3990  136.6640 O   0  0  0  0  0  0  0  0  0  0  0  0
  185.4590  178.8440  138.3750 N   0  0  0  0  0  2  0  0  0  0  0  0
  1 12  1  6  0  0  0
  1 11  1  0  0  0  0
  1  4  1  0  0  0  0
  1  2  1  0  0  0  0
  2 17  1  0  0  0  0
  3  6  1  0  0  0  0
  3 13  1  0  0  0  0
  4 15  1  0  0  0  0
  5 11  1  0  0  0  0
  5 14  1  0  0  0  0
  7 13  1  0  0  0  0
  8 18  1  0  0  0  0
  8  7  1  0  0  0  0
  9 10  1  0  0  0  0
 11  2  1  0  0  0  0
 14  9  1  0  0  0  0
 15  8  1  0  0  0  0
 15  3  1  0  0  0  0
 16 14  1  0  0  0  0
 17  9  1  0  0  0  0
 17  6  1  0  0  0  0
 18 19  1  0  0  0  0
 20  5  1  0  0  0  0
 21 20  1  0  0  0  0
 22 23  1  0  0  0  0
 22 25  1  0  0  0  0
 24 22  2  0  0  0  0
 25 21  1  0  0  0  0
M  END
>  <MODEL>
4

>  <REMARK>
 VINA RESULT:      -6.0      3.131      6.530
  Name = 
  4 active torsions:
  status: ('A' for Active; 'I' for Inactive)
    1  A    between atoms: C_6  and  O_15
    2  A    between atoms: C_8  and  C_11
    3  A    between atoms: O_15  and  C_25
    4  A    between atoms: N_21  and  C_25
                            x       y       z     vdW  Elec       q    Type
                         _______ _______ _______ _____ _____    ______ ____

>  <TORSDO>
F 4

$$$$
=
 OpenBabel11052412543D

 25 28  0  0  1  0  0  0  0  0999 V2000
  186.9810  177.9650  143.1920 C   0  0  2  0  0  0  0  0  0  0  0  0
  186.7380  177.3980  144.5360 C   0  0  2  0  0  3  0  0  0  0  0  0
  189.5610  176.7920  144.4830 C   0  0  2  0  0  3  0  0  0  0  0  0
  188.4670  178.0560  142.7600 C   0  0  0  0  0  2  0  0  0  0  0  0
  185.1630  178.8500  145.1750 C   0  0  1  0  0  3  0  0  0  0  0  0
  188.7680  176.6970  145.8010 C   0  0  0  0  0  2  0  0  0  0  0  0
  191.7200  177.3470  143.6750 C   0  0  0  0  0  2  0  0  0  0  0  0
  190.7380  178.4350  143.2820 C   0  0  1  0  0  3  0  0  0  0  0  0
  186.6890  177.6960  146.9100 N   0  0  0  0  0  0  0  0  0  0  0  0
  187.4560  178.1890  148.0440 C   0  0  0  0  0  1  0  0  0  0  0  0
  186.4140  178.8730  144.2840 C   0  0  2  0  0  3  0  0  0  0  0  0
  185.9760  177.5180  142.1510 C   0  0  0  0  0  1  0  0  0  0  0  0
  191.0240  176.5380  144.7350 C   0  0  0  0  0  2  0  0  0  0  0  0
  185.5970  178.6910  146.6830 C   0  0  2  0  0  3  0  0  0  0  0  0
  189.4350  178.1220  143.8660 N   0  0  2  0  0  0  0  0  0  0  0  0
  184.4850  178.3530  147.4570 O   0  0  0  0  0  1  0  0  0  0  0  0
  187.5870  177.6590  145.7440 C   0  0  2  0  0  3  0  0  0  0  0  0
  191.2280  179.7740  143.8050 C   0  0  0  0  0  2  0  0  0  0  0  0
  192.4010  179.5970  144.5400 O   0  0  0  0  0  1  0  0  0  0  0  0
  184.3060  179.9540  144.9530 O   0  0  0  0  0  0  0  0  0  0  0  0
  183.4450  179.6610  143.8820 C   0  0  0  0  0  2  0  0  0  0  0  0
  181.0990  178.7870  143.6870 C   0  0  0  0  0  0  0  0  0  0  0  0
  180.8700  179.5810  142.5690 O   0  0  0  0  0  0  0  0  0  0  0  0
  180.1850  178.0380  144.1190 O   0  0  0  0  0  1  0  0  0  0  0  0
  182.3630  178.8110  144.3470 N   0  0  0  0  0  2  0  0  0  0  0  0
  1 12  1  6  0  0  0
  1 11  1  0  0  0  0
  1  2  1  0  0  0  0
  2 17  1  0  0  0  0
  3 13  1  0  0  0  0
  3  6  1  0  0  0  0
  4  1  1  0  0  0  0
  4 15  1  0  0  0  0
  5 14  1  0  0  0  0
  7 13  1  0  0  0  0
  8  7  1  0  0  0  0
  8 18  1  0  0  0  0
  8 15  1  0  0  0  0
  9 10  1  0  0  0  0
 11  2  1  0  0  0  0
 11  5  1  0  0  0  0
 14  9  1  0  0  0  0
 14 16  1  0  0  0  0
 15  3  1  0  0  0  0
 17  6  1  0  0  0  0
 17  9  1  0  0  0  0
 18 19  1  0  0  0  0
 20  5  1  0  0  0  0
 21 25  1  0  0  0  0
 21 20  1  0  0  0  0
 22 24  1  0  0  0  0
 22 25  1  0  0  0  0
 23 22  2  0  0  0  0
M  END
>  <MODEL>
5

>  <REMARK>
 VINA RESULT:      -5.9      4.369      6.669
  Name = 
  4 active torsions:
  status: ('A' for Active; 'I' for Inactive)
    1  A    between atoms: C_6  and  O_15
    2  A    between atoms: C_8  and  C_11
    3  A    between atoms: O_15  and  C_25
    4  A    between atoms: N_21  and  C_25
                            x       y       z     vdW  Elec       q    Type
                         _______ _______ _______ _____ _____    ______ ____

>  <TORSDO>
F 4

$$$$
=
 OpenBabel11052412543D

 25 28  0  0  1  0  0  0  0  0999 V2000
  190.6130  176.5750  138.4500 C   0  0  2  0  0  0  0  0  0  0  0  0
  189.9040  177.7450  139.0120 C   0  0  2  0  0  3  0  0  0  0  0  0
  188.3900  177.6540  136.5540 C   0  0  2  0  0  3  0  0  0  0  0  0
  190.0100  175.9860  137.1490 C   0  0  0  0  0  2  0  0  0  0  0  0
  189.9960  177.1280  141.1590 C   0  0  1  0  0  3  0  0  0  0  0  0
  187.9090  178.5210  137.7340 C   0  0  0  0  0  2  0  0  0  0  0  0
  187.5380  176.3500  134.7670 C   0  0  0  0  0  2  0  0  0  0  0  0
  188.1410  175.4350  135.8170 C   0  0  1  0  0  3  0  0  0  0  0  0
  188.0750  178.6180  140.2860 N   0  0  0  0  0  0  0  0  0  0  0  0
  186.6290  178.5700  140.4430 C   0  0  0  0  0  1  0  0  0  0  0  0
  189.8980  176.4290  139.7940 C   0  0  2  0  0  3  0  0  0  0  0  0
  192.1210  176.6770  138.5400 C   0  0  0  0  0  1  0  0  0  0  0  0
  187.3810  177.6870  135.4370 C   0  0  0  0  0  2  0  0  0  0  0  0
  188.6440  177.8840  141.4570 C   0  0  2  0  0  3  0  0  0  0  0  0
  188.5770  176.2490  136.9500 N   0  0  2  0  0  0  0  0  0  0  0  0
  188.8290  178.7690  142.5210 O   0  0  0  0  0  1  0  0  0  0  0  0
  188.4140  177.9140  139.0380 C   0  0  2  0  0  3  0  0  0  0  0  0
  187.0970  174.4320  136.2750 C   0  0  0  0  0  2  0  0  0  0  0  0
  186.2870  175.0030  137.2580 O   0  0  0  0  0  1  0  0  0  0  0  0
  190.3900  176.2550  142.2000 O   0  0  0  0  0  0  0  0  0  0  0  0
  191.5660  176.7460  142.7930 C   0  0  0  0  0  2  0  0  0  0  0  0
  191.1220  176.9450  145.2570 C   0  0  0  0  0  0  0  0  0  0  0  0
  190.4570  178.1500  145.0640 O   0  0  0  0  0  0  0  0  0  0  0  0
  191.2350  176.4730  146.4170 O   0  0  0  0  0  1  0  0  0  0  0  0
  191.6740  176.2360  144.1500 N   0  0  0  0  0  2  0  0  0  0  0  0
  1 12  1  1  0  0  0
  1  2  1  0  0  0  0
  1 11  1  0  0  0  0
  2 17  1  0  0  0  0
  2 11  1  0  0  0  0
  3 15  1  0  0  0  0
  3  6  1  0  0  0  0
  4  1  1  0  0  0  0
  5 14  1  0  0  0  0
  5 20  1  0  0  0  0
  6 17  1  0  0  0  0
  7 13  1  0  0  0  0
  7  8  1  0  0  0  0
  8 18  1  0  0  0  0
  8 15  1  0  0  0  0
  9 10  1  0  0  0  0
  9 14  1  0  0  0  0
 11  5  1  0  0  0  0
 13  3  1  0  0  0  0
 14 16  1  0  0  0  0
 15  4  1  0  0  0  0
 17  9  1  0  0  0  0
 18 19  1  0  0  0  0
 20 21  1  0  0  0  0
 21 25  1  0  0  0  0
 22 24  1  0  0  0  0
 23 22  2  0  0  0  0
 25 22  1  0  0  0  0
M  END
>  <MODEL>
6

>  <REMARK>
 VINA RESULT:      -5.8      2.164      2.795
  Name = 
  4 active torsions:
  status: ('A' for Active; 'I' for Inactive)
    1  A    between atoms: C_6  and  O_15
    2  A    between atoms: C_8  and  C_11
    3  A    between atoms: O_15  and  C_25
    4  A    between atoms: N_21  and  C_25
                            x       y       z     vdW  Elec       q    Type
                         _______ _______ _______ _____ _____    ______ ____

>  <TORSDO>
F 4

$$$$
=
 OpenBabel11052412543D

 25 28  0  0  1  0  0  0  0  0999 V2000
  189.6050  175.9040  135.9640 C   0  0  2  0  0  0  0  0  0  0  0  0
  189.7710  176.9530  136.9930 C   0  0  2  0  0  3  0  0  0  0  0  0
  186.9150  177.2830  136.7170 C   0  0  2  0  0  3  0  0  0  0  0  0
  188.1410  175.5480  135.6000 C   0  0  0  0  0  2  0  0  0  0  0  0
  191.4240  175.9710  138.1330 C   0  0  1  0  0  3  0  0  0  0  0  0
  187.6640  177.9270  137.9000 C   0  0  0  0  0  2  0  0  0  0  0  0
  184.8230  176.3050  136.1800 C   0  0  0  0  0  2  0  0  0  0  0  0
  185.8890  175.2250  136.2270 C   0  0  1  0  0  3  0  0  0  0  0  0
  189.7750  177.5780  139.3040 N   0  0  0  0  0  0  0  0  0  0  0  0
  189.0130  177.4940  140.5400 C   0  0  0  0  0  1  0  0  0  0  0  0
  190.2020  175.5210  137.3180 C   0  0  2  0  0  3  0  0  0  0  0  0
  190.6050  175.9990  134.8310 C   0  0  0  0  0  1  0  0  0  0  0  0
  185.4320  177.5040  136.8540 C   0  0  0  0  0  2  0  0  0  0  0  0
  190.9380  176.6550  139.4700 C   0  0  2  0  0  3  0  0  0  0  0  0
  187.1490  175.8320  136.6480 N   0  0  2  0  0  0  0  0  0  0  0  0
  192.0030  177.3410  140.0570 O   0  0  0  0  0  1  0  0  0  0  0  0
  188.9090  177.1050  138.2110 C   0  0  2  0  0  3  0  0  0  0  0  0
  185.4770  174.1510  137.2180 C   0  0  0  0  0  2  0  0  0  0  0  0
  184.1870  174.4040  137.6870 O   0  0  0  0  0  1  0  0  0  0  0  0
  192.3610  174.9320  138.3450 O   0  0  0  0  0  0  0  0  0  0  0  0
  193.5120  175.1860  137.5800 C   0  0  0  0  0  2  0  0  0  0  0  0
  195.4300  174.5030  139.0510 C   0  0  0  0  0  0  0  0  0  0  0  0
  195.1830  173.1600  138.7900 O   0  0  0  0  0  0  0  0  0  0  0  0
  196.3780  174.8270  139.8110 O   0  0  0  0  0  1  0  0  0  0  0  0
  194.6180  175.5160  138.4630 N   0  0  0  0  0  2  0  0  0  0  0  0
  1 12  1  6  0  0  0
  1  2  1  0  0  0  0
  1 11  1  0  0  0  0
  2 11  1  0  0  0  0
  2 17  1  0  0  0  0
  3 13  1  0  0  0  0
  3  6  1  0  0  0  0
  4  1  1  0  0  0  0
  4 15  1  0  0  0  0
  5 20  1  0  0  0  0
  5 14  1  0  0  0  0
  6 17  1  0  0  0  0
  7  8  1  0  0  0  0
  7 13  1  0  0  0  0
  8 15  1  0  0  0  0
  8 18  1  0  0  0  0
  9 14  1  0  0  0  0
  9 10  1  0  0  0  0
 11  5  1  0  0  0  0
 14 16  1  0  0  0  0
 15  3  1  0  0  0  0
 17  9  1  0  0  0  0
 18 19  1  0  0  0  0
 21 20  1  0  0  0  0
 21 25  1  0  0  0  0
 22 24  1  0  0  0  0
 23 22  2  0  0  0  0
 25 22  1  0  0  0  0
M  END
>  <MODEL>
7

>  <REMARK>
 VINA RESULT:      -5.5      4.008      6.516
  Name = 
  4 active torsions:
  status: ('A' for Active; 'I' for Inactive)
    1  A    between atoms: C_6  and  O_15
    2  A    between atoms: C_8  and  C_11
    3  A    between atoms: O_15  and  C_25
    4  A    between atoms: N_21  and  C_25
                            x       y       z     vdW  Elec       q    Type
                         _______ _______ _______ _____ _____    ______ ____

>  <TORSDO>
F 4

$$$$
=
 OpenBabel11052412543D

 25 28  0  0  1  0  0  0  0  0999 V2000
  183.7220  178.3790  140.1270 C   0  0  2  0  0  0  0  0  0  0  0  0
  182.5900  179.3310  140.1320 C   0  0  2  0  0  3  0  0  0  0  0  0
  182.0600  178.2810  137.4940 C   0  0  2  0  0  3  0  0  0  0  0  0
  183.7610  177.3890  138.9340 C   0  0  0  0  0  2  0  0  0  0  0  0
  182.1170  179.1970  142.3130 C   0  0  1  0  0  3  0  0  0  0  0  0
  181.0080  179.1460  138.2150 C   0  0  0  0  0  2  0  0  0  0  0  0
  182.2200  176.4550  135.9890 C   0  0  0  0  0  2  0  0  0  0  0  0
  182.6520  176.0090  137.3740 C   0  0  1  0  0  3  0  0  0  0  0  0
  180.2820  179.7720  140.5880 N   0  0  0  0  0  0  0  0  0  0  0  0
  178.9310  179.2780  140.3710 C   0  0  0  0  0  1  0  0  0  0  0  0
  182.6630  178.2600  141.2240 C   0  0  2  0  0  3  0  0  0  0  0  0
  185.0330  178.9900  140.5720 C   0  0  0  0  0  1  0  0  0  0  0  0
  181.5100  177.7660  136.1910 C   0  0  0  0  0  2  0  0  0  0  0  0
  180.5960  179.5030  142.0240 C   0  0  2  0  0  3  0  0  0  0  0  0
  182.4600  177.1200  138.3040 N   0  0  2  0  0  0  0  0  0  0  0  0
  180.1810  180.5830  142.8060 O   0  0  0  0  0  1  0  0  0  0  0  0
  181.1860  178.9980  139.7210 C   0  0  2  0  0  3  0  0  0  0  0  0
  181.8110  174.8210  137.8080 C   0  0  0  0  0  2  0  0  0  0  0  0
  180.6930  175.2640  138.5180 O   0  0  0  0  0  1  0  0  0  0  0  0
  182.3510  178.7170  143.6230 O   0  0  0  0  0  0  0  0  0  0  0  0
  183.6940  178.9480  143.9650 C   0  0  0  0  0  2  0  0  0  0  0  0
  185.0380  178.6330  146.0630 C   0  0  0  0  0  0  0  0  0  0  0  0
  186.1390  178.2160  145.3240 O   0  0  0  0  0  0  0  0  0  0  0  0
  185.1140  178.6900  147.3170 O   0  0  0  0  0  1  0  0  0  0  0  0
  183.8240  179.0000  145.4110 N   0  0  0  0  0  2  0  0  0  0  0  0
  1  2  1  0  0  0  0
  1 12  1  1  0  0  0
  1 11  1  0  0  0  0
  2 11  1  0  0  0  0
  3  6  1  0  0  0  0
  3 15  1  0  0  0  0
  4  1  1  0  0  0  0
  5 20  1  0  0  0  0
  6 17  1  0  0  0  0
  7 13  1  0  0  0  0
  7  8  1  0  0  0  0
  8 18  1  0  0  0  0
  8 15  1  0  0  0  0
  9 14  1  0  0  0  0
 10  9  1  0  0  0  0
 11  5  1  0  0  0  0
 13  3  1  0  0  0  0
 14  5  1  0  0  0  0
 14 16  1  0  0  0  0
 15  4  1  0  0  0  0
 17  2  1  0  0  0  0
 17  9  1  0  0  0  0
 18 19  1  0  0  0  0
 20 21  1  0  0  0  0
 21 25  1  0  0  0  0
 22 24  1  0  0  0  0
 23 22  2  0  0  0  0
 25 22  1  0  0  0  0
M  END
>  <MODEL>
8

>  <REMARK>
 VINA RESULT:      -5.5      5.069      6.506
  Name = 
  4 active torsions:
  status: ('A' for Active; 'I' for Inactive)
    1  A    between atoms: C_6  and  O_15
    2  A    between atoms: C_8  and  C_11
    3  A    between atoms: O_15  and  C_25
    4  A    between atoms: N_21  and  C_25
                            x       y       z     vdW  Elec       q    Type
                         _______ _______ _______ _____ _____    ______ ____

>  <TORSDO>
F 4

$$$$
=
 OpenBabel11052412543D

 25 28  0  0  1  0  0  0  0  0999 V2000
  188.0220  178.2700  138.1420 C   0  0  2  0  0  0  0  0  0  0  0  0
  188.2340  178.5970  139.5680 C   0  0  2  0  0  3  0  0  0  0  0  0
  185.3830  179.0570  139.5980 C   0  0  2  0  0  3  0  0  0  0  0  0
  186.5430  178.1830  137.6860 C   0  0  0  0  0  2  0  0  0  0  0  0
  189.8830  177.1370  139.9510 C   0  0  1  0  0  3  0  0  0  0  0  0
  186.1690  178.9530  140.9190 C   0  0  0  0  0  2  0  0  0  0  0  0
  183.2560  178.5460  138.6800 C   0  0  0  0  0  2  0  0  0  0  0  0
  184.2950  177.5990  138.1070 C   0  0  1  0  0  3  0  0  0  0  0  0
  188.2970  177.8790  141.8510 N   0  0  0  0  0  0  0  0  0  0  0  0
  187.5560  177.1500  142.8690 C   0  0  0  0  0  1  0  0  0  0  0  0
  188.6350  177.2110  139.0580 C   0  0  2  0  0  3  0  0  0  0  0  0
  189.0030  178.9490  137.2090 C   0  0  0  0  0  1  0  0  0  0  0  0
  183.9090  179.1860  139.8760 C   0  0  0  0  0  2  0  0  0  0  0  0
  189.4390  176.9980  141.4590 C   0  0  2  0  0  3  0  0  0  0  0  0
  185.5790  177.8690  138.7520 N   0  0  2  0  0  0  0  0  0  0  0  0
  190.5310  177.2480  142.2920 O   0  0  0  0  0  1  0  0  0  0  0  0
  187.3990  178.0790  140.7010 C   0  0  2  0  0  3  0  0  0  0  0  0
  183.8750  176.1650  138.3750 C   0  0  0  0  0  2  0  0  0  0  0  0
  182.6010  176.1400  138.9460 O   0  0  0  0  0  1  0  0  0  0  0  0
  190.7960  176.1370  139.5430 O   0  0  0  0  0  0  0  0  0  0  0  0
  191.2060  176.3980  138.2250 C   0  0  0  0  0  2  0  0  0  0  0  0
  193.4700  175.3790  137.8460 C   0  0  0  0  0  0  0  0  0  0  0  0
  192.8940  174.1480  137.5530 O   0  0  0  0  0  0  0  0  0  0  0  0
  194.7210  175.5050  137.8160 O   0  0  0  0  0  1  0  0  0  0  0  0
  192.6550  176.5000  138.1780 N   0  0  0  0  0  2  0  0  0  0  0  0
  1 12  1  6  0  0  0
  1 11  1  0  0  0  0
  1  2  1  0  0  0  0
  2 17  1  0  0  0  0
  3 13  1  0  0  0  0
  3  6  1  0  0  0  0
  4  1  1  0  0  0  0
  4 15  1  0  0  0  0
  5 14  1  0  0  0  0
  7 13  1  0  0  0  0
  8 18  1  0  0  0  0
  8  7  1  0  0  0  0
  8 15  1  0  0  0  0
  9 10  1  0  0  0  0
 11  2  1  0  0  0  0
 11  5  1  0  0  0  0
 14  9  1  0  0  0  0
 14 16  1  0  0  0  0
 15  3  1  0  0  0  0
 17  6  1  0  0  0  0
 17  9  1  0  0  0  0
 18 19  1  0  0  0  0
 20  5  1  0  0  0  0
 21 20  1  0  0  0  0
 22 25  1  0  0  0  0
 23 22  2  0  0  0  0
 24 22  1  0  0  0  0
 25 21  1  0  0  0  0
M  END
>  <MODEL>
9

>  <REMARK>
 VINA RESULT:      -5.5      2.842      6.281
  Name = 
  4 active torsions:
  status: ('A' for Active; 'I' for Inactive)
    1  A    between atoms: C_6  and  O_15
    2  A    between atoms: C_8  and  C_11
    3  A    between atoms: O_15  and  C_25
    4  A    between atoms: N_21  and  C_25
                            x       y       z     vdW  Elec       q    Type
                         _______ _______ _______ _____ _____    ______ ____

>  <TORSDO>
F 4

$$$$
