=
 OpenBabel11052413063D

 31 36  0  0  1  0  0  0  0  0999 V2000
  185.2660  178.7490  145.5160 C   0  0  1  0  0  3  0  0  0  0  0  0
  188.2880  177.3420  143.5410 C   0  0  1  0  0  3  0  0  0  0  0  0
  189.4040  177.2880  144.5680 C   0  0  0  0  0  0  0  0  0  0  0  0
  189.4640  177.4610  147.0370 C   0  0  0  0  0  3  0  0  0  0  0  0
  187.1220  178.2820  143.8970 C   0  0  2  0  0  3  0  0  0  0  0  0
  184.2700  178.8450  144.3640 C   0  0  0  0  0  2  0  0  0  0  0  0
  189.4060  178.2110  145.7500 C   0  0  0  0  0  2  0  0  0  0  0  0
  187.8640  177.7900  141.0660 C   0  0  2  0  0  3  0  0  0  0  0  0
  184.5870  178.2670  146.7040 N   0  0  0  0  0  1  0  0  0  0  0  0
  190.5220  175.8040  142.9600 C   0  0  0  0  0  2  0  0  0  0  0  0
  190.4970  176.6920  147.3740 C   0  0  0  0  0  3  0  0  0  0  0  0
  186.7860  178.7910  141.4620 C   0  0  0  0  0  2  0  0  0  0  0  0
  188.9170  177.6830  142.1740 C   0  0  2  0  0  3  0  0  0  0  0  0
  186.3990  177.7920  145.1540 C   0  0  0  0  0  2  0  0  0  0  0  0
  191.6560  176.4140  146.5060 C   0  0  0  0  0  3  0  0  0  0  0  0
  186.1070  178.3430  142.7450 C   0  0  2  0  0  3  0  0  0  0  0  0
  184.9760  179.3050  143.0900 C   0  0  0  0  0  2  0  0  0  0  0  0
  190.0210  176.6740  141.7940 C   0  0  0  0  0  2  0  0  0  0  0  0
  190.4810  176.5300  144.2760 C   0  0  0  0  0  0  0  0  0  0  0  0
  191.6470  176.3520  145.1690 C   0  0  0  0  0  3  0  0  0  0  0  0
  188.6210  178.3470  139.5050 S   0  0  0  0  0  0  0  0  0  0  0  0
  182.6040  177.6690  136.3830 C   0  0  0  0  0  2  0  0  0  0  0  0
  184.8690  178.0740  138.0970 C   0  0  0  0  0  0  0  0  0  0  0  0
  186.2070  176.5500  136.7790 C   0  0  0  0  0  3  0  0  0  0  0  0
  187.3280  176.9130  137.5270 C   0  0  0  0  0  3  0  0  0  0  0  0
  182.3670  178.0290  137.8430 C   0  0  0  0  0  2  0  0  0  0  0  0
  187.1940  177.8610  138.5430 C   0  0  0  0  0  0  0  0  0  0  0  0
  183.5760  178.7850  138.3880 C   0  0  0  0  0  2  0  0  0  0  0  0
  184.9690  177.1390  137.0450 C   0  0  0  0  0  0  0  0  0  0  0  0
  185.9810  178.4170  138.8020 N   0  0  0  0  0  0  0  0  0  0  0  0
  183.7610  176.6790  136.2790 C   0  0  0  0  0  2  0  0  0  0  0  0
  1  9  1  1  0  0  0
  2  5  1  0  0  0  0
  2  3  1  1  0  0  0
  3  7  1  0  0  0  0
  4 11  2  0  0  0  0
  5 14  1  1  0  0  0
  6  1  1  0  0  0  0
  7  4  1  0  0  0  0
  8 21  1  6  0  0  0
  8 12  1  0  0  0  0
  8 13  1  0  0  0  0
 10 19  1  0  0  0  0
 13 18  1  6  0  0  0
 13  2  1  0  0  0  0
 14  1  1  0  0  0  0
 15 11  1  0  0  0  0
 16 12  1  6  0  0  0
 16 17  1  0  0  0  0
 16  5  1  0  0  0  0
 17  6  1  0  0  0  0
 18 10  1  0  0  0  0
 19  3  2  0  0  0  0
 19 20  1  0  0  0  0
 20 15  2  0  0  0  0
 22 26  1  0  0  0  0
 23 28  1  0  0  0  0
 23 30  1  0  0  0  0
 24 29  1  0  0  0  0
 24 25  2  0  0  0  0
 25 27  1  0  0  0  0
 26 28  1  0  0  0  0
 27 30  2  0  0  0  0
 27 21  1  0  0  0  0
 29 23  2  0  0  0  0
 31 22  1  0  0  0  0
 31 29  1  0  0  0  0
M  END
>  <MODEL>
1

>  <REMARK>
 VINA RESULT:     -11.6      0.000      0.000
  Name = 
  2 active torsions:
  status: ('A' for Active; 'I' for Inactive)
    1  A    between atoms: C_9  and  S_23
    2  A    between atoms: C_15  and  S_23
                            x       y       z     vdW  Elec       q    Type
                         _______ _______ _______ _____ _____    ______ ____

>  <TORSDO>
F 2

$$$$
=
 OpenBabel11052413063D

 31 36  0  0  1  0  0  0  0  0999 V2000
  185.2480  178.7320  145.3480 C   0  0  1  0  0  3  0  0  0  0  0  0
  188.3230  177.3560  143.4340 C   0  0  1  0  0  3  0  0  0  0  0  0
  189.4140  177.2960  144.4870 C   0  0  0  0  0  0  0  0  0  0  0  0
  189.4120  177.4440  146.9590 C   0  0  0  0  0  3  0  0  0  0  0  0
  187.1450  178.2890  143.7710 C   0  0  2  0  0  3  0  0  0  0  0  0
  184.2800  178.8370  144.1720 C   0  0  0  0  0  2  0  0  0  0  0  0
  189.3830  178.2070  145.6790 C   0  0  0  0  0  2  0  0  0  0  0  0
  187.9590  177.8280  140.9540 C   0  0  2  0  0  3  0  0  0  0  0  0
  184.5420  178.2360  146.5140 N   0  0  0  0  0  1  0  0  0  0  0  0
  190.5770  175.8320  142.8930 C   0  0  0  0  0  2  0  0  0  0  0  0
  190.4390  176.6760  147.3140 C   0  0  0  0  0  3  0  0  0  0  0  0
  186.8670  178.8210  141.3330 C   0  0  0  0  0  2  0  0  0  0  0  0
  188.9840  177.7130  142.0870 C   0  0  2  0  0  3  0  0  0  0  0  0
  186.3930  177.7830  145.0040 C   0  0  0  0  0  2  0  0  0  0  0  0
  191.6210  176.4100  146.4710 C   0  0  0  0  0  3  0  0  0  0  0  0
  186.1590  178.3570  142.5940 C   0  0  2  0  0  3  0  0  0  0  0  0
  185.0160  179.3120  142.9210 C   0  0  0  0  0  2  0  0  0  0  0  0
  190.1020  176.7120  141.7230 C   0  0  0  0  0  2  0  0  0  0  0  0
  190.5010  176.5450  144.2150 C   0  0  0  0  0  0  0  0  0  0  0  0
  191.6450  176.3620  145.1340 C   0  0  0  0  0  3  0  0  0  0  0  0
  188.7520  178.4040  139.4180 S   0  0  0  0  0  0  0  0  0  0  0  0
  185.2850  173.7810  135.8080 C   0  0  0  0  0  2  0  0  0  0  0  0
  187.1490  175.5140  137.1350 C   0  0  0  0  0  0  0  0  0  0  0  0
  185.4990  177.2780  137.2650 C   0  0  0  0  0  3  0  0  0  0  0  0
  186.3730  178.0160  138.0630 C   0  0  0  0  0  3  0  0  0  0  0  0
  186.7720  173.6110  135.5340 C   0  0  0  0  0  2  0  0  0  0  0  0
  187.6200  177.4780  138.3880 C   0  0  0  0  0  0  0  0  0  0  0  0
  187.5780  174.1330  136.7210 C   0  0  0  0  0  2  0  0  0  0  0  0
  185.8700  176.0120  136.8070 C   0  0  0  0  0  0  0  0  0  0  0  0
  187.9760  176.2510  137.9240 N   0  0  0  0  0  0  0  0  0  0  0  0
  184.9430  175.2670  135.8870 C   0  0  0  0  0  2  0  0  0  0  0  0
  1  9  1  1  0  0  0
  2  5  1  0  0  0  0
  2  3  1  1  0  0  0
  3  7  1  0  0  0  0
  4 11  2  0  0  0  0
  5 14  1  1  0  0  0
  6  1  1  0  0  0  0
  7  4  1  0  0  0  0
  8 21  1  6  0  0  0
  8 12  1  0  0  0  0
  8 13  1  0  0  0  0
 10 19  1  0  0  0  0
 13 18  1  6  0  0  0
 13  2  1  0  0  0  0
 14  1  1  0  0  0  0
 15 11  1  0  0  0  0
 16 12  1  6  0  0  0
 16 17  1  0  0  0  0
 16  5  1  0  0  0  0
 17  6  1  0  0  0  0
 18 10  1  0  0  0  0
 19  3  2  0  0  0  0
 19 20  1  0  0  0  0
 20 15  2  0  0  0  0
 22 31  1  0  0  0  0
 23 30  1  0  0  0  0
 24 25  2  0  0  0  0
 25 27  1  0  0  0  0
 26 22  1  0  0  0  0
 26 28  1  0  0  0  0
 27 21  1  0  0  0  0
 28 23  1  0  0  0  0
 29 23  2  0  0  0  0
 29 24  1  0  0  0  0
 30 27  2  0  0  0  0
 31 29  1  0  0  0  0
M  END
>  <MODEL>
2

>  <REMARK>
 VINA RESULT:     -11.4      1.207      2.122
  Name = 
  2 active torsions:
  status: ('A' for Active; 'I' for Inactive)
    1  A    between atoms: C_9  and  S_23
    2  A    between atoms: C_15  and  S_23
                            x       y       z     vdW  Elec       q    Type
                         _______ _______ _______ _____ _____    ______ ____

>  <TORSDO>
F 2

$$$$
=
 OpenBabel11052413063D

 31 36  0  0  1  0  0  0  0  0999 V2000
  187.1830  178.2200  139.9250 C   0  0  1  0  0  3  0  0  0  0  0  0
  185.6460  178.6240  143.4580 C   0  0  1  0  0  3  0  0  0  0  0  0
  186.6310  177.9180  144.3700 C   0  0  0  0  0  0  0  0  0  0  0  0
  188.9510  177.1040  144.0750 C   0  0  0  0  0  3  0  0  0  0  0  0
  185.7370  178.2310  141.9720 C   0  0  2  0  0  3  0  0  0  0  0  0
  186.0630  178.8700  139.1170 C   0  0  0  0  0  2  0  0  0  0  0  0
  187.5060  176.8150  143.8500 C   0  0  0  0  0  2  0  0  0  0  0  0
  183.1510  179.0640  143.1650 C   0  0  2  0  0  3  0  0  0  0  0  0
  188.4680  178.6240  139.3850 N   0  0  0  0  0  1  0  0  0  0  0  0
  185.4920  179.1250  146.1820 C   0  0  0  0  0  2  0  0  0  0  0  0
  189.4780  177.2280  145.2910 C   0  0  0  0  0  3  0  0  0  0  0  0
  183.2620  178.5700  141.7280 C   0  0  0  0  0  2  0  0  0  0  0  0
  184.2300  178.4100  144.0330 C   0  0  2  0  0  3  0  0  0  0  0  0
  187.0910  178.6440  141.3880 C   0  0  0  0  0  2  0  0  0  0  0  0
  188.7080  177.1870  146.5490 C   0  0  0  0  0  3  0  0  0  0  0  0
  184.6280  178.9200  141.1630 C   0  0  2  0  0  3  0  0  0  0  0  0
  184.7030  178.4950  139.7000 C   0  0  0  0  0  2  0  0  0  0  0  0
  184.1350  178.8960  145.4950 C   0  0  0  0  0  2  0  0  0  0  0  0
  186.5510  178.1760  145.6920 C   0  0  0  0  0  0  0  0  0  0  0  0
  187.4430  177.5900  146.7160 C   0  0  0  0  0  3  0  0  0  0  0  0
  181.4860  178.6580  143.7840 S   0  0  0  0  0  0  0  0  0  0  0  0
  179.2270  180.5040  137.6280 C   0  0  0  0  0  2  0  0  0  0  0  0
  180.0230  180.1750  140.3650 C   0  0  0  0  0  0  0  0  0  0  0  0
  179.8060  177.7720  140.1960 C   0  0  0  0  0  3  0  0  0  0  0  0
  180.3680  177.6470  141.4670 C   0  0  0  0  0  3  0  0  0  0  0  0
  178.9350  181.6210  138.6190 C   0  0  0  0  0  2  0  0  0  0  0  0
  180.7550  178.7960  142.1590 C   0  0  0  0  0  0  0  0  0  0  0  0
  179.9280  181.5550  139.7770 C   0  0  0  0  0  2  0  0  0  0  0  0
  179.6440  179.0350  139.6240 C   0  0  0  0  0  0  0  0  0  0  0  0
  180.5780  180.0220  141.5980 N   0  0  0  0  0  0  0  0  0  0  0  0
  178.9680  179.1510  138.2870 C   0  0  0  0  0  2  0  0  0  0  0  0
  1  9  1  6  0  0  0
  1 14  1  0  0  0  0
  2 13  1  0  0  0  0
  2  3  1  1  0  0  0
  3 19  2  0  0  0  0
  4 11  2  0  0  0  0
  5 14  1  6  0  0  0
  5  2  1  0  0  0  0
  6 17  1  0  0  0  0
  6  1  1  0  0  0  0
  7  4  1  0  0  0  0
  7  3  1  0  0  0  0
  8 21  1  1  0  0  0
  8 13  1  0  0  0  0
 11 15  1  0  0  0  0
 12  8  1  0  0  0  0
 13 18  1  1  0  0  0
 15 20  2  0  0  0  0
 16 17  1  6  0  0  0
 16 12  1  0  0  0  0
 16  5  1  0  0  0  0
 18 10  1  0  0  0  0
 19 10  1  0  0  0  0
 19 20  1  0  0  0  0
 22 31  1  0  0  0  0
 22 26  1  0  0  0  0
 23 30  1  0  0  0  0
 24 25  2  0  0  0  0
 25 27  1  0  0  0  0
 26 28  1  0  0  0  0
 27 21  1  0  0  0  0
 28 23  1  0  0  0  0
 29 24  1  0  0  0  0
 29 23  2  0  0  0  0
 30 27  2  0  0  0  0
 31 29  1  0  0  0  0
M  END
>  <MODEL>
3

>  <REMARK>
 VINA RESULT:     -10.2      3.098      5.353
  Name = 
  2 active torsions:
  status: ('A' for Active; 'I' for Inactive)
    1  A    between atoms: C_9  and  S_23
    2  A    between atoms: C_15  and  S_23
                            x       y       z     vdW  Elec       q    Type
                         _______ _______ _______ _____ _____    ______ ____

>  <TORSDO>
F 2

$$$$
=
 OpenBabel11052413063D

 31 36  0  0  1  0  0  0  0  0999 V2000
  187.5510  178.1480  139.5520 C   0  0  1  0  0  3  0  0  0  0  0  0
  185.1810  178.6450  142.5760 C   0  0  1  0  0  3  0  0  0  0  0  0
  185.9660  178.0940  143.7520 C   0  0  0  0  0  0  0  0  0  0  0  0
  188.3410  177.4780  144.0830 C   0  0  0  0  0  3  0  0  0  0  0  0
  185.6570  178.1630  141.1940 C   0  0  2  0  0  3  0  0  0  0  0  0
  186.6160  178.6360  138.4510 C   0  0  0  0  0  2  0  0  0  0  0  0
  187.0180  177.0440  143.5500 C   0  0  0  0  0  2  0  0  0  0  0  0
  182.8050  178.8330  141.6670 C   0  0  2  0  0  3  0  0  0  0  0  0
  188.8950  178.6300  139.2960 N   0  0  0  0  0  1  0  0  0  0  0  0
  184.3380  179.3100  145.1340 C   0  0  0  0  0  2  0  0  0  0  0  0
  188.5480  177.7310  145.3730 C   0  0  0  0  0  3  0  0  0  0  0  0
  183.2960  178.2560  140.3450 C   0  0  0  0  0  2  0  0  0  0  0  0
  183.6880  178.3400  142.8190 C   0  0  2  0  0  3  0  0  0  0  0  0
  187.0780  178.6580  140.9110 C   0  0  0  0  0  2  0  0  0  0  0  0
  187.5020  177.7040  146.4130 C   0  0  0  0  0  3  0  0  0  0  0  0
  184.7290  178.6910  140.0900 C   0  0  2  0  0  3  0  0  0  0  0  0
  185.1860  178.1780  138.7280 C   0  0  0  0  0  2  0  0  0  0  0  0
  183.2070  178.9120  144.1690 C   0  0  0  0  0  2  0  0  0  0  0  0
  185.5500  178.4320  144.9900 C   0  0  0  0  0  0  0  0  0  0  0  0
  186.2090  178.0000  146.2420 C   0  0  0  0  0  3  0  0  0  0  0  0
  181.0740  178.3180  141.9110 S   0  0  0  0  0  0  0  0  0  0  0  0
  179.3060  183.1700  137.4690 C   0  0  0  0  0  2  0  0  0  0  0  0
  180.4980  181.1540  139.1260 C   0  0  0  0  0  0  0  0  0  0  0  0
  178.9310  181.6170  140.9100 C   0  0  0  0  0  3  0  0  0  0  0  0
  179.4210  180.5130  141.6070 C   0  0  0  0  0  3  0  0  0  0  0  0
  180.7810  182.8440  137.2850 C   0  0  0  0  0  2  0  0  0  0  0  0
  180.4390  179.7440  141.0390 C   0  0  0  0  0  0  0  0  0  0  0  0
  181.0550  181.4170  137.7540 C   0  0  0  0  0  2  0  0  0  0  0  0
  179.4520  181.9400  139.6550 C   0  0  0  0  0  0  0  0  0  0  0  0
  180.9480  180.0760  139.8230 N   0  0  0  0  0  0  0  0  0  0  0  0
  178.9620  183.1770  138.9560 C   0  0  0  0  0  2  0  0  0  0  0  0
  1  9  1  6  0  0  0
  1 14  1  0  0  0  0
  2 13  1  0  0  0  0
  2  3  1  1  0  0  0
  3 19  2  0  0  0  0
  4 11  2  0  0  0  0
  5 14  1  6  0  0  0
  5  2  1  0  0  0  0
  6 17  1  0  0  0  0
  6  1  1  0  0  0  0
  7  3  1  0  0  0  0
  7  4  1  0  0  0  0
  8 21  1  1  0  0  0
  8 13  1  0  0  0  0
 11 15  1  0  0  0  0
 12  8  1  0  0  0  0
 13 18  1  1  0  0  0
 16 17  1  6  0  0  0
 16 12  1  0  0  0  0
 16  5  1  0  0  0  0
 18 10  1  0  0  0  0
 19 10  1  0  0  0  0
 19 20  1  0  0  0  0
 20 15  2  0  0  0  0
 22 31  1  0  0  0  0
 23 29  2  0  0  0  0
 23 30  1  0  0  0  0
 24 25  2  0  0  0  0
 26 22  1  0  0  0  0
 26 28  1  0  0  0  0
 27 25  1  0  0  0  0
 27 21  1  0  0  0  0
 28 23  1  0  0  0  0
 29 24  1  0  0  0  0
 30 27  2  0  0  0  0
 31 29  1  0  0  0  0
M  END
>  <MODEL>
4

>  <REMARK>
 VINA RESULT:     -10.1      3.459      5.987
  Name = 
  2 active torsions:
  status: ('A' for Active; 'I' for Inactive)
    1  A    between atoms: C_9  and  S_23
    2  A    between atoms: C_15  and  S_23
                            x       y       z     vdW  Elec       q    Type
                         _______ _______ _______ _____ _____    ______ ____

>  <TORSDO>
F 2

$$$$
=
 OpenBabel11052413063D

 31 36  0  0  1  0  0  0  0  0999 V2000
  190.4320  176.6310  145.8880 C   0  0  1  0  0  3  0  0  0  0  0  0
  187.9730  177.9900  143.2190 C   0  0  1  0  0  3  0  0  0  0  0  0
  186.6380  178.0370  143.9390 C   0  0  0  0  0  0  0  0  0  0  0  0
  185.9750  177.8770  146.3190 C   0  0  0  0  0  3  0  0  0  0  0  0
  189.0250  177.0660  143.8590 C   0  0  2  0  0  3  0  0  0  0  0  0
  191.6810  176.5400  145.0160 C   0  0  0  0  0  2  0  0  0  0  0  0
  186.3550  177.1200  145.0930 C   0  0  0  0  0  2  0  0  0  0  0  0
  188.9970  177.5330  140.9280 C   0  0  2  0  0  3  0  0  0  0  0  0
  190.7920  177.1280  147.2020 N   0  0  0  0  0  1  0  0  0  0  0  0
  185.9350  179.4980  142.0940 C   0  0  0  0  0  2  0  0  0  0  0  0
  184.8830  178.6350  146.3860 C   0  0  0  0  0  3  0  0  0  0  0  0
  189.9550  176.5480  141.5850 C   0  0  0  0  0  2  0  0  0  0  0  0
  187.7030  177.6340  141.7420 C   0  0  2  0  0  3  0  0  0  0  0  0
  189.4130  177.5730  145.2500 C   0  0  0  0  0  2  0  0  0  0  0  0
  183.9700  178.8950  145.2570 C   0  0  0  0  0  3  0  0  0  0  0  0
  190.2930  177.0110  142.9910 C   0  0  2  0  0  3  0  0  0  0  0  0
  191.3140  176.0640  143.6130 C   0  0  0  0  0  2  0  0  0  0  0  0
  186.7160  178.6280  141.0930 C   0  0  0  0  0  2  0  0  0  0  0  0
  185.6580  178.7800  143.3860 C   0  0  0  0  0  0  0  0  0  0  0  0
  184.3070  178.9490  143.9630 C   0  0  0  0  0  3  0  0  0  0  0  0
  188.6530  176.9580  139.2330 S   0  0  0  0  0  0  0  0  0  0  0  0
  194.6800  174.6450  137.0580 C   0  0  0  0  0  2  0  0  0  0  0  0
  191.9970  175.1460  137.9440 C   0  0  0  0  0  0  0  0  0  0  0  0
  192.7090  177.1090  139.1650 C   0  0  0  0  0  3  0  0  0  0  0  0
  191.3730  177.4140  139.4230 C   0  0  0  0  0  3  0  0  0  0  0  0
  193.7260  173.4700  137.2180 C   0  0  0  0  0  2  0  0  0  0  0  0
  190.3720  176.5780  138.9240 C   0  0  0  0  0  0  0  0  0  0  0  0
  192.2850  173.9530  137.0750 C   0  0  0  0  0  2  0  0  0  0  0  0
  193.0350  175.9810  138.4090 C   0  0  0  0  0  0  0  0  0  0  0  0
  190.7020  175.4750  138.2010 N   0  0  0  0  0  0  0  0  0  0  0  0
  194.4830  175.6290  138.2080 C   0  0  0  0  0  2  0  0  0  0  0  0
  1  9  1  1  0  0  0
  2  5  1  0  0  0  0
  2  3  1  1  0  0  0
  3  7  1  0  0  0  0
  4 11  2  0  0  0  0
  5 14  1  1  0  0  0
  6  1  1  0  0  0  0
  7  4  1  0  0  0  0
  8 21  1  6  0  0  0
  8 12  1  0  0  0  0
  8 13  1  0  0  0  0
 10 19  1  0  0  0  0
 13 18  1  6  0  0  0
 13  2  1  0  0  0  0
 14  1  1  0  0  0  0
 15 11  1  0  0  0  0
 16 12  1  6  0  0  0
 16 17  1  0  0  0  0
 16  5  1  0  0  0  0
 17  6  1  0  0  0  0
 18 10  1  0  0  0  0
 19  3  2  0  0  0  0
 19 20  1  0  0  0  0
 20 15  2  0  0  0  0
 22 26  1  0  0  0  0
 22 31  1  0  0  0  0
 23 30  2  0  0  0  0
 23 29  1  0  0  0  0
 24 25  1  0  0  0  0
 27 21  1  0  0  0  0
 27 25  2  0  0  0  0
 28 26  1  0  0  0  0
 28 23  1  0  0  0  0
 29 24  2  0  0  0  0
 30 27  1  0  0  0  0
 31 29  1  0  0  0  0
M  END
>  <MODEL>
5

>  <REMARK>
 VINA RESULT:     -10.0      3.223      6.427
  Name = 
  2 active torsions:
  status: ('A' for Active; 'I' for Inactive)
    1  A    between atoms: C_9  and  S_23
    2  A    between atoms: C_15  and  S_23
                            x       y       z     vdW  Elec       q    Type
                         _______ _______ _______ _____ _____    ______ ____

>  <TORSDO>
F 2

$$$$
=
 OpenBabel11052413063D

 31 36  0  0  1  0  0  0  0  0999 V2000
  184.2940  178.7780  143.6580 C   0  0  1  0  0  3  0  0  0  0  0  0
  187.9110  177.4020  143.4780 C   0  0  1  0  0  3  0  0  0  0  0  0
  188.4380  177.5670  144.8910 C   0  0  0  0  0  0  0  0  0  0  0  0
  187.3620  178.0440  147.0700 C   0  0  0  0  0  3  0  0  0  0  0  0
  186.6930  178.2770  143.1310 C   0  0  2  0  0  3  0  0  0  0  0  0
  183.9310  178.6490  142.1810 C   0  0  0  0  0  2  0  0  0  0  0  0
  187.8820  178.6250  145.7990 C   0  0  0  0  0  2  0  0  0  0  0  0
  188.6530  177.5090  141.0400 C   0  0  2  0  0  3  0  0  0  0  0  0
  183.1580  178.3880  144.4720 N   0  0  0  0  0  1  0  0  0  0  0  0
  190.1950  175.9990  144.1920 C   0  0  0  0  0  2  0  0  0  0  0  0
  188.1420  177.4110  147.9430 C   0  0  0  0  0  3  0  0  0  0  0  0
  187.4930  178.4560  140.7580 C   0  0  0  0  0  2  0  0  0  0  0  0
  189.0870  177.6260  142.5040 C   0  0  2  0  0  3  0  0  0  0  0  0
  185.4860  177.8830  143.9870 C   0  0  0  0  0  2  0  0  0  0  0  0
  189.5760  177.1280  147.7380 C   0  0  0  0  0  3  0  0  0  0  0  0
  186.3140  178.1110  141.6510 C   0  0  2  0  0  3  0  0  0  0  0  0
  185.1300  179.0090  141.3070 C   0  0  0  0  0  2  0  0  0  0  0  0
  190.2640  176.6750  142.8120 C   0  0  0  0  0  2  0  0  0  0  0  0
  189.5440  176.8740  145.2280 C   0  0  0  0  0  0  0  0  0  0  0  0
  190.1780  176.9040  146.5640 C   0  0  0  0  0  3  0  0  0  0  0  0
  190.0270  177.9340  139.9210 S   0  0  0  0  0  0  0  0  0  0  0  0
  185.6510  176.1390  135.0180 C   0  0  0  0  0  2  0  0  0  0  0  0
  187.6130  176.4130  137.0940 C   0  0  0  0  0  0  0  0  0  0  0  0
  188.0150  178.7200  136.4830 C   0  0  0  0  0  3  0  0  0  0  0  0
  188.8240  178.8610  137.6110 C   0  0  0  0  0  3  0  0  0  0  0  0
  186.4320  174.9100  135.4590 C   0  0  0  0  0  2  0  0  0  0  0  0
  189.0030  177.7700  138.4650 C   0  0  0  0  0  0  0  0  0  0  0  0
  186.9160  175.0960  136.8960 C   0  0  0  0  0  2  0  0  0  0  0  0
  187.3870  177.5000  136.2220 C   0  0  0  0  0  0  0  0  0  0  0  0
  188.3980  176.5840  138.1920 N   0  0  0  0  0  0  0  0  0  0  0  0
  186.5820  177.3470  134.9620 C   0  0  0  0  0  2  0  0  0  0  0  0
  1 14  1  0  0  0  0
  1  9  1  1  0  0  0
  2  3  1  1  0  0  0
  3 19  2  0  0  0  0
  3  7  1  0  0  0  0
  4 11  2  0  0  0  0
  5  2  1  0  0  0  0
  5 14  1  1  0  0  0
  6  1  1  0  0  0  0
  7  4  1  0  0  0  0
  8 21  1  6  0  0  0
  8 13  1  0  0  0  0
 10 19  1  0  0  0  0
 12  8  1  0  0  0  0
 13 18  1  1  0  0  0
 13  2  1  0  0  0  0
 15 11  1  0  0  0  0
 16 12  1  6  0  0  0
 16  5  1  0  0  0  0
 17 16  1  0  0  0  0
 17  6  1  0  0  0  0
 18 10  1  0  0  0  0
 19 20  1  0  0  0  0
 20 15  2  0  0  0  0
 22 26  1  0  0  0  0
 23 30  1  0  0  0  0
 24 25  2  0  0  0  0
 25 27  1  0  0  0  0
 26 28  1  0  0  0  0
 27 21  1  0  0  0  0
 28 23  1  0  0  0  0
 29 24  1  0  0  0  0
 29 23  2  0  0  0  0
 30 27  2  0  0  0  0
 31 22  1  0  0  0  0
 31 29  1  0  0  0  0
M  END
>  <MODEL>
6

>  <REMARK>
 VINA RESULT:      -9.8      1.910      2.449
  Name = 
  2 active torsions:
  status: ('A' for Active; 'I' for Inactive)
    1  A    between atoms: C_9  and  S_23
    2  A    between atoms: C_15  and  S_23
                            x       y       z     vdW  Elec       q    Type
                         _______ _______ _______ _____ _____    ______ ____

>  <TORSDO>
F 2

$$$$
=
 OpenBabel11052413063D

 31 36  0  0  1  0  0  0  0  0999 V2000
  188.3410  177.9110  139.3420 C   0  0  1  0  0  3  0  0  0  0  0  0
  185.5230  178.6200  141.9030 C   0  0  1  0  0  3  0  0  0  0  0  0
  186.0920  178.1300  143.2220 C   0  0  0  0  0  0  0  0  0  0  0  0
  188.3670  177.5000  143.9710 C   0  0  0  0  0  3  0  0  0  0  0  0
  186.2060  178.0510  140.6470 C   0  0  2  0  0  3  0  0  0  0  0  0
  187.6090  178.3470  138.0760 C   0  0  0  0  0  2  0  0  0  0  0  0
  187.1380  177.0540  143.2540 C   0  0  0  0  0  2  0  0  0  0  0  0
  183.3320  178.7880  140.6080 C   0  0  2  0  0  3  0  0  0  0  0  0
  189.7200  178.3590  139.2830 N   0  0  0  0  0  1  0  0  0  0  0  0
  184.2910  179.4480  144.2470 C   0  0  0  0  0  2  0  0  0  0  0  0
  188.3670  177.8270  145.2610 C   0  0  0  0  0  3  0  0  0  0  0  0
  184.0180  178.1270  139.4190 C   0  0  0  0  0  2  0  0  0  0  0  0
  184.0030  178.3520  141.9150 C   0  0  2  0  0  3  0  0  0  0  0  0
  187.6650  178.5080  140.5730 C   0  0  0  0  0  2  0  0  0  0  0  0
  187.1650  177.8760  146.1160 C   0  0  0  0  0  3  0  0  0  0  0  0
  185.4820  178.5260  139.3780 C   0  0  2  0  0  3  0  0  0  0  0  0
  186.1430  177.9260  138.1410 C   0  0  0  0  0  2  0  0  0  0  0  0
  183.3220  179.0100  143.1340 C   0  0  0  0  0  2  0  0  0  0  0  0
  185.4890  178.5460  144.3540 C   0  0  0  0  0  0  0  0  0  0  0  0
  185.9240  178.1800  145.7190 C   0  0  0  0  0  3  0  0  0  0  0  0
  181.5720  178.3130  140.5940 S   0  0  0  0  0  0  0  0  0  0  0  0
  179.8860  181.7370  134.9510 C   0  0  0  0  0  2  0  0  0  0  0  0
  180.8800  180.0220  137.0260 C   0  0  0  0  0  0  0  0  0  0  0  0
  180.5410  181.7460  138.6880 C   0  0  0  0  0  3  0  0  0  0  0  0
  180.8580  180.8250  139.6860 C   0  0  0  0  0  3  0  0  0  0  0  0
  180.9040  180.6630  134.5940 C   0  0  0  0  0  2  0  0  0  0  0  0
  181.1730  179.5120  139.3290 C   0  0  0  0  0  0  0  0  0  0  0  0
  180.8280  179.5240  135.6080 C   0  0  0  0  0  2  0  0  0  0  0  0
  180.5310  181.3510  137.3490 C   0  0  0  0  0  0  0  0  0  0  0  0
  181.1740  179.1420  138.0210 N   0  0  0  0  0  0  0  0  0  0  0  0
  180.2600  182.3770  136.2850 C   0  0  0  0  0  2  0  0  0  0  0  0
  1  9  1  6  0  0  0
  1 14  1  0  0  0  0
  2 13  1  0  0  0  0
  2  3  1  1  0  0  0
  3  7  1  0  0  0  0
  3 19  2  0  0  0  0
  4 11  2  0  0  0  0
  5 14  1  6  0  0  0
  5  2  1  0  0  0  0
  6 17  1  0  0  0  0
  6  1  1  0  0  0  0
  7  4  1  0  0  0  0
  8 21  1  1  0  0  0
  8 13  1  0  0  0  0
 10 19  1  0  0  0  0
 11 15  1  0  0  0  0
 12  8  1  0  0  0  0
 13 18  1  1  0  0  0
 16 17  1  6  0  0  0
 16 12  1  0  0  0  0
 16  5  1  0  0  0  0
 18 10  1  0  0  0  0
 19 20  1  0  0  0  0
 20 15  2  0  0  0  0
 22 31  1  0  0  0  0
 23 29  2  0  0  0  0
 23 30  1  0  0  0  0
 24 25  2  0  0  0  0
 26 22  1  0  0  0  0
 26 28  1  0  0  0  0
 27 25  1  0  0  0  0
 27 21  1  0  0  0  0
 28 23  1  0  0  0  0
 29 24  1  0  0  0  0
 30 27  2  0  0  0  0
 31 29  1  0  0  0  0
M  END
>  <MODEL>
7

>  <REMARK>
 VINA RESULT:      -9.7      2.906      5.594
  Name = 
  2 active torsions:
  status: ('A' for Active; 'I' for Inactive)
    1  A    between atoms: C_9  and  S_23
    2  A    between atoms: C_15  and  S_23
                            x       y       z     vdW  Elec       q    Type
                         _______ _______ _______ _____ _____    ______ ____

>  <TORSDO>
F 2

$$$$
=
 OpenBabel11052413063D

 31 36  0  0  1  0  0  0  0  0999 V2000
  182.2890  179.0350  141.2710 C   0  0  1  0  0  3  0  0  0  0  0  0
  185.8960  178.0080  142.2420 C   0  0  1  0  0  3  0  0  0  0  0  0
  185.9830  178.3280  143.7230 C   0  0  0  0  0  0  0  0  0  0  0  0
  184.2980  178.8560  145.4580 C   0  0  0  0  0  3  0  0  0  0  0  0
  184.7680  178.7320  141.4850 C   0  0  2  0  0  3  0  0  0  0  0  0
  182.3740  178.7630  139.7720 C   0  0  0  0  0  2  0  0  0  0  0  0
  185.1160  179.3900  144.3320 C   0  0  0  0  0  2  0  0  0  0  0  0
  187.2950  178.0060  140.1090 C   0  0  2  0  0  3  0  0  0  0  0  0
  180.9990  178.5980  141.7710 N   0  0  0  0  0  1  0  0  0  0  0  0
  187.9750  176.8900  143.6990 C   0  0  0  0  0  2  0  0  0  0  0  0
  184.8390  178.3690  146.5720 C   0  0  0  0  0  3  0  0  0  0  0  0
  186.1990  178.8120  139.4240 C   0  0  0  0  0  2  0  0  0  0  0  0
  187.2820  178.2730  141.6180 C   0  0  2  0  0  3  0  0  0  0  0  0
  183.3980  178.2870  142.0050 C   0  0  0  0  0  2  0  0  0  0  0  0
  186.2880  178.2130  146.8030 C   0  0  0  0  0  3  0  0  0  0  0  0
  184.8410  178.4210  139.9820 C   0  0  2  0  0  3  0  0  0  0  0  0
  183.7430  179.1720  139.2360 C   0  0  0  0  0  2  0  0  0  0  0  0
  188.3870  177.4660  142.3330 C   0  0  0  0  0  2  0  0  0  0  0  0
  186.9940  177.7720  144.4210 C   0  0  0  0  0  0  0  0  0  0  0  0
  187.2150  177.9620  145.8710 C   0  0  0  0  0  3  0  0  0  0  0  0
  188.8970  178.4790  139.3810 S   0  0  0  0  0  0  0  0  0  0  0  0
  188.1140  173.0780  135.3030 C   0  0  0  0  0  2  0  0  0  0  0  0
  187.9640  175.2870  137.1290 C   0  0  0  0  0  0  0  0  0  0  0  0
  190.3270  175.1140  137.6170 C   0  0  0  0  0  3  0  0  0  0  0  0
  190.2460  176.2970  138.3520 C   0  0  0  0  0  3  0  0  0  0  0  0
  186.8030  173.3460  136.0290 C   0  0  0  0  0  2  0  0  0  0  0  0
  189.0200  176.9570  138.4520 C   0  0  0  0  0  0  0  0  0  0  0  0
  186.7230  174.8200  136.4200 C   0  0  0  0  0  2  0  0  0  0  0  0
  189.1910  174.6050  136.9830 C   0  0  0  0  0  0  0  0  0  0  0  0
  187.9170  176.4440  137.8430 N   0  0  0  0  0  0  0  0  0  0  0  0
  189.2840  173.2910  136.2600 C   0  0  0  0  0  2  0  0  0  0  0  0
  1  9  1  1  0  0  0
  1 14  1  0  0  0  0
  2  3  1  1  0  0  0
  3  7  1  0  0  0  0
  3 19  2  0  0  0  0
  4 11  2  0  0  0  0
  5 14  1  1  0  0  0
  5  2  1  0  0  0  0
  6  1  1  0  0  0  0
  7  4  1  0  0  0  0
  8 21  1  6  0  0  0
  8 13  1  0  0  0  0
 10 19  1  0  0  0  0
 11 15  1  0  0  0  0
 12 16  1  0  0  0  0
 12  8  1  0  0  0  0
 13  2  1  0  0  0  0
 13 18  1  1  0  0  0
 16 17  1  6  0  0  0
 16  5  1  0  0  0  0
 17  6  1  0  0  0  0
 18 10  1  0  0  0  0
 19 20  1  0  0  0  0
 20 15  2  0  0  0  0
 22 26  1  0  0  0  0
 22 31  1  0  0  0  0
 23 30  1  0  0  0  0
 24 25  2  0  0  0  0
 25 27  1  0  0  0  0
 26 28  1  0  0  0  0
 27 21  1  0  0  0  0
 28 23  1  0  0  0  0
 29 23  2  0  0  0  0
 29 24  1  0  0  0  0
 30 27  2  0  0  0  0
 31 29  1  0  0  0  0
M  END
>  <MODEL>
8

>  <REMARK>
 VINA RESULT:      -9.6      2.469      4.393
  Name = 
  2 active torsions:
  status: ('A' for Active; 'I' for Inactive)
    1  A    between atoms: C_9  and  S_23
    2  A    between atoms: C_15  and  S_23
                            x       y       z     vdW  Elec       q    Type
                         _______ _______ _______ _____ _____    ______ ____

>  <TORSDO>
F 2

$$$$
=
 OpenBabel11052413063D

 31 36  0  0  1  0  0  0  0  0999 V2000
  190.8510  177.1020  143.7860 C   0  0  1  0  0  3  0  0  0  0  0  0
  187.3560  178.4000  142.7300 C   0  0  1  0  0  3  0  0  0  0  0  0
  186.4900  178.1590  143.9530 C   0  0  0  0  0  0  0  0  0  0  0  0
  186.9850  177.6100  146.3160 C   0  0  0  0  0  3  0  0  0  0  0  0
  188.6520  177.5700  142.6770 C   0  0  2  0  0  3  0  0  0  0  0  0
  191.5760  177.3060  142.4590 C   0  0  0  0  0  2  0  0  0  0  0  0
  186.8290  177.0750  144.9330 C   0  0  0  0  0  2  0  0  0  0  0  0
  187.2690  178.3860  140.1810 C   0  0  2  0  0  3  0  0  0  0  0  0
  191.7250  177.4810  144.8790 N   0  0  0  0  0  1  0  0  0  0  0  0
  184.9190  179.7160  142.8840 C   0  0  0  0  0  2  0  0  0  0  0  0
  185.9860  178.1840  146.9810 C   0  0  0  0  0  3  0  0  0  0  0  0
  188.4940  177.4800  140.1730 C   0  0  0  0  0  2  0  0  0  0  0  0
  186.4780  178.1930  141.4790 C   0  0  2  0  0  3  0  0  0  0  0  0
  189.5840  177.9530  143.8290 C   0  0  0  0  0  2  0  0  0  0  0  0
  184.6450  178.4420  146.4240 C   0  0  0  0  0  3  0  0  0  0  0  0
  189.3920  177.8120  141.3520 C   0  0  2  0  0  3  0  0  0  0  0  0
  190.6540  176.9580  141.2920 C   0  0  0  0  0  2  0  0  0  0  0  0
  185.2300  179.1010  141.5080 C   0  0  0  0  0  2  0  0  0  0  0  0
  185.3110  178.8110  144.0180 C   0  0  0  0  0  0  0  0  0  0  0  0
  184.3570  178.7050  145.1440 C   0  0  0  0  0  3  0  0  0  0  0  0
  186.2440  177.9800  138.7300 S   0  0  0  0  0  0  0  0  0  0  0  0
  190.9610  174.5500  135.2090 C   0  0  0  0  0  2  0  0  0  0  0  0
  188.9740  175.6010  136.9940 C   0  0  0  0  0  0  0  0  0  0  0  0
  189.5760  177.8710  136.4140 C   0  0  0  0  0  3  0  0  0  0  0  0
  188.4850  178.3320  137.1510 C   0  0  0  0  0  3  0  0  0  0  0  0
  190.5700  173.7380  136.4360 C   0  0  0  0  0  2  0  0  0  0  0  0
  187.6530  177.4100  137.7890 C   0  0  0  0  0  0  0  0  0  0  0  0
  189.1550  174.1130  136.8710 C   0  0  0  0  0  2  0  0  0  0  0  0
  189.8230  176.5000  136.3130 C   0  0  0  0  0  0  0  0  0  0  0  0
  187.9110  176.0780  137.6960 N   0  0  0  0  0  0  0  0  0  0  0  0
  191.0460  176.0290  135.5770 C   0  0  0  0  0  2  0  0  0  0  0  0
  1 14  1  0  0  0  0
  1  9  1  1  0  0  0
  2  3  1  1  0  0  0
  3 19  2  0  0  0  0
  3  7  1  0  0  0  0
  4 11  2  0  0  0  0
  5  2  1  0  0  0  0
  5 14  1  1  0  0  0
  6  1  1  0  0  0  0
  7  4  1  0  0  0  0
  8 21  1  6  0  0  0
  8 13  1  0  0  0  0
 10 19  1  0  0  0  0
 12  8  1  0  0  0  0
 13 18  1  1  0  0  0
 13  2  1  0  0  0  0
 15 11  1  0  0  0  0
 16 12  1  6  0  0  0
 16  5  1  0  0  0  0
 17 16  1  0  0  0  0
 17  6  1  0  0  0  0
 18 10  1  0  0  0  0
 19 20  1  0  0  0  0
 20 15  2  0  0  0  0
 22 31  1  0  0  0  0
 22 26  1  0  0  0  0
 23 30  1  0  0  0  0
 24 25  2  0  0  0  0
 25 27  1  0  0  0  0
 26 28  1  0  0  0  0
 27 21  1  0  0  0  0
 28 23  1  0  0  0  0
 29 24  1  0  0  0  0
 29 23  2  0  0  0  0
 30 27  2  0  0  0  0
 31 29  1  0  0  0  0
M  END
>  <MODEL>
9

>  <REMARK>
 VINA RESULT:      -9.5      2.674      5.288
  Name = 
  2 active torsions:
  status: ('A' for Active; 'I' for Inactive)
    1  A    between atoms: C_9  and  S_23
    2  A    between atoms: C_15  and  S_23
                            x       y       z     vdW  Elec       q    Type
                         _______ _______ _______ _____ _____    ______ ____

>  <TORSDO>
F 2

$$$$
