=
 OpenBabel11052412413D

 25 28  0  0  1  0  0  0  0  0999 V2000
  187.1980  177.8460  143.5810 C   0  0  0  0  0  0  0  0  0  0  0  0
  188.0340  177.5050  142.3700 C   0  0  2  0  0  3  0  0  0  0  0  0
  189.1600  177.3980  145.1480 C   0  0  0  0  0  2  0  0  0  0  0  0
  185.8510  178.2220  143.4260 C   0  0  0  0  0  0  0  0  0  0  0  0
  183.6780  178.9160  144.2130 C   0  0  0  0  0  2  0  0  0  0  0  0
  190.0320  177.3840  143.8940 C   0  0  0  0  0  2  0  0  0  0  0  0
  185.6360  178.6230  145.7970 C   0  0  0  0  0  3  0  0  0  0  0  0
  185.0890  178.5870  144.5160 C   0  0  0  0  0  0  0  0  0  0  0  0
  183.3950  178.3400  142.8270 C   0  0  0  0  0  2  0  0  0  0  0  0
  187.7650  177.8820  144.8800 C   0  0  0  0  0  0  0  0  0  0  0  0
  186.9760  178.2630  145.9760 C   0  0  0  0  0  3  0  0  0  0  0  0
  184.9600  178.2420  141.8820 S   0  0  0  0  0  0  0  0  0  0  0  0
  189.3010  176.7220  142.7260 C   0  0  1  0  0  3  0  0  0  0  0  0
  188.9830  175.3960  143.0320 O   0  0  0  0  0  0  0  0  0  0  0  0
  190.1370  174.7630  143.0080 O   0  0  0  0  0  1  0  0  0  0  0  0
  188.3940  178.7260  141.6630 N   0  0  0  0  0  2  0  0  0  0  0  0
  189.3400  178.2320  139.5180 C   0  0  2  0  0  3  0  0  0  0  0  0
  188.4540  177.2060  139.8990 O   0  0  0  0  0  0  0  0  0  0  0  0
  188.0880  178.5140  140.2600 C   0  0  1  0  0  3  0  0  0  0  0  0
  189.9290  176.2080  137.4560 C   0  0  0  0  0  1  0  0  0  0  0  0
  189.1700  178.5270  138.0570 C   0  0  0  0  0  0  0  0  0  0  0  0
  189.4200  177.5200  137.0620 N   0  0  0  0  0  0  0  0  0  0  0  0
  188.8360  179.6920  137.7050 O   0  0  0  0  0  0  0  0  0  0  0  0
  188.1400  177.3490  135.0110 C   0  0  0  0  0  2  0  0  0  0  0  0
  189.1860  177.8250  135.6790 C   0  0  0  0  0  3  0  0  0  0  0  0
  1 10  1  0  0  0  0
  2 16  1  1  0  0  0
  2 13  1  0  0  0  0
  2  1  1  0  0  0  0
  4  1  2  0  0  0  0
  4  8  1  0  0  0  0
  5  8  1  0  0  0  0
  6  3  1  0  0  0  0
  7 11  1  0  0  0  0
  8  7  2  0  0  0  0
  9  5  1  0  0  0  0
 10  3  1  0  0  0  0
 10 11  2  0  0  0  0
 12  9  1  0  0  0  0
 12  4  1  0  0  0  0
 13 14  1  1  0  0  0
 13  6  1  0  0  0  0
 15 14  1  0  0  0  0
 17 21  1  6  0  0  0
 17 18  1  0  0  0  0
 17 19  1  0  0  0  0
 18 19  1  0  0  0  0
 19 16  1  1  0  0  0
 22 20  1  0  0  0  0
 22 21  1  0  0  0  0
 23 21  2  0  0  0  0
 24 25  2  0  0  0  0
 25 22  1  0  0  0  0
M  END
>  <MODEL>
1

>  <REMARK>
 VINA RESULT:      -7.8      0.000      0.000
  Name = 
  5 active torsions:
  status: ('A' for Active; 'I' for Inactive)
    1  A    between atoms: C_3  and  N_16
    2  A    between atoms: C_6  and  C_15
    3  A    between atoms: C_7  and  N_21
    4  A    between atoms: O_13  and  C_24
    5  A    between atoms: N_16  and  C_23
                            x       y       z     vdW  Elec       q    Type
                         _______ _______ _______ _____ _____    ______ ____

>  <TORSDO>
F 5

$$$$
=
 OpenBabel11052412413D

 25 28  0  0  1  0  0  0  0  0999 V2000
  187.8200  177.9370  146.0680 C   0  0  0  0  0  0  0  0  0  0  0  0
  189.2160  177.4600  145.7400 C   0  0  2  0  0  3  0  0  0  0  0  0
  188.4120  178.1910  148.5360 C   0  0  0  0  0  2  0  0  0  0  0  0
  186.8540  178.0440  145.0520 C   0  0  0  0  0  0  0  0  0  0  0  0
  184.6630  178.5460  144.1720 C   0  0  0  0  0  2  0  0  0  0  0  0
  189.8680  178.0220  148.1040 C   0  0  0  0  0  2  0  0  0  0  0  0
  185.2440  178.9520  146.6060 C   0  0  0  0  0  3  0  0  0  0  0  0
  185.5910  178.5270  145.3240 C   0  0  0  0  0  0  0  0  0  0  0  0
  185.2740  177.6230  143.1200 C   0  0  0  0  0  2  0  0  0  0  0  0
  187.4780  178.3680  147.3740 C   0  0  0  0  0  0  0  0  0  0  0  0
  186.1910  178.8630  147.6320 C   0  0  0  0  0  3  0  0  0  0  0  0
  187.0890  177.5570  143.3530 S   0  0  0  0  0  0  0  0  0  0  0  0
  189.9900  176.9970  146.9780 C   0  0  1  0  0  3  0  0  0  0  0  0
  189.5290  175.7460  147.3990 O   0  0  0  0  0  0  0  0  0  0  0  0
  190.6180  175.0860  147.7330 O   0  0  0  0  0  1  0  0  0  0  0  0
  189.9520  178.5220  145.0700 N   0  0  0  0  0  2  0  0  0  0  0  0
  190.7010  178.5290  142.7940 C   0  0  2  0  0  3  0  0  0  0  0  0
  191.7740  178.8370  143.6520 O   0  0  0  0  0  0  0  0  0  0  0  0
  190.8500  177.8880  144.1220 C   0  0  1  0  0  3  0  0  0  0  0  0
  189.0100  177.8980  140.4620 C   0  0  0  0  0  1  0  0  0  0  0  0
  191.1750  177.6120  141.7060 C   0  0  0  0  0  0  0  0  0  0  0  0
  190.3590  177.3440  140.5520 N   0  0  0  0  0  0  0  0  0  0  0  0
  192.2950  177.0440  141.8310 O   0  0  0  0  0  0  0  0  0  0  0  0
  190.9570  176.9180  138.2420 C   0  0  0  0  0  2  0  0  0  0  0  0
  190.8750  176.5090  139.5040 C   0  0  0  0  0  3  0  0  0  0  0  0
  1 10  1  0  0  0  0
  2 16  1  1  0  0  0
  2  1  1  0  0  0  0
  2 13  1  0  0  0  0
  4  8  1  0  0  0  0
  4  1  2  0  0  0  0
  5  8  1  0  0  0  0
  6  3  1  0  0  0  0
  7 11  1  0  0  0  0
  8  7  2  0  0  0  0
  9 12  1  0  0  0  0
  9  5  1  0  0  0  0
 10 11  2  0  0  0  0
 10  3  1  0  0  0  0
 12  4  1  0  0  0  0
 13 14  1  1  0  0  0
 13  6  1  0  0  0  0
 14 15  1  0  0  0  0
 17 21  1  6  0  0  0
 17 18  1  0  0  0  0
 17 19  1  0  0  0  0
 18 19  1  0  0  0  0
 19 16  1  1  0  0  0
 20 22  1  0  0  0  0
 21 23  2  0  0  0  0
 22 21  1  0  0  0  0
 24 25  2  0  0  0  0
 25 22  1  0  0  0  0
M  END
>  <MODEL>
2

>  <REMARK>
 VINA RESULT:      -7.5      2.599      3.657
  Name = 
  5 active torsions:
  status: ('A' for Active; 'I' for Inactive)
    1  A    between atoms: C_3  and  N_16
    2  A    between atoms: C_6  and  C_15
    3  A    between atoms: C_7  and  N_21
    4  A    between atoms: O_13  and  C_24
    5  A    between atoms: N_16  and  C_23
                            x       y       z     vdW  Elec       q    Type
                         _______ _______ _______ _____ _____    ______ ____

>  <TORSDO>
F 5

$$$$
=
 OpenBabel11052412413D

 25 28  0  0  1  0  0  0  0  0999 V2000
  189.1470  177.1240  144.8300 C   0  0  0  0  0  0  0  0  0  0  0  0
  189.0870  176.8410  143.3470 C   0  0  2  0  0  3  0  0  0  0  0  0
  191.6180  176.4990  144.9200 C   0  0  0  0  0  2  0  0  0  0  0  0
  187.9950  177.5550  145.5130 C   0  0  0  0  0  0  0  0  0  0  0  0
  186.7530  178.2660  147.4550 C   0  0  0  0  0  2  0  0  0  0  0  0
  191.5850  176.5430  143.3930 C   0  0  0  0  0  2  0  0  0  0  0  0
  189.2410  177.7950  147.5670 C   0  0  0  0  0  3  0  0  0  0  0  0
  188.0450  177.8680  146.8550 C   0  0  0  0  0  0  0  0  0  0  0  0
  185.6710  177.8000  146.4830 C   0  0  0  0  0  2  0  0  0  0  0  0
  190.3690  177.0480  145.5440 C   0  0  0  0  0  0  0  0  0  0  0  0
  190.4020  177.3770  146.9080 C   0  0  0  0  0  3  0  0  0  0  0  0
  186.3720  177.7150  144.7940 S   0  0  0  0  0  0  0  0  0  0  0  0
  190.2640  175.9910  142.8580 C   0  0  1  0  0  3  0  0  0  0  0  0
  190.0950  174.6590  143.2440 O   0  0  0  0  0  0  0  0  0  0  0  0
  191.3170  174.2150  143.4520 O   0  0  0  0  0  1  0  0  0  0  0  0
  189.0480  178.0950  142.6090 N   0  0  0  0  0  2  0  0  0  0  0  0
  187.4830  179.0280  141.0530 C   0  0  2  0  0  3  0  0  0  0  0  0
  188.7110  178.7810  140.4090 O   0  0  0  0  0  0  0  0  0  0  0  0
  188.3160  177.8460  141.3810 C   0  0  1  0  0  3  0  0  0  0  0  0
  184.6950  178.9460  142.0090 C   0  0  0  0  0  1  0  0  0  0  0  0
  186.3530  178.6460  140.1440 C   0  0  0  0  0  0  0  0  0  0  0  0
  184.9920  178.6490  140.6100 N   0  0  0  0  0  0  0  0  0  0  0  0
  186.6140  178.2820  138.9640 O   0  0  0  0  0  0  0  0  0  0  0  0
  183.0200  177.4050  139.9460 C   0  0  0  0  0  2  0  0  0  0  0  0
  183.9340  178.3360  139.6910 C   0  0  0  0  0  3  0  0  0  0  0  0
  1  4  2  0  0  0  0
  1 10  1  0  0  0  0
  2 16  1  6  0  0  0
  2  1  1  0  0  0  0
  3 10  1  0  0  0  0
  4  8  1  0  0  0  0
  6  3  1  0  0  0  0
  8  5  1  0  0  0  0
  8  7  2  0  0  0  0
  9  5  1  0  0  0  0
 10 11  2  0  0  0  0
 11  7  1  0  0  0  0
 12  4  1  0  0  0  0
 12  9  1  0  0  0  0
 13 14  1  1  0  0  0
 13  2  1  0  0  0  0
 13  6  1  0  0  0  0
 14 15  1  0  0  0  0
 17 21  1  6  0  0  0
 17 19  1  0  0  0  0
 18 17  1  0  0  0  0
 18 19  1  0  0  0  0
 19 16  1  1  0  0  0
 21 22  1  0  0  0  0
 22 20  1  0  0  0  0
 23 21  2  0  0  0  0
 25 24  2  0  0  0  0
 25 22  1  0  0  0  0
M  END
>  <MODEL>
3

>  <REMARK>
 VINA RESULT:      -7.1      2.710      3.759
  Name = 
  5 active torsions:
  status: ('A' for Active; 'I' for Inactive)
    1  A    between atoms: C_3  and  N_16
    2  A    between atoms: C_6  and  C_15
    3  A    between atoms: C_7  and  N_21
    4  A    between atoms: O_13  and  C_24
    5  A    between atoms: N_16  and  C_23
                            x       y       z     vdW  Elec       q    Type
                         _______ _______ _______ _____ _____    ______ ____

>  <TORSDO>
F 5

$$$$
=
 OpenBabel11052412413D

 25 28  0  0  1  0  0  0  0  0999 V2000
  181.1770  179.1710  141.3560 C   0  0  0  0  0  0  0  0  0  0  0  0
  181.4980  178.7440  142.7700 C   0  0  2  0  0  3  0  0  0  0  0  0
  179.1000  180.4300  142.1340 C   0  0  0  0  0  2  0  0  0  0  0  0
  182.0090  178.7740  140.2940 C   0  0  0  0  0  0  0  0  0  0  0  0
  182.6890  178.6710  137.9810 C   0  0  0  0  0  2  0  0  0  0  0  0
  179.6400  180.2500  143.5510 C   0  0  0  0  0  2  0  0  0  0  0  0
  180.6980  180.0550  138.7220 C   0  0  0  0  0  3  0  0  0  0  0  0
  181.7610  179.1980  139.0050 C   0  0  0  0  0  0  0  0  0  0  0  0
  183.3920  177.4750  138.6200 C   0  0  0  0  0  2  0  0  0  0  0  0
  180.0960  180.0430  141.0790 C   0  0  0  0  0  0  0  0  0  0  0  0
  179.8620  180.4700  139.7630 C   0  0  0  0  0  3  0  0  0  0  0  0
  183.4140  177.6860  140.4380 S   0  0  0  0  0  0  0  0  0  0  0  0
  180.3010  178.8830  143.7160 C   0  0  1  0  0  3  0  0  0  0  0  0
  179.3780  177.8590  143.4860 O   0  0  0  0  0  0  0  0  0  0  0  0
  179.7290  176.9010  144.3180 O   0  0  0  0  0  1  0  0  0  0  0  0
  182.6170  179.5250  143.2770 N   0  0  0  0  0  2  0  0  0  0  0  0
  184.6460  179.3400  144.5360 C   0  0  2  0  0  3  0  0  0  0  0  0
  183.5370  179.2330  145.3970 O   0  0  0  0  0  0  0  0  0  0  0  0
  183.4010  178.6480  144.1260 C   0  0  1  0  0  3  0  0  0  0  0  0
  186.5510  178.2200  142.5840 C   0  0  0  0  0  1  0  0  0  0  0  0
  185.6950  178.3480  144.9440 C   0  0  0  0  0  0  0  0  0  0  0  0
  186.6460  177.8390  143.9920 N   0  0  0  0  0  0  0  0  0  0  0  0
  185.7130  177.9320  146.1350 O   0  0  0  0  0  0  0  0  0  0  0  0
  188.8810  177.3570  144.7960 C   0  0  0  0  0  2  0  0  0  0  0  0
  187.6720  176.9390  144.4350 C   0  0  0  0  0  3  0  0  0  0  0  0
  1  2  1  0  0  0  0
  2 16  1  1  0  0  0
  2 13  1  0  0  0  0
  3  6  1  0  0  0  0
  4 12  1  0  0  0  0
  4  1  2  0  0  0  0
  5  9  1  0  0  0  0
  5  8  1  0  0  0  0
  6 13  1  0  0  0  0
  7  8  2  0  0  0  0
  7 11  1  0  0  0  0
  8  4  1  0  0  0  0
  9 12  1  0  0  0  0
 10  1  1  0  0  0  0
 10  3  1  0  0  0  0
 11 10  2  0  0  0  0
 13 14  1  6  0  0  0
 14 15  1  0  0  0  0
 17 21  1  1  0  0  0
 17 18  1  0  0  0  0
 19 16  1  6  0  0  0
 19 17  1  0  0  0  0
 19 18  1  0  0  0  0
 20 22  1  0  0  0  0
 21 23  2  0  0  0  0
 22 25  1  0  0  0  0
 22 21  1  0  0  0  0
 25 24  2  0  0  0  0
M  END
>  <MODEL>
4

>  <REMARK>
 VINA RESULT:      -6.9      4.560      7.997
  Name = 
  5 active torsions:
  status: ('A' for Active; 'I' for Inactive)
    1  A    between atoms: C_3  and  N_16
    2  A    between atoms: C_6  and  C_15
    3  A    between atoms: C_7  and  N_21
    4  A    between atoms: O_13  and  C_24
    5  A    between atoms: N_16  and  C_23
                            x       y       z     vdW  Elec       q    Type
                         _______ _______ _______ _____ _____    ______ ____

>  <TORSDO>
F 5

$$$$
=
 OpenBabel11052412413D

 25 28  0  0  1  0  0  0  0  0999 V2000
  186.4580  178.1750  144.0790 C   0  0  0  0  0  0  0  0  0  0  0  0
  185.1770  178.9370  144.3310 C   0  0  2  0  0  3  0  0  0  0  0  0
  186.6190  177.4990  146.5330 C   0  0  0  0  0  2  0  0  0  0  0  0
  187.0100  178.1300  142.7860 C   0  0  0  0  0  0  0  0  0  0  0  0
  188.6430  177.4720  141.1370 C   0  0  0  0  0  2  0  0  0  0  0  0
  185.1800  177.9970  146.6640 C   0  0  0  0  0  2  0  0  0  0  0  0
  188.7690  176.6550  143.5340 C   0  0  0  0  0  3  0  0  0  0  0  0
  188.1490  177.3960  142.5290 C   0  0  0  0  0  0  0  0  0  0  0  0
  187.9650  178.6880  140.5100 C   0  0  0  0  0  2  0  0  0  0  0  0
  187.0800  177.4230  145.1070 C   0  0  0  0  0  0  0  0  0  0  0  0
  188.2340  176.6770  144.8250 C   0  0  0  0  0  3  0  0  0  0  0  0
  186.3770  179.0030  141.3660 S   0  0  0  0  0  0  0  0  0  0  0  0
  184.9530  179.2460  145.8140 C   0  0  1  0  0  3  0  0  0  0  0  0
  185.7950  180.2820  146.2270 O   0  0  0  0  0  0  0  0  0  0  0  0
  185.8940  180.1310  147.5310 O   0  0  0  0  0  1  0  0  0  0  0  0
  184.0470  178.1820  143.8100 N   0  0  0  0  0  2  0  0  0  0  0  0
  181.8200  178.4240  142.9600 C   0  0  2  0  0  3  0  0  0  0  0  0
  181.8570  178.7910  144.3180 O   0  0  0  0  0  0  0  0  0  0  0  0
  182.9820  179.1330  143.5480 C   0  0  1  0  0  3  0  0  0  0  0  0
  181.7050  178.4110  140.0140 C   0  0  0  0  0  1  0  0  0  0  0  0
  180.9430  179.3780  142.2050 C   0  0  0  0  0  0  0  0  0  0  0  0
  180.8630  179.3360  140.7690 N   0  0  0  0  0  0  0  0  0  0  0  0
  180.2970  180.2520  142.8460 O   0  0  0  0  0  0  0  0  0  0  0  0
  180.3930  181.2530  139.3630 C   0  0  0  0  0  2  0  0  0  0  0  0
  179.9650  180.2260  140.0890 C   0  0  0  0  0  3  0  0  0  0  0  0
  1  2  1  0  0  0  0
  1 10  1  0  0  0  0
  2 16  1  1  0  0  0
  2 13  1  0  0  0  0
  3  6  1  0  0  0  0
  4  1  2  0  0  0  0
  5  8  1  0  0  0  0
  7 11  1  0  0  0  0
  8  4  1  0  0  0  0
  8  7  2  0  0  0  0
  9  5  1  0  0  0  0
  9 12  1  0  0  0  0
 10  3  1  0  0  0  0
 11 10  2  0  0  0  0
 12  4  1  0  0  0  0
 13 14  1  1  0  0  0
 13  6  1  0  0  0  0
 14 15  1  0  0  0  0
 17 21  1  6  0  0  0
 17 19  1  0  0  0  0
 17 18  1  0  0  0  0
 19 16  1  1  0  0  0
 19 18  1  0  0  0  0
 20 22  1  0  0  0  0
 21 23  2  0  0  0  0
 22 21  1  0  0  0  0
 24 25  2  0  0  0  0
 25 22  1  0  0  0  0
M  END
>  <MODEL>
5

>  <REMARK>
 VINA RESULT:      -6.7      4.198      6.518
  Name = 
  5 active torsions:
  status: ('A' for Active; 'I' for Inactive)
    1  A    between atoms: C_3  and  N_16
    2  A    between atoms: C_6  and  C_15
    3  A    between atoms: C_7  and  N_21
    4  A    between atoms: O_13  and  C_24
    5  A    between atoms: N_16  and  C_23
                            x       y       z     vdW  Elec       q    Type
                         _______ _______ _______ _____ _____    ______ ____

>  <TORSDO>
F 5

$$$$
=
 OpenBabel11052412413D

 25 28  0  0  1  0  0  0  0  0999 V2000
  186.7880  177.7390  137.8840 C   0  0  0  0  0  0  0  0  0  0  0  0
  188.1070  178.0440  138.5560 C   0  0  2  0  0  3  0  0  0  0  0  0
  187.9720  176.6890  135.8840 C   0  0  0  0  0  2  0  0  0  0  0  0
  185.5790  178.0960  138.5080 C   0  0  0  0  0  0  0  0  0  0  0  0
  183.1770  178.2510  138.6750 C   0  0  0  0  0  2  0  0  0  0  0  0
  189.2380  176.7230  136.7380 C   0  0  0  0  0  2  0  0  0  0  0  0
  184.3020  177.0690  136.7340 C   0  0  0  0  0  3  0  0  0  0  0  0
  184.3660  177.7780  137.9330 C   0  0  0  0  0  0  0  0  0  0  0  0
  183.6780  179.3190  139.6450 C   0  0  0  0  0  2  0  0  0  0  0  0
  186.7340  177.0160  136.6660 C   0  0  0  0  0  0  0  0  0  0  0  0
  185.4910  176.6960  136.1000 C   0  0  0  0  0  3  0  0  0  0  0  0
  185.4390  179.0030  140.0360 S   0  0  0  0  0  0  0  0  0  0  0  0
  189.2920  177.9920  137.5870 C   0  0  1  0  0  3  0  0  0  0  0  0
  189.3040  179.1280  136.7730 O   0  0  0  0  0  0  0  0  0  0  0  0
  189.0550  180.1280  137.5930 O   0  0  0  0  0  1  0  0  0  0  0  0
  188.3270  177.1100  139.6510 N   0  0  0  0  0  2  0  0  0  0  0  0
  189.7100  176.8320  141.5870 C   0  0  2  0  0  3  0  0  0  0  0  0
  190.4430  177.4570  140.5610 O   0  0  0  0  0  0  0  0  0  0  0  0
  189.0880  177.8140  140.6670 C   0  0  1  0  0  3  0  0  0  0  0  0
  187.8320  176.7480  143.8590 C   0  0  0  0  0  1  0  0  0  0  0  0
  190.0400  177.4720  142.9030 C   0  0  0  0  0  0  0  0  0  0  0  0
  189.1350  177.3900  144.0170 N   0  0  0  0  0  0  0  0  0  0  0  0
  191.1160  178.1230  143.0120 O   0  0  0  0  0  0  0  0  0  0  0  0
  189.0590  177.5040  146.4370 C   0  0  0  0  0  2  0  0  0  0  0  0
  189.5160  177.9640  145.2770 C   0  0  0  0  0  3  0  0  0  0  0  0
  1  4  1  0  0  0  0
  1  2  1  0  0  0  0
  2 16  1  1  0  0  0
  3 10  1  0  0  0  0
  3  6  1  0  0  0  0
  4 12  1  0  0  0  0
  5  9  1  0  0  0  0
  6 13  1  0  0  0  0
  7  8  1  0  0  0  0
  8  4  2  0  0  0  0
  8  5  1  0  0  0  0
  9 12  1  0  0  0  0
 10  1  2  0  0  0  0
 11 10  1  0  0  0  0
 11  7  2  0  0  0  0
 13 14  1  6  0  0  0
 13  2  1  0  0  0  0
 14 15  1  0  0  0  0
 17 21  1  1  0  0  0
 18 19  1  0  0  0  0
 18 17  1  0  0  0  0
 19 16  1  6  0  0  0
 19 17  1  0  0  0  0
 20 22  1  0  0  0  0
 21 23  2  0  0  0  0
 21 22  1  0  0  0  0
 22 25  1  0  0  0  0
 25 24  2  0  0  0  0
M  END
>  <MODEL>
6

>  <REMARK>
 VINA RESULT:      -6.7      2.406      6.632
  Name = 
  5 active torsions:
  status: ('A' for Active; 'I' for Inactive)
    1  A    between atoms: C_3  and  N_16
    2  A    between atoms: C_6  and  C_15
    3  A    between atoms: C_7  and  N_21
    4  A    between atoms: O_13  and  C_24
    5  A    between atoms: N_16  and  C_23
                            x       y       z     vdW  Elec       q    Type
                         _______ _______ _______ _____ _____    ______ ____

>  <TORSDO>
F 5

$$$$
=
 OpenBabel11052412413D

 25 28  0  0  1  0  0  0  0  0999 V2000
  189.1960  177.7140  140.9870 C   0  0  0  0  0  0  0  0  0  0  0  0
  189.8940  177.5470  139.6570 C   0  0  2  0  0  3  0  0  0  0  0  0
  186.9370  178.0130  139.8400 C   0  0  0  0  0  2  0  0  0  0  0  0
  189.9330  177.6580  142.1830 C   0  0  0  0  0  0  0  0  0  0  0  0
  190.2050  177.7260  144.5800 C   0  0  0  0  0  2  0  0  0  0  0  0
  187.6270  177.5200  138.5690 C   0  0  0  0  0  2  0  0  0  0  0  0
  187.9180  177.8840  143.4950 C   0  0  0  0  0  3  0  0  0  0  0  0
  189.3040  177.7570  143.4070 C   0  0  0  0  0  0  0  0  0  0  0  0
  191.6060  178.0160  144.0480 C   0  0  0  0  0  2  0  0  0  0  0  0
  187.7860  177.8410  141.0660 C   0  0  0  0  0  0  0  0  0  0  0  0
  187.1630  177.9330  142.3190 C   0  0  0  0  0  3  0  0  0  0  0  0
  191.7050  177.5030  142.2930 S   0  0  0  0  0  0  0  0  0  0  0  0
  189.0560  178.0520  138.4800 C   0  0  1  0  0  3  0  0  0  0  0  0
  189.0600  179.4490  138.4450 O   0  0  0  0  0  0  0  0  0  0  0  0
  188.6820  179.7530  137.2210 O   0  0  0  0  0  1  0  0  0  0  0  0
  190.2320  176.1450  139.4540 N   0  0  0  0  0  2  0  0  0  0  0  0
  191.4990  174.8170  137.9140 C   0  0  2  0  0  3  0  0  0  0  0  0
  190.1320  174.7630  137.5820 O   0  0  0  0  0  0  0  0  0  0  0  0
  190.6100  175.9940  138.0600 C   0  0  1  0  0  3  0  0  0  0  0  0
  194.4460  174.8780  137.9960 C   0  0  0  0  0  1  0  0  0  0  0  0
  192.3170  174.9230  136.6610 C   0  0  0  0  0  0  0  0  0  0  0  0
  193.7550  174.9100  136.7100 N   0  0  0  0  0  0  0  0  0  0  0  0
  191.7250  175.0610  135.5550 O   0  0  0  0  0  0  0  0  0  0  0  0
  195.5990  175.6850  135.3410 C   0  0  0  0  0  2  0  0  0  0  0  0
  194.5000  174.9510  135.4830 C   0  0  0  0  0  3  0  0  0  0  0  0
  1 10  2  0  0  0  0
  1  4  1  0  0  0  0
  2 16  1  6  0  0  0
  2  1  1  0  0  0  0
  3 10  1  0  0  0  0
  4 12  1  0  0  0  0
  4  8  2  0  0  0  0
  6  3  1  0  0  0  0
  8  7  1  0  0  0  0
  8  5  1  0  0  0  0
  9  5  1  0  0  0  0
 10 11  1  0  0  0  0
 11  7  2  0  0  0  0
 12  9  1  0  0  0  0
 13 14  1  1  0  0  0
 13  6  1  0  0  0  0
 13  2  1  0  0  0  0
 15 14  1  0  0  0  0
 17 21  1  6  0  0  0
 17 19  1  0  0  0  0
 18 17  1  0  0  0  0
 18 19  1  0  0  0  0
 19 16  1  1  0  0  0
 21 22  1  0  0  0  0
 22 20  1  0  0  0  0
 23 21  2  0  0  0  0
 24 25  2  0  0  0  0
 25 22  1  0  0  0  0
M  END
>  <MODEL>
7

>  <REMARK>
 VINA RESULT:      -6.6      3.139      5.336
  Name = 
  5 active torsions:
  status: ('A' for Active; 'I' for Inactive)
    1  A    between atoms: C_3  and  N_16
    2  A    between atoms: C_6  and  C_15
    3  A    between atoms: C_7  and  N_21
    4  A    between atoms: O_13  and  C_24
    5  A    between atoms: N_16  and  C_23
                            x       y       z     vdW  Elec       q    Type
                         _______ _______ _______ _____ _____    ______ ____

>  <TORSDO>
F 5

$$$$
=
 OpenBabel11052412413D

 25 28  0  0  1  0  0  0  0  0999 V2000
  190.4500  176.3550  137.1040 C   0  0  0  0  0  0  0  0  0  0  0  0
  191.3530  176.6310  138.2840 C   0  0  2  0  0  3  0  0  0  0  0  0
  191.9800  174.4870  136.2820 C   0  0  0  0  0  2  0  0  0  0  0  0
  189.2810  177.1150  136.9180 C   0  0  0  0  0  0  0  0  0  0  0  0
  187.2520  177.7460  135.7740 C   0  0  0  0  0  2  0  0  0  0  0  0
  192.6690  174.5860  137.6410 C   0  0  0  0  0  2  0  0  0  0  0  0
  188.6630  175.7880  134.9980 C   0  0  0  0  0  3  0  0  0  0  0  0
  188.4190  176.8420  135.8770 C   0  0  0  0  0  0  0  0  0  0  0  0
  187.5900  178.9740  136.6170 C   0  0  0  0  0  2  0  0  0  0  0  0
  190.7060  175.2800  136.2180 C   0  0  0  0  0  0  0  0  0  0  0  0
  189.8140  175.0120  135.1680 C   0  0  0  0  0  3  0  0  0  0  0  0
  188.7840  178.5020  137.9220 S   0  0  0  0  0  0  0  0  0  0  0  0
  192.7550  176.0380  138.1080 C   0  0  1  0  0  3  0  0  0  0  0  0
  193.4960  176.8030  137.2040 O   0  0  0  0  0  0  0  0  0  0  0  0
  194.6390  176.1620  137.0850 O   0  0  0  0  0  1  0  0  0  0  0  0
  190.7470  176.1070  139.4990 N   0  0  0  0  0  2  0  0  0  0  0  0
  191.1970  176.6640  141.7860 C   0  0  2  0  0  3  0  0  0  0  0  0
  192.0520  177.3930  140.9380 O   0  0  0  0  0  0  0  0  0  0  0  0
  190.7430  177.1830  140.4740 C   0  0  1  0  0  3  0  0  0  0  0  0
  188.6730  176.1250  143.2120 C   0  0  0  0  0  1  0  0  0  0  0  0
  190.7200  177.5480  142.9000 C   0  0  0  0  0  0  0  0  0  0  0  0
  189.5090  177.2530  143.6160 N   0  0  0  0  0  0  0  0  0  0  0  0
  191.3810  178.5860  143.1810 O   0  0  0  0  0  0  0  0  0  0  0  0
  188.6770  177.5950  145.8670 C   0  0  0  0  0  2  0  0  0  0  0  0
  189.1200  178.0900  144.7160 C   0  0  0  0  0  3  0  0  0  0  0  0
  1  2  1  0  0  0  0
  2 16  1  1  0  0  0
  3  6  1  0  0  0  0
  4  1  1  0  0  0  0
  4 12  1  0  0  0  0
  5  8  1  0  0  0  0
  5  9  1  0  0  0  0
  6 13  1  0  0  0  0
  7 11  2  0  0  0  0
  7  8  1  0  0  0  0
  8  4  2  0  0  0  0
  9 12  1  0  0  0  0
 10  3  1  0  0  0  0
 10  1  2  0  0  0  0
 11 10  1  0  0  0  0
 13 14  1  6  0  0  0
 13  2  1  0  0  0  0
 15 14  1  0  0  0  0
 17 21  1  1  0  0  0
 18 17  1  0  0  0  0
 19 16  1  6  0  0  0
 19 18  1  0  0  0  0
 19 17  1  0  0  0  0
 20 22  1  0  0  0  0
 21 23  2  0  0  0  0
 21 22  1  0  0  0  0
 22 25  1  0  0  0  0
 25 24  2  0  0  0  0
M  END
>  <MODEL>
8

>  <REMARK>
 VINA RESULT:      -6.6      3.192      7.613
  Name = 
  5 active torsions:
  status: ('A' for Active; 'I' for Inactive)
    1  A    between atoms: C_3  and  N_16
    2  A    between atoms: C_6  and  C_15
    3  A    between atoms: C_7  and  N_21
    4  A    between atoms: O_13  and  C_24
    5  A    between atoms: N_16  and  C_23
                            x       y       z     vdW  Elec       q    Type
                         _______ _______ _______ _____ _____    ______ ____

>  <TORSDO>
F 5

$$$$
=
 OpenBabel11052412413D

 25 28  0  0  1  0  0  0  0  0999 V2000
  182.2740  178.8080  142.2760 C   0  0  0  0  0  0  0  0  0  0  0  0
  181.2170  178.8350  141.1960 C   0  0  2  0  0  3  0  0  0  0  0  0
  180.5140  179.0700  144.1030 C   0  0  0  0  0  2  0  0  0  0  0  0
  183.6310  178.6750  141.9300 C   0  0  0  0  0  0  0  0  0  0  0  0
  185.9920  178.5030  142.4000 C   0  0  0  0  0  2  0  0  0  0  0  0
  179.4830  178.7670  143.0180 C   0  0  0  0  0  2  0  0  0  0  0  0
  184.2710  178.6170  144.2580 C   0  0  0  0  0  3  0  0  0  0  0  0
  184.6040  178.5970  142.9050 C   0  0  0  0  0  0  0  0  0  0  0  0
  185.9440  178.9460  140.9390 C   0  0  0  0  0  2  0  0  0  0  0  0
  181.9240  178.8270  143.6490 C   0  0  0  0  0  0  0  0  0  0  0  0
  182.9270  178.7390  144.6260 C   0  0  0  0  0  3  0  0  0  0  0  0
  184.2700  178.6330  140.2670 S   0  0  0  0  0  0  0  0  0  0  0  0
  179.8830  179.4040  141.6880 C   0  0  1  0  0  3  0  0  0  0  0  0
  179.9650  180.7940  141.8130 O   0  0  0  0  0  0  0  0  0  0  0  0
  179.9480  181.2410  140.5750 O   0  0  0  0  0  1  0  0  0  0  0  0
  181.0140  177.4910  140.6750 N   0  0  0  0  0  2  0  0  0  0  0  0
  180.8490  176.2780  138.6150 C   0  0  2  0  0  3  0  0  0  0  0  0
  179.6180  176.8960  138.9080 O   0  0  0  0  0  0  0  0  0  0  0  0
  180.7750  177.6160  139.2490 C   0  0  1  0  0  3  0  0  0  0  0  0
  183.5740  175.9370  137.5440 C   0  0  0  0  0  1  0  0  0  0  0  0
  181.1360  176.4010  137.1480 C   0  0  0  0  0  0  0  0  0  0  0  0
  182.4620  176.1920  136.6310 N   0  0  0  0  0  0  0  0  0  0  0  0
  180.2010  176.7290  136.3680 O   0  0  0  0  0  0  0  0  0  0  0  0
  183.3060  177.2800  134.6360 C   0  0  0  0  0  2  0  0  0  0  0  0
  182.6830  176.2580  135.2140 C   0  0  0  0  0  3  0  0  0  0  0  0
  1 10  1  0  0  0  0
  2 16  1  1  0  0  0
  2 13  1  0  0  0  0
  2  1  1  0  0  0  0
  4  1  2  0  0  0  0
  4  8  1  0  0  0  0
  5  8  1  0  0  0  0
  6  3  1  0  0  0  0
  7 11  1  0  0  0  0
  8  7  2  0  0  0  0
  9  5  1  0  0  0  0
 10  3  1  0  0  0  0
 10 11  2  0  0  0  0
 12  9  1  0  0  0  0
 12  4  1  0  0  0  0
 13 14  1  1  0  0  0
 13  6  1  0  0  0  0
 15 14  1  0  0  0  0
 17 21  1  6  0  0  0
 17 18  1  0  0  0  0
 17 19  1  0  0  0  0
 18 19  1  0  0  0  0
 19 16  1  1  0  0  0
 22 21  1  0  0  0  0
 22 20  1  0  0  0  0
 23 21  2  0  0  0  0
 24 25  2  0  0  0  0
 25 22  1  0  0  0  0
M  END
>  <MODEL>
9

>  <REMARK>
 VINA RESULT:      -6.4      5.426      7.222
  Name = 
  5 active torsions:
  status: ('A' for Active; 'I' for Inactive)
    1  A    between atoms: C_3  and  N_16
    2  A    between atoms: C_6  and  C_15
    3  A    between atoms: C_7  and  N_21
    4  A    between atoms: O_13  and  C_24
    5  A    between atoms: N_16  and  C_23
                            x       y       z     vdW  Elec       q    Type
                         _______ _______ _______ _____ _____    ______ ____

>  <TORSDO>
F 5

$$$$
