=
 OpenBabel11052412513D

 25 27  0  0  1  0  0  0  0  0999 V2000
  186.1160  177.7880  145.0290 C   0  0  0  0  0  0  0  0  0  0  0  0
  187.5350  177.4180  144.8660 C   0  0  0  0  0  0  0  0  0  0  0  0
  186.5010  178.6150  147.2960 C   0  0  0  0  0  2  0  0  0  0  0  0
  185.3060  178.3480  144.1360 C   0  0  0  0  0  0  0  0  0  0  0  0
  187.8000  177.7980  147.3720 C   0  0  0  0  0  2  0  0  0  0  0  0
  184.1880  178.9030  144.8850 C   0  0  0  0  0  0  0  0  0  0  0  0
  189.7330  177.1200  145.8730 C   0  0  0  0  0  0  0  0  0  0  0  0
  190.6560  177.1250  147.0460 C   0  0  0  0  0  1  0  0  0  0  0  0
  188.0660  177.0620  143.6210 C   0  0  0  0  0  3  0  0  0  0  0  0
  185.5080  177.9020  146.3870 C   0  0  1  0  0  3  0  0  0  0  0  0
  184.3130  178.7040  146.1560 N   0  0  0  0  0  0  0  0  0  0  0  0
  190.2470  176.7650  144.6220 C   0  0  0  0  0  3  0  0  0  0  0  0
  189.4190  176.7420  143.4970 C   0  0  0  0  0  0  0  0  0  0  0  0
  188.3720  177.4590  146.0060 C   0  0  0  0  0  0  0  0  0  0  0  0
  181.8890  178.8670  144.0000 C   0  0  0  0  0  1  0  0  0  0  0  0
  183.0940  179.7350  144.3060 C   0  0  0  0  0  2  0  0  0  0  0  0
  184.5840  177.9800  141.8010 C   0  0  0  0  0  1  0  0  0  0  0  0
  185.6140  178.6360  142.7010 C   0  0  0  0  0  2  0  0  0  0  0  0
  189.9730  176.3470  142.1740 C   0  0  0  0  0  2  0  0  0  0  0  0
  190.0910  177.5640  141.2720 C   0  0  0  0  0  2  0  0  0  0  0  0
  189.5860  177.2430  139.8760 C   0  0  2  0  0  3  0  0  0  0  0  0
  190.7140  177.0790  138.9770 N   0  0  0  0  0  1  0  0  0  0  0  0
  188.6940  178.3300  139.3680 C   0  0  0  0  0  0  0  0  0  0  0  0
  187.5580  178.4960  139.8820 O   0  0  0  0  0  1  0  0  0  0  0  0
  189.1140  179.1610  138.3370 O   0  0  0  0  0  0  0  0  0  0  0  0
  1 10  1  0  0  0  0
  2  1  1  0  0  0  0
  2 14  1  0  0  0  0
  3  5  1  0  0  0  0
  4  6  1  0  0  0  0
  4  1  2  0  0  0  0
  6 11  2  0  0  0  0
  7 14  2  0  0  0  0
  7  8  1  0  0  0  0
  9  2  2  0  0  0  0
 10  3  1  1  0  0  0
 11 10  1  0  0  0  0
 12  7  1  0  0  0  0
 13  9  1  0  0  0  0
 13 12  2  0  0  0  0
 14  5  1  0  0  0  0
 15 16  1  0  0  0  0
 16  6  1  0  0  0  0
 17 18  1  0  0  0  0
 18  4  1  0  0  0  0
 19 13  1  0  0  0  0
 20 19  1  0  0  0  0
 21 22  1  6  0  0  0
 21 20  1  0  0  0  0
 23 21  1  0  0  0  0
 23 24  1  0  0  0  0
 25 23  2  0  0  0  0
M  END
>  <MODEL>
1

>  <REMARK>
 VINA RESULT:      -9.4      0.000      0.000
  Name = 
  6 active torsions:
  status: ('A' for Active; 'I' for Inactive)
    1  A    between atoms: C_2  and  CA_21
    2  A    between atoms: C_5  and  C_22
    3  A    between atoms: C_6  and  C_15
    4  A    between atoms: C_6  and  C_23
    5  A    between atoms: C_10  and  C_11
    6  A    between atoms: C_15  and  CA_21
                            x       y       z     vdW  Elec       q    Type
                         _______ _______ _______ _____ _____    ______ ____

>  <TORSDO>
F 6

$$$$
=
 OpenBabel11052412513D

 25 27  0  0  1  0  0  0  0  0999 V2000
  189.2470  177.6640  145.8110 C   0  0  0  0  0  0  0  0  0  0  0  0
  188.0160  177.9220  145.0390 C   0  0  0  0  0  0  0  0  0  0  0  0
  187.9900  177.3860  147.8870 C   0  0  0  0  0  2  0  0  0  0  0  0
  190.3050  176.9420  145.4530 C   0  0  0  0  0  0  0  0  0  0  0  0
  186.8030  178.1400  147.2690 C   0  0  0  0  0  2  0  0  0  0  0  0
  191.0250  176.6310  146.6790 C   0  0  0  0  0  0  0  0  0  0  0  0
  185.6200  178.3570  145.0340 C   0  0  0  0  0  0  0  0  0  0  0  0
  184.3230  178.5910  145.7330 C   0  0  0  0  0  1  0  0  0  0  0  0
  188.0160  177.9470  143.6390 C   0  0  0  0  0  3  0  0  0  0  0  0
  189.2890  177.9040  147.2830 C   0  0  1  0  0  3  0  0  0  0  0  0
  190.4390  177.1230  147.7210 N   0  0  0  0  0  0  0  0  0  0  0  0
  185.6370  178.3790  143.6360 C   0  0  0  0  0  3  0  0  0  0  0  0
  186.8300  178.1690  142.9390 C   0  0  0  0  0  0  0  0  0  0  0  0
  186.8090  178.1190  145.7500 C   0  0  0  0  0  0  0  0  0  0  0  0
  192.7330  175.7110  148.1980 C   0  0  0  0  0  1  0  0  0  0  0  0
  192.2130  175.7340  146.7750 C   0  0  0  0  0  2  0  0  0  0  0  0
  191.6190  177.0700  143.3630 C   0  0  0  0  0  1  0  0  0  0  0  0
  190.5480  176.3070  144.1210 C   0  0  0  0  0  2  0  0  0  0  0  0
  186.8390  178.2120  141.4520 C   0  0  0  0  0  2  0  0  0  0  0  0
  188.2310  178.5580  140.9480 C   0  0  0  0  0  2  0  0  0  0  0  0
  188.6800  177.5560  139.8970 C   0  0  2  0  0  3  0  0  0  0  0  0
  190.0860  177.2490  140.0890 N   0  0  0  0  0  1  0  0  0  0  0  0
  188.4690  178.0970  138.5200 C   0  0  0  0  0  0  0  0  0  0  0  0
  187.8400  177.4150  137.6710 O   0  0  0  0  0  0  0  0  0  0  0  0
  188.9580  179.3510  138.1740 O   0  0  0  0  0  1  0  0  0  0  0  0
  1 10  1  0  0  0  0
  2 14  1  0  0  0  0
  2  1  1  0  0  0  0
  4  1  2  0  0  0  0
  4  6  1  0  0  0  0
  5  3  1  0  0  0  0
  6 16  1  0  0  0  0
  6 11  2  0  0  0  0
  7  8  1  0  0  0  0
  7 14  2  0  0  0  0
  9  2  2  0  0  0  0
 10 11  1  0  0  0  0
 10  3  1  1  0  0  0
 12  7  1  0  0  0  0
 13 12  2  0  0  0  0
 13  9  1  0  0  0  0
 14  5  1  0  0  0  0
 16 15  1  0  0  0  0
 17 18  1  0  0  0  0
 18  4  1  0  0  0  0
 19 13  1  0  0  0  0
 20 19  1  0  0  0  0
 21 22  1  1  0  0  0
 21 20  1  0  0  0  0
 23 21  1  0  0  0  0
 24 23  2  0  0  0  0
 25 23  1  0  0  0  0
M  END
>  <MODEL>
2

>  <REMARK>
 VINA RESULT:      -9.4      1.889      4.985
  Name = 
  6 active torsions:
  status: ('A' for Active; 'I' for Inactive)
    1  A    between atoms: C_2  and  CA_21
    2  A    between atoms: C_5  and  C_22
    3  A    between atoms: C_6  and  C_15
    4  A    between atoms: C_6  and  C_23
    5  A    between atoms: C_10  and  C_11
    6  A    between atoms: C_15  and  CA_21
                            x       y       z     vdW  Elec       q    Type
                         _______ _______ _______ _____ _____    ______ ____

>  <TORSDO>
F 6

$$$$
=
 OpenBabel11052412513D

 25 27  0  0  1  0  0  0  0  0999 V2000
  189.2280  177.6700  145.6890 C   0  0  0  0  0  0  0  0  0  0  0  0
  188.0130  177.9340  144.8930 C   0  0  0  0  0  0  0  0  0  0  0  0
  187.9250  177.3350  147.7280 C   0  0  0  0  0  2  0  0  0  0  0  0
  190.3010  176.9660  145.3400 C   0  0  0  0  0  0  0  0  0  0  0  0
  186.7460  178.0910  147.0980 C   0  0  0  0  0  2  0  0  0  0  0  0
  190.9950  176.6350  146.5760 C   0  0  0  0  0  0  0  0  0  0  0  0
  185.6130  178.3460  144.8410 C   0  0  0  0  0  0  0  0  0  0  0  0
  184.2980  178.5530  145.5140 C   0  0  0  0  0  1  0  0  0  0  0  0
  188.0450  177.9890  143.4950 C   0  0  0  0  0  3  0  0  0  0  0  0
  189.2330  177.8780  147.1670 C   0  0  1  0  0  3  0  0  0  0  0  0
  190.3800  177.0980  147.6140 N   0  0  0  0  0  0  0  0  0  0  0  0
  185.6630  178.4000  143.4450 C   0  0  0  0  0  3  0  0  0  0  0  0
  186.8740  178.2160  142.7720 C   0  0  0  0  0  0  0  0  0  0  0  0
  186.7870  178.1030  145.5800 C   0  0  0  0  0  0  0  0  0  0  0  0
  192.6790  175.7010  148.1140 C   0  0  0  0  0  1  0  0  0  0  0  0
  192.1890  175.7470  146.6800 C   0  0  0  0  0  2  0  0  0  0  0  0
  191.6500  177.1610  143.2790 C   0  0  0  0  0  1  0  0  0  0  0  0
  190.5810  176.3620  144.0010 C   0  0  0  0  0  2  0  0  0  0  0  0
  186.9180  178.2920  141.2870 C   0  0  0  0  0  2  0  0  0  0  0  0
  188.3500  178.1480  140.7980 C   0  0  0  0  0  2  0  0  0  0  0  0
  188.4020  178.2000  139.2810 C   0  0  2  0  0  3  0  0  0  0  0  0
  187.0730  178.4610  138.7590 N   0  0  0  0  0  1  0  0  0  0  0  0
  188.9170  176.9150  138.7200 C   0  0  0  0  0  0  0  0  0  0  0  0
  188.2040  176.2510  137.9230 O   0  0  0  0  0  0  0  0  0  0  0  0
  190.1800  176.4500  139.0680 O   0  0  0  0  0  1  0  0  0  0  0  0
  1 10  1  0  0  0  0
  2 14  1  0  0  0  0
  2  1  1  0  0  0  0
  4  1  2  0  0  0  0
  4  6  1  0  0  0  0
  5  3  1  0  0  0  0
  6 16  1  0  0  0  0
  6 11  2  0  0  0  0
  7  8  1  0  0  0  0
  7 14  2  0  0  0  0
  9  2  2  0  0  0  0
 10 11  1  0  0  0  0
 10  3  1  1  0  0  0
 12  7  1  0  0  0  0
 13 12  2  0  0  0  0
 13  9  1  0  0  0  0
 14  5  1  0  0  0  0
 16 15  1  0  0  0  0
 17 18  1  0  0  0  0
 18  4  1  0  0  0  0
 19 13  1  0  0  0  0
 20 19  1  0  0  0  0
 21 22  1  6  0  0  0
 21 20  1  0  0  0  0
 23 25  1  0  0  0  0
 23 21  1  0  0  0  0
 24 23  2  0  0  0  0
M  END
>  <MODEL>
3

>  <REMARK>
 VINA RESULT:      -9.3      2.114      5.080
  Name = 
  6 active torsions:
  status: ('A' for Active; 'I' for Inactive)
    1  A    between atoms: C_2  and  CA_21
    2  A    between atoms: C_5  and  C_22
    3  A    between atoms: C_6  and  C_15
    4  A    between atoms: C_6  and  C_23
    5  A    between atoms: C_10  and  C_11
    6  A    between atoms: C_15  and  CA_21
                            x       y       z     vdW  Elec       q    Type
                         _______ _______ _______ _____ _____    ______ ____

>  <TORSDO>
F 6

$$$$
=
 OpenBabel11052412513D

 25 27  0  0  1  0  0  0  0  0999 V2000
  189.2130  177.6790  145.9010 C   0  0  0  0  0  0  0  0  0  0  0  0
  187.9340  177.9340  145.2100 C   0  0  0  0  0  0  0  0  0  0  0  0
  188.0940  177.4050  148.0560 C   0  0  0  0  0  2  0  0  0  0  0  0
  190.2460  176.9580  145.4770 C   0  0  0  0  0  0  0  0  0  0  0  0
  186.8680  178.1550  147.5140 C   0  0  0  0  0  2  0  0  0  0  0  0
  191.0450  176.6520  146.6550 C   0  0  0  0  0  0  0  0  0  0  0  0
  185.5410  178.3640  145.3600 C   0  0  0  0  0  0  0  0  0  0  0  0
  184.2920  178.5980  146.1420 C   0  0  0  0  0  1  0  0  0  0  0  0
  187.8420  177.9540  143.8140 C   0  0  0  0  0  3  0  0  0  0  0  0
  189.3500  177.9240  147.3670 C   0  0  1  0  0  3  0  0  0  0  0  0
  190.5270  177.1450  147.7310 N   0  0  0  0  0  0  0  0  0  0  0  0
  185.4680  178.3830  143.9640 C   0  0  0  0  0  3  0  0  0  0  0  0
  186.6120  178.1720  143.1920 C   0  0  0  0  0  0  0  0  0  0  0  0
  186.7750  178.1300  145.9980 C   0  0  0  0  0  0  0  0  0  0  0  0
  192.8060  175.6800  148.0780 C   0  0  0  0  0  1  0  0  0  0  0  0
  192.2380  175.7570  146.6750 C   0  0  0  0  0  2  0  0  0  0  0  0
  191.4190  177.0830  143.3050 C   0  0  0  0  0  1  0  0  0  0  0  0
  190.4030  176.3190  144.1340 C   0  0  0  0  0  2  0  0  0  0  0  0
  186.5250  178.2120  141.7070 C   0  0  0  0  0  2  0  0  0  0  0  0
  185.4970  179.2420  141.2710 C   0  0  0  0  0  2  0  0  0  0  0  0
  184.7330  178.7490  140.0530 C   0  0  2  0  0  3  0  0  0  0  0  0
  184.4820  179.8610  139.1550 N   0  0  0  0  0  1  0  0  0  0  0  0
  183.4350  178.1260  140.4540 C   0  0  0  0  0  0  0  0  0  0  0  0
  182.6630  178.7410  141.2350 O   0  0  0  0  0  1  0  0  0  0  0  0
  183.0730  176.8770  139.9670 O   0  0  0  0  0  0  0  0  0  0  0  0
  1 10  1  0  0  0  0
  2  1  1  0  0  0  0
  2 14  1  0  0  0  0
  4  1  2  0  0  0  0
  4  6  1  0  0  0  0
  5  3  1  0  0  0  0
  6 16  1  0  0  0  0
  6 11  2  0  0  0  0
  7 14  2  0  0  0  0
  7  8  1  0  0  0  0
  9  2  2  0  0  0  0
 10 11  1  0  0  0  0
 10  3  1  1  0  0  0
 12  7  1  0  0  0  0
 13  9  1  0  0  0  0
 13 12  2  0  0  0  0
 14  5  1  0  0  0  0
 16 15  1  0  0  0  0
 17 18  1  0  0  0  0
 18  4  1  0  0  0  0
 19 13  1  0  0  0  0
 20 19  1  0  0  0  0
 21 22  1  6  0  0  0
 21 23  1  0  0  0  0
 21 20  1  0  0  0  0
 23 24  1  0  0  0  0
 25 23  2  0  0  0  0
M  END
>  <MODEL>
4

>  <REMARK>
 VINA RESULT:      -9.1      2.979      5.671
  Name = 
  6 active torsions:
  status: ('A' for Active; 'I' for Inactive)
    1  A    between atoms: C_2  and  CA_21
    2  A    between atoms: C_5  and  C_22
    3  A    between atoms: C_6  and  C_15
    4  A    between atoms: C_6  and  C_23
    5  A    between atoms: C_10  and  C_11
    6  A    between atoms: C_15  and  CA_21
                            x       y       z     vdW  Elec       q    Type
                         _______ _______ _______ _____ _____    ______ ____

>  <TORSDO>
F 6

$$$$
=
 OpenBabel11052412513D

 25 27  0  0  1  0  0  0  0  0999 V2000
  186.3340  178.5590  145.0670 C   0  0  0  0  0  0  0  0  0  0  0  0
  185.7530  178.5790  143.7100 C   0  0  0  0  0  0  0  0  0  0  0  0
  184.1300  178.3520  146.1010 C   0  0  0  0  0  2  0  0  0  0  0  0
  187.4360  177.9410  145.4800 C   0  0  0  0  0  0  0  0  0  0  0  0
  183.4780  178.8810  144.8160 C   0  0  0  0  0  2  0  0  0  0  0  0
  187.3410  177.8550  146.9300 C   0  0  0  0  0  0  0  0  0  0  0  0
  183.7710  178.7080  142.3010 C   0  0  0  0  0  0  0  0  0  0  0  0
  182.2990  178.8530  142.1100 C   0  0  0  0  0  1  0  0  0  0  0  0
  186.5490  178.4520  142.5660 C   0  0  0  0  0  3  0  0  0  0  0  0
  185.5190  178.9600  146.2510 C   0  0  1  0  0  3  0  0  0  0  0  0
  186.2460  178.3790  147.3730 N   0  0  0  0  0  0  0  0  0  0  0  0
  184.5810  178.5830  141.1680 C   0  0  0  0  0  3  0  0  0  0  0  0
  185.9650  178.4490  141.2980 C   0  0  0  0  0  0  0  0  0  0  0  0
  184.3490  178.6980  143.5850 C   0  0  0  0  0  0  0  0  0  0  0  0
  189.2310  178.1130  148.4890 C   0  0  0  0  0  1  0  0  0  0  0  0
  188.2990  177.1280  147.8120 C   0  0  0  0  0  2  0  0  0  0  0  0
  189.6940  178.0130  144.4750 C   0  0  0  0  0  1  0  0  0  0  0  0
  188.4210  177.2010  144.6310 C   0  0  0  0  0  2  0  0  0  0  0  0
  186.8190  178.3340  140.0850 C   0  0  0  0  0  2  0  0  0  0  0  0
  188.2880  178.3660  140.4750 C   0  0  0  0  0  2  0  0  0  0  0  0
  189.1490  177.8160  139.3490 C   0  0  2  0  0  3  0  0  0  0  0  0
  188.3200  177.0570  138.4310 N   0  0  0  0  0  1  0  0  0  0  0  0
  190.2340  176.9410  139.8860 C   0  0  0  0  0  0  0  0  0  0  0  0
  190.7500  177.2010  141.0040 O   0  0  0  0  0  1  0  0  0  0  0  0
  190.6730  175.8390  139.1630 O   0  0  0  0  0  0  0  0  0  0  0  0
  1  4  2  0  0  0  0
  1 10  1  0  0  0  0
  2  1  1  0  0  0  0
  4  6  1  0  0  0  0
  5  3  1  0  0  0  0
  6 11  2  0  0  0  0
  6 16  1  0  0  0  0
  7 14  2  0  0  0  0
  8  7  1  0  0  0  0
  9  2  2  0  0  0  0
 10  3  1  6  0  0  0
 10 11  1  0  0  0  0
 12 13  2  0  0  0  0
 12  7  1  0  0  0  0
 13  9  1  0  0  0  0
 14  2  1  0  0  0  0
 14  5  1  0  0  0  0
 16 15  1  0  0  0  0
 17 18  1  0  0  0  0
 18  4  1  0  0  0  0
 19 20  1  0  0  0  0
 19 13  1  0  0  0  0
 21 22  1  6  0  0  0
 21 23  1  0  0  0  0
 21 20  1  0  0  0  0
 23 24  1  0  0  0  0
 25 23  2  0  0  0  0
M  END
>  <MODEL>
5

>  <REMARK>
 VINA RESULT:      -8.7      1.710      4.653
  Name = 
  6 active torsions:
  status: ('A' for Active; 'I' for Inactive)
    1  A    between atoms: C_2  and  CA_21
    2  A    between atoms: C_5  and  C_22
    3  A    between atoms: C_6  and  C_15
    4  A    between atoms: C_6  and  C_23
    5  A    between atoms: C_10  and  C_11
    6  A    between atoms: C_15  and  CA_21
                            x       y       z     vdW  Elec       q    Type
                         _______ _______ _______ _____ _____    ______ ____

>  <TORSDO>
F 6

$$$$
=
 OpenBabel11052412513D

 25 27  0  0  1  0  0  0  0  0999 V2000
  187.0130  177.9280  141.6230 C   0  0  0  0  0  0  0  0  0  0  0  0
  186.4870  178.0390  142.9980 C   0  0  0  0  0  0  0  0  0  0  0  0
  185.0960  179.1310  140.7010 C   0  0  0  0  0  2  0  0  0  0  0  0
  188.2700  178.0580  141.2110 C   0  0  0  0  0  0  0  0  0  0  0  0
  184.2900  178.8180  141.9700 C   0  0  0  0  0  2  0  0  0  0  0  0
  188.2100  178.2990  139.7760 C   0  0  0  0  0  0  0  0  0  0  0  0
  184.6470  178.6360  144.4770 C   0  0  0  0  0  0  0  0  0  0  0  0
  183.2520  179.1090  144.7190 C   0  0  0  0  0  1  0  0  0  0  0  0
  187.2700  177.7200  144.1130 C   0  0  0  0  0  3  0  0  0  0  0  0
  186.0960  178.0110  140.4470 C   0  0  1  0  0  3  0  0  0  0  0  0
  186.9930  178.3250  139.3420 N   0  0  0  0  0  0  0  0  0  0  0  0
  185.4420  178.3110  145.5800 C   0  0  0  0  0  3  0  0  0  0  0  0
  186.7520  177.8610  145.4010 C   0  0  0  0  0  0  0  0  0  0  0  0
  185.1650  178.5120  143.1730 C   0  0  0  0  0  0  0  0  0  0  0  0
  190.0580  177.3540  138.4490 C   0  0  0  0  0  1  0  0  0  0  0  0
  189.3790  178.6280  138.9110 C   0  0  0  0  0  2  0  0  0  0  0  0
  190.2160  176.9200  142.2230 C   0  0  0  0  0  1  0  0  0  0  0  0
  189.4810  178.2390  142.0690 C   0  0  0  0  0  2  0  0  0  0  0  0
  187.5830  177.5020  146.5820 C   0  0  0  0  0  2  0  0  0  0  0  0
  188.9870  177.1280  146.1390 C   0  0  0  0  0  2  0  0  0  0  0  0
  189.8680  176.8450  147.3440 C   0  0  2  0  0  3  0  0  0  0  0  0
  189.7030  177.9030  148.3240 N   0  0  0  0  0  1  0  0  0  0  0  0
  191.3050  176.7530  146.9450 C   0  0  0  0  0  0  0  0  0  0  0  0
  191.6880  177.2780  145.8680 O   0  0  0  0  0  0  0  0  0  0  0  0
  192.2210  176.0950  147.7570 O   0  0  0  0  0  1  0  0  0  0  0  0
  1  2  1  0  0  0  0
  2 14  2  0  0  0  0
  2  9  1  0  0  0  0
  3  5  1  0  0  0  0
  4  1  2  0  0  0  0
  4 18  1  0  0  0  0
  5 14  1  0  0  0  0
  6  4  1  0  0  0  0
  7  8  1  0  0  0  0
  7 12  2  0  0  0  0
  9 13  2  0  0  0  0
 10  3  1  1  0  0  0
 10  1  1  0  0  0  0
 11  6  2  0  0  0  0
 11 10  1  0  0  0  0
 13 12  1  0  0  0  0
 13 19  1  0  0  0  0
 14  7  1  0  0  0  0
 15 16  1  0  0  0  0
 16  6  1  0  0  0  0
 18 17  1  0  0  0  0
 20 19  1  0  0  0  0
 20 21  1  0  0  0  0
 21 22  1  1  0  0  0
 23 21  1  0  0  0  0
 23 25  1  0  0  0  0
 24 23  2  0  0  0  0
M  END
>  <MODEL>
6

>  <REMARK>
 VINA RESULT:      -8.5      2.976      6.488
  Name = 
  6 active torsions:
  status: ('A' for Active; 'I' for Inactive)
    1  A    between atoms: C_2  and  CA_21
    2  A    between atoms: C_5  and  C_22
    3  A    between atoms: C_6  and  C_15
    4  A    between atoms: C_6  and  C_23
    5  A    between atoms: C_10  and  C_11
    6  A    between atoms: C_15  and  CA_21
                            x       y       z     vdW  Elec       q    Type
                         _______ _______ _______ _____ _____    ______ ____

>  <TORSDO>
F 6

$$$$
=
 OpenBabel11052412513D

 25 27  0  0  1  0  0  0  0  0999 V2000
  189.5120  177.9040  144.0290 C   0  0  0  0  0  0  0  0  0  0  0  0
  188.4440  177.9460  145.0470 C   0  0  0  0  0  0  0  0  0  0  0  0
  191.0690  176.8370  145.5810 C   0  0  0  0  0  2  0  0  0  0  0  0
  189.4030  177.6180  142.7350 C   0  0  0  0  0  0  0  0  0  0  0  0
  190.2190  177.3200  146.7650 C   0  0  0  0  0  2  0  0  0  0  0  0
  190.7420  177.2820  142.2740 C   0  0  0  0  0  0  0  0  0  0  0  0
  187.7750  177.6450  147.3690 C   0  0  0  0  0  0  0  0  0  0  0  0
  188.0770  177.3340  148.7970 C   0  0  0  0  0  1  0  0  0  0  0  0
  187.1220  178.2630  144.7150 C   0  0  0  0  0  3  0  0  0  0  0  0
  190.9480  177.8290  144.4320 C   0  0  1  0  0  3  0  0  0  0  0  0
  191.6120  177.3470  143.2270 N   0  0  0  0  0  0  0  0  0  0  0  0
  186.4600  177.9670  147.0210 C   0  0  0  0  0  3  0  0  0  0  0  0
  186.1320  178.2690  145.6970 C   0  0  0  0  0  0  0  0  0  0  0  0
  188.7800  177.6230  146.3830 C   0  0  0  0  0  0  0  0  0  0  0  0
  192.2990  177.4990  140.3770 C   0  0  0  0  0  1  0  0  0  0  0  0
  191.0800  176.7750  140.9120 C   0  0  0  0  0  2  0  0  0  0  0  0
  187.7540  178.6210  141.1920 C   0  0  0  0  0  1  0  0  0  0  0  0
  188.1390  177.3790  141.9730 C   0  0  0  0  0  2  0  0  0  0  0  0
  184.7320  178.6260  145.3410 C   0  0  0  0  0  2  0  0  0  0  0  0
  184.6980  179.3310  143.9950 C   0  0  0  0  0  2  0  0  0  0  0  0
  183.2910  179.3170  143.4220 C   0  0  2  0  0  3  0  0  0  0  0  0
  182.4000  178.6330  144.3420 N   0  0  0  0  0  1  0  0  0  0  0  0
  183.2620  178.6310  142.0950 C   0  0  0  0  0  0  0  0  0  0  0  0
  184.3410  178.2830  141.5490 O   0  0  0  0  0  1  0  0  0  0  0  0
  182.0530  178.3720  141.4620 O   0  0  0  0  0  0  0  0  0  0  0  0
  1 10  1  0  0  0  0
  1  2  1  0  0  0  0
  2 14  1  0  0  0  0
  3  5  1  0  0  0  0
  4  1  2  0  0  0  0
  6  4  1  0  0  0  0
  6 11  2  0  0  0  0
  7  8  1  0  0  0  0
  9  2  2  0  0  0  0
  9 13  1  0  0  0  0
 10  3  1  1  0  0  0
 11 10  1  0  0  0  0
 12  7  1  0  0  0  0
 13 12  2  0  0  0  0
 14  5  1  0  0  0  0
 14  7  2  0  0  0  0
 15 16  1  0  0  0  0
 16  6  1  0  0  0  0
 17 18  1  0  0  0  0
 18  4  1  0  0  0  0
 19 13  1  0  0  0  0
 20 19  1  0  0  0  0
 21 20  1  0  0  0  0
 21 22  1  1  0  0  0
 23 21  1  0  0  0  0
 24 23  1  0  0  0  0
 25 23  2  0  0  0  0
M  END
>  <MODEL>
7

>  <REMARK>
 VINA RESULT:      -8.4      2.054      5.837
  Name = 
  6 active torsions:
  status: ('A' for Active; 'I' for Inactive)
    1  A    between atoms: C_2  and  CA_21
    2  A    between atoms: C_5  and  C_22
    3  A    between atoms: C_6  and  C_15
    4  A    between atoms: C_6  and  C_23
    5  A    between atoms: C_10  and  C_11
    6  A    between atoms: C_15  and  CA_21
                            x       y       z     vdW  Elec       q    Type
                         _______ _______ _______ _____ _____    ______ ____

>  <TORSDO>
F 6

$$$$
=
 OpenBabel11052412513D

 25 27  0  0  1  0  0  0  0  0999 V2000
  187.4900  177.5560  144.5370 C   0  0  0  0  0  0  0  0  0  0  0  0
  187.1220  177.9250  143.1550 C   0  0  0  0  0  0  0  0  0  0  0  0
  189.8710  177.5360  143.9880 C   0  0  0  0  0  2  0  0  0  0  0  0
  186.9690  178.0060  145.6740 C   0  0  0  0  0  0  0  0  0  0  0  0
  189.5260  177.3970  142.4980 C   0  0  0  0  0  2  0  0  0  0  0  0
  187.9330  177.6950  146.7200 C   0  0  0  0  0  0  0  0  0  0  0  0
  187.8020  178.2430  140.8390 C   0  0  0  0  0  0  0  0  0  0  0  0
  188.8170  178.1980  139.7460 C   0  0  0  0  0  1  0  0  0  0  0  0
  185.8260  178.3360  142.8230 C   0  0  0  0  0  3  0  0  0  0  0  0
  188.7850  176.8710  144.8230 C   0  0  1  0  0  3  0  0  0  0  0  0
  188.9800  177.1010  146.2490 N   0  0  0  0  0  0  0  0  0  0  0  0
  186.5020  178.6490  140.5240 C   0  0  0  0  0  3  0  0  0  0  0  0
  185.5170  178.7030  141.5130 C   0  0  0  0  0  0  0  0  0  0  0  0
  188.1280  177.8840  142.1610 C   0  0  0  0  0  0  0  0  0  0  0  0
  189.2070  178.2550  148.7530 C   0  0  0  0  0  1  0  0  0  0  0  0
  187.8250  178.1250  148.1430 C   0  0  0  0  0  2  0  0  0  0  0  0
  184.6550  178.2020  146.5200 C   0  0  0  0  0  1  0  0  0  0  0  0
  185.7960  178.9210  145.8220 C   0  0  0  0  0  2  0  0  0  0  0  0
  184.1330  179.1210  141.1630 C   0  0  0  0  0  2  0  0  0  0  0  0
  183.1720  177.9590  141.3520 C   0  0  0  0  0  2  0  0  0  0  0  0
  181.7440  178.4630  141.4780 C   0  0  2  0  0  3  0  0  0  0  0  0
  181.4540  179.3740  140.3850 N   0  0  0  0  0  1  0  0  0  0  0  0
  181.5390  179.1640  142.7810 C   0  0  0  0  0  0  0  0  0  0  0  0
  180.7330  180.1280  142.8520 O   0  0  0  0  0  0  0  0  0  0  0  0
  182.2280  178.7560  143.9160 O   0  0  0  0  0  1  0  0  0  0  0  0
  1 10  1  0  0  0  0
  1  4  2  0  0  0  0
  2  1  1  0  0  0  0
  4 18  1  0  0  0  0
  4  6  1  0  0  0  0
  5  3  1  0  0  0  0
  6 16  1  0  0  0  0
  7 14  1  0  0  0  0
  8  7  1  0  0  0  0
  9  2  1  0  0  0  0
 10  3  1  6  0  0  0
 10 11  1  0  0  0  0
 11  6  2  0  0  0  0
 12  7  2  0  0  0  0
 12 13  1  0  0  0  0
 13  9  2  0  0  0  0
 14  5  1  0  0  0  0
 14  2  2  0  0  0  0
 16 15  1  0  0  0  0
 18 17  1  0  0  0  0
 19 20  1  0  0  0  0
 19 13  1  0  0  0  0
 20 21  1  0  0  0  0
 21 22  1  6  0  0  0
 21 23  1  0  0  0  0
 23 24  2  0  0  0  0
 23 25  1  0  0  0  0
M  END
>  <MODEL>
8

>  <REMARK>
 VINA RESULT:      -8.3      3.102      5.948
  Name = 
  6 active torsions:
  status: ('A' for Active; 'I' for Inactive)
    1  A    between atoms: C_2  and  CA_21
    2  A    between atoms: C_5  and  C_22
    3  A    between atoms: C_6  and  C_15
    4  A    between atoms: C_6  and  C_23
    5  A    between atoms: C_10  and  C_11
    6  A    between atoms: C_15  and  CA_21
                            x       y       z     vdW  Elec       q    Type
                         _______ _______ _______ _____ _____    ______ ____

>  <TORSDO>
F 6

$$$$
=
 OpenBabel11052412513D

 25 27  0  0  1  0  0  0  0  0999 V2000
  186.0440  178.4690  144.3480 C   0  0  0  0  0  0  0  0  0  0  0  0
  184.8870  178.5130  143.4310 C   0  0  0  0  0  0  0  0  0  0  0  0
  184.5940  178.3490  146.3110 C   0  0  0  0  0  2  0  0  0  0  0  0
  187.1860  177.8050  144.1970 C   0  0  0  0  0  0  0  0  0  0  0  0
  183.4270  178.9070  145.4820 C   0  0  0  0  0  2  0  0  0  0  0  0
  187.7910  177.7220  145.5180 C   0  0  0  0  0  0  0  0  0  0  0  0
  182.4790  178.7250  143.1350 C   0  0  0  0  0  0  0  0  0  0  0  0
  181.1000  178.9300  143.6660 C   0  0  0  0  0  1  0  0  0  0  0  0
  185.0360  178.3570  142.0490 C   0  0  0  0  0  3  0  0  0  0  0  0
  185.9070  178.9000  145.7700 C   0  0  1  0  0  3  0  0  0  0  0  0
  187.0600  178.2890  146.4200 N   0  0  0  0  0  0  0  0  0  0  0  0
  182.6460  178.5690  141.7550 C   0  0  0  0  0  3  0  0  0  0  0  0
  183.9190  178.3790  141.2130 C   0  0  0  0  0  0  0  0  0  0  0  0
  183.5990  178.6900  143.9890 C   0  0  0  0  0  0  0  0  0  0  0  0
  189.1970  176.8730  147.3540 C   0  0  0  0  0  1  0  0  0  0  0  0
  189.0260  176.9560  145.8500 C   0  0  0  0  0  2  0  0  0  0  0  0
  188.6370  177.8210  142.1960 C   0  0  0  0  0  1  0  0  0  0  0  0
  187.6200  177.0280  142.9950 C   0  0  0  0  0  2  0  0  0  0  0  0
  184.0860  178.2300  139.7420 C   0  0  0  0  0  2  0  0  0  0  0  0
  185.4970  178.6210  139.3340 C   0  0  0  0  0  2  0  0  0  0  0  0
  185.7720  178.2020  137.8990 C   0  0  2  0  0  3  0  0  0  0  0  0
  185.0510  176.9770  137.6060 N   0  0  0  0  0  1  0  0  0  0  0  0
  187.2340  177.9890  137.6760 C   0  0  0  0  0  0  0  0  0  0  0  0
  187.6190  177.1420  136.8290 O   0  0  0  0  0  0  0  0  0  0  0  0
  188.1700  178.7240  138.3930 O   0  0  0  0  0  1  0  0  0  0  0  0
  1 10  1  0  0  0  0
  2 14  1  0  0  0  0
  2  1  1  0  0  0  0
  4  1  2  0  0  0  0
  4  6  1  0  0  0  0
  5  3  1  0  0  0  0
  6 16  1  0  0  0  0
  6 11  2  0  0  0  0
  7  8  1  0  0  0  0
  7 14  2  0  0  0  0
  9  2  2  0  0  0  0
 10  3  1  1  0  0  0
 10 11  1  0  0  0  0
 12  7  1  0  0  0  0
 13 12  2  0  0  0  0
 13  9  1  0  0  0  0
 14  5  1  0  0  0  0
 16 15  1  0  0  0  0
 17 18  1  0  0  0  0
 18  4  1  0  0  0  0
 19 13  1  0  0  0  0
 20 19  1  0  0  0  0
 21 22  1  1  0  0  0
 21 20  1  0  0  0  0
 23 21  1  0  0  0  0
 23 25  1  0  0  0  0
 24 23  2  0  0  0  0
M  END
>  <MODEL>
9

>  <REMARK>
 VINA RESULT:      -8.1      2.001      5.152
  Name = 
  6 active torsions:
  status: ('A' for Active; 'I' for Inactive)
    1  A    between atoms: C_2  and  CA_21
    2  A    between atoms: C_5  and  C_22
    3  A    between atoms: C_6  and  C_15
    4  A    between atoms: C_6  and  C_23
    5  A    between atoms: C_10  and  C_11
    6  A    between atoms: C_15  and  CA_21
                            x       y       z     vdW  Elec       q    Type
                         _______ _______ _______ _____ _____    ______ ____

>  <TORSDO>
F 6

$$$$
