=
 OpenBabel11052413553D

 34 39  0  0  1  0  0  0  0  0999 V2000
  190.2760  176.9770  146.7900 C   0  0  1  0  0  3  0  0  0  0  0  0
  191.3790  175.3910  145.3540 C   0  0  1  0  0  3  0  0  0  0  0  0
  189.6570  177.1030  144.3350 C   0  0  0  0  0  0  0  0  0  0  0  0
  188.9500  177.4870  142.0430 C   0  0  0  0  0  0  0  0  0  0  0  0
  192.4370  176.0000  147.4680 C   0  0  0  0  0  3  0  0  0  0  0  0
  192.4290  175.2830  146.3800 N   0  0  0  0  0  0  0  0  0  0  0  0
  191.1060  177.0480  142.2540 C   0  0  0  0  0  3  0  0  0  0  0  0
  190.7700  176.8160  145.3510 C   0  0  1  0  0  3  0  0  0  0  0  0
  189.5120  177.5210  140.7880 C   0  0  0  0  0  3  0  0  0  0  0  0
  191.4040  176.9650  147.7040 N   0  0  0  0  0  2  0  0  0  0  0  0
  188.3580  177.5390  144.7570 C   0  0  0  0  0  0  0  0  0  0  0  0
  189.3680  178.1650  146.9710 C   0  0  0  0  0  2  0  0  0  0  0  0
  191.9490  174.9290  144.0300 C   0  0  0  0  0  1  0  0  0  0  0  0
  187.6520  177.7840  142.4210 C   0  0  0  0  0  3  0  0  0  0  0  0
  187.3340  177.8030  143.7920 C   0  0  0  0  0  0  0  0  0  0  0  0
  190.8270  177.2450  140.9480 N   0  0  0  0  0  0  0  0  0  0  0  0
  189.9230  177.1740  142.9570 C   0  0  0  0  0  0  0  0  0  0  0  0
  188.0920  177.8220  146.2180 C   0  0  0  0  0  2  0  0  0  0  0  0
  183.6420  178.6690  143.5590 C   0  0  0  0  0  0  0  0  0  0  0  0
  183.3190  178.8490  144.9060 C   0  0  0  0  0  3  0  0  0  0  0  0
  185.9390  178.1400  144.1720 C   0  0  0  0  0  0  0  0  0  0  0  0
  184.2990  178.6850  145.8880 C   0  0  0  0  0  3  0  0  0  0  0  0
  184.9460  178.3220  143.1950 C   0  0  0  0  0  3  0  0  0  0  0  0
  185.6020  178.3370  145.5220 C   0  0  0  0  0  3  0  0  0  0  0  0
  182.6940  178.8350  142.6070 F   0  0  0  0  0  0  0  0  0  0  0  0
  191.6320  176.4500  138.8740 C   0  0  0  0  0  3  0  0  0  0  0  0
  191.7890  177.1870  139.9260 N   0  0  0  0  0  0  0  0  0  0  0  0
  194.3560  175.6520  139.3320 F   0  0  0  0  0  0  0  0  0  0  0  0
  192.6780  176.4160  137.8100 C   0  0  1  0  0  3  0  0  0  0  0  0
  193.7250  175.3480  138.1390 C   0  0  1  0  0  3  0  0  0  0  0  0
  194.1060  174.9690  135.6900 C   0  0  0  0  0  2  0  0  0  0  0  0
  193.0830  176.0510  135.3610 C   0  0  0  0  0  2  0  0  0  0  0  0
  192.0260  176.1200  136.4580 C   0  0  0  0  0  2  0  0  0  0  0  0
  194.7720  175.2690  137.0300 C   0  0  0  0  0  2  0  0  0  0  0  0
  1 12  1  6  0  0  0
  1 10  1  0  0  0  0
  2 13  1  6  0  0  0
  2  6  1  0  0  0  0
  3 11  2  0  0  0  0
  4 14  1  0  0  0  0
  4 17  1  0  0  0  0
  5 10  1  0  0  0  0
  6  5  2  0  0  0  0
  7 17  2  0  0  0  0
  8  3  1  6  0  0  0
  8  2  1  0  0  0  0
  8  1  1  0  0  0  0
  9 16  1  0  0  0  0
  9  4  2  0  0  0  0
 11 18  1  0  0  0  0
 14 15  2  0  0  0  0
 15 21  1  0  0  0  0
 15 11  1  0  0  0  0
 16  7  1  0  0  0  0
 17  3  1  0  0  0  0
 18 12  1  0  0  0  0
 19 20  1  0  0  0  0
 20 22  2  0  0  0  0
 21 24  2  0  0  0  0
 23 19  2  0  0  0  0
 23 21  1  0  0  0  0
 24 22  1  0  0  0  0
 25 19  1  0  0  0  0
 26 27  2  0  0  0  0
 27 16  1  0  0  0  0
 29 30  1  0  0  0  0
 29 26  1  1  0  0  0
 30 28  1  1  0  0  0
 31 34  1  0  0  0  0
 32 31  1  0  0  0  0
 32 33  1  0  0  0  0
 33 29  1  0  0  0  0
 34 30  1  0  0  0  0
M  END
>  <MODEL>
1

>  <REMARK>
 VINA RESULT:     -10.9      0.000      0.000
  Name = 
  3 active torsions:
  status: ('A' for Active; 'I' for Inactive)
    1  A    between atoms: C_3  and  C_13
    2  A    between atoms: C_12  and  C_28
    3  A    between atoms: N_17  and  N_29
                            x       y       z     vdW  Elec       q    Type
                         _______ _______ _______ _____ _____    ______ ____

>  <TORSDO>
F 3

$$$$
=
 OpenBabel11052413553D

 34 39  0  0  1  0  0  0  0  0999 V2000
  185.8350  178.3390  145.9280 C   0  0  1  0  0  3  0  0  0  0  0  0
  187.2850  176.8030  144.7740 C   0  0  1  0  0  3  0  0  0  0  0  0
  185.5920  178.2830  143.4060 C   0  0  0  0  0  0  0  0  0  0  0  0
  185.2130  178.4840  141.0150 C   0  0  0  0  0  0  0  0  0  0  0  0
  187.9460  177.6170  146.9790 C   0  0  0  0  0  3  0  0  0  0  0  0
  188.1710  176.8500  145.9490 N   0  0  0  0  0  0  0  0  0  0  0  0
  187.3420  178.2730  141.5700 C   0  0  0  0  0  3  0  0  0  0  0  0
  186.5570  178.1580  144.5910 C   0  0  1  0  0  3  0  0  0  0  0  0
  185.9550  178.5130  139.8570 C   0  0  0  0  0  3  0  0  0  0  0  0
  186.8060  178.4840  146.9990 N   0  0  0  0  0  2  0  0  0  0  0  0
  184.2090  178.6080  143.6020 C   0  0  0  0  0  0  0  0  0  0  0  0
  184.8060  179.4380  145.8980 C   0  0  0  0  0  2  0  0  0  0  0  0
  188.0920  176.3360  143.5810 C   0  0  0  0  0  1  0  0  0  0  0  0
  183.8510  178.6680  141.1760 C   0  0  0  0  0  3  0  0  0  0  0  0
  183.3260  178.7220  142.4810 C   0  0  0  0  0  0  0  0  0  0  0  0
  187.2500  178.3780  140.2270 N   0  0  0  0  0  0  0  0  0  0  0  0
  186.0590  178.3140  142.0810 C   0  0  0  0  0  0  0  0  0  0  0  0
  183.6980  178.9340  144.9870 C   0  0  0  0  0  2  0  0  0  0  0  0
  179.8000  178.6800  143.8940 C   0  0  0  0  0  0  0  0  0  0  0  0
  179.0840  179.2880  142.8600 C   0  0  0  0  0  3  0  0  0  0  0  0
  181.8640  178.9370  142.6290 C   0  0  0  0  0  0  0  0  0  0  0  0
  179.7480  179.7140  141.7080 C   0  0  0  0  0  3  0  0  0  0  0  0
  181.1810  178.5010  143.7760 C   0  0  0  0  0  3  0  0  0  0  0  0
  181.1290  179.5350  141.5910 C   0  0  0  0  0  3  0  0  0  0  0  0
  179.1550  178.2610  145.0090 F   0  0  0  0  0  0  0  0  0  0  0  0
  188.9710  177.2710  139.0460 C   0  0  0  0  0  3  0  0  0  0  0  0
  188.3590  178.3660  139.3650 N   0  0  0  0  0  0  0  0  0  0  0  0
  191.6940  177.5340  139.9320 F   0  0  0  0  0  0  0  0  0  0  0  0
  190.1450  177.3000  138.1260 C   0  0  1  0  0  3  0  0  0  0  0  0
  191.3830  176.7470  138.8380 C   0  0  1  0  0  3  0  0  0  0  0  0
  192.2580  175.8910  136.6500 C   0  0  0  0  0  2  0  0  0  0  0  0
  191.0390  176.4650  135.9360 C   0  0  0  0  0  2  0  0  0  0  0  0
  189.8390  176.4730  136.8760 C   0  0  0  0  0  2  0  0  0  0  0  0
  192.5780  176.7230  137.8880 C   0  0  0  0  0  2  0  0  0  0  0  0
  1 12  1  6  0  0  0
  1 10  1  0  0  0  0
  2 13  1  6  0  0  0
  2  6  1  0  0  0  0
  3 11  2  0  0  0  0
  4 14  1  0  0  0  0
  4 17  1  0  0  0  0
  5 10  1  0  0  0  0
  6  5  2  0  0  0  0
  7 17  2  0  0  0  0
  8  3  1  6  0  0  0
  8  2  1  0  0  0  0
  8  1  1  0  0  0  0
  9 16  1  0  0  0  0
  9  4  2  0  0  0  0
 11 18  1  0  0  0  0
 14 15  2  0  0  0  0
 15 21  1  0  0  0  0
 15 11  1  0  0  0  0
 16  7  1  0  0  0  0
 17  3  1  0  0  0  0
 18 12  1  0  0  0  0
 19 25  1  0  0  0  0
 20 19  2  0  0  0  0
 21 23  2  0  0  0  0
 22 20  1  0  0  0  0
 23 19  1  0  0  0  0
 24 22  2  0  0  0  0
 24 21  1  0  0  0  0
 26 27  2  0  0  0  0
 27 16  1  0  0  0  0
 29 30  1  0  0  0  0
 29 26  1  1  0  0  0
 30 28  1  1  0  0  0
 31 34  1  0  0  0  0
 32 31  1  0  0  0  0
 32 33  1  0  0  0  0
 33 29  1  0  0  0  0
 34 30  1  0  0  0  0
M  END
>  <MODEL>
2

>  <REMARK>
 VINA RESULT:     -10.3      2.507      4.131
  Name = 
  3 active torsions:
  status: ('A' for Active; 'I' for Inactive)
    1  A    between atoms: C_3  and  C_13
    2  A    between atoms: C_12  and  C_28
    3  A    between atoms: N_17  and  N_29
                            x       y       z     vdW  Elec       q    Type
                         _______ _______ _______ _____ _____    ______ ____

>  <TORSDO>
F 3

$$$$
=
 OpenBabel11052413553D

 34 39  0  0  1  0  0  0  0  0999 V2000
  191.2300  177.3460  141.2060 C   0  0  1  0  0  3  0  0  0  0  0  0
  189.7200  176.5330  139.5170 C   0  0  1  0  0  3  0  0  0  0  0  0
  188.7690  177.7800  141.6310 C   0  0  0  0  0  0  0  0  0  0  0  0
  186.4990  178.3910  142.2400 C   0  0  0  0  0  0  0  0  0  0  0  0
  192.0390  176.9890  138.9030 C   0  0  0  0  0  3  0  0  0  0  0  0
  190.8540  176.5520  138.5790 N   0  0  0  0  0  0  0  0  0  0  0  0
  186.9430  178.6280  140.0880 C   0  0  0  0  0  3  0  0  0  0  0  0
  189.8720  177.6560  140.5720 C   0  0  1  0  0  3  0  0  0  0  0  0
  185.3630  178.8650  141.6250 C   0  0  0  0  0  3  0  0  0  0  0  0
  192.2830  177.5030  140.2180 N   0  0  0  0  0  2  0  0  0  0  0  0
  189.0650  177.6810  143.0300 C   0  0  0  0  0  0  0  0  0  0  0  0
  191.4770  178.1170  142.4750 C   0  0  0  0  0  2  0  0  0  0  0  0
  188.4340  176.5650  138.7180 C   0  0  0  0  0  1  0  0  0  0  0  0
  186.7280  178.1730  143.5870 C   0  0  0  0  0  3  0  0  0  0  0  0
  188.0210  177.8020  144.0020 C   0  0  0  0  0  0  0  0  0  0  0  0
  185.6630  178.9950  140.3120 N   0  0  0  0  0  0  0  0  0  0  0  0
  187.4770  178.2200  141.2950 C   0  0  0  0  0  0  0  0  0  0  0  0
  190.4980  177.5520  143.4930 C   0  0  0  0  0  2  0  0  0  0  0  0
  189.6430  176.8190  147.2930 C   0  0  0  0  0  0  0  0  0  0  0  0
  188.6280  177.1280  148.2020 C   0  0  0  0  0  3  0  0  0  0  0  0
  188.2460  177.5900  145.4550 C   0  0  0  0  0  0  0  0  0  0  0  0
  187.4200  177.6600  147.7440 C   0  0  0  0  0  3  0  0  0  0  0  0
  189.4500  177.0440  145.9270 C   0  0  0  0  0  3  0  0  0  0  0  0
  187.2290  177.8850  146.3780 C   0  0  0  0  0  3  0  0  0  0  0  0
  190.8110  176.2980  147.7360 F   0  0  0  0  0  0  0  0  0  0  0  0
  183.5100  179.4060  139.4280 C   0  0  0  0  0  3  0  0  0  0  0  0
  184.7980  179.4620  139.3080 N   0  0  0  0  0  0  0  0  0  0  0  0
  181.9570  177.7080  137.7050 F   0  0  0  0  0  0  0  0  0  0  0  0
  182.6260  179.9130  138.3400 C   0  0  1  0  0  3  0  0  0  0  0  0
  181.4690  178.9380  138.1080 C   0  0  1  0  0  3  0  0  0  0  0  0
  179.9950  180.8490  137.4260 C   0  0  0  0  0  2  0  0  0  0  0  0
  181.1550  181.8180  137.6310 C   0  0  0  0  0  2  0  0  0  0  0  0
  182.0870  181.2940  138.7190 C   0  0  0  0  0  2  0  0  0  0  0  0
  180.5270  179.4740  137.0320 C   0  0  0  0  0  2  0  0  0  0  0  0
  1 12  1  1  0  0  0
  2 13  1  6  0  0  0
  2  8  1  0  0  0  0
  3 11  2  0  0  0  0
  4 14  1  0  0  0  0
  5 10  1  0  0  0  0
  6  5  2  0  0  0  0
  6  2  1  0  0  0  0
  7 16  1  0  0  0  0
  7 17  2  0  0  0  0
  8  1  1  0  0  0  0
  8  3  1  1  0  0  0
  9  4  2  0  0  0  0
 10  1  1  0  0  0  0
 11 18  1  0  0  0  0
 11 15  1  0  0  0  0
 12 18  1  0  0  0  0
 14 15  2  0  0  0  0
 15 21  1  0  0  0  0
 16  9  1  0  0  0  0
 17  3  1  0  0  0  0
 17  4  1  0  0  0  0
 19 25  1  0  0  0  0
 19 20  1  0  0  0  0
 21 23  1  0  0  0  0
 21 24  2  0  0  0  0
 22 20  2  0  0  0  0
 23 19  2  0  0  0  0
 24 22  1  0  0  0  0
 27 26  2  0  0  0  0
 27 16  1  0  0  0  0
 29 33  1  0  0  0  0
 29 26  1  1  0  0  0
 30 28  1  6  0  0  0
 30 29  1  0  0  0  0
 31 32  1  0  0  0  0
 32 33  1  0  0  0  0
 34 31  1  0  0  0  0
 34 30  1  0  0  0  0
M  END
>  <MODEL>
3

>  <REMARK>
 VINA RESULT:     -10.0      3.831      7.788
  Name = 
  3 active torsions:
  status: ('A' for Active; 'I' for Inactive)
    1  A    between atoms: C_3  and  C_13
    2  A    between atoms: C_12  and  C_28
    3  A    between atoms: N_17  and  N_29
                            x       y       z     vdW  Elec       q    Type
                         _______ _______ _______ _____ _____    ______ ____

>  <TORSDO>
F 3

$$$$
=
 OpenBabel11052413553D

 34 39  0  0  1  0  0  0  0  0999 V2000
  184.8010  178.7060  145.1040 C   0  0  1  0  0  3  0  0  0  0  0  0
  186.5510  177.1700  144.4930 C   0  0  1  0  0  3  0  0  0  0  0  0
  185.1740  178.3990  142.6150 C   0  0  0  0  0  0  0  0  0  0  0  0
  185.3730  178.3500  140.1950 C   0  0  0  0  0  0  0  0  0  0  0  0
  186.6260  178.2270  146.6920 C   0  0  0  0  0  3  0  0  0  0  0  0
  187.1250  177.3850  145.8310 N   0  0  0  0  0  0  0  0  0  0  0  0
  187.3130  178.3350  141.2540 C   0  0  0  0  0  3  0  0  0  0  0  0
  185.8300  178.4500  144.0010 C   0  0  1  0  0  3  0  0  0  0  0  0
  186.3700  178.3210  139.2480 C   0  0  0  0  0  3  0  0  0  0  0  0
  185.4790  179.0150  146.3510 N   0  0  0  0  0  2  0  0  0  0  0  0
  183.7720  178.6470  142.4460 C   0  0  0  0  0  0  0  0  0  0  0  0
  183.7630  179.7260  144.7160 C   0  0  0  0  0  2  0  0  0  0  0  0
  187.6400  176.6490  143.5800 C   0  0  0  0  0  1  0  0  0  0  0  0
  184.0060  178.4570  140.0120 C   0  0  0  0  0  3  0  0  0  0  0  0
  183.1800  178.5970  141.1430 C   0  0  0  0  0  0  0  0  0  0  0  0
  187.5420  178.3080  139.9240 N   0  0  0  0  0  0  0  0  0  0  0  0
  185.9440  178.3380  141.4420 C   0  0  0  0  0  0  0  0  0  0  0  0
  182.9290  179.0660  143.6290 C   0  0  0  0  0  2  0  0  0  0  0  0
  179.7960  180.0050  140.1470 C   0  0  0  0  0  0  0  0  0  0  0  0
  178.9400  178.9850  140.5680 C   0  0  0  0  0  3  0  0  0  0  0  0
  181.7180  178.7260  140.9190 C   0  0  0  0  0  0  0  0  0  0  0  0
  179.4640  177.8390  141.1710 C   0  0  0  0  0  3  0  0  0  0  0  0
  181.1760  179.8780  140.3260 C   0  0  0  0  0  3  0  0  0  0  0  0
  180.8450  177.7130  141.3490 C   0  0  0  0  0  3  0  0  0  0  0  0
  179.2880  181.1180  139.5680 F   0  0  0  0  0  0  0  0  0  0  0  0
  189.3690  177.2010  138.9130 C   0  0  0  0  0  3  0  0  0  0  0  0
  188.8260  178.2900  139.3530 N   0  0  0  0  0  0  0  0  0  0  0  0
  191.7580  177.8070  140.3910 F   0  0  0  0  0  0  0  0  0  0  0  0
  190.7340  177.2240  138.3120 C   0  0  1  0  0  3  0  0  0  0  0  0
  191.7790  176.8710  139.3730 C   0  0  1  0  0  3  0  0  0  0  0  0
  193.2270  175.8420  137.6040 C   0  0  0  0  0  2  0  0  0  0  0  0
  192.1990  176.2170  136.5420 C   0  0  0  0  0  2  0  0  0  0  0  0
  190.8010  176.2300  137.1510 C   0  0  0  0  0  2  0  0  0  0  0  0
  193.1760  176.8400  138.7560 C   0  0  0  0  0  2  0  0  0  0  0  0
  1 12  1  6  0  0  0
  1 10  1  0  0  0  0
  2 13  1  6  0  0  0
  2  6  1  0  0  0  0
  4 17  1  0  0  0  0
  6  5  2  0  0  0  0
  7 17  2  0  0  0  0
  8  3  1  6  0  0  0
  8  2  1  0  0  0  0
  8  1  1  0  0  0  0
  9 16  1  0  0  0  0
  9  4  2  0  0  0  0
 10  5  1  0  0  0  0
 11  3  2  0  0  0  0
 11 18  1  0  0  0  0
 14  4  1  0  0  0  0
 14 15  2  0  0  0  0
 15 11  1  0  0  0  0
 16  7  1  0  0  0  0
 17  3  1  0  0  0  0
 18 12  1  0  0  0  0
 19 23  2  0  0  0  0
 19 20  1  0  0  0  0
 20 22  2  0  0  0  0
 21 15  1  0  0  0  0
 21 24  2  0  0  0  0
 22 24  1  0  0  0  0
 23 21  1  0  0  0  0
 25 19  1  0  0  0  0
 26 27  2  0  0  0  0
 27 16  1  0  0  0  0
 29 26  1  1  0  0  0
 29 30  1  0  0  0  0
 30 28  1  1  0  0  0
 31 34  1  0  0  0  0
 32 33  1  0  0  0  0
 32 31  1  0  0  0  0
 33 29  1  0  0  0  0
 34 30  1  0  0  0  0
M  END
>  <MODEL>
4

>  <REMARK>
 VINA RESULT:      -9.6      3.027      4.752
  Name = 
  3 active torsions:
  status: ('A' for Active; 'I' for Inactive)
    1  A    between atoms: C_3  and  C_13
    2  A    between atoms: C_12  and  C_28
    3  A    between atoms: N_17  and  N_29
                            x       y       z     vdW  Elec       q    Type
                         _______ _______ _______ _____ _____    ______ ____

>  <TORSDO>
F 3

$$$$
=
 OpenBabel11052413553D

 34 39  0  0  1  0  0  0  0  0999 V2000
  186.6460  177.1300  136.2790 C   0  0  1  0  0  3  0  0  0  0  0  0
  188.5080  178.3550  137.1860 C   0  0  1  0  0  3  0  0  0  0  0  0
  186.3250  178.0390  138.6220 C   0  0  0  0  0  0  0  0  0  0  0  0
  185.7890  178.7270  140.8890 C   0  0  0  0  0  0  0  0  0  0  0  0
  188.9200  176.7280  135.4130 C   0  0  0  0  0  3  0  0  0  0  0  0
  189.3660  177.6500  136.2190 N   0  0  0  0  0  0  0  0  0  0  0  0
  187.8670  178.0190  140.6360 C   0  0  0  0  0  3  0  0  0  0  0  0
  187.3210  177.4570  137.6120 C   0  0  1  0  0  3  0  0  0  0  0  0
  186.4130  178.8060  142.1120 C   0  0  0  0  0  3  0  0  0  0  0  0
  187.5420  176.3400  135.4520 N   0  0  0  0  0  2  0  0  0  0  0  0
  184.9310  178.1620  138.3090 C   0  0  0  0  0  0  0  0  0  0  0  0
  185.2820  176.5130  136.4440 C   0  0  0  0  0  2  0  0  0  0  0  0
  189.3750  178.8630  138.3190 C   0  0  0  0  0  1  0  0  0  0  0  0
  184.4650  178.9780  140.5740 C   0  0  0  0  0  3  0  0  0  0  0  0
  184.0180  178.7070  139.2670 C   0  0  0  0  0  0  0  0  0  0  0  0
  187.6810  178.3710  141.9260 N   0  0  0  0  0  0  0  0  0  0  0  0
  186.6850  178.2620  139.9620 C   0  0  0  0  0  0  0  0  0  0  0  0
  184.4000  177.6190  137.0020 C   0  0  0  0  0  2  0  0  0  0  0  0
  180.8370  180.4270  138.1030 C   0  0  0  0  0  0  0  0  0  0  0  0
  179.8720  179.4770  138.4440 C   0  0  0  0  0  3  0  0  0  0  0  0
  182.5890  178.9680  138.9580 C   0  0  0  0  0  0  0  0  0  0  0  0
  180.2560  178.2780  139.0480 C   0  0  0  0  0  3  0  0  0  0  0  0
  182.1880  180.1760  138.3630 C   0  0  0  0  0  3  0  0  0  0  0  0
  181.6070  178.0270  139.3070 C   0  0  0  0  0  3  0  0  0  0  0  0
  180.4650  181.5920  137.5240 F   0  0  0  0  0  0  0  0  0  0  0  0
  188.4030  177.9140  144.1290 C   0  0  0  0  0  3  0  0  0  0  0  0
  188.6740  178.2700  142.9140 N   0  0  0  0  0  0  0  0  0  0  0  0
  187.9730  178.2110  146.9560 F   0  0  0  0  0  0  0  0  0  0  0  0
  189.4870  177.8170  145.1490 C   0  0  1  0  0  3  0  0  0  0  0  0
  188.9130  177.3170  146.4770 C   0  0  1  0  0  3  0  0  0  0  0  0
  191.1000  176.2080  147.0040 C   0  0  0  0  0  2  0  0  0  0  0  0
  191.6810  176.7290  145.6930 C   0  0  0  0  0  2  0  0  0  0  0  0
  190.5770  176.8650  144.6510 C   0  0  0  0  0  2  0  0  0  0  0  0
  190.0240  177.1620  147.5140 C   0  0  0  0  0  2  0  0  0  0  0  0
  1 12  1  1  0  0  0
  1  8  1  0  0  0  0
  2  8  1  0  0  0  0
  2 13  1  1  0  0  0
  3 17  1  0  0  0  0
  4  9  2  0  0  0  0
  5 10  1  0  0  0  0
  5  6  2  0  0  0  0
  6  2  1  0  0  0  0
  7 16  1  0  0  0  0
  8  3  1  1  0  0  0
 10  1  1  0  0  0  0
 11  3  2  0  0  0  0
 11 15  1  0  0  0  0
 12 18  1  0  0  0  0
 14  4  1  0  0  0  0
 15 14  2  0  0  0  0
 16  9  1  0  0  0  0
 16 27  1  0  0  0  0
 17  7  2  0  0  0  0
 17  4  1  0  0  0  0
 18 11  1  0  0  0  0
 19 23  2  0  0  0  0
 19 20  1  0  0  0  0
 20 22  2  0  0  0  0
 21 15  1  0  0  0  0
 21 24  2  0  0  0  0
 22 24  1  0  0  0  0
 23 21  1  0  0  0  0
 25 19  1  0  0  0  0
 27 26  2  0  0  0  0
 29 26  1  6  0  0  0
 29 30  1  0  0  0  0
 30 28  1  1  0  0  0
 30 34  1  0  0  0  0
 31 34  1  0  0  0  0
 32 31  1  0  0  0  0
 33 29  1  0  0  0  0
 33 32  1  0  0  0  0
M  END
>  <MODEL>
5

>  <REMARK>
 VINA RESULT:      -9.5      4.195      8.277
  Name = 
  3 active torsions:
  status: ('A' for Active; 'I' for Inactive)
    1  A    between atoms: C_3  and  C_13
    2  A    between atoms: C_12  and  C_28
    3  A    between atoms: N_17  and  N_29
                            x       y       z     vdW  Elec       q    Type
                         _______ _______ _______ _____ _____    ______ ____

>  <TORSDO>
F 3

$$$$
=
 OpenBabel11052413553D

 34 39  0  0  1  0  0  0  0  0999 V2000
  188.6080  177.9370  139.1650 C   0  0  1  0  0  3  0  0  0  0  0  0
  186.8540  177.1650  137.7080 C   0  0  1  0  0  3  0  0  0  0  0  0
  186.2440  178.3270  139.9910 C   0  0  0  0  0  0  0  0  0  0  0  0
  184.0960  178.8890  140.9760 C   0  0  0  0  0  0  0  0  0  0  0  0
  189.0430  177.6710  136.7520 C   0  0  0  0  0  3  0  0  0  0  0  0
  187.8250  177.2310  136.6040 N   0  0  0  0  0  0  0  0  0  0  0  0
  184.1910  179.2060  138.7910 C   0  0  0  0  0  3  0  0  0  0  0  0
  187.1660  178.2530  138.7670 C   0  0  1  0  0  3  0  0  0  0  0  0
  182.8750  179.3700  140.5660 C   0  0  0  0  0  3  0  0  0  0  0  0
  189.4910  178.1410  138.0290 N   0  0  0  0  0  2  0  0  0  0  0  0
  186.7600  178.1820  141.3210 C   0  0  0  0  0  0  0  0  0  0  0  0
  189.0500  178.6660  140.4060 C   0  0  0  0  0  2  0  0  0  0  0  0
  185.4570  177.2100  137.1260 C   0  0  0  0  0  1  0  0  0  0  0  0
  184.5380  178.6260  142.2600 C   0  0  0  0  0  3  0  0  0  0  0  0
  185.8830  178.2560  142.4500 C   0  0  0  0  0  0  0  0  0  0  0  0
  182.9610  179.5500  139.2280 N   0  0  0  0  0  0  0  0  0  0  0  0
  184.9130  178.7620  139.8820 C   0  0  0  0  0  0  0  0  0  0  0  0
  188.2500  178.0540  141.5450 C   0  0  0  0  0  2  0  0  0  0  0  0
  186.0340  178.2110  146.2460 C   0  0  0  0  0  0  0  0  0  0  0  0
  187.2490  177.5570  146.4630 C   0  0  0  0  0  3  0  0  0  0  0  0
  186.3380  177.9950  143.8400 C   0  0  0  0  0  0  0  0  0  0  0  0
  188.0150  177.1280  145.3770 C   0  0  0  0  0  3  0  0  0  0  0  0
  185.5840  178.4330  144.9410 C   0  0  0  0  0  3  0  0  0  0  0  0
  187.5640  177.3500  144.0730 C   0  0  0  0  0  3  0  0  0  0  0  0
  185.2950  178.6330  147.2980 F   0  0  0  0  0  0  0  0  0  0  0  0
  181.6730  181.3040  138.3070 C   0  0  0  0  0  3  0  0  0  0  0  0
  181.9440  180.0410  138.3920 N   0  0  0  0  0  0  0  0  0  0  0  0
  180.9840  184.0750  137.9680 F   0  0  0  0  0  0  0  0  0  0  0  0
  180.5860  181.7860  137.4060 C   0  0  1  0  0  3  0  0  0  0  0  0
  180.9090  183.1960  136.9040 C   0  0  1  0  0  3  0  0  0  0  0  0
  179.6920  182.7110  134.7650 C   0  0  0  0  0  2  0  0  0  0  0  0
  179.3470  181.3160  135.2760 C   0  0  0  0  0  2  0  0  0  0  0  0
  180.4340  180.8240  136.2260 C   0  0  0  0  0  2  0  0  0  0  0  0
  179.8280  183.6780  135.9380 C   0  0  0  0  0  2  0  0  0  0  0  0
  1 12  1  1  0  0  0
  2 13  1  6  0  0  0
  2  8  1  0  0  0  0
  3 11  2  0  0  0  0
  4 14  1  0  0  0  0
  5 10  1  0  0  0  0
  6  5  2  0  0  0  0
  6  2  1  0  0  0  0
  7 16  1  0  0  0  0
  7 17  2  0  0  0  0
  8  1  1  0  0  0  0
  8  3  1  1  0  0  0
  9  4  2  0  0  0  0
 10  1  1  0  0  0  0
 11 18  1  0  0  0  0
 11 15  1  0  0  0  0
 12 18  1  0  0  0  0
 14 15  2  0  0  0  0
 15 21  1  0  0  0  0
 16  9  1  0  0  0  0
 17  3  1  0  0  0  0
 17  4  1  0  0  0  0
 19 20  1  0  0  0  0
 19 25  1  0  0  0  0
 21 24  2  0  0  0  0
 21 23  1  0  0  0  0
 22 20  2  0  0  0  0
 23 19  2  0  0  0  0
 24 22  1  0  0  0  0
 26 27  2  0  0  0  0
 27 16  1  0  0  0  0
 29 26  1  1  0  0  0
 30 29  1  0  0  0  0
 30 28  1  1  0  0  0
 31 32  1  0  0  0  0
 31 34  1  0  0  0  0
 32 33  1  0  0  0  0
 33 29  1  0  0  0  0
 34 30  1  0  0  0  0
M  END
>  <MODEL>
6

>  <REMARK>
 VINA RESULT:      -9.4      5.304      9.280
  Name = 
  3 active torsions:
  status: ('A' for Active; 'I' for Inactive)
    1  A    between atoms: C_3  and  C_13
    2  A    between atoms: C_12  and  C_28
    3  A    between atoms: N_17  and  N_29
                            x       y       z     vdW  Elec       q    Type
                         _______ _______ _______ _____ _____    ______ ____

>  <TORSDO>
F 3

$$$$
=
 OpenBabel11052413553D

 34 39  0  0  1  0  0  0  0  0999 V2000
  187.2780  177.6460  137.6700 C   0  0  1  0  0  3  0  0  0  0  0  0
  188.6520  178.6280  139.3860 C   0  0  1  0  0  3  0  0  0  0  0  0
  186.0640  178.3480  139.7820 C   0  0  0  0  0  0  0  0  0  0  0  0
  184.6780  178.8540  141.7110 C   0  0  0  0  0  0  0  0  0  0  0  0
  189.6930  177.1520  137.7430 C   0  0  0  0  0  3  0  0  0  0  0  0
  189.8040  177.9540  138.7650 N   0  0  0  0  0  0  0  0  0  0  0  0
  186.6550  178.0120  142.2250 C   0  0  0  0  0  3  0  0  0  0  0  0
  187.3640  177.7890  139.1910 C   0  0  1  0  0  3  0  0  0  0  0  0
  184.7550  178.7640  143.0810 C   0  0  0  0  0  3  0  0  0  0  0  0
  188.4050  176.8720  137.1810 N   0  0  0  0  0  2  0  0  0  0  0  0
  184.9220  178.6100  138.9550 C   0  0  0  0  0  0  0  0  0  0  0  0
  185.9440  177.1270  137.2020 C   0  0  0  0  0  2  0  0  0  0  0  0
  189.0010  178.9540  140.8220 C   0  0  0  0  0  1  0  0  0  0  0  0
  183.6050  179.2380  140.9260 C   0  0  0  0  0  3  0  0  0  0  0  0
  183.7180  179.1310  139.5270 C   0  0  0  0  0  0  0  0  0  0  0  0
  185.9740  178.2510  143.3660 N   0  0  0  0  0  0  0  0  0  0  0  0
  185.8570  178.4110  141.1700 C   0  0  0  0  0  0  0  0  0  0  0  0
  184.9490  178.2400  137.4900 C   0  0  0  0  0  2  0  0  0  0  0  0
  181.1790  181.2570  137.6660 C   0  0  0  0  0  0  0  0  0  0  0  0
  180.2860  180.2840  137.2140 C   0  0  0  0  0  3  0  0  0  0  0  0
  182.5470  179.5330  138.7070 C   0  0  0  0  0  0  0  0  0  0  0  0
  180.5120  178.9380  137.5100 C   0  0  0  0  0  3  0  0  0  0  0  0
  182.3000  180.8840  138.4130 C   0  0  0  0  0  3  0  0  0  0  0  0
  181.6340  178.5650  138.2560 C   0  0  0  0  0  3  0  0  0  0  0  0
  180.9570  182.5630  137.3840 F   0  0  0  0  0  0  0  0  0  0  0  0
  187.6810  177.5380  144.8370 C   0  0  0  0  0  3  0  0  0  0  0  0
  186.4770  177.9760  144.6480 N   0  0  0  0  0  0  0  0  0  0  0  0
  190.3720  176.7220  145.4340 F   0  0  0  0  0  0  0  0  0  0  0  0
  188.1780  177.2600  146.2150 C   0  0  1  0  0  3  0  0  0  0  0  0
  189.6790  177.5490  146.2980 C   0  0  1  0  0  3  0  0  0  0  0  0
  189.4200  178.1920  148.7090 C   0  0  0  0  0  2  0  0  0  0  0  0
  187.9300  177.8780  148.6340 C   0  0  0  0  0  2  0  0  0  0  0  0
  187.4150  178.1250  147.2200 C   0  0  0  0  0  2  0  0  0  0  0  0
  190.1880  177.3190  147.7200 C   0  0  0  0  0  2  0  0  0  0  0  0
  1 12  1  1  0  0  0
  1  8  1  0  0  0  0
  2 13  1  1  0  0  0
  3 17  1  0  0  0  0
  4  9  2  0  0  0  0
  5  6  2  0  0  0  0
  6  2  1  0  0  0  0
  7 16  1  0  0  0  0
  8  2  1  0  0  0  0
  8  3  1  6  0  0  0
  9 16  1  0  0  0  0
 10  1  1  0  0  0  0
 10  5  1  0  0  0  0
 11 15  1  0  0  0  0
 11  3  2  0  0  0  0
 12 18  1  0  0  0  0
 14  4  1  0  0  0  0
 15 14  2  0  0  0  0
 16 27  1  0  0  0  0
 17  4  1  0  0  0  0
 17  7  2  0  0  0  0
 18 11  1  0  0  0  0
 19 23  1  0  0  0  0
 20 22  1  0  0  0  0
 20 19  2  0  0  0  0
 21 15  1  0  0  0  0
 22 24  2  0  0  0  0
 23 21  2  0  0  0  0
 24 21  1  0  0  0  0
 25 19  1  0  0  0  0
 27 26  2  0  0  0  0
 29 26  1  6  0  0  0
 29 30  1  0  0  0  0
 29 33  1  0  0  0  0
 30 28  1  6  0  0  0
 30 34  1  0  0  0  0
 32 31  1  0  0  0  0
 33 32  1  0  0  0  0
 34 31  1  0  0  0  0
M  END
>  <MODEL>
7

>  <REMARK>
 VINA RESULT:      -9.4      4.162      8.401
  Name = 
  3 active torsions:
  status: ('A' for Active; 'I' for Inactive)
    1  A    between atoms: C_3  and  C_13
    2  A    between atoms: C_12  and  C_28
    3  A    between atoms: N_17  and  N_29
                            x       y       z     vdW  Elec       q    Type
                         _______ _______ _______ _____ _____    ______ ____

>  <TORSDO>
F 3

$$$$
=
 OpenBabel11052413553D

 34 39  0  0  1  0  0  0  0  0999 V2000
  189.9740  177.0850  139.0820 C   0  0  1  0  0  3  0  0  0  0  0  0
  188.0360  176.3990  137.8320 C   0  0  1  0  0  3  0  0  0  0  0  0
  187.7370  177.7540  140.0690 C   0  0  0  0  0  0  0  0  0  0  0  0
  185.7450  178.5820  141.1840 C   0  0  0  0  0  0  0  0  0  0  0  0
  190.1690  176.6280  136.6660 C   0  0  0  0  0  3  0  0  0  0  0  0
  188.9070  176.3010  136.6500 N   0  0  0  0  0  0  0  0  0  0  0  0
  185.6750  178.7520  138.9810 C   0  0  0  0  0  3  0  0  0  0  0  0
  188.5370  177.5150  138.7820 C   0  0  1  0  0  3  0  0  0  0  0  0
  184.5410  179.1540  140.8430 C   0  0  0  0  0  3  0  0  0  0  0  0
  190.7680  177.1310  137.8670 N   0  0  0  0  0  2  0  0  0  0  0  0
  188.3530  177.6430  141.3600 C   0  0  0  0  0  0  0  0  0  0  0  0
  190.5880  177.8440  140.2290 C   0  0  0  0  0  2  0  0  0  0  0  0
  186.6030  176.5430  137.3640 C   0  0  0  0  0  1  0  0  0  0  0  0
  186.2720  178.3580  142.4430 C   0  0  0  0  0  3  0  0  0  0  0  0
  187.5890  177.8720  142.5490 C   0  0  0  0  0  0  0  0  0  0  0  0
  184.5250  179.2410  139.4920 N   0  0  0  0  0  0  0  0  0  0  0  0
  186.4470  178.3090  140.0380 C   0  0  0  0  0  0  0  0  0  0  0  0
  189.8380  177.3850  141.4700 C   0  0  0  0  0  2  0  0  0  0  0  0
  189.9830  177.0610  145.3840 C   0  0  0  0  0  0  0  0  0  0  0  0
  189.1440  177.1800  146.4940 C   0  0  0  0  0  3  0  0  0  0  0  0
  188.1380  177.6560  143.9110 C   0  0  0  0  0  0  0  0  0  0  0  0
  187.8020  177.5280  146.3200 C   0  0  0  0  0  3  0  0  0  0  0  0
  189.4810  177.2920  144.1000 C   0  0  0  0  0  3  0  0  0  0  0  0
  187.3020  177.7600  145.0350 C   0  0  0  0  0  3  0  0  0  0  0  0
  191.2820  176.7170  145.5520 F   0  0  0  0  0  0  0  0  0  0  0  0
  182.2730  179.3360  138.7840 C   0  0  0  0  0  3  0  0  0  0  0  0
  183.4880  179.7760  138.7100 N   0  0  0  0  0  0  0  0  0  0  0  0
  181.2580  182.0040  139.1280 F   0  0  0  0  0  0  0  0  0  0  0  0
  181.2000  179.9320  137.9370 C   0  0  1  0  0  3  0  0  0  0  0  0
  181.3730  181.4520  137.8650 C   0  0  1  0  0  3  0  0  0  0  0  0
  180.3850  181.4550  135.5610 C   0  0  0  0  0  2  0  0  0  0  0  0
  180.1870  179.9450  135.6420 C   0  0  0  0  0  2  0  0  0  0  0  0
  181.2580  179.3260  136.5330 C   0  0  0  0  0  2  0  0  0  0  0  0
  180.3110  182.0670  136.9570 C   0  0  0  0  0  2  0  0  0  0  0  0
  1 12  1  1  0  0  0
  2 13  1  6  0  0  0
  2  8  1  0  0  0  0
  3 11  2  0  0  0  0
  4 14  1  0  0  0  0
  5 10  1  0  0  0  0
  6  5  2  0  0  0  0
  6  2  1  0  0  0  0
  7 16  1  0  0  0  0
  7 17  2  0  0  0  0
  8  1  1  0  0  0  0
  8  3  1  1  0  0  0
  9  4  2  0  0  0  0
 10  1  1  0  0  0  0
 11 18  1  0  0  0  0
 11 15  1  0  0  0  0
 12 18  1  0  0  0  0
 14 15  2  0  0  0  0
 15 21  1  0  0  0  0
 16  9  1  0  0  0  0
 17  3  1  0  0  0  0
 17  4  1  0  0  0  0
 19 25  1  0  0  0  0
 19 20  1  0  0  0  0
 21 23  1  0  0  0  0
 21 24  2  0  0  0  0
 22 20  2  0  0  0  0
 23 19  2  0  0  0  0
 24 22  1  0  0  0  0
 27 26  2  0  0  0  0
 27 16  1  0  0  0  0
 29 26  1  1  0  0  0
 30 29  1  0  0  0  0
 30 28  1  1  0  0  0
 31 32  1  0  0  0  0
 31 34  1  0  0  0  0
 32 33  1  0  0  0  0
 33 29  1  0  0  0  0
 34 30  1  0  0  0  0
M  END
>  <MODEL>
8

>  <REMARK>
 VINA RESULT:      -9.0      4.515      8.695
  Name = 
  3 active torsions:
  status: ('A' for Active; 'I' for Inactive)
    1  A    between atoms: C_3  and  C_13
    2  A    between atoms: C_12  and  C_28
    3  A    between atoms: N_17  and  N_29
                            x       y       z     vdW  Elec       q    Type
                         _______ _______ _______ _____ _____    ______ ____

>  <TORSDO>
F 3

$$$$
=
 OpenBabel11052413553D

 34 39  0  0  1  0  0  0  0  0999 V2000
  186.8750  177.7050  145.1560 C   0  0  1  0  0  3  0  0  0  0  0  0
  185.2730  179.4680  144.8100 C   0  0  1  0  0  3  0  0  0  0  0  0
  186.3920  178.2910  142.7380 C   0  0  0  0  0  0  0  0  0  0  0  0
  186.0580  178.5970  140.3520 C   0  0  0  0  0  0  0  0  0  0  0  0
  185.2110  178.2140  146.9040 C   0  0  0  0  0  3  0  0  0  0  0  0
  184.7590  179.1840  146.1600 N   0  0  0  0  0  0  0  0  0  0  0  0
  184.1970  178.7120  141.5390 C   0  0  0  0  0  3  0  0  0  0  0  0
  185.8180  178.1740  144.1550 C   0  0  1  0  0  3  0  0  0  0  0  0
  185.0160  178.8230  139.4830 C   0  0  0  0  0  3  0  0  0  0  0  0
  186.2420  177.3490  146.4140 N   0  0  0  0  0  2  0  0  0  0  0  0
  187.7460  177.9160  142.4500 C   0  0  0  0  0  0  0  0  0  0  0  0
  187.7690  176.6260  144.6060 C   0  0  0  0  0  2  0  0  0  0  0  0
  184.1960  180.1870  144.0250 C   0  0  0  0  0  1  0  0  0  0  0  0
  187.3920  178.3670  140.0650 C   0  0  0  0  0  3  0  0  0  0  0  0
  188.2620  178.0310  141.1200 C   0  0  0  0  0  0  0  0  0  0  0  0
  183.8950  178.8920  140.2360 N   0  0  0  0  0  0  0  0  0  0  0  0
  185.5660  178.5470  141.6310 C   0  0  0  0  0  0  0  0  0  0  0  0
  188.6060  177.2980  143.5290 C   0  0  0  0  0  2  0  0  0  0  0  0
  191.4070  177.1520  139.1790 C   0  0  0  0  0  0  0  0  0  0  0  0
  192.3750  177.2160  140.1830 C   0  0  0  0  0  3  0  0  0  0  0  0
  189.6860  177.7720  140.7850 C   0  0  0  0  0  0  0  0  0  0  0  0
  192.0060  177.5480  141.4880 C   0  0  0  0  0  3  0  0  0  0  0  0
  190.0690  177.4240  139.4790 C   0  0  0  0  0  3  0  0  0  0  0  0
  190.6680  177.8210  141.7880 C   0  0  0  0  0  3  0  0  0  0  0  0
  191.7640  176.8230  137.9150 F   0  0  0  0  0  0  0  0  0  0  0  0
  182.3370  179.8890  138.7640 C   0  0  0  0  0  3  0  0  0  0  0  0
  182.5890  179.1000  139.7590 N   0  0  0  0  0  0  0  0  0  0  0  0
  180.3150  181.2860  140.2560 F   0  0  0  0  0  0  0  0  0  0  0  0
  180.9370  180.0810  138.2870 C   0  0  1  0  0  3  0  0  0  0  0  0
  180.3560  181.3700  138.8760 C   0  0  1  0  0  3  0  0  0  0  0  0
  178.9410  181.6670  136.8270 C   0  0  0  0  0  2  0  0  0  0  0  0
  179.4990  180.3690  136.2520 C   0  0  0  0  0  2  0  0  0  0  0  0
  180.9200  180.1420  136.7590 C   0  0  0  0  0  2  0  0  0  0  0  0
  178.9400  181.6040  138.3520 C   0  0  0  0  0  2  0  0  0  0  0  0
  1 12  1  6  0  0  0
  1 10  1  0  0  0  0
  2 13  1  6  0  0  0
  2  6  1  0  0  0  0
  4 17  1  0  0  0  0
  6  5  2  0  0  0  0
  7 17  2  0  0  0  0
  8  3  1  6  0  0  0
  8  2  1  0  0  0  0
  8  1  1  0  0  0  0
  9 16  1  0  0  0  0
  9  4  2  0  0  0  0
 10  5  1  0  0  0  0
 11  3  2  0  0  0  0
 11 18  1  0  0  0  0
 14  4  1  0  0  0  0
 14 15  2  0  0  0  0
 15 11  1  0  0  0  0
 16  7  1  0  0  0  0
 17  3  1  0  0  0  0
 18 12  1  0  0  0  0
 19 23  2  0  0  0  0
 19 20  1  0  0  0  0
 20 22  2  0  0  0  0
 21 15  1  0  0  0  0
 21 24  2  0  0  0  0
 22 24  1  0  0  0  0
 23 21  1  0  0  0  0
 25 19  1  0  0  0  0
 26 27  2  0  0  0  0
 27 16  1  0  0  0  0
 29 26  1  1  0  0  0
 29 30  1  0  0  0  0
 30 28  1  1  0  0  0
 31 34  1  0  0  0  0
 32 33  1  0  0  0  0
 32 31  1  0  0  0  0
 33 29  1  0  0  0  0
 34 30  1  0  0  0  0
M  END
>  <MODEL>
9

>  <REMARK>
 VINA RESULT:      -8.9      4.390      8.973
  Name = 
  3 active torsions:
  status: ('A' for Active; 'I' for Inactive)
    1  A    between atoms: C_3  and  C_13
    2  A    between atoms: C_12  and  C_28
    3  A    between atoms: N_17  and  N_29
                            x       y       z     vdW  Elec       q    Type
                         _______ _______ _______ _____ _____    ______ ____

>  <TORSDO>
F 3

$$$$
