=
 OpenBabel11052413133D

 31 35  0  0  1  0  0  0  0  0999 V2000
  187.3620  177.5670  135.9690 C   0  0  2  0  0  3  0  0  0  0  0  0
  186.2530  178.2990  139.5650 C   0  0  0  0  0  0  0  0  0  0  0  0
  184.7400  178.5280  139.4660 C   0  0  1  0  0  3  0  0  0  0  0  0
  183.4140  176.3740  138.7470 C   0  0  0  0  0  2  0  0  0  0  0  0
  187.0750  178.0990  138.4230 C   0  0  0  0  0  0  0  0  0  0  0  0
  188.8060  178.0160  136.1010 C   0  0  0  0  0  2  0  0  0  0  0  0
  184.0350  177.7340  138.3460 C   0  0  0  0  0  2  0  0  0  0  0  0
  188.2470  178.1800  140.9900 C   0  0  0  0  0  0  0  0  0  0  0  0
  186.8410  177.9260  134.5940 C   0  0  0  0  0  1  0  0  0  0  0  0
  184.7220  179.2290  141.8730 C   0  0  0  0  0  2  0  0  0  0  0  0
  182.5720  176.3790  139.8890 O   0  0  0  0  0  0  0  0  0  0  0  0
  189.0240  177.9040  139.8640 C   0  0  0  0  0  3  0  0  0  0  0  0
  186.8730  178.4140  140.8380 C   0  0  0  0  0  0  0  0  0  0  0  0
  186.5230  178.2730  137.0270 C   0  0  0  0  0  2  0  0  0  0  0  0
  181.8210  177.5700  139.9230 C   0  0  0  0  0  2  0  0  0  0  0  0
  188.4640  177.8880  138.5910 C   0  0  0  0  0  0  0  0  0  0  0  0
  189.3630  177.5410  137.4370 C   0  0  0  0  0  2  0  0  0  0  0  0
  186.1020  178.7820  141.9910 N   0  0  0  0  0  2  0  0  0  0  0  0
  184.0370  178.3750  140.8310 C   0  0  1  0  0  3  0  0  0  0  0  0
  182.5280  178.6200  140.7900 C   0  0  0  0  0  2  0  0  0  0  0  0
  188.2660  176.1080  143.0900 O   0  0  0  0  0  0  0  0  0  0  0  0
  188.8320  177.2160  143.2960 C   0  0  0  0  0  0  0  0  0  0  0  0
  188.8310  178.2460  142.3000 N   0  0  0  0  0  2  0  0  0  0  0  0
  191.1800  176.5180  147.3620 C   0  0  0  0  0  2  0  0  0  0  0  0
  188.4610  177.4520  145.7110 C   0  0  0  0  0  2  0  0  0  0  0  0
  191.5650  176.3310  143.6340 C   0  0  0  0  0  1  0  0  0  0  0  0
  189.6880  176.6050  147.6920 C   0  0  0  0  0  2  0  0  0  0  0  0
  189.0100  177.8230  147.0820 C   0  0  0  0  0  2  0  0  0  0  0  0
  190.6850  176.4940  144.8640 C   0  0  2  0  0  3  0  0  0  0  0  0
  189.5190  177.4740  144.6040 C   0  0  1  0  0  3  0  0  0  0  0  0
  191.5690  177.0400  145.9780 C   0  0  0  0  0  2  0  0  0  0  0  0
  1  9  1  6  0  0  0
  1  6  1  0  0  0  0
  1 14  1  0  0  0  0
  2 13  1  0  0  0  0
  3  7  1  6  0  0  0
  3  2  1  0  0  0  0
  3 19  1  0  0  0  0
  4 11  1  0  0  0  0
  5 16  1  0  0  0  0
  5  2  2  0  0  0  0
  6 17  1  0  0  0  0
  7  4  1  0  0  0  0
  8 23  1  0  0  0  0
 10 18  1  0  0  0  0
 11 15  1  0  0  0  0
 12  8  1  0  0  0  0
 13  8  2  0  0  0  0
 13 18  1  0  0  0  0
 14  5  1  0  0  0  0
 15 20  1  0  0  0  0
 16 12  2  0  0  0  0
 17 16  1  0  0  0  0
 19 20  1  6  0  0  0
 19 10  1  0  0  0  0
 21 22  2  0  0  0  0
 23 22  1  0  0  0  0
 24 27  1  0  0  0  0
 25 28  1  0  0  0  0
 28 27  1  0  0  0  0
 29 26  1  6  0  0  0
 29 31  1  0  0  0  0
 30 22  1  6  0  0  0
 30 29  1  0  0  0  0
 30 25  1  0  0  0  0
 31 24  1  0  0  0  0
M  END
>  <MODEL>
1

>  <REMARK>
 VINA RESULT:      -9.9      0.000      0.000
  Name = 
  2 active torsions:
  status: ('A' for Active; 'I' for Inactive)
    1  A    between atoms: C_9  and  C_22
    2  A    between atoms: C_15  and  N_23
                            x       y       z     vdW  Elec       q    Type
                         _______ _______ _______ _____ _____    ______ ____

>  <TORSDO>
F 2

$$$$
=
 OpenBabel11052413133D

 31 35  0  0  1  0  0  0  0  0999 V2000
  189.4270  176.3800  136.1840 C   0  0  2  0  0  3  0  0  0  0  0  0
  187.1090  177.9010  138.8310 C   0  0  0  0  0  0  0  0  0  0  0  0
  185.8040  178.1980  138.0810 C   0  0  1  0  0  3  0  0  0  0  0  0
  184.5800  176.0280  137.2400 C   0  0  0  0  0  2  0  0  0  0  0  0
  188.2770  177.4210  138.1790 C   0  0  0  0  0  0  0  0  0  0  0  0
  190.7510  176.7570  136.8250 C   0  0  0  0  0  2  0  0  0  0  0  0
  185.4920  177.2360  136.9150 C   0  0  0  0  0  2  0  0  0  0  0  0
  188.3450  177.9550  140.9500 C   0  0  0  0  0  0  0  0  0  0  0  0
  189.5440  176.4810  134.6780 C   0  0  0  0  0  1  0  0  0  0  0  0
  184.9400  179.3780  140.1170 C   0  0  0  0  0  2  0  0  0  0  0  0
  183.3670  176.3190  137.9150 O   0  0  0  0  0  0  0  0  0  0  0  0
  189.4540  177.4070  140.3060 C   0  0  0  0  0  3  0  0  0  0  0  0
  187.1880  178.2360  140.2090 C   0  0  0  0  0  0  0  0  0  0  0  0
  188.3480  177.3380  136.6720 C   0  0  0  0  0  2  0  0  0  0  0  0
  182.8380  177.5360  137.4420 C   0  0  0  0  0  2  0  0  0  0  0  0
  189.4430  177.1640  138.9370 C   0  0  0  0  0  0  0  0  0  0  0  0
  190.6660  176.5320  138.3290 C   0  0  0  0  0  2  0  0  0  0  0  0
  186.0860  178.8800  140.8650 N   0  0  0  0  0  2  0  0  0  0  0  0
  184.6080  178.3710  139.0400 C   0  0  1  0  0  3  0  0  0  0  0  0
  183.2870  178.6950  138.3400 C   0  0  0  0  0  2  0  0  0  0  0  0
  187.9300  176.1130  143.2170 O   0  0  0  0  0  0  0  0  0  0  0  0
  188.1750  177.3300  143.4350 C   0  0  0  0  0  0  0  0  0  0  0  0
  188.3700  178.2520  142.3550 N   0  0  0  0  0  2  0  0  0  0  0  0
  188.9080  177.4970  148.1210 C   0  0  0  0  0  2  0  0  0  0  0  0
  186.8870  177.6620  145.4990 C   0  0  0  0  0  2  0  0  0  0  0  0
  190.6920  177.1150  144.8420 C   0  0  0  0  0  1  0  0  0  0  0  0
  187.4120  177.2700  147.8900 C   0  0  0  0  0  2  0  0  0  0  0  0
  186.8040  178.2520  146.8990 C   0  0  0  0  0  2  0  0  0  0  0  0
  189.4000  177.1690  145.6440 C   0  0  2  0  0  3  0  0  0  0  0  0
  188.2610  177.8370  144.8440 C   0  0  1  0  0  3  0  0  0  0  0  0
  189.6860  177.9850  146.8980 C   0  0  0  0  0  2  0  0  0  0  0  0
  1  9  1  6  0  0  0
  1 14  1  0  0  0  0
  1  6  1  0  0  0  0
  2 13  1  0  0  0  0
  3  7  1  6  0  0  0
  3  2  1  0  0  0  0
  3 19  1  0  0  0  0
  4 11  1  0  0  0  0
  5  2  2  0  0  0  0
  5 16  1  0  0  0  0
  6 17  1  0  0  0  0
  7  4  1  0  0  0  0
  8 23  1  0  0  0  0
 10 18  1  0  0  0  0
 12  8  1  0  0  0  0
 13 18  1  0  0  0  0
 13  8  2  0  0  0  0
 14  5  1  0  0  0  0
 15 11  1  0  0  0  0
 15 20  1  0  0  0  0
 16 12  2  0  0  0  0
 17 16  1  0  0  0  0
 19 20  1  6  0  0  0
 19 10  1  0  0  0  0
 21 22  2  0  0  0  0
 23 22  1  0  0  0  0
 25 28  1  0  0  0  0
 27 24  1  0  0  0  0
 28 27  1  0  0  0  0
 29 26  1  6  0  0  0
 29 31  1  0  0  0  0
 30 22  1  6  0  0  0
 30 25  1  0  0  0  0
 30 29  1  0  0  0  0
 31 24  1  0  0  0  0
M  END
>  <MODEL>
2

>  <REMARK>
 VINA RESULT:      -9.5      1.385      1.850
  Name = 
  2 active torsions:
  status: ('A' for Active; 'I' for Inactive)
    1  A    between atoms: C_9  and  C_22
    2  A    between atoms: C_15  and  N_23
                            x       y       z     vdW  Elec       q    Type
                         _______ _______ _______ _____ _____    ______ ____

>  <TORSDO>
F 2

$$$$
=
 OpenBabel11052413133D

 31 35  0  0  1  0  0  0  0  0999 V2000
  192.1780  175.7240  136.3690 C   0  0  2  0  0  3  0  0  0  0  0  0
  189.0210  177.1080  138.0460 C   0  0  0  0  0  0  0  0  0  0  0  0
  187.9670  177.1320  136.9320 C   0  0  1  0  0  3  0  0  0  0  0  0
  187.3140  174.7340  136.0770 C   0  0  0  0  0  2  0  0  0  0  0  0
  190.3780  176.7550  137.8120 C   0  0  0  0  0  0  0  0  0  0  0  0
  193.2010  176.3550  137.2960 C   0  0  0  0  0  2  0  0  0  0  0  0
  188.1290  176.0320  135.8620 C   0  0  0  0  0  2  0  0  0  0  0  0
  189.5670  177.5430  140.3990 C   0  0  0  0  0  0  0  0  0  0  0  0
  192.7180  175.7030  134.9540 C   0  0  0  0  0  1  0  0  0  0  0  0
  186.4100  178.3470  138.4760 C   0  0  0  0  0  2  0  0  0  0  0  0
  185.9300  174.8960  136.3450 O   0  0  0  0  0  0  0  0  0  0  0  0
  190.8740  177.1140  140.1650 C   0  0  0  0  0  3  0  0  0  0  0  0
  188.6530  177.5760  139.3360 C   0  0  0  0  0  0  0  0  0  0  0  0
  190.8960  176.5460  136.4080 C   0  0  0  0  0  2  0  0  0  0  0  0
  185.4200  175.9690  135.5890 C   0  0  0  0  0  2  0  0  0  0  0  0
  191.2930  176.7490  138.8900 C   0  0  0  0  0  0  0  0  0  0  0  0
  192.7060  176.2590  138.7340 C   0  0  0  0  0  2  0  0  0  0  0  0
  187.3380  178.1010  139.5700 N   0  0  0  0  0  2  0  0  0  0  0  0
  186.5310  177.2080  137.4900 C   0  0  1  0  0  3  0  0  0  0  0  0
  185.4440  177.2610  136.4160 C   0  0  0  0  0  2  0  0  0  0  0  0
  188.5660  175.8870  142.6260 O   0  0  0  0  0  0  0  0  0  0  0  0
  188.6710  177.1350  142.7700 C   0  0  0  0  0  0  0  0  0  0  0  0
  189.1440  177.9680  141.7040 N   0  0  0  0  0  2  0  0  0  0  0  0
  187.7490  177.7330  147.3870 C   0  0  0  0  0  2  0  0  0  0  0  0
  186.7720  177.6970  144.2200 C   0  0  0  0  0  2  0  0  0  0  0  0
  190.5300  176.9910  144.9800 C   0  0  0  0  0  1  0  0  0  0  0  0
  186.4150  177.5240  146.6670 C   0  0  0  0  0  2  0  0  0  0  0  0
  186.2440  178.4210  145.4510 C   0  0  0  0  0  2  0  0  0  0  0  0
  189.0470  177.1560  145.2740 C   0  0  2  0  0  3  0  0  0  0  0  0
  188.2940  177.7730  144.0740 C   0  0  1  0  0  3  0  0  0  0  0  0
  188.9290  178.0810  146.4780 C   0  0  0  0  0  2  0  0  0  0  0  0
  1  9  1  6  0  0  0
  1 14  1  0  0  0  0
  1  6  1  0  0  0  0
  2 13  1  0  0  0  0
  3  7  1  1  0  0  0
  3 19  1  0  0  0  0
  3  2  1  0  0  0  0
  4 11  1  0  0  0  0
  5  2  2  0  0  0  0
  5 16  1  0  0  0  0
  6 17  1  0  0  0  0
  7  4  1  0  0  0  0
  8 23  1  0  0  0  0
 10 18  1  0  0  0  0
 12  8  1  0  0  0  0
 13 18  1  0  0  0  0
 13  8  2  0  0  0  0
 14  5  1  0  0  0  0
 15 11  1  0  0  0  0
 15 20  1  0  0  0  0
 16 12  2  0  0  0  0
 17 16  1  0  0  0  0
 19 20  1  6  0  0  0
 19 10  1  0  0  0  0
 21 22  2  0  0  0  0
 23 22  1  0  0  0  0
 25 28  1  0  0  0  0
 27 24  1  0  0  0  0
 28 27  1  0  0  0  0
 29 26  1  6  0  0  0
 29 31  1  0  0  0  0
 30 22  1  6  0  0  0
 30 25  1  0  0  0  0
 30 29  1  0  0  0  0
 31 24  1  0  0  0  0
M  END
>  <MODEL>
3

>  <REMARK>
 VINA RESULT:      -9.4      2.296      3.743
  Name = 
  2 active torsions:
  status: ('A' for Active; 'I' for Inactive)
    1  A    between atoms: C_9  and  C_22
    2  A    between atoms: C_15  and  N_23
                            x       y       z     vdW  Elec       q    Type
                         _______ _______ _______ _____ _____    ______ ____

>  <TORSDO>
F 2

$$$$
=
 OpenBabel11052413133D

 31 35  0  0  1  0  0  0  0  0999 V2000
  188.8010  177.5350  147.4720 C   0  0  2  0  0  3  0  0  0  0  0  0
  187.8140  177.9840  143.7940 C   0  0  0  0  0  0  0  0  0  0  0  0
  189.1470  178.0350  143.0380 C   0  0  1  0  0  3  0  0  0  0  0  0
  190.4780  175.7690  143.1360 C   0  0  0  0  0  2  0  0  0  0  0  0
  187.7380  177.9300  145.2130 C   0  0  0  0  0  0  0  0  0  0  0  0
  187.5600  178.1480  148.0960 C   0  0  0  0  0  2  0  0  0  0  0  0
  190.2860  177.2090  143.6720 C   0  0  0  0  0  2  0  0  0  0  0  0
  185.3630  178.0470  143.6910 C   0  0  0  0  0  0  0  0  0  0  0  0
  190.0150  177.8860  148.3050 C   0  0  0  0  0  1  0  0  0  0  0  0
  187.9000  178.6310  140.9470 C   0  0  0  0  0  2  0  0  0  0  0  0
  190.5550  175.6280  141.7270 O   0  0  0  0  0  0  0  0  0  0  0  0
  185.3110  177.9110  145.0780 C   0  0  0  0  0  3  0  0  0  0  0  0
  186.6100  178.1200  143.0540 C   0  0  0  0  0  0  0  0  0  0  0  0
  188.9760  178.0930  146.0650 C   0  0  0  0  0  2  0  0  0  0  0  0
  191.2560  176.7180  141.1760 C   0  0  0  0  0  2  0  0  0  0  0  0
  186.4730  177.8790  145.8420 C   0  0  0  0  0  0  0  0  0  0  0  0
  186.3280  177.6890  147.3270 C   0  0  0  0  0  2  0  0  0  0  0  0
  186.6510  178.3480  141.6370 N   0  0  0  0  0  2  0  0  0  0  0  0
  188.9740  177.7440  141.5330 C   0  0  1  0  0  3  0  0  0  0  0  0
  190.2740  177.8090  140.7290 C   0  0  0  0  0  2  0  0  0  0  0  0
  183.1190  179.9420  143.9680 O   0  0  0  0  0  0  0  0  0  0  0  0
  183.0950  179.0700  143.0580 C   0  0  0  0  0  0  0  0  0  0  0  0
  184.1650  178.1280  142.9040 N   0  0  0  0  0  2  0  0  0  0  0  0
  179.2420  177.5090  140.7690 C   0  0  0  0  0  2  0  0  0  0  0  0
  182.4260  178.4290  140.7850 C   0  0  0  0  0  2  0  0  0  0  0  0
  180.4500  178.6280  144.1400 C   0  0  0  0  0  1  0  0  0  0  0  0
  180.4600  177.2140  139.8900 C   0  0  0  0  0  2  0  0  0  0  0  0
  181.3630  178.4220  139.6950 C   0  0  0  0  0  2  0  0  0  0  0  0
  180.7380  178.2180  142.7040 C   0  0  2  0  0  3  0  0  0  0  0  0
  181.9310  179.0030  142.1150 C   0  0  1  0  0  3  0  0  0  0  0  0
  179.4830  178.5170  141.8940 C   0  0  0  0  0  2  0  0  0  0  0  0
  1  6  1  0  0  0  0
  1  9  1  1  0  0  0
  2  5  1  0  0  0  0
  3  7  1  1  0  0  0
  3  2  1  0  0  0  0
  4  7  1  0  0  0  0
  5 16  2  0  0  0  0
  5 14  1  0  0  0  0
  8 12  2  0  0  0  0
 10 19  1  0  0  0  0
 10 18  1  0  0  0  0
 11  4  1  0  0  0  0
 12 16  1  0  0  0  0
 13  8  1  0  0  0  0
 13  2  2  0  0  0  0
 14  1  1  0  0  0  0
 15 11  1  0  0  0  0
 16 17  1  0  0  0  0
 17  6  1  0  0  0  0
 18 13  1  0  0  0  0
 19 20  1  6  0  0  0
 19  3  1  0  0  0  0
 20 15  1  0  0  0  0
 22 21  2  0  0  0  0
 23 22  1  0  0  0  0
 23  8  1  0  0  0  0
 24 31  1  0  0  0  0
 25 30  1  0  0  0  0
 27 24  1  0  0  0  0
 28 27  1  0  0  0  0
 28 25  1  0  0  0  0
 29 26  1  1  0  0  0
 30 29  1  0  0  0  0
 30 22  1  1  0  0  0
 31 29  1  0  0  0  0
M  END
>  <MODEL>
4

>  <REMARK>
 VINA RESULT:      -9.0      2.778      8.725
  Name = 
  2 active torsions:
  status: ('A' for Active; 'I' for Inactive)
    1  A    between atoms: C_9  and  C_22
    2  A    between atoms: C_15  and  N_23
                            x       y       z     vdW  Elec       q    Type
                         _______ _______ _______ _____ _____    ______ ____

>  <TORSDO>
F 2

$$$$
=
 OpenBabel11052413133D

 31 35  0  0  1  0  0  0  0  0999 V2000
  185.2200  178.2550  145.8500 C   0  0  2  0  0  3  0  0  0  0  0  0
  186.6570  178.3820  142.2980 C   0  0  0  0  0  0  0  0  0  0  0  0
  188.1730  178.2530  142.4870 C   0  0  1  0  0  3  0  0  0  0  0  0
  188.8980  175.9180  143.4550 C   0  0  0  0  0  2  0  0  0  0  0  0
  185.7530  178.4850  143.3900 C   0  0  0  0  0  0  0  0  0  0  0  0
  183.9370  179.0200  145.5830 C   0  0  0  0  0  2  0  0  0  0  0  0
  188.6060  177.4170  143.7100 C   0  0  0  0  0  2  0  0  0  0  0  0
  184.7690  178.6150  140.7470 C   0  0  0  0  0  0  0  0  0  0  0  0
  185.7410  178.6000  147.2290 C   0  0  0  0  0  1  0  0  0  0  0  0
  188.4840  178.7150  140.0430 C   0  0  0  0  0  2  0  0  0  0  0  0
  189.7740  175.6220  142.3790 O   0  0  0  0  0  0  0  0  0  0  0  0
  183.8920  178.6320  141.8320 C   0  0  0  0  0  3  0  0  0  0  0  0
  186.1490  178.5280  140.9790 C   0  0  0  0  0  0  0  0  0  0  0  0
  186.2580  178.6450  144.8050 C   0  0  0  0  0  2  0  0  0  0  0  0
  190.7920  176.5930  142.3110 C   0  0  0  0  0  2  0  0  0  0  0  0
  184.3650  178.5960  143.1400 C   0  0  0  0  0  0  0  0  0  0  0  0
  183.3510  178.5750  144.2500 C   0  0  0  0  0  2  0  0  0  0  0  0
  187.0450  178.5990  139.8600 N   0  0  0  0  0  2  0  0  0  0  0  0
  188.8870  177.8170  141.1910 C   0  0  1  0  0  3  0  0  0  0  0  0
  190.4060  177.7000  141.3220 C   0  0  0  0  0  2  0  0  0  0  0  0
  183.1200  176.6680  139.2660 O   0  0  0  0  0  0  0  0  0  0  0  0
  183.4770  177.7410  138.7090 C   0  0  0  0  0  0  0  0  0  0  0  0
  184.2870  178.7010  139.3970 N   0  0  0  0  0  2  0  0  0  0  0  0
  180.9030  177.9040  134.7240 C   0  0  0  0  0  2  0  0  0  0  0  0
  183.5760  176.8960  136.4060 C   0  0  0  0  0  2  0  0  0  0  0  0
  181.0050  179.1720  138.2540 C   0  0  0  0  0  1  0  0  0  0  0  0
  181.8870  176.7380  134.5980 C   0  0  0  0  0  2  0  0  0  0  0  0
  183.3210  177.1270  134.9230 C   0  0  0  0  0  2  0  0  0  0  0  0
  181.5330  178.2480  137.1670 C   0  0  2  0  0  3  0  0  0  0  0  0
  183.0560  178.0270  137.2970 C   0  0  1  0  0  3  0  0  0  0  0  0
  181.2280  178.9090  135.8290 C   0  0  0  0  0  2  0  0  0  0  0  0
  1  9  1  1  0  0  0
  2  3  1  0  0  0  0
  2  5  1  0  0  0  0
  3  7  1  1  0  0  0
  4  7  1  0  0  0  0
  5 14  1  0  0  0  0
  6  1  1  0  0  0  0
  8 13  1  0  0  0  0
  8 12  2  0  0  0  0
 11  4  1  0  0  0  0
 12 16  1  0  0  0  0
 13  2  2  0  0  0  0
 14  1  1  0  0  0  0
 15 11  1  0  0  0  0
 16  5  2  0  0  0  0
 16 17  1  0  0  0  0
 17  6  1  0  0  0  0
 18 10  1  0  0  0  0
 18 13  1  0  0  0  0
 19 10  1  6  0  0  0
 19 20  1  0  0  0  0
 19  3  1  0  0  0  0
 20 15  1  0  0  0  0
 22 21  2  0  0  0  0
 22 23  1  0  0  0  0
 23  8  1  0  0  0  0
 24 31  1  0  0  0  0
 25 30  1  0  0  0  0
 27 24  1  0  0  0  0
 27 28  1  0  0  0  0
 28 25  1  0  0  0  0
 29 30  1  0  0  0  0
 29 26  1  1  0  0  0
 30 22  1  1  0  0  0
 31 29  1  0  0  0  0
M  END
>  <MODEL>
5

>  <REMARK>
 VINA RESULT:      -8.9      2.447      9.040
  Name = 
  2 active torsions:
  status: ('A' for Active; 'I' for Inactive)
    1  A    between atoms: C_9  and  C_22
    2  A    between atoms: C_15  and  N_23
                            x       y       z     vdW  Elec       q    Type
                         _______ _______ _______ _____ _____    ______ ____

>  <TORSDO>
F 2

$$$$
=
 OpenBabel11052413133D

 31 35  0  0  1  0  0  0  0  0999 V2000
  190.5980  177.2870  138.8200 C   0  0  2  0  0  3  0  0  0  0  0  0
  188.3090  177.6050  141.8780 C   0  0  0  0  0  0  0  0  0  0  0  0
  189.1390  177.0560  143.0450 C   0  0  1  0  0  3  0  0  0  0  0  0
  191.2500  178.5260  143.5910 C   0  0  0  0  0  2  0  0  0  0  0  0
  188.7600  177.5690  140.5310 C   0  0  0  0  0  0  0  0  0  0  0  0
  189.5170  177.2090  137.7570 C   0  0  0  0  0  2  0  0  0  0  0  0
  190.6630  177.2650  142.9120 C   0  0  0  0  0  2  0  0  0  0  0  0
  186.1970  178.5980  141.1180 C   0  0  0  0  0  0  0  0  0  0  0  0
  191.7540  176.3860  138.4360 C   0  0  0  0  0  1  0  0  0  0  0  0
  187.1190  177.2210  144.5190 C   0  0  0  0  0  2  0  0  0  0  0  0
  190.8860  178.7380  144.9460 O   0  0  0  0  0  0  0  0  0  0  0  0
  186.6910  178.6280  139.8140 C   0  0  0  0  0  3  0  0  0  0  0  0
  186.9870  178.0550  142.1410 C   0  0  0  0  0  0  0  0  0  0  0  0
  190.0200  176.8260  140.1520 C   0  0  0  0  0  2  0  0  0  0  0  0
  190.8170  177.5030  145.6200 C   0  0  0  0  0  2  0  0  0  0  0  0
  187.9410  178.1000  139.5060 C   0  0  0  0  0  0  0  0  0  0  0  0
  188.4160  178.2100  138.0840 C   0  0  0  0  0  2  0  0  0  0  0  0
  186.4340  177.9500  143.4610 N   0  0  0  0  0  2  0  0  0  0  0  0
  188.5970  177.5170  144.4140 C   0  0  1  0  0  3  0  0  0  0  0  0
  189.3770  176.9730  145.6110 C   0  0  0  0  0  2  0  0  0  0  0  0
  183.5990  177.2330  140.8180 O   0  0  0  0  0  0  0  0  0  0  0  0
  183.6420  178.4040  141.2830 C   0  0  0  0  0  0  0  0  0  0  0  0
  184.8870  179.0980  141.4310 N   0  0  0  0  0  2  0  0  0  0  0  0
  179.4110  179.2560  143.2570 C   0  0  0  0  0  2  0  0  0  0  0  0
  181.3360  178.8730  140.5850 C   0  0  0  0  0  2  0  0  0  0  0  0
  183.0140  178.6280  144.0970 C   0  0  0  0  0  1  0  0  0  0  0  0
  179.1740  178.8520  141.7990 C   0  0  0  0  0  2  0  0  0  0  0  0
  180.0350  179.6300  140.8160 C   0  0  0  0  0  2  0  0  0  0  0  0
  181.8800  178.6580  143.0830 C   0  0  2  0  0  3  0  0  0  0  0  0
  182.3750  179.0970  141.6870 C   0  0  1  0  0  3  0  0  0  0  0  0
  180.8490  179.6550  143.5930 C   0  0  0  0  0  2  0  0  0  0  0  0
  1  9  1  6  0  0  0
  1 14  1  0  0  0  0
  2 13  1  0  0  0  0
  2  3  1  0  0  0  0
  3  7  1  6  0  0  0
  3 19  1  0  0  0  0
  4 11  1  0  0  0  0
  5  2  2  0  0  0  0
  6 17  1  0  0  0  0
  6  1  1  0  0  0  0
  7  4  1  0  0  0  0
  8 23  1  0  0  0  0
  8 13  2  0  0  0  0
 11 15  1  0  0  0  0
 12  8  1  0  0  0  0
 13 18  1  0  0  0  0
 14  5  1  0  0  0  0
 16 12  2  0  0  0  0
 16  5  1  0  0  0  0
 17 16  1  0  0  0  0
 18 10  1  0  0  0  0
 19 10  1  1  0  0  0
 19 20  1  0  0  0  0
 20 15  1  0  0  0  0
 21 22  2  0  0  0  0
 22 23  1  0  0  0  0
 24 31  1  0  0  0  0
 25 28  1  0  0  0  0
 25 30  1  0  0  0  0
 27 24  1  0  0  0  0
 28 27  1  0  0  0  0
 29 31  1  0  0  0  0
 29 26  1  1  0  0  0
 30 22  1  6  0  0  0
 30 29  1  0  0  0  0
M  END
>  <MODEL>
6

>  <REMARK>
 VINA RESULT:      -8.8      1.988      7.177
  Name = 
  2 active torsions:
  status: ('A' for Active; 'I' for Inactive)
    1  A    between atoms: C_9  and  C_22
    2  A    between atoms: C_15  and  N_23
                            x       y       z     vdW  Elec       q    Type
                         _______ _______ _______ _____ _____    ______ ____

>  <TORSDO>
F 2

$$$$
=
 OpenBabel11052413133D

 31 35  0  0  1  0  0  0  0  0999 V2000
  189.5370  176.9610  136.5400 C   0  0  2  0  0  3  0  0  0  0  0  0
  187.4000  178.0740  139.5220 C   0  0  0  0  0  0  0  0  0  0  0  0
  186.1140  178.6240  138.8940 C   0  0  1  0  0  3  0  0  0  0  0  0
  184.6960  176.7840  137.6630 C   0  0  0  0  0  2  0  0  0  0  0  0
  188.5130  177.6500  138.7450 C   0  0  0  0  0  0  0  0  0  0  0  0
  190.8980  177.0880  137.2000 C   0  0  0  0  0  2  0  0  0  0  0  0
  185.7020  177.9570  137.5650 C   0  0  0  0  0  2  0  0  0  0  0  0
  188.6710  177.5840  141.5630 C   0  0  0  0  0  0  0  0  0  0  0  0
  189.6380  177.3650  135.0850 C   0  0  0  0  0  1  0  0  0  0  0  0
  185.3870  179.4170  141.1590 C   0  0  0  0  0  2  0  0  0  0  0  0
  183.5240  177.0230  138.4240 O   0  0  0  0  0  0  0  0  0  0  0  0
  189.7190  177.0960  140.7830 C   0  0  0  0  0  3  0  0  0  0  0  0
  187.5310  178.1060  140.9360 C   0  0  0  0  0  0  0  0  0  0  0  0
  188.5520  177.8790  137.2520 C   0  0  0  0  0  2  0  0  0  0  0  0
  183.0920  178.3500  138.2320 C   0  0  0  0  0  2  0  0  0  0  0  0
  189.6650  177.1470  139.3930 C   0  0  0  0  0  0  0  0  0  0  0  0
  190.8190  176.5610  138.6270 C   0  0  0  0  0  2  0  0  0  0  0  0
  186.4980  178.6840  141.7480 N   0  0  0  0  0  2  0  0  0  0  0  0
  184.9530  178.6890  139.9080 C   0  0  1  0  0  3  0  0  0  0  0  0
  183.6530  179.2560  139.3360 C   0  0  0  0  0  2  0  0  0  0  0  0
  187.6310  175.5580  143.4390 O   0  0  0  0  0  0  0  0  0  0  0  0
  188.2370  176.5700  143.8820 C   0  0  0  0  0  0  0  0  0  0  0  0
  188.7440  177.5770  142.9980 N   0  0  0  0  0  2  0  0  0  0  0  0
  188.5690  178.5540  148.1810 C   0  0  0  0  0  2  0  0  0  0  0  0
  189.9280  176.9430  145.6220 C   0  0  0  0  0  2  0  0  0  0  0  0
  186.1260  177.7890  145.4380 C   0  0  0  0  0  1  0  0  0  0  0  0
  189.9880  178.4040  147.6240 C   0  0  0  0  0  2  0  0  0  0  0  0
  190.2800  177.0060  147.1020 C   0  0  0  0  0  2  0  0  0  0  0  0
  187.5570  177.8670  145.9480 C   0  0  2  0  0  3  0  0  0  0  0  0
  188.4330  176.7390  145.3590 C   0  0  1  0  0  3  0  0  0  0  0  0
  187.5010  177.7280  147.4630 C   0  0  0  0  0  2  0  0  0  0  0  0
  1  9  1  6  0  0  0
  1  6  1  0  0  0  0
  1 14  1  0  0  0  0
  2 13  1  0  0  0  0
  3  7  1  6  0  0  0
  3  2  1  0  0  0  0
  3 19  1  0  0  0  0
  4 11  1  0  0  0  0
  5 16  1  0  0  0  0
  5  2  2  0  0  0  0
  6 17  1  0  0  0  0
  7  4  1  0  0  0  0
  8 23  1  0  0  0  0
 10 18  1  0  0  0  0
 12  8  1  0  0  0  0
 13  8  2  0  0  0  0
 13 18  1  0  0  0  0
 14  5  1  0  0  0  0
 15 11  1  0  0  0  0
 15 20  1  0  0  0  0
 16 12  2  0  0  0  0
 17 16  1  0  0  0  0
 19 20  1  6  0  0  0
 19 10  1  0  0  0  0
 21 22  2  0  0  0  0
 23 22  1  0  0  0  0
 25 28  1  0  0  0  0
 27 24  1  0  0  0  0
 28 27  1  0  0  0  0
 29 26  1  6  0  0  0
 29 31  1  0  0  0  0
 30 22  1  6  0  0  0
 30 25  1  0  0  0  0
 30 29  1  0  0  0  0
 31 24  1  0  0  0  0
M  END
>  <MODEL>
7

>  <REMARK>
 VINA RESULT:      -8.6      1.376      2.234
  Name = 
  2 active torsions:
  status: ('A' for Active; 'I' for Inactive)
    1  A    between atoms: C_9  and  C_22
    2  A    between atoms: C_15  and  N_23
                            x       y       z     vdW  Elec       q    Type
                         _______ _______ _______ _____ _____    ______ ____

>  <TORSDO>
F 2

$$$$
=
 OpenBabel11052413133D

 31 35  0  0  1  0  0  0  0  0999 V2000
  189.8230  177.1700  147.1770 C   0  0  2  0  0  3  0  0  0  0  0  0
  188.1320  177.9180  143.8190 C   0  0  0  0  0  0  0  0  0  0  0  0
  189.2920  178.1470  142.8430 C   0  0  1  0  0  3  0  0  0  0  0  0
  190.7400  175.9910  142.4350 C   0  0  0  0  0  2  0  0  0  0  0  0
  188.3300  177.7130  145.2120 C   0  0  0  0  0  0  0  0  0  0  0  0
  188.6920  177.6200  148.0850 C   0  0  0  0  0  2  0  0  0  0  0  0
  190.5740  177.3500  143.1590 C   0  0  0  0  0  2  0  0  0  0  0  0
  185.7060  177.8040  144.1740 C   0  0  0  0  0  0  0  0  0  0  0  0
  191.1530  177.5240  147.8090 C   0  0  0  0  0  1  0  0  0  0  0  0
  187.6380  178.8590  141.0980 C   0  0  0  0  0  2  0  0  0  0  0  0
  190.5550  176.0010  141.0280 O   0  0  0  0  0  0  0  0  0  0  0  0
  185.9260  177.5230  145.5230 C   0  0  0  0  0  3  0  0  0  0  0  0
  186.8030  178.0380  143.3320 C   0  0  0  0  0  0  0  0  0  0  0  0
  189.6960  177.8810  145.8360 C   0  0  0  0  0  2  0  0  0  0  0  0
  191.0770  177.1930  140.4870 C   0  0  0  0  0  2  0  0  0  0  0  0
  187.2120  177.5020  146.0530 C   0  0  0  0  0  0  0  0  0  0  0  0
  187.3640  177.1500  147.5070 C   0  0  0  0  0  2  0  0  0  0  0  0
  186.5610  178.4120  141.9680 N   0  0  0  0  0  2  0  0  0  0  0  0
  188.8510  178.0000  141.3710 C   0  0  1  0  0  3  0  0  0  0  0  0
  189.9690  178.2460  140.3560 C   0  0  0  0  0  2  0  0  0  0  0  0
  183.9290  180.1520  143.9930 O   0  0  0  0  0  0  0  0  0  0  0  0
  183.5420  179.0370  143.5510 C   0  0  0  0  0  0  0  0  0  0  0  0
  184.3770  177.8750  143.6350 N   0  0  0  0  0  2  0  0  0  0  0  0
  179.7820  179.7890  140.7540 C   0  0  0  0  0  2  0  0  0  0  0  0
  181.2010  179.7510  143.7500 C   0  0  0  0  0  2  0  0  0  0  0  0
  183.3490  178.6260  140.6960 C   0  0  0  0  0  1  0  0  0  0  0  0
  179.5250  180.5020  142.0850 C   0  0  0  0  0  2  0  0  0  0  0  0
  179.7550  179.6100  143.2950 C   0  0  0  0  0  2  0  0  0  0  0  0
  182.1820  179.2700  141.4290 C   0  0  2  0  0  3  0  0  0  0  0  0
  182.1830  178.9080  142.9300 C   0  0  1  0  0  3  0  0  0  0  0  0
  180.9050  178.7510  140.7810 C   0  0  0  0  0  2  0  0  0  0  0  0
  1  9  1  1  0  0  0
  1  6  1  0  0  0  0
  2  5  1  0  0  0  0
  3  7  1  1  0  0  0
  3  2  1  0  0  0  0
  4  7  1  0  0  0  0
  5 14  1  0  0  0  0
  5 16  2  0  0  0  0
  8 12  2  0  0  0  0
 10 19  1  0  0  0  0
 10 18  1  0  0  0  0
 11  4  1  0  0  0  0
 12 16  1  0  0  0  0
 13  2  2  0  0  0  0
 13  8  1  0  0  0  0
 14  1  1  0  0  0  0
 15 11  1  0  0  0  0
 16 17  1  0  0  0  0
 17  6  1  0  0  0  0
 18 13  1  0  0  0  0
 19 20  1  6  0  0  0
 19  3  1  0  0  0  0
 20 15  1  0  0  0  0
 22 23  1  0  0  0  0
 22 21  2  0  0  0  0
 23  8  1  0  0  0  0
 24 31  1  0  0  0  0
 24 27  1  0  0  0  0
 27 28  1  0  0  0  0
 28 25  1  0  0  0  0
 29 26  1  6  0  0  0
 29 30  1  0  0  0  0
 30 22  1  1  0  0  0
 30 25  1  0  0  0  0
 31 29  1  0  0  0  0
M  END
>  <MODEL>
8

>  <REMARK>
 VINA RESULT:      -8.5      2.714      8.470
  Name = 
  2 active torsions:
  status: ('A' for Active; 'I' for Inactive)
    1  A    between atoms: C_9  and  C_22
    2  A    between atoms: C_15  and  N_23
                            x       y       z     vdW  Elec       q    Type
                         _______ _______ _______ _____ _____    ______ ____

>  <TORSDO>
F 2

$$$$
=
 OpenBabel11052413133D

 31 35  0  0  1  0  0  0  0  0999 V2000
  186.9310  177.7620  147.0360 C   0  0  2  0  0  3  0  0  0  0  0  0
  186.9910  178.3280  143.2450 C   0  0  0  0  0  0  0  0  0  0  0  0
  188.4680  178.1920  142.8550 C   0  0  1  0  0  3  0  0  0  0  0  0
  189.4130  175.7650  143.2190 C   0  0  0  0  0  2  0  0  0  0  0  0
  186.5470  178.2900  144.5950 C   0  0  0  0  0  0  0  0  0  0  0  0
  185.6650  178.5420  147.3430 C   0  0  0  0  0  2  0  0  0  0  0  0
  189.2850  177.2200  143.7330 C   0  0  0  0  0  2  0  0  0  0  0  0
  184.6800  178.7260  142.5230 C   0  0  0  0  0  0  0  0  0  0  0  0
  187.9270  177.9460  148.1620 C   0  0  0  0  0  1  0  0  0  0  0  0
  187.8910  178.9450  140.5350 C   0  0  0  0  0  2  0  0  0  0  0  0
  189.8300  175.6080  141.8720 O   0  0  0  0  0  0  0  0  0  0  0  0
  184.2550  178.6050  143.8460 C   0  0  0  0  0  3  0  0  0  0  0  0
  186.0470  178.6250  142.2270 C   0  0  0  0  0  0  0  0  0  0  0  0
  187.5340  178.2850  145.7390 C   0  0  0  0  0  2  0  0  0  0  0  0
  190.7880  176.5900  141.5510 C   0  0  0  0  0  2  0  0  0  0  0  0
  185.1670  178.4170  144.8800 C   0  0  0  0  0  0  0  0  0  0  0  0
  184.6220  178.2540  146.2720 C   0  0  0  0  0  2  0  0  0  0  0  0
  186.4800  178.8390  140.8750 N   0  0  0  0  0  2  0  0  0  0  0  0
  188.6500  177.9210  141.3470 C   0  0  1  0  0  3  0  0  0  0  0  0
  190.1080  177.8040  140.9040 C   0  0  0  0  0  2  0  0  0  0  0  0
  183.1380  176.7570  140.9580 O   0  0  0  0  0  0  0  0  0  0  0  0
  183.0030  177.9880  140.7240 C   0  0  0  0  0  0  0  0  0  0  0  0
  183.7460  178.9690  141.4590 N   0  0  0  0  0  2  0  0  0  0  0  0
  181.1790  180.3710  137.0470 C   0  0  0  0  0  2  0  0  0  0  0  0
  181.1550  179.5340  140.2540 C   0  0  0  0  0  2  0  0  0  0  0  0
  183.8720  177.9250  137.9670 C   0  0  0  0  0  1  0  0  0  0  0  0
  180.6470  181.0130  138.3300 C   0  0  0  0  0  2  0  0  0  0  0  0
  180.0610  180.0030  139.3050 C   0  0  0  0  0  2  0  0  0  0  0  0
  182.7850  178.9080  138.3750 C   0  0  2  0  0  3  0  0  0  0  0  0
  182.0550  178.4490  139.6570 C   0  0  1  0  0  3  0  0  0  0  0  0
  181.7910  178.9810  137.2230 C   0  0  0  0  0  2  0  0  0  0  0  0
  1  6  1  0  0  0  0
  1  9  1  1  0  0  0
  2  5  1  0  0  0  0
  3  2  1  0  0  0  0
  3  7  1  1  0  0  0
  4  7  1  0  0  0  0
  5 16  2  0  0  0  0
  5 14  1  0  0  0  0
  8 12  2  0  0  0  0
 10 18  1  0  0  0  0
 11  4  1  0  0  0  0
 12 16  1  0  0  0  0
 13  8  1  0  0  0  0
 13  2  2  0  0  0  0
 14  1  1  0  0  0  0
 15 11  1  0  0  0  0
 16 17  1  0  0  0  0
 17  6  1  0  0  0  0
 18 13  1  0  0  0  0
 19 10  1  6  0  0  0
 19  3  1  0  0  0  0
 20 19  1  0  0  0  0
 20 15  1  0  0  0  0
 22 21  2  0  0  0  0
 22 23  1  0  0  0  0
 23  8  1  0  0  0  0
 24 31  1  0  0  0  0
 24 27  1  0  0  0  0
 27 28  1  0  0  0  0
 28 25  1  0  0  0  0
 29 26  1  6  0  0  0
 29 30  1  0  0  0  0
 30 25  1  0  0  0  0
 30 22  1  1  0  0  0
 31 29  1  0  0  0  0
M  END
>  <MODEL>
9

>  <REMARK>
 VINA RESULT:      -8.5      2.311      8.725
  Name = 
  2 active torsions:
  status: ('A' for Active; 'I' for Inactive)
    1  A    between atoms: C_9  and  C_22
    2  A    between atoms: C_15  and  N_23
                            x       y       z     vdW  Elec       q    Type
                         _______ _______ _______ _____ _____    ______ ____

>  <TORSDO>
F 2

$$$$
