=
 OpenBabel11052413223D

 28 34  0  0  1  0  0  0  0  0999 V2000
  187.6660  177.8590  145.0020 C   0  0  1  0  0  3  0  0  0  0  0  0
  185.4850  177.9770  142.1690 C   0  0  2  0  0  3  0  0  0  0  0  0
  184.7540  179.1520  144.3240 C   0  0  0  0  0  2  0  0  0  0  0  0
  187.3440  177.3870  143.7020 O   0  0  0  0  0  0  0  0  0  0  0  0
  185.4880  179.1630  145.7010 C   0  0  0  0  0  2  0  0  0  0  0  0
  186.6850  178.8110  141.7870 C   0  0  1  0  0  3  0  0  0  0  0  0
  185.1360  177.9560  143.6000 N   0  0  2  0  0  0  0  0  0  0  0  0
  186.4420  177.9550  145.9690 C   0  0  0  0  0  2  0  0  0  0  0  0
  186.4850  178.3650  143.2190 C   0  0  1  0  0  0  0  0  0  0  0  0
  191.6000  177.6170  141.0610 C   0  0  0  0  0  3  0  0  0  0  0  0
  189.9650  177.6430  139.1760 C   0  0  1  0  0  3  0  0  0  0  0  0
  189.2280  178.2550  141.4920 C   0  0  0  0  0  2  0  0  0  0  0  0
  192.3050  176.8800  138.8380 C   0  0  0  0  0  0  0  0  0  0  0  0
  190.1680  177.3820  140.6720 C   0  0  2  0  0  3  0  0  0  0  0  0
  187.6570  178.3240  139.5740 N   0  0  0  0  0  2  0  0  0  0  0  0
  190.8850  176.7330  138.3650 C   0  0  0  0  0  2  0  0  0  0  0  0
  188.5040  177.3980  138.8240 C   0  0  0  0  0  2  0  0  0  0  0  0
  193.2540  176.5800  138.0680 O   0  0  0  0  0  0  0  0  0  0  0  0
  192.5940  177.3480  140.2080 C   0  0  0  0  0  3  0  0  0  0  0  0
  187.7800  178.0460  141.0090 C   0  0  2  0  0  3  0  0  0  0  0  0
  188.6380  177.0280  145.5640 O   0  0  0  0  0  0  0  0  0  0  0  0
  189.5840  177.8970  146.1250 C   0  0  2  0  0  3  0  0  0  0  0  0
  191.5680  176.3070  145.0340 C   0  0  0  0  0  2  0  0  0  0  0  0
  190.4060  178.5830  145.0260 C   0  0  0  0  0  2  0  0  0  0  0  0
  190.4190  175.6860  147.1360 C   0  0  0  0  0  2  0  0  0  0  0  0
  190.4850  177.2050  147.1750 C   0  0  1  0  0  3  0  0  0  0  0  0
  191.6300  176.3860  146.5590 C   0  0  2  0  0  3  0  0  0  0  0  0
  191.5110  177.7050  144.4250 C   0  0  0  0  0  2  0  0  0  0  0  0
  1 21  1  1  0  0  0
  1  8  1  0  0  0  0
  2  9  1  0  0  0  0
  2  7  1  0  0  0  0
  3  5  1  0  0  0  0
  4  1  1  0  0  0  0
  5  8  1  0  0  0  0
  6  2  1  0  0  0  0
  6  9  1  0  0  0  0
  7  3  1  0  0  0  0
  9  7  1  0  0  0  0
  9  4  1  0  0  0  0
 11 14  1  0  0  0  0
 13 19  1  0  0  0  0
 14 10  1  0  0  0  0
 14 12  1  0  0  0  0
 15 20  1  0  0  0  0
 16 13  1  0  0  0  0
 16 11  1  0  0  0  0
 17 11  1  0  0  0  0
 17 15  1  0  0  0  0
 18 13  2  0  0  0  0
 19 10  2  0  0  0  0
 20 12  1  0  0  0  0
 20  6  1  0  0  0  0
 21 22  1  0  0  0  0
 22 26  1  0  0  0  0
 23 27  1  0  0  0  0
 24 22  1  0  0  0  0
 25 26  1  0  0  0  0
 27 25  1  0  0  0  0
 27 26  1  0  0  0  0
 28 24  1  0  0  0  0
 28 23  1  0  0  0  0
M  END
>  <MODEL>
1

>  <REMARK>
 VINA RESULT:      -9.0      0.000      0.000
  Name = 
  3 active torsions:
  status: ('A' for Active; 'I' for Inactive)
    1  A    between atoms: C_1  and  O_2
    2  A    between atoms: O_2  and  C_3
    3  A    between atoms: C_20  and  C_25
                            x       y       z     vdW  Elec       q    Type
                         _______ _______ _______ _____ _____    ______ ____

>  <TORSDO>
F 3

$$$$
=
 OpenBabel11052413223D

 28 34  0  0  1  0  0  0  0  0999 V2000
  187.4700  177.6790  144.2600 C   0  0  1  0  0  3  0  0  0  0  0  0
  184.4360  178.3500  142.4860 C   0  0  2  0  0  3  0  0  0  0  0  0
  184.6770  179.2390  144.8760 C   0  0  0  0  0  2  0  0  0  0  0  0
  186.6450  177.4240  143.1310 O   0  0  0  0  0  0  0  0  0  0  0  0
  185.8590  179.0020  145.8680 C   0  0  0  0  0  2  0  0  0  0  0  0
  185.5010  179.1530  141.7780 C   0  0  1  0  0  3  0  0  0  0  0  0
  184.6320  178.1410  143.9310 N   0  0  2  0  0  0  0  0  0  0  0  0
  186.7000  177.7090  145.6200 C   0  0  0  0  0  2  0  0  0  0  0  0
  185.7870  178.5150  143.1200 C   0  0  1  0  0  0  0  0  0  0  0  0
  189.6420  177.8210  139.0960 C   0  0  0  0  0  3  0  0  0  0  0  0
  187.4270  178.1740  138.0000 C   0  0  1  0  0  3  0  0  0  0  0  0
  187.6800  178.5140  140.4710 C   0  0  0  0  0  2  0  0  0  0  0  0
  189.3830  177.3460  136.7100 C   0  0  0  0  0  0  0  0  0  0  0  0
  188.1530  177.7110  139.2680 C   0  0  2  0  0  3  0  0  0  0  0  0
  185.5160  178.9110  139.3250 N   0  0  0  0  0  2  0  0  0  0  0  0
  187.8820  177.3330  136.8100 C   0  0  0  0  0  2  0  0  0  0  0  0
  185.9250  178.0500  138.2160 C   0  0  0  0  0  2  0  0  0  0  0  0
  189.9370  177.1020  135.6080 O   0  0  0  0  0  0  0  0  0  0  0  0
  190.2100  177.6170  137.9030 C   0  0  0  0  0  3  0  0  0  0  0  0
  186.1430  178.4420  140.5640 C   0  0  2  0  0  3  0  0  0  0  0  0
  188.4780  176.7140  144.3180 O   0  0  0  0  0  0  0  0  0  0  0  0
  189.2870  176.9610  143.1990 C   0  0  2  0  0  3  0  0  0  0  0  0
  191.4980  176.5680  144.8150 C   0  0  0  0  0  2  0  0  0  0  0  0
  190.1110  175.7180  142.8430 C   0  0  0  0  0  2  0  0  0  0  0  0
  190.2690  178.7150  144.8010 C   0  0  0  0  0  2  0  0  0  0  0  0
  190.1740  178.2170  143.3670 C   0  0  1  0  0  3  0  0  0  0  0  0
  191.4400  177.9670  144.2030 C   0  0  2  0  0  3  0  0  0  0  0  0
  191.3420  175.5020  143.7330 C   0  0  0  0  0  2  0  0  0  0  0  0
  1 21  1  1  0  0  0
  1  8  1  0  0  0  0
  2  9  1  0  0  0  0
  2  7  1  0  0  0  0
  3  5  1  0  0  0  0
  4  1  1  0  0  0  0
  6  2  1  0  0  0  0
  6  9  1  0  0  0  0
  7  3  1  0  0  0  0
  8  5  1  0  0  0  0
  9  4  1  0  0  0  0
  9  7  1  0  0  0  0
 10 14  1  0  0  0  0
 11 17  1  0  0  0  0
 11 14  1  0  0  0  0
 12 20  1  0  0  0  0
 13 16  1  0  0  0  0
 13 19  1  0  0  0  0
 14 12  1  0  0  0  0
 15 20  1  0  0  0  0
 16 11  1  0  0  0  0
 17 15  1  0  0  0  0
 18 13  2  0  0  0  0
 19 10  2  0  0  0  0
 20  6  1  0  0  0  0
 22 26  1  0  0  0  0
 22 21  1  0  0  0  0
 24 22  1  0  0  0  0
 24 28  1  0  0  0  0
 26 27  1  0  0  0  0
 26 25  1  0  0  0  0
 27 25  1  0  0  0  0
 27 23  1  0  0  0  0
 28 23  1  0  0  0  0
M  END
>  <MODEL>
2

>  <REMARK>
 VINA RESULT:      -9.0      1.724      2.453
  Name = 
  3 active torsions:
  status: ('A' for Active; 'I' for Inactive)
    1  A    between atoms: C_1  and  O_2
    2  A    between atoms: O_2  and  C_3
    3  A    between atoms: C_20  and  C_25
                            x       y       z     vdW  Elec       q    Type
                         _______ _______ _______ _____ _____    ______ ____

>  <TORSDO>
F 3

$$$$
=
 OpenBabel11052413223D

 28 34  0  0  1  0  0  0  0  0999 V2000
  188.7070  177.7870  145.3340 C   0  0  1  0  0  3  0  0  0  0  0  0
  185.7500  177.6990  147.3450 C   0  0  2  0  0  3  0  0  0  0  0  0
  187.9740  178.2970  148.4670 C   0  0  0  0  0  2  0  0  0  0  0  0
  187.3360  177.4370  145.4560 O   0  0  0  0  0  0  0  0  0  0  0  0
  189.3940  178.3140  147.8200 C   0  0  0  0  0  2  0  0  0  0  0  0
  185.5730  178.8820  146.4230 C   0  0  1  0  0  3  0  0  0  0  0  0
  187.1340  177.3740  147.7280 N   0  0  2  0  0  0  0  0  0  0  0  0
  189.5790  177.3950  146.5700 C   0  0  0  0  0  2  0  0  0  0  0  0
  186.9160  178.1960  146.5400 C   0  0  1  0  0  0  0  0  0  0  0  0
  185.2270  178.9730  141.3250 C   0  0  0  0  0  3  0  0  0  0  0  0
  183.2030  179.0950  142.7790 C   0  0  1  0  0  3  0  0  0  0  0  0
  185.4860  178.9680  143.8050 C   0  0  0  0  0  2  0  0  0  0  0  0
  183.0030  178.9520  140.3060 C   0  0  0  0  0  0  0  0  0  0  0  0
  184.6210  178.5370  142.6290 C   0  0  2  0  0  3  0  0  0  0  0  0
  183.4460  179.1530  145.2050 N   0  0  0  0  0  2  0  0  0  0  0  0
  182.3370  178.6210  141.6130 C   0  0  0  0  0  2  0  0  0  0  0  0
  182.6270  178.6340  144.1110 C   0  0  0  0  0  2  0  0  0  0  0  0
  182.3110  179.0520  139.2610 O   0  0  0  0  0  0  0  0  0  0  0  0
  184.4670  179.1330  140.2370 C   0  0  0  0  0  3  0  0  0  0  0  0
  184.7920  178.5750  145.1240 C   0  0  2  0  0  3  0  0  0  0  0  0
  189.2330  177.1890  144.1860 O   0  0  0  0  0  0  0  0  0  0  0  0
  189.6760  178.2530  143.3880 C   0  0  2  0  0  3  0  0  0  0  0  0
  190.2770  176.4110  141.4130 C   0  0  0  0  0  2  0  0  0  0  0  0
  188.8110  178.3790  142.1280 C   0  0  0  0  0  2  0  0  0  0  0  0
  191.7930  176.7970  143.3300 C   0  0  0  0  0  2  0  0  0  0  0  0
  191.1830  178.1620  143.0510 C   0  0  1  0  0  3  0  0  0  0  0  0
  191.4970  177.1920  141.8990 C   0  0  2  0  0  3  0  0  0  0  0  0
  189.1480  177.3630  141.0280 C   0  0  0  0  0  2  0  0  0  0  0  0
  1 21  1  6  0  0  0
  1  4  1  0  0  0  0
  1  8  1  0  0  0  0
  2  7  1  0  0  0  0
  4  9  1  0  0  0  0
  5  3  1  0  0  0  0
  6  9  1  0  0  0  0
  6  2  1  0  0  0  0
  7  3  1  0  0  0  0
  8  5  1  0  0  0  0
  9  2  1  0  0  0  0
  9  7  1  0  0  0  0
 10 14  1  0  0  0  0
 11 17  1  0  0  0  0
 12 20  1  0  0  0  0
 13 16  1  0  0  0  0
 14 11  1  0  0  0  0
 14 12  1  0  0  0  0
 16 11  1  0  0  0  0
 17 15  1  0  0  0  0
 18 13  2  0  0  0  0
 19 13  1  0  0  0  0
 19 10  2  0  0  0  0
 20 15  1  0  0  0  0
 20  6  1  0  0  0  0
 22 21  1  0  0  0  0
 23 27  1  0  0  0  0
 24 22  1  0  0  0  0
 26 25  1  0  0  0  0
 26 22  1  0  0  0  0
 27 26  1  0  0  0  0
 27 25  1  0  0  0  0
 28 23  1  0  0  0  0
 28 24  1  0  0  0  0
M  END
>  <MODEL>
3

>  <REMARK>
 VINA RESULT:      -8.8      2.552      5.773
  Name = 
  3 active torsions:
  status: ('A' for Active; 'I' for Inactive)
    1  A    between atoms: C_1  and  O_2
    2  A    between atoms: O_2  and  C_3
    3  A    between atoms: C_20  and  C_25
                            x       y       z     vdW  Elec       q    Type
                         _______ _______ _______ _____ _____    ______ ____

>  <TORSDO>
F 3

$$$$
=
 OpenBabel11052413223D

 28 34  0  0  1  0  0  0  0  0999 V2000
  188.5470  177.7370  144.8930 C   0  0  1  0  0  3  0  0  0  0  0  0
  191.8870  177.6450  143.6160 C   0  0  2  0  0  3  0  0  0  0  0  0
  191.4260  176.6060  145.9120 C   0  0  0  0  0  2  0  0  0  0  0  0
  189.4830  178.1770  143.9200 O   0  0  0  0  0  0  0  0  0  0  0  0
  190.0830  176.6030  146.7050 C   0  0  0  0  0  2  0  0  0  0  0  0
  191.0910  176.7220  142.7240 C   0  0  1  0  0  3  0  0  0  0  0  0
  191.4380  177.7450  145.0150 N   0  0  2  0  0  0  0  0  0  0  0  0
  189.0900  177.7580  146.3590 C   0  0  0  0  0  2  0  0  0  0  0  0
  190.5000  177.2360  144.0190 C   0  0  1  0  0  0  0  0  0  0  0  0
  187.1480  177.9790  139.7260 C   0  0  0  0  0  3  0  0  0  0  0  0
  189.4220  177.5520  138.7920 C   0  0  1  0  0  3  0  0  0  0  0  0
  189.0080  177.3260  141.2530 C   0  0  0  0  0  2  0  0  0  0  0  0
  187.5650  178.3430  137.3440 C   0  0  0  0  0  0  0  0  0  0  0  0
  188.6240  178.0800  139.9880 C   0  0  2  0  0  3  0  0  0  0  0  0
  191.2350  176.8540  140.2670 N   0  0  0  0  0  2  0  0  0  0  0  0
  189.0560  178.3440  137.5380 C   0  0  0  0  0  2  0  0  0  0  0  0
  190.9090  177.6680  139.0980 C   0  0  0  0  0  2  0  0  0  0  0  0
  187.0840  178.5440  136.1990 O   0  0  0  0  0  0  0  0  0  0  0  0
  186.6600  178.1360  138.4920 C   0  0  0  0  0  3  0  0  0  0  0  0
  190.5370  177.3850  141.4420 C   0  0  2  0  0  3  0  0  0  0  0  0
  187.3970  178.5270  144.8130 O   0  0  0  0  0  0  0  0  0  0  0  0
  186.3460  177.6240  144.5990 C   0  0  2  0  0  3  0  0  0  0  0  0
  184.6600  179.7940  144.2750 C   0  0  0  0  0  2  0  0  0  0  0  0
  185.7830  177.7760  143.1810 C   0  0  0  0  0  2  0  0  0  0  0  0
  185.3200  178.9900  146.5200 C   0  0  0  0  0  2  0  0  0  0  0  0
  185.2400  177.7280  145.6760 C   0  0  1  0  0  3  0  0  0  0  0  0
  184.2620  178.8910  145.4420 C   0  0  2  0  0  3  0  0  0  0  0  0
  184.8420  178.9740  143.0000 C   0  0  0  0  0  2  0  0  0  0  0  0
  1 21  1  1  0  0  0
  1  8  1  0  0  0  0
  2  9  1  0  0  0  0
  2  7  1  0  0  0  0
  3  5  1  0  0  0  0
  4  9  1  0  0  0  0
  4  1  1  0  0  0  0
  6  2  1  0  0  0  0
  6  9  1  0  0  0  0
  7  3  1  0  0  0  0
  8  5  1  0  0  0  0
  9  7  1  0  0  0  0
 10 14  1  0  0  0  0
 11 17  1  0  0  0  0
 11 14  1  0  0  0  0
 12 20  1  0  0  0  0
 13 16  1  0  0  0  0
 13 19  1  0  0  0  0
 14 12  1  0  0  0  0
 15 20  1  0  0  0  0
 16 11  1  0  0  0  0
 17 15  1  0  0  0  0
 18 13  2  0  0  0  0
 19 10  2  0  0  0  0
 20  6  1  0  0  0  0
 22 21  1  0  0  0  0
 22 26  1  0  0  0  0
 23 27  1  0  0  0  0
 24 22  1  0  0  0  0
 26 25  1  0  0  0  0
 27 26  1  0  0  0  0
 27 25  1  0  0  0  0
 28 24  1  0  0  0  0
 28 23  1  0  0  0  0
M  END
>  <MODEL>
4

>  <REMARK>
 VINA RESULT:      -8.6      2.275      4.918
  Name = 
  3 active torsions:
  status: ('A' for Active; 'I' for Inactive)
    1  A    between atoms: C_1  and  O_2
    2  A    between atoms: O_2  and  C_3
    3  A    between atoms: C_20  and  C_25
                            x       y       z     vdW  Elec       q    Type
                         _______ _______ _______ _____ _____    ______ ____

>  <TORSDO>
F 3

$$$$
=
 OpenBabel11052413223D

 28 34  0  0  1  0  0  0  0  0999 V2000
  187.7160  177.9540  139.7350 C   0  0  1  0  0  3  0  0  0  0  0  0
  184.6050  179.4280  140.7090 C   0  0  2  0  0  3  0  0  0  0  0  0
  184.7790  178.3640  138.3850 C   0  0  0  0  0  2  0  0  0  0  0  0
  186.9930  178.7580  140.6560 O   0  0  0  0  0  0  0  0  0  0  0  0
  186.0430  177.7440  137.7120 C   0  0  0  0  0  2  0  0  0  0  0  0
  184.7650  178.2100  141.5890 C   0  0  1  0  0  3  0  0  0  0  0  0
  185.2040  179.3430  139.3660 N   0  0  2  0  0  0  0  0  0  0  0  0
  187.4170  178.2750  138.2340 C   0  0  0  0  0  2  0  0  0  0  0  0
  185.6720  178.4190  140.3950 C   0  0  1  0  0  0  0  0  0  0  0  0
  188.2850  177.1340  145.1340 C   0  0  0  0  0  3  0  0  0  0  0  0
  186.0620  178.0920  145.7410 C   0  0  1  0  0  3  0  0  0  0  0  0
  186.6060  177.5880  143.3470 C   0  0  0  0  0  2  0  0  0  0  0  0
  187.8270  177.7490  147.4560 C   0  0  0  0  0  0  0  0  0  0  0  0
  187.1720  178.0380  144.6860 C   0  0  2  0  0  3  0  0  0  0  0  0
  184.3900  178.4840  144.0100 N   0  0  0  0  0  2  0  0  0  0  0  0
  186.6370  178.5820  147.0680 C   0  0  0  0  0  2  0  0  0  0  0  0
  184.9550  179.0140  145.2500 C   0  0  0  0  0  2  0  0  0  0  0  0
  188.1770  177.6840  148.6630 O   0  0  0  0  0  0  0  0  0  0  0  0
  188.6050  177.0300  146.4280 C   0  0  0  0  0  3  0  0  0  0  0  0
  185.4170  178.4900  142.9630 C   0  0  2  0  0  3  0  0  0  0  0  0
  189.0840  178.0970  139.9770 O   0  0  0  0  0  0  0  0  0  0  0  0
  189.5320  176.8130  140.3190 C   0  0  2  0  0  3  0  0  0  0  0  0
  192.1200  177.7900  140.2510 C   0  0  0  0  0  2  0  0  0  0  0  0
  190.2330  176.8310  141.6830 C   0  0  0  0  0  2  0  0  0  0  0  0
  190.9160  177.1670  138.1810 C   0  0  0  0  0  2  0  0  0  0  0  0
  190.4170  176.1760  139.2210 C   0  0  1  0  0  3  0  0  0  0  0  0
  191.8730  176.6690  139.2420 C   0  0  2  0  0  3  0  0  0  0  0  0
  191.6710  177.3660  141.6460 C   0  0  0  0  0  2  0  0  0  0  0  0
  1 21  1  6  0  0  0
  1  4  1  0  0  0  0
  2  6  1  0  0  0  0
  3  7  1  0  0  0  0
  5  8  1  0  0  0  0
  5  3  1  0  0  0  0
  6 20  1  0  0  0  0
  7  9  1  0  0  0  0
  7  2  1  0  0  0  0
  8  1  1  0  0  0  0
  9  4  1  0  0  0  0
  9  2  1  0  0  0  0
  9  6  1  0  0  0  0
 10 19  2  0  0  0  0
 11 16  1  0  0  0  0
 12 14  1  0  0  0  0
 13 18  2  0  0  0  0
 14 10  1  0  0  0  0
 14 11  1  0  0  0  0
 15 17  1  0  0  0  0
 16 13  1  0  0  0  0
 17 11  1  0  0  0  0
 19 13  1  0  0  0  0
 20 12  1  0  0  0  0
 20 15  1  0  0  0  0
 21 22  1  0  0  0  0
 22 24  1  0  0  0  0
 23 28  1  0  0  0  0
 25 26  1  0  0  0  0
 25 27  1  0  0  0  0
 26 27  1  0  0  0  0
 26 22  1  0  0  0  0
 27 23  1  0  0  0  0
 28 24  1  0  0  0  0
M  END
>  <MODEL>
5

>  <REMARK>
 VINA RESULT:      -8.6      2.047      6.438
  Name = 
  3 active torsions:
  status: ('A' for Active; 'I' for Inactive)
    1  A    between atoms: C_1  and  O_2
    2  A    between atoms: O_2  and  C_3
    3  A    between atoms: C_20  and  C_25
                            x       y       z     vdW  Elec       q    Type
                         _______ _______ _______ _____ _____    ______ ____

>  <TORSDO>
F 3

$$$$
=
 OpenBabel11052413223D

 28 34  0  0  1  0  0  0  0  0999 V2000
  186.7420  178.2650  141.9400 C   0  0  1  0  0  3  0  0  0  0  0  0
  185.0810  179.3840  144.9040 C   0  0  2  0  0  3  0  0  0  0  0  0
  183.6600  178.7770  142.8610 C   0  0  0  0  0  2  0  0  0  0  0  0
  186.8330  178.8500  143.2320 O   0  0  0  0  0  0  0  0  0  0  0  0
  184.1580  178.3530  141.4440 C   0  0  0  0  0  2  0  0  0  0  0  0
  185.6610  178.0340  145.2550 C   0  0  1  0  0  3  0  0  0  0  0  0
  184.6870  179.5770  143.4980 N   0  0  2  0  0  0  0  0  0  0  0  0
  185.5900  178.8430  141.0560 C   0  0  0  0  0  2  0  0  0  0  0  0
  185.6220  178.5020  143.8160 C   0  0  1  0  0  0  0  0  0  0  0  0
  190.5680  176.6150  145.4040 C   0  0  0  0  0  3  0  0  0  0  0  0
  189.3030  177.1830  147.4790 C   0  0  1  0  0  3  0  0  0  0  0  0
  188.1630  177.2540  145.2490 C   0  0  0  0  0  2  0  0  0  0  0  0
  191.7350  176.6770  147.5530 C   0  0  0  0  0  0  0  0  0  0  0  0
  189.4780  177.4700  145.9850 C   0  0  2  0  0  3  0  0  0  0  0  0
  186.9350  177.7510  147.3460 N   0  0  0  0  0  2  0  0  0  0  0  0
  190.6190  177.4410  148.2100 C   0  0  0  0  0  2  0  0  0  0  0  0
  188.1900  178.0650  148.0270 C   0  0  0  0  0  2  0  0  0  0  0  0
  192.7710  176.3970  148.2100 O   0  0  0  0  0  0  0  0  0  0  0  0
  191.6350  176.2760  146.1360 C   0  0  0  0  0  3  0  0  0  0  0  0
  187.0540  178.0860  145.9240 C   0  0  2  0  0  3  0  0  0  0  0  0
  187.9620  178.4260  141.2780 O   0  0  0  0  0  0  0  0  0  0  0  0
  188.3140  177.1410  140.8400 C   0  0  2  0  0  3  0  0  0  0  0  0
  190.9410  178.0000  140.7030 C   0  0  0  0  0  2  0  0  0  0  0  0
  189.2490  176.4650  141.8500 C   0  0  0  0  0  2  0  0  0  0  0  0
  189.3150  178.5130  138.9100 C   0  0  0  0  0  2  0  0  0  0  0  0
  188.9040  177.1370  139.4100 C   0  0  1  0  0  3  0  0  0  0  0  0
  190.3860  177.5410  139.3550 C   0  0  2  0  0  3  0  0  0  0  0  0
  190.7080  176.9340  141.7710 C   0  0  0  0  0  2  0  0  0  0  0  0
  1 21  1  6  0  0  0
  1  4  1  0  0  0  0
  2  6  1  0  0  0  0
  3  7  1  0  0  0  0
  4  9  1  0  0  0  0
  5  3  1  0  0  0  0
  6 20  1  0  0  0  0
  7  9  1  0  0  0  0
  7  2  1  0  0  0  0
  8  5  1  0  0  0  0
  8  1  1  0  0  0  0
  9  2  1  0  0  0  0
  9  6  1  0  0  0  0
 10 14  1  0  0  0  0
 10 19  2  0  0  0  0
 11 17  1  0  0  0  0
 11 16  1  0  0  0  0
 12 20  1  0  0  0  0
 12 14  1  0  0  0  0
 13 18  2  0  0  0  0
 13 16  1  0  0  0  0
 14 11  1  0  0  0  0
 15 17  1  0  0  0  0
 19 13  1  0  0  0  0
 20 15  1  0  0  0  0
 22 21  1  0  0  0  0
 22 24  1  0  0  0  0
 23 28  1  0  0  0  0
 25 27  1  0  0  0  0
 25 26  1  0  0  0  0
 26 22  1  0  0  0  0
 27 26  1  0  0  0  0
 27 23  1  0  0  0  0
 28 24  1  0  0  0  0
M  END
>  <MODEL>
6

>  <REMARK>
 VINA RESULT:      -8.3      2.053      5.983
  Name = 
  3 active torsions:
  status: ('A' for Active; 'I' for Inactive)
    1  A    between atoms: C_1  and  O_2
    2  A    between atoms: O_2  and  C_3
    3  A    between atoms: C_20  and  C_25
                            x       y       z     vdW  Elec       q    Type
                         _______ _______ _______ _____ _____    ______ ____

>  <TORSDO>
F 3

$$$$
=
 OpenBabel11052413223D

 28 34  0  0  1  0  0  0  0  0999 V2000
  185.7170  178.3940  139.9140 C   0  0  1  0  0  3  0  0  0  0  0  0
  184.0640  179.1150  143.0030 C   0  0  2  0  0  3  0  0  0  0  0  0
  182.6370  178.4870  140.9700 C   0  0  0  0  0  2  0  0  0  0  0  0
  185.7950  178.8970  141.2400 O   0  0  0  0  0  0  0  0  0  0  0  0
  183.1210  178.2180  139.5110 C   0  0  0  0  0  2  0  0  0  0  0  0
  184.8050  177.8200  143.2370 C   0  0  1  0  0  3  0  0  0  0  0  0
  183.5930  179.3550  141.6280 N   0  0  2  0  0  0  0  0  0  0  0  0
  184.4720  178.8940  139.1120 C   0  0  0  0  0  2  0  0  0  0  0  0
  184.6560  178.3760  141.8380 C   0  0  1  0  0  0  0  0  0  0  0  0
  189.7600  176.5800  143.4110 C   0  0  0  0  0  3  0  0  0  0  0  0
  188.5220  177.3240  145.4460 C   0  0  1  0  0  3  0  0  0  0  0  0
  187.3320  177.1240  143.2500 C   0  0  0  0  0  2  0  0  0  0  0  0
  190.9710  176.9050  145.5110 C   0  0  0  0  0  0  0  0  0  0  0  0
  188.6540  177.4570  143.9250 C   0  0  2  0  0  3  0  0  0  0  0  0
  186.1340  177.8000  145.3140 N   0  0  0  0  0  2  0  0  0  0  0  0
  189.8440  177.7000  146.1120 C   0  0  0  0  0  2  0  0  0  0  0  0
  187.3920  178.2240  145.9260 C   0  0  0  0  0  2  0  0  0  0  0  0
  192.0300  176.7290  146.1660 O   0  0  0  0  0  0  0  0  0  0  0  0
  190.8530  176.3540  144.1460 C   0  0  0  0  0  3  0  0  0  0  0  0
  186.2100  177.9860  143.8620 C   0  0  2  0  0  3  0  0  0  0  0  0
  186.8830  178.7370  139.2240 O   0  0  0  0  0  0  0  0  0  0  0  0
  187.3990  177.5230  138.7500 C   0  0  2  0  0  3  0  0  0  0  0  0
  189.3240  178.9710  137.3880 C   0  0  0  0  0  2  0  0  0  0  0  0
  188.8280  177.3070  139.2640 C   0  0  0  0  0  2  0  0  0  0  0  0
  187.0290  178.7090  136.5000 C   0  0  0  0  0  2  0  0  0  0  0  0
  187.3110  177.3950  137.2110 C   0  0  1  0  0  3  0  0  0  0  0  0
  188.4310  178.1400  136.4670 C   0  0  2  0  0  3  0  0  0  0  0  0
  189.8980  178.1040  138.5050 C   0  0  0  0  0  2  0  0  0  0  0  0
  1 21  1  6  0  0  0
  1  4  1  0  0  0  0
  2  6  1  0  0  0  0
  3  7  1  0  0  0  0
  4  9  1  0  0  0  0
  5  3  1  0  0  0  0
  6 20  1  0  0  0  0
  7  9  1  0  0  0  0
  7  2  1  0  0  0  0
  8  5  1  0  0  0  0
  8  1  1  0  0  0  0
  9  2  1  0  0  0  0
  9  6  1  0  0  0  0
 10 14  1  0  0  0  0
 10 19  2  0  0  0  0
 11 17  1  0  0  0  0
 11 16  1  0  0  0  0
 12 20  1  0  0  0  0
 12 14  1  0  0  0  0
 13 16  1  0  0  0  0
 13 18  2  0  0  0  0
 14 11  1  0  0  0  0
 15 17  1  0  0  0  0
 19 13  1  0  0  0  0
 20 15  1  0  0  0  0
 22 21  1  0  0  0  0
 22 24  1  0  0  0  0
 23 28  1  0  0  0  0
 25 26  1  0  0  0  0
 26 22  1  0  0  0  0
 27 25  1  0  0  0  0
 27 26  1  0  0  0  0
 27 23  1  0  0  0  0
 28 24  1  0  0  0  0
M  END
>  <MODEL>
7

>  <REMARK>
 VINA RESULT:      -8.1      2.459      6.417
  Name = 
  3 active torsions:
  status: ('A' for Active; 'I' for Inactive)
    1  A    between atoms: C_1  and  O_2
    2  A    between atoms: O_2  and  C_3
    3  A    between atoms: C_20  and  C_25
                            x       y       z     vdW  Elec       q    Type
                         _______ _______ _______ _____ _____    ______ ____

>  <TORSDO>
F 3

$$$$
=
 OpenBabel11052413223D

 28 34  0  0  1  0  0  0  0  0999 V2000
  186.1820  177.6490  137.7350 C   0  0  1  0  0  3  0  0  0  0  0  0
  189.3560  177.3810  139.3640 C   0  0  2  0  0  3  0  0  0  0  0  0
  189.2900  178.2140  136.9430 C   0  0  0  0  0  2  0  0  0  0  0  0
  186.9380  177.1850  138.8450 O   0  0  0  0  0  0  0  0  0  0  0  0
  188.0470  178.3300  136.0070 C   0  0  0  0  0  2  0  0  0  0  0  0
  188.6370  178.5070  140.0690 C   0  0  1  0  0  3  0  0  0  0  0  0
  189.0320  177.1930  137.9390 N   0  0  2  0  0  0  0  0  0  0  0  0
  186.8520  177.3830  136.3490 C   0  0  0  0  0  2  0  0  0  0  0  0
  188.0970  177.9460  138.7710 C   0  0  1  0  0  0  0  0  0  0  0  0
  184.8480  179.2560  143.4150 C   0  0  0  0  0  3  0  0  0  0  0  0
  186.9880  178.1590  144.0810 C   0  0  1  0  0  3  0  0  0  0  0  0
  186.6650  178.9690  141.7320 C   0  0  0  0  0  2  0  0  0  0  0  0
  185.0890  178.3460  145.6730 C   0  0  0  0  0  0  0  0  0  0  0  0
  185.9750  178.3770  142.9530 C   0  0  2  0  0  3  0  0  0  0  0  0
  188.7950  177.9270  142.4590 N   0  0  0  0  0  2  0  0  0  0  0  0
  186.2900  177.5280  145.2840 C   0  0  0  0  0  2  0  0  0  0  0  0
  188.1130  177.2680  143.5720 C   0  0  0  0  0  2  0  0  0  0  0  0
  184.6370  178.2740  146.8450 O   0  0  0  0  0  0  0  0  0  0  0  0
  184.4200  179.2110  144.6810 C   0  0  0  0  0  3  0  0  0  0  0  0
  187.8630  178.0820  141.3390 C   0  0  2  0  0  3  0  0  0  0  0  0
  184.9180  177.0540  137.7620 O   0  0  0  0  0  0  0  0  0  0  0  0
  184.0180  178.1140  137.9470 C   0  0  2  0  0  3  0  0  0  0  0  0
  182.6360  176.5170  139.7340 C   0  0  0  0  0  2  0  0  0  0  0  0
  184.0610  178.6110  139.3970 C   0  0  0  0  0  2  0  0  0  0  0  0
  182.3460  176.2760  137.2890 C   0  0  0  0  0  2  0  0  0  0  0  0
  182.5800  177.7640  137.4960 C   0  0  1  0  0  3  0  0  0  0  0  0
  181.7950  176.9420  138.5310 C   0  0  2  0  0  3  0  0  0  0  0  0
  183.2890  177.7310  140.3890 C   0  0  0  0  0  2  0  0  0  0  0  0
  1 21  1  6  0  0  0
  1  4  1  0  0  0  0
  2  6  1  0  0  0  0
  3  7  1  0  0  0  0
  5  8  1  0  0  0  0
  5  3  1  0  0  0  0
  6 20  1  0  0  0  0
  7  9  1  0  0  0  0
  7  2  1  0  0  0  0
  8  1  1  0  0  0  0
  9  4  1  0  0  0  0
  9  2  1  0  0  0  0
  9  6  1  0  0  0  0
 10 19  2  0  0  0  0
 11 16  1  0  0  0  0
 12 14  1  0  0  0  0
 13 18  2  0  0  0  0
 14 10  1  0  0  0  0
 14 11  1  0  0  0  0
 15 17  1  0  0  0  0
 16 13  1  0  0  0  0
 17 11  1  0  0  0  0
 19 13  1  0  0  0  0
 20 12  1  0  0  0  0
 20 15  1  0  0  0  0
 21 22  1  0  0  0  0
 22 24  1  0  0  0  0
 23 28  1  0  0  0  0
 24 28  1  0  0  0  0
 25 26  1  0  0  0  0
 25 27  1  0  0  0  0
 26 22  1  0  0  0  0
 26 27  1  0  0  0  0
 27 23  1  0  0  0  0
M  END
>  <MODEL>
8

>  <REMARK>
 VINA RESULT:      -7.9      3.199      8.306
  Name = 
  3 active torsions:
  status: ('A' for Active; 'I' for Inactive)
    1  A    between atoms: C_1  and  O_2
    2  A    between atoms: O_2  and  C_3
    3  A    between atoms: C_20  and  C_25
                            x       y       z     vdW  Elec       q    Type
                         _______ _______ _______ _____ _____    ______ ____

>  <TORSDO>
F 3

$$$$
=
 OpenBabel11052413223D

 28 34  0  0  1  0  0  0  0  0999 V2000
  185.9650  177.6020  137.7460 C   0  0  1  0  0  3  0  0  0  0  0  0
  189.4330  177.3770  138.5940 C   0  0  2  0  0  3  0  0  0  0  0  0
  188.7930  178.3440  136.3100 C   0  0  0  0  0  2  0  0  0  0  0  0
  186.9670  177.1080  138.6230 O   0  0  0  0  0  0  0  0  0  0  0  0
  187.3660  178.4600  135.6890 C   0  0  0  0  0  2  0  0  0  0  0  0
  188.8620  178.4300  139.5150 C   0  0  1  0  0  3  0  0  0  0  0  0
  188.7990  177.2580  137.2700 N   0  0  2  0  0  0  0  0  0  0  0  0
  186.3090  177.4440  136.2290 C   0  0  0  0  0  2  0  0  0  0  0  0
  188.0570  177.9210  138.3390 C   0  0  1  0  0  0  0  0  0  0  0  0
  185.7040  178.6260  143.5280 C   0  0  0  0  0  3  0  0  0  0  0  0
  188.0670  177.8560  143.7550 C   0  0  1  0  0  3  0  0  0  0  0  0
  187.1930  178.6030  141.5280 C   0  0  0  0  0  2  0  0  0  0  0  0
  186.4960  177.7680  145.6770 C   0  0  0  0  0  0  0  0  0  0  0  0
  186.8390  177.9200  142.8410 C   0  0  2  0  0  3  0  0  0  0  0  0
  189.5510  177.8860  141.8190 N   0  0  0  0  0  2  0  0  0  0  0  0
  187.7070  177.1340  145.0520 C   0  0  0  0  0  2  0  0  0  0  0  0
  189.1930  177.1380  143.0230 C   0  0  0  0  0  2  0  0  0  0  0  0
  186.2880  177.6350  146.9110 O   0  0  0  0  0  0  0  0  0  0  0  0
  185.5330  178.5220  144.8500 C   0  0  0  0  0  3  0  0  0  0  0  0
  188.4110  177.9000  140.8960 C   0  0  2  0  0  3  0  0  0  0  0  0
  184.7580  176.9530  138.0180 O   0  0  0  0  0  0  0  0  0  0  0  0
  183.7790  177.9540  137.9410 C   0  0  2  0  0  3  0  0  0  0  0  0
  183.3210  177.5980  140.6460 C   0  0  0  0  0  2  0  0  0  0  0  0
  184.1670  179.1580  138.8070 C   0  0  0  0  0  2  0  0  0  0  0  0
  182.3520  176.0720  138.9560 C   0  0  0  0  0  2  0  0  0  0  0  0
  182.3620  177.4320  138.2760 C   0  0  1  0  0  3  0  0  0  0  0  0
  182.0920  177.3110  139.7840 C   0  0  2  0  0  3  0  0  0  0  0  0
  183.9070  178.9660  140.3070 C   0  0  0  0  0  2  0  0  0  0  0  0
  1 21  1  6  0  0  0
  1  4  1  0  0  0  0
  2  6  1  0  0  0  0
  3  7  1  0  0  0  0
  5  8  1  0  0  0  0
  5  3  1  0  0  0  0
  6 20  1  0  0  0  0
  7  9  1  0  0  0  0
  7  2  1  0  0  0  0
  8  1  1  0  0  0  0
  9  2  1  0  0  0  0
  9  4  1  0  0  0  0
  9  6  1  0  0  0  0
 10 19  2  0  0  0  0
 11 16  1  0  0  0  0
 12 14  1  0  0  0  0
 13 18  2  0  0  0  0
 14 10  1  0  0  0  0
 14 11  1  0  0  0  0
 15 17  1  0  0  0  0
 16 13  1  0  0  0  0
 17 11  1  0  0  0  0
 19 13  1  0  0  0  0
 20 12  1  0  0  0  0
 20 15  1  0  0  0  0
 22 21  1  0  0  0  0
 22 26  1  0  0  0  0
 22 24  1  0  0  0  0
 24 28  1  0  0  0  0
 25 27  1  0  0  0  0
 26 25  1  0  0  0  0
 26 27  1  0  0  0  0
 27 23  1  0  0  0  0
 28 23  1  0  0  0  0
M  END
>  <MODEL>
9

>  <REMARK>
 VINA RESULT:      -7.9      3.026      7.936
  Name = 
  3 active torsions:
  status: ('A' for Active; 'I' for Inactive)
    1  A    between atoms: C_1  and  O_2
    2  A    between atoms: O_2  and  C_3
    3  A    between atoms: C_20  and  C_25
                            x       y       z     vdW  Elec       q    Type
                         _______ _______ _______ _____ _____    ______ ____

>  <TORSDO>
F 3

$$$$
