=
 OpenBabel11052413583D

 34 39  0  0  1  0  0  0  0  0999 V2000
  189.3670  177.4610  147.2010 C   0  0  0  0  0  0  0  0  0  0  0  0
  191.0520  176.7280  145.5510 C   0  0  0  0  0  0  0  0  0  0  0  0
  188.7180  177.3960  144.8140 C   0  0  0  0  0  0  0  0  0  0  0  0
  187.8390  177.9910  142.6120 N   0  0  1  0  0  0  0  0  0  0  0  0
  191.6450  177.0690  147.8450 C   0  0  0  0  0  3  0  0  0  0  0  0
  191.9530  176.7060  146.5710 N   0  0  0  0  0  0  0  0  0  0  0  0
  190.1530  178.0030  142.7290 C   0  0  0  0  0  2  0  0  0  0  0  0
  189.7370  177.1990  145.7840 C   0  0  0  0  0  0  0  0  0  0  0  0
  188.2570  177.9400  141.2250 C   0  0  0  0  0  2  0  0  0  0  0  0
  190.3460  177.4340  148.1850 C   0  0  0  0  0  3  0  0  0  0  0  0
  187.3820  177.5430  145.2700 C   0  0  0  0  0  0  0  0  0  0  0  0
  188.1060  177.6880  147.5330 O   0  0  0  0  0  0  0  0  0  0  0  0
  191.3970  176.2140  144.4190 N   0  0  0  0  0  2  0  0  0  0  0  0
  186.6270  177.2330  142.8570 C   0  0  0  0  0  2  0  0  0  0  0  0
  186.1980  177.5020  144.3120 C   0  0  2  0  0  3  0  0  0  0  0  0
  189.7700  178.1540  141.2610 C   0  0  2  0  0  3  0  0  0  0  0  0
  188.9280  177.3330  143.3090 C   0  0  1  0  0  3  0  0  0  0  0  0
  187.1300  177.6970  146.6380 C   0  0  0  0  0  3  0  0  0  0  0  0
  182.9940  179.0330  144.1850 C   0  0  0  0  0  0  0  0  0  0  0  0
  185.3060  178.7470  144.4530 C   0  0  2  0  0  3  0  0  0  0  0  0
  183.5120  179.5540  143.1300 N   0  0  0  0  0  0  0  0  0  0  0  0
  183.9750  178.4170  145.1140 C   0  0  0  0  0  2  0  0  0  0  0  0
  184.9540  179.4010  143.1160 C   0  0  0  0  0  2  0  0  0  0  0  0
  181.6170  179.0660  144.4060 O   0  0  0  0  0  0  0  0  0  0  0  0
  180.6840  179.0530  143.3370 C   0  0  0  0  0  1  0  0  0  0  0  0
  190.4870  177.1180  140.4020 C   0  0  0  0  0  2  0  0  0  0  0  0
  190.6270  177.5820  139.0610 O   0  0  0  0  0  0  0  0  0  0  0  0
  189.0470  179.4490  137.9920 O   0  0  0  0  0  0  0  0  0  0  0  0
  189.7190  177.2730  138.0620 N   0  0  0  0  0  0  0  0  0  0  0  0
  188.9290  178.2700  137.5630 C   0  0  0  0  0  0  0  0  0  0  0  0
  187.8570  176.6900  136.0900 C   0  0  0  0  0  3  0  0  0  0  0  0
  188.6740  175.6820  136.5980 C   0  0  0  0  0  3  0  0  0  0  0  0
  189.6020  175.9940  137.5930 C   0  0  0  0  0  3  0  0  0  0  0  0
  187.9840  177.9930  136.5710 C   0  0  0  0  0  3  0  0  0  0  0  0
  1 12  1  0  0  0  0
  1 10  2  0  0  0  0
  2  8  1  0  0  0  0
  2  6  1  0  0  0  0
  3 11  1  0  0  0  0
  3  8  2  0  0  0  0
  4  9  1  6  0  0  0
  4 14  1  0  0  0  0
  4 17  1  0  0  0  0
  5 10  1  0  0  0  0
  6  5  2  0  0  0  0
  8  1  1  0  0  0  0
  9 16  1  0  0  0  0
 11 18  2  0  0  0  0
 13  2  2  0  0  0  0
 15 14  1  6  0  0  0
 15 20  1  0  0  0  0
 15 11  1  0  0  0  0
 16 26  1  6  0  0  0
 16  7  1  0  0  0  0
 17  7  1  1  0  0  0
 17  3  1  0  0  0  0
 18 12  1  0  0  0  0
 19 24  1  0  0  0  0
 19 22  1  0  0  0  0
 20 23  1  6  0  0  0
 20 22  1  0  0  0  0
 21 19  2  0  0  0  0
 23 21  1  0  0  0  0
 25 24  1  0  0  0  0
 27 26  1  0  0  0  0
 29 27  1  0  0  0  0
 30 28  2  0  0  0  0
 30 29  1  0  0  0  0
 31 34  2  0  0  0  0
 31 32  1  0  0  0  0
 32 33  2  0  0  0  0
 33 29  1  0  0  0  0
 34 30  1  0  0  0  0
M  END
>  <MODEL>
1

>  <REMARK>
 VINA RESULT:      -9.2      0.000      0.000
  Name = 
  5 active torsions:
  status: ('A' for Active; 'I' for Inactive)
    1  A    between atoms: O_3  and  N_13
    2  A    between atoms: O_3  and  C_17
    3  A    between atoms: O_7  and  C_8
    4  A    between atoms: C_12  and  C_28
    5  A    between atoms: C_17  and  C_29
                            x       y       z     vdW  Elec       q    Type
                         _______ _______ _______ _____ _____    ______ ____

>  <TORSDO>
F 5

$$$$
=
 OpenBabel11052413583D

 34 39  0  0  1  0  0  0  0  0999 V2000
  191.2970  176.4930  144.9640 C   0  0  2  0  0  3  0  0  0  0  0  0
  189.4440  177.4500  146.2880 C   0  0  0  0  0  0  0  0  0  0  0  0
  189.3570  177.4340  143.7520 C   0  0  0  0  0  0  0  0  0  0  0  0
  187.4850  177.7360  142.2090 N   0  0  1  0  0  0  0  0  0  0  0  0
  191.2460  176.2910  147.3550 C   0  0  0  0  0  3  0  0  0  0  0  0
  190.0840  176.9960  147.4000 N   0  0  0  0  0  0  0  0  0  0  0  0
  186.8370  177.3230  144.3950 C   0  0  0  0  0  2  0  0  0  0  0  0
  189.9590  177.1420  145.0050 C   0  0  0  0  0  0  0  0  0  0  0  0
  186.1030  178.1700  142.2490 C   0  0  0  0  0  2  0  0  0  0  0  0
  191.8810  176.0430  146.1420 C   0  0  0  0  0  3  0  0  0  0  0  0
  190.1660  177.3580  142.5890 C   0  0  0  0  0  0  0  0  0  0  0  0
  191.9490  176.3710  143.8190 O   0  0  0  0  0  0  0  0  0  0  0  0
  188.4390  178.2440  146.4420 N   0  0  0  0  0  1  0  0  0  0  0  0
  188.3000  178.5530  141.3310 C   0  0  0  0  0  2  0  0  0  0  0  0
  189.6910  177.8950  141.2440 C   0  0  2  0  0  3  0  0  0  0  0  0
  185.5880  177.7220  143.6170 C   0  0  2  0  0  3  0  0  0  0  0  0
  187.9380  177.9510  143.5700 C   0  0  1  0  0  3  0  0  0  0  0  0
  191.4500  176.8080  142.6730 C   0  0  0  0  0  3  0  0  0  0  0  0
  190.8950  176.8270  138.0760 C   0  0  0  0  0  0  0  0  0  0  0  0
  189.7810  176.8280  140.1400 C   0  0  2  0  0  3  0  0  0  0  0  0
  189.6560  176.9960  137.7790 N   0  0  0  0  0  0  0  0  0  0  0  0
  191.1760  176.7600  139.5330 C   0  0  0  0  0  2  0  0  0  0  0  0
  188.8310  177.0810  138.9680 C   0  0  0  0  0  2  0  0  0  0  0  0
  191.8690  176.7180  137.0830 O   0  0  0  0  0  0  0  0  0  0  0  0
  193.2030  176.3350  137.3780 C   0  0  0  0  0  1  0  0  0  0  0  0
  184.8480  178.8550  144.3190 C   0  0  0  0  0  2  0  0  0  0  0  0
  183.9650  179.5190  143.4160 O   0  0  0  0  0  0  0  0  0  0  0  0
  183.1620  178.9460  140.9350 O   0  0  0  0  0  0  0  0  0  0  0  0
  182.6810  179.0700  143.1580 N   0  0  0  0  0  0  0  0  0  0  0  0
  182.3250  178.8050  141.8660 C   0  0  0  0  0  0  0  0  0  0  0  0
  180.1040  178.2090  142.5940 C   0  0  0  0  0  3  0  0  0  0  0  0
  180.4790  178.4720  143.9100 C   0  0  0  0  0  3  0  0  0  0  0  0
  181.7790  178.9090  144.1740 C   0  0  0  0  0  3  0  0  0  0  0  0
  181.0310  178.3730  141.5640 C   0  0  0  0  0  3  0  0  0  0  0  0
  1  8  1  0  0  0  0
  1 10  1  1  0  0  0
  2 13  1  0  0  0  0
  2  6  2  0  0  0  0
  3  8  2  0  0  0  0
  4 14  1  6  0  0  0
  4  9  1  0  0  0  0
  4 17  1  0  0  0  0
  5  6  1  0  0  0  0
  8  2  1  0  0  0  0
  9 16  1  0  0  0  0
 10  5  2  0  0  0  0
 11 18  2  0  0  0  0
 11  3  1  0  0  0  0
 12  1  1  0  0  0  0
 15 14  1  1  0  0  0
 15 11  1  0  0  0  0
 16 26  1  1  0  0  0
 16  7  1  0  0  0  0
 17  3  1  0  0  0  0
 17  7  1  1  0  0  0
 18 12  1  0  0  0  0
 19 22  1  0  0  0  0
 20 23  1  6  0  0  0
 20 15  1  0  0  0  0
 21 19  2  0  0  0  0
 21 23  1  0  0  0  0
 22 20  1  0  0  0  0
 24 25  1  0  0  0  0
 24 19  1  0  0  0  0
 27 26  1  0  0  0  0
 28 30  2  0  0  0  0
 29 27  1  0  0  0  0
 29 33  1  0  0  0  0
 30 29  1  0  0  0  0
 31 32  1  0  0  0  0
 32 33  2  0  0  0  0
 34 30  1  0  0  0  0
 34 31  2  0  0  0  0
M  END
>  <MODEL>
2

>  <REMARK>
 VINA RESULT:      -9.2      1.953      6.922
  Name = 
  5 active torsions:
  status: ('A' for Active; 'I' for Inactive)
    1  A    between atoms: O_3  and  N_13
    2  A    between atoms: O_3  and  C_17
    3  A    between atoms: O_7  and  C_8
    4  A    between atoms: C_12  and  C_28
    5  A    between atoms: C_17  and  C_29
                            x       y       z     vdW  Elec       q    Type
                         _______ _______ _______ _____ _____    ______ ____

>  <TORSDO>
F 5

$$$$
=
 OpenBabel11052413583D

 34 39  0  0  1  0  0  0  0  0999 V2000
  185.1150  178.2580  144.1680 C   0  0  0  0  0  0  0  0  0  0  0  0
  185.1480  178.9320  141.7920 C   0  0  0  0  0  0  0  0  0  0  0  0
  187.2840  178.2440  142.9760 C   0  0  0  0  0  0  0  0  0  0  0  0
  189.4640  177.5760  142.0960 N   0  0  1  0  0  0  0  0  0  0  0  0
  183.0790  178.6680  142.9650 C   0  0  0  0  0  3  0  0  0  0  0  0
  183.7890  178.9870  141.8510 N   0  0  0  0  0  0  0  0  0  0  0  0
  187.7730  177.5640  140.5120 C   0  0  0  0  0  2  0  0  0  0  0  0
  185.8830  178.4720  142.9120 C   0  0  0  0  0  0  0  0  0  0  0  0
  190.1720  177.5790  140.8310 C   0  0  0  0  0  2  0  0  0  0  0  0
  183.7270  178.3170  144.1450 C   0  0  0  0  0  3  0  0  0  0  0  0
  187.8800  178.1150  144.2580 C   0  0  0  0  0  0  0  0  0  0  0  0
  185.7460  178.0450  145.3110 O   0  0  0  0  0  0  0  0  0  0  0  0
  185.7340  179.4070  140.7450 N   0  0  0  0  0  2  0  0  0  0  0  0
  190.1470  178.3450  143.1190 C   0  0  0  0  0  2  0  0  0  0  0  0
  189.3920  178.1260  144.4440 C   0  0  2  0  0  3  0  0  0  0  0  0
  189.0910  177.3650  139.7730 C   0  0  2  0  0  3  0  0  0  0  0  0
  188.2220  178.2550  141.7800 C   0  0  1  0  0  3  0  0  0  0  0  0
  187.0680  178.0070  145.3920 C   0  0  0  0  0  3  0  0  0  0  0  0
  191.4760  176.6560  146.9190 C   0  0  0  0  0  0  0  0  0  0  0  0
  189.8810  176.8880  145.2150 C   0  0  2  0  0  3  0  0  0  0  0  0
  192.0540  176.1990  145.8650 N   0  0  0  0  0  0  0  0  0  0  0  0
  190.1110  177.1940  146.6880 C   0  0  0  0  0  2  0  0  0  0  0  0
  191.2080  176.3300  144.6960 C   0  0  0  0  0  2  0  0  0  0  0  0
  192.1090  176.6290  148.1610 O   0  0  0  0  0  0  0  0  0  0  0  0
  193.0700  175.6390  148.4940 C   0  0  0  0  0  1  0  0  0  0  0  0
  189.2350  178.3700  138.6350 C   0  0  0  0  0  2  0  0  0  0  0  0
  187.9620  178.6820  138.0710 O   0  0  0  0  0  0  0  0  0  0  0  0
  185.4450  177.8210  137.8490 O   0  0  0  0  0  0  0  0  0  0  0  0
  187.4980  178.1020  136.9020 N   0  0  0  0  0  0  0  0  0  0  0  0
  186.2030  177.6700  136.8540 C   0  0  0  0  0  0  0  0  0  0  0  0
  186.5390  176.8970  134.5950 C   0  0  0  0  0  3  0  0  0  0  0  0
  187.8560  177.3490  134.6500 C   0  0  0  0  0  3  0  0  0  0  0  0
  188.3220  177.9490  135.8210 C   0  0  0  0  0  3  0  0  0  0  0  0
  185.7040  177.0590  135.7010 C   0  0  0  0  0  3  0  0  0  0  0  0
  1 12  1  0  0  0  0
  2  6  1  0  0  0  0
  2  8  1  0  0  0  0
  3 11  1  0  0  0  0
  4  9  1  6  0  0  0
  4 14  1  0  0  0  0
  5 10  1  0  0  0  0
  6  5  2  0  0  0  0
  8  3  2  0  0  0  0
  8  1  1  0  0  0  0
 10  1  2  0  0  0  0
 11 15  1  0  0  0  0
 11 18  2  0  0  0  0
 12 18  1  0  0  0  0
 13  2  2  0  0  0  0
 15 14  1  6  0  0  0
 15 20  1  0  0  0  0
 16 26  1  6  0  0  0
 16  7  1  0  0  0  0
 16  9  1  0  0  0  0
 17  7  1  6  0  0  0
 17  4  1  0  0  0  0
 17  3  1  0  0  0  0
 19 24  1  0  0  0  0
 20 23  1  6  0  0  0
 20 22  1  0  0  0  0
 21 19  2  0  0  0  0
 22 19  1  0  0  0  0
 23 21  1  0  0  0  0
 24 25  1  0  0  0  0
 27 26  1  0  0  0  0
 29 27  1  0  0  0  0
 30 29  1  0  0  0  0
 30 28  2  0  0  0  0
 31 32  1  0  0  0  0
 31 34  2  0  0  0  0
 32 33  2  0  0  0  0
 33 29  1  0  0  0  0
 34 30  1  0  0  0  0
M  END
>  <MODEL>
3

>  <REMARK>
 VINA RESULT:      -9.1      1.787      5.880
  Name = 
  5 active torsions:
  status: ('A' for Active; 'I' for Inactive)
    1  A    between atoms: O_3  and  N_13
    2  A    between atoms: O_3  and  C_17
    3  A    between atoms: O_7  and  C_8
    4  A    between atoms: C_12  and  C_28
    5  A    between atoms: C_17  and  C_29
                            x       y       z     vdW  Elec       q    Type
                         _______ _______ _______ _____ _____    ______ ____

>  <TORSDO>
F 5

$$$$
=
 OpenBabel11052413583D

 34 39  0  0  1  0  0  0  0  0999 V2000
  185.5120  178.2480  145.4680 C   0  0  0  0  0  0  0  0  0  0  0  0
  185.4010  178.9620  143.1060 C   0  0  0  0  0  0  0  0  0  0  0  0
  187.5780  178.1310  144.1100 C   0  0  0  0  0  0  0  0  0  0  0  0
  189.6410  177.3560  143.0530 N   0  0  1  0  0  0  0  0  0  0  0  0
  183.4170  178.7950  144.4340 C   0  0  0  0  0  3  0  0  0  0  0  0
  184.0560  179.0940  143.2720 N   0  0  0  0  0  0  0  0  0  0  0  0
  187.8350  177.4700  141.6060 C   0  0  0  0  0  2  0  0  0  0  0  0
  186.1920  178.4400  144.1590 C   0  0  0  0  0  0  0  0  0  0  0  0
  190.2480  177.3420  141.7370 C   0  0  0  0  0  2  0  0  0  0  0  0
  184.1330  178.3860  145.5550 C   0  0  0  0  0  3  0  0  0  0  0  0
  188.2630  177.9450  145.3390 C   0  0  0  0  0  0  0  0  0  0  0  0
  186.2160  177.9780  146.5550 O   0  0  0  0  0  0  0  0  0  0  0  0
  185.9320  179.4220  142.0230 N   0  0  0  0  0  2  0  0  0  0  0  0
  190.4450  178.0650  144.0300 C   0  0  0  0  0  2  0  0  0  0  0  0
  189.7830  177.8660  145.4070 C   0  0  2  0  0  3  0  0  0  0  0  0
  189.0780  177.2090  140.7630 C   0  0  2  0  0  3  0  0  0  0  0  0
  188.4200  178.1110  142.8440 C   0  0  1  0  0  3  0  0  0  0  0  0
  187.5360  177.8630  146.5320 C   0  0  0  0  0  3  0  0  0  0  0  0
  192.0650  176.2000  147.5630 C   0  0  0  0  0  0  0  0  0  0  0  0
  190.2570  176.5880  146.1200 C   0  0  2  0  0  3  0  0  0  0  0  0
  192.4230  175.6800  146.4420 N   0  0  0  0  0  0  0  0  0  0  0  0
  190.7430  176.8760  147.5330 C   0  0  0  0  0  2  0  0  0  0  0  0
  191.4230  175.8920  145.4150 C   0  0  0  0  0  2  0  0  0  0  0  0
  192.8780  176.1150  148.6930 O   0  0  0  0  0  0  0  0  0  0  0  0
  193.2100  177.2560  149.4680 C   0  0  0  0  0  1  0  0  0  0  0  0
  189.1920  178.2250  139.6320 C   0  0  0  0  0  2  0  0  0  0  0  0
  187.9000  178.6120  139.1660 O   0  0  0  0  0  0  0  0  0  0  0  0
  185.3010  179.0130  138.7090 O   0  0  0  0  0  0  0  0  0  0  0  0
  187.2300  177.9300  138.1650 N   0  0  0  0  0  0  0  0  0  0  0  0
  185.8970  178.1700  137.9870 C   0  0  0  0  0  0  0  0  0  0  0  0
  185.8390  176.5560  136.1960 C   0  0  0  0  0  3  0  0  0  0  0  0
  187.2020  176.3260  136.3770 C   0  0  0  0  0  3  0  0  0  0  0  0
  187.8830  177.0240  137.3760 C   0  0  0  0  0  3  0  0  0  0  0  0
  185.1810  177.4850  137.0020 C   0  0  0  0  0  3  0  0  0  0  0  0
  1 10  2  0  0  0  0
  1 12  1  0  0  0  0
  2  6  1  0  0  0  0
  2  8  1  0  0  0  0
  3  8  2  0  0  0  0
  3 11  1  0  0  0  0
  4  9  1  6  0  0  0
  4 14  1  0  0  0  0
  5 10  1  0  0  0  0
  6  5  2  0  0  0  0
  8  1  1  0  0  0  0
 11 15  1  0  0  0  0
 11 18  2  0  0  0  0
 13  2  2  0  0  0  0
 15 14  1  6  0  0  0
 15 20  1  0  0  0  0
 16 26  1  6  0  0  0
 16  7  1  0  0  0  0
 16  9  1  0  0  0  0
 17  7  1  6  0  0  0
 17  4  1  0  0  0  0
 17  3  1  0  0  0  0
 18 12  1  0  0  0  0
 19 24  1  0  0  0  0
 20 23  1  6  0  0  0
 20 22  1  0  0  0  0
 21 19  2  0  0  0  0
 22 19  1  0  0  0  0
 23 21  1  0  0  0  0
 24 25  1  0  0  0  0
 27 26  1  0  0  0  0
 29 27  1  0  0  0  0
 30 29  1  0  0  0  0
 30 28  2  0  0  0  0
 31 32  1  0  0  0  0
 31 34  2  0  0  0  0
 32 33  2  0  0  0  0
 33 29  1  0  0  0  0
 34 30  1  0  0  0  0
M  END
>  <MODEL>
4

>  <REMARK>
 VINA RESULT:      -9.0      1.821      5.828
  Name = 
  5 active torsions:
  status: ('A' for Active; 'I' for Inactive)
    1  A    between atoms: O_3  and  N_13
    2  A    between atoms: O_3  and  C_17
    3  A    between atoms: O_7  and  C_8
    4  A    between atoms: C_12  and  C_28
    5  A    between atoms: C_17  and  C_29
                            x       y       z     vdW  Elec       q    Type
                         _______ _______ _______ _____ _____    ______ ____

>  <TORSDO>
F 5

$$$$
=
 OpenBabel11052413583D

 34 39  0  0  1  0  0  0  0  0999 V2000
  188.9660  177.9920  140.2280 C   0  0  0  0  0  0  0  0  0  0  0  0
  186.5470  178.3340  139.8670 C   0  0  0  0  0  0  0  0  0  0  0  0
  187.4670  177.9170  142.1950 C   0  0  0  0  0  0  0  0  0  0  0  0
  186.4820  178.2900  144.4010 N   0  0  1  0  0  0  0  0  0  0  0  0
  188.1100  178.6350  138.0810 C   0  0  0  0  0  3  0  0  0  0  0  0
  186.8410  178.6140  138.5680 N   0  0  0  0  0  0  0  0  0  0  0  0
  185.3620  179.3680  142.6820 C   0  0  0  0  0  2  0  0  0  0  0  0
  187.5940  178.1040  140.7930 C   0  0  0  0  0  0  0  0  0  0  0  0
  185.1890  178.6070  144.9740 C   0  0  0  0  0  2  0  0  0  0  0  0
  189.1900  178.3080  138.8940 C   0  0  0  0  0  3  0  0  0  0  0  0
  188.5700  177.3670  142.8970 C   0  0  0  0  0  0  0  0  0  0  0  0
  189.9670  177.5620  140.9800 O   0  0  0  0  0  0  0  0  0  0  0  0
  185.3080  178.1800  140.1940 N   0  0  0  0  0  2  0  0  0  0  0  0
  187.0130  177.0310  144.8860 C   0  0  0  0  0  2  0  0  0  0  0  0
  188.4470  176.8920  144.3400 C   0  0  2  0  0  3  0  0  0  0  0  0
  184.5040  179.4960  143.9360 C   0  0  2  0  0  3  0  0  0  0  0  0
  186.1880  178.1390  142.9880 C   0  0  1  0  0  3  0  0  0  0  0  0
  189.8010  177.2210  142.2490 C   0  0  0  0  0  3  0  0  0  0  0  0
  191.2160  176.6230  146.5520 C   0  0  0  0  0  0  0  0  0  0  0  0
  189.4990  177.5500  145.2490 C   0  0  2  0  0  3  0  0  0  0  0  0
  190.3090  176.9610  147.3980 N   0  0  0  0  0  0  0  0  0  0  0  0
  190.8550  176.8660  145.1320 C   0  0  0  0  0  2  0  0  0  0  0  0
  189.1390  177.5020  146.7350 C   0  0  0  0  0  2  0  0  0  0  0  0
  192.4300  176.0790  146.9710 O   0  0  0  0  0  0  0  0  0  0  0  0
  192.7860  176.0030  148.3420 C   0  0  0  0  0  1  0  0  0  0  0  0
  183.0770  179.0260  143.6710 C   0  0  0  0  0  2  0  0  0  0  0  0
  182.6520  179.4100  142.3650 O   0  0  0  0  0  0  0  0  0  0  0  0
  180.2630  180.5020  142.8430 O   0  0  0  0  0  0  0  0  0  0  0  0
  181.5010  178.9150  141.7760 N   0  0  0  0  0  0  0  0  0  0  0  0
  180.3060  179.5090  142.0690 C   0  0  0  0  0  0  0  0  0  0  0  0
  179.1660  177.9280  140.6490 C   0  0  0  0  0  3  0  0  0  0  0  0
  180.3900  177.3350  140.3480 C   0  0  0  0  0  3  0  0  0  0  0  0
  181.5540  177.8430  140.9280 C   0  0  0  0  0  3  0  0  0  0  0  0
  179.1200  179.0230  141.5130 C   0  0  0  0  0  3  0  0  0  0  0  0
  1  8  1  0  0  0  0
  1 12  1  0  0  0  0
  2 13  2  0  0  0  0
  2  8  1  0  0  0  0
  3 11  1  0  0  0  0
  3 17  1  0  0  0  0
  4 14  1  1  0  0  0
  4  9  1  0  0  0  0
  5  6  2  0  0  0  0
  5 10  1  0  0  0  0
  6  2  1  0  0  0  0
  7 16  1  0  0  0  0
  8  3  2  0  0  0  0
 10  1  2  0  0  0  0
 11 15  1  0  0  0  0
 12 18  1  0  0  0  0
 15 14  1  1  0  0  0
 15 20  1  0  0  0  0
 16 26  1  6  0  0  0
 16  9  1  0  0  0  0
 17  7  1  6  0  0  0
 17  4  1  0  0  0  0
 18 11  2  0  0  0  0
 19 24  1  0  0  0  0
 19 21  2  0  0  0  0
 20 22  1  1  0  0  0
 20 23  1  0  0  0  0
 22 19  1  0  0  0  0
 23 21  1  0  0  0  0
 24 25  1  0  0  0  0
 27 26  1  0  0  0  0
 29 30  1  0  0  0  0
 29 27  1  0  0  0  0
 30 28  2  0  0  0  0
 31 34  2  0  0  0  0
 32 31  1  0  0  0  0
 32 33  2  0  0  0  0
 33 29  1  0  0  0  0
 34 30  1  0  0  0  0
M  END
>  <MODEL>
5

>  <REMARK>
 VINA RESULT:      -8.9      1.992      7.757
  Name = 
  5 active torsions:
  status: ('A' for Active; 'I' for Inactive)
    1  A    between atoms: O_3  and  N_13
    2  A    between atoms: O_3  and  C_17
    3  A    between atoms: O_7  and  C_8
    4  A    between atoms: C_12  and  C_28
    5  A    between atoms: C_17  and  C_29
                            x       y       z     vdW  Elec       q    Type
                         _______ _______ _______ _____ _____    ______ ____

>  <TORSDO>
F 5

$$$$
=
 OpenBabel11052413583D

 34 39  0  0  1  0  0  0  0  0999 V2000
  184.9580  178.2750  143.6690 C   0  0  0  0  0  0  0  0  0  0  0  0
  185.0940  178.9010  141.2840 C   0  0  0  0  0  0  0  0  0  0  0  0
  187.1780  178.2490  142.5770 C   0  0  0  0  0  0  0  0  0  0  0  0
  189.3990  177.5770  141.8100 N   0  0  1  0  0  0  0  0  0  0  0  0
  182.9760  178.6480  142.3680 C   0  0  0  0  0  3  0  0  0  0  0  0
  183.7340  178.9490  141.2800 N   0  0  0  0  0  0  0  0  0  0  0  0
  187.7810  177.5230  140.1520 C   0  0  0  0  0  2  0  0  0  0  0  0
  185.7810  178.4670  142.4450 C   0  0  0  0  0  0  0  0  0  0  0  0
  190.1640  177.5590  140.5790 C   0  0  0  0  0  2  0  0  0  0  0  0
  183.5720  178.3250  143.5830 C   0  0  0  0  0  3  0  0  0  0  0  0
  187.7160  178.1500  143.8870 C   0  0  0  0  0  0  0  0  0  0  0  0
  185.5370  178.0880  144.8440 O   0  0  0  0  0  0  0  0  0  0  0  0
  185.7250  179.3580  140.2550 N   0  0  0  0  0  2  0  0  0  0  0  0
  190.0320  178.3700  142.8470 C   0  0  0  0  0  2  0  0  0  0  0  0
  189.2180  178.1730  144.1410 C   0  0  2  0  0  3  0  0  0  0  0  0
  189.1320  177.3170  139.4770 C   0  0  2  0  0  3  0  0  0  0  0  0
  188.1690  178.2420  141.4240 C   0  0  1  0  0  3  0  0  0  0  0  0
  186.8540  178.0600  144.9850 C   0  0  0  0  0  3  0  0  0  0  0  0
  191.3200  176.7330  146.6180 C   0  0  0  0  0  0  0  0  0  0  0  0
  189.6780  176.9540  144.9570 C   0  0  2  0  0  3  0  0  0  0  0  0
  191.8400  176.1980  145.5710 N   0  0  0  0  0  0  0  0  0  0  0  0
  189.9730  177.3220  146.4050 C   0  0  0  0  0  2  0  0  0  0  0  0
  190.9600  176.3100  144.4250 C   0  0  0  0  0  2  0  0  0  0  0  0
  191.9950  176.7390  147.8390 O   0  0  0  0  0  0  0  0  0  0  0  0
  192.8040  175.6510  148.2550 C   0  0  0  0  0  1  0  0  0  0  0  0
  189.3230  178.2990  138.3260 C   0  0  0  0  0  2  0  0  0  0  0  0
  189.6310  177.6090  137.1170 O   0  0  0  0  0  0  0  0  0  0  0  0
  188.4590  175.2710  136.5810 O   0  0  0  0  0  0  0  0  0  0  0  0
  190.3540  176.4290  137.0910 N   0  0  0  0  0  0  0  0  0  0  0  0
  189.6960  175.2620  136.8220 C   0  0  0  0  0  0  0  0  0  0  0  0
  191.7570  174.0360  137.0700 C   0  0  0  0  0  3  0  0  0  0  0  0
  192.4220  175.2320  137.3330 C   0  0  0  0  0  3  0  0  0  0  0  0
  191.6980  176.4260  137.3440 C   0  0  0  0  0  3  0  0  0  0  0  0
  190.3860  174.0480  136.8100 C   0  0  0  0  0  3  0  0  0  0  0  0
  1 12  1  0  0  0  0
  2  8  1  0  0  0  0
  3 11  1  0  0  0  0
  4  9  1  6  0  0  0
  4 14  1  0  0  0  0
  5 10  1  0  0  0  0
  6  2  1  0  0  0  0
  6  5  2  0  0  0  0
  8  3  2  0  0  0  0
  8  1  1  0  0  0  0
 10  1  2  0  0  0  0
 11 15  1  0  0  0  0
 11 18  2  0  0  0  0
 12 18  1  0  0  0  0
 13  2  2  0  0  0  0
 15 14  1  6  0  0  0
 15 20  1  0  0  0  0
 16 26  1  6  0  0  0
 16  7  1  0  0  0  0
 16  9  1  0  0  0  0
 17  7  1  6  0  0  0
 17  4  1  0  0  0  0
 17  3  1  0  0  0  0
 19 24  1  0  0  0  0
 20 23  1  6  0  0  0
 20 22  1  0  0  0  0
 21 19  2  0  0  0  0
 22 19  1  0  0  0  0
 23 21  1  0  0  0  0
 24 25  1  0  0  0  0
 27 26  1  0  0  0  0
 28 30  2  0  0  0  0
 29 27  1  0  0  0  0
 29 33  1  0  0  0  0
 30 29  1  0  0  0  0
 31 32  1  0  0  0  0
 32 33  2  0  0  0  0
 34 30  1  0  0  0  0
 34 31  2  0  0  0  0
M  END
>  <MODEL>
6

>  <REMARK>
 VINA RESULT:      -8.9      1.965      6.003
  Name = 
  5 active torsions:
  status: ('A' for Active; 'I' for Inactive)
    1  A    between atoms: O_3  and  N_13
    2  A    between atoms: O_3  and  C_17
    3  A    between atoms: O_7  and  C_8
    4  A    between atoms: C_12  and  C_28
    5  A    between atoms: C_17  and  C_29
                            x       y       z     vdW  Elec       q    Type
                         _______ _______ _______ _____ _____    ______ ____

>  <TORSDO>
F 5

$$$$
=
 OpenBabel11052413583D

 34 39  0  0  1  0  0  0  0  0999 V2000
  186.1850  177.9440  144.7080 C   0  0  0  0  0  0  0  0  0  0  0  0
  186.5390  178.4930  142.3260 C   0  0  0  0  0  0  0  0  0  0  0  0
  188.4790  177.7740  143.7960 C   0  0  0  0  0  0  0  0  0  0  0  0
  190.7130  176.9670  143.2230 N   0  0  1  0  0  0  0  0  0  0  0  0
  184.3330  178.3800  143.2460 C   0  0  0  0  0  3  0  0  0  0  0  0
  185.1870  178.6100  142.2140 N   0  0  0  0  0  0  0  0  0  0  0  0
  189.2280  176.9470  141.4450 C   0  0  0  0  0  2  0  0  0  0  0  0
  187.1090  178.0590  143.5480 C   0  0  0  0  0  0  0  0  0  0  0  0
  191.5690  176.8740  142.0570 C   0  0  0  0  0  2  0  0  0  0  0  0
  184.8140  178.0620  144.5120 C   0  0  0  0  0  3  0  0  0  0  0  0
  188.9070  177.6850  145.1460 C   0  0  0  0  0  0  0  0  0  0  0  0
  186.6610  177.7620  145.9300 O   0  0  0  0  0  0  0  0  0  0  0  0
  187.2710  178.8870  141.3390 N   0  0  0  0  0  2  0  0  0  0  0  0
  191.3050  177.7560  144.2870 C   0  0  0  0  0  2  0  0  0  0  0  0
  190.3850  177.6390  145.5170 C   0  0  2  0  0  3  0  0  0  0  0  0
  190.6150  176.6530  140.8840 C   0  0  2  0  0  3  0  0  0  0  0  0
  189.5540  177.6830  142.7250 C   0  0  1  0  0  3  0  0  0  0  0  0
  187.9590  177.6710  146.1750 C   0  0  0  0  0  3  0  0  0  0  0  0
  192.3970  176.0780  147.9950 C   0  0  0  0  0  0  0  0  0  0  0  0
  190.7140  176.4220  146.3980 C   0  0  2  0  0  3  0  0  0  0  0  0
  192.7800  175.4070  146.9660 N   0  0  0  0  0  0  0  0  0  0  0  0
  191.1360  176.8370  147.8010 C   0  0  0  0  0  2  0  0  0  0  0  0
  191.8630  175.5690  145.8560 C   0  0  0  0  0  2  0  0  0  0  0  0
  193.1320  176.0660  149.1800 O   0  0  0  0  0  0  0  0  0  0  0  0
  193.5370  177.2640  149.8250 C   0  0  0  0  0  1  0  0  0  0  0  0
  190.9450  177.5910  139.7280 C   0  0  0  0  0  2  0  0  0  0  0  0
  190.2290  177.2180  138.5520 O   0  0  0  0  0  0  0  0  0  0  0  0
  188.1700  175.8680  137.5200 O   0  0  0  0  0  0  0  0  0  0  0  0
  190.4090  175.9990  137.9200 N   0  0  0  0  0  0  0  0  0  0  0  0
  189.3140  175.3510  137.4220 C   0  0  0  0  0  0  0  0  0  0  0  0
  190.7200  173.5360  136.6810 C   0  0  0  0  0  3  0  0  0  0  0  0
  191.8320  174.2100  137.1830 C   0  0  0  0  0  3  0  0  0  0  0  0
  191.6540  175.4470  137.8070 C   0  0  0  0  0  3  0  0  0  0  0  0
  189.4520  174.1090  136.7970 C   0  0  0  0  0  3  0  0  0  0  0  0
  1 12  1  0  0  0  0
  2  8  1  0  0  0  0
  3 11  1  0  0  0  0
  4  9  1  6  0  0  0
  4 14  1  0  0  0  0
  5 10  1  0  0  0  0
  6  2  1  0  0  0  0
  6  5  2  0  0  0  0
  8  3  2  0  0  0  0
  8  1  1  0  0  0  0
 10  1  2  0  0  0  0
 11 15  1  0  0  0  0
 11 18  2  0  0  0  0
 12 18  1  0  0  0  0
 13  2  2  0  0  0  0
 15 14  1  6  0  0  0
 15 20  1  0  0  0  0
 16 26  1  6  0  0  0
 16  7  1  0  0  0  0
 16  9  1  0  0  0  0
 17  7  1  6  0  0  0
 17  4  1  0  0  0  0
 17  3  1  0  0  0  0
 19 24  1  0  0  0  0
 20 23  1  6  0  0  0
 20 22  1  0  0  0  0
 21 19  2  0  0  0  0
 22 19  1  0  0  0  0
 23 21  1  0  0  0  0
 24 25  1  0  0  0  0
 27 26  1  0  0  0  0
 29 27  1  0  0  0  0
 30 28  2  0  0  0  0
 30 29  1  0  0  0  0
 31 34  2  0  0  0  0
 31 32  1  0  0  0  0
 32 33  2  0  0  0  0
 33 29  1  0  0  0  0
 34 30  1  0  0  0  0
M  END
>  <MODEL>
7

>  <REMARK>
 VINA RESULT:      -8.5      1.855      5.993
  Name = 
  5 active torsions:
  status: ('A' for Active; 'I' for Inactive)
    1  A    between atoms: O_3  and  N_13
    2  A    between atoms: O_3  and  C_17
    3  A    between atoms: O_7  and  C_8
    4  A    between atoms: C_12  and  C_28
    5  A    between atoms: C_17  and  C_29
                            x       y       z     vdW  Elec       q    Type
                         _______ _______ _______ _____ _____    ______ ____

>  <TORSDO>
F 5

$$$$
=
 OpenBabel11052413583D

 34 39  0  0  1  0  0  0  0  0999 V2000
  187.1070  178.2520  139.5360 C   0  0  2  0  0  3  0  0  0  0  0  0
  188.8600  178.1640  141.2740 C   0  0  0  0  0  0  0  0  0  0  0  0
  186.4210  178.4780  141.9030 C   0  0  0  0  0  0  0  0  0  0  0  0
  185.2670  178.2040  144.0400 N   0  0  1  0  0  0  0  0  0  0  0  0
  189.3770  177.7060  138.9830 C   0  0  0  0  0  3  0  0  0  0  0  0
  189.7420  177.8590  140.2840 N   0  0  0  0  0  0  0  0  0  0  0  0
  187.3790  177.2530  143.9900 C   0  0  0  0  0  2  0  0  0  0  0  0
  187.4800  178.2820  140.9760 C   0  0  0  0  0  0  0  0  0  0  0  0
  185.5990  178.0220  145.4390 C   0  0  0  0  0  2  0  0  0  0  0  0
  188.0610  177.9180  138.5840 C   0  0  0  0  0  3  0  0  0  0  0  0
  185.1660  178.9090  141.4010 C   0  0  0  0  0  0  0  0  0  0  0  0
  185.8810  178.5740  139.1550 O   0  0  0  0  0  0  0  0  0  0  0  0
  189.3270  178.4460  142.4440 N   0  0  0  0  0  1  0  0  0  0  0  0
  184.4810  179.4000  143.8050 C   0  0  0  0  0  2  0  0  0  0  0  0
  184.0540  179.3900  142.3250 C   0  0  2  0  0  3  0  0  0  0  0  0
  186.8950  177.2120  145.4350 C   0  0  2  0  0  3  0  0  0  0  0  0
  186.5630  178.3880  143.4150 C   0  0  1  0  0  3  0  0  0  0  0  0
  184.9420  178.9270  140.0200 C   0  0  0  0  0  3  0  0  0  0  0  0
  180.5870  179.3780  141.5460 C   0  0  0  0  0  0  0  0  0  0  0  0
  182.7420  178.6250  142.0860 C   0  0  2  0  0  3  0  0  0  0  0  0
  180.5200  179.0560  142.7900 N   0  0  0  0  0  0  0  0  0  0  0  0
  181.9350  179.2280  140.9430 C   0  0  0  0  0  2  0  0  0  0  0  0
  181.8070  178.6220  143.2960 C   0  0  0  0  0  2  0  0  0  0  0  0
  179.4620  179.8240  140.8530 O   0  0  0  0  0  0  0  0  0  0  0  0
  179.5090  180.9490  139.9890 C   0  0  0  0  0  1  0  0  0  0  0  0
  187.9270  177.8280  146.3740 C   0  0  0  0  0  2  0  0  0  0  0  0
  189.2120  177.8730  145.7550 O   0  0  0  0  0  0  0  0  0  0  0  0
  190.6760  176.3730  144.1020 O   0  0  0  0  0  0  0  0  0  0  0  0
  190.2900  177.1360  146.2140 N   0  0  0  0  0  0  0  0  0  0  0  0
  190.9940  176.3780  145.3210 C   0  0  0  0  0  0  0  0  0  0  0  0
  192.4330  175.6120  147.0990 C   0  0  0  0  0  3  0  0  0  0  0  0
  191.7160  176.3960  148.0000 C   0  0  0  0  0  3  0  0  0  0  0  0
  190.6370  177.1530  147.5360 C   0  0  0  0  0  3  0  0  0  0  0  0
  192.0750  175.6030  145.7500 C   0  0  0  0  0  3  0  0  0  0  0  0
  1 10  1  6  0  0  0
  1  8  1  0  0  0  0
  2 13  1  0  0  0  0
  3 17  1  0  0  0  0
  4 14  1  1  0  0  0
  4  9  1  0  0  0  0
  5  6  1  0  0  0  0
  6  2  2  0  0  0  0
  7 16  1  0  0  0  0
  8  2  1  0  0  0  0
  8  3  2  0  0  0  0
 10  5  2  0  0  0  0
 11  3  1  0  0  0  0
 11 15  1  0  0  0  0
 12  1  1  0  0  0  0
 12 18  1  0  0  0  0
 15 14  1  1  0  0  0
 16  9  1  0  0  0  0
 16 26  1  1  0  0  0
 17  7  1  6  0  0  0
 17  4  1  0  0  0  0
 18 11  2  0  0  0  0
 19 21  2  0  0  0  0
 20 22  1  6  0  0  0
 20 15  1  0  0  0  0
 20 23  1  0  0  0  0
 21 23  1  0  0  0  0
 22 19  1  0  0  0  0
 24 19  1  0  0  0  0
 25 24  1  0  0  0  0
 27 29  1  0  0  0  0
 27 26  1  0  0  0  0
 28 30  2  0  0  0  0
 29 33  1  0  0  0  0
 30 34  1  0  0  0  0
 30 29  1  0  0  0  0
 31 32  1  0  0  0  0
 33 32  2  0  0  0  0
 34 31  2  0  0  0  0
M  END
>  <MODEL>
8

>  <REMARK>
 VINA RESULT:      -8.4      2.126      6.614
  Name = 
  5 active torsions:
  status: ('A' for Active; 'I' for Inactive)
    1  A    between atoms: O_3  and  N_13
    2  A    between atoms: O_3  and  C_17
    3  A    between atoms: O_7  and  C_8
    4  A    between atoms: C_12  and  C_28
    5  A    between atoms: C_17  and  C_29
                            x       y       z     vdW  Elec       q    Type
                         _______ _______ _______ _____ _____    ______ ____

>  <TORSDO>
F 5

$$$$
=
 OpenBabel11052413583D

 34 39  0  0  1  0  0  0  0  0999 V2000
  192.3610  175.7860  136.3640 C   0  0  2  0  0  3  0  0  0  0  0  0
  193.1620  176.4320  138.6090 C   0  0  0  0  0  0  0  0  0  0  0  0
  190.7730  176.9070  137.8960 C   0  0  0  0  0  0  0  0  0  0  0  0
  188.7870  177.4650  139.2060 N   0  0  1  0  0  0  0  0  0  0  0  0
  194.5310  175.1240  137.1470 C   0  0  0  0  0  3  0  0  0  0  0  0
  194.3220  175.7850  138.3160 N   0  0  0  0  0  0  0  0  0  0  0  0
  190.5360  176.6240  140.4720 C   0  0  0  0  0  2  0  0  0  0  0  0
  192.0810  176.3890  137.6950 C   0  0  0  0  0  0  0  0  0  0  0  0
  188.4550  177.8560  140.5620 C   0  0  0  0  0  2  0  0  0  0  0  0
  193.5650  175.1280  136.1450 C   0  0  0  0  0  3  0  0  0  0  0  0
  189.9400  177.0730  136.7590 C   0  0  0  0  0  0  0  0  0  0  0  0
  191.4850  175.9000  135.3780 O   0  0  0  0  0  0  0  0  0  0  0  0
  193.1200  177.1630  139.6730 N   0  0  0  0  0  1  0  0  0  0  0  0
  188.3790  178.4520  138.2260 C   0  0  0  0  0  2  0  0  0  0  0  0
  188.6320  177.8510  136.8300 C   0  0  2  0  0  3  0  0  0  0  0  0
  189.4800  177.1420  141.4420 C   0  0  2  0  0  3  0  0  0  0  0  0
  190.2370  177.4210  139.2220 C   0  0  1  0  0  3  0  0  0  0  0  0
  190.3360  176.5420  135.5270 C   0  0  0  0  0  3  0  0  0  0  0  0
  185.3470  176.5620  137.2560 C   0  0  0  0  0  0  0  0  0  0  0  0
  187.4450  177.0200  136.3120 C   0  0  2  0  0  3  0  0  0  0  0  0
  186.0160  175.4730  137.4010 N   0  0  0  0  0  0  0  0  0  0  0  0
  186.1110  177.6760  136.6390 C   0  0  0  0  0  2  0  0  0  0  0  0
  187.3740  175.6150  136.9140 C   0  0  0  0  0  2  0  0  0  0  0  0
  184.0150  176.6510  137.6570 O   0  0  0  0  0  0  0  0  0  0  0  0
  183.3380  175.5610  138.2650 C   0  0  0  0  0  1  0  0  0  0  0  0
  190.0940  178.1040  142.4540 C   0  0  0  0  0  2  0  0  0  0  0  0
  190.5460  177.4010  143.6100 O   0  0  0  0  0  0  0  0  0  0  0  0
  191.7780  177.0600  145.9540 O   0  0  0  0  0  0  0  0  0  0  0  0
  189.8400  177.3840  144.8010 N   0  0  0  0  0  0  0  0  0  0  0  0
  190.5250  177.1940  145.9670 C   0  0  0  0  0  0  0  0  0  0  0  0
  188.4580  177.3030  147.2050 C   0  0  0  0  0  3  0  0  0  0  0  0
  187.7690  177.5070  146.0110 C   0  0  0  0  0  3  0  0  0  0  0  0
  188.4810  177.5400  144.8110 C   0  0  0  0  0  3  0  0  0  0  0  0
  189.8450  177.1480  147.1870 C   0  0  0  0  0  3  0  0  0  0  0  0
  1 10  1  6  0  0  0
  1  8  1  0  0  0  0
  2 13  1  0  0  0  0
  3 17  1  0  0  0  0
  4 14  1  6  0  0  0
  4 17  1  0  0  0  0
  4  9  1  0  0  0  0
  5  6  1  0  0  0  0
  6  2  2  0  0  0  0
  7 16  1  0  0  0  0
  8  3  2  0  0  0  0
  8  2  1  0  0  0  0
  9 16  1  0  0  0  0
 10  5  2  0  0  0  0
 11 15  1  0  0  0  0
 11  3  1  0  0  0  0
 12 18  1  0  0  0  0
 12  1  1  0  0  0  0
 15 14  1  1  0  0  0
 16 26  1  1  0  0  0
 17  7  1  1  0  0  0
 18 11  2  0  0  0  0
 19 21  2  0  0  0  0
 19 24  1  0  0  0  0
 20 22  1  1  0  0  0
 20 15  1  0  0  0  0
 20 23  1  0  0  0  0
 22 19  1  0  0  0  0
 23 21  1  0  0  0  0
 24 25  1  0  0  0  0
 26 27  1  0  0  0  0
 27 29  1  0  0  0  0
 28 30  2  0  0  0  0
 29 33  1  0  0  0  0
 29 30  1  0  0  0  0
 30 34  1  0  0  0  0
 32 31  1  0  0  0  0
 33 32  2  0  0  0  0
 34 31  2  0  0  0  0
M  END
>  <MODEL>
9

>  <REMARK>
 VINA RESULT:      -8.4      3.144      8.112
  Name = 
  5 active torsions:
  status: ('A' for Active; 'I' for Inactive)
    1  A    between atoms: O_3  and  N_13
    2  A    between atoms: O_3  and  C_17
    3  A    between atoms: O_7  and  C_8
    4  A    between atoms: C_12  and  C_28
    5  A    between atoms: C_17  and  C_29
                            x       y       z     vdW  Elec       q    Type
                         _______ _______ _______ _____ _____    ______ ____

>  <TORSDO>
F 5

$$$$
