=
 OpenBabel11052413313D

 28 29  0  0  1  0  0  0  0  0999 V2000
  187.6340  177.9790  144.9060 C   0  0  2  0  0  3  0  0  0  0  0  0
  186.2460  179.2880  146.5840 C   0  0  0  0  0  1  0  0  0  0  0  0
  186.2400  178.2110  145.5090 C   0  0  1  0  0  3  0  0  0  0  0  0
  185.7490  178.8950  140.2350 O   0  0  0  0  0  0  0  0  0  0  0  0
  183.1540  178.8250  142.6160 C   0  0  0  0  0  0  0  0  0  0  0  0
  185.4930  178.5560  143.1430 C   0  0  0  0  0  3  0  0  0  0  0  0
  183.4630  179.1030  140.1390 N   0  0  0  0  0  0  0  0  0  0  0  0
  184.4790  178.7600  142.2050 C   0  0  0  0  0  0  0  0  0  0  0  0
  183.7870  178.4860  144.8930 C   0  0  0  0  0  3  0  0  0  0  0  0
  182.2250  179.0740  141.2520 S   0  0  0  0  0  0  0  0  0  0  0  0
  182.7720  178.6930  143.9460 C   0  0  0  0  0  3  0  0  0  0  0  0
  183.3080  179.2900  138.7070 C   0  0  0  0  0  1  0  0  0  0  0  0
  184.6290  178.9210  140.8150 C   0  0  0  0  0  0  0  0  0  0  0  0
  185.1450  178.4140  144.4990 C   0  0  0  0  0  0  0  0  0  0  0  0
  187.8400  176.5670  144.3620 C   0  0  0  0  0  2  0  0  0  0  0  0
  188.1640  176.6080  142.8820 C   0  0  0  0  0  1  0  0  0  0  0  0
  188.7140  178.3010  145.9340 C   0  0  0  0  0  2  0  0  0  0  0  0
  189.3090  177.0570  146.6010 C   0  0  1  0  0  3  0  0  0  0  0  0
  190.7860  177.1400  146.8770 C   0  0  0  0  0  0  0  0  0  0  0  0
  191.7640  177.0260  145.8330 N   0  0  0  0  0  2  0  0  0  0  0  0
  191.1840  177.3530  148.0530 O   0  0  0  0  0  0  0  0  0  0  0  0
  191.4560  175.4970  143.9890 C   0  0  0  0  0  2  0  0  0  0  0  0
  191.5660  176.7470  144.4350 C   0  0  0  0  0  0  0  0  0  0  0  0
  191.5150  177.8730  143.4760 C   0  0  0  0  0  0  0  0  0  0  0  0
  191.5350  177.6420  142.0010 C   0  0  0  0  0  1  0  0  0  0  0  0
  191.4440  179.1240  143.9110 C   0  0  0  0  0  2  0  0  0  0  0  0
  188.0170  177.5360  148.7440 C   0  0  0  0  0  1  0  0  0  0  0  0
  188.4720  176.4830  147.7480 C   0  0  0  0  0  2  0  0  0  0  0  0
  1 15  1  1  0  0  0
  1  3  1  0  0  0  0
  1 17  1  0  0  0  0
  3  2  1  1  0  0  0
  4 13  2  0  0  0  0
  5 11  1  0  0  0  0
  6 14  2  0  0  0  0
  7 13  1  0  0  0  0
  7 10  1  0  0  0  0
  8  5  2  0  0  0  0
  8  6  1  0  0  0  0
 10  5  1  0  0  0  0
 11  9  2  0  0  0  0
 12  7  1  0  0  0  0
 13  8  1  0  0  0  0
 14  9  1  0  0  0  0
 14  3  1  0  0  0  0
 16 15  1  0  0  0  0
 18 17  1  1  0  0  0
 18 19  1  0  0  0  0
 18 28  1  0  0  0  0
 19 21  2  0  0  0  0
 20 19  1  0  0  0  0
 22 23  2  0  0  0  0
 23 20  1  0  0  0  0
 24 26  2  0  0  0  0
 24 23  1  0  0  0  0
 25 24  1  0  0  0  0
 28 27  1  0  0  0  0
M  END
>  <MODEL>
1

>  <REMARK>
 VINA RESULT:      -8.2      0.000      0.000
  Name = 
  9 active torsions:
  status: ('A' for Active; 'I' for Inactive)
    1  A    between atoms: C_1  and  C_2
    2  A    between atoms: C_1  and  C_17
    3  A    between atoms: C_1  and  C_26
    4  A    between atoms: N_3  and  C_11
    5  A    between atoms: C_6  and  C_11
    6  A    between atoms: C_16  and  C_27
    7  A    between atoms: C_17  and  C_27
    8  A    between atoms: C_20  and  C_25
    9  A    between atoms: C_20  and  C_27
                            x       y       z     vdW  Elec       q    Type
                         _______ _______ _______ _____ _____    ______ ____

>  <TORSDO>
F 9

$$$$
=
 OpenBabel11052413313D

 28 29  0  0  1  0  0  0  0  0999 V2000
  187.6690  177.8520  144.5970 C   0  0  2  0  0  3  0  0  0  0  0  0
  186.0510  179.0940  146.1100 C   0  0  0  0  0  1  0  0  0  0  0  0
  186.2020  178.0630  145.0020 C   0  0  1  0  0  3  0  0  0  0  0  0
  180.9770  178.8430  144.2110 O   0  0  0  0  0  0  0  0  0  0  0  0
  183.5030  178.7400  141.7580 C   0  0  0  0  0  0  0  0  0  0  0  0
  183.8910  178.4650  144.1230 C   0  0  0  0  0  3  0  0  0  0  0  0
  181.0160  179.0560  141.9250 N   0  0  0  0  0  0  0  0  0  0  0  0
  183.0160  178.6820  143.0570 C   0  0  0  0  0  0  0  0  0  0  0  0
  185.7350  178.3740  142.5210 C   0  0  0  0  0  3  0  0  0  0  0  0
  182.1980  179.0090  140.7520 S   0  0  0  0  0  0  0  0  0  0  0  0
  184.8510  178.5900  141.4530 C   0  0  0  0  0  3  0  0  0  0  0  0
  179.5990  179.2700  141.6880 C   0  0  0  0  0  1  0  0  0  0  0  0
  181.6210  178.8590  143.1270 C   0  0  0  0  0  0  0  0  0  0  0  0
  185.2630  178.3130  143.8540 C   0  0  0  0  0  0  0  0  0  0  0  0
  187.9830  176.4250  144.1540 C   0  0  0  0  0  2  0  0  0  0  0  0
  188.3980  176.3990  142.6960 C   0  0  0  0  0  1  0  0  0  0  0  0
  188.5950  178.2560  145.7390 C   0  0  0  0  0  2  0  0  0  0  0  0
  189.1860  177.0610  146.4940 C   0  0  1  0  0  3  0  0  0  0  0  0
  190.6350  177.2130  146.8730 C   0  0  0  0  0  0  0  0  0  0  0  0
  191.6900  177.1150  145.9030 N   0  0  0  0  0  2  0  0  0  0  0  0
  190.9380  177.4720  148.0670 O   0  0  0  0  0  0  0  0  0  0  0  0
  191.5860  175.5300  144.0840 C   0  0  0  0  0  2  0  0  0  0  0  0
  191.6030  176.7930  144.5030 C   0  0  0  0  0  0  0  0  0  0  0  0
  191.5660  177.8930  143.5130 C   0  0  0  0  0  0  0  0  0  0  0  0
  191.6510  177.6250  142.0470 C   0  0  0  0  0  1  0  0  0  0  0  0
  191.4480  179.1530  143.9120 C   0  0  0  0  0  2  0  0  0  0  0  0
  187.8860  177.5330  148.6350 C   0  0  0  0  0  1  0  0  0  0  0  0
  188.2900  176.4950  147.6000 C   0  0  0  0  0  2  0  0  0  0  0  0
  1 15  1  1  0  0  0
  1  3  1  0  0  0  0
  1 17  1  0  0  0  0
  3  2  1  1  0  0  0
  5  8  1  0  0  0  0
  7 13  1  0  0  0  0
  8 13  1  0  0  0  0
  8  6  2  0  0  0  0
  9 14  2  0  0  0  0
 10  5  1  0  0  0  0
 10  7  1  0  0  0  0
 11  5  2  0  0  0  0
 11  9  1  0  0  0  0
 12  7  1  0  0  0  0
 13  4  2  0  0  0  0
 14  6  1  0  0  0  0
 14  3  1  0  0  0  0
 16 15  1  0  0  0  0
 18 17  1  1  0  0  0
 18 19  1  0  0  0  0
 18 28  1  0  0  0  0
 19 21  2  0  0  0  0
 20 19  1  0  0  0  0
 22 23  2  0  0  0  0
 23 20  1  0  0  0  0
 24 26  2  0  0  0  0
 24 23  1  0  0  0  0
 25 24  1  0  0  0  0
 28 27  1  0  0  0  0
M  END
>  <MODEL>
2

>  <REMARK>
 VINA RESULT:      -7.9      1.560      2.018
  Name = 
  9 active torsions:
  status: ('A' for Active; 'I' for Inactive)
    1  A    between atoms: C_1  and  C_2
    2  A    between atoms: C_1  and  C_17
    3  A    between atoms: C_1  and  C_26
    4  A    between atoms: N_3  and  C_11
    5  A    between atoms: C_6  and  C_11
    6  A    between atoms: C_16  and  C_27
    7  A    between atoms: C_17  and  C_27
    8  A    between atoms: C_20  and  C_25
    9  A    between atoms: C_20  and  C_27
                            x       y       z     vdW  Elec       q    Type
                         _______ _______ _______ _____ _____    ______ ____

>  <TORSDO>
F 9

$$$$
=
 OpenBabel11052413313D

 28 29  0  0  1  0  0  0  0  0999 V2000
  190.1570  176.6740  142.9260 C   0  0  2  0  0  3  0  0  0  0  0  0
  190.9150  178.9170  143.8440 C   0  0  0  0  0  1  0  0  0  0  0  0
  190.2360  177.5920  144.1550 C   0  0  1  0  0  3  0  0  0  0  0  0
  185.1050  178.5410  143.0150 O   0  0  0  0  0  0  0  0  0  0  0  0
  186.5300  178.1410  146.2120 C   0  0  0  0  0  0  0  0  0  0  0  0
  187.7670  178.0170  144.1450 C   0  0  0  0  0  3  0  0  0  0  0  0
  184.2910  178.5840  145.1620 N   0  0  0  0  0  0  0  0  0  0  0  0
  186.5620  178.1990  144.8240 C   0  0  0  0  0  0  0  0  0  0  0  0
  188.8780  177.7190  146.3020 C   0  0  0  0  0  3  0  0  0  0  0  0
  184.9480  178.3980  146.6810 S   0  0  0  0  0  0  0  0  0  0  0  0
  187.6630  177.9040  146.9800 C   0  0  0  0  0  3  0  0  0  0  0  0
  182.8910  178.8410  144.8740 C   0  0  0  0  0  1  0  0  0  0  0  0
  185.2980  178.4500  144.2580 C   0  0  0  0  0  0  0  0  0  0  0  0
  188.9360  177.7720  144.8890 C   0  0  0  0  0  0  0  0  0  0  0  0
  190.6800  175.2620  143.1800 C   0  0  0  0  0  2  0  0  0  0  0  0
  191.8880  175.2970  144.0950 C   0  0  0  0  0  1  0  0  0  0  0  0
  190.9030  177.2990  141.7510 C   0  0  0  0  0  2  0  0  0  0  0  0
  190.0340  177.4730  140.5020 C   0  0  1  0  0  3  0  0  0  0  0  0
  190.5210  176.7270  139.2890 C   0  0  0  0  0  0  0  0  0  0  0  0
  189.9910  176.9760  137.9780 N   0  0  0  0  0  2  0  0  0  0  0  0
  191.4480  175.8850  139.4130 O   0  0  0  0  0  0  0  0  0  0  0  0
  189.1230  179.1500  137.3830 C   0  0  0  0  0  2  0  0  0  0  0  0
  188.9160  177.8510  137.5890 C   0  0  0  0  0  0  0  0  0  0  0  0
  187.5520  177.2960  137.4490 C   0  0  0  0  0  0  0  0  0  0  0  0
  186.3440  178.1730  137.4990 C   0  0  0  0  0  1  0  0  0  0  0  0
  187.3700  175.9940  137.2650 C   0  0  0  0  0  2  0  0  0  0  0  0
  187.8530  178.7310  140.8950 C   0  0  0  0  0  1  0  0  0  0  0  0
  188.5260  177.3760  140.7530 C   0  0  0  0  0  2  0  0  0  0  0  0
  1 17  1  6  0  0  0
  1 15  1  0  0  0  0
  1  3  1  0  0  0  0
  3  2  1  6  0  0  0
  3 14  1  0  0  0  0
  4 13  2  0  0  0  0
  5 10  1  0  0  0  0
  5 11  1  0  0  0  0
  6  8  1  0  0  0  0
  6 14  2  0  0  0  0
  7 10  1  0  0  0  0
  8  5  2  0  0  0  0
  9 11  2  0  0  0  0
 12  7  1  0  0  0  0
 13  8  1  0  0  0  0
 13  7  1  0  0  0  0
 14  9  1  0  0  0  0
 15 16  1  0  0  0  0
 18 28  1  1  0  0  0
 18 17  1  0  0  0  0
 19 21  2  0  0  0  0
 19 18  1  0  0  0  0
 20 19  1  0  0  0  0
 22 23  2  0  0  0  0
 23 20  1  0  0  0  0
 24 25  1  0  0  0  0
 24 23  1  0  0  0  0
 26 24  2  0  0  0  0
 28 27  1  0  0  0  0
M  END
>  <MODEL>
3

>  <REMARK>
 VINA RESULT:      -7.5      3.420      5.952
  Name = 
  9 active torsions:
  status: ('A' for Active; 'I' for Inactive)
    1  A    between atoms: C_1  and  C_2
    2  A    between atoms: C_1  and  C_17
    3  A    between atoms: C_1  and  C_26
    4  A    between atoms: N_3  and  C_11
    5  A    between atoms: C_6  and  C_11
    6  A    between atoms: C_16  and  C_27
    7  A    between atoms: C_17  and  C_27
    8  A    between atoms: C_20  and  C_25
    9  A    between atoms: C_20  and  C_27
                            x       y       z     vdW  Elec       q    Type
                         _______ _______ _______ _____ _____    ______ ____

>  <TORSDO>
F 9

$$$$
=
 OpenBabel11052413313D

 28 29  0  0  1  0  0  0  0  0999 V2000
  189.9900  178.3350  143.4390 C   0  0  2  0  0  3  0  0  0  0  0  0
  190.9750  176.0000  143.2710 C   0  0  0  0  0  1  0  0  0  0  0  0
  190.8440  177.3640  142.6100 C   0  0  1  0  0  3  0  0  0  0  0  0
  186.6570  178.5370  139.5090 O   0  0  0  0  0  0  0  0  0  0  0  0
  189.6960  177.0660  138.5040 C   0  0  0  0  0  0  0  0  0  0  0  0
  189.1840  177.7190  140.7690 C   0  0  0  0  0  3  0  0  0  0  0  0
  187.5080  177.7950  137.5090 N   0  0  0  0  0  0  0  0  0  0  0  0
  188.8150  177.6150  139.4270 C   0  0  0  0  0  0  0  0  0  0  0  0
  191.3360  176.7080  140.2020 C   0  0  0  0  0  3  0  0  0  0  0  0
  188.9380  177.0980  137.0170 S   0  0  0  0  0  0  0  0  0  0  0  0
  190.9590  176.6030  138.8540 C   0  0  0  0  0  3  0  0  0  0  0  0
  186.3800  178.1070  136.6480 C   0  0  0  0  0  1  0  0  0  0  0  0
  187.5950  178.0140  138.8480 C   0  0  0  0  0  0  0  0  0  0  0  0
  190.4560  177.2650  141.1610 C   0  0  0  0  0  0  0  0  0  0  0  0
  190.7210  179.6170  143.8290 C   0  0  0  0  0  2  0  0  0  0  0  0
  192.0830  179.2970  144.4130 C   0  0  0  0  0  1  0  0  0  0  0  0
  189.4610  177.6380  144.6880 C   0  0  0  0  0  2  0  0  0  0  0  0
  187.9370  177.7050  144.8230 C   0  0  1  0  0  3  0  0  0  0  0  0
  187.1800  176.9300  143.7780 C   0  0  0  0  0  0  0  0  0  0  0  0
  186.0240  177.4690  143.1190 N   0  0  0  0  0  2  0  0  0  0  0  0
  187.5890  175.7880  143.4390 O   0  0  0  0  0  0  0  0  0  0  0  0
  185.7340  179.8370  142.7470 C   0  0  0  0  0  2  0  0  0  0  0  0
  185.3490  178.7180  143.3550 C   0  0  0  0  0  0  0  0  0  0  0  0
  184.2260  178.7590  144.3180 C   0  0  0  0  0  0  0  0  0  0  0  0
  182.8080  178.8420  143.8600 C   0  0  0  0  0  1  0  0  0  0  0  0
  184.4590  178.7130  145.6240 C   0  0  0  0  0  2  0  0  0  0  0  0
  188.5180  177.3650  147.2810 C   0  0  0  0  0  1  0  0  0  0  0  0
  187.4120  177.5370  146.2520 C   0  0  0  0  0  2  0  0  0  0  0  0
  1 15  1  1  0  0  0
  1 17  1  0  0  0  0
  3  2  1  1  0  0  0
  3  1  1  0  0  0  0
  5 11  2  0  0  0  0
  5  8  1  0  0  0  0
  6 14  1  0  0  0  0
  7 13  1  0  0  0  0
  8  6  2  0  0  0  0
  9 14  2  0  0  0  0
 10  7  1  0  0  0  0
 10  5  1  0  0  0  0
 11  9  1  0  0  0  0
 12  7  1  0  0  0  0
 13  8  1  0  0  0  0
 13  4  2  0  0  0  0
 14  3  1  0  0  0  0
 15 16  1  0  0  0  0
 18 17  1  1  0  0  0
 18 28  1  0  0  0  0
 19 18  1  0  0  0  0
 20 23  1  0  0  0  0
 20 19  1  0  0  0  0
 21 19  2  0  0  0  0
 22 23  2  0  0  0  0
 23 24  1  0  0  0  0
 24 26  2  0  0  0  0
 25 24  1  0  0  0  0
 28 27  1  0  0  0  0
M  END
>  <MODEL>
4

>  <REMARK>
 VINA RESULT:      -7.2      2.885      5.907
  Name = 
  9 active torsions:
  status: ('A' for Active; 'I' for Inactive)
    1  A    between atoms: C_1  and  C_2
    2  A    between atoms: C_1  and  C_17
    3  A    between atoms: C_1  and  C_26
    4  A    between atoms: N_3  and  C_11
    5  A    between atoms: C_6  and  C_11
    6  A    between atoms: C_16  and  C_27
    7  A    between atoms: C_17  and  C_27
    8  A    between atoms: C_20  and  C_25
    9  A    between atoms: C_20  and  C_27
                            x       y       z     vdW  Elec       q    Type
                         _______ _______ _______ _____ _____    ______ ____

>  <TORSDO>
F 9

$$$$
=
 OpenBabel11052413313D

 28 29  0  0  1  0  0  0  0  0999 V2000
  184.5990  178.2440  141.9990 C   0  0  2  0  0  3  0  0  0  0  0  0
  182.7720  179.0310  143.5790 C   0  0  0  0  0  1  0  0  0  0  0  0
  184.2610  179.0410  143.2680 C   0  0  1  0  0  3  0  0  0  0  0  0
  189.1650  177.2030  144.3190 O   0  0  0  0  0  0  0  0  0  0  0  0
  186.6580  178.0180  146.6560 C   0  0  0  0  0  0  0  0  0  0  0  0
  186.4070  178.2200  144.2650 C   0  0  0  0  0  3  0  0  0  0  0  0
  189.0170  177.1550  146.6100 N   0  0  0  0  0  0  0  0  0  0  0  0
  187.1820  177.8840  145.3760 C   0  0  0  0  0  0  0  0  0  0  0  0
  184.5870  178.8210  145.7820 C   0  0  0  0  0  3  0  0  0  0  0  0
  187.8430  177.5340  147.7280 S   0  0  0  0  0  0  0  0  0  0  0  0
  185.3700  178.4800  146.8960 C   0  0  0  0  0  3  0  0  0  0  0  0
  190.3460  176.6560  146.9170 C   0  0  0  0  0  1  0  0  0  0  0  0
  188.5030  177.3970  145.3750 C   0  0  0  0  0  0  0  0  0  0  0  0
  185.0990  178.6950  144.4680 C   0  0  0  0  0  0  0  0  0  0  0  0
  185.4480  179.0200  140.9950 C   0  0  0  0  0  2  0  0  0  0  0  0
  186.8990  178.5920  141.0810 C   0  0  0  0  0  1  0  0  0  0  0  0
  183.3200  177.7550  141.3270 C   0  0  0  0  0  2  0  0  0  0  0  0
  183.3990  177.7510  139.7980 C   0  0  1  0  0  3  0  0  0  0  0  0
  183.0680  176.4310  139.1550 C   0  0  0  0  0  0  0  0  0  0  0  0
  183.5860  176.0590  137.8690 N   0  0  0  0  0  2  0  0  0  0  0  0
  182.3450  175.6060  139.7740 O   0  0  0  0  0  0  0  0  0  0  0  0
  183.8610  177.3930  135.8740 C   0  0  0  0  0  2  0  0  0  0  0  0
  184.3900  176.8320  136.9600 C   0  0  0  0  0  0  0  0  0  0  0  0
  185.8390  176.9770  137.2250 C   0  0  0  0  0  0  0  0  0  0  0  0
  186.7590  175.8010  137.1920 C   0  0  0  0  0  1  0  0  0  0  0  0
  186.3580  178.1680  137.4930 C   0  0  0  0  0  2  0  0  0  0  0  0
  181.5040  179.4540  139.8130 C   0  0  0  0  0  1  0  0  0  0  0  0
  182.7680  178.9710  139.1210 C   0  0  0  0  0  2  0  0  0  0  0  0
  1 15  1  6  0  0  0
  1  3  1  0  0  0  0
  3  2  1  1  0  0  0
  3 14  1  0  0  0  0
  4 13  2  0  0  0  0
  5 11  1  0  0  0  0
  5 10  1  0  0  0  0
  6 14  2  0  0  0  0
  6  8  1  0  0  0  0
  7 12  1  0  0  0  0
  7 10  1  0  0  0  0
  8  5  2  0  0  0  0
  9 11  2  0  0  0  0
 13  8  1  0  0  0  0
 13  7  1  0  0  0  0
 14  9  1  0  0  0  0
 15 16  1  0  0  0  0
 17  1  1  0  0  0  0
 18 28  1  6  0  0  0
 18 17  1  0  0  0  0
 19 21  2  0  0  0  0
 19 18  1  0  0  0  0
 20 19  1  0  0  0  0
 22 23  2  0  0  0  0
 23 24  1  0  0  0  0
 23 20  1  0  0  0  0
 24 26  2  0  0  0  0
 25 24  1  0  0  0  0
 28 27  1  0  0  0  0
M  END
>  <MODEL>
5

>  <REMARK>
 VINA RESULT:      -7.2      2.987      7.766
  Name = 
  9 active torsions:
  status: ('A' for Active; 'I' for Inactive)
    1  A    between atoms: C_1  and  C_2
    2  A    between atoms: C_1  and  C_17
    3  A    between atoms: C_1  and  C_26
    4  A    between atoms: N_3  and  C_11
    5  A    between atoms: C_6  and  C_11
    6  A    between atoms: C_16  and  C_27
    7  A    between atoms: C_17  and  C_27
    8  A    between atoms: C_20  and  C_25
    9  A    between atoms: C_20  and  C_27
                            x       y       z     vdW  Elec       q    Type
                         _______ _______ _______ _____ _____    ______ ____

>  <TORSDO>
F 9

$$$$
=
 OpenBabel11052413313D

 28 29  0  0  1  0  0  0  0  0999 V2000
  187.0510  177.4200  143.5960 C   0  0  2  0  0  3  0  0  0  0  0  0
  186.6880  178.6090  141.3800 C   0  0  0  0  0  1  0  0  0  0  0  0
  186.3390  178.5660  142.8610 C   0  0  1  0  0  3  0  0  0  0  0  0
  181.8140  178.4010  140.0290 O   0  0  0  0  0  0  0  0  0  0  0  0
  182.1230  178.8130  143.5130 C   0  0  0  0  0  0  0  0  0  0  0  0
  183.9850  178.5490  142.0040 C   0  0  0  0  0  3  0  0  0  0  0  0
  180.3290  178.6740  141.7600 N   0  0  0  0  0  0  0  0  0  0  0  0
  182.6100  178.6350  142.2250 C   0  0  0  0  0  0  0  0  0  0  0  0
  184.3360  178.8260  144.4070 C   0  0  0  0  0  3  0  0  0  0  0  0
  180.4570  178.8710  143.4080 S   0  0  0  0  0  0  0  0  0  0  0  0
  182.9520  178.9130  144.6240 C   0  0  0  0  0  3  0  0  0  0  0  0
  179.0870  178.6310  141.0080 C   0  0  0  0  0  1  0  0  0  0  0  0
  181.5880  178.5620  141.2590 C   0  0  0  0  0  0  0  0  0  0  0  0
  184.8570  178.6420  143.1040 C   0  0  0  0  0  0  0  0  0  0  0  0
  187.7980  177.8660  144.8500 C   0  0  0  0  0  2  0  0  0  0  0  0
  187.0160  177.4990  146.0960 C   0  0  0  0  0  1  0  0  0  0  0  0
  188.0090  176.7020  142.6510 C   0  0  0  0  0  2  0  0  0  0  0  0
  189.4810  177.0370  142.9060 C   0  0  1  0  0  3  0  0  0  0  0  0
  190.3210  175.8720  143.3580 C   0  0  0  0  0  0  0  0  0  0  0  0
  191.1110  175.9220  144.5560 N   0  0  0  0  0  2  0  0  0  0  0  0
  190.3060  174.8040  142.6910 O   0  0  0  0  0  0  0  0  0  0  0  0
  191.6110  178.2420  145.0010 C   0  0  0  0  0  2  0  0  0  0  0  0
  191.3200  177.0260  145.4550 C   0  0  0  0  0  0  0  0  0  0  0  0
  191.2410  176.7900  146.9140 C   0  0  0  0  0  0  0  0  0  0  0  0
  190.1940  177.4440  147.7550 C   0  0  0  0  0  1  0  0  0  0  0  0
  192.1040  175.9780  147.5120 C   0  0  0  0  0  2  0  0  0  0  0  0
  189.9350  177.3970  140.4250 C   0  0  0  0  0  1  0  0  0  0  0  0
  190.1320  177.9210  141.8380 C   0  0  0  0  0  2  0  0  0  0  0  0
  1 17  1  6  0  0  0
  1 15  1  0  0  0  0
  3  2  1  6  0  0  0
  3 14  1  0  0  0  0
  3  1  1  0  0  0  0
  4 13  2  0  0  0  0
  5 11  1  0  0  0  0
  6  8  1  0  0  0  0
  6 14  2  0  0  0  0
  7 10  1  0  0  0  0
  8  5  2  0  0  0  0
  9 11  2  0  0  0  0
 10  5  1  0  0  0  0
 12  7  1  0  0  0  0
 13  7  1  0  0  0  0
 13  8  1  0  0  0  0
 14  9  1  0  0  0  0
 15 16  1  0  0  0  0
 17 18  1  0  0  0  0
 18 28  1  6  0  0  0
 18 19  1  0  0  0  0
 19 20  1  0  0  0  0
 20 23  1  0  0  0  0
 21 19  2  0  0  0  0
 22 23  2  0  0  0  0
 23 24  1  0  0  0  0
 24 26  2  0  0  0  0
 24 25  1  0  0  0  0
 27 28  1  0  0  0  0
M  END
>  <MODEL>
6

>  <REMARK>
 VINA RESULT:      -7.1      2.155      3.817
  Name = 
  9 active torsions:
  status: ('A' for Active; 'I' for Inactive)
    1  A    between atoms: C_1  and  C_2
    2  A    between atoms: C_1  and  C_17
    3  A    between atoms: C_1  and  C_26
    4  A    between atoms: N_3  and  C_11
    5  A    between atoms: C_6  and  C_11
    6  A    between atoms: C_16  and  C_27
    7  A    between atoms: C_17  and  C_27
    8  A    between atoms: C_20  and  C_25
    9  A    between atoms: C_20  and  C_27
                            x       y       z     vdW  Elec       q    Type
                         _______ _______ _______ _____ _____    ______ ____

>  <TORSDO>
F 9

$$$$
=
 OpenBabel11052413313D

 28 29  0  0  1  0  0  0  0  0999 V2000
  185.0270  178.4210  142.0500 C   0  0  2  0  0  3  0  0  0  0  0  0
  182.9750  178.6390  143.5320 C   0  0  0  0  0  1  0  0  0  0  0  0
  184.4450  178.9870  143.3540 C   0  0  1  0  0  3  0  0  0  0  0  0
  189.2770  177.0700  144.5840 O   0  0  0  0  0  0  0  0  0  0  0  0
  186.7680  178.1030  146.8310 C   0  0  0  0  0  0  0  0  0  0  0  0
  186.5530  178.1650  144.4290 C   0  0  0  0  0  3  0  0  0  0  0  0
  189.1000  177.1680  146.8710 N   0  0  0  0  0  0  0  0  0  0  0  0
  187.3030  177.8740  145.5700 C   0  0  0  0  0  0  0  0  0  0  0  0
  184.7340  178.9130  145.8800 C   0  0  0  0  0  3  0  0  0  0  0  0
  187.9240  177.6500  147.9480 S   0  0  0  0  0  0  0  0  0  0  0  0
  185.4920  178.6180  147.0240 C   0  0  0  0  0  3  0  0  0  0  0  0
  190.4090  176.6490  147.2270 C   0  0  0  0  0  1  0  0  0  0  0  0
  188.6090  177.3490  145.6160 C   0  0  0  0  0  0  0  0  0  0  0  0
  185.2580  178.6910  144.5840 C   0  0  0  0  0  0  0  0  0  0  0  0
  186.0730  179.3240  141.4010 C   0  0  0  0  0  2  0  0  0  0  0  0
  187.4010  178.6020  141.2840 C   0  0  0  0  0  1  0  0  0  0  0  0
  183.9070  178.1290  141.0560 C   0  0  0  0  0  2  0  0  0  0  0  0
  183.9900  178.9740  139.7810 C   0  0  1  0  0  3  0  0  0  0  0  0
  184.6260  178.2790  138.6070 C   0  0  0  0  0  0  0  0  0  0  0  0
  183.9730  177.2060  137.9120 N   0  0  0  0  0  2  0  0  0  0  0  0
  185.7480  178.6700  138.1920 O   0  0  0  0  0  0  0  0  0  0  0  0
  182.6530  175.5550  139.0800 C   0  0  0  0  0  2  0  0  0  0  0  0
  182.7210  176.5630  138.2140 C   0  0  0  0  0  0  0  0  0  0  0  0
  181.4940  177.0140  137.5190 C   0  0  0  0  0  0  0  0  0  0  0  0
  181.5590  177.7740  136.2350 C   0  0  0  0  0  1  0  0  0  0  0  0
  180.2970  176.7440  138.0250 C   0  0  0  0  0  2  0  0  0  0  0  0
  181.5370  179.3890  140.3340 C   0  0  0  0  0  1  0  0  0  0  0  0
  182.7170  179.7590  139.4500 C   0  0  0  0  0  2  0  0  0  0  0  0
  1 17  1  6  0  0  0
  1  3  1  0  0  0  0
  3  2  1  1  0  0  0
  3 14  1  0  0  0  0
  4 13  2  0  0  0  0
  5 11  1  0  0  0  0
  5 10  1  0  0  0  0
  6 14  2  0  0  0  0
  6  8  1  0  0  0  0
  7 12  1  0  0  0  0
  7 10  1  0  0  0  0
  8 13  1  0  0  0  0
  8  5  2  0  0  0  0
  9 11  2  0  0  0  0
 13  7  1  0  0  0  0
 14  9  1  0  0  0  0
 15  1  1  0  0  0  0
 16 15  1  0  0  0  0
 18 28  1  6  0  0  0
 18 17  1  0  0  0  0
 19 18  1  0  0  0  0
 20 23  1  0  0  0  0
 20 19  1  0  0  0  0
 21 19  2  0  0  0  0
 23 22  2  0  0  0  0
 24 26  2  0  0  0  0
 24 23  1  0  0  0  0
 25 24  1  0  0  0  0
 28 27  1  0  0  0  0
M  END
>  <MODEL>
7

>  <REMARK>
 VINA RESULT:      -7.0      2.785      8.187
  Name = 
  9 active torsions:
  status: ('A' for Active; 'I' for Inactive)
    1  A    between atoms: C_1  and  C_2
    2  A    between atoms: C_1  and  C_17
    3  A    between atoms: C_1  and  C_26
    4  A    between atoms: N_3  and  C_11
    5  A    between atoms: C_6  and  C_11
    6  A    between atoms: C_16  and  C_27
    7  A    between atoms: C_17  and  C_27
    8  A    between atoms: C_20  and  C_25
    9  A    between atoms: C_20  and  C_27
                            x       y       z     vdW  Elec       q    Type
                         _______ _______ _______ _____ _____    ______ ____

>  <TORSDO>
F 9

$$$$
=
 OpenBabel11052413313D

 28 29  0  0  1  0  0  0  0  0999 V2000
  184.7210  178.5730  142.5240 C   0  0  2  0  0  3  0  0  0  0  0  0
  182.9990  178.7460  144.3840 C   0  0  0  0  0  1  0  0  0  0  0  0
  184.4200  179.0690  143.9470 C   0  0  1  0  0  3  0  0  0  0  0  0
  189.4030  177.1540  144.1040 O   0  0  0  0  0  0  0  0  0  0  0  0
  187.3340  177.9140  146.8520 C   0  0  0  0  0  0  0  0  0  0  0  0
  186.6900  178.1970  144.5440 C   0  0  0  0  0  3  0  0  0  0  0  0
  189.6400  177.0310  146.3850 N   0  0  0  0  0  0  0  0  0  0  0  0
  187.6350  177.8170  145.4990 C   0  0  0  0  0  0  0  0  0  0  0  0
  185.1580  178.7640  146.3620 C   0  0  0  0  0  3  0  0  0  0  0  0
  188.6740  177.3850  147.6950 S   0  0  0  0  0  0  0  0  0  0  0  0
  186.1110  178.3800  147.3180 C   0  0  0  0  0  3  0  0  0  0  0  0
  190.9940  176.5110  146.4500 C   0  0  0  0  0  1  0  0  0  0  0  0
  188.9300  177.3190  145.2610 C   0  0  0  0  0  0  0  0  0  0  0  0
  185.4420  178.6770  144.9780 C   0  0  0  0  0  0  0  0  0  0  0  0
  185.8030  179.3780  141.8090 C   0  0  0  0  0  2  0  0  0  0  0  0
  186.9790  178.4910  141.4520 C   0  0  0  0  0  1  0  0  0  0  0  0
  183.4450  178.5620  141.6890 C   0  0  0  0  0  2  0  0  0  0  0  0
  183.6250  177.9140  140.3120 C   0  0  1  0  0  3  0  0  0  0  0  0
  182.5070  176.9950  139.9000 C   0  0  0  0  0  0  0  0  0  0  0  0
  181.1660  177.4680  139.7030 N   0  0  0  0  0  2  0  0  0  0  0  0
  182.7550  175.7800  139.6800 O   0  0  0  0  0  0  0  0  0  0  0  0
  180.6570  179.7110  138.9670 C   0  0  0  0  0  2  0  0  0  0  0  0
  180.6300  178.7850  139.9230 C   0  0  0  0  0  0  0  0  0  0  0  0
  180.0700  179.1220  141.2510 C   0  0  0  0  0  0  0  0  0  0  0  0
  179.8270  178.0720  142.2850 C   0  0  0  0  0  1  0  0  0  0  0  0
  179.7750  180.3800  141.5570 C   0  0  0  0  0  2  0  0  0  0  0  0
  185.0780  178.2150  138.2410 C   0  0  0  0  0  1  0  0  0  0  0  0
  184.1110  178.8660  139.2150 C   0  0  0  0  0  2  0  0  0  0  0  0
  1 17  1  6  0  0  0
  1  3  1  0  0  0  0
  3  2  1  1  0  0  0
  3 14  1  0  0  0  0
  4 13  2  0  0  0  0
  5 11  1  0  0  0  0
  5 10  1  0  0  0  0
  6 14  2  0  0  0  0
  6  8  1  0  0  0  0
  7 12  1  0  0  0  0
  7 10  1  0  0  0  0
  8  5  2  0  0  0  0
  9 11  2  0  0  0  0
 13  8  1  0  0  0  0
 13  7  1  0  0  0  0
 14  9  1  0  0  0  0
 15  1  1  0  0  0  0
 16 15  1  0  0  0  0
 18 28  1  6  0  0  0
 18 17  1  0  0  0  0
 19 18  1  0  0  0  0
 20 19  1  0  0  0  0
 20 23  1  0  0  0  0
 21 19  2  0  0  0  0
 22 23  2  0  0  0  0
 23 24  1  0  0  0  0
 24 26  2  0  0  0  0
 24 25  1  0  0  0  0
 27 28  1  0  0  0  0
M  END
>  <MODEL>
8

>  <REMARK>
 VINA RESULT:      -6.9      2.841      8.420
  Name = 
  9 active torsions:
  status: ('A' for Active; 'I' for Inactive)
    1  A    between atoms: C_1  and  C_2
    2  A    between atoms: C_1  and  C_17
    3  A    between atoms: C_1  and  C_26
    4  A    between atoms: N_3  and  C_11
    5  A    between atoms: C_6  and  C_11
    6  A    between atoms: C_16  and  C_27
    7  A    between atoms: C_17  and  C_27
    8  A    between atoms: C_20  and  C_25
    9  A    between atoms: C_20  and  C_27
                            x       y       z     vdW  Elec       q    Type
                         _______ _______ _______ _____ _____    ______ ____

>  <TORSDO>
F 9

$$$$
=
 OpenBabel11052413313D

 28 29  0  0  1  0  0  0  0  0999 V2000
  183.3250  179.0050  142.8370 C   0  0  2  0  0  3  0  0  0  0  0  0
  183.8400  179.0040  145.3240 C   0  0  0  0  0  1  0  0  0  0  0  0
  184.3910  179.2170  143.9220 C   0  0  1  0  0  3  0  0  0  0  0  0
  188.0380  178.6440  140.0630 O   0  0  0  0  0  0  0  0  0  0  0  0
  188.0320  177.0900  143.2240 C   0  0  0  0  0  0  0  0  0  0  0  0
  186.3360  178.6260  142.4590 C   0  0  0  0  0  3  0  0  0  0  0  0
  189.4290  177.1670  141.1380 N   0  0  0  0  0  0  0  0  0  0  0  0
  187.5220  177.9250  142.2370 C   0  0  0  0  0  0  0  0  0  0  0  0
  186.2150  177.6150  144.6810 C   0  0  0  0  0  3  0  0  0  0  0  0
  189.4410  176.4230  142.6270 S   0  0  0  0  0  0  0  0  0  0  0  0
  187.4080  176.9110  144.4530 C   0  0  0  0  0  3  0  0  0  0  0  0
  190.4330  176.9980  140.1010 C   0  0  0  0  0  1  0  0  0  0  0  0
  188.3200  177.9510  141.0770 C   0  0  0  0  0  0  0  0  0  0  0  0
  185.6770  178.4730  143.6920 C   0  0  0  0  0  0  0  0  0  0  0  0
  181.9690  178.5670  143.3850 C   0  0  0  0  0  2  0  0  0  0  0  0
  180.9010  179.5880  143.0460 C   0  0  0  0  0  1  0  0  0  0  0  0
  183.8170  177.9960  141.8040 C   0  0  0  0  0  2  0  0  0  0  0  0
  183.1070  178.1150  140.4520 C   0  0  1  0  0  3  0  0  0  0  0  0
  183.5220  179.3050  139.6280 C   0  0  0  0  0  0  0  0  0  0  0  0
  182.6080  179.9770  138.7480 N   0  0  0  0  0  2  0  0  0  0  0  0
  184.6930  179.7530  139.7360 O   0  0  0  0  0  0  0  0  0  0  0  0
  180.9360  179.0350  137.2820 C   0  0  0  0  0  2  0  0  0  0  0  0
  181.2460  179.6380  138.4280 C   0  0  0  0  0  0  0  0  0  0  0  0
  180.1710  179.9990  139.3790 C   0  0  0  0  0  0  0  0  0  0  0  0
  179.1840  178.9870  139.8600 C   0  0  0  0  0  1  0  0  0  0  0  0
  180.0650  181.2410  139.8340 C   0  0  0  0  0  2  0  0  0  0  0  0
  181.6090  176.1760  139.7520 C   0  0  0  0  0  1  0  0  0  0  0  0
  182.9920  176.8020  139.6710 C   0  0  0  0  0  2  0  0  0  0  0  0
  1 17  1  6  0  0  0
  1 15  1  0  0  0  0
  1  3  1  0  0  0  0
  3  2  1  1  0  0  0
  4 13  2  0  0  0  0
  5 11  1  0  0  0  0
  6 14  2  0  0  0  0
  7 10  1  0  0  0  0
  8  6  1  0  0  0  0
  8  5  2  0  0  0  0
 10  5  1  0  0  0  0
 11  9  2  0  0  0  0
 12  7  1  0  0  0  0
 13  7  1  0  0  0  0
 13  8  1  0  0  0  0
 14  3  1  0  0  0  0
 14  9  1  0  0  0  0
 16 15  1  0  0  0  0
 18 28  1  6  0  0  0
 18 17  1  0  0  0  0
 19 21  2  0  0  0  0
 19 18  1  0  0  0  0
 20 19  1  0  0  0  0
 22 23  2  0  0  0  0
 23 20  1  0  0  0  0
 23 24  1  0  0  0  0
 24 26  2  0  0  0  0
 24 25  1  0  0  0  0
 28 27  1  0  0  0  0
M  END
>  <MODEL>
9

>  <REMARK>
 VINA RESULT:      -6.9      3.340      8.185
  Name = 
  9 active torsions:
  status: ('A' for Active; 'I' for Inactive)
    1  A    between atoms: C_1  and  C_2
    2  A    between atoms: C_1  and  C_17
    3  A    between atoms: C_1  and  C_26
    4  A    between atoms: N_3  and  C_11
    5  A    between atoms: C_6  and  C_11
    6  A    between atoms: C_16  and  C_27
    7  A    between atoms: C_17  and  C_27
    8  A    between atoms: C_20  and  C_25
    9  A    between atoms: C_20  and  C_27
                            x       y       z     vdW  Elec       q    Type
                         _______ _______ _______ _____ _____    ______ ____

>  <TORSDO>
F 9

$$$$
