=
 OpenBabel11052412413D

 25 27  0  0  1  0  0  0  0  0999 V2000
  188.9400  177.5540  145.2410 C   0  0  0  0  0  0  0  0  0  0  0  0
  187.5590  177.8620  145.1710 C   0  0  0  0  0  0  0  0  0  0  0  0
  188.8250  177.6590  147.6700 C   0  0  0  0  0  3  0  0  0  0  0  0
  187.4660  177.9620  147.6060 C   0  0  0  0  0  3  0  0  0  0  0  0
  185.4490  178.3590  146.3060 C   0  0  0  0  0  0  0  0  0  0  0  0
  184.7110  178.5640  147.4660 O   0  0  0  0  0  1  0  0  0  0  0  0
  186.8900  177.9450  143.9400 C   0  0  0  0  0  3  0  0  0  0  0  0
  189.5540  177.4580  146.4990 C   0  0  0  0  0  3  0  0  0  0  0  0
  184.8100  178.4450  145.0670 C   0  0  0  0  0  3  0  0  0  0  0  0
  185.5270  178.2420  143.8860 C   0  0  0  0  0  0  0  0  0  0  0  0
  186.8220  178.0650  146.3680 C   0  0  0  0  0  0  0  0  0  0  0  0
  189.7740  177.3570  144.0290 C   0  0  0  0  0  0  0  0  0  0  0  0
  191.2870  176.9790  141.7210 C   0  0  0  0  0  3  0  0  0  0  0  0
  190.6640  178.3470  143.5640 C   0  0  0  0  0  0  0  0  0  0  0  0
  191.3920  178.1310  142.4350 N   0  0  0  0  0  0  0  0  0  0  0  0
  190.4170  175.9730  142.1410 C   0  0  0  0  0  3  0  0  0  0  0  0
  190.8420  179.5670  144.2790 N   0  0  0  0  0  1  0  0  0  0  0  0
  189.6600  176.1680  143.2960 C   0  0  0  0  0  3  0  0  0  0  0  0
  184.8320  178.3110  142.5710 C   0  0  0  0  0  2  0  0  0  0  0  0
  185.5790  179.2450  141.6350 C   0  0  0  0  0  2  0  0  0  0  0  0
  185.4100  178.7930  140.1940 C   0  0  1  0  0  3  0  0  0  0  0  0
  184.7450  179.7810  139.4630 O   0  0  0  0  0  1  0  0  0  0  0  0
  186.7510  178.4860  139.5910 C   0  0  0  0  0  0  0  0  0  0  0  0
  187.9650  178.3030  140.4420 C   0  0  0  0  0  1  0  0  0  0  0  0
  186.8580  178.3980  138.3800 O   0  0  0  0  0  0  0  0  0  0  0  0
  1  8  1  0  0  0  0
  2  1  2  0  0  0  0
  2 11  1  0  0  0  0
  4  3  1  0  0  0  0
  5 11  1  0  0  0  0
  5  6  1  0  0  0  0
  7  2  1  0  0  0  0
  8  3  2  0  0  0  0
  9  5  2  0  0  0  0
 10  7  2  0  0  0  0
 10  9  1  0  0  0  0
 11  4  2  0  0  0  0
 12  1  1  0  0  0  0
 13 16  2  0  0  0  0
 13 15  1  0  0  0  0
 14 12  1  0  0  0  0
 14 17  1  0  0  0  0
 15 14  2  0  0  0  0
 16 18  1  0  0  0  0
 18 12  2  0  0  0  0
 19 10  1  0  0  0  0
 20 19  1  0  0  0  0
 21 22  1  6  0  0  0
 21 20  1  0  0  0  0
 23 21  1  0  0  0  0
 23 24  1  0  0  0  0
 25 23  2  0  0  0  0
M  END
>  <MODEL>
1

>  <REMARK>
 VINA RESULT:      -9.4      0.000      0.000
  Name = 
  5 active torsions:
  status: ('A' for Active; 'I' for Inactive)
    1  A    between atoms: C_1  and  C_5
    2  A    between atoms: C_2  and  C_21
    3  A    between atoms: C_6  and  C_15
    4  A    between atoms: C_6  and  C_23
    5  A    between atoms: C_15  and  C_21
                            x       y       z     vdW  Elec       q    Type
                         _______ _______ _______ _____ _____    ______ ____

>  <TORSDO>
F 5

$$$$
=
 OpenBabel11052412413D

 25 27  0  0  1  0  0  0  0  0999 V2000
  190.4180  177.0530  145.2390 C   0  0  0  0  0  0  0  0  0  0  0  0
  189.2220  177.4270  145.9000 C   0  0  0  0  0  0  0  0  0  0  0  0
  191.4640  176.6410  147.3980 C   0  0  0  0  0  3  0  0  0  0  0  0
  190.2900  177.0080  148.0520 C   0  0  0  0  0  3  0  0  0  0  0  0
  187.9770  177.7580  147.9800 C   0  0  0  0  0  0  0  0  0  0  0  0
  187.9020  177.7410  149.3680 O   0  0  0  0  0  1  0  0  0  0  0  0
  188.0760  177.7980  145.1810 C   0  0  0  0  0  3  0  0  0  0  0  0
  191.5270  176.6640  146.0050 C   0  0  0  0  0  3  0  0  0  0  0  0
  186.8530  178.1330  147.2400 C   0  0  0  0  0  3  0  0  0  0  0  0
  186.9010  178.1570  145.8450 C   0  0  0  0  0  0  0  0  0  0  0  0
  189.1640  177.3990  147.3190 C   0  0  0  0  0  0  0  0  0  0  0  0
  190.5540  177.0850  143.7610 C   0  0  0  0  0  0  0  0  0  0  0  0
  190.7480  177.1420  140.9840 C   0  0  0  0  0  3  0  0  0  0  0  0
  191.2070  178.1420  143.0920 C   0  0  0  0  0  0  0  0  0  0  0  0
  191.2880  178.1390  141.7340 N   0  0  0  0  0  0  0  0  0  0  0  0
  190.0920  176.0790  141.6010 C   0  0  0  0  0  3  0  0  0  0  0  0
  191.8170  179.2040  143.8200 N   0  0  0  0  0  1  0  0  0  0  0  0
  189.9950  176.0560  142.9920 C   0  0  0  0  0  3  0  0  0  0  0  0
  185.6910  178.5350  145.0640 C   0  0  0  0  0  2  0  0  0  0  0  0
  185.7000  177.8350  143.7160 C   0  0  0  0  0  2  0  0  0  0  0  0
  184.9400  178.6590  142.6900 C   0  0  1  0  0  3  0  0  0  0  0  0
  184.4710  179.8360  143.2810 O   0  0  0  0  0  1  0  0  0  0  0  0
  185.8260  178.9600  141.5150 C   0  0  0  0  0  0  0  0  0  0  0  0
  187.2750  178.5930  141.5160 C   0  0  0  0  0  1  0  0  0  0  0  0
  185.3610  179.5310  140.5430 O   0  0  0  0  0  0  0  0  0  0  0  0
  1  2  2  0  0  0  0
  1  8  1  0  0  0  0
  2 11  1  0  0  0  0
  3  4  1  0  0  0  0
  5  6  1  0  0  0  0
  7 10  2  0  0  0  0
  7  2  1  0  0  0  0
  8  3  2  0  0  0  0
  9  5  2  0  0  0  0
 10  9  1  0  0  0  0
 11  5  1  0  0  0  0
 11  4  2  0  0  0  0
 12  1  1  0  0  0  0
 13 16  2  0  0  0  0
 13 15  1  0  0  0  0
 14 12  1  0  0  0  0
 14 17  1  0  0  0  0
 15 14  2  0  0  0  0
 16 18  1  0  0  0  0
 18 12  2  0  0  0  0
 19 10  1  0  0  0  0
 20 19  1  0  0  0  0
 21 22  1  1  0  0  0
 21 20  1  0  0  0  0
 23 24  1  0  0  0  0
 23 21  1  0  0  0  0
 25 23  2  0  0  0  0
M  END
>  <MODEL>
2

>  <REMARK>
 VINA RESULT:      -8.8      1.487      2.282
  Name = 
  5 active torsions:
  status: ('A' for Active; 'I' for Inactive)
    1  A    between atoms: C_1  and  C_5
    2  A    between atoms: C_2  and  C_21
    3  A    between atoms: C_6  and  C_15
    4  A    between atoms: C_6  and  C_23
    5  A    between atoms: C_15  and  C_21
                            x       y       z     vdW  Elec       q    Type
                         _______ _______ _______ _____ _____    ______ ____

>  <TORSDO>
F 5

$$$$
=
 OpenBabel11052412413D

 25 27  0  0  1  0  0  0  0  0999 V2000
  186.9490  177.7430  143.2020 C   0  0  0  0  0  0  0  0  0  0  0  0
  186.8860  177.8880  144.6100 C   0  0  0  0  0  0  0  0  0  0  0  0
  184.5720  178.2530  143.0620 C   0  0  0  0  0  3  0  0  0  0  0  0
  184.5070  178.3960  144.4460 C   0  0  0  0  0  3  0  0  0  0  0  0
  185.5870  178.3740  146.6260 C   0  0  0  0  0  0  0  0  0  0  0  0
  184.3870  178.6950  147.2510 O   0  0  0  0  0  1  0  0  0  0  0  0
  188.0290  177.7380  145.4110 C   0  0  0  0  0  3  0  0  0  0  0  0
  185.7810  177.9300  142.4460 C   0  0  0  0  0  3  0  0  0  0  0  0
  186.7380  178.2110  147.4000 C   0  0  0  0  0  3  0  0  0  0  0  0
  187.9560  177.8900  146.7970 C   0  0  0  0  0  0  0  0  0  0  0  0
  185.6520  178.2190  145.2300 C   0  0  0  0  0  0  0  0  0  0  0  0
  188.1990  177.3730  142.4940 C   0  0  0  0  0  0  0  0  0  0  0  0
  190.5240  176.6220  141.1570 C   0  0  0  0  0  3  0  0  0  0  0  0
  188.6450  178.0670  141.3500 C   0  0  0  0  0  0  0  0  0  0  0  0
  189.7870  177.6780  140.7210 N   0  0  0  0  0  0  0  0  0  0  0  0
  190.1200  175.9040  142.2820 C   0  0  0  0  0  3  0  0  0  0  0  0
  187.9340  179.1990  140.8570 N   0  0  0  0  0  1  0  0  0  0  0  0
  188.9540  176.2830  142.9470 C   0  0  0  0  0  3  0  0  0  0  0  0
  189.1830  177.7410  147.6280 C   0  0  0  0  0  2  0  0  0  0  0  0
  189.9060  176.4560  147.2640 C   0  0  0  0  0  2  0  0  0  0  0  0
  191.3840  176.7310  147.0380 C   0  0  1  0  0  3  0  0  0  0  0  0
  192.1510  175.7590  147.6870 O   0  0  0  0  0  1  0  0  0  0  0  0
  191.6810  176.7580  145.5650 C   0  0  0  0  0  0  0  0  0  0  0  0
  191.6070  178.0260  144.7780 C   0  0  0  0  0  1  0  0  0  0  0  0
  191.9750  175.7220  144.9940 O   0  0  0  0  0  0  0  0  0  0  0  0
  1  2  1  0  0  0  0
  2 11  2  0  0  0  0
  2  7  1  0  0  0  0
  3  4  2  0  0  0  0
  4 11  1  0  0  0  0
  5  6  1  0  0  0  0
  5  9  2  0  0  0  0
  7 10  2  0  0  0  0
  8  3  1  0  0  0  0
  8  1  2  0  0  0  0
 10  9  1  0  0  0  0
 10 19  1  0  0  0  0
 11  5  1  0  0  0  0
 12 18  1  0  0  0  0
 12  1  1  0  0  0  0
 13 16  1  0  0  0  0
 14 12  2  0  0  0  0
 15 13  2  0  0  0  0
 15 14  1  0  0  0  0
 16 18  2  0  0  0  0
 17 14  1  0  0  0  0
 20 19  1  0  0  0  0
 21 20  1  0  0  0  0
 21 22  1  1  0  0  0
 23 21  1  0  0  0  0
 24 23  1  0  0  0  0
 25 23  2  0  0  0  0
M  END
>  <MODEL>
3

>  <REMARK>
 VINA RESULT:      -8.8      2.781      5.180
  Name = 
  5 active torsions:
  status: ('A' for Active; 'I' for Inactive)
    1  A    between atoms: C_1  and  C_5
    2  A    between atoms: C_2  and  C_21
    3  A    between atoms: C_6  and  C_15
    4  A    between atoms: C_6  and  C_23
    5  A    between atoms: C_15  and  C_21
                            x       y       z     vdW  Elec       q    Type
                         _______ _______ _______ _____ _____    ______ ____

>  <TORSDO>
F 5

$$$$
=
 OpenBabel11052412413D

 25 27  0  0  1  0  0  0  0  0999 V2000
  187.4450  177.8260  145.8170 C   0  0  0  0  0  0  0  0  0  0  0  0
  188.7800  177.5600  145.4220 C   0  0  0  0  0  0  0  0  0  0  0  0
  188.0880  177.5070  148.1430 C   0  0  0  0  0  3  0  0  0  0  0  0
  189.4010  177.2450  147.7580 C   0  0  0  0  0  3  0  0  0  0  0  0
  191.0890  177.0160  146.0210 C   0  0  0  0  0  0  0  0  0  0  0  0
  192.0630  176.7270  146.9710 O   0  0  0  0  0  1  0  0  0  0  0  0
  189.1650  177.6050  144.0730 C   0  0  0  0  0  3  0  0  0  0  0  0
  187.1200  177.7950  147.1810 C   0  0  0  0  0  3  0  0  0  0  0  0
  191.4440  177.0580  144.6710 C   0  0  0  0  0  3  0  0  0  0  0  0
  190.4850  177.3480  143.6980 C   0  0  0  0  0  0  0  0  0  0  0  0
  189.7610  177.2700  146.4060 C   0  0  0  0  0  0  0  0  0  0  0  0
  186.3670  178.1110  144.8370 C   0  0  0  0  0  0  0  0  0  0  0  0
  184.3430  178.5850  142.9840 C   0  0  0  0  0  3  0  0  0  0  0  0
  185.1290  178.6620  145.2270 C   0  0  0  0  0  0  0  0  0  0  0  0
  184.1610  178.8850  144.2980 N   0  0  0  0  0  0  0  0  0  0  0  0
  185.5490  178.0350  142.5530 C   0  0  0  0  0  3  0  0  0  0  0  0
  184.8830  179.0250  146.5830 N   0  0  0  0  0  1  0  0  0  0  0  0
  186.5590  177.7980  143.4850 C   0  0  0  0  0  3  0  0  0  0  0  0
  190.8770  177.4140  142.2630 C   0  0  0  0  0  2  0  0  0  0  0  0
  189.6400  177.3730  141.3820 C   0  0  0  0  0  2  0  0  0  0  0  0
  190.0320  177.4960  139.9180 C   0  0  1  0  0  3  0  0  0  0  0  0
  190.2370  176.2250  139.3750 O   0  0  0  0  0  1  0  0  0  0  0  0
  188.9690  178.2420  139.1640 C   0  0  0  0  0  0  0  0  0  0  0  0
  189.1190  178.5570  137.7110 C   0  0  0  0  0  1  0  0  0  0  0  0
  187.9650  178.6120  139.7500 O   0  0  0  0  0  0  0  0  0  0  0  0
  1  8  1  0  0  0  0
  2  1  2  0  0  0  0
  2 11  1  0  0  0  0
  4  3  1  0  0  0  0
  5 11  1  0  0  0  0
  5  6  1  0  0  0  0
  7  2  1  0  0  0  0
  8  3  2  0  0  0  0
  9  5  2  0  0  0  0
 10  7  2  0  0  0  0
 10  9  1  0  0  0  0
 11  4  2  0  0  0  0
 12 14  1  0  0  0  0
 12  1  1  0  0  0  0
 13 15  1  0  0  0  0
 14 17  1  0  0  0  0
 15 14  2  0  0  0  0
 16 13  2  0  0  0  0
 16 18  1  0  0  0  0
 18 12  2  0  0  0  0
 19 10  1  0  0  0  0
 20 19  1  0  0  0  0
 21 22  1  6  0  0  0
 21 20  1  0  0  0  0
 23 25  2  0  0  0  0
 23 21  1  0  0  0  0
 24 23  1  0  0  0  0
M  END
>  <MODEL>
4

>  <REMARK>
 VINA RESULT:      -8.6      2.821      4.777
  Name = 
  5 active torsions:
  status: ('A' for Active; 'I' for Inactive)
    1  A    between atoms: C_1  and  C_5
    2  A    between atoms: C_2  and  C_21
    3  A    between atoms: C_6  and  C_15
    4  A    between atoms: C_6  and  C_23
    5  A    between atoms: C_15  and  C_21
                            x       y       z     vdW  Elec       q    Type
                         _______ _______ _______ _____ _____    ______ ____

>  <TORSDO>
F 5

$$$$
=
 OpenBabel11052412413D

 25 27  0  0  1  0  0  0  0  0999 V2000
  188.1260  177.7880  145.1440 C   0  0  0  0  0  0  0  0  0  0  0  0
  186.8700  178.1840  144.6190 C   0  0  0  0  0  0  0  0  0  0  0  0
  187.1840  177.8350  147.3880 C   0  0  0  0  0  3  0  0  0  0  0  0
  185.9480  178.2250  146.8760 C   0  0  0  0  0  3  0  0  0  0  0  0
  184.5260  178.7830  144.9830 C   0  0  0  0  0  0  0  0  0  0  0  0
  183.4440  179.0030  145.8290 O   0  0  0  0  0  1  0  0  0  0  0  0
  186.6720  178.3410  143.2390 C   0  0  0  0  0  3  0  0  0  0  0  0
  188.2620  177.6190  146.5300 C   0  0  0  0  0  3  0  0  0  0  0  0
  184.3580  178.9410  143.6060 C   0  0  0  0  0  3  0  0  0  0  0  0
  185.4280  178.7250  142.7350 C   0  0  0  0  0  0  0  0  0  0  0  0
  185.7770  178.4010  145.4990 C   0  0  0  0  0  0  0  0  0  0  0  0
  189.3150  177.5710  144.2830 C   0  0  0  0  0  0  0  0  0  0  0  0
  191.5820  177.1590  142.7180 C   0  0  0  0  0  3  0  0  0  0  0  0
  189.3980  176.4890  143.3810 C   0  0  0  0  0  0  0  0  0  0  0  0
  190.5180  176.3170  142.6280 N   0  0  0  0  0  0  0  0  0  0  0  0
  191.5450  178.2400  143.5980 C   0  0  0  0  0  3  0  0  0  0  0  0
  188.3090  175.5850  143.2190 N   0  0  0  0  0  1  0  0  0  0  0  0
  190.4090  178.4400  144.3810 C   0  0  0  0  0  3  0  0  0  0  0  0
  185.2340  178.8720  141.2650 C   0  0  0  0  0  2  0  0  0  0  0  0
  183.7770  178.6430  140.9060 C   0  0  0  0  0  2  0  0  0  0  0  0
  183.5380  178.9680  139.4410 C   0  0  1  0  0  3  0  0  0  0  0  0
  184.2370  180.1280  139.0930 O   0  0  0  0  0  1  0  0  0  0  0  0
  183.9570  177.8080  138.5830 C   0  0  0  0  0  0  0  0  0  0  0  0
  185.1680  177.8800  137.7100 C   0  0  0  0  0  1  0  0  0  0  0  0
  183.2880  176.7880  138.5850 O   0  0  0  0  0  0  0  0  0  0  0  0
  1  8  1  0  0  0  0
  2  1  2  0  0  0  0
  2 11  1  0  0  0  0
  4  3  1  0  0  0  0
  5 11  1  0  0  0  0
  5  6  1  0  0  0  0
  7  2  1  0  0  0  0
  8  3  2  0  0  0  0
  9  5  2  0  0  0  0
 10  7  2  0  0  0  0
 10  9  1  0  0  0  0
 11  4  2  0  0  0  0
 12 18  1  0  0  0  0
 12  1  1  0  0  0  0
 13 16  1  0  0  0  0
 14 12  2  0  0  0  0
 15 13  2  0  0  0  0
 15 14  1  0  0  0  0
 16 18  2  0  0  0  0
 17 14  1  0  0  0  0
 19 10  1  0  0  0  0
 20 19  1  0  0  0  0
 21 22  1  6  0  0  0
 21 20  1  0  0  0  0
 23 25  2  0  0  0  0
 23 21  1  0  0  0  0
 24 23  1  0  0  0  0
M  END
>  <MODEL>
5

>  <REMARK>
 VINA RESULT:      -8.5      1.644      2.223
  Name = 
  5 active torsions:
  status: ('A' for Active; 'I' for Inactive)
    1  A    between atoms: C_1  and  C_5
    2  A    between atoms: C_2  and  C_21
    3  A    between atoms: C_6  and  C_15
    4  A    between atoms: C_6  and  C_23
    5  A    between atoms: C_15  and  C_21
                            x       y       z     vdW  Elec       q    Type
                         _______ _______ _______ _____ _____    ______ ____

>  <TORSDO>
F 5

$$$$
=
 OpenBabel11052412413D

 25 27  0  0  1  0  0  0  0  0999 V2000
  188.3670  177.5870  143.8990 C   0  0  0  0  0  0  0  0  0  0  0  0
  187.0450  177.9410  144.2630 C   0  0  0  0  0  0  0  0  0  0  0  0
  188.9820  177.5300  146.2540 C   0  0  0  0  0  3  0  0  0  0  0  0
  187.6830  177.8790  146.6160 C   0  0  0  0  0  3  0  0  0  0  0  0
  185.3930  178.4260  146.0020 C   0  0  0  0  0  0  0  0  0  0  0  0
  185.0440  178.5740  147.3400 O   0  0  0  0  0  1  0  0  0  0  0  0
  186.0460  178.1280  143.2950 C   0  0  0  0  0  3  0  0  0  0  0  0
  189.3200  177.3860  144.9090 C   0  0  0  0  0  3  0  0  0  0  0  0
  184.4210  178.6150  145.0180 C   0  0  0  0  0  3  0  0  0  0  0  0
  184.7450  178.4710  143.6680 C   0  0  0  0  0  0  0  0  0  0  0  0
  186.7070  178.0850  145.6350 C   0  0  0  0  0  0  0  0  0  0  0  0
  188.7930  177.4460  142.4840 C   0  0  0  0  0  0  0  0  0  0  0  0
  189.6130  177.2400  139.8310 C   0  0  0  0  0  3  0  0  0  0  0  0
  189.7090  176.4550  142.0740 C   0  0  0  0  0  0  0  0  0  0  0  0
  190.0880  176.3780  140.7690 N   0  0  0  0  0  0  0  0  0  0  0  0
  188.7090  178.2370  140.1920 C   0  0  0  0  0  3  0  0  0  0  0  0
  190.2230  175.5030  143.0010 N   0  0  0  0  0  1  0  0  0  0  0  0
  188.3030  178.3380  141.5220 C   0  0  0  0  0  3  0  0  0  0  0  0
  183.6960  178.6510  142.6260 C   0  0  0  0  0  2  0  0  0  0  0  0
  184.2940  178.4550  141.2440 C   0  0  0  0  0  2  0  0  0  0  0  0
  183.2070  178.5300  140.1840 C   0  0  1  0  0  3  0  0  0  0  0  0
  181.9510  178.5660  140.7970 O   0  0  0  0  0  1  0  0  0  0  0  0
  183.4190  179.7370  139.3160 C   0  0  0  0  0  0  0  0  0  0  0  0
  182.2700  180.4620  138.6940 C   0  0  0  0  0  1  0  0  0  0  0  0
  184.5540  180.1280  139.0990 O   0  0  0  0  0  0  0  0  0  0  0  0
  1  2  2  0  0  0  0
  1  8  1  0  0  0  0
  2 11  1  0  0  0  0
  3  4  1  0  0  0  0
  5  6  1  0  0  0  0
  7 10  2  0  0  0  0
  7  2  1  0  0  0  0
  8  3  2  0  0  0  0
  9  5  2  0  0  0  0
 10  9  1  0  0  0  0
 11  5  1  0  0  0  0
 11  4  2  0  0  0  0
 12  1  1  0  0  0  0
 13 16  2  0  0  0  0
 13 15  1  0  0  0  0
 14 12  1  0  0  0  0
 14 17  1  0  0  0  0
 15 14  2  0  0  0  0
 16 18  1  0  0  0  0
 18 12  2  0  0  0  0
 19 10  1  0  0  0  0
 20 19  1  0  0  0  0
 21 22  1  1  0  0  0
 21 20  1  0  0  0  0
 23 21  1  0  0  0  0
 24 23  1  0  0  0  0
 25 23  2  0  0  0  0
M  END
>  <MODEL>
6

>  <REMARK>
 VINA RESULT:      -8.4      1.701      2.509
  Name = 
  5 active torsions:
  status: ('A' for Active; 'I' for Inactive)
    1  A    between atoms: C_1  and  C_5
    2  A    between atoms: C_2  and  C_21
    3  A    between atoms: C_6  and  C_15
    4  A    between atoms: C_6  and  C_23
    5  A    between atoms: C_15  and  C_21
                            x       y       z     vdW  Elec       q    Type
                         _______ _______ _______ _____ _____    ______ ____

>  <TORSDO>
F 5

$$$$
=
 OpenBabel11052412413D

 25 27  0  0  1  0  0  0  0  0999 V2000
  187.3970  177.8320  145.8720 C   0  0  0  0  0  0  0  0  0  0  0  0
  188.6390  177.4490  145.3070 C   0  0  0  0  0  0  0  0  0  0  0  0
  188.3510  177.5820  148.0980 C   0  0  0  0  0  3  0  0  0  0  0  0
  189.5740  177.2050  147.5460 C   0  0  0  0  0  3  0  0  0  0  0  0
  190.9690  176.7660  145.6030 C   0  0  0  0  0  0  0  0  0  0  0  0
  192.0510  176.4530  146.4190 O   0  0  0  0  0  1  0  0  0  0  0  0
  188.8240  177.3980  143.9170 C   0  0  0  0  0  3  0  0  0  0  0  0
  187.2740  177.8920  147.2680 C   0  0  0  0  0  3  0  0  0  0  0  0
  191.1240  176.7150  144.2160 C   0  0  0  0  0  3  0  0  0  0  0  0
  190.0550  177.0260  143.3730 C   0  0  0  0  0  0  0  0  0  0  0  0
  189.7320  177.1360  146.1570 C   0  0  0  0  0  0  0  0  0  0  0  0
  186.2080  178.1460  145.0410 C   0  0  0  0  0  0  0  0  0  0  0  0
  183.9740  178.6770  143.4650 C   0  0  0  0  0  3  0  0  0  0  0  0
  185.0200  178.6620  145.6000 C   0  0  0  0  0  0  0  0  0  0  0  0
  183.9470  178.9150  144.8030 N   0  0  0  0  0  0  0  0  0  0  0  0
  185.1250  178.1640  142.8690 C   0  0  0  0  0  3  0  0  0  0  0  0
  184.9340  178.9590  146.9920 N   0  0  0  0  0  1  0  0  0  0  0  0
  186.2400  177.8980  143.6630 C   0  0  0  0  0  3  0  0  0  0  0  0
  190.2360  176.9910  141.8950 C   0  0  0  0  0  2  0  0  0  0  0  0
  189.6480  178.2440  141.2690 C   0  0  0  0  0  2  0  0  0  0  0  0
  188.6810  177.8730  140.1580 C   0  0  1  0  0  3  0  0  0  0  0  0
  187.5030  178.6140  140.2880 O   0  0  0  0  0  1  0  0  0  0  0  0
  189.3210  178.1080  138.8190 C   0  0  0  0  0  0  0  0  0  0  0  0
  190.3060  177.1420  138.2450 C   0  0  0  0  0  1  0  0  0  0  0  0
  189.0440  179.1160  138.1910 O   0  0  0  0  0  0  0  0  0  0  0  0
  1  8  1  0  0  0  0
  2  1  2  0  0  0  0
  2 11  1  0  0  0  0
  4  3  1  0  0  0  0
  5 11  1  0  0  0  0
  5  6  1  0  0  0  0
  7  2  1  0  0  0  0
  8  3  2  0  0  0  0
  9  5  2  0  0  0  0
 10  7  2  0  0  0  0
 10  9  1  0  0  0  0
 11  4  2  0  0  0  0
 12 14  1  0  0  0  0
 12  1  1  0  0  0  0
 13 15  1  0  0  0  0
 14 17  1  0  0  0  0
 15 14  2  0  0  0  0
 16 13  2  0  0  0  0
 16 18  1  0  0  0  0
 18 12  2  0  0  0  0
 19 10  1  0  0  0  0
 20 19  1  0  0  0  0
 21 22  1  6  0  0  0
 21 20  1  0  0  0  0
 23 21  1  0  0  0  0
 24 23  1  0  0  0  0
 25 23  2  0  0  0  0
M  END
>  <MODEL>
7

>  <REMARK>
 VINA RESULT:      -8.4      2.854      4.668
  Name = 
  5 active torsions:
  status: ('A' for Active; 'I' for Inactive)
    1  A    between atoms: C_1  and  C_5
    2  A    between atoms: C_2  and  C_21
    3  A    between atoms: C_6  and  C_15
    4  A    between atoms: C_6  and  C_23
    5  A    between atoms: C_15  and  C_21
                            x       y       z     vdW  Elec       q    Type
                         _______ _______ _______ _____ _____    ______ ____

>  <TORSDO>
F 5

$$$$
=
 OpenBabel11052412413D

 25 27  0  0  1  0  0  0  0  0999 V2000
  189.9490  177.1850  144.8120 C   0  0  0  0  0  0  0  0  0  0  0  0
  188.8700  177.5500  145.6550 C   0  0  0  0  0  0  0  0  0  0  0  0
  191.3450  176.8420  146.7770 C   0  0  0  0  0  3  0  0  0  0  0  0
  190.2860  177.2010  147.6090 C   0  0  0  0  0  3  0  0  0  0  0  0
  187.9770  177.9050  147.9040 C   0  0  0  0  0  0  0  0  0  0  0  0
  188.1310  177.9190  149.2860 O   0  0  0  0  0  1  0  0  0  0  0  0
  187.6130  177.8840  145.1280 C   0  0  0  0  0  3  0  0  0  0  0  0
  191.1770  176.8340  145.3930 C   0  0  0  0  0  3  0  0  0  0  0  0
  186.7380  178.2420  147.3540 C   0  0  0  0  0  3  0  0  0  0  0  0
  186.5560  178.2360  145.9690 C   0  0  0  0  0  0  0  0  0  0  0  0
  189.0470  177.5540  147.0640 C   0  0  0  0  0  0  0  0  0  0  0  0
  189.8400  177.1850  143.3320 C   0  0  0  0  0  0  0  0  0  0  0  0
  189.6700  177.2340  140.5530 C   0  0  0  0  0  3  0  0  0  0  0  0
  190.2350  176.0780  142.5530 C   0  0  0  0  0  0  0  0  0  0  0  0
  190.1370  176.1320  141.1970 N   0  0  0  0  0  0  0  0  0  0  0  0
  189.2710  178.3530  141.2820 C   0  0  0  0  0  3  0  0  0  0  0  0
  190.7070  174.8810  143.1660 N   0  0  0  0  0  1  0  0  0  0  0  0
  189.3600  178.3240  142.6740 C   0  0  0  0  0  3  0  0  0  0  0  0
  185.2260  178.5730  145.3910 C   0  0  0  0  0  2  0  0  0  0  0  0
  185.1960  178.2260  143.9130 C   0  0  0  0  0  2  0  0  0  0  0  0
  184.5150  179.3340  143.1260 C   0  0  1  0  0  3  0  0  0  0  0  0
  185.2400  179.6020  141.9620 O   0  0  0  0  0  1  0  0  0  0  0  0
  183.1020  178.9390  142.8030 C   0  0  0  0  0  0  0  0  0  0  0  0
  182.6970  178.5520  141.4180 C   0  0  0  0  0  1  0  0  0  0  0  0
  182.2600  178.9470  143.6860 O   0  0  0  0  0  0  0  0  0  0  0  0
  1  8  2  0  0  0  0
  1  2  1  0  0  0  0
  2 11  1  0  0  0  0
  3  4  2  0  0  0  0
  5  6  1  0  0  0  0
  7  2  2  0  0  0  0
  7 10  1  0  0  0  0
  8  3  1  0  0  0  0
  9  5  1  0  0  0  0
 10  9  2  0  0  0  0
 11  4  1  0  0  0  0
 11  5  2  0  0  0  0
 12  1  1  0  0  0  0
 13 15  2  0  0  0  0
 13 16  1  0  0  0  0
 14 17  1  0  0  0  0
 14 12  2  0  0  0  0
 15 14  1  0  0  0  0
 16 18  2  0  0  0  0
 18 12  1  0  0  0  0
 19 10  1  0  0  0  0
 20 19  1  0  0  0  0
 21 22  1  6  0  0  0
 21 20  1  0  0  0  0
 23 21  1  0  0  0  0
 23 25  2  0  0  0  0
 24 23  1  0  0  0  0
M  END
>  <MODEL>
8

>  <REMARK>
 VINA RESULT:      -8.4      2.045      3.210
  Name = 
  5 active torsions:
  status: ('A' for Active; 'I' for Inactive)
    1  A    between atoms: C_1  and  C_5
    2  A    between atoms: C_2  and  C_21
    3  A    between atoms: C_6  and  C_15
    4  A    between atoms: C_6  and  C_23
    5  A    between atoms: C_15  and  C_21
                            x       y       z     vdW  Elec       q    Type
                         _______ _______ _______ _____ _____    ______ ____

>  <TORSDO>
F 5

$$$$
=
 OpenBabel11052412413D

 25 27  0  0  1  0  0  0  0  0999 V2000
  188.8650  177.5240  145.1920 C   0  0  0  0  0  0  0  0  0  0  0  0
  187.4950  177.8720  145.0830 C   0  0  0  0  0  0  0  0  0  0  0  0
  188.6650  177.5630  147.6180 C   0  0  0  0  0  3  0  0  0  0  0  0
  187.3180  177.9060  147.5150 C   0  0  0  0  0  3  0  0  0  0  0  0
  185.3600  178.3950  146.1570 C   0  0  0  0  0  0  0  0  0  0  0  0
  184.5870  178.5880  147.2970 O   0  0  0  0  0  1  0  0  0  0  0  0
  186.8740  178.0070  143.8330 C   0  0  0  0  0  3  0  0  0  0  0  0
  189.4300  177.3750  146.4670 C   0  0  0  0  0  3  0  0  0  0  0  0
  184.7680  178.5330  144.9000 C   0  0  0  0  0  3  0  0  0  0  0  0
  185.5220  178.3440  143.7390 C   0  0  0  0  0  0  0  0  0  0  0  0
  186.7220  178.0610  146.2590 C   0  0  0  0  0  0  0  0  0  0  0  0
  189.7350  177.3380  144.0050 C   0  0  0  0  0  0  0  0  0  0  0  0
  191.3200  176.9830  141.7420 C   0  0  0  0  0  3  0  0  0  0  0  0
  190.6730  178.3120  143.6050 C   0  0  0  0  0  0  0  0  0  0  0  0
  191.4350  178.1080  142.4960 N   0  0  0  0  0  0  0  0  0  0  0  0
  190.4040  175.9940  142.0970 C   0  0  0  0  0  3  0  0  0  0  0  0
  190.8640  179.5020  144.3660 N   0  0  0  0  0  1  0  0  0  0  0  0
  189.6110  176.1770  143.2300 C   0  0  0  0  0  3  0  0  0  0  0  0
  184.8770  178.4690  142.4030 C   0  0  0  0  0  2  0  0  0  0  0  0
  183.3840  178.7010  142.5640 C   0  0  0  0  0  2  0  0  0  0  0  0
  182.6930  178.6400  141.2120 C   0  0  1  0  0  3  0  0  0  0  0  0
  182.9920  177.4280  140.5820 O   0  0  0  0  0  1  0  0  0  0  0  0
  181.2110  178.8070  141.3850 C   0  0  0  0  0  0  0  0  0  0  0  0
  180.2710  177.6570  141.2200 C   0  0  0  0  0  1  0  0  0  0  0  0
  180.7580  179.9080  141.6520 O   0  0  0  0  0  0  0  0  0  0  0  0
  1  8  1  0  0  0  0
  2  1  2  0  0  0  0
  2 11  1  0  0  0  0
  4  3  1  0  0  0  0
  5 11  1  0  0  0  0
  5  6  1  0  0  0  0
  7  2  1  0  0  0  0
  8  3  2  0  0  0  0
  9  5  2  0  0  0  0
 10  7  2  0  0  0  0
 10  9  1  0  0  0  0
 11  4  2  0  0  0  0
 12  1  1  0  0  0  0
 13 16  2  0  0  0  0
 13 15  1  0  0  0  0
 14 12  1  0  0  0  0
 14 17  1  0  0  0  0
 15 14  2  0  0  0  0
 16 18  1  0  0  0  0
 18 12  2  0  0  0  0
 19 20  1  0  0  0  0
 19 10  1  0  0  0  0
 21 22  1  1  0  0  0
 21 23  1  0  0  0  0
 21 20  1  0  0  0  0
 23 25  2  0  0  0  0
 24 23  1  0  0  0  0
M  END
>  <MODEL>
9

>  <REMARK>
 VINA RESULT:      -8.3      1.761      2.601
  Name = 
  5 active torsions:
  status: ('A' for Active; 'I' for Inactive)
    1  A    between atoms: C_1  and  C_5
    2  A    between atoms: C_2  and  C_21
    3  A    between atoms: C_6  and  C_15
    4  A    between atoms: C_6  and  C_23
    5  A    between atoms: C_15  and  C_21
                            x       y       z     vdW  Elec       q    Type
                         _______ _______ _______ _____ _____    ______ ____

>  <TORSDO>
F 5

$$$$
