=
 OpenBabel11052413153D

 31 37  0  0  1  0  0  0  0  0999 V2000
  183.9110  175.9680  136.1980 C   0  0  0  0  0  0  0  0  0  0  0  0
  183.3680  178.5390  138.7010 C   0  0  1  0  0  3  0  0  0  0  0  0
  183.9330  177.2670  138.2860 N   0  0  2  0  0  0  0  0  0  0  0  0
  182.9620  175.0960  136.7130 O   0  0  0  0  0  0  0  0  0  0  0  0
  182.3240  178.2260  139.6780 C   0  0  1  0  0  0  0  0  0  0  0  0
  184.6240  175.6350  135.2160 O   0  0  0  0  0  0  0  0  0  0  0  0
  183.7120  178.2380  141.5410 C   0  0  1  0  0  3  0  0  0  0  0  0
  182.1980  176.8250  139.8190 O   0  0  0  0  0  0  0  0  0  0  0  0
  183.6210  178.9240  140.1980 C   0  0  2  0  0  0  0  0  0  0  0  0
  184.0460  177.3210  136.8180 C   0  0  0  0  0  2  0  0  0  0  0  0
  183.0050  176.2490  138.8260 C   0  0  1  0  0  3  0  0  0  0  0  0
  182.1350  175.5470  137.7750 C   0  0  0  0  0  2  0  0  0  0  0  0
  184.6890  178.0650  140.5800 O   0  0  0  0  0  0  0  0  0  0  0  0
  179.7300  178.3320  139.8070 C   0  0  0  0  0  2  0  0  0  0  0  0
  181.0330  179.0330  139.4590 C   0  0  0  0  0  0  0  0  0  0  0  0
  180.2910  179.3880  140.7390 C   0  0  0  0  0  2  0  0  0  0  0  0
  180.7680  182.1850  136.5260 C   0  0  0  0  0  0  0  0  0  0  0  0
  181.2070  181.4390  138.7830 C   0  0  0  0  0  3  0  0  0  0  0  0
  180.3570  178.1830  136.4950 Cl  0  0  0  0  0  0  0  0  0  0  0  0
  180.6530  183.4770  135.3520 Cl  0  0  0  0  0  0  0  0  0  0  0  0
  181.1140  182.4700  137.8470 C   0  0  0  0  0  3  0  0  0  0  0  0
  180.6320  179.8230  137.0640 C   0  0  0  0  0  0  0  0  0  0  0  0
  180.9530  180.1100  138.4090 C   0  0  0  0  0  0  0  0  0  0  0  0
  180.5330  180.8640  136.1350 C   0  0  0  0  0  3  0  0  0  0  0  0
  184.2740  179.0590  142.6140 N   0  0  0  0  0  2  0  0  0  0  0  0
  184.8850  178.6560  143.8500 C   0  0  0  0  0  0  0  0  0  0  0  0
  184.9660  178.5650  146.2750 C   0  0  0  0  0  3  0  0  0  0  0  0
  184.3210  178.9530  145.0970 C   0  0  0  0  0  3  0  0  0  0  0  0
  186.1770  177.8720  146.2130 C   0  0  0  0  0  3  0  0  0  0  0  0
  186.7460  177.5720  144.9730 C   0  0  0  0  0  3  0  0  0  0  0  0
  186.1020  177.9660  143.7970 C   0  0  0  0  0  3  0  0  0  0  0  0
  1  4  1  0  0  0  0
  1 10  1  0  0  0  0
  2  5  1  0  0  0  0
  2  9  1  0  0  0  0
  3  2  1  0  0  0  0
  3 11  1  0  0  0  0
  4 12  1  0  0  0  0
  5  8  1  0  0  0  0
  5  9  1  0  0  0  0
  6  1  2  0  0  0  0
  7 25  1  0  0  0  0
  9 13  1  0  0  0  0
  9  7  1  0  0  0  0
 10  3  1  0  0  0  0
 11  8  1  0  0  0  0
 12 11  1  0  0  0  0
 13  7  1  0  0  0  0
 14 16  1  0  0  0  0
 15  5  1  0  0  0  0
 15 14  1  0  0  0  0
 15 16  1  0  0  0  0
 17 21  1  0  0  0  0
 19 22  1  0  0  0  0
 20 17  1  0  0  0  0
 21 18  2  0  0  0  0
 22 23  2  0  0  0  0
 23 18  1  0  0  0  0
 23 15  1  0  0  0  0
 24 17  2  0  0  0  0
 24 22  1  0  0  0  0
 25 26  1  0  0  0  0
 26 28  1  0  0  0  0
 28 27  2  0  0  0  0
 29 27  1  0  0  0  0
 30 29  2  0  0  0  0
 31 26  2  0  0  0  0
 31 30  1  0  0  0  0
M  END
>  <MODEL>
1

>  <REMARK>
 VINA RESULT:      -7.2      0.000      0.000
  Name = 
  4 active torsions:
  status: ('A' for Active; 'I' for Inactive)
    1  A    between atoms: C_5  and  N_30
    2  A    between atoms: C_9  and  C_15
    3  A    between atoms: C_9  and  C_22
    4  A    between atoms: C_17  and  N_30
                            x       y       z     vdW  Elec       q    Type
                         _______ _______ _______ _____ _____    ______ ____

>  <TORSDO>
F 4

$$$$
=
 OpenBabel11052413153D

 31 37  0  0  1  0  0  0  0  0999 V2000
  194.3430  175.3100  136.6000 C   0  0  0  0  0  0  0  0  0  0  0  0
  191.2690  177.0350  137.4610 C   0  0  1  0  0  3  0  0  0  0  0  0
  192.4420  176.2650  137.8340 N   0  0  2  0  0  0  0  0  0  0  0  0
  193.7920  174.0380  136.6720 O   0  0  0  0  0  0  0  0  0  0  0  0
  190.1170  176.1570  137.6710 C   0  0  1  0  0  0  0  0  0  0  0  0
  195.5700  175.4660  136.3700 O   0  0  0  0  0  0  0  0  0  0  0  0
  189.7750  176.7210  139.8990 C   0  0  1  0  0  3  0  0  0  0  0  0
  190.5530  174.8800  138.0930 O   0  0  0  0  0  0  0  0  0  0  0  0
  190.2910  177.3720  138.6370 C   0  0  2  0  0  0  0  0  0  0  0  0
  193.4410  176.4880  136.7730 C   0  0  0  0  0  2  0  0  0  0  0  0
  191.9510  174.8770  137.9780 C   0  0  1  0  0  3  0  0  0  0  0  0
  192.3910  173.9180  136.8630 C   0  0  0  0  0  2  0  0  0  0  0  0
  191.0850  177.1470  139.7960 O   0  0  0  0  0  0  0  0  0  0  0  0
  189.5650  176.8880  135.2390 C   0  0  0  0  0  2  0  0  0  0  0  0
  189.1000  176.2110  136.5180 C   0  0  0  0  0  0  0  0  0  0  0  0
  189.4830  175.3760  135.3050 C   0  0  0  0  0  2  0  0  0  0  0  0
  184.8440  176.1700  137.2190 C   0  0  0  0  0  0  0  0  0  0  0  0
  186.9380  175.0050  136.9010 C   0  0  0  0  0  3  0  0  0  0  0  0
  187.6710  179.0060  136.8450 Cl  0  0  0  0  0  0  0  0  0  0  0  0
  183.1160  176.1350  137.4910 Cl  0  0  0  0  0  0  0  0  0  0  0  0
  185.5600  174.9760  137.1160 C   0  0  0  0  0  3  0  0  0  0  0  0
  186.8940  177.4320  136.9180 C   0  0  0  0  0  0  0  0  0  0  0  0
  187.6170  176.2270  136.7840 C   0  0  0  0  0  0  0  0  0  0  0  0
  185.5110  177.3940  137.1260 C   0  0  0  0  0  3  0  0  0  0  0  0
  189.0770  177.6240  140.8160 N   0  0  0  0  0  2  0  0  0  0  0  0
  189.0610  177.6350  142.2520 C   0  0  0  0  0  0  0  0  0  0  0  0
  190.0220  178.2150  144.4040 C   0  0  0  0  0  3  0  0  0  0  0  0
  190.0640  178.2530  143.0080 C   0  0  0  0  0  3  0  0  0  0  0  0
  188.9720  177.5620  145.0550 C   0  0  0  0  0  3  0  0  0  0  0  0
  187.9680  176.9440  144.3070 C   0  0  0  0  0  3  0  0  0  0  0  0
  188.0150  176.9790  142.9110 C   0  0  0  0  0  3  0  0  0  0  0  0
  1  4  1  0  0  0  0
  1 10  1  0  0  0  0
  2  5  1  0  0  0  0
  2  3  1  0  0  0  0
  2  9  1  0  0  0  0
  3 11  1  0  0  0  0
  4 12  1  0  0  0  0
  5  8  1  0  0  0  0
  5  9  1  0  0  0  0
  6  1  2  0  0  0  0
  7 25  1  0  0  0  0
  9 13  1  0  0  0  0
  9  7  1  0  0  0  0
 10  3  1  0  0  0  0
 11  8  1  0  0  0  0
 12 11  1  0  0  0  0
 13  7  1  0  0  0  0
 14 16  1  0  0  0  0
 14 15  1  0  0  0  0
 15 23  1  0  0  0  0
 15  5  1  0  0  0  0
 16 15  1  0  0  0  0
 17 20  1  0  0  0  0
 18 21  1  0  0  0  0
 19 22  1  0  0  0  0
 21 17  2  0  0  0  0
 22 24  2  0  0  0  0
 23 18  2  0  0  0  0
 23 22  1  0  0  0  0
 24 17  1  0  0  0  0
 25 26  1  0  0  0  0
 26 31  2  0  0  0  0
 26 28  1  0  0  0  0
 27 29  1  0  0  0  0
 28 27  2  0  0  0  0
 30 29  2  0  0  0  0
 31 30  1  0  0  0  0
M  END
>  <MODEL>
2

>  <REMARK>
 VINA RESULT:      -7.1      6.111      8.001
  Name = 
  4 active torsions:
  status: ('A' for Active; 'I' for Inactive)
    1  A    between atoms: C_5  and  N_30
    2  A    between atoms: C_9  and  C_15
    3  A    between atoms: C_9  and  C_22
    4  A    between atoms: C_17  and  N_30
                            x       y       z     vdW  Elec       q    Type
                         _______ _______ _______ _____ _____    ______ ____

>  <TORSDO>
F 4

$$$$
=
 OpenBabel11052413153D

 31 37  0  0  1  0  0  0  0  0999 V2000
  193.4460  175.4760  137.0270 C   0  0  0  0  0  0  0  0  0  0  0  0
  190.9370  177.5410  138.6420 C   0  0  1  0  0  3  0  0  0  0  0  0
  191.8480  176.4090  138.6450 N   0  0  2  0  0  0  0  0  0  0  0  0
  192.5680  174.4510  136.7020 O   0  0  0  0  0  0  0  0  0  0  0  0
  189.5850  176.9810  138.6250 C   0  0  1  0  0  0  0  0  0  0  0  0
  194.6740  175.3730  136.7740 O   0  0  0  0  0  0  0  0  0  0  0  0
  189.3570  176.8080  140.9310 C   0  0  1  0  0  3  0  0  0  0  0  0
  189.6470  175.5700  138.5560 O   0  0  0  0  0  0  0  0  0  0  0  0
  190.0610  177.6950  139.9320 C   0  0  2  0  0  0  0  0  0  0  0  0
  192.8950  176.7150  137.6540 C   0  0  0  0  0  2  0  0  0  0  0  0
  190.9940  175.2390  138.3450 C   0  0  1  0  0  3  0  0  0  0  0  0
  191.1830  174.6460  136.9430 C   0  0  0  0  0  2  0  0  0  0  0  0
  190.7350  176.8820  140.8840 O   0  0  0  0  0  0  0  0  0  0  0  0
  189.0550  179.1010  137.2180 C   0  0  0  0  0  2  0  0  0  0  0  0
  188.6490  177.6970  137.6360 C   0  0  0  0  0  0  0  0  0  0  0  0
  189.2580  177.9410  136.2630 C   0  0  0  0  0  2  0  0  0  0  0  0
  184.4230  176.8390  137.5910 C   0  0  0  0  0  0  0  0  0  0  0  0
  186.2790  178.2510  138.2270 C   0  0  0  0  0  3  0  0  0  0  0  0
  187.7210  175.1390  136.0380 Cl  0  0  0  0  0  0  0  0  0  0  0  0
  182.7060  176.5010  137.5930 Cl  0  0  0  0  0  0  0  0  0  0  0  0
  184.9100  177.9800  138.2300 C   0  0  0  0  0  3  0  0  0  0  0  0
  186.6760  176.2470  136.9160 C   0  0  0  0  0  0  0  0  0  0  0  0
  187.1770  177.3830  137.5860 C   0  0  0  0  0  0  0  0  0  0  0  0
  185.3030  175.9790  136.9310 C   0  0  0  0  0  3  0  0  0  0  0  0
  188.9090  177.4870  142.1480 N   0  0  0  0  0  2  0  0  0  0  0  0
  187.5850  177.8740  142.5450 C   0  0  0  0  0  0  0  0  0  0  0  0
  185.4720  179.0060  142.1550 C   0  0  0  0  0  3  0  0  0  0  0  0
  186.7440  178.6270  141.7160 C   0  0  0  0  0  3  0  0  0  0  0  0
  185.0300  178.6290  143.4260 C   0  0  0  0  0  3  0  0  0  0  0  0
  185.8630  177.8770  144.2580 C   0  0  0  0  0  3  0  0  0  0  0  0
  187.1370  177.5050  143.8180 C   0  0  0  0  0  3  0  0  0  0  0  0
  1 10  1  0  0  0  0
  2  3  1  0  0  0  0
  2  9  1  0  0  0  0
  4 12  1  0  0  0  0
  4  1  1  0  0  0  0
  5  2  1  0  0  0  0
  5  9  1  0  0  0  0
  6  1  2  0  0  0  0
  7 25  1  0  0  0  0
  8  5  1  0  0  0  0
  9 13  1  0  0  0  0
  9  7  1  0  0  0  0
 10  3  1  0  0  0  0
 11  8  1  0  0  0  0
 11  3  1  0  0  0  0
 12 11  1  0  0  0  0
 13  7  1  0  0  0  0
 14 15  1  0  0  0  0
 15  5  1  0  0  0  0
 16 14  1  0  0  0  0
 16 15  1  0  0  0  0
 17 20  1  0  0  0  0
 17 21  1  0  0  0  0
 18 21  2  0  0  0  0
 19 22  1  0  0  0  0
 22 24  1  0  0  0  0
 22 23  2  0  0  0  0
 23 15  1  0  0  0  0
 23 18  1  0  0  0  0
 24 17  2  0  0  0  0
 25 26  1  0  0  0  0
 26 31  1  0  0  0  0
 27 29  2  0  0  0  0
 28 27  1  0  0  0  0
 28 26  2  0  0  0  0
 29 30  1  0  0  0  0
 31 30  2  0  0  0  0
M  END
>  <MODEL>
3

>  <REMARK>
 VINA RESULT:      -7.1      5.523      7.155
  Name = 
  4 active torsions:
  status: ('A' for Active; 'I' for Inactive)
    1  A    between atoms: C_5  and  N_30
    2  A    between atoms: C_9  and  C_15
    3  A    between atoms: C_9  and  C_22
    4  A    between atoms: C_17  and  N_30
                            x       y       z     vdW  Elec       q    Type
                         _______ _______ _______ _____ _____    ______ ____

>  <TORSDO>
F 4

$$$$
=
 OpenBabel11052413153D

 31 37  0  0  1  0  0  0  0  0999 V2000
  192.4770  175.9370  147.7840 C   0  0  0  0  0  0  0  0  0  0  0  0
  190.0650  178.0930  146.1410 C   0  0  1  0  0  3  0  0  0  0  0  0
  190.3920  176.9070  146.9120 N   0  0  2  0  0  0  0  0  0  0  0  0
  192.4920  174.9830  146.7760 O   0  0  0  0  0  0  0  0  0  0  0  0
  189.6200  177.6210  144.8290 C   0  0  1  0  0  0  0  0  0  0  0  0
  193.1400  175.7660  148.8390 O   0  0  0  0  0  0  0  0  0  0  0  0
  187.3810  177.3750  145.3960 C   0  0  1  0  0  3  0  0  0  0  0  0
  189.7260  176.2120  144.7610 O   0  0  0  0  0  0  0  0  0  0  0  0
  188.5500  178.2530  145.7750 C   0  0  2  0  0  0  0  0  0  0  0  0
  191.6800  177.1840  147.5730 C   0  0  0  0  0  2  0  0  0  0  0  0
  190.3950  175.8050  145.9250 C   0  0  1  0  0  3  0  0  0  0  0  0
  191.7840  175.2550  145.5760 C   0  0  0  0  0  2  0  0  0  0  0  0
  187.9010  177.3630  146.6760 O   0  0  0  0  0  0  0  0  0  0  0  0
  190.6090  179.8670  143.9730 C   0  0  0  0  0  2  0  0  0  0  0  0
  190.2140  178.4320  143.6640 C   0  0  0  0  0  0  0  0  0  0  0  0
  191.6790  178.8020  143.8420 C   0  0  0  0  0  2  0  0  0  0  0  0
  189.0600  177.5660  139.6000 C   0  0  0  0  0  0  0  0  0  0  0  0
  188.6370  178.6290  141.7300 C   0  0  0  0  0  3  0  0  0  0  0  0
  192.2410  176.7530  141.9230 Cl  0  0  0  0  0  0  0  0  0  0  0  0
  188.5700  177.2150  137.9570 Cl  0  0  0  0  0  0  0  0  0  0  0  0
  188.2440  178.3480  140.4200 C   0  0  0  0  0  3  0  0  0  0  0  0
  190.6820  177.3660  141.3920 C   0  0  0  0  0  0  0  0  0  0  0  0
  189.8470  178.1310  142.2350 C   0  0  0  0  0  0  0  0  0  0  0  0
  190.2770  177.0820  140.0840 C   0  0  0  0  0  3  0  0  0  0  0  0
  186.0750  178.0340  145.4450 N   0  0  0  0  0  2  0  0  0  0  0  0
  185.1210  178.2540  144.3950 C   0  0  0  0  0  0  0  0  0  0  0  0
  184.4720  178.2720  142.0550 C   0  0  0  0  0  3  0  0  0  0  0  0
  185.4220  178.0160  143.0480 C   0  0  0  0  0  3  0  0  0  0  0  0
  183.2120  178.7620  142.4030 C   0  0  0  0  0  3  0  0  0  0  0  0
  182.9040  179.0010  143.7450 C   0  0  0  0  0  3  0  0  0  0  0  0
  183.8580  178.7500  144.7350 C   0  0  0  0  0  3  0  0  0  0  0  0
  1  6  2  0  0  0  0
  2  3  1  0  0  0  0
  3 10  1  0  0  0  0
  4  1  1  0  0  0  0
  5  9  1  0  0  0  0
  5  2  1  0  0  0  0
  7 25  1  0  0  0  0
  7  9  1  0  0  0  0
  7 13  1  0  0  0  0
  8  5  1  0  0  0  0
  8 11  1  0  0  0  0
  9  2  1  0  0  0  0
  9 13  1  0  0  0  0
 10  1  1  0  0  0  0
 11  3  1  0  0  0  0
 12 11  1  0  0  0  0
 12  4  1  0  0  0  0
 15 16  1  0  0  0  0
 15 14  1  0  0  0  0
 15  5  1  0  0  0  0
 16 14  1  0  0  0  0
 17 24  2  0  0  0  0
 17 21  1  0  0  0  0
 18 23  1  0  0  0  0
 20 17  1  0  0  0  0
 21 18  2  0  0  0  0
 22 19  1  0  0  0  0
 22 23  2  0  0  0  0
 23 15  1  0  0  0  0
 24 22  1  0  0  0  0
 26 31  1  0  0  0  0
 26 25  1  0  0  0  0
 27 29  2  0  0  0  0
 27 28  1  0  0  0  0
 28 26  2  0  0  0  0
 29 30  1  0  0  0  0
 30 31  2  0  0  0  0
M  END
>  <MODEL>
4

>  <REMARK>
 VINA RESULT:      -6.7      5.748      9.745
  Name = 
  4 active torsions:
  status: ('A' for Active; 'I' for Inactive)
    1  A    between atoms: C_5  and  N_30
    2  A    between atoms: C_9  and  C_15
    3  A    between atoms: C_9  and  C_22
    4  A    between atoms: C_17  and  N_30
                            x       y       z     vdW  Elec       q    Type
                         _______ _______ _______ _____ _____    ______ ____

>  <TORSDO>
F 4

$$$$
=
 OpenBabel11052413153D

 31 37  0  0  1  0  0  0  0  0999 V2000
  192.6670  176.0670  138.3820 C   0  0  0  0  0  0  0  0  0  0  0  0
  189.5700  176.3150  140.2570 C   0  0  1  0  0  3  0  0  0  0  0  0
  190.4990  176.8220  139.2620 N   0  0  2  0  0  0  0  0  0  0  0  0
  193.3400  177.0200  139.1350 O   0  0  0  0  0  0  0  0  0  0  0  0
  189.6090  177.2580  141.3750 C   0  0  1  0  0  0  0  0  0  0  0  0
  193.2140  175.5360  137.3810 O   0  0  0  0  0  0  0  0  0  0  0  0
  187.9590  178.6780  140.5640 C   0  0  1  0  0  3  0  0  0  0  0  0
  190.5630  178.2710  141.1200 O   0  0  0  0  0  0  0  0  0  0  0  0
  188.3090  177.2090  140.5100 C   0  0  2  0  0  0  0  0  0  0  0  0
  191.2910  175.6660  138.8060 C   0  0  0  0  0  2  0  0  0  0  0  0
  191.2510  177.8880  139.9590 C   0  0  1  0  0  3  0  0  0  0  0  0
  192.7070  177.5360  140.2950 C   0  0  0  0  0  2  0  0  0  0  0  0
  188.2790  178.0600  139.3700 O   0  0  0  0  0  0  0  0  0  0  0  0
  190.0420  175.0920  142.7440 C   0  0  0  0  0  2  0  0  0  0  0  0
  189.6650  176.5640  142.7470 C   0  0  0  0  0  0  0  0  0  0  0  0
  191.0600  176.1300  143.1730 C   0  0  0  0  0  2  0  0  0  0  0  0
  187.1380  177.9140  145.9710 C   0  0  0  0  0  0  0  0  0  0  0  0
  187.4670  176.6360  143.9460 C   0  0  0  0  0  3  0  0  0  0  0  0
  191.0080  178.3570  144.9700 Cl  0  0  0  0  0  0  0  0  0  0  0  0
  186.0950  178.4610  147.2650 Cl  0  0  0  0  0  0  0  0  0  0  0  0
  186.6340  177.0740  144.9770 C   0  0  0  0  0  3  0  0  0  0  0  0
  189.3230  177.8590  144.9200 C   0  0  0  0  0  0  0  0  0  0  0  0
  188.8120  177.0340  143.8960 C   0  0  0  0  0  0  0  0  0  0  0  0
  188.4800  178.3000  145.9450 C   0  0  0  0  0  3  0  0  0  0  0  0
  186.5250  178.9690  140.5510 N   0  0  0  0  0  2  0  0  0  0  0  0
  185.5930  179.0260  141.6420 C   0  0  0  0  0  0  0  0  0  0  0  0
  184.9070  179.7980  143.8390 C   0  0  0  0  0  3  0  0  0  0  0  0
  185.8290  179.7950  142.7890 C   0  0  0  0  0  3  0  0  0  0  0  0
  183.7400  179.0350  143.7480 C   0  0  0  0  0  3  0  0  0  0  0  0
  183.4980  178.2660  142.6080 C   0  0  0  0  0  3  0  0  0  0  0  0
  184.4250  178.2610  141.5610 C   0  0  0  0  0  3  0  0  0  0  0  0
  1 10  1  0  0  0  0
  1  4  1  0  0  0  0
  2  9  1  0  0  0  0
  2  5  1  0  0  0  0
  3 11  1  0  0  0  0
  3  2  1  0  0  0  0
  4 12  1  0  0  0  0
  5 15  1  0  0  0  0
  6  1  2  0  0  0  0
  8  5  1  0  0  0  0
  9  7  1  0  0  0  0
  9  5  1  0  0  0  0
 10  3  1  0  0  0  0
 11 12  1  0  0  0  0
 11  8  1  0  0  0  0
 13  9  1  0  0  0  0
 13  7  1  0  0  0  0
 14 15  1  0  0  0  0
 14 16  1  0  0  0  0
 15 16  1  0  0  0  0
 15 23  1  0  0  0  0
 17 20  1  0  0  0  0
 18 21  1  0  0  0  0
 21 17  2  0  0  0  0
 22 19  1  0  0  0  0
 22 24  2  0  0  0  0
 23 18  2  0  0  0  0
 23 22  1  0  0  0  0
 24 17  1  0  0  0  0
 25  7  1  0  0  0  0
 25 26  1  0  0  0  0
 26 28  1  0  0  0  0
 28 27  2  0  0  0  0
 29 27  1  0  0  0  0
 30 29  2  0  0  0  0
 31 26  2  0  0  0  0
 31 30  1  0  0  0  0
M  END
>  <MODEL>
5

>  <REMARK>
 VINA RESULT:      -6.6      5.662      8.735
  Name = 
  4 active torsions:
  status: ('A' for Active; 'I' for Inactive)
    1  A    between atoms: C_5  and  N_30
    2  A    between atoms: C_9  and  C_15
    3  A    between atoms: C_9  and  C_22
    4  A    between atoms: C_17  and  N_30
                            x       y       z     vdW  Elec       q    Type
                         _______ _______ _______ _____ _____    ______ ____

>  <TORSDO>
F 4

$$$$
=
 OpenBabel11052413153D

 31 37  0  0  1  0  0  0  0  0999 V2000
  182.6080  179.3610  139.0100 C   0  0  0  0  0  0  0  0  0  0  0  0
  185.1940  179.7240  141.5290 C   0  0  1  0  0  3  0  0  0  0  0  0
  184.7250  179.2160  140.2520 N   0  0  2  0  0  0  0  0  0  0  0  0
  182.2730  178.0620  139.3680 O   0  0  0  0  0  0  0  0  0  0  0  0
  185.3670  178.5580  142.3970 C   0  0  1  0  0  0  0  0  0  0  0  0
  182.0590  179.9170  138.0240 O   0  0  0  0  0  0  0  0  0  0  0  0
  187.5590  178.1050  141.7760 C   0  0  1  0  0  3  0  0  0  0  0  0
  184.9640  177.3860  141.7170 O   0  0  0  0  0  0  0  0  0  0  0  0
  186.6530  179.3050  141.9180 C   0  0  2  0  0  0  0  0  0  0  0  0
  183.6140  180.0910  139.8400 C   0  0  0  0  0  2  0  0  0  0  0  0
  184.3740  177.8040  140.5150 C   0  0  1  0  0  3  0  0  0  0  0  0
  182.8680  177.5060  140.5300 C   0  0  0  0  0  2  0  0  0  0  0  0
  187.2090  178.8730  140.6830 O   0  0  0  0  0  0  0  0  0  0  0  0
  183.7080  179.8090  143.9590 C   0  0  0  0  0  2  0  0  0  0  0  0
  184.8150  178.7770  143.8160 C   0  0  0  0  0  0  0  0  0  0  0  0
  183.3720  178.3310  144.0030 C   0  0  0  0  0  2  0  0  0  0  0  0
  187.2740  178.2100  147.3140 C   0  0  0  0  0  0  0  0  0  0  0  0
  185.5610  179.4260  146.1170 C   0  0  0  0  0  3  0  0  0  0  0  0
  186.7370  176.2740  143.8290 Cl  0  0  0  0  0  0  0  0  0  0  0  0
  188.2720  178.0020  148.7360 Cl  0  0  0  0  0  0  0  0  0  0  0  0
  186.3590  179.2620  147.2510 C   0  0  0  0  0  3  0  0  0  0  0  0
  186.5770  177.4630  145.1140 C   0  0  0  0  0  0  0  0  0  0  0  0
  185.6710  178.5420  145.0330 C   0  0  0  0  0  0  0  0  0  0  0  0
  187.3780  177.3100  146.2510 C   0  0  0  0  0  3  0  0  0  0  0  0
  188.9690  178.3610  142.0740 N   0  0  0  0  0  2  0  0  0  0  0  0
  189.8320  177.7240  143.0300 C   0  0  0  0  0  0  0  0  0  0  0  0
  191.0770  177.7010  145.1140 C   0  0  0  0  0  3  0  0  0  0  0  0
  190.2130  178.3460  144.2260 C   0  0  0  0  0  3  0  0  0  0  0  0
  191.5630  176.4250  144.8150 C   0  0  0  0  0  3  0  0  0  0  0  0
  191.1870  175.7990  143.6250 C   0  0  0  0  0  3  0  0  0  0  0  0
  190.3260  176.4490  142.7350 C   0  0  0  0  0  3  0  0  0  0  0  0
  1  4  1  0  0  0  0
  1 10  1  0  0  0  0
  2  9  1  0  0  0  0
  2  5  1  0  0  0  0
  3 11  1  0  0  0  0
  3  2  1  0  0  0  0
  4 12  1  0  0  0  0
  5 15  1  0  0  0  0
  6  1  2  0  0  0  0
  7  9  1  0  0  0  0
  7 25  1  0  0  0  0
  8  5  1  0  0  0  0
  9  5  1  0  0  0  0
 10  3  1  0  0  0  0
 11 12  1  0  0  0  0
 11  8  1  0  0  0  0
 13  7  1  0  0  0  0
 13  9  1  0  0  0  0
 14 16  1  0  0  0  0
 15 14  1  0  0  0  0
 15 16  1  0  0  0  0
 15 23  1  0  0  0  0
 17 20  1  0  0  0  0
 18 21  2  0  0  0  0
 19 22  1  0  0  0  0
 21 17  1  0  0  0  0
 22 24  1  0  0  0  0
 23 22  2  0  0  0  0
 23 18  1  0  0  0  0
 24 17  2  0  0  0  0
 25 26  1  0  0  0  0
 26 28  1  0  0  0  0
 28 27  2  0  0  0  0
 29 27  1  0  0  0  0
 30 29  2  0  0  0  0
 31 26  2  0  0  0  0
 31 30  1  0  0  0  0
M  END
>  <MODEL>
6

>  <REMARK>
 VINA RESULT:      -6.6      4.081      7.098
  Name = 
  4 active torsions:
  status: ('A' for Active; 'I' for Inactive)
    1  A    between atoms: C_5  and  N_30
    2  A    between atoms: C_9  and  C_15
    3  A    between atoms: C_9  and  C_22
    4  A    between atoms: C_17  and  N_30
                            x       y       z     vdW  Elec       q    Type
                         _______ _______ _______ _____ _____    ______ ____

>  <TORSDO>
F 4

$$$$
=
 OpenBabel11052413153D

 31 37  0  0  1  0  0  0  0  0999 V2000
  191.7800  175.3220  144.3280 C   0  0  0  0  0  0  0  0  0  0  0  0
  188.6070  176.3300  142.8850 C   0  0  1  0  0  3  0  0  0  0  0  0
  190.0590  176.3400  142.8970 N   0  0  2  0  0  0  0  0  0  0  0  0
  192.0130  176.5330  144.9640 O   0  0  0  0  0  0  0  0  0  0  0  0
  188.1830  177.6860  143.2340 C   0  0  1  0  0  0  0  0  0  0  0  0
  192.6360  174.4000  144.3680 O   0  0  0  0  0  0  0  0  0  0  0  0
  188.1920  178.5180  141.0650 C   0  0  1  0  0  3  0  0  0  0  0  0
  189.3130  178.4890  143.5140 O   0  0  0  0  0  0  0  0  0  0  0  0
  187.9430  177.2040  141.7670 C   0  0  2  0  0  0  0  0  0  0  0  0
  190.4770  175.1270  143.6220 C   0  0  0  0  0  2  0  0  0  0  0  0
  190.4200  177.6280  143.5290 C   0  0  1  0  0  3  0  0  0  0  0  0
  190.9870  177.5130  144.9500 C   0  0  0  0  0  2  0  0  0  0  0  0
  189.0070  177.4240  140.8500 O   0  0  0  0  0  0  0  0  0  0  0  0
  187.1350  176.7510  145.4210 C   0  0  0  0  0  2  0  0  0  0  0  0
  187.0270  177.7140  144.2500 C   0  0  0  0  0  0  0  0  0  0  0  0
  187.4170  178.2260  145.6280 C   0  0  0  0  0  2  0  0  0  0  0  0
  183.0790  178.8970  142.9800 C   0  0  0  0  0  0  0  0  0  0  0  0
  185.2740  178.0130  142.4860 C   0  0  0  0  0  3  0  0  0  0  0  0
  185.0310  178.6900  146.4910 Cl  0  0  0  0  0  0  0  0  0  0  0  0
  181.4850  179.3840  142.4460 Cl  0  0  0  0  0  0  0  0  0  0  0  0
  184.0040  178.4030  142.0590 C   0  0  0  0  0  3  0  0  0  0  0  0
  184.6860  178.5870  144.7710 C   0  0  0  0  0  0  0  0  0  0  0  0
  185.6350  178.1140  143.8390 C   0  0  0  0  0  0  0  0  0  0  0  0
  183.4180  178.9820  144.3330 C   0  0  0  0  0  3  0  0  0  0  0  0
  187.3930  178.7300  139.8570 N   0  0  0  0  0  2  0  0  0  0  0  0
  187.6730  178.3570  138.4990 C   0  0  0  0  0  0  0  0  0  0  0  0
  189.0920  178.3330  136.5280 C   0  0  0  0  0  3  0  0  0  0  0  0
  188.8740  178.6930  137.8610 C   0  0  0  0  0  3  0  0  0  0  0  0
  188.1110  177.6290  135.8250 C   0  0  0  0  0  3  0  0  0  0  0  0
  186.9110  177.2900  136.4540 C   0  0  0  0  0  3  0  0  0  0  0  0
  186.6940  177.6560  137.7860 C   0  0  0  0  0  3  0  0  0  0  0  0
  1  6  2  0  0  0  0
  1  4  1  0  0  0  0
  2  3  1  0  0  0  0
  2  5  1  0  0  0  0
  3 11  1  0  0  0  0
  3 10  1  0  0  0  0
  5  8  1  0  0  0  0
  5 15  1  0  0  0  0
  7  9  1  0  0  0  0
  8 11  1  0  0  0  0
  9  2  1  0  0  0  0
  9  5  1  0  0  0  0
 10  1  1  0  0  0  0
 11 12  1  0  0  0  0
 12  4  1  0  0  0  0
 13  7  1  0  0  0  0
 13  9  1  0  0  0  0
 14 16  1  0  0  0  0
 15 14  1  0  0  0  0
 15 16  1  0  0  0  0
 17 24  1  0  0  0  0
 18 23  2  0  0  0  0
 20 17  1  0  0  0  0
 21 18  1  0  0  0  0
 21 17  2  0  0  0  0
 22 19  1  0  0  0  0
 23 15  1  0  0  0  0
 23 22  1  0  0  0  0
 24 22  2  0  0  0  0
 25  7  1  0  0  0  0
 26 25  1  0  0  0  0
 27 28  2  0  0  0  0
 28 26  1  0  0  0  0
 29 30  2  0  0  0  0
 29 27  1  0  0  0  0
 30 31  1  0  0  0  0
 31 26  2  0  0  0  0
M  END
>  <MODEL>
7

>  <REMARK>
 VINA RESULT:      -6.4      4.760      8.524
  Name = 
  4 active torsions:
  status: ('A' for Active; 'I' for Inactive)
    1  A    between atoms: C_5  and  N_30
    2  A    between atoms: C_9  and  C_15
    3  A    between atoms: C_9  and  C_22
    4  A    between atoms: C_17  and  N_30
                            x       y       z     vdW  Elec       q    Type
                         _______ _______ _______ _____ _____    ______ ____

>  <TORSDO>
F 4

$$$$
=
 OpenBabel11052413153D

 31 37  0  0  1  0  0  0  0  0999 V2000
  180.7470  177.2360  136.0730 C   0  0  0  0  0  0  0  0  0  0  0  0
  182.8900  178.8840  138.4940 C   0  0  1  0  0  3  0  0  0  0  0  0
  182.6940  177.9670  137.3860 N   0  0  2  0  0  0  0  0  0  0  0  0
  180.6990  176.0300  136.7570 O   0  0  0  0  0  0  0  0  0  0  0  0
  183.2470  178.0620  139.6510 C   0  0  1  0  0  0  0  0  0  0  0  0
  180.1860  177.3630  134.9540 O   0  0  0  0  0  0  0  0  0  0  0  0
  185.5360  178.0540  139.2570 C   0  0  1  0  0  3  0  0  0  0  0  0
  183.2120  176.6930  139.3000 O   0  0  0  0  0  0  0  0  0  0  0  0
  184.3580  178.9720  139.0350 C   0  0  2  0  0  0  0  0  0  0  0  0
  181.4540  178.3890  136.7110 C   0  0  0  0  0  2  0  0  0  0  0  0
  182.6680  176.6250  138.0080 C   0  0  1  0  0  3  0  0  0  0  0  0
  181.2860  175.9590  138.0470 C   0  0  0  0  0  2  0  0  0  0  0  0
  185.1280  178.4020  137.9840 O   0  0  0  0  0  0  0  0  0  0  0  0
  181.3110  179.3950  140.7610 C   0  0  0  0  0  2  0  0  0  0  0  0
  182.5130  178.4810  140.9360 C   0  0  0  0  0  0  0  0  0  0  0  0
  181.1020  177.9240  141.0610 C   0  0  0  0  0  2  0  0  0  0  0  0
  184.6390  178.6520  144.6850 C   0  0  0  0  0  0  0  0  0  0  0  0
  184.5890  178.2080  142.3090 C   0  0  0  0  0  3  0  0  0  0  0  0
  180.9160  179.5370  143.4450 Cl  0  0  0  0  0  0  0  0  0  0  0  0
  185.5140  178.7050  146.1990 Cl  0  0  0  0  0  0  0  0  0  0  0  0
  185.2880  178.2480  143.5170 C   0  0  0  0  0  3  0  0  0  0  0  0
  182.5920  179.0080  143.4330 C   0  0  0  0  0  0  0  0  0  0  0  0
  183.2350  178.5710  142.2550 C   0  0  0  0  0  0  0  0  0  0  0  0
  183.2970  179.0370  144.6410 C   0  0  0  0  0  3  0  0  0  0  0  0
  186.8040  178.7340  139.5260 N   0  0  0  0  0  2  0  0  0  0  0  0
  188.0410  178.2000  140.0210 C   0  0  0  0  0  0  0  0  0  0  0  0
  190.1800  177.0950  139.7050 C   0  0  0  0  0  3  0  0  0  0  0  0
  189.0020  177.6290  139.1760 C   0  0  0  0  0  3  0  0  0  0  0  0
  190.4090  177.1330  141.0820 C   0  0  0  0  0  3  0  0  0  0  0  0
  189.4560  177.7010  141.9310 C   0  0  0  0  0  3  0  0  0  0  0  0
  188.2760  178.2300  141.4000 C   0  0  0  0  0  3  0  0  0  0  0  0
  1 10  1  0  0  0  0
  1  4  1  0  0  0  0
  2  9  1  0  0  0  0
  2  5  1  0  0  0  0
  3 11  1  0  0  0  0
  3  2  1  0  0  0  0
  4 12  1  0  0  0  0
  5 15  1  0  0  0  0
  6  1  2  0  0  0  0
  7 25  1  0  0  0  0
  8  5  1  0  0  0  0
  9  7  1  0  0  0  0
  9  5  1  0  0  0  0
 10  3  1  0  0  0  0
 11 12  1  0  0  0  0
 11  8  1  0  0  0  0
 13  9  1  0  0  0  0
 13  7  1  0  0  0  0
 14 15  1  0  0  0  0
 14 16  1  0  0  0  0
 15 16  1  0  0  0  0
 15 23  1  0  0  0  0
 17 20  1  0  0  0  0
 18 21  1  0  0  0  0
 21 17  2  0  0  0  0
 22 19  1  0  0  0  0
 22 24  2  0  0  0  0
 23 18  2  0  0  0  0
 23 22  1  0  0  0  0
 24 17  1  0  0  0  0
 25 26  1  0  0  0  0
 26 31  1  0  0  0  0
 27 29  2  0  0  0  0
 28 27  1  0  0  0  0
 28 26  2  0  0  0  0
 29 30  1  0  0  0  0
 31 30  2  0  0  0  0
M  END
>  <MODEL>
8

>  <REMARK>
 VINA RESULT:      -6.1      3.529      5.359
  Name = 
  4 active torsions:
  status: ('A' for Active; 'I' for Inactive)
    1  A    between atoms: C_5  and  N_30
    2  A    between atoms: C_9  and  C_15
    3  A    between atoms: C_9  and  C_22
    4  A    between atoms: C_17  and  N_30
                            x       y       z     vdW  Elec       q    Type
                         _______ _______ _______ _____ _____    ______ ____

>  <TORSDO>
F 4

$$$$
=
 OpenBabel11052413153D

 31 37  0  0  1  0  0  0  0  0999 V2000
  191.3440  177.4970  144.3170 C   0  0  0  0  0  0  0  0  0  0  0  0
  189.0880  178.5720  141.6860 C   0  0  1  0  0  3  0  0  0  0  0  0
  189.3300  178.0500  143.0190 N   0  0  2  0  0  0  0  0  0  0  0  0
  191.1580  176.1410  144.0880 O   0  0  0  0  0  0  0  0  0  0  0  0
  188.4830  177.4820  140.9200 C   0  0  1  0  0  0  0  0  0  0  0  0
  192.0660  177.8950  145.2670 O   0  0  0  0  0  0  0  0  0  0  0  0
  186.2840  177.9580  141.5020 C   0  0  1  0  0  3  0  0  0  0  0  0
  188.4080  176.3150  141.7160 O   0  0  0  0  0  0  0  0  0  0  0  0
  187.5800  178.7040  141.2850 C   0  0  2  0  0  0  0  0  0  0  0  0
  190.6920  178.4720  143.3900 C   0  0  0  0  0  2  0  0  0  0  0  0
  189.1160  176.5910  142.8960 C   0  0  1  0  0  3  0  0  0  0  0  0
  190.3930  175.7430  142.9610 C   0  0  0  0  0  2  0  0  0  0  0  0
  186.9030  178.6370  142.5340 O   0  0  0  0  0  0  0  0  0  0  0  0
  190.4800  177.8780  139.3050 C   0  0  0  0  0  2  0  0  0  0  0  0
  189.0740  177.3370  139.5070 C   0  0  0  0  0  0  0  0  0  0  0  0
  190.2550  176.3830  139.4170 C   0  0  0  0  0  2  0  0  0  0  0  0
  186.5540  177.1340  136.0120 C   0  0  0  0  0  0  0  0  0  0  0  0
  187.3850  176.1740  138.0690 C   0  0  0  0  0  3  0  0  0  0  0  0
  189.0690  179.8460  137.5920 Cl  0  0  0  0  0  0  0  0  0  0  0  0
  185.5350  177.0300  134.5940 Cl  0  0  0  0  0  0  0  0  0  0  0  0
  186.5730  176.0890  136.9370 C   0  0  0  0  0  3  0  0  0  0  0  0
  188.1430  178.3700  137.3660 C   0  0  0  0  0  0  0  0  0  0  0  0
  188.1880  177.3030  138.2890 C   0  0  0  0  0  0  0  0  0  0  0  0
  187.3330  178.2730  136.2300 C   0  0  0  0  0  3  0  0  0  0  0  0
  185.0780  178.7000  141.1330 N   0  0  0  0  0  2  0  0  0  0  0  0
  183.7990  178.7480  141.7830 C   0  0  0  0  0  0  0  0  0  0  0  0
  181.3710  178.7410  141.7460 C   0  0  0  0  0  3  0  0  0  0  0  0
  182.5940  178.6610  141.0740 C   0  0  0  0  0  3  0  0  0  0  0  0
  181.3440  178.9020  143.1330 C   0  0  0  0  0  3  0  0  0  0  0  0
  182.5420  178.9890  143.8470 C   0  0  0  0  0  3  0  0  0  0  0  0
  183.7630  178.9150  143.1720 C   0  0  0  0  0  3  0  0  0  0  0  0
  1  6  2  0  0  0  0
  2  3  1  0  0  0  0
  3 10  1  0  0  0  0
  4  1  1  0  0  0  0
  5  9  1  0  0  0  0
  5  2  1  0  0  0  0
  5  8  1  0  0  0  0
  7 13  1  0  0  0  0
  8 11  1  0  0  0  0
  9  7  1  0  0  0  0
  9  2  1  0  0  0  0
  9 13  1  0  0  0  0
 10  1  1  0  0  0  0
 11 12  1  0  0  0  0
 11  3  1  0  0  0  0
 12  4  1  0  0  0  0
 14 16  1  0  0  0  0
 14 15  1  0  0  0  0
 15  5  1  0  0  0  0
 16 15  1  0  0  0  0
 17 24  2  0  0  0  0
 17 21  1  0  0  0  0
 18 23  1  0  0  0  0
 20 17  1  0  0  0  0
 21 18  2  0  0  0  0
 22 19  1  0  0  0  0
 22 23  2  0  0  0  0
 23 15  1  0  0  0  0
 24 22  1  0  0  0  0
 25  7  1  0  0  0  0
 25 26  1  0  0  0  0
 26 31  1  0  0  0  0
 27 29  2  0  0  0  0
 28 27  1  0  0  0  0
 28 26  2  0  0  0  0
 29 30  1  0  0  0  0
 31 30  2  0  0  0  0
M  END
>  <MODEL>
9

>  <REMARK>
 VINA RESULT:      -6.1      4.470      7.589
  Name = 
  4 active torsions:
  status: ('A' for Active; 'I' for Inactive)
    1  A    between atoms: C_5  and  N_30
    2  A    between atoms: C_9  and  C_15
    3  A    between atoms: C_9  and  C_22
    4  A    between atoms: C_17  and  N_30
                            x       y       z     vdW  Elec       q    Type
                         _______ _______ _______ _____ _____    ______ ____

>  <TORSDO>
F 4

$$$$
