=
 OpenBabel11052416553D

 32 36  0  0  1  0  0  0  0  0999 V2000
  189.6800  177.7330  137.5810 C   0  0  1  0  0  3  0  0  0  0  0  0
  188.4470  177.0710  142.5750 C   0  0  0  0  0  0  0  0  0  0  0  0
  184.3000  179.5760  143.0400 C   0  0  0  0  0  3  0  0  0  0  0  0
  184.2310  179.2100  144.3850 C   0  0  0  0  0  3  0  0  0  0  0  0
  189.9030  177.4210  140.5500 C   0  0  2  0  0  3  0  0  0  0  0  0
  187.5730  178.2690  140.5800 C   0  0  0  0  0  3  0  0  0  0  0  0
  188.7800  178.5730  138.4930 C   0  0  0  0  0  2  0  0  0  0  0  0
  185.3610  179.1350  142.2480 C   0  0  0  0  0  3  0  0  0  0  0  0
  187.4480  177.8780  142.0000 C   0  0  0  0  0  0  0  0  0  0  0  0
  186.3690  178.3210  142.7900 C   0  0  0  0  0  0  0  0  0  0  0  0
  187.3070  177.1370  144.7150 C   0  0  0  0  0  0  0  0  0  0  0  0
  191.0000  177.3970  138.2740 C   0  0  0  0  0  2  0  0  0  0  0  0
  188.6730  177.9990  139.8740 C   0  0  0  0  0  0  0  0  0  0  0  0
  190.7570  176.6230  139.5680 C   0  0  0  0  0  2  0  0  0  0  0  0
  185.2240  178.4020  144.9420 C   0  0  0  0  0  3  0  0  0  0  0  0
  186.2990  177.9500  144.1590 C   0  0  0  0  0  0  0  0  0  0  0  0
  189.5450  176.5050  141.7250 C   0  0  0  0  0  2  0  0  0  0  0  0
  188.3650  176.6990  143.9170 C   0  0  0  0  0  3  0  0  0  0  0  0
  188.9740  176.4700  137.0990 C   0  0  0  0  0  2  0  0  0  0  0  0
  189.8800  175.6740  136.1760 C   0  0  0  0  0  2  0  0  0  0  0  0
  189.8810  174.2440  136.5840 C   0  0  0  0  0  0  0  0  0  0  0  0
  190.6560  173.8490  137.4940 O   0  0  0  0  0  1  0  0  0  0  0  0
  189.0530  173.3360  135.9380 O   0  0  0  0  0  0  0  0  0  0  0  0
  187.3020  176.7460  146.1600 C   0  0  0  0  0  2  0  0  0  0  0  0
  189.6290  177.0030  147.2520 C   0  0  1  0  0  3  0  0  0  0  0  0
  187.9740  178.4080  147.9380 C   0  0  0  0  0  0  0  0  0  0  0  0
  189.0780  178.5250  148.8560 C   0  0  0  0  0  3  0  0  0  0  0  0
  190.0230  177.7330  148.4640 N   0  0  0  0  0  0  0  0  0  0  0  0
  186.8670  178.9980  148.0450 O   0  0  0  0  0  0  0  0  0  0  0  0
  188.3020  177.5060  146.9010 N   0  0  0  0  0  0  0  0  0  0  0  0
  190.6350  177.2350  146.1240 C   0  0  0  0  0  2  0  0  0  0  0  0
  191.8030  176.2610  146.1780 C   0  0  0  0  0  1  0  0  0  0  0  0
  1 19  1  1  0  0  0
  1 12  1  0  0  0  0
  1  7  1  0  0  0  0
  2 18  1  0  0  0  0
  3  4  1  0  0  0  0
  4 15  2  0  0  0  0
  5 14  1  6  0  0  0
  5 17  1  0  0  0  0
  6  9  1  0  0  0  0
  7 13  1  0  0  0  0
  8 10  1  0  0  0  0
  8  3  2  0  0  0  0
  9  2  2  0  0  0  0
  9 10  1  0  0  0  0
 10 16  2  0  0  0  0
 11 24  1  0  0  0  0
 12 14  1  0  0  0  0
 13  5  1  0  0  0  0
 13  6  2  0  0  0  0
 16 11  1  0  0  0  0
 16 15  1  0  0  0  0
 17  2  1  0  0  0  0
 18 11  2  0  0  0  0
 20 21  1  0  0  0  0
 20 19  1  0  0  0  0
 21 22  1  0  0  0  0
 23 21  2  0  0  0  0
 24 30  1  0  0  0  0
 25 31  1  6  0  0  0
 25 28  1  0  0  0  0
 26 29  2  0  0  0  0
 26 27  1  0  0  0  0
 28 27  2  0  0  0  0
 30 25  1  0  0  0  0
 30 26  1  0  0  0  0
 31 32  1  0  0  0  0
M  END
>  <MODEL>
1

>  <REMARK>
 VINA RESULT:      -8.5      0.000      0.000
  Name = 
  6 active torsions:
  status: ('A' for Active; 'I' for Inactive)
    1  A    between atoms: C_1  and  C_10
    2  A    between atoms: C_2  and  C_24
    3  A    between atoms: C_6  and  C_7
    4  A    between atoms: C_10  and  C_24
    5  A    between atoms: C_16  and  C_27
    6  A    between atoms: C_27  and  N_32
                            x       y       z     vdW  Elec       q    Type
                         _______ _______ _______ _____ _____    ______ ____

>  <TORSDO>
F 6

$$$$
=
 OpenBabel11052416553D

 32 36  0  0  1  0  0  0  0  0999 V2000
  182.0720  178.4350  140.0550 C   0  0  1  0  0  3  0  0  0  0  0  0
  186.8220  178.3280  142.1340 C   0  0  0  0  0  0  0  0  0  0  0  0
  185.9430  177.8620  146.8980 C   0  0  0  0  0  3  0  0  0  0  0  0
  187.3160  177.8480  147.1480 C   0  0  0  0  0  3  0  0  0  0  0  0
  184.9630  179.0090  140.5770 C   0  0  2  0  0  3  0  0  0  0  0  0
  184.4550  178.2650  142.8870 C   0  0  0  0  0  3  0  0  0  0  0  0
  182.5290  178.7460  141.4840 C   0  0  0  0  0  2  0  0  0  0  0  0
  185.4720  177.9810  145.5900 C   0  0  0  0  0  3  0  0  0  0  0  0
  185.9000  178.2150  143.1900 C   0  0  0  0  0  0  0  0  0  0  0  0
  186.3670  178.0870  144.5140 C   0  0  0  0  0  0  0  0  0  0  0  0
  188.6720  178.1840  143.6970 C   0  0  0  0  0  0  0  0  0  0  0  0
  182.9690  179.1300  139.0300 C   0  0  0  0  0  2  0  0  0  0  0  0
  184.0060  178.5580  141.6640 C   0  0  0  0  0  0  0  0  0  0  0  0
  184.4220  178.6860  139.1860 C   0  0  0  0  0  2  0  0  0  0  0  0
  188.2210  177.9530  146.0910 C   0  0  0  0  0  3  0  0  0  0  0  0
  187.7640  178.0740  144.7690 C   0  0  0  0  0  0  0  0  0  0  0  0
  186.3450  178.3610  140.7130 C   0  0  0  0  0  2  0  0  0  0  0  0
  188.1930  178.3020  142.3910 C   0  0  0  0  0  3  0  0  0  0  0  0
  182.0040  176.9330  139.7990 C   0  0  0  0  0  2  0  0  0  0  0  0
  180.6140  176.5360  139.3330 C   0  0  0  0  0  2  0  0  0  0  0  0
  179.8920  175.8510  140.4380 C   0  0  0  0  0  0  0  0  0  0  0  0
  179.9530  174.5980  140.5490 O   0  0  0  0  0  0  0  0  0  0  0  0
  179.1200  176.5880  141.3270 O   0  0  0  0  0  1  0  0  0  0  0  0
  190.1530  178.2110  143.9130 C   0  0  0  0  0  2  0  0  0  0  0  0
  191.6650  176.6810  145.3440 C   0  0  1  0  0  3  0  0  0  0  0  0
  190.7720  175.8100  143.4400 C   0  0  0  0  0  0  0  0  0  0  0  0
  191.7880  174.9080  143.9180 C   0  0  0  0  0  3  0  0  0  0  0  0
  192.2910  175.3970  145.0050 N   0  0  0  0  0  0  0  0  0  0  0  0
  190.1130  175.6730  142.3750 O   0  0  0  0  0  0  0  0  0  0  0  0
  190.6350  176.9000  144.3280 N   0  0  0  0  0  0  0  0  0  0  0  0
  191.0660  176.6420  146.7510 C   0  0  0  0  0  2  0  0  0  0  0  0
  191.8580  175.7460  147.6930 C   0  0  0  0  0  1  0  0  0  0  0  0
  1 19  1  6  0  0  0
  1  7  1  0  0  0  0
  2 18  2  0  0  0  0
  2  9  1  0  0  0  0
  3  4  1  0  0  0  0
  5 14  1  6  0  0  0
  5 17  1  0  0  0  0
  5 13  1  0  0  0  0
  6  9  1  0  0  0  0
  7 13  1  0  0  0  0
  8  3  2  0  0  0  0
  9 10  2  0  0  0  0
 10 16  1  0  0  0  0
 10  8  1  0  0  0  0
 11 24  1  0  0  0  0
 11 16  2  0  0  0  0
 12 14  1  0  0  0  0
 12  1  1  0  0  0  0
 13  6  2  0  0  0  0
 15  4  2  0  0  0  0
 16 15  1  0  0  0  0
 17  2  1  0  0  0  0
 18 11  1  0  0  0  0
 20 19  1  0  0  0  0
 20 21  1  0  0  0  0
 21 22  2  0  0  0  0
 21 23  1  0  0  0  0
 24 30  1  0  0  0  0
 25 31  1  1  0  0  0
 26 27  1  0  0  0  0
 26 30  1  0  0  0  0
 27 28  2  0  0  0  0
 28 25  1  0  0  0  0
 29 26  2  0  0  0  0
 30 25  1  0  0  0  0
 31 32  1  0  0  0  0
M  END
>  <MODEL>
2

>  <REMARK>
 VINA RESULT:      -8.3      3.831      5.916
  Name = 
  6 active torsions:
  status: ('A' for Active; 'I' for Inactive)
    1  A    between atoms: C_1  and  C_10
    2  A    between atoms: C_2  and  C_24
    3  A    between atoms: C_6  and  C_7
    4  A    between atoms: C_10  and  C_24
    5  A    between atoms: C_16  and  C_27
    6  A    between atoms: C_27  and  N_32
                            x       y       z     vdW  Elec       q    Type
                         _______ _______ _______ _____ _____    ______ ____

>  <TORSDO>
F 6

$$$$
=
 OpenBabel11052416553D

 32 36  0  0  1  0  0  0  0  0999 V2000
  188.0180  176.9500  136.4940 C   0  0  1  0  0  3  0  0  0  0  0  0
  189.8950  177.6240  141.2820 C   0  0  0  0  0  0  0  0  0  0  0  0
  185.8820  178.0310  144.0050 C   0  0  0  0  0  3  0  0  0  0  0  0
  186.6730  178.1740  145.1460 C   0  0  0  0  0  3  0  0  0  0  0  0
  189.7390  177.8390  138.7770 C   0  0  2  0  0  3  0  0  0  0  0  0
  187.6910  177.5240  140.1400 C   0  0  0  0  0  3  0  0  0  0  0  0
  187.3610  177.5690  137.7320 C   0  0  0  0  0  2  0  0  0  0  0  0
  186.4810  177.8540  142.7560 C   0  0  0  0  0  3  0  0  0  0  0  0
  188.4930  177.6480  141.3750 C   0  0  0  0  0  0  0  0  0  0  0  0
  187.8790  177.8180  142.6330 C   0  0  0  0  0  0  0  0  0  0  0  0
  190.0870  177.9330  143.6800 C   0  0  0  0  0  0  0  0  0  0  0  0
  189.4310  177.4990  136.2930 C   0  0  0  0  0  2  0  0  0  0  0  0
  188.2590  177.5360  138.9320 C   0  0  0  0  0  0  0  0  0  0  0  0
  190.3080  177.2090  137.5090 C   0  0  0  0  0  2  0  0  0  0  0  0
  188.0650  178.1400  145.0420 C   0  0  0  0  0  3  0  0  0  0  0  0
  188.6830  177.9640  143.7940 C   0  0  0  0  0  0  0  0  0  0  0  0
  190.5620  177.3400  139.9700 C   0  0  0  0  0  2  0  0  0  0  0  0
  190.6790  177.7550  142.4280 C   0  0  0  0  0  3  0  0  0  0  0  0
  188.0240  175.4260  136.5610 C   0  0  0  0  0  2  0  0  0  0  0  0
  186.6700  174.9090  137.0110 C   0  0  0  0  0  2  0  0  0  0  0  0
  186.6810  173.4220  137.0300 C   0  0  0  0  0  0  0  0  0  0  0  0
  187.2960  172.7860  136.1350 O   0  0  0  0  0  0  0  0  0  0  0  0
  185.9840  172.7330  138.0150 O   0  0  0  0  0  1  0  0  0  0  0  0
  190.9820  178.1180  144.8660 C   0  0  0  0  0  2  0  0  0  0  0  0
  190.9390  176.8790  147.1330 C   0  0  1  0  0  3  0  0  0  0  0  0
  191.8110  175.7810  145.3390 C   0  0  0  0  0  0  0  0  0  0  0  0
  192.1430  175.0410  146.5300 C   0  0  0  0  0  3  0  0  0  0  0  0
  191.6410  175.6590  147.5500 N   0  0  0  0  0  0  0  0  0  0  0  0
  192.1840  175.4950  144.1710 O   0  0  0  0  0  0  0  0  0  0  0  0
  191.0220  176.9040  145.6730 N   0  0  0  0  0  0  0  0  0  0  0  0
  189.4870  176.8640  147.6140 C   0  0  0  0  0  2  0  0  0  0  0  0
  189.1310  178.1040  148.4210 C   0  0  0  0  0  1  0  0  0  0  0  0
  1 19  1  1  0  0  0
  1  7  1  0  0  0  0
  2  9  2  0  0  0  0
  2 18  1  0  0  0  0
  3  4  1  0  0  0  0
  5 14  1  6  0  0  0
  5 13  1  0  0  0  0
  5 17  1  0  0  0  0
  6  9  1  0  0  0  0
  7 13  1  0  0  0  0
  8  3  2  0  0  0  0
  9 10  1  0  0  0  0
 10  8  1  0  0  0  0
 10 16  2  0  0  0  0
 11 16  1  0  0  0  0
 11 24  1  0  0  0  0
 12  1  1  0  0  0  0
 12 14  1  0  0  0  0
 13  6  2  0  0  0  0
 15  4  2  0  0  0  0
 16 15  1  0  0  0  0
 17  2  1  0  0  0  0
 18 11  2  0  0  0  0
 19 20  1  0  0  0  0
 20 21  1  0  0  0  0
 21 23  1  0  0  0  0
 22 21  2  0  0  0  0
 24 30  1  0  0  0  0
 25 28  1  0  0  0  0
 25 31  1  6  0  0  0
 26 30  1  0  0  0  0
 26 27  1  0  0  0  0
 27 28  2  0  0  0  0
 29 26  2  0  0  0  0
 30 25  1  0  0  0  0
 31 32  1  0  0  0  0
M  END
>  <MODEL>
3

>  <REMARK>
 VINA RESULT:      -8.0      2.089      3.091
  Name = 
  6 active torsions:
  status: ('A' for Active; 'I' for Inactive)
    1  A    between atoms: C_1  and  C_10
    2  A    between atoms: C_2  and  C_24
    3  A    between atoms: C_6  and  C_7
    4  A    between atoms: C_10  and  C_24
    5  A    between atoms: C_16  and  C_27
    6  A    between atoms: C_27  and  N_32
                            x       y       z     vdW  Elec       q    Type
                         _______ _______ _______ _____ _____    ______ ____

>  <TORSDO>
F 6

$$$$
=
 OpenBabel11052416553D

 32 36  0  0  1  0  0  0  0  0999 V2000
  191.4620  177.7690  144.4830 C   0  0  1  0  0  3  0  0  0  0  0  0
  189.1610  177.2530  139.8640 C   0  0  0  0  0  0  0  0  0  0  0  0
  192.8450  176.0720  136.9100 C   0  0  0  0  0  3  0  0  0  0  0  0
  191.9560  175.9940  135.8360 C   0  0  0  0  0  3  0  0  0  0  0  0
  189.6390  178.2010  142.1470 C   0  0  2  0  0  3  0  0  0  0  0  0
  191.4440  177.1180  140.8350 C   0  0  0  0  0  3  0  0  0  0  0  0
  192.0550  177.8470  143.0730 C   0  0  0  0  0  2  0  0  0  0  0  0
  192.3760  176.4010  138.1830 C   0  0  0  0  0  3  0  0  0  0  0  0
  190.5310  176.9950  139.6800 C   0  0  0  0  0  0  0  0  0  0  0  0
  191.0120  176.6550  138.3990 C   0  0  0  0  0  0  0  0  0  0  0  0
  188.7390  176.8330  137.5120 C   0  0  0  0  0  0  0  0  0  0  0  0
  190.1800  178.5970  144.5830 C   0  0  0  0  0  2  0  0  0  0  0  0
  191.0280  177.6050  142.0070 C   0  0  0  0  0  0  0  0  0  0  0  0
  189.1340  178.1070  143.5850 C   0  0  0  0  0  2  0  0  0  0  0  0
  190.5970  176.2430  136.0320 C   0  0  0  0  0  3  0  0  0  0  0  0
  190.1090  176.5760  137.3070 C   0  0  0  0  0  0  0  0  0  0  0  0
  188.6170  177.5130  141.2360 C   0  0  0  0  0  2  0  0  0  0  0  0
  188.2770  177.1610  138.7880 C   0  0  0  0  0  3  0  0  0  0  0  0
  191.2210  176.3270  144.9150 C   0  0  0  0  0  2  0  0  0  0  0  0
  192.0180  176.0070  146.1670 C   0  0  0  0  0  2  0  0  0  0  0  0
  191.3590  176.6200  147.3510 C   0  0  0  0  0  0  0  0  0  0  0  0
  192.0570  177.1200  148.2720 O   0  0  0  0  0  1  0  0  0  0  0  0
  189.9750  176.6090  147.4600 O   0  0  0  0  0  0  0  0  0  0  0  0
  187.7500  176.7990  136.3880 C   0  0  0  0  0  2  0  0  0  0  0  0
  186.5650  174.5070  136.2500 C   0  0  1  0  0  3  0  0  0  0  0  0
  185.3060  176.3220  136.8040 C   0  0  0  0  0  0  0  0  0  0  0  0
  184.4180  175.2270  136.5050 C   0  0  0  0  0  3  0  0  0  0  0  0
  185.1320  174.1930  136.1980 N   0  0  0  0  0  0  0  0  0  0  0  0
  184.9510  177.4950  137.0900 O   0  0  0  0  0  0  0  0  0  0  0  0
  186.6490  175.8960  136.7020 N   0  0  0  0  0  0  0  0  0  0  0  0
  187.2970  173.5610  137.2020 C   0  0  0  0  0  2  0  0  0  0  0  0
  188.6570  173.1380  136.6670 C   0  0  0  0  0  1  0  0  0  0  0  0
  1 12  1  0  0  0  0
  1 19  1  6  0  0  0
  2 17  1  0  0  0  0
  3  8  2  0  0  0  0
  4 15  2  0  0  0  0
  4  3  1  0  0  0  0
  5 17  1  6  0  0  0
  5 14  1  0  0  0  0
  6 13  2  0  0  0  0
  7  1  1  0  0  0  0
  8 10  1  0  0  0  0
  9  2  1  0  0  0  0
  9  6  1  0  0  0  0
 10  9  2  0  0  0  0
 11 18  1  0  0  0  0
 13  5  1  0  0  0  0
 13  7  1  0  0  0  0
 14 12  1  0  0  0  0
 15 16  1  0  0  0  0
 16 11  2  0  0  0  0
 16 10  1  0  0  0  0
 18  2  2  0  0  0  0
 19 20  1  0  0  0  0
 20 21  1  0  0  0  0
 21 23  2  0  0  0  0
 21 22  1  0  0  0  0
 24 30  1  0  0  0  0
 24 11  1  0  0  0  0
 25 30  1  0  0  0  0
 25 31  1  1  0  0  0
 26 29  2  0  0  0  0
 27 26  1  0  0  0  0
 28 25  1  0  0  0  0
 28 27  2  0  0  0  0
 30 26  1  0  0  0  0
 32 31  1  0  0  0  0
M  END
>  <MODEL>
4

>  <REMARK>
 VINA RESULT:      -7.8      4.069      9.011
  Name = 
  6 active torsions:
  status: ('A' for Active; 'I' for Inactive)
    1  A    between atoms: C_1  and  C_10
    2  A    between atoms: C_2  and  C_24
    3  A    between atoms: C_6  and  C_7
    4  A    between atoms: C_10  and  C_24
    5  A    between atoms: C_16  and  C_27
    6  A    between atoms: C_27  and  N_32
                            x       y       z     vdW  Elec       q    Type
                         _______ _______ _______ _____ _____    ______ ____

>  <TORSDO>
F 6

$$$$
=
 OpenBabel11052416553D

 32 36  0  0  1  0  0  0  0  0999 V2000
  180.0640  178.9080  141.7180 C   0  0  1  0  0  3  0  0  0  0  0  0
  185.2460  178.7780  141.9050 C   0  0  0  0  0  0  0  0  0  0  0  0
  186.5090  177.9830  137.2730 C   0  0  0  0  0  3  0  0  0  0  0  0
  187.8560  178.0170  137.6360 C   0  0  0  0  0  3  0  0  0  0  0  0
  182.8670  178.3980  142.6390 C   0  0  2  0  0  3  0  0  0  0  0  0
  183.4330  178.5070  140.2270 C   0  0  0  0  0  3  0  0  0  0  0  0
  181.0690  178.2770  140.7490 C   0  0  0  0  0  2  0  0  0  0  0  0
  185.5190  178.1670  138.2390 C   0  0  0  0  0  3  0  0  0  0  0  0
  184.8700  178.5670  140.5670 C   0  0  0  0  0  0  0  0  0  0  0  0
  185.8630  178.3880  139.5830 C   0  0  0  0  0  0  0  0  0  0  0  0
  187.5900  178.6380  141.2970 C   0  0  0  0  0  0  0  0  0  0  0  0
  180.4000  178.5480  143.1650 C   0  0  0  0  0  2  0  0  0  0  0  0
  182.4900  178.5040  141.1730 C   0  0  0  0  0  0  0  0  0  0  0  0
  181.8020  179.0260  143.5360 C   0  0  0  0  0  2  0  0  0  0  0  0
  188.2170  178.2350  138.9660 C   0  0  0  0  0  3  0  0  0  0  0  0
  187.2330  178.4210  139.9520 C   0  0  0  0  0  0  0  0  0  0  0  0
  184.2080  179.0740  142.9450 C   0  0  0  0  0  2  0  0  0  0  0  0
  186.5940  178.8220  142.2590 C   0  0  0  0  0  3  0  0  0  0  0  0
  179.9750  180.4190  141.5340 C   0  0  0  0  0  2  0  0  0  0  0  0
  179.0980  180.7580  140.3410 C   0  0  0  0  0  2  0  0  0  0  0  0
  179.8380  181.6520  139.4120 C   0  0  0  0  0  0  0  0  0  0  0  0
  179.2710  182.6680  138.9310 O   0  0  0  0  0  0  0  0  0  0  0  0
  181.1430  181.3490  139.0460 O   0  0  0  0  0  1  0  0  0  0  0  0
  189.0180  178.6470  141.7470 C   0  0  0  0  0  2  0  0  0  0  0  0
  189.4820  177.4780  144.0030 C   0  0  1  0  0  3  0  0  0  0  0  0
  190.1310  176.4090  142.1010 C   0  0  0  0  0  0  0  0  0  0  0  0
  190.7310  175.7370  143.2250 C   0  0  0  0  0  3  0  0  0  0  0  0
  190.3570  176.3380  144.3080 N   0  0  0  0  0  0  0  0  0  0  0  0
  190.3220  176.1220  140.8900 O   0  0  0  0  0  0  0  0  0  0  0  0
  189.3100  177.4660  142.5510 N   0  0  0  0  0  0  0  0  0  0  0  0
  188.1420  177.3470  144.7290 C   0  0  0  0  0  2  0  0  0  0  0  0
  188.2020  177.8760  146.1550 C   0  0  0  0  0  1  0  0  0  0  0  0
  1 19  1  1  0  0  0
  1 12  1  0  0  0  0
  2 18  1  0  0  0  0
  2 17  1  0  0  0  0
  3  4  2  0  0  0  0
  3  8  1  0  0  0  0
  4 15  1  0  0  0  0
  5 17  1  6  0  0  0
  5 14  1  0  0  0  0
  6  9  1  0  0  0  0
  6 13  2  0  0  0  0
  7 13  1  0  0  0  0
  7  1  1  0  0  0  0
  8 10  2  0  0  0  0
  9  2  2  0  0  0  0
 10 16  1  0  0  0  0
 10  9  1  0  0  0  0
 11 24  1  0  0  0  0
 11 18  2  0  0  0  0
 12 14  1  0  0  0  0
 13  5  1  0  0  0  0
 15 16  2  0  0  0  0
 16 11  1  0  0  0  0
 20 19  1  0  0  0  0
 21 20  1  0  0  0  0
 22 21  2  0  0  0  0
 23 21  1  0  0  0  0
 24 30  1  0  0  0  0
 25 28  1  0  0  0  0
 25 31  1  1  0  0  0
 26 30  1  0  0  0  0
 26 27  1  0  0  0  0
 27 28  2  0  0  0  0
 29 26  2  0  0  0  0
 30 25  1  0  0  0  0
 31 32  1  0  0  0  0
M  END
>  <MODEL>
5

>  <REMARK>
 VINA RESULT:      -7.7      4.104      7.592
  Name = 
  6 active torsions:
  status: ('A' for Active; 'I' for Inactive)
    1  A    between atoms: C_1  and  C_10
    2  A    between atoms: C_2  and  C_24
    3  A    between atoms: C_6  and  C_7
    4  A    between atoms: C_10  and  C_24
    5  A    between atoms: C_16  and  C_27
    6  A    between atoms: C_27  and  N_32
                            x       y       z     vdW  Elec       q    Type
                         _______ _______ _______ _____ _____    ______ ____

>  <TORSDO>
F 6

$$$$
=
 OpenBabel11052416553D

 32 36  0  0  1  0  0  0  0  0999 V2000
  189.6140  176.8680  144.2870 C   0  0  1  0  0  3  0  0  0  0  0  0
  185.8820  178.5390  141.0970 C   0  0  0  0  0  0  0  0  0  0  0  0
  181.9570  178.7150  143.9690 C   0  0  0  0  0  3  0  0  0  0  0  0
  181.1950  179.1810  142.8960 C   0  0  0  0  0  3  0  0  0  0  0  0
  187.9290  177.2780  141.8470 C   0  0  2  0  0  3  0  0  0  0  0  0
  186.1310  177.8250  143.4640 C   0  0  0  0  0  3  0  0  0  0  0  0
  188.0920  176.7310  144.3950 C   0  0  0  0  0  2  0  0  0  0  0  0
  183.3150  178.4410  143.7960 C   0  0  0  0  0  3  0  0  0  0  0  0
  185.2970  178.3480  142.3610 C   0  0  0  0  0  0  0  0  0  0  0  0
  183.9290  178.6300  142.5470 C   0  0  0  0  0  0  0  0  0  0  0  0
  183.7580  179.2910  140.1980 C   0  0  0  0  0  0  0  0  0  0  0  0
  190.0980  176.5010  142.8840 C   0  0  0  0  0  2  0  0  0  0  0  0
  187.3770  177.3950  143.2560 C   0  0  0  0  0  0  0  0  0  0  0  0
  189.4510  177.3980  141.8310 C   0  0  0  0  0  2  0  0  0  0  0  0
  181.7890  179.3740  141.6480 C   0  0  0  0  0  3  0  0  0  0  0  0
  183.1530  179.1020  141.4560 C   0  0  0  0  0  0  0  0  0  0  0  0
  187.3560  178.3450  140.9070 C   0  0  0  0  0  2  0  0  0  0  0  0
  185.1170  179.0160  140.0320 C   0  0  0  0  0  3  0  0  0  0  0  0
  190.0850  178.2620  144.6850 C   0  0  0  0  0  2  0  0  0  0  0  0
  191.3840  178.1810  145.4680 C   0  0  0  0  0  2  0  0  0  0  0  0
  191.3070  177.0690  146.4530 C   0  0  0  0  0  0  0  0  0  0  0  0
  192.0550  176.0650  146.3290 O   0  0  0  0  0  0  0  0  0  0  0  0
  190.3850  177.1220  147.4900 O   0  0  0  0  0  1  0  0  0  0  0  0
  182.9790  179.7520  139.0050 C   0  0  0  0  0  2  0  0  0  0  0  0
  182.7130  177.6380  137.5450 C   0  0  1  0  0  3  0  0  0  0  0  0
  180.8280  178.7890  138.1000 C   0  0  0  0  0  0  0  0  0  0  0  0
  180.4930  177.8400  137.0700 C   0  0  0  0  0  3  0  0  0  0  0  0
  181.5610  177.1790  136.7590 N   0  0  0  0  0  0  0  0  0  0  0  0
  180.0410  179.6340  138.6010 O   0  0  0  0  0  0  0  0  0  0  0  0
  182.1900  178.6580  138.4540 N   0  0  0  0  0  0  0  0  0  0  0  0
  183.3480  176.4760  138.3110 C   0  0  0  0  0  2  0  0  0  0  0  0
  182.4830  176.0030  139.4690 C   0  0  0  0  0  1  0  0  0  0  0  0
  1  7  1  0  0  0  0
  1 19  1  6  0  0  0
  2  9  1  0  0  0  0
  4  3  1  0  0  0  0
  5 17  1  6  0  0  0
  5 13  1  0  0  0  0
  8  3  2  0  0  0  0
  9 10  2  0  0  0  0
  9  6  1  0  0  0  0
 10  8  1  0  0  0  0
 11 16  2  0  0  0  0
 12  1  1  0  0  0  0
 13  6  2  0  0  0  0
 13  7  1  0  0  0  0
 14  5  1  0  0  0  0
 14 12  1  0  0  0  0
 15  4  2  0  0  0  0
 16 15  1  0  0  0  0
 16 10  1  0  0  0  0
 17  2  1  0  0  0  0
 18 11  1  0  0  0  0
 18  2  2  0  0  0  0
 19 20  1  0  0  0  0
 20 21  1  0  0  0  0
 21 23  1  0  0  0  0
 22 21  2  0  0  0  0
 24 11  1  0  0  0  0
 25 31  1  1  0  0  0
 25 30  1  0  0  0  0
 26 30  1  0  0  0  0
 26 29  2  0  0  0  0
 27 26  1  0  0  0  0
 28 27  2  0  0  0  0
 28 25  1  0  0  0  0
 30 24  1  0  0  0  0
 31 32  1  0  0  0  0
M  END
>  <MODEL>
6

>  <REMARK>
 VINA RESULT:      -7.6      4.650      8.091
  Name = 
  6 active torsions:
  status: ('A' for Active; 'I' for Inactive)
    1  A    between atoms: C_1  and  C_10
    2  A    between atoms: C_2  and  C_24
    3  A    between atoms: C_6  and  C_7
    4  A    between atoms: C_10  and  C_24
    5  A    between atoms: C_16  and  C_27
    6  A    between atoms: C_27  and  N_32
                            x       y       z     vdW  Elec       q    Type
                         _______ _______ _______ _____ _____    ______ ____

>  <TORSDO>
F 6

$$$$
=
 OpenBabel11052416553D

 32 36  0  0  1  0  0  0  0  0999 V2000
  191.3240  177.8090  144.4150 C   0  0  1  0  0  3  0  0  0  0  0  0
  189.3540  177.2360  139.6520 C   0  0  0  0  0  0  0  0  0  0  0  0
  193.2430  176.0610  136.9720 C   0  0  0  0  0  3  0  0  0  0  0  0
  192.4320  175.9660  135.8400 C   0  0  0  0  0  3  0  0  0  0  0  0
  189.6650  178.2070  141.9550 C   0  0  2  0  0  3  0  0  0  0  0  0
  191.5650  177.1280  140.7810 C   0  0  0  0  0  3  0  0  0  0  0  0
  192.0140  177.8800  143.0490 C   0  0  0  0  0  2  0  0  0  0  0  0
  192.6850  176.3960  138.2060 C   0  0  0  0  0  3  0  0  0  0  0  0
  190.7360  176.9880  139.5660 C   0  0  0  0  0  0  0  0  0  0  0  0
  191.3070  176.6410  138.3250 C   0  0  0  0  0  0  0  0  0  0  0  0
  189.1000  176.7940  137.2800 C   0  0  0  0  0  0  0  0  0  0  0  0
  190.0330  178.6270  144.4190 C   0  0  0  0  0  2  0  0  0  0  0  0
  191.0650  177.6210  141.9170 C   0  0  0  0  0  0  0  0  0  0  0  0
  189.0620  178.1200  143.3550 C   0  0  0  0  0  2  0  0  0  0  0  0
  191.0610  176.2070  135.9390 C   0  0  0  0  0  3  0  0  0  0  0  0
  190.4830  176.5460  137.1730 C   0  0  0  0  0  0  0  0  0  0  0  0
  188.7140  177.5030  140.9810 C   0  0  0  0  0  2  0  0  0  0  0  0
  188.5480  177.1280  138.5180 C   0  0  0  0  0  3  0  0  0  0  0  0
  191.0650  176.3680  144.8420 C   0  0  0  0  0  2  0  0  0  0  0  0
  191.8980  176.0180  146.0620 C   0  0  0  0  0  2  0  0  0  0  0  0
  191.3050  176.6480  147.2720 C   0  0  0  0  0  0  0  0  0  0  0  0
  192.0540  177.0950  148.1800 O   0  0  0  0  0  1  0  0  0  0  0  0
  189.9260  176.7130  147.4180 O   0  0  0  0  0  0  0  0  0  0  0  0
  188.1920  176.7420  136.0910 C   0  0  0  0  0  2  0  0  0  0  0  0
  186.2520  175.4030  137.1490 C   0  0  1  0  0  3  0  0  0  0  0  0
  187.7550  174.2650  135.8720 C   0  0  0  0  0  0  0  0  0  0  0  0
  186.9480  173.3080  136.5830 C   0  0  0  0  0  3  0  0  0  0  0  0
  186.0880  173.9520  137.3040 N   0  0  0  0  0  0  0  0  0  0  0  0
  188.7260  173.9890  135.1180 O   0  0  0  0  0  0  0  0  0  0  0  0
  187.3180  175.5770  136.1630 N   0  0  0  0  0  0  0  0  0  0  0  0
  184.9480  176.0530  136.6880 C   0  0  0  0  0  2  0  0  0  0  0  0
  184.6520  177.3490  137.4290 C   0  0  0  0  0  1  0  0  0  0  0  0
  1 12  1  0  0  0  0
  1 19  1  6  0  0  0
  2 17  1  0  0  0  0
  3  8  2  0  0  0  0
  4 15  2  0  0  0  0
  4  3  1  0  0  0  0
  5 17  1  6  0  0  0
  5 14  1  0  0  0  0
  6 13  2  0  0  0  0
  7  1  1  0  0  0  0
  8 10  1  0  0  0  0
  9  2  1  0  0  0  0
  9  6  1  0  0  0  0
 10  9  2  0  0  0  0
 11 18  1  0  0  0  0
 13  5  1  0  0  0  0
 13  7  1  0  0  0  0
 14 12  1  0  0  0  0
 15 16  1  0  0  0  0
 16 11  2  0  0  0  0
 16 10  1  0  0  0  0
 18  2  2  0  0  0  0
 19 20  1  0  0  0  0
 20 21  1  0  0  0  0
 21 23  2  0  0  0  0
 21 22  1  0  0  0  0
 24 30  1  0  0  0  0
 24 11  1  0  0  0  0
 25 31  1  6  0  0  0
 25 28  1  0  0  0  0
 26 30  1  0  0  0  0
 26 27  1  0  0  0  0
 27 28  2  0  0  0  0
 29 26  2  0  0  0  0
 30 25  1  0  0  0  0
 31 32  1  0  0  0  0
M  END
>  <MODEL>
7

>  <REMARK>
 VINA RESULT:      -7.4      3.806      9.227
  Name = 
  6 active torsions:
  status: ('A' for Active; 'I' for Inactive)
    1  A    between atoms: C_1  and  C_10
    2  A    between atoms: C_2  and  C_24
    3  A    between atoms: C_6  and  C_7
    4  A    between atoms: C_10  and  C_24
    5  A    between atoms: C_16  and  C_27
    6  A    between atoms: C_27  and  N_32
                            x       y       z     vdW  Elec       q    Type
                         _______ _______ _______ _____ _____    ______ ____

>  <TORSDO>
F 6

$$$$
=
 OpenBabel11052416553D

 32 36  0  0  1  0  0  0  0  0999 V2000
  192.6410  175.2590  136.3760 C   0  0  1  0  0  3  0  0  0  0  0  0
  189.0460  177.6920  139.2130 C   0  0  0  0  0  0  0  0  0  0  0  0
  190.0560  176.2630  143.7550 C   0  0  0  0  0  3  0  0  0  0  0  0
  189.0040  177.0450  144.2330 C   0  0  0  0  0  3  0  0  0  0  0  0
  190.0430  176.4560  137.2580 C   0  0  2  0  0  3  0  0  0  0  0  0
  190.9240  176.1000  139.5490 C   0  0  0  0  0  3  0  0  0  0  0  0
  192.1000  174.9320  137.7710 C   0  0  0  0  0  2  0  0  0  0  0  0
  190.3360  176.2280  142.3880 C   0  0  0  0  0  3  0  0  0  0  0  0
  189.8380  176.9400  140.0980 C   0  0  0  0  0  0  0  0  0  0  0  0
  189.5680  176.9750  141.4810 C   0  0  0  0  0  0  0  0  0  0  0  0
  187.7170  178.5210  141.0660 C   0  0  0  0  0  0  0  0  0  0  0  0
  191.4990  175.5530  135.4020 C   0  0  0  0  0  2  0  0  0  0  0  0
  191.0780  175.9260  138.2340 C   0  0  0  0  0  0  0  0  0  0  0  0
  190.6570  176.7310  135.8880 C   0  0  0  0  0  2  0  0  0  0  0  0
  188.2290  177.7950  143.3460 C   0  0  0  0  0  3  0  0  0  0  0  0
  188.4970  177.7700  141.9680 C   0  0  0  0  0  0  0  0  0  0  0  0
  189.3840  177.7480  137.7540 C   0  0  0  0  0  2  0  0  0  0  0  0
  188.0030  178.4810  139.7000 C   0  0  0  0  0  3  0  0  0  0  0  0
  193.6420  176.4080  136.4130 C   0  0  0  0  0  2  0  0  0  0  0  0
  194.4460  176.4550  135.1250 C   0  0  0  0  0  2  0  0  0  0  0  0
  195.7020  177.2190  135.3460 C   0  0  0  0  0  0  0  0  0  0  0  0
  195.7000  178.4750  135.2550 O   0  0  0  0  0  0  0  0  0  0  0  0
  196.8870  176.5470  135.6160 O   0  0  0  0  0  1  0  0  0  0  0  0
  186.5540  179.3470  141.5220 C   0  0  0  0  0  2  0  0  0  0  0  0
  184.5030  179.1120  139.9680 C   0  0  1  0  0  3  0  0  0  0  0  0
  184.3500  178.2420  142.0670 C   0  0  0  0  0  0  0  0  0  0  0  0
  183.0320  178.2610  141.4860 C   0  0  0  0  0  3  0  0  0  0  0  0
  183.1170  178.7470  140.2910 N   0  0  0  0  0  0  0  0  0  0  0  0
  184.6290  177.8800  143.2400 O   0  0  0  0  0  0  0  0  0  0  0  0
  185.2960  178.7200  141.1330 N   0  0  0  0  0  0  0  0  0  0  0  0
  184.9740  178.3990  138.7000 C   0  0  0  0  0  2  0  0  0  0  0  0
  183.8170  177.8440  137.8840 C   0  0  0  0  0  1  0  0  0  0  0  0
  1 19  1  1  0  0  0
  1  7  1  0  0  0  0
  2 18  2  0  0  0  0
  2  9  1  0  0  0  0
  3  4  1  0  0  0  0
  5 14  1  6  0  0  0
  5 17  1  0  0  0  0
  5 13  1  0  0  0  0
  6  9  1  0  0  0  0
  7 13  1  0  0  0  0
  8  3  2  0  0  0  0
  9 10  2  0  0  0  0
 10 16  1  0  0  0  0
 10  8  1  0  0  0  0
 11 24  1  0  0  0  0
 11 16  2  0  0  0  0
 12 14  1  0  0  0  0
 12  1  1  0  0  0  0
 13  6  2  0  0  0  0
 15  4  2  0  0  0  0
 16 15  1  0  0  0  0
 17  2  1  0  0  0  0
 18 11  1  0  0  0  0
 20 21  1  0  0  0  0
 20 19  1  0  0  0  0
 21 23  1  0  0  0  0
 22 21  2  0  0  0  0
 25 31  1  6  0  0  0
 25 28  1  0  0  0  0
 25 30  1  0  0  0  0
 26 29  2  0  0  0  0
 27 26  1  0  0  0  0
 28 27  2  0  0  0  0
 30 24  1  0  0  0  0
 30 26  1  0  0  0  0
 32 31  1  0  0  0  0
M  END
>  <MODEL>
8

>  <REMARK>
 VINA RESULT:      -7.2      3.498      6.126
  Name = 
  6 active torsions:
  status: ('A' for Active; 'I' for Inactive)
    1  A    between atoms: C_1  and  C_10
    2  A    between atoms: C_2  and  C_24
    3  A    between atoms: C_6  and  C_7
    4  A    between atoms: C_10  and  C_24
    5  A    between atoms: C_16  and  C_27
    6  A    between atoms: C_27  and  N_32
                            x       y       z     vdW  Elec       q    Type
                         _______ _______ _______ _____ _____    ______ ____

>  <TORSDO>
F 6

$$$$
=
 OpenBabel11052416553D

 32 36  0  0  1  0  0  0  0  0999 V2000
  185.0240  179.3870  143.8640 C   0  0  1  0  0  3  0  0  0  0  0  0
  183.5850  177.4930  139.2560 C   0  0  0  0  0  0  0  0  0  0  0  0
  187.4980  178.2600  136.4650 C   0  0  0  0  0  3  0  0  0  0  0  0
  186.8410  177.6690  135.3840 C   0  0  0  0  0  3  0  0  0  0  0  0
  183.3730  178.6730  141.4710 C   0  0  2  0  0  3  0  0  0  0  0  0
  185.5460  178.6280  140.2760 C   0  0  0  0  0  3  0  0  0  0  0  0
  185.5650  179.6880  142.4630 C   0  0  0  0  0  2  0  0  0  0  0  0
  186.8580  178.3620  137.7020 C   0  0  0  0  0  3  0  0  0  0  0  0
  184.8960  177.9820  139.1160 C   0  0  0  0  0  0  0  0  0  0  0  0
  185.5520  177.8750  137.8740 C   0  0  0  0  0  0  0  0  0  0  0  0
  183.5720  176.7880  136.9340 C   0  0  0  0  0  0  0  0  0  0  0  0
  183.4950  179.4250  143.8800 C   0  0  0  0  0  2  0  0  0  0  0  0
  184.8750  178.8870  141.4000 C   0  0  0  0  0  0  0  0  0  0  0  0
  182.9140  178.4060  142.9020 C   0  0  0  0  0  2  0  0  0  0  0  0
  185.5420  177.1800  135.5370 C   0  0  0  0  0  3  0  0  0  0  0  0
  184.8840  177.2760  136.7740 C   0  0  0  0  0  0  0  0  0  0  0  0
  182.9110  177.5040  140.5950 C   0  0  0  0  0  2  0  0  0  0  0  0
  182.9390  176.8940  138.1740 C   0  0  0  0  0  3  0  0  0  0  0  0
  185.5470  178.0580  144.3980 C   0  0  0  0  0  2  0  0  0  0  0  0
  186.4420  178.2860  145.6030 C   0  0  0  0  0  2  0  0  0  0  0  0
  185.6360  178.8150  146.7350 C   0  0  0  0  0  0  0  0  0  0  0  0
  184.5550  178.2540  147.0560 O   0  0  0  0  0  0  0  0  0  0  0  0
  186.0550  179.9500  147.4170 O   0  0  0  0  0  1  0  0  0  0  0  0
  182.8080  176.1800  135.7990 C   0  0  0  0  0  2  0  0  0  0  0  0
  183.4980  173.7380  135.3150 C   0  0  1  0  0  3  0  0  0  0  0  0
  181.4270  174.1030  136.1870 C   0  0  0  0  0  0  0  0  0  0  0  0
  181.4940  172.7370  135.7340 C   0  0  0  0  0  3  0  0  0  0  0  0
  182.6730  172.5250  135.2450 N   0  0  0  0  0  0  0  0  0  0  0  0
  180.4090  174.6650  136.6700 O   0  0  0  0  0  0  0  0  0  0  0  0
  182.6710  174.7410  135.9860 N   0  0  0  0  0  0  0  0  0  0  0  0
  184.7940  173.4730  136.0820 C   0  0  0  0  0  2  0  0  0  0  0  0
  184.5660  173.3590  137.5820 C   0  0  0  0  0  1  0  0  0  0  0  0
  1 12  1  0  0  0  0
  1 19  1  6  0  0  0
  2 17  1  0  0  0  0
  3  8  2  0  0  0  0
  4 15  2  0  0  0  0
  4  3  1  0  0  0  0
  5 17  1  6  0  0  0
  5 14  1  0  0  0  0
  6 13  2  0  0  0  0
  7  1  1  0  0  0  0
  8 10  1  0  0  0  0
  9  2  1  0  0  0  0
  9  6  1  0  0  0  0
 10  9  2  0  0  0  0
 11 18  1  0  0  0  0
 13  5  1  0  0  0  0
 13  7  1  0  0  0  0
 14 12  1  0  0  0  0
 15 16  1  0  0  0  0
 16 11  2  0  0  0  0
 16 10  1  0  0  0  0
 18  2  2  0  0  0  0
 19 20  1  0  0  0  0
 20 21  1  0  0  0  0
 21 22  2  0  0  0  0
 21 23  1  0  0  0  0
 24 30  1  0  0  0  0
 24 11  1  0  0  0  0
 25 30  1  0  0  0  0
 25 31  1  1  0  0  0
 26 29  2  0  0  0  0
 27 26  1  0  0  0  0
 28 25  1  0  0  0  0
 28 27  2  0  0  0  0
 30 26  1  0  0  0  0
 31 32  1  0  0  0  0
M  END
>  <MODEL>
9

>  <REMARK>
 VINA RESULT:      -7.0      5.256     10.029
  Name = 
  6 active torsions:
  status: ('A' for Active; 'I' for Inactive)
    1  A    between atoms: C_1  and  C_10
    2  A    between atoms: C_2  and  C_24
    3  A    between atoms: C_6  and  C_7
    4  A    between atoms: C_10  and  C_24
    5  A    between atoms: C_16  and  C_27
    6  A    between atoms: C_27  and  N_32
                            x       y       z     vdW  Elec       q    Type
                         _______ _______ _______ _____ _____    ______ ____

>  <TORSDO>
F 6

$$$$
