=
 OpenBabel11052414373D

 32 37  0  0  0  0  0  0  0  0999 V2000
  186.6310  178.2330  143.4430 C   0  0  0  0  0  0  0  0  0  0  0  0
  186.4010  178.5950  141.1670 N   0  0  0  0  0  0  0  0  0  0  0  0
  185.9110  177.9790  144.7520 C   0  0  0  0  0  2  0  0  0  0  0  0
  185.8980  178.5660  142.3860 C   0  0  0  0  0  0  0  0  0  0  0  0
  185.4080  178.7160  140.2800 C   0  0  0  0  0  0  0  0  0  0  0  0
  189.6710  177.7320  137.7270 C   0  0  0  0  0  3  0  0  0  0  0  0
  187.7140  178.2320  140.8810 N   0  0  0  0  0  0  0  0  0  0  0  0
  187.3570  178.2190  137.1700 C   0  0  0  0  0  3  0  0  0  0  0  0
  187.0480  178.3200  138.5290 C   0  0  0  0  0  0  0  0  0  0  0  0
  184.5410  178.7440  142.3480 C   0  0  0  0  0  0  0  0  0  0  0  0
  185.6470  178.5930  138.9680 C   0  0  0  0  0  3  0  0  0  0  0  0
  183.6880  178.5470  143.5630 C   0  0  0  0  0  2  0  0  0  0  0  0
  188.5510  177.8870  141.9650 N   0  0  0  0  0  0  0  0  0  0  0  0
  188.0790  177.8980  143.1950 C   0  0  0  0  0  0  0  0  0  0  0  0
  188.0690  178.1190  139.4960 C   0  0  0  0  0  0  0  0  0  0  0  0
  184.2050  178.8360  140.9900 C   0  0  0  0  0  0  0  0  0  0  0  0
  184.5570  178.7340  144.8280 C   0  0  0  0  0  2  0  0  0  0  0  0
  188.6670  177.9290  136.7710 C   0  0  0  0  0  3  0  0  0  0  0  0
  189.3740  177.8250  139.0910 C   0  0  0  0  0  3  0  0  0  0  0  0
  190.9520  176.4240  145.1980 C   0  0  0  0  0  0  0  0  0  0  0  0
  192.0770  175.6870  145.0240 F   0  0  0  0  0  0  0  0  0  0  0  0
  188.9690  177.5160  144.3050 C   0  0  0  0  0  0  0  0  0  0  0  0
  190.6060  176.8470  146.4830 C   0  0  0  0  0  3  0  0  0  0  0  0
  188.6280  177.9210  145.6020 C   0  0  0  0  0  3  0  0  0  0  0  0
  190.1360  176.7470  144.1030 C   0  0  0  0  0  0  0  0  0  0  0  0
  190.5600  176.1130  142.5140 Cl  0  0  0  0  0  0  0  0  0  0  0  0
  189.4400  177.5880  146.6880 C   0  0  0  0  0  0  0  0  0  0  0  0
  187.5910  178.3260  148.1420 C   0  0  0  0  0  1  0  0  0  0  0  0
  189.0790  178.0460  148.0590 C   0  0  0  0  0  2  0  0  0  0  0  0
  182.8740  178.8730  140.4680 N   0  0  0  0  0  2  0  0  0  0  0  0
  181.9820  177.7270  140.4890 C   0  0  0  0  0  2  0  0  0  0  0  0
  182.6090  176.5860  139.7180 C   0  0  0  0  0  1  0  0  0  0  0  0
  1  3  1  0  0  0  0
  2  4  1  0  0  0  0
  3 17  1  0  0  0  0
  4  1  2  0  0  0  0
  5 16  1  0  0  0  0
  5  2  1  0  0  0  0
  6 19  1  0  0  0  0
  7  2  1  0  0  0  0
  7 13  1  0  0  0  0
  8  9  2  0  0  0  0
  9 11  1  0  0  0  0
  9 15  1  0  0  0  0
 10  4  1  0  0  0  0
 10 12  1  0  0  0  0
 11  5  2  0  0  0  0
 12 17  1  0  0  0  0
 13 14  2  0  0  0  0
 14  1  1  0  0  0  0
 14 22  1  0  0  0  0
 15  7  1  0  0  0  0
 16 10  2  0  0  0  0
 18  8  1  0  0  0  0
 18  6  2  0  0  0  0
 19 15  2  0  0  0  0
 20 23  1  0  0  0  0
 21 20  1  0  0  0  0
 22 24  2  0  0  0  0
 23 27  2  0  0  0  0
 24 27  1  0  0  0  0
 25 22  1  0  0  0  0
 25 20  2  0  0  0  0
 26 25  1  0  0  0  0
 27 29  1  0  0  0  0
 29 28  1  0  0  0  0
 30 31  1  0  0  0  0
 30 16  1  0  0  0  0
 32 31  1  0  0  0  0
M  END
>  <MODEL>
1

>  <REMARK>
 VINA RESULT:     -10.7      0.000      0.000
  Name = 
  4 active torsions:
  status: ('A' for Active; 'I' for Inactive)
    1  A    between atoms: C_13  and  N_18
    2  A    between atoms: C_15  and  C_26
    3  A    between atoms: C_16  and  C_27
    4  A    between atoms: N_18  and  C_29
                            x       y       z     vdW  Elec       q    Type
                         _______ _______ _______ _____ _____    ______ ____

>  <TORSDO>
F 4

$$$$
=
 OpenBabel11052414373D

 32 37  0  0  0  0  0  0  0  0999 V2000
  189.4300  177.4280  142.1580 C   0  0  0  0  0  0  0  0  0  0  0  0
  187.8610  177.9640  143.7750 N   0  0  0  0  0  0  0  0  0  0  0  0
  190.7420  176.7290  141.8660 C   0  0  0  0  0  2  0  0  0  0  0  0
  189.0710  177.5700  143.4290 C   0  0  0  0  0  0  0  0  0  0  0  0
  187.6940  177.7850  145.0890 C   0  0  0  0  0  0  0  0  0  0  0  0
  183.1960  178.9840  143.0940 C   0  0  0  0  0  3  0  0  0  0  0  0
  186.8520  178.2120  142.8480 N   0  0  0  0  0  0  0  0  0  0  0  0
  184.0780  178.5510  145.3150 C   0  0  0  0  0  3  0  0  0  0  0  0
  185.3460  178.3340  144.7720 C   0  0  0  0  0  0  0  0  0  0  0  0
  189.7820  177.1800  144.5330 C   0  0  0  0  0  0  0  0  0  0  0  0
  186.4900  177.9480  145.6520 C   0  0  0  0  0  3  0  0  0  0  0  0
  191.1050  176.4900  144.4140 C   0  0  0  0  0  2  0  0  0  0  0  0
  187.1770  178.0990  141.4780 N   0  0  0  0  0  0  0  0  0  0  0  0
  188.3930  177.7520  141.1130 C   0  0  0  0  0  0  0  0  0  0  0  0
  185.5360  178.4410  143.3680 C   0  0  0  0  0  0  0  0  0  0  0  0
  188.9020  177.3070  145.6180 C   0  0  0  0  0  0  0  0  0  0  0  0
  191.7400  176.8460  143.0490 C   0  0  0  0  0  2  0  0  0  0  0  0
  183.0060  178.8780  144.4770 C   0  0  0  0  0  3  0  0  0  0  0  0
  184.4600  178.7650  142.5360 C   0  0  0  0  0  3  0  0  0  0  0  0
  188.1120  177.8220  137.3240 C   0  0  0  0  0  0  0  0  0  0  0  0
  187.2260  178.1360  136.3470 F   0  0  0  0  0  0  0  0  0  0  0  0
  188.6990  177.6230  139.6770 C   0  0  0  0  0  0  0  0  0  0  0  0
  189.3790  177.3520  136.9690 C   0  0  0  0  0  3  0  0  0  0  0  0
  189.9610  177.1400  139.3050 C   0  0  0  0  0  3  0  0  0  0  0  0
  187.7600  177.9530  138.6760 C   0  0  0  0  0  0  0  0  0  0  0  0
  186.1200  178.4600  139.0790 Cl  0  0  0  0  0  0  0  0  0  0  0  0
  190.3010  177.0030  137.9580 C   0  0  0  0  0  0  0  0  0  0  0  0
  192.6340  176.7420  138.7110 C   0  0  0  0  0  1  0  0  0  0  0  0
  191.6550  176.5120  137.5760 C   0  0  0  0  0  2  0  0  0  0  0  0
  189.1650  176.8650  146.9520 N   0  0  0  0  0  2  0  0  0  0  0  0
  189.4850  177.7720  148.0400 C   0  0  0  0  0  2  0  0  0  0  0  0
  188.2260  178.0980  148.8120 C   0  0  0  0  0  1  0  0  0  0  0  0
  1  4  2  0  0  0  0
  2  5  1  0  0  0  0
  3  1  1  0  0  0  0
  3 17  1  0  0  0  0
  4  2  1  0  0  0  0
  4 10  1  0  0  0  0
  5 16  1  0  0  0  0
  5 11  2  0  0  0  0
  6 18  1  0  0  0  0
  7 15  1  0  0  0  0
  7  2  1  0  0  0  0
  9  8  1  0  0  0  0
  9 11  1  0  0  0  0
 10 16  2  0  0  0  0
 12 10  1  0  0  0  0
 13  7  1  0  0  0  0
 14 13  2  0  0  0  0
 14  1  1  0  0  0  0
 15  9  2  0  0  0  0
 16 30  1  0  0  0  0
 17 12  1  0  0  0  0
 18  8  2  0  0  0  0
 19  6  2  0  0  0  0
 19 15  1  0  0  0  0
 20 25  1  0  0  0  0
 21 20  1  0  0  0  0
 22 14  1  0  0  0  0
 23 20  2  0  0  0  0
 23 27  1  0  0  0  0
 24 22  1  0  0  0  0
 25 26  1  0  0  0  0
 25 22  2  0  0  0  0
 27 24  2  0  0  0  0
 29 27  1  0  0  0  0
 29 28  1  0  0  0  0
 30 31  1  0  0  0  0
 31 32  1  0  0  0  0
M  END
>  <MODEL>
2

>  <REMARK>
 VINA RESULT:     -10.5      2.643      7.346
  Name = 
  4 active torsions:
  status: ('A' for Active; 'I' for Inactive)
    1  A    between atoms: C_13  and  N_18
    2  A    between atoms: C_15  and  C_26
    3  A    between atoms: C_16  and  C_27
    4  A    between atoms: N_18  and  C_29
                            x       y       z     vdW  Elec       q    Type
                         _______ _______ _______ _____ _____    ______ ____

>  <TORSDO>
F 4

$$$$
=
 OpenBabel11052414373D

 32 37  0  0  0  0  0  0  0  0999 V2000
  185.4400  178.2340  144.1400 C   0  0  0  0  0  0  0  0  0  0  0  0
  187.6440  177.6450  143.7400 N   0  0  0  0  0  0  0  0  0  0  0  0
  184.4490  178.7730  145.1510 C   0  0  0  0  0  2  0  0  0  0  0  0
  186.6550  177.9140  144.5700 C   0  0  0  0  0  0  0  0  0  0  0  0
  188.7940  177.6010  144.4190 C   0  0  0  0  0  0  0  0  0  0  0  0
  189.8940  177.4690  139.4770 C   0  0  0  0  0  3  0  0  0  0  0  0
  187.5130  177.7250  142.3570 N   0  0  0  0  0  0  0  0  0  0  0  0
  191.1350  177.3490  141.5610 C   0  0  0  0  0  3  0  0  0  0  0  0
  189.9450  177.4730  142.2810 C   0  0  0  0  0  0  0  0  0  0  0  0
  187.1170  177.9840  145.8580 C   0  0  0  0  0  0  0  0  0  0  0  0
  189.9640  177.5170  143.7730 C   0  0  0  0  0  3  0  0  0  0  0  0
  186.2540  178.4810  146.9770 C   0  0  0  0  0  2  0  0  0  0  0  0
  186.2390  178.0400  141.8350 N   0  0  0  0  0  0  0  0  0  0  0  0
  185.2280  178.2650  142.6480 C   0  0  0  0  0  0  0  0  0  0  0  0
  188.7140  177.6010  141.5830 C   0  0  0  0  0  0  0  0  0  0  0  0
  188.5030  177.7900  145.7780 C   0  0  0  0  0  0  0  0  0  0  0  0
  184.7680  178.2930  146.5920 C   0  0  0  0  0  2  0  0  0  0  0  0
  191.1080  177.3440  140.1620 C   0  0  0  0  0  3  0  0  0  0  0  0
  188.6940  177.5990  140.1850 C   0  0  0  0  0  3  0  0  0  0  0  0
  182.4380  179.0790  140.2000 C   0  0  0  0  0  0  0  0  0  0  0  0
  182.2250  179.2250  138.8680 F   0  0  0  0  0  0  0  0  0  0  0  0
  183.9140  178.6110  142.0770 C   0  0  0  0  0  0  0  0  0  0  0  0
  181.3720  179.2610  141.0840 C   0  0  0  0  0  3  0  0  0  0  0  0
  182.8390  178.8100  142.9520 C   0  0  0  0  0  3  0  0  0  0  0  0
  183.7150  178.7610  140.6870 C   0  0  0  0  0  0  0  0  0  0  0  0
  185.0500  178.6320  139.5430 Cl  0  0  0  0  0  0  0  0  0  0  0  0
  181.5730  179.1360  142.4610 C   0  0  0  0  0  0  0  0  0  0  0  0
  180.0390  177.9910  144.0150 C   0  0  0  0  0  1  0  0  0  0  0  0
  180.4320  179.3210  143.4000 C   0  0  0  0  0  2  0  0  0  0  0  0
  189.4220  177.9340  146.8650 N   0  0  0  0  0  2  0  0  0  0  0  0
  190.0430  176.8040  147.5320 C   0  0  0  0  0  2  0  0  0  0  0  0
  191.4370  176.5950  146.9810 C   0  0  0  0  0  1  0  0  0  0  0  0
  1  4  2  0  0  0  0
  1  3  1  0  0  0  0
  2  5  1  0  0  0  0
  2  4  1  0  0  0  0
  3 17  1  0  0  0  0
  4 10  1  0  0  0  0
  5 16  1  0  0  0  0
  6 18  2  0  0  0  0
  6 19  1  0  0  0  0
  7  2  1  0  0  0  0
  8  9  2  0  0  0  0
  9 11  1  0  0  0  0
 10 12  1  0  0  0  0
 11  5  2  0  0  0  0
 13  7  1  0  0  0  0
 13 14  2  0  0  0  0
 14  1  1  0  0  0  0
 15  9  1  0  0  0  0
 15  7  1  0  0  0  0
 16 10  2  0  0  0  0
 16 30  1  0  0  0  0
 17 12  1  0  0  0  0
 18  8  1  0  0  0  0
 19 15  2  0  0  0  0
 20 25  2  0  0  0  0
 20 23  1  0  0  0  0
 21 20  1  0  0  0  0
 22 14  1  0  0  0  0
 22 24  2  0  0  0  0
 23 27  2  0  0  0  0
 25 22  1  0  0  0  0
 26 25  1  0  0  0  0
 27 24  1  0  0  0  0
 27 29  1  0  0  0  0
 29 28  1  0  0  0  0
 30 31  1  0  0  0  0
 32 31  1  0  0  0  0
M  END
>  <MODEL>
3

>  <REMARK>
 VINA RESULT:     -10.5      3.047      6.640
  Name = 
  4 active torsions:
  status: ('A' for Active; 'I' for Inactive)
    1  A    between atoms: C_13  and  N_18
    2  A    between atoms: C_15  and  C_26
    3  A    between atoms: C_16  and  C_27
    4  A    between atoms: N_18  and  C_29
                            x       y       z     vdW  Elec       q    Type
                         _______ _______ _______ _____ _____    ______ ____

>  <TORSDO>
F 4

$$$$
=
 OpenBabel11052414373D

 32 37  0  0  0  0  0  0  0  0999 V2000
  187.6850  177.8960  142.8420 C   0  0  0  0  0  0  0  0  0  0  0  0
  185.5720  178.1740  141.9340 N   0  0  0  0  0  0  0  0  0  0  0  0
  189.1770  178.0000  142.6010 C   0  0  0  0  0  2  0  0  0  0  0  0
  186.8760  178.0340  141.7970 C   0  0  0  0  0  0  0  0  0  0  0  0
  185.0380  178.5370  140.7640 C   0  0  0  0  0  0  0  0  0  0  0  0
  181.4530  178.9710  144.3160 C   0  0  0  0  0  3  0  0  0  0  0  0
  184.9450  178.2420  143.1760 N   0  0  0  0  0  0  0  0  0  0  0  0
  181.5890  179.2540  141.9070 C   0  0  0  0  0  3  0  0  0  0  0  0
  182.9420  178.9080  141.9400 C   0  0  0  0  0  0  0  0  0  0  0  0
  187.2430  178.2300  140.4920 C   0  0  0  0  0  0  0  0  0  0  0  0
  183.7540  178.9100  140.6860 C   0  0  0  0  0  3  0  0  0  0  0  0
  188.6810  178.3390  140.0870 C   0  0  0  0  0  2  0  0  0  0  0  0
  185.7480  178.0810  144.3270 N   0  0  0  0  0  0  0  0  0  0  0  0
  187.0460  177.8930  144.2070 C   0  0  0  0  0  0  0  0  0  0  0  0
  183.5550  178.5940  143.1830 C   0  0  0  0  0  0  0  0  0  0  0  0
  186.0650  178.5630  139.8090 C   0  0  0  0  0  0  0  0  0  0  0  0
  189.5590  177.6290  141.1430 C   0  0  0  0  0  2  0  0  0  0  0  0
  180.8460  179.2820  143.0920 C   0  0  0  0  0  3  0  0  0  0  0  0
  182.8080  178.6280  144.3630 C   0  0  0  0  0  3  0  0  0  0  0  0
  188.1690  177.8450  147.8370 C   0  0  0  0  0  0  0  0  0  0  0  0
  187.6920  178.0930  149.0810 F   0  0  0  0  0  0  0  0  0  0  0  0
  187.8620  177.7470  145.4240 C   0  0  0  0  0  0  0  0  0  0  0  0
  189.4940  177.4300  147.6850 C   0  0  0  0  0  3  0  0  0  0  0  0
  189.1980  177.3450  145.2870 C   0  0  0  0  0  3  0  0  0  0  0  0
  187.3470  178.0130  146.7120 C   0  0  0  0  0  0  0  0  0  0  0  0
  185.7110  178.6280  146.9420 Cl  0  0  0  0  0  0  0  0  0  0  0  0
  190.0120  177.1890  146.4100 C   0  0  0  0  0  0  0  0  0  0  0  0
  191.8800  176.0040  147.4990 C   0  0  0  0  0  1  0  0  0  0  0  0
  191.4230  176.7370  146.2530 C   0  0  0  0  0  2  0  0  0  0  0  0
  185.9930  179.0030  138.4500 N   0  0  0  0  0  2  0  0  0  0  0  0
  186.2410  178.1260  137.3190 C   0  0  0  0  0  2  0  0  0  0  0  0
  185.1540  177.0770  137.2460 C   0  0  0  0  0  1  0  0  0  0  0  0
  1 14  1  0  0  0  0
  2  7  1  0  0  0  0
  3  1  1  0  0  0  0
  4  2  1  0  0  0  0
  4  1  2  0  0  0  0
  5  2  1  0  0  0  0
  6 19  1  0  0  0  0
  7 15  1  0  0  0  0
  7 13  1  0  0  0  0
  8  9  2  0  0  0  0
  8 18  1  0  0  0  0
  9 15  1  0  0  0  0
 10  4  1  0  0  0  0
 11  5  2  0  0  0  0
 11  9  1  0  0  0  0
 12 10  1  0  0  0  0
 12 17  1  0  0  0  0
 14 13  2  0  0  0  0
 14 22  1  0  0  0  0
 15 19  2  0  0  0  0
 16 10  2  0  0  0  0
 16  5  1  0  0  0  0
 17  3  1  0  0  0  0
 18  6  2  0  0  0  0
 20 21  1  0  0  0  0
 22 25  1  0  0  0  0
 23 20  1  0  0  0  0
 24 22  2  0  0  0  0
 24 27  1  0  0  0  0
 25 26  1  0  0  0  0
 25 20  2  0  0  0  0
 27 23  2  0  0  0  0
 29 27  1  0  0  0  0
 29 28  1  0  0  0  0
 30 16  1  0  0  0  0
 31 30  1  0  0  0  0
 32 31  1  0  0  0  0
M  END
>  <MODEL>
4

>  <REMARK>
 VINA RESULT:     -10.2      2.298      4.923
  Name = 
  4 active torsions:
  status: ('A' for Active; 'I' for Inactive)
    1  A    between atoms: C_13  and  N_18
    2  A    between atoms: C_15  and  C_26
    3  A    between atoms: C_16  and  C_27
    4  A    between atoms: N_18  and  C_29
                            x       y       z     vdW  Elec       q    Type
                         _______ _______ _______ _____ _____    ______ ____

>  <TORSDO>
F 4

$$$$
=
 OpenBabel11052414373D

 32 37  0  0  0  0  0  0  0  0999 V2000
  187.2260  178.2420  142.5070 C   0  0  0  0  0  0  0  0  0  0  0  0
  187.6990  178.2090  140.2400 N   0  0  0  0  0  0  0  0  0  0  0  0
  186.1380  178.2860  143.5610 C   0  0  0  0  0  2  0  0  0  0  0  0
  186.8730  178.4400  141.2410 C   0  0  0  0  0  0  0  0  0  0  0  0
  187.0230  178.2500  139.0880 C   0  0  0  0  0  0  0  0  0  0  0  0
  191.6660  176.4780  138.1090 C   0  0  0  0  0  3  0  0  0  0  0  0
  188.9790  177.6930  140.4190 N   0  0  0  0  0  0  0  0  0  0  0  0
  189.6890  177.0470  136.8170 C   0  0  0  0  0  3  0  0  0  0  0  0
  189.0240  177.4140  137.9890 C   0  0  0  0  0  0  0  0  0  0  0  0
  185.6170  178.7200  140.7710 C   0  0  0  0  0  0  0  0  0  0  0  0
  187.6050  177.8750  137.9410 C   0  0  0  0  0  3  0  0  0  0  0  0
  184.4370  178.8130  141.6880 C   0  0  0  0  0  2  0  0  0  0  0  0
  189.4220  177.4800  141.7430 N   0  0  0  0  0  0  0  0  0  0  0  0
  188.6280  177.7500  142.7580 C   0  0  0  0  0  0  0  0  0  0  0  0
  189.6940  177.3060  139.2380 C   0  0  0  0  0  0  0  0  0  0  0  0
  185.6940  178.5940  139.3770 C   0  0  0  0  0  0  0  0  0  0  0  0
  184.9290  179.1510  143.1150 C   0  0  0  0  0  2  0  0  0  0  0  0
  191.0080  176.5830  136.8770 C   0  0  0  0  0  3  0  0  0  0  0  0
  191.0100  176.8380  139.2910 C   0  0  0  0  0  3  0  0  0  0  0  0
  190.8440  176.9040  145.7270 C   0  0  0  0  0  0  0  0  0  0  0  0
  192.1180  176.5350  146.0080 F   0  0  0  0  0  0  0  0  0  0  0  0
  189.1090  177.5010  144.1280 C   0  0  0  0  0  0  0  0  0  0  0  0
  189.9320  177.0580  146.7730 C   0  0  0  0  0  3  0  0  0  0  0  0
  188.2020  177.6390  145.1880 C   0  0  0  0  0  3  0  0  0  0  0  0
  190.4400  177.1150  144.3990 C   0  0  0  0  0  0  0  0  0  0  0  0
  191.5970  176.8180  143.1040 Cl  0  0  0  0  0  0  0  0  0  0  0  0
  188.6100  177.4170  146.5050 C   0  0  0  0  0  0  0  0  0  0  0  0
  188.3470  178.1600  148.8410 C   0  0  0  0  0  1  0  0  0  0  0  0
  187.6420  177.5910  147.6250 C   0  0  0  0  0  2  0  0  0  0  0  0
  184.5820  178.6470  138.4790 N   0  0  0  0  0  2  0  0  0  0  0  0
  183.5970  177.5850  138.3740 C   0  0  0  0  0  2  0  0  0  0  0  0
  184.1640  176.4500  137.5490 C   0  0  0  0  0  1  0  0  0  0  0  0
  1 14  1  0  0  0  0
  1  3  1  0  0  0  0
  2  7  1  0  0  0  0
  2  4  1  0  0  0  0
  4  1  2  0  0  0  0
  5 16  1  0  0  0  0
  5  2  1  0  0  0  0
  6 19  1  0  0  0  0
  7 13  1  0  0  0  0
  8 18  1  0  0  0  0
  8  9  2  0  0  0  0
  9 15  1  0  0  0  0
 10  4  1  0  0  0  0
 10 12  1  0  0  0  0
 11  9  1  0  0  0  0
 11  5  2  0  0  0  0
 12 17  1  0  0  0  0
 13 14  2  0  0  0  0
 14 22  1  0  0  0  0
 15 19  2  0  0  0  0
 15  7  1  0  0  0  0
 16 10  2  0  0  0  0
 17  3  1  0  0  0  0
 18  6  2  0  0  0  0
 20 21  1  0  0  0  0
 20 23  1  0  0  0  0
 22 25  1  0  0  0  0
 22 24  2  0  0  0  0
 24 27  1  0  0  0  0
 25 20  2  0  0  0  0
 26 25  1  0  0  0  0
 27 23  2  0  0  0  0
 27 29  1  0  0  0  0
 29 28  1  0  0  0  0
 30 16  1  0  0  0  0
 31 30  1  0  0  0  0
 32 31  1  0  0  0  0
M  END
>  <MODEL>
5

>  <REMARK>
 VINA RESULT:      -9.9      1.276      1.767
  Name = 
  4 active torsions:
  status: ('A' for Active; 'I' for Inactive)
    1  A    between atoms: C_13  and  N_18
    2  A    between atoms: C_15  and  C_26
    3  A    between atoms: C_16  and  C_27
    4  A    between atoms: N_18  and  C_29
                            x       y       z     vdW  Elec       q    Type
                         _______ _______ _______ _____ _____    ______ ____

>  <TORSDO>
F 4

$$$$
=
 OpenBabel11052414373D

 32 37  0  0  0  0  0  0  0  0999 V2000
  185.8890  178.5020  139.5180 C   0  0  0  0  0  0  0  0  0  0  0  0
  186.8230  178.3640  141.6330 N   0  0  0  0  0  0  0  0  0  0  0  0
  186.0470  178.1560  138.0520 C   0  0  0  0  0  2  0  0  0  0  0  0
  186.9290  178.2990  140.3200 C   0  0  0  0  0  0  0  0  0  0  0  0
  187.9380  177.8830  142.1920 C   0  0  0  0  0  0  0  0  0  0  0  0
  184.5150  178.5550  145.8640 C   0  0  0  0  0  3  0  0  0  0  0  0
  185.6150  178.5950  142.2840 N   0  0  0  0  0  0  0  0  0  0  0  0
  186.8350  177.8490  145.7270 C   0  0  0  0  0  3  0  0  0  0  0  0
  186.8040  178.0070  144.3400 C   0  0  0  0  0  0  0  0  0  0  0  0
  188.1670  177.8350  139.9610 C   0  0  0  0  0  0  0  0  0  0  0  0
  188.0050  177.6800  143.5140 C   0  0  0  0  0  3  0  0  0  0  0  0
  188.4870  177.4630  138.5470 C   0  0  0  0  0  2  0  0  0  0  0  0
  184.4750  178.8390  141.4870 N   0  0  0  0  0  0  0  0  0  0  0  0
  184.5710  178.8260  140.1740 C   0  0  0  0  0  0  0  0  0  0  0  0
  185.6070  178.4430  143.7100 C   0  0  0  0  0  0  0  0  0  0  0  0
  188.8320  177.5540  141.1630 C   0  0  0  0  0  0  0  0  0  0  0  0
  187.5290  178.2170  137.5950 C   0  0  0  0  0  2  0  0  0  0  0  0
  185.6930  178.1250  146.4870 C   0  0  0  0  0  3  0  0  0  0  0  0
  184.4690  178.7130  144.4750 C   0  0  0  0  0  3  0  0  0  0  0  0
  181.4090  178.2980  138.1330 C   0  0  0  0  0  0  0  0  0  0  0  0
  180.6220  177.2980  137.6650 F   0  0  0  0  0  0  0  0  0  0  0  0
  183.3620  179.0650  139.3660 C   0  0  0  0  0  0  0  0  0  0  0  0
  181.0720  179.6230  137.8440 C   0  0  0  0  0  3  0  0  0  0  0  0
  183.0180  180.3880  139.0570 C   0  0  0  0  0  3  0  0  0  0  0  0
  182.5570  178.0080  138.8870 C   0  0  0  0  0  0  0  0  0  0  0  0
  182.9960  176.3210  139.1470 Cl  0  0  0  0  0  0  0  0  0  0  0  0
  181.8800  180.6670  138.2980 C   0  0  0  0  0  0  0  0  0  0  0  0
  180.5180  182.1290  136.8540 C   0  0  0  0  0  1  0  0  0  0  0  0
  181.5120  182.0790  137.9970 C   0  0  0  0  0  2  0  0  0  0  0  0
  190.1010  176.9020  141.2720 N   0  0  0  0  0  2  0  0  0  0  0  0
  191.2970  177.5720  141.7510 C   0  0  0  0  0  2  0  0  0  0  0  0
  191.6390  177.0660  143.1350 C   0  0  0  0  0  1  0  0  0  0  0  0
  1 14  1  0  0  0  0
  1  4  2  0  0  0  0
  2  5  1  0  0  0  0
  2  7  1  0  0  0  0
  3  1  1  0  0  0  0
  4  2  1  0  0  0  0
  5 11  2  0  0  0  0
  6 18  1  0  0  0  0
  7 15  1  0  0  0  0
  8 18  2  0  0  0  0
  9  8  1  0  0  0  0
 10  4  1  0  0  0  0
 10 16  2  0  0  0  0
 11  9  1  0  0  0  0
 12 10  1  0  0  0  0
 13  7  1  0  0  0  0
 14 13  2  0  0  0  0
 15  9  2  0  0  0  0
 15 19  1  0  0  0  0
 16 30  1  0  0  0  0
 16  5  1  0  0  0  0
 17  3  1  0  0  0  0
 17 12  1  0  0  0  0
 19  6  2  0  0  0  0
 20 25  1  0  0  0  0
 21 20  1  0  0  0  0
 22 14  1  0  0  0  0
 23 20  2  0  0  0  0
 23 27  1  0  0  0  0
 24 22  1  0  0  0  0
 25 26  1  0  0  0  0
 25 22  2  0  0  0  0
 27 24  2  0  0  0  0
 28 29  1  0  0  0  0
 29 27  1  0  0  0  0
 30 31  1  0  0  0  0
 31 32  1  0  0  0  0
M  END
>  <MODEL>
6

>  <REMARK>
 VINA RESULT:      -9.8      3.540      8.345
  Name = 
  4 active torsions:
  status: ('A' for Active; 'I' for Inactive)
    1  A    between atoms: C_13  and  N_18
    2  A    between atoms: C_15  and  C_26
    3  A    between atoms: C_16  and  C_27
    4  A    between atoms: N_18  and  C_29
                            x       y       z     vdW  Elec       q    Type
                         _______ _______ _______ _____ _____    ______ ____

>  <TORSDO>
F 4

$$$$
=
 OpenBabel11052414373D

 32 37  0  0  0  0  0  0  0  0999 V2000
  186.3980  178.1460  141.4230 C   0  0  0  0  0  0  0  0  0  0  0  0
  186.0320  178.0270  143.7070 N   0  0  0  0  0  0  0  0  0  0  0  0
  185.8500  178.6050  140.0870 C   0  0  0  0  0  2  0  0  0  0  0  0
  185.5900  178.1970  142.4770 C   0  0  0  0  0  0  0  0  0  0  0  0
  185.0750  178.3700  144.5740 C   0  0  0  0  0  0  0  0  0  0  0  0
  189.3570  177.6480  147.1820 C   0  0  0  0  0  3  0  0  0  0  0  0
  187.3780  177.8340  144.0080 N   0  0  0  0  0  0  0  0  0  0  0  0
  187.0460  178.1820  147.7040 C   0  0  0  0  0  3  0  0  0  0  0  0
  186.7280  178.1480  146.3450 C   0  0  0  0  0  0  0  0  0  0  0  0
  184.2790  178.5940  142.4890 C   0  0  0  0  0  0  0  0  0  0  0  0
  185.3390  178.4510  145.8850 C   0  0  0  0  0  3  0  0  0  0  0  0
  183.5870  179.0620  141.2470 C   0  0  0  0  0  2  0  0  0  0  0  0
  188.2860  177.7490  142.9290 N   0  0  0  0  0  0  0  0  0  0  0  0
  187.8550  177.8690  141.6900 C   0  0  0  0  0  0  0  0  0  0  0  0
  187.7440  177.8620  145.3940 C   0  0  0  0  0  0  0  0  0  0  0  0
  183.9310  178.7180  143.8420 C   0  0  0  0  0  0  0  0  0  0  0  0
  184.3060  178.4700  140.0130 C   0  0  0  0  0  2  0  0  0  0  0  0
  188.3580  177.9300  148.1210 C   0  0  0  0  0  3  0  0  0  0  0  0
  189.0530  177.6140  145.8170 C   0  0  0  0  0  3  0  0  0  0  0  0
  190.9900  177.1750  139.6570 C   0  0  0  0  0  0  0  0  0  0  0  0
  192.2260  176.6350  139.7940 F   0  0  0  0  0  0  0  0  0  0  0  0
  188.8270  177.7950  140.5850 C   0  0  0  0  0  0  0  0  0  0  0  0
  190.6040  177.6910  138.4170 C   0  0  0  0  0  3  0  0  0  0  0  0
  188.4600  178.3200  139.3390 C   0  0  0  0  0  3  0  0  0  0  0  0
  190.1100  177.2300  140.7500 C   0  0  0  0  0  0  0  0  0  0  0  0
  190.6720  176.6530  142.3180 Cl  0  0  0  0  0  0  0  0  0  0  0  0
  189.3440  178.2710  138.2590 C   0  0  0  0  0  0  0  0  0  0  0  0
  187.4370  178.6460  136.7420 C   0  0  0  0  0  1  0  0  0  0  0  0
  188.9320  178.8100  136.9330 C   0  0  0  0  0  2  0  0  0  0  0  0
  182.7000  179.2570  144.3330 N   0  0  0  0  0  2  0  0  0  0  0  0
  181.4100  178.6350  144.0940 C   0  0  0  0  0  2  0  0  0  0  0  0
  180.5840  179.5190  143.1860 C   0  0  0  0  0  1  0  0  0  0  0  0
  1 14  1  0  0  0  0
  1  4  2  0  0  0  0
  2  7  1  0  0  0  0
  2  5  1  0  0  0  0
  3  1  1  0  0  0  0
  4 10  1  0  0  0  0
  4  2  1  0  0  0  0
  5 11  2  0  0  0  0
  6 18  1  0  0  0  0
  7 15  1  0  0  0  0
  8 18  2  0  0  0  0
  9  8  1  0  0  0  0
 10 16  2  0  0  0  0
 11  9  1  0  0  0  0
 12 10  1  0  0  0  0
 13  7  1  0  0  0  0
 14 13  2  0  0  0  0
 15 19  1  0  0  0  0
 15  9  2  0  0  0  0
 16 30  1  0  0  0  0
 16  5  1  0  0  0  0
 17  3  1  0  0  0  0
 17 12  1  0  0  0  0
 19  6  2  0  0  0  0
 20 21  1  0  0  0  0
 20 25  1  0  0  0  0
 22 25  2  0  0  0  0
 22 14  1  0  0  0  0
 23 20  2  0  0  0  0
 24 22  1  0  0  0  0
 25 26  1  0  0  0  0
 27 23  1  0  0  0  0
 27 24  2  0  0  0  0
 28 29  1  0  0  0  0
 29 27  1  0  0  0  0
 31 30  1  0  0  0  0
 32 31  1  0  0  0  0
M  END
>  <MODEL>
7

>  <REMARK>
 VINA RESULT:      -9.7      1.766      6.104
  Name = 
  4 active torsions:
  status: ('A' for Active; 'I' for Inactive)
    1  A    between atoms: C_13  and  N_18
    2  A    between atoms: C_15  and  C_26
    3  A    between atoms: C_16  and  C_27
    4  A    between atoms: N_18  and  C_29
                            x       y       z     vdW  Elec       q    Type
                         _______ _______ _______ _____ _____    ______ ____

>  <TORSDO>
F 4

$$$$
=
 OpenBabel11052414373D

 32 37  0  0  0  0  0  0  0  0999 V2000
  187.4770  178.2090  141.3370 C   0  0  0  0  0  0  0  0  0  0  0  0
  189.4500  177.8030  142.4800 N   0  0  0  0  0  0  0  0  0  0  0  0
  186.7780  178.1860  139.9930 C   0  0  0  0  0  2  0  0  0  0  0  0
  188.7910  178.0140  141.3580 C   0  0  0  0  0  0  0  0  0  0  0  0
  190.6910  177.3980  142.1960 C   0  0  0  0  0  0  0  0  0  0  0  0
  189.9550  176.8020  147.1720 C   0  0  0  0  0  3  0  0  0  0  0  0
  188.8230  177.7130  143.7200 N   0  0  0  0  0  0  0  0  0  0  0  0
  191.7950  176.5010  145.6150 C   0  0  0  0  0  3  0  0  0  0  0  0
  190.9790  176.9220  144.5640 C   0  0  0  0  0  0  0  0  0  0  0  0
  189.6110  177.8250  140.2770 C   0  0  0  0  0  0  0  0  0  0  0  0
  191.5020  176.9520  143.1650 C   0  0  0  0  0  3  0  0  0  0  0  0
  189.0760  177.7920  138.8790 C   0  0  0  0  0  2  0  0  0  0  0  0
  187.4280  177.9320  143.7680 N   0  0  0  0  0  0  0  0  0  0  0  0
  186.7610  178.1910  142.6640 C   0  0  0  0  0  0  0  0  0  0  0  0
  189.6300  177.2850  144.8250 C   0  0  0  0  0  0  0  0  0  0  0  0
  190.8460  177.4180  140.8020 C   0  0  0  0  0  0  0  0  0  0  0  0
  187.7360  178.5620  138.8320 C   0  0  0  0  0  2  0  0  0  0  0  0
  191.2840  176.4440  146.9170 C   0  0  0  0  0  3  0  0  0  0  0  0
  189.1250  177.2220  146.1270 C   0  0  0  0  0  3  0  0  0  0  0  0
  183.2520  178.8290  143.9760 C   0  0  0  0  0  0  0  0  0  0  0  0
  182.5970  179.0540  145.1410 F   0  0  0  0  0  0  0  0  0  0  0  0
  185.3040  178.3960  142.7410 C   0  0  0  0  0  0  0  0  0  0  0  0
  182.5260  178.7850  142.7830 C   0  0  0  0  0  3  0  0  0  0  0  0
  184.5600  178.3420  141.5540 C   0  0  0  0  0  3  0  0  0  0  0  0
  184.6410  178.6280  143.9660 C   0  0  0  0  0  0  0  0  0  0  0  0
  185.5030  178.5970  145.5030 Cl  0  0  0  0  0  0  0  0  0  0  0  0
  183.1770  178.5340  141.5730 C   0  0  0  0  0  0  0  0  0  0  0  0
  183.3180  178.1820  139.1370 C   0  0  0  0  0  1  0  0  0  0  0  0
  182.4010  178.4990  140.3020 C   0  0  0  0  0  2  0  0  0  0  0  0
  191.9610  176.9610  140.0330 N   0  0  0  0  0  2  0  0  0  0  0  0
  191.8200  176.3060  138.7440 C   0  0  0  0  0  2  0  0  0  0  0  0
  193.0940  176.4810  137.9470 C   0  0  0  0  0  1  0  0  0  0  0  0
  1  4  2  0  0  0  0
  1 14  1  0  0  0  0
  2  7  1  0  0  0  0
  3  1  1  0  0  0  0
  4  2  1  0  0  0  0
  5  2  1  0  0  0  0
  5 11  2  0  0  0  0
  7 13  1  0  0  0  0
  7 15  1  0  0  0  0
  8 18  2  0  0  0  0
  9 15  2  0  0  0  0
  9  8  1  0  0  0  0
 10 16  2  0  0  0  0
 10  4  1  0  0  0  0
 11  9  1  0  0  0  0
 12 10  1  0  0  0  0
 14 22  1  0  0  0  0
 14 13  2  0  0  0  0
 15 19  1  0  0  0  0
 16  5  1  0  0  0  0
 17 12  1  0  0  0  0
 17  3  1  0  0  0  0
 18  6  1  0  0  0  0
 19  6  2  0  0  0  0
 20 21  1  0  0  0  0
 22 25  2  0  0  0  0
 23 20  2  0  0  0  0
 24 27  2  0  0  0  0
 24 22  1  0  0  0  0
 25 20  1  0  0  0  0
 25 26  1  0  0  0  0
 27 23  1  0  0  0  0
 28 29  1  0  0  0  0
 29 27  1  0  0  0  0
 30 16  1  0  0  0  0
 31 30  1  0  0  0  0
 32 31  1  0  0  0  0
M  END
>  <MODEL>
8

>  <REMARK>
 VINA RESULT:      -9.3      2.700      7.303
  Name = 
  4 active torsions:
  status: ('A' for Active; 'I' for Inactive)
    1  A    between atoms: C_13  and  N_18
    2  A    between atoms: C_15  and  C_26
    3  A    between atoms: C_16  and  C_27
    4  A    between atoms: N_18  and  C_29
                            x       y       z     vdW  Elec       q    Type
                         _______ _______ _______ _____ _____    ______ ____

>  <TORSDO>
F 4

$$$$
=
 OpenBabel11052414373D

 32 37  0  0  0  0  0  0  0  0999 V2000
  184.0060  178.5540  142.2790 C   0  0  0  0  0  0  0  0  0  0  0  0
  186.2180  177.9840  142.6630 N   0  0  0  0  0  0  0  0  0  0  0  0
  182.7310  179.1100  142.8810 C   0  0  0  0  0  2  0  0  0  0  0  0
  185.0070  178.2640  143.1030 C   0  0  0  0  0  0  0  0  0  0  0  0
  187.0730  177.9770  143.6890 C   0  0  0  0  0  0  0  0  0  0  0  0
  189.7690  177.7090  139.4100 C   0  0  0  0  0  3  0  0  0  0  0  0
  186.5590  178.0190  141.3140 N   0  0  0  0  0  0  0  0  0  0  0  0
  190.2390  177.6700  141.7930 C   0  0  0  0  0  3  0  0  0  0  0  0
  188.8760  177.8000  142.0670 C   0  0  0  0  0  0  0  0  0  0  0  0
  185.0090  178.3800  144.4680 C   0  0  0  0  0  0  0  0  0  0  0  0
  188.3930  177.8890  143.4770 C   0  0  0  0  0  3  0  0  0  0  0  0
  183.8190  178.8990  145.2150 C   0  0  0  0  0  2  0  0  0  0  0  0
  185.5330  178.3000  140.3840 N   0  0  0  0  0  0  0  0  0  0  0  0
  184.3070  178.5360  140.8020 C   0  0  0  0  0  0  0  0  0  0  0  0
  187.9500  177.8880  140.9920 C   0  0  0  0  0  0  0  0  0  0  0  0
  186.3420  178.2030  144.8650 C   0  0  0  0  0  0  0  0  0  0  0  0
  182.5490  178.6800  144.3610 C   0  0  0  0  0  2  0  0  0  0  0  0
  190.6840  177.6220  140.4670 C   0  0  0  0  0  3  0  0  0  0  0  0
  188.4020  177.8430  139.6700 C   0  0  0  0  0  3  0  0  0  0  0  0
  181.5000  178.1940  138.2640 C   0  0  0  0  0  0  0  0  0  0  0  0
  180.7500  177.2410  137.6580 F   0  0  0  0  0  0  0  0  0  0  0  0
  183.2610  178.8460  139.8120 C   0  0  0  0  0  0  0  0  0  0  0  0
  181.2840  179.5370  137.9460 C   0  0  0  0  0  3  0  0  0  0  0  0
  183.0410  180.1870  139.4720 C   0  0  0  0  0  3  0  0  0  0  0  0
  182.4920  177.8380  139.1910 C   0  0  0  0  0  0  0  0  0  0  0  0
  182.7950  176.1280  139.4930 Cl  0  0  0  0  0  0  0  0  0  0  0  0
  182.0590  180.5330  138.5420 C   0  0  0  0  0  0  0  0  0  0  0  0
  180.7320  182.0820  137.1570 C   0  0  0  0  0  1  0  0  0  0  0  0
  181.8190  181.9650  138.2080 C   0  0  0  0  0  2  0  0  0  0  0  0
  186.8420  178.3940  146.1910 N   0  0  0  0  0  2  0  0  0  0  0  0
  187.6000  177.3810  146.9050 C   0  0  0  0  0  2  0  0  0  0  0  0
  188.1200  177.9620  148.2020 C   0  0  0  0  0  1  0  0  0  0  0  0
  1  3  1  0  0  0  0
  1  4  2  0  0  0  0
  2  4  1  0  0  0  0
  2  5  1  0  0  0  0
  3 17  1  0  0  0  0
  4 10  1  0  0  0  0
  5 16  1  0  0  0  0
  6 19  2  0  0  0  0
  6 18  1  0  0  0  0
  7  2  1  0  0  0  0
  8  9  1  0  0  0  0
  9 11  1  0  0  0  0
 10 16  2  0  0  0  0
 10 12  1  0  0  0  0
 11  5  2  0  0  0  0
 13 14  2  0  0  0  0
 13  7  1  0  0  0  0
 14  1  1  0  0  0  0
 15  7  1  0  0  0  0
 15  9  2  0  0  0  0
 16 30  1  0  0  0  0
 17 12  1  0  0  0  0
 18  8  2  0  0  0  0
 19 15  1  0  0  0  0
 20 25  1  0  0  0  0
 21 20  1  0  0  0  0
 22 14  1  0  0  0  0
 23 20  2  0  0  0  0
 23 27  1  0  0  0  0
 24 22  1  0  0  0  0
 25 26  1  0  0  0  0
 25 22  2  0  0  0  0
 27 24  2  0  0  0  0
 28 29  1  0  0  0  0
 29 27  1  0  0  0  0
 30 31  1  0  0  0  0
 31 32  1  0  0  0  0
M  END
>  <MODEL>
9

>  <REMARK>
 VINA RESULT:      -9.1      3.518      7.252
  Name = 
  4 active torsions:
  status: ('A' for Active; 'I' for Inactive)
    1  A    between atoms: C_13  and  N_18
    2  A    between atoms: C_15  and  C_26
    3  A    between atoms: C_16  and  C_27
    4  A    between atoms: N_18  and  C_29
                            x       y       z     vdW  Elec       q    Type
                         _______ _______ _______ _____ _____    ______ ____

>  <TORSDO>
F 4

$$$$
