=
 OpenBabel11052417053D

 32 37  0  0  1  0  0  0  0  0999 V2000
  184.6560  178.9300  142.3280 C   0  0  2  0  0  3  0  0  0  0  0  0
  184.5350  178.9720  138.0010 C   0  0  1  0  0  3  0  0  0  0  0  0
  181.3730  177.0690  137.0030 C   0  0  0  0  0  2  0  0  0  0  0  0
  183.5140  174.9670  136.6170 C   0  0  0  0  0  1  0  0  0  0  0  0
  186.9460  178.5600  137.2460 C   0  0  0  0  0  0  0  0  0  0  0  0
  187.9550  177.4530  137.2000 C   0  0  0  0  0  0  0  0  0  0  0  0
  185.7550  178.1510  140.1090 C   0  0  0  0  0  2  0  0  0  0  0  0
  182.6240  178.5200  139.2310 O   0  0  0  0  0  0  0  0  0  0  0  0
  189.9810  176.5040  137.1640 C   0  0  0  0  0  0  0  0  0  0  0  0
  183.3880  178.7050  141.4930 C   0  0  0  0  0  2  0  0  0  0  0  0
  182.2990  177.5160  135.8750 C   0  0  0  0  0  2  0  0  0  0  0  0
  183.1020  178.6200  137.9530 N   0  0  2  0  0  0  0  0  0  0  0  0
  182.8380  177.3390  137.2810 C   0  0  0  0  0  0  0  0  0  0  0  0
  185.2100  176.5930  137.4490 C   0  0  0  0  0  0  0  0  0  0  0  0
  191.4620  176.4260  137.0740 C   0  0  0  0  0  1  0  0  0  0  0  0
  185.8750  178.4790  141.5640 C   0  0  0  0  0  0  0  0  0  0  0  0
  183.4830  179.2590  140.0610 C   0  0  1  0  0  3  0  0  0  0  0  0
  189.2930  177.6670  137.0940 N   0  0  0  0  0  0  0  0  0  0  0  0
  186.9650  178.4180  142.1100 O   0  0  0  0  0  0  0  0  0  0  0  0
  183.5490  175.6980  138.8760 O   0  0  0  0  0  1  0  0  0  0  0  0
  183.7760  176.1380  137.5690 C   0  0  2  0  0  0  0  0  0  0  0  0
  186.2090  175.7000  137.5370 C   0  0  0  0  0  3  0  0  0  0  0  0
  184.8730  179.2180  139.4520 C   0  0  2  0  0  3  0  0  0  0  0  0
  187.1850  179.4700  136.2170 O   0  0  0  0  0  1  0  0  0  0  0  0
  188.9670  175.1720  137.3840 S   0  0  0  0  0  0  0  0  0  0  0  0
  185.4800  178.0670  137.1720 C   0  0  0  0  0  0  0  0  0  0  0  0
  187.5910  176.1340  137.3810 C   0  0  0  0  0  0  0  0  0  0  0  0
  184.5390  178.1650  143.6380 C   0  0  0  0  0  2  0  0  0  0  0  0
  184.4560  179.1300  144.8090 C   0  0  0  0  0  2  0  0  0  0  0  0
  185.4430  178.7500  145.8630 C   0  0  0  0  0  0  0  0  0  0  0  0
  185.3950  179.2670  146.9670 O   0  0  0  0  0  0  0  0  0  0  0  0
  186.4740  177.7160  145.5720 C   0  0  0  0  0  1  0  0  0  0  0  0
  1 28  1  1  0  0  0
  2 26  1  1  0  0  0
  2 23  1  0  0  0  0
  3 13  1  0  0  0  0
  6  5  1  0  0  0  0
  6 27  2  0  0  0  0
  7 16  1  0  0  0  0
  8 17  1  0  0  0  0
  9 25  1  0  0  0  0
 10  1  1  0  0  0  0
 11  3  1  0  0  0  0
 11 13  1  0  0  0  0
 12  2  1  0  0  0  0
 12  8  1  1  0  0  0
 13 21  1  0  0  0  0
 13 12  1  0  0  0  0
 14 22  2  0  0  0  0
 14 21  1  0  0  0  0
 15  9  1  0  0  0  0
 16 19  2  0  0  0  0
 16  1  1  0  0  0  0
 17 10  1  1  0  0  0
 18  9  2  0  0  0  0
 18  6  1  0  0  0  0
 21  4  1  6  0  0  0
 21 20  1  0  0  0  0
 23 17  1  0  0  0  0
 23  7  1  1  0  0  0
 24  5  1  0  0  0  0
 26  5  2  0  0  0  0
 26 14  1  0  0  0  0
 27 25  1  0  0  0  0
 27 22  1  0  0  0  0
 28 29  1  0  0  0  0
 29 30  1  0  0  0  0
 30 31  2  0  0  0  0
 32 30  1  0  0  0  0
M  END
>  <MODEL>
1

>  <REMARK>
 VINA RESULT:      -6.0      0.000      0.000
  Name = 
  3 active torsions:
  status: ('A' for Active; 'I' for Inactive)
    1  A    between atoms: C_1  and  C_10
    2  A    between atoms: C_2  and  C_24
    3  A    between atoms: C_10  and  C_24
                            x       y       z     vdW  Elec       q    Type
                         _______ _______ _______ _____ _____    ______ ____

>  <TORSDO>
F 3

$$$$
=
 OpenBabel11052417053D

 32 37  0  0  1  0  0  0  0  0999 V2000
  184.9110  179.0070  141.2640 C   0  0  2  0  0  3  0  0  0  0  0  0
  184.3480  178.2040  137.0480 C   0  0  1  0  0  3  0  0  0  0  0  0
  181.2180  176.0250  136.7850 C   0  0  0  0  0  2  0  0  0  0  0  0
  183.4290  173.9720  136.5670 C   0  0  0  0  0  1  0  0  0  0  0  0
  186.6890  177.7460  136.1210 C   0  0  0  0  0  0  0  0  0  0  0  0
  187.7520  176.6920  136.1720 C   0  0  0  0  0  0  0  0  0  0  0  0
  185.8220  177.8550  139.1240 C   0  0  0  0  0  2  0  0  0  0  0  0
  182.6020  177.9270  138.5460 O   0  0  0  0  0  0  0  0  0  0  0  0
  189.8160  175.8310  136.0910 C   0  0  0  0  0  0  0  0  0  0  0  0
  183.5800  178.5760  140.6330 C   0  0  0  0  0  2  0  0  0  0  0  0
  181.9960  176.2790  135.4960 C   0  0  0  0  0  2  0  0  0  0  0  0
  182.9410  177.7950  137.2260 N   0  0  2  0  0  0  0  0  0  0  0  0
  182.6850  176.4000  136.8420 C   0  0  0  0  0  0  0  0  0  0  0  0
  185.1020  175.7910  136.8830 C   0  0  0  0  0  0  0  0  0  0  0  0
  191.2820  175.7940  135.8530 C   0  0  0  0  0  1  0  0  0  0  0  0
  186.0700  178.4630  140.4680 C   0  0  0  0  0  0  0  0  0  0  0  0
  183.4960  178.8450  139.1200 C   0  0  1  0  0  3  0  0  0  0  0  0
  189.0570  176.9310  135.8800 N   0  0  0  0  0  0  0  0  0  0  0  0
  187.2120  178.5520  140.8910 O   0  0  0  0  0  0  0  0  0  0  0  0
  183.6510  175.1270  138.6290 O   0  0  0  0  0  1  0  0  0  0  0  0
  183.7170  175.3140  137.2460 C   0  0  2  0  0  0  0  0  0  0  0  0
  186.1550  174.9710  137.0260 C   0  0  0  0  0  3  0  0  0  0  0  0
  184.8170  178.7400  138.3790 C   0  0  2  0  0  3  0  0  0  0  0  0
  186.7680  178.4480  134.9180 O   0  0  0  0  0  1  0  0  0  0  0  0
  188.9100  174.5300  136.6690 S   0  0  0  0  0  0  0  0  0  0  0  0
  185.2550  177.1930  136.3050 C   0  0  0  0  0  0  0  0  0  0  0  0
  187.4870  175.4200  136.6380 C   0  0  0  0  0  0  0  0  0  0  0  0
  184.9730  178.5070  142.6990 C   0  0  0  0  0  2  0  0  0  0  0  0
  184.5990  179.6190  143.6640 C   0  0  0  0  0  2  0  0  0  0  0  0
  183.5430  179.1500  144.6100 C   0  0  0  0  0  0  0  0  0  0  0  0
  183.7810  179.0580  145.8030 O   0  0  0  0  0  0  0  0  0  0  0  0
  182.1860  178.8170  144.0960 C   0  0  0  0  0  1  0  0  0  0  0  0
  1 28  1  1  0  0  0
  2 26  1  1  0  0  0
  2 12  1  0  0  0  0
  2 23  1  0  0  0  0
  3 13  1  0  0  0  0
  5  6  2  0  0  0  0
  5 26  1  0  0  0  0
  6 27  1  0  0  0  0
  7 16  1  0  0  0  0
  8 17  1  0  0  0  0
  9 25  1  0  0  0  0
 10  1  1  0  0  0  0
 11  3  1  0  0  0  0
 11 13  1  0  0  0  0
 12  8  1  1  0  0  0
 13 12  1  0  0  0  0
 13 21  1  0  0  0  0
 14 22  1  0  0  0  0
 14 21  1  0  0  0  0
 15  9  1  0  0  0  0
 16 19  2  0  0  0  0
 16  1  1  0  0  0  0
 17 10  1  1  0  0  0
 18  9  2  0  0  0  0
 18  6  1  0  0  0  0
 21  4  1  6  0  0  0
 21 20  1  0  0  0  0
 23 17  1  0  0  0  0
 23  7  1  1  0  0  0
 24  5  1  0  0  0  0
 26 14  2  0  0  0  0
 27 25  1  0  0  0  0
 27 22  2  0  0  0  0
 28 29  1  0  0  0  0
 29 30  1  0  0  0  0
 30 31  2  0  0  0  0
 32 30  1  0  0  0  0
M  END
>  <MODEL>
2

>  <REMARK>
 VINA RESULT:      -5.9      1.300      1.474
  Name = 
  3 active torsions:
  status: ('A' for Active; 'I' for Inactive)
    1  A    between atoms: C_1  and  C_10
    2  A    between atoms: C_2  and  C_24
    3  A    between atoms: C_10  and  C_24
                            x       y       z     vdW  Elec       q    Type
                         _______ _______ _______ _____ _____    ______ ____

>  <TORSDO>
F 3

$$$$
=
 OpenBabel11052417053D

 32 37  0  0  1  0  0  0  0  0999 V2000
  187.1320  173.0170  135.5130 C   0  0  2  0  0  3  0  0  0  0  0  0
  189.8270  176.4020  135.6070 C   0  0  1  0  0  3  0  0  0  0  0  0
  193.3250  175.0010  134.9590 C   0  0  0  0  0  2  0  0  0  0  0  0
  193.3230  175.3090  137.9690 C   0  0  0  0  0  1  0  0  0  0  0  0
  189.0310  177.8550  137.5580 C   0  0  0  0  0  0  0  0  0  0  0  0
  189.0060  177.8430  139.0560 C   0  0  0  0  0  0  0  0  0  0  0  0
  188.2140  174.9020  136.9310 C   0  0  0  0  0  2  0  0  0  0  0  0
  190.4680  174.4110  134.6090 O   0  0  0  0  0  0  0  0  0  0  0  0
  188.2770  178.3280  141.1150 C   0  0  0  0  0  0  0  0  0  0  0  0
  188.5270  173.0330  134.8740 C   0  0  0  0  0  2  0  0  0  0  0  0
  193.2250  176.4860  135.2990 C   0  0  0  0  0  2  0  0  0  0  0  0
  190.9070  175.6710  134.9150 N   0  0  2  0  0  0  0  0  0  0  0  0
  192.1270  175.5290  135.7230 C   0  0  0  0  0  0  0  0  0  0  0  0
  190.9600  176.0900  137.8530 C   0  0  0  0  0  0  0  0  0  0  0  0
  187.4700  179.0010  142.1650 C   0  0  0  0  0  1  0  0  0  0  0  0
  187.0860  173.9470  136.6980 C   0  0  0  0  0  0  0  0  0  0  0  0
  189.0640  174.4470  134.5940 C   0  0  1  0  0  3  0  0  0  0  0  0
  188.1490  178.5940  139.7940 N   0  0  0  0  0  0  0  0  0  0  0  0
  186.1200  173.9580  137.4440 O   0  0  0  0  0  0  0  0  0  0  0  0
  191.5520  173.8580  137.3410 O   0  0  0  0  0  1  0  0  0  0  0  0
  191.9890  175.1800  137.2280 C   0  0  2  0  0  0  0  0  0  0  0  0
  190.7510  176.0610  139.1780 C   0  0  0  0  0  3  0  0  0  0  0  0
  188.6110  175.5080  135.5810 C   0  0  2  0  0  3  0  0  0  0  0  0
  189.0530  179.1690  137.0900 O   0  0  0  0  0  1  0  0  0  0  0  0
  189.4340  177.1370  141.4180 S   0  0  0  0  0  0  0  0  0  0  0  0
  190.2180  177.0680  136.9490 C   0  0  0  0  0  0  0  0  0  0  0  0
  189.7850  176.9680  139.7850 C   0  0  0  0  0  0  0  0  0  0  0  0
  186.7910  171.5970  135.9410 C   0  0  0  0  0  2  0  0  0  0  0  0
  185.7040  171.0220  135.0490 C   0  0  0  0  0  2  0  0  0  0  0  0
  184.3770  171.6050  135.4080 C   0  0  0  0  0  0  0  0  0  0  0  0
  183.7620  172.2820  134.6010 O   0  0  0  0  0  0  0  0  0  0  0  0
  183.7910  171.3370  136.7510 C   0  0  0  0  0  1  0  0  0  0  0  0
  1 28  1  1  0  0  0
  1 16  1  0  0  0  0
  2 26  1  1  0  0  0
  3 11  1  0  0  0  0
  3 13  1  0  0  0  0
  5  6  1  0  0  0  0
  6 27  2  0  0  0  0
  6 18  1  0  0  0  0
  9 25  1  0  0  0  0
  9 15  1  0  0  0  0
 10  1  1  0  0  0  0
 11 13  1  0  0  0  0
 12  8  1  1  0  0  0
 12  2  1  0  0  0  0
 12 13  1  0  0  0  0
 13 21  1  0  0  0  0
 14 22  2  0  0  0  0
 16  7  1  0  0  0  0
 16 19  2  0  0  0  0
 17  8  1  0  0  0  0
 17 10  1  1  0  0  0
 17 23  1  0  0  0  0
 18  9  2  0  0  0  0
 21 20  1  0  0  0  0
 21 14  1  0  0  0  0
 21  4  1  1  0  0  0
 22 27  1  0  0  0  0
 23  2  1  0  0  0  0
 23  7  1  1  0  0  0
 24  5  1  0  0  0  0
 26  5  2  0  0  0  0
 26 14  1  0  0  0  0
 27 25  1  0  0  0  0
 29 30  1  0  0  0  0
 29 28  1  0  0  0  0
 30 32  1  0  0  0  0
 31 30  2  0  0  0  0
M  END
>  <MODEL>
3

>  <REMARK>
 VINA RESULT:      -5.8      4.245      8.326
  Name = 
  3 active torsions:
  status: ('A' for Active; 'I' for Inactive)
    1  A    between atoms: C_1  and  C_10
    2  A    between atoms: C_2  and  C_24
    3  A    between atoms: C_10  and  C_24
                            x       y       z     vdW  Elec       q    Type
                         _______ _______ _______ _____ _____    ______ ____

>  <TORSDO>
F 3

$$$$
=
 OpenBabel11052417053D

 32 37  0  0  1  0  0  0  0  0999 V2000
  189.7590  177.6220  141.2070 C   0  0  2  0  0  3  0  0  0  0  0  0
  190.6020  177.0920  136.9950 C   0  0  1  0  0  3  0  0  0  0  0  0
  187.5910  175.2520  135.5260 C   0  0  0  0  0  2  0  0  0  0  0  0
  189.5790  173.0020  135.8940 C   0  0  0  0  0  1  0  0  0  0  0  0
  193.0770  176.4500  136.8690 C   0  0  0  0  0  0  0  0  0  0  0  0
  193.9750  175.2930  137.1870 C   0  0  0  0  0  0  0  0  0  0  0  0
  191.2520  176.4940  139.4090 C   0  0  0  0  0  2  0  0  0  0  0  0
  188.4350  176.9150  137.7960 O   0  0  0  0  0  0  0  0  0  0  0  0
  195.8710  174.2360  137.7300 C   0  0  0  0  0  0  0  0  0  0  0  0
  188.6930  177.3580  140.1350 C   0  0  0  0  0  2  0  0  0  0  0  0
  188.7780  175.4910  134.5970 C   0  0  0  0  0  2  0  0  0  0  0  0
  189.1910  176.8170  136.6590 N   0  0  2  0  0  0  0  0  0  0  0  0
  188.9750  175.4750  136.1000 C   0  0  0  0  0  0  0  0  0  0  0  0
  191.1800  174.6270  136.8970 C   0  0  0  0  0  0  0  0  0  0  0  0
  197.3230  174.0640  137.9940 C   0  0  0  0  0  1  0  0  0  0  0  0
  191.0740  177.0060  140.8030 C   0  0  0  0  0  0  0  0  0  0  0  0
  189.1490  177.7100  138.7080 C   0  0  1  0  0  3  0  0  0  0  0  0
  195.3150  175.4160  137.3680 N   0  0  0  0  0  0  0  0  0  0  0  0
  192.0070  176.9580  141.5890 O   0  0  0  0  0  0  0  0  0  0  0  0
  189.1750  174.0240  137.9980 O   0  0  0  0  0  1  0  0  0  0  0  0
  189.7210  174.2720  136.7360 C   0  0  2  0  0  0  0  0  0  0  0  0
  192.0550  173.7000  137.3160 C   0  0  0  0  0  3  0  0  0  0  0  0
  190.6310  177.5110  138.4450 C   0  0  2  0  0  3  0  0  0  0  0  0
  193.6140  177.2000  135.8230 O   0  0  0  0  0  1  0  0  0  0  0  0
  194.7250  173.0040  137.8650 S   0  0  0  0  0  0  0  0  0  0  0  0
  191.6270  176.0340  136.5180 C   0  0  0  0  0  0  0  0  0  0  0  0
  193.4700  174.0320  137.4330 C   0  0  0  0  0  0  0  0  0  0  0  0
  189.2910  177.0470  142.5360 C   0  0  0  0  0  2  0  0  0  0  0  0
  187.8390  177.4150  142.7900 C   0  0  0  0  0  2  0  0  0  0  0  0
  187.5470  177.3850  144.2540 C   0  0  0  0  0  0  0  0  0  0  0  0
  186.4030  177.2350  144.6520 O   0  0  0  0  0  0  0  0  0  0  0  0
  188.6620  177.5120  145.2340 C   0  0  0  0  0  1  0  0  0  0  0  0
  1 28  1  1  0  0  0
  2 26  1  1  0  0  0
  2 23  1  0  0  0  0
  3 13  1  0  0  0  0
  5  6  1  0  0  0  0
  6 18  1  0  0  0  0
  6 27  2  0  0  0  0
  7 16  1  0  0  0  0
  8 17  1  0  0  0  0
  9 25  1  0  0  0  0
  9 15  1  0  0  0  0
 10  1  1  0  0  0  0
 11  3  1  0  0  0  0
 11 13  1  0  0  0  0
 12  2  1  0  0  0  0
 12  8  1  1  0  0  0
 13 12  1  0  0  0  0
 13 21  1  0  0  0  0
 14 22  2  0  0  0  0
 16  1  1  0  0  0  0
 16 19  2  0  0  0  0
 17 10  1  1  0  0  0
 18  9  2  0  0  0  0
 21  4  1  6  0  0  0
 21 14  1  0  0  0  0
 21 20  1  0  0  0  0
 22 27  1  0  0  0  0
 23 17  1  0  0  0  0
 23  7  1  1  0  0  0
 24  5  1  0  0  0  0
 26  5  2  0  0  0  0
 26 14  1  0  0  0  0
 27 25  1  0  0  0  0
 28 29  1  0  0  0  0
 29 30  1  0  0  0  0
 30 31  2  0  0  0  0
 30 32  1  0  0  0  0
M  END
>  <MODEL>
4

>  <REMARK>
 VINA RESULT:      -5.8      4.059      5.902
  Name = 
  3 active torsions:
  status: ('A' for Active; 'I' for Inactive)
    1  A    between atoms: C_1  and  C_10
    2  A    between atoms: C_2  and  C_24
    3  A    between atoms: C_10  and  C_24
                            x       y       z     vdW  Elec       q    Type
                         _______ _______ _______ _____ _____    ______ ____

>  <TORSDO>
F 3

$$$$
=
 OpenBabel11052417053D

 32 37  0  0  1  0  0  0  0  0999 V2000
  186.9640  178.6280  140.7100 C   0  0  2  0  0  3  0  0  0  0  0  0
  186.9690  177.7760  136.4660 C   0  0  1  0  0  3  0  0  0  0  0  0
  183.7490  175.8400  135.7610 C   0  0  0  0  0  2  0  0  0  0  0  0
  185.7960  173.6170  135.8980 C   0  0  0  0  0  1  0  0  0  0  0  0
  189.3780  177.1170  135.9040 C   0  0  0  0  0  0  0  0  0  0  0  0
  190.3340  175.9840  136.1260 C   0  0  0  0  0  0  0  0  0  0  0  0
  188.0870  177.3600  138.7430 C   0  0  0  0  0  2  0  0  0  0  0  0
  185.0040  177.6680  137.6880 O   0  0  0  0  0  0  0  0  0  0  0  0
  192.3110  174.9650  136.3630 C   0  0  0  0  0  0  0  0  0  0  0  0
  185.7110  178.2870  139.8910 C   0  0  0  0  0  2  0  0  0  0  0  0
  184.7270  176.0040  134.6010 C   0  0  0  0  0  2  0  0  0  0  0  0
  185.5230  177.4810  136.4360 N   0  0  2  0  0  0  0  0  0  0  0  0
  185.2160  176.1010  136.0330 C   0  0  0  0  0  0  0  0  0  0  0  0
  187.5440  175.3080  136.4420 C   0  0  0  0  0  0  0  0  0  0  0  0
  193.7880  174.8080  136.3470 C   0  0  0  0  0  1  0  0  0  0  0  0
  188.1800  177.9780  140.1020 C   0  0  0  0  0  0  0  0  0  0  0  0
  185.8730  178.5270  138.3800 C   0  0  1  0  0  3  0  0  0  0  0  0
  191.6820  176.1160  136.0290 N   0  0  0  0  0  0  0  0  0  0  0  0
  189.2510  177.9870  140.6900 O   0  0  0  0  0  0  0  0  0  0  0  0
  185.8020  174.7980  137.9580 O   0  0  0  0  0  1  0  0  0  0  0  0
  186.0860  174.9480  136.5980 C   0  0  2  0  0  0  0  0  0  0  0  0
  188.4950  174.4130  136.7490 C   0  0  0  0  0  3  0  0  0  0  0  0
  187.2770  178.3030  137.8460 C   0  0  2  0  0  3  0  0  0  0  0  0
  189.6900  177.7830  134.7190 O   0  0  0  0  0  1  0  0  0  0  0  0
  191.2280  173.7510  136.8130 S   0  0  0  0  0  0  0  0  0  0  0  0
  187.8920  176.6810  135.8770 C   0  0  0  0  0  0  0  0  0  0  0  0
  189.9010  174.7480  136.5600 C   0  0  0  0  0  0  0  0  0  0  0  0
  186.7720  178.1570  142.1440 C   0  0  0  0  0  2  0  0  0  0  0  0
  185.3580  178.4510  142.6130 C   0  0  0  0  0  2  0  0  0  0  0  0
  185.2690  178.3240  144.0980 C   0  0  0  0  0  0  0  0  0  0  0  0
  184.2410  178.6240  144.6830 O   0  0  0  0  0  0  0  0  0  0  0  0
  186.4340  177.8040  144.8670 C   0  0  0  0  0  1  0  0  0  0  0  0
  1 28  1  1  0  0  0
  2 26  1  1  0  0  0
  2 23  1  0  0  0  0
  3 13  1  0  0  0  0
  5  6  1  0  0  0  0
  6 27  2  0  0  0  0
  7 16  1  0  0  0  0
  8 17  1  0  0  0  0
  9 25  1  0  0  0  0
 10  1  1  0  0  0  0
 11  3  1  0  0  0  0
 11 13  1  0  0  0  0
 12  2  1  0  0  0  0
 12  8  1  1  0  0  0
 13 12  1  0  0  0  0
 13 21  1  0  0  0  0
 14 21  1  0  0  0  0
 14 22  2  0  0  0  0
 15  9  1  0  0  0  0
 16 19  2  0  0  0  0
 16  1  1  0  0  0  0
 17 10  1  1  0  0  0
 18  6  1  0  0  0  0
 18  9  2  0  0  0  0
 21  4  1  6  0  0  0
 21 20  1  0  0  0  0
 23 17  1  0  0  0  0
 23  7  1  1  0  0  0
 24  5  1  0  0  0  0
 26  5  2  0  0  0  0
 26 14  1  0  0  0  0
 27 22  1  0  0  0  0
 27 25  1  0  0  0  0
 28 29  1  0  0  0  0
 29 30  1  0  0  0  0
 30 31  2  0  0  0  0
 30 32  1  0  0  0  0
M  END
>  <MODEL>
5

>  <REMARK>
 VINA RESULT:      -5.6      2.013      2.826
  Name = 
  3 active torsions:
  status: ('A' for Active; 'I' for Inactive)
    1  A    between atoms: C_1  and  C_10
    2  A    between atoms: C_2  and  C_24
    3  A    between atoms: C_10  and  C_24
                            x       y       z     vdW  Elec       q    Type
                         _______ _______ _______ _____ _____    ______ ____

>  <TORSDO>
F 3

$$$$
=
 OpenBabel11052417053D

 32 37  0  0  1  0  0  0  0  0999 V2000
  183.5950  179.0020  141.9610 C   0  0  2  0  0  3  0  0  0  0  0  0
  182.3340  178.0550  137.9300 C   0  0  1  0  0  3  0  0  0  0  0  0
  178.9370  176.3320  138.2510 C   0  0  0  0  0  2  0  0  0  0  0  0
  180.8000  173.9760  137.8930 C   0  0  0  0  0  1  0  0  0  0  0  0
  184.4370  177.2180  136.7350 C   0  0  0  0  0  0  0  0  0  0  0  0
  185.3460  176.0270  136.7230 C   0  0  0  0  0  0  0  0  0  0  0  0
  184.0300  177.6150  139.8100 C   0  0  0  0  0  2  0  0  0  0  0  0
  180.7980  178.1120  139.6640 O   0  0  0  0  0  0  0  0  0  0  0  0
  187.2440  174.8790  136.4300 C   0  0  0  0  0  0  0  0  0  0  0  0
  182.1430  178.7300  141.5480 C   0  0  0  0  0  2  0  0  0  0  0  0
  179.5500  176.4010  136.8550 C   0  0  0  0  0  2  0  0  0  0  0  0
  180.9250  177.8610  138.3250 N   0  0  2  0  0  0  0  0  0  0  0  0
  180.4340  176.4970  138.0830 C   0  0  0  0  0  0  0  0  0  0  0  0
  182.7290  175.5540  137.8460 C   0  0  0  0  0  0  0  0  0  0  0  0
  188.6430  174.6200  136.0020 C   0  0  0  0  0  1  0  0  0  0  0  0
  184.5460  178.2550  141.0600 C   0  0  0  0  0  0  0  0  0  0  0  0
  181.8790  178.9240  140.0440 C   0  0  1  0  0  3  0  0  0  0  0  0
  186.6160  176.0620  136.2410 N   0  0  0  0  0  0  0  0  0  0  0  0
  185.7380  178.2030  141.3190 O   0  0  0  0  0  0  0  0  0  0  0  0
  181.4660  175.2010  139.8150 O   0  0  0  0  0  1  0  0  0  0  0  0
  181.3580  175.2990  138.4260 C   0  0  2  0  0  0  0  0  0  0  0  0
  183.6730  174.6020  137.9070 C   0  0  0  0  0  3  0  0  0  0  0  0
  183.0550  178.5910  139.1430 C   0  0  2  0  0  3  0  0  0  0  0  0
  184.4370  177.8340  135.4830 O   0  0  0  0  0  1  0  0  0  0  0  0
  186.2650  173.7530  137.2200 S   0  0  0  0  0  0  0  0  0  0  0  0
  182.9830  176.8860  137.1500 C   0  0  0  0  0  0  0  0  0  0  0  0
  184.9830  174.8340  137.3130 C   0  0  0  0  0  0  0  0  0  0  0  0
  183.7950  178.5780  143.4090 C   0  0  0  0  0  2  0  0  0  0  0  0
  184.5970  179.6250  144.1620 C   0  0  0  0  0  2  0  0  0  0  0  0
  185.3780  178.9860  145.2610 C   0  0  0  0  0  0  0  0  0  0  0  0
  185.2420  179.3620  146.4140 O   0  0  0  0  0  0  0  0  0  0  0  0
  186.3100  177.8660  144.9520 C   0  0  0  0  0  1  0  0  0  0  0  0
  1 28  1  1  0  0  0
  2 26  1  1  0  0  0
  2 12  1  0  0  0  0
  2 23  1  0  0  0  0
  5 26  1  0  0  0  0
  6  5  2  0  0  0  0
  6 27  1  0  0  0  0
  7 16  1  0  0  0  0
  8 17  1  0  0  0  0
  9 25  1  0  0  0  0
 10  1  1  0  0  0  0
 11 13  1  0  0  0  0
 11  3  1  0  0  0  0
 12  8  1  1  0  0  0
 13  3  1  0  0  0  0
 13 12  1  0  0  0  0
 13 21  1  0  0  0  0
 14 22  1  0  0  0  0
 14 21  1  0  0  0  0
 15  9  1  0  0  0  0
 16 19  2  0  0  0  0
 16  1  1  0  0  0  0
 17 10  1  1  0  0  0
 18  9  2  0  0  0  0
 18  6  1  0  0  0  0
 21  4  1  6  0  0  0
 21 20  1  0  0  0  0
 23  7  1  1  0  0  0
 23 17  1  0  0  0  0
 24  5  1  0  0  0  0
 25 27  1  0  0  0  0
 26 14  2  0  0  0  0
 27 22  2  0  0  0  0
 28 29  1  0  0  0  0
 29 30  1  0  0  0  0
 30 31  2  0  0  0  0
 32 30  1  0  0  0  0
M  END
>  <MODEL>
6

>  <REMARK>
 VINA RESULT:      -5.6      1.896      2.400
  Name = 
  3 active torsions:
  status: ('A' for Active; 'I' for Inactive)
    1  A    between atoms: C_1  and  C_10
    2  A    between atoms: C_2  and  C_24
    3  A    between atoms: C_10  and  C_24
                            x       y       z     vdW  Elec       q    Type
                         _______ _______ _______ _____ _____    ______ ____

>  <TORSDO>
F 3

$$$$
=
 OpenBabel11052417053D

 32 37  0  0  1  0  0  0  0  0999 V2000
  186.2170  177.5520  137.6020 C   0  0  2  0  0  3  0  0  0  0  0  0
  182.4030  175.5590  138.0600 C   0  0  1  0  0  3  0  0  0  0  0  0
  181.4680  174.2340  134.5980 C   0  0  0  0  0  2  0  0  0  0  0  0
  179.8190  176.7640  134.7640 C   0  0  0  0  0  1  0  0  0  0  0  0
  181.0300  177.0590  139.6140 C   0  0  0  0  0  0  0  0  0  0  0  0
  180.3280  178.3820  139.5980 C   0  0  0  0  0  0  0  0  0  0  0  0
  183.6870  177.7840  138.1330 C   0  0  0  0  0  2  0  0  0  0  0  0
  183.7480  175.1260  136.2230 O   0  0  0  0  0  0  0  0  0  0  0  0
  179.4700  180.2770  140.4220 C   0  0  0  0  0  0  0  0  0  0  0  0
  185.6670  176.4990  136.6310 C   0  0  0  0  0  2  0  0  0  0  0  0
  180.4320  174.0700  135.7060 C   0  0  0  0  0  2  0  0  0  0  0  0
  182.5400  174.8190  136.7900 N   0  0  2  0  0  0  0  0  0  0  0  0
  181.4960  175.1450  135.8080 C   0  0  0  0  0  0  0  0  0  0  0  0
  180.8230  177.2300  136.9970 C   0  0  0  0  0  0  0  0  0  0  0  0
  179.0290  181.2540  141.4520 C   0  0  0  0  0  1  0  0  0  0  0  0
  185.0870  178.2940  138.2680 C   0  0  0  0  0  0  0  0  0  0  0  0
  184.5870  175.5930  137.2480 C   0  0  1  0  0  3  0  0  0  0  0  0
  180.0200  179.0780  140.7230 N   0  0  0  0  0  0  0  0  0  0  0  0
  185.3070  179.2820  138.9510 O   0  0  0  0  0  0  0  0  0  0  0  0
  182.1130  177.3210  135.0170 O   0  0  0  0  0  1  0  0  0  0  0  0
  181.0710  176.6270  135.6350 C   0  0  2  0  0  0  0  0  0  0  0  0
  180.3270  178.4730  137.1020 C   0  0  0  0  0  3  0  0  0  0  0  0
  183.7180  176.2600  138.2990 C   0  0  2  0  0  3  0  0  0  0  0  0
  180.4180  176.2020  140.5290 O   0  0  0  0  0  1  0  0  0  0  0  0
  179.3670  180.5340  138.7570 S   0  0  0  0  0  0  0  0  0  0  0  0
  181.0970  176.3730  138.2280 C   0  0  0  0  0  0  0  0  0  0  0  0
  180.0510  179.0390  138.4160 C   0  0  0  0  0  0  0  0  0  0  0  0
  187.1110  178.5210  136.8410 C   0  0  0  0  0  2  0  0  0  0  0  0
  188.5520  178.0420  136.8640 C   0  0  0  0  0  2  0  0  0  0  0  0
  189.1520  178.2700  138.2110 C   0  0  0  0  0  0  0  0  0  0  0  0
  189.0500  179.3580  138.7550 O   0  0  0  0  0  0  0  0  0  0  0  0
  189.8560  177.1570  138.9070 C   0  0  0  0  0  1  0  0  0  0  0  0
  1 28  1  6  0  0  0
  1 16  1  0  0  0  0
  2 26  1  6  0  0  0
  2 23  1  0  0  0  0
  3 11  1  0  0  0  0
  3 13  1  0  0  0  0
  5 24  1  0  0  0  0
  6  5  1  0  0  0  0
  6 18  1  0  0  0  0
  7 16  1  0  0  0  0
  8 17  1  0  0  0  0
  9 18  2  0  0  0  0
  9 15  1  0  0  0  0
 10  1  1  0  0  0  0
 11 13  1  0  0  0  0
 12  8  1  6  0  0  0
 12  2  1  0  0  0  0
 13 12  1  0  0  0  0
 14 22  2  0  0  0  0
 14 26  1  0  0  0  0
 16 19  2  0  0  0  0
 17 10  1  6  0  0  0
 17 23  1  0  0  0  0
 20 21  1  0  0  0  0
 21  4  1  6  0  0  0
 21 13  1  0  0  0  0
 21 14  1  0  0  0  0
 22 27  1  0  0  0  0
 23  7  1  6  0  0  0
 25  9  1  0  0  0  0
 26  5  2  0  0  0  0
 27 25  1  0  0  0  0
 27  6  2  0  0  0  0
 28 29  1  0  0  0  0
 29 30  1  0  0  0  0
 30 31  2  0  0  0  0
 30 32  1  0  0  0  0
M  END
>  <MODEL>
7

>  <REMARK>
 VINA RESULT:      -5.3      4.184      6.859
  Name = 
  3 active torsions:
  status: ('A' for Active; 'I' for Inactive)
    1  A    between atoms: C_1  and  C_10
    2  A    between atoms: C_2  and  C_24
    3  A    between atoms: C_10  and  C_24
                            x       y       z     vdW  Elec       q    Type
                         _______ _______ _______ _____ _____    ______ ____

>  <TORSDO>
F 3

$$$$
=
 OpenBabel11052417053D

 32 37  0  0  1  0  0  0  0  0999 V2000
  180.2560  175.0230  137.5990 C   0  0  2  0  0  3  0  0  0  0  0  0
  179.9400  178.5160  140.1350 C   0  0  1  0  0  3  0  0  0  0  0  0
  178.9440  181.4110  137.8450 C   0  0  0  0  0  2  0  0  0  0  0  0
  181.9240  181.8450  138.1410 C   0  0  0  0  0  1  0  0  0  0  0  0
  181.9220  178.3710  141.7480 C   0  0  0  0  0  0  0  0  0  0  0  0
  183.4120  178.5190  141.7420 C   0  0  0  0  0  0  0  0  0  0  0  0
  181.4840  176.7270  139.1240 C   0  0  0  0  0  2  0  0  0  0  0  0
  178.9380  178.4800  138.0450 O   0  0  0  0  0  0  0  0  0  0  0  0
  185.5250  178.1930  142.4050 C   0  0  0  0  0  0  0  0  0  0  0  0
  179.4640  176.2870  137.2390 C   0  0  0  0  0  2  0  0  0  0  0  0
  179.2470  181.7520  139.3020 C   0  0  0  0  0  2  0  0  0  0  0  0
  179.1530  179.2720  139.1400 N   0  0  2  0  0  0  0  0  0  0  0  0
  179.8220  180.4960  138.6750 C   0  0  0  0  0  0  0  0  0  0  0  0
  182.0510  179.7790  139.5290 C   0  0  0  0  0  0  0  0  0  0  0  0
  186.6380  177.7250  143.2700 C   0  0  0  0  0  1  0  0  0  0  0  0
  181.4090  175.3660  138.5070 C   0  0  0  0  0  0  0  0  0  0  0  0
  179.0800  177.1450  138.4580 C   0  0  1  0  0  3  0  0  0  0  0  0
  184.2190  177.9870  142.6960 N   0  0  0  0  0  0  0  0  0  0  0  0
  182.2590  174.5330  138.7770 O   0  0  0  0  0  0  0  0  0  0  0  0
  181.5460  179.6890  137.2200 O   0  0  0  0  0  1  0  0  0  0  0  0
  181.3430  180.4480  138.3760 C   0  0  2  0  0  0  0  0  0  0  0  0
  183.3920  179.7270  139.5560 C   0  0  0  0  0  3  0  0  0  0  0  0
  180.0790  177.1110  139.6010 C   0  0  2  0  0  3  0  0  0  0  0  0
  181.4130  178.6880  143.0080 O   0  0  0  0  0  1  0  0  0  0  0  0
  185.7320  179.0180  140.9470 S   0  0  0  0  0  0  0  0  0  0  0  0
  181.2070  179.2250  140.6710 C   0  0  0  0  0  0  0  0  0  0  0  0
  184.0760  179.1170  140.6900 C   0  0  0  0  0  0  0  0  0  0  0  0
  180.7640  174.3670  136.3230 C   0  0  0  0  0  2  0  0  0  0  0  0
  181.1670  175.4240  135.3090 C   0  0  0  0  0  2  0  0  0  0  0  0
  182.6470  175.6210  135.3280 C   0  0  0  0  0  0  0  0  0  0  0  0
  183.3970  174.6890  135.0870 O   0  0  0  0  0  0  0  0  0  0  0  0
  183.2100  176.9690  135.6200 C   0  0  0  0  0  1  0  0  0  0  0  0
  1 28  1  6  0  0  0
  1 16  1  0  0  0  0
  2 26  1  6  0  0  0
  3 13  1  0  0  0  0
  3 11  1  0  0  0  0
  5 24  1  0  0  0  0
  6  5  1  0  0  0  0
  6 18  1  0  0  0  0
  8 17  1  0  0  0  0
  9 18  2  0  0  0  0
  9 15  1  0  0  0  0
 10  1  1  0  0  0  0
 12  8  1  6  0  0  0
 12  2  1  0  0  0  0
 13 12  1  0  0  0  0
 13 11  1  0  0  0  0
 14 22  2  0  0  0  0
 14 26  1  0  0  0  0
 16 19  2  0  0  0  0
 16  7  1  0  0  0  0
 17 10  1  6  0  0  0
 17 23  1  0  0  0  0
 20 21  1  0  0  0  0
 21  4  1  6  0  0  0
 21 13  1  0  0  0  0
 21 14  1  0  0  0  0
 22 27  1  0  0  0  0
 23  7  1  6  0  0  0
 23  2  1  0  0  0  0
 25  9  1  0  0  0  0
 26  5  2  0  0  0  0
 27 25  1  0  0  0  0
 27  6  2  0  0  0  0
 29 30  1  0  0  0  0
 29 28  1  0  0  0  0
 30 32  1  0  0  0  0
 31 30  2  0  0  0  0
M  END
>  <MODEL>
8

>  <REMARK>
 VINA RESULT:      -4.9      3.884      7.066
  Name = 
  3 active torsions:
  status: ('A' for Active; 'I' for Inactive)
    1  A    between atoms: C_1  and  C_10
    2  A    between atoms: C_2  and  C_24
    3  A    between atoms: C_10  and  C_24
                            x       y       z     vdW  Elec       q    Type
                         _______ _______ _______ _____ _____    ______ ____

>  <TORSDO>
F 3

$$$$
=
 OpenBabel11052417053D

 32 37  0  0  1  0  0  0  0  0999 V2000
  182.3360  178.9650  140.6600 C   0  0  2  0  0  3  0  0  0  0  0  0
  182.3710  177.7420  136.5080 C   0  0  1  0  0  3  0  0  0  0  0  0
  178.9300  176.2270  135.8120 C   0  0  0  0  0  2  0  0  0  0  0  0
  180.6260  173.7580  136.2350 C   0  0  0  0  0  1  0  0  0  0  0  0
  184.6770  176.7000  136.1220 C   0  0  0  0  0  0  0  0  0  0  0  0
  185.4490  175.4680  136.4840 C   0  0  0  0  0  0  0  0  0  0  0  0
  183.3330  177.3790  138.8640 C   0  0  0  0  0  2  0  0  0  0  0  0
  180.3670  178.0250  137.6380 O   0  0  0  0  0  0  0  0  0  0  0  0
  187.2470  174.2040  136.9030 C   0  0  0  0  0  0  0  0  0  0  0  0
  181.0770  178.7330  139.8130 C   0  0  0  0  0  2  0  0  0  0  0  0
  179.9640  176.1450  134.6910 C   0  0  0  0  0  2  0  0  0  0  0  0
  180.8990  177.6540  136.4330 N   0  0  2  0  0  0  0  0  0  0  0  0
  180.4100  176.3000  136.1320 C   0  0  0  0  0  0  0  0  0  0  0  0
  182.5810  175.2250  136.7190 C   0  0  0  0  0  0  0  0  0  0  0  0
  188.6850  173.8390  136.9730 C   0  0  0  0  0  1  0  0  0  0  0  0
  183.4660  178.0970  140.1690 C   0  0  0  0  0  0  0  0  0  0  0  0
  181.3270  178.8100  138.2970 C   0  0  1  0  0  3  0  0  0  0  0  0
  186.8050  175.3980  136.4430 N   0  0  0  0  0  0  0  0  0  0  0  0
  184.5040  178.0070  140.8060 O   0  0  0  0  0  0  0  0  0  0  0  0
  180.7290  175.1070  138.1860 O   0  0  0  0  0  1  0  0  0  0  0  0
  181.0820  175.0910  136.8340 C   0  0  2  0  0  0  0  0  0  0  0  0
  183.3800  174.2360  137.1470 C   0  0  0  0  0  3  0  0  0  0  0  0
  182.7020  178.3430  137.8530 C   0  0  2  0  0  3  0  0  0  0  0  0
  185.1260  177.2060  134.9020 O   0  0  0  0  0  1  0  0  0  0  0  0
  185.9830  173.2010  137.4000 S   0  0  0  0  0  0  0  0  0  0  0  0
  183.1460  176.4780  136.0600 C   0  0  0  0  0  0  0  0  0  0  0  0
  184.8260  174.3490  136.9990 C   0  0  0  0  0  0  0  0  0  0  0  0
  182.0260  178.6570  142.1170 C   0  0  0  0  0  2  0  0  0  0  0  0
  180.8490  179.4900  142.5960 C   0  0  0  0  0  2  0  0  0  0  0  0
  179.8040  178.6110  143.1980 C   0  0  0  0  0  0  0  0  0  0  0  0
  179.5890  177.5030  142.7350 O   0  0  0  0  0  0  0  0  0  0  0  0
  179.0360  179.0800  144.3850 C   0  0  0  0  0  1  0  0  0  0  0  0
  1 28  1  1  0  0  0
  2 26  1  1  0  0  0
  2 23  1  0  0  0  0
  3 13  1  0  0  0  0
  5  6  1  0  0  0  0
  6 27  2  0  0  0  0
  7 16  1  0  0  0  0
  8 17  1  0  0  0  0
  9 15  1  0  0  0  0
  9 25  1  0  0  0  0
 10  1  1  0  0  0  0
 11  3  1  0  0  0  0
 11 13  1  0  0  0  0
 12  2  1  0  0  0  0
 12  8  1  1  0  0  0
 13 12  1  0  0  0  0
 13 21  1  0  0  0  0
 14 21  1  0  0  0  0
 14 22  2  0  0  0  0
 16  1  1  0  0  0  0
 16 19  2  0  0  0  0
 17 10  1  1  0  0  0
 18  6  1  0  0  0  0
 18  9  2  0  0  0  0
 21  4  1  6  0  0  0
 21 20  1  0  0  0  0
 23 17  1  0  0  0  0
 23  7  1  1  0  0  0
 24  5  1  0  0  0  0
 26  5  2  0  0  0  0
 26 14  1  0  0  0  0
 27 22  1  0  0  0  0
 27 25  1  0  0  0  0
 28 29  1  0  0  0  0
 29 30  1  0  0  0  0
 30 32  1  0  0  0  0
 31 30  2  0  0  0  0
M  END
>  <MODEL>
9

>  <REMARK>
 VINA RESULT:      -4.8      2.960      3.690
  Name = 
  3 active torsions:
  status: ('A' for Active; 'I' for Inactive)
    1  A    between atoms: C_1  and  C_10
    2  A    between atoms: C_2  and  C_24
    3  A    between atoms: C_10  and  C_24
                            x       y       z     vdW  Elec       q    Type
                         _______ _______ _______ _____ _____    ______ ____

>  <TORSDO>
F 3

$$$$
