=
 OpenBabel11052413053D

 31 35  0  0  1  0  0  0  0  0999 V2000
  187.4160  178.0950  136.9110 C   0  0  0  0  0  0  0  0  0  0  0  0
  190.6940  176.8670  138.3680 C   0  0  1  0  0  3  0  0  0  0  0  0
  190.5930  175.3510  138.2620 C   0  0  0  0  0  2  0  0  0  0  0  0
  191.3250  173.7650  136.5080 C   0  0  0  0  0  3  0  0  0  0  0  0
  189.3210  177.4590  138.2440 C   0  0  0  0  0  0  0  0  0  0  0  0
  186.7300  178.3970  138.0470 N   0  0  0  0  0  0  0  0  0  0  0  0
  191.5890  174.7840  137.3040 C   0  0  2  0  0  3  0  0  0  0  0  0
  190.4670  177.3870  140.8280 C   0  0  0  0  0  0  0  0  0  0  0  0
  186.7970  178.2600  135.6420 N   0  0  0  0  0  1  0  0  0  0  0  0
  193.5250  176.2130  139.3610 C   0  0  0  0  0  2  0  0  0  0  0  0
  192.5900  173.3880  135.8000 C   0  0  0  0  0  3  0  0  0  0  0  0
  189.2030  177.6570  140.6910 N   0  0  0  0  0  0  0  0  0  0  0  0
  191.2980  177.2170  139.6600 N   0  0  0  0  0  0  0  0  0  0  0  0
  188.7250  177.6120  136.9900 C   0  0  0  0  0  3  0  0  0  0  0  0
  193.5810  174.3110  136.3390 N   0  0  0  0  0  0  0  0  0  0  0  0
  188.5950  177.7780  139.4010 C   0  0  0  0  0  0  0  0  0  0  0  0
  187.2870  178.2500  139.2790 C   0  0  0  0  0  3  0  0  0  0  0  0
  192.7360  177.4550  139.7430 C   0  0  0  0  0  2  0  0  0  0  0  0
  193.0110  175.0790  137.2020 C   0  0  0  0  0  0  0  0  0  0  0  0
  193.7440  176.2020  137.8600 C   0  0  0  0  0  2  0  0  0  0  0  0
  191.0500  177.3310  142.2040 C   0  0  0  0  0  2  0  0  0  0  0  0
  190.3630  175.1370  142.7950 O   0  0  0  0  0  0  0  0  0  0  0  0
  190.2910  176.3660  143.0620 C   0  0  0  0  0  0  0  0  0  0  0  0
  187.8730  177.7810  146.3200 C   0  0  0  0  0  0  0  0  0  0  0  0
  188.1180  177.0790  144.0230 C   0  0  0  0  0  3  0  0  0  0  0  0
  191.7370  176.7910  145.8780 Cl  0  0  0  0  0  0  0  0  0  0  0  0
  186.8670  178.3570  147.6310 Cl  0  0  0  0  0  0  0  0  0  0  0  0
  187.3130  177.5390  145.0660 C   0  0  0  0  0  3  0  0  0  0  0  0
  190.0490  177.0950  145.4930 C   0  0  0  0  0  0  0  0  0  0  0  0
  189.4910  176.8510  144.2130 C   0  0  0  0  0  0  0  0  0  0  0  0
  189.2330  177.5550  146.5320 C   0  0  0  0  0  3  0  0  0  0  0  0
  1 14  2  0  0  0  0
  1  6  1  0  0  0  0
  2  3  1  1  0  0  0
  2 13  1  0  0  0  0
  5  2  1  0  0  0  0
  5 16  2  0  0  0  0
  6 17  2  0  0  0  0
  7  4  1  1  0  0  0
  7  3  1  0  0  0  0
  8 21  1  0  0  0  0
  9  1  1  0  0  0  0
 10 18  1  0  0  0  0
 11 15  1  0  0  0  0
 11  4  2  0  0  0  0
 12  8  2  0  0  0  0
 13 18  1  0  0  0  0
 13  8  1  0  0  0  0
 14  5  1  0  0  0  0
 15 19  2  0  0  0  0
 16 12  1  0  0  0  0
 17 16  1  0  0  0  0
 19  7  1  0  0  0  0
 19 20  1  0  0  0  0
 20 10  1  0  0  0  0
 21 23  1  0  0  0  0
 22 23  2  0  0  0  0
 23 30  1  0  0  0  0
 24 31  1  0  0  0  0
 24 27  1  0  0  0  0
 25 30  2  0  0  0  0
 25 28  1  0  0  0  0
 28 24  2  0  0  0  0
 29 26  1  0  0  0  0
 29 31  2  0  0  0  0
 30 29  1  0  0  0  0
M  END
>  <MODEL>
1

>  <REMARK>
 VINA RESULT:      -8.9      0.000      0.000
  Name = 
  3 active torsions:
  status: ('A' for Active; 'I' for Inactive)
    1  A    between atoms: C_9  and  C_22
    2  A    between atoms: C_9  and  C_23
    3  A    between atoms: C_15  and  C_23
                            x       y       z     vdW  Elec       q    Type
                         _______ _______ _______ _____ _____    ______ ____

>  <TORSDO>
F 3

$$$$
=
 OpenBabel11052413053D

 31 35  0  0  1  0  0  0  0  0999 V2000
  192.4040  177.3950  140.5870 C   0  0  0  0  0  0  0  0  0  0  0  0
  190.3200  177.3870  143.7550 C   0  0  1  0  0  3  0  0  0  0  0  0
  190.6040  176.0250  144.3730 C   0  0  0  0  0  2  0  0  0  0  0  0
  192.2800  175.2840  146.0390 C   0  0  0  0  0  3  0  0  0  0  0  0
  190.7160  177.3600  142.3080 C   0  0  0  0  0  0  0  0  0  0  0  0
  191.4470  177.1440  139.6530 N   0  0  0  0  0  0  0  0  0  0  0  0
  191.3410  176.1350  145.6690 C   0  0  0  0  0  0  0  0  0  0  0  0
  187.9510  177.2530  142.8920 C   0  0  0  0  0  0  0  0  0  0  0  0
  193.7620  177.5390  140.1930 N   0  0  0  0  0  1  0  0  0  0  0  0
  188.7330  177.7940  146.3520 C   0  0  0  0  0  2  0  0  0  0  0  0
  192.6890  175.6240  147.4390 C   0  0  0  0  0  2  0  0  0  0  0  0
  188.3660  176.9900  141.6890 N   0  0  0  0  0  0  0  0  0  0  0  0
  188.8890  177.6880  143.8980 N   0  0  0  0  0  0  0  0  0  0  0  0
  192.0560  177.5000  141.9370 C   0  0  0  0  0  3  0  0  0  0  0  0
  191.8290  176.7480  147.7920 N   0  0  0  0  0  0  0  0  0  0  0  0
  189.7470  177.1040  141.3280 C   0  0  0  0  0  0  0  0  0  0  0  0
  190.1380  176.9980  139.9910 C   0  0  0  0  0  3  0  0  0  0  0  0
  188.4300  178.4850  145.0320 C   0  0  0  0  0  2  0  0  0  0  0  0
  191.0580  177.0130  146.7950 C   0  0  0  0  0  0  0  0  0  0  0  0
  190.1270  178.1810  146.8110 C   0  0  0  0  0  2  0  0  0  0  0  0
  186.4870  177.1680  143.1860 C   0  0  0  0  0  2  0  0  0  0  0  0
  186.3980  179.1360  141.8630 O   0  0  0  0  0  0  0  0  0  0  0  0
  185.7610  178.3390  142.6020 C   0  0  0  0  0  0  0  0  0  0  0  0
  181.5530  178.9110  143.2610 C   0  0  0  0  0  0  0  0  0  0  0  0
  183.4160  178.4450  141.7980 C   0  0  0  0  0  3  0  0  0  0  0  0
  184.8150  178.9070  145.6000 Cl  0  0  0  0  0  0  0  0  0  0  0  0
  179.8360  179.1400  143.5040 Cl  0  0  0  0  0  0  0  0  0  0  0  0
  182.0460  178.6280  141.9880 C   0  0  0  0  0  3  0  0  0  0  0  0
  183.8050  178.8230  144.1630 C   0  0  0  0  0  0  0  0  0  0  0  0
  184.3160  178.5400  142.8720 C   0  0  0  0  0  0  0  0  0  0  0  0
  182.4290  179.0030  144.3430 C   0  0  0  0  0  3  0  0  0  0  0  0
  1 14  1  0  0  0  0
  2 13  1  0  0  0  0
  2  3  1  6  0  0  0
  3  7  1  0  0  0  0
  4 11  1  0  0  0  0
  5  2  1  0  0  0  0
  6 17  1  0  0  0  0
  6  1  2  0  0  0  0
  7  4  2  0  0  0  0
  7 19  1  0  0  0  0
  8 21  1  0  0  0  0
  8 13  1  0  0  0  0
  9  1  1  0  0  0  0
 10 20  1  0  0  0  0
 11 15  1  0  0  0  0
 12  8  2  0  0  0  0
 13 18  1  0  0  0  0
 14  5  2  0  0  0  0
 16 12  1  0  0  0  0
 16  5  1  0  0  0  0
 17 16  2  0  0  0  0
 18 10  1  0  0  0  0
 19 20  1  0  0  0  0
 19 15  2  0  0  0  0
 22 23  2  0  0  0  0
 23 30  1  0  0  0  0
 23 21  1  0  0  0  0
 24 27  1  0  0  0  0
 24 31  1  0  0  0  0
 25 28  1  0  0  0  0
 25 30  2  0  0  0  0
 28 24  2  0  0  0  0
 29 31  2  0  0  0  0
 29 26  1  0  0  0  0
 30 29  1  0  0  0  0
M  END
>  <MODEL>
2

>  <REMARK>
 VINA RESULT:      -8.4      3.536      6.999
  Name = 
  3 active torsions:
  status: ('A' for Active; 'I' for Inactive)
    1  A    between atoms: C_9  and  C_22
    2  A    between atoms: C_9  and  C_23
    3  A    between atoms: C_15  and  C_23
                            x       y       z     vdW  Elec       q    Type
                         _______ _______ _______ _____ _____    ______ ____

>  <TORSDO>
F 3

$$$$
=
 OpenBabel11052413053D

 31 35  0  0  1  0  0  0  0  0999 V2000
  185.6750  177.1380  135.8850 C   0  0  0  0  0  0  0  0  0  0  0  0
  184.3860  178.3290  139.2460 C   0  0  1  0  0  3  0  0  0  0  0  0
  183.8850  179.7390  138.9640 C   0  0  0  0  0  2  0  0  0  0  0  0
  181.6520  180.6040  138.3340 C   0  0  0  0  0  3  0  0  0  0  0  0
  185.3080  177.9060  138.1400 C   0  0  0  0  0  0  0  0  0  0  0  0
  187.0160  177.2890  136.0590 N   0  0  0  0  0  0  0  0  0  0  0  0
  182.4030  179.8540  139.1190 C   0  0  2  0  0  3  0  0  0  0  0  0
  186.4930  178.6230  140.6050 C   0  0  0  0  0  0  0  0  0  0  0  0
  185.1670  176.6710  134.6420 N   0  0  0  0  0  1  0  0  0  0  0  0
  183.2090  178.8930  142.0260 C   0  0  0  0  0  2  0  0  0  0  0  0
  180.2540  180.5820  138.8710 C   0  0  0  0  0  3  0  0  0  0  0  0
  187.2370  178.4860  139.5490 N   0  0  0  0  0  0  0  0  0  0  0  0
  185.0840  178.3200  140.5390 N   0  0  0  0  0  0  0  0  0  0  0  0
  184.7930  177.4520  136.9230 C   0  0  0  0  0  3  0  0  0  0  0  0
  180.3490  179.7510  140.0650 N   0  0  0  0  0  0  0  0  0  0  0  0
  186.6930  178.0530  138.2980 C   0  0  0  0  0  0  0  0  0  0  0  0
  187.5390  177.7350  137.2330 C   0  0  0  0  0  3  0  0  0  0  0  0
  184.3590  177.9380  141.7470 C   0  0  0  0  0  2  0  0  0  0  0  0
  181.5700  179.3640  140.2080 C   0  0  0  0  0  0  0  0  0  0  0  0
  181.9710  178.4140  141.2880 C   0  0  0  0  0  2  0  0  0  0  0  0
  187.1360  179.0250  141.8950 C   0  0  0  0  0  2  0  0  0  0  0  0
  188.2730  176.9430  141.8260 O   0  0  0  0  0  0  0  0  0  0  0  0
  187.7830  177.8470  142.5540 C   0  0  0  0  0  0  0  0  0  0  0  0
  187.8910  177.5960  146.8430 C   0  0  0  0  0  0  0  0  0  0  0  0
  186.6740  177.5810  144.7570 C   0  0  0  0  0  3  0  0  0  0  0  0
  190.6480  178.0220  143.9570 Cl  0  0  0  0  0  0  0  0  0  0  0  0
  187.9080  177.4920  148.5890 Cl  0  0  0  0  0  0  0  0  0  0  0  0
  186.6850  177.4970  146.1500 C   0  0  0  0  0  3  0  0  0  0  0  0
  189.0850  177.8560  144.7460 C   0  0  0  0  0  0  0  0  0  0  0  0
  187.8640  177.7620  144.0330 C   0  0  0  0  0  0  0  0  0  0  0  0
  189.0840  177.7700  146.1420 C   0  0  0  0  0  3  0  0  0  0  0  0
  1  6  2  0  0  0  0
  1 14  1  0  0  0  0
  2  3  1  6  0  0  0
  2 13  1  0  0  0  0
  3  7  1  0  0  0  0
  4 11  2  0  0  0  0
  5 16  1  0  0  0  0
  5  2  1  0  0  0  0
  6 17  1  0  0  0  0
  7  4  1  1  0  0  0
  7 19  1  0  0  0  0
  8 21  1  0  0  0  0
  9  1  1  0  0  0  0
 11 15  1  0  0  0  0
 12  8  2  0  0  0  0
 13  8  1  0  0  0  0
 13 18  1  0  0  0  0
 14  5  2  0  0  0  0
 15 19  2  0  0  0  0
 16 12  1  0  0  0  0
 17 16  2  0  0  0  0
 18 10  1  0  0  0  0
 19 20  1  0  0  0  0
 20 10  1  0  0  0  0
 21 23  1  0  0  0  0
 22 23  2  0  0  0  0
 23 30  1  0  0  0  0
 24 27  1  0  0  0  0
 25 28  2  0  0  0  0
 26 29  1  0  0  0  0
 28 24  1  0  0  0  0
 29 31  1  0  0  0  0
 30 29  2  0  0  0  0
 30 25  1  0  0  0  0
 31 24  2  0  0  0  0
M  END
>  <MODEL>
3

>  <REMARK>
 VINA RESULT:      -8.3      3.706      6.914
  Name = 
  3 active torsions:
  status: ('A' for Active; 'I' for Inactive)
    1  A    between atoms: C_9  and  C_22
    2  A    between atoms: C_9  and  C_23
    3  A    between atoms: C_15  and  C_23
                            x       y       z     vdW  Elec       q    Type
                         _______ _______ _______ _____ _____    ______ ____

>  <TORSDO>
F 3

$$$$
=
 OpenBabel11052413053D

 31 35  0  0  1  0  0  0  0  0999 V2000
  183.3990  179.3140  139.3580 C   0  0  0  0  0  0  0  0  0  0  0  0
  186.9720  178.1870  138.7780 C   0  0  1  0  0  3  0  0  0  0  0  0
  186.8320  176.7200  138.3940 C   0  0  0  0  0  2  0  0  0  0  0  0
  186.6240  175.6000  136.1960 C   0  0  0  0  0  3  0  0  0  0  0  0
  185.7110  178.6380  139.4530 C   0  0  0  0  0  0  0  0  0  0  0  0
  183.3480  179.3090  140.7180 N   0  0  0  0  0  0  0  0  0  0  0  0
  187.2410  176.4640  136.9800 C   0  0  2  0  0  3  0  0  0  0  0  0
  187.9640  178.1830  141.1000 C   0  0  0  0  0  0  0  0  0  0  0  0
  182.2430  179.6580  138.6050 N   0  0  0  0  0  1  0  0  0  0  0  0
  189.9300  177.6620  138.1430 C   0  0  0  0  0  2  0  0  0  0  0  0
  187.3880  175.5100  134.9110 C   0  0  0  0  0  3  0  0  0  0  0  0
  186.7930  178.3360  141.6400 N   0  0  0  0  0  0  0  0  0  0  0  0
  188.1260  178.3380  139.6740 N   0  0  0  0  0  0  0  0  0  0  0  0
  184.5820  178.9700  138.6990 C   0  0  0  0  0  3  0  0  0  0  0  0
  188.5170  176.4110  135.1110 N   0  0  0  0  0  0  0  0  0  0  0  0
  185.6360  178.6420  140.8540 C   0  0  0  0  0  0  0  0  0  0  0  0
  184.4320  178.9840  141.4730 C   0  0  0  0  0  3  0  0  0  0  0  0
  189.4250  178.7110  139.1210 C   0  0  0  0  0  2  0  0  0  0  0  0
  188.4360  176.9270  136.2880 C   0  0  0  0  0  0  0  0  0  0  0  0
  189.3960  177.9710  136.7570 C   0  0  0  0  0  2  0  0  0  0  0  0
  189.1410  177.9200  141.9860 C   0  0  0  0  0  2  0  0  0  0  0  0
  188.6820  175.6590  142.5440 O   0  0  0  0  0  0  0  0  0  0  0  0
  188.8300  176.8360  142.9700 C   0  0  0  0  0  0  0  0  0  0  0  0
  188.3950  177.7470  147.1470 C   0  0  0  0  0  0  0  0  0  0  0  0
  187.4550  177.4390  144.9440 C   0  0  0  0  0  3  0  0  0  0  0  0
  191.4670  176.7330  144.7710 Cl  0  0  0  0  0  0  0  0  0  0  0  0
  188.1910  178.1220  148.8440 Cl  0  0  0  0  0  0  0  0  0  0  0  0
  187.2890  177.7390  146.2970 C   0  0  0  0  0  3  0  0  0  0  0  0
  189.8390  177.1480  145.2900 C   0  0  0  0  0  0  0  0  0  0  0  0
  188.7220  177.1420  144.4180 C   0  0  0  0  0  0  0  0  0  0  0  0
  189.6610  177.4490  146.6450 C   0  0  0  0  0  3  0  0  0  0  0  0
  1  6  1  0  0  0  0
  2  3  1  1  0  0  0
  2  5  1  0  0  0  0
  2 13  1  0  0  0  0
  5 16  2  0  0  0  0
  6 17  2  0  0  0  0
  7  4  1  1  0  0  0
  7  3  1  0  0  0  0
  8 12  2  0  0  0  0
  8 21  1  0  0  0  0
  9  1  1  0  0  0  0
 10 18  1  0  0  0  0
 11 15  1  0  0  0  0
 11  4  2  0  0  0  0
 13  8  1  0  0  0  0
 14  1  2  0  0  0  0
 14  5  1  0  0  0  0
 15 19  2  0  0  0  0
 16 17  1  0  0  0  0
 16 12  1  0  0  0  0
 18 13  1  0  0  0  0
 19 20  1  0  0  0  0
 19  7  1  0  0  0  0
 20 10  1  0  0  0  0
 21 23  1  0  0  0  0
 22 23  2  0  0  0  0
 23 30  1  0  0  0  0
 24 27  1  0  0  0  0
 25 28  1  0  0  0  0
 26 29  1  0  0  0  0
 28 24  2  0  0  0  0
 29 31  2  0  0  0  0
 30 25  2  0  0  0  0
 30 29  1  0  0  0  0
 31 24  1  0  0  0  0
M  END
>  <MODEL>
4

>  <REMARK>
 VINA RESULT:      -8.2      2.603      3.605
  Name = 
  3 active torsions:
  status: ('A' for Active; 'I' for Inactive)
    1  A    between atoms: C_9  and  C_22
    2  A    between atoms: C_9  and  C_23
    3  A    between atoms: C_15  and  C_23
                            x       y       z     vdW  Elec       q    Type
                         _______ _______ _______ _____ _____    ______ ____

>  <TORSDO>
F 3

$$$$
=
 OpenBabel11052413053D

 31 35  0  0  1  0  0  0  0  0999 V2000
  184.8530  178.4170  143.7350 C   0  0  0  0  0  0  0  0  0  0  0  0
  188.4000  177.5120  142.7450 C   0  0  1  0  0  3  0  0  0  0  0  0
  189.2600  178.4550  143.5760 C   0  0  0  0  0  2  0  0  0  0  0  0
  190.3200  178.1970  145.7990 C   0  0  0  0  0  3  0  0  0  0  0  0
  186.9970  178.0430  142.6990 C   0  0  0  0  0  0  0  0  0  0  0  0
  184.4740  179.1670  142.6660 N   0  0  0  0  0  0  0  0  0  0  0  0
  190.0810  177.7260  144.5900 C   0  0  0  0  0  0  0  0  0  0  0  0
  188.5740  178.3580  140.3730 C   0  0  0  0  0  0  0  0  0  0  0  0
  183.9560  178.2220  144.8210 N   0  0  0  0  0  1  0  0  0  0  0  0
  191.1330  176.3780  141.9260 C   0  0  0  0  0  2  0  0  0  0  0  0
  191.2830  177.2710  146.4770 C   0  0  0  0  0  2  0  0  0  0  0  0
  187.4520  179.0030  140.4820 N   0  0  0  0  0  0  0  0  0  0  0  0
  188.9660  177.4160  141.3940 N   0  0  0  0  0  0  0  0  0  0  0  0
  186.1280  177.8460  143.7750 C   0  0  0  0  0  3  0  0  0  0  0  0
  191.5600  176.2550  145.4690 N   0  0  0  0  0  0  0  0  0  0  0  0
  186.5850  178.8190  141.6060 C   0  0  0  0  0  0  0  0  0  0  0  0
  185.3050  179.3780  141.6090 C   0  0  0  0  0  3  0  0  0  0  0  0
  189.8770  176.3220  141.0700 C   0  0  0  0  0  2  0  0  0  0  0  0
  190.8950  176.5330  144.4020 C   0  0  0  0  0  0  0  0  0  0  0  0
  190.8910  175.6210  143.2190 C   0  0  0  0  0  2  0  0  0  0  0  0
  189.4060  178.5550  139.1450 C   0  0  0  0  0  2  0  0  0  0  0  0
  188.3300  179.4010  137.2060 O   0  0  0  0  0  0  0  0  0  0  0  0
  188.5750  178.3860  137.9110 C   0  0  0  0  0  0  0  0  0  0  0  0
  187.2420  174.4680  136.7540 C   0  0  0  0  0  0  0  0  0  0  0  0
  189.0120  176.0430  137.2220 C   0  0  0  0  0  3  0  0  0  0  0  0
  185.4220  177.8780  137.8340 Cl  0  0  0  0  0  0  0  0  0  0  0  0
  186.7250  172.8650  136.2800 Cl  0  0  0  0  0  0  0  0  0  0  0  0
  188.6020  174.7640  136.8430 C   0  0  0  0  0  3  0  0  0  0  0  0
  186.6950  176.7340  137.4300 C   0  0  0  0  0  0  0  0  0  0  0  0
  188.0740  177.0460  137.5190 C   0  0  0  0  0  0  0  0  0  0  0  0
  186.2950  175.4480  137.0510 C   0  0  0  0  0  3  0  0  0  0  0  0
  1 14  1  0  0  0  0
  1  9  1  0  0  0  0
  2  3  1  1  0  0  0
  3  7  1  0  0  0  0
  4 11  1  0  0  0  0
  5  2  1  0  0  0  0
  5 14  2  0  0  0  0
  6  1  2  0  0  0  0
  7  4  2  0  0  0  0
  8 12  2  0  0  0  0
  8 13  1  0  0  0  0
 10 20  1  0  0  0  0
 12 16  1  0  0  0  0
 13  2  1  0  0  0  0
 15 11  1  0  0  0  0
 16 17  2  0  0  0  0
 16  5  1  0  0  0  0
 17  6  1  0  0  0  0
 18 13  1  0  0  0  0
 18 10  1  0  0  0  0
 19  7  1  0  0  0  0
 19 15  2  0  0  0  0
 20 19  1  0  0  0  0
 21  8  1  0  0  0  0
 22 23  2  0  0  0  0
 23 21  1  0  0  0  0
 24 28  2  0  0  0  0
 24 31  1  0  0  0  0
 25 30  2  0  0  0  0
 27 24  1  0  0  0  0
 28 25  1  0  0  0  0
 29 30  1  0  0  0  0
 29 26  1  0  0  0  0
 30 23  1  0  0  0  0
 31 29  2  0  0  0  0
M  END
>  <MODEL>
5

>  <REMARK>
 VINA RESULT:      -8.0      3.966      7.375
  Name = 
  3 active torsions:
  status: ('A' for Active; 'I' for Inactive)
    1  A    between atoms: C_9  and  C_22
    2  A    between atoms: C_9  and  C_23
    3  A    between atoms: C_15  and  C_23
                            x       y       z     vdW  Elec       q    Type
                         _______ _______ _______ _____ _____    ______ ____

>  <TORSDO>
F 3

$$$$
=
 OpenBabel11052413053D

 31 35  0  0  1  0  0  0  0  0999 V2000
  182.4830  178.4260  141.0430 C   0  0  0  0  0  0  0  0  0  0  0  0
  185.8930  177.9970  142.6460 C   0  0  1  0  0  3  0  0  0  0  0  0
  186.0030  179.1890  143.5880 C   0  0  0  0  0  2  0  0  0  0  0  0
  185.4370  179.4580  145.9840 C   0  0  0  0  0  3  0  0  0  0  0  0
  184.8130  178.2690  141.6390 C   0  0  0  0  0  0  0  0  0  0  0  0
  182.8350  178.9290  139.8290 N   0  0  0  0  0  0  0  0  0  0  0  0
  186.0300  178.7730  145.0230 C   0  0  0  0  0  0  0  0  0  0  0  0
  187.4900  178.4870  140.7530 C   0  0  0  0  0  0  0  0  0  0  0  0
  181.1110  178.2510  141.3700 N   0  0  0  0  0  1  0  0  0  0  0  0
  188.5720  177.2320  143.9360 C   0  0  0  0  0  2  0  0  0  0  0  0
  185.7910  178.8230  147.2930 C   0  0  0  0  0  2  0  0  0  0  0  0
  186.5260  178.9410  140.0090 N   0  0  0  0  0  0  0  0  0  0  0  0
  187.1860  177.7930  141.9810 N   0  0  0  0  0  0  0  0  0  0  0  0
  183.4690  178.0940  141.9760 C   0  0  0  0  0  3  0  0  0  0  0  0
  186.6780  177.7270  146.9230 N   0  0  0  0  0  0  0  0  0  0  0  0
  185.1520  178.7860  140.3810 C   0  0  0  0  0  0  0  0  0  0  0  0
  184.1370  179.1140  139.4800 C   0  0  0  0  0  3  0  0  0  0  0  0
  188.1370  176.8330  142.5340 C   0  0  0  0  0  2  0  0  0  0  0  0
  186.8230  177.7210  145.6440 C   0  0  0  0  0  0  0  0  0  0  0  0
  187.5980  176.6520  144.9450 C   0  0  0  0  0  2  0  0  0  0  0  0
  188.9010  178.6320  140.2770 C   0  0  0  0  0  2  0  0  0  0  0  0
  188.9430  179.5520  138.0900 O   0  0  0  0  0  0  0  0  0  0  0  0
  188.9730  178.5030  138.7880 C   0  0  0  0  0  0  0  0  0  0  0  0
  189.4620  174.6300  136.9900 C   0  0  0  0  0  0  0  0  0  0  0  0
  190.2960  176.4540  138.3350 C   0  0  0  0  0  3  0  0  0  0  0  0
  186.5070  177.3440  137.1200 Cl  0  0  0  0  0  0  0  0  0  0  0  0
  189.6850  173.0520  136.2690 Cl  0  0  0  0  0  0  0  0  0  0  0  0
  190.4780  175.1960  137.7610 C   0  0  0  0  0  3  0  0  0  0  0  0
  188.0720  176.5830  137.3730 C   0  0  0  0  0  0  0  0  0  0  0  0
  189.1010  177.1680  138.1530 C   0  0  0  0  0  0  0  0  0  0  0  0
  188.2640  175.3210  136.8030 C   0  0  0  0  0  3  0  0  0  0  0  0
  1  9  1  0  0  0  0
  1 14  1  0  0  0  0
  2  3  1  1  0  0  0
  3  7  1  0  0  0  0
  4 11  1  0  0  0  0
  5 14  2  0  0  0  0
  5  2  1  0  0  0  0
  6  1  2  0  0  0  0
  7 19  1  0  0  0  0
  7  4  2  0  0  0  0
  8 13  1  0  0  0  0
 10 20  1  0  0  0  0
 12 16  1  0  0  0  0
 12  8  2  0  0  0  0
 13 18  1  0  0  0  0
 13  2  1  0  0  0  0
 15 11  1  0  0  0  0
 16  5  1  0  0  0  0
 17  6  1  0  0  0  0
 17 16  2  0  0  0  0
 18 10  1  0  0  0  0
 19 15  2  0  0  0  0
 20 19  1  0  0  0  0
 21  8  1  0  0  0  0
 22 23  2  0  0  0  0
 23 21  1  0  0  0  0
 24 28  1  0  0  0  0
 26 29  1  0  0  0  0
 27 24  1  0  0  0  0
 28 25  2  0  0  0  0
 29 30  2  0  0  0  0
 30 25  1  0  0  0  0
 30 23  1  0  0  0  0
 31 24  2  0  0  0  0
 31 29  1  0  0  0  0
M  END
>  <MODEL>
6

>  <REMARK>
 VINA RESULT:      -8.0      4.031      8.168
  Name = 
  3 active torsions:
  status: ('A' for Active; 'I' for Inactive)
    1  A    between atoms: C_9  and  C_22
    2  A    between atoms: C_9  and  C_23
    3  A    between atoms: C_15  and  C_23
                            x       y       z     vdW  Elec       q    Type
                         _______ _______ _______ _____ _____    ______ ____

>  <TORSDO>
F 3

$$$$
=
 OpenBabel11052413053D

 31 35  0  0  1  0  0  0  0  0999 V2000
  183.3670  177.8970  137.3840 C   0  0  0  0  0  0  0  0  0  0  0  0
  187.0980  177.2250  137.3390 C   0  0  1  0  0  3  0  0  0  0  0  0
  187.2000  175.7260  137.5890 C   0  0  0  0  0  2  0  0  0  0  0  0
  187.3140  173.7970  136.0410 C   0  0  0  0  0  3  0  0  0  0  0  0
  185.7390  177.7000  137.7620 C   0  0  0  0  0  0  0  0  0  0  0  0
  183.2200  178.4330  138.6260 N   0  0  0  0  0  0  0  0  0  0  0  0
  187.7410  174.9910  136.4060 C   0  0  2  0  0  3  0  0  0  0  0  0
  187.9110  178.3190  139.4640 C   0  0  0  0  0  0  0  0  0  0  0  0
  182.2300  177.7160  136.5490 N   0  0  0  0  0  1  0  0  0  0  0  0
  190.1390  176.9730  136.9930 C   0  0  0  0  0  2  0  0  0  0  0  0
  188.1740  173.3210  134.9110 C   0  0  0  0  0  3  0  0  0  0  0  0
  186.6940  178.4850  139.8870 N   0  0  0  0  0  0  0  0  0  0  0  0
  188.1510  177.9090  138.1010 N   0  0  0  0  0  0  0  0  0  0  0  0
  184.6320  177.5130  136.9310 C   0  0  0  0  0  3  0  0  0  0  0  0
  189.1420  174.3960  134.7310 N   0  0  0  0  0  0  0  0  0  0  0  0
  185.5650  178.2570  139.0370 C   0  0  0  0  0  0  0  0  0  0  0  0
  184.2830  178.6200  139.4550 C   0  0  0  0  0  3  0  0  0  0  0  0
  189.4180  178.2310  137.4520 C   0  0  0  0  0  2  0  0  0  0  0  0
  188.9030  175.3220  135.5930 C   0  0  0  0  0  0  0  0  0  0  0  0
  189.6660  176.6060  135.5980 C   0  0  0  0  0  2  0  0  0  0  0  0
  189.0460  178.6290  140.3870 C   0  0  0  0  0  2  0  0  0  0  0  0
  189.9210  176.4510  140.7420 O   0  0  0  0  0  0  0  0  0  0  0  0
  189.3570  177.4520  141.2590 C   0  0  0  0  0  0  0  0  0  0  0  0
  188.2790  177.5000  145.4190 C   0  0  0  0  0  0  0  0  0  0  0  0
  187.7280  177.1180  143.0990 C   0  0  0  0  0  3  0  0  0  0  0  0
  191.6330  178.2640  143.3490 Cl  0  0  0  0  0  0  0  0  0  0  0  0
  187.8160  177.5120  147.1060 Cl  0  0  0  0  0  0  0  0  0  0  0  0
  187.3550  177.1270  144.4440 C   0  0  0  0  0  3  0  0  0  0  0  0
  189.9610  177.8510  143.7040 C   0  0  0  0  0  0  0  0  0  0  0  0
  189.0260  177.4790  142.7050 C   0  0  0  0  0  0  0  0  0  0  0  0
  189.5770  177.8560  145.0490 C   0  0  0  0  0  3  0  0  0  0  0  0
  1  6  1  0  0  0  0
  2  3  1  1  0  0  0
  2  5  1  0  0  0  0
  2 13  1  0  0  0  0
  5 16  2  0  0  0  0
  6 17  2  0  0  0  0
  7  4  1  1  0  0  0
  7  3  1  0  0  0  0
  8 12  2  0  0  0  0
  8 21  1  0  0  0  0
  9  1  1  0  0  0  0
 10 18  1  0  0  0  0
 11  4  2  0  0  0  0
 13  8  1  0  0  0  0
 14  1  2  0  0  0  0
 14  5  1  0  0  0  0
 15 11  1  0  0  0  0
 15 19  2  0  0  0  0
 16 17  1  0  0  0  0
 16 12  1  0  0  0  0
 18 13  1  0  0  0  0
 19 20  1  0  0  0  0
 19  7  1  0  0  0  0
 20 10  1  0  0  0  0
 21 23  1  0  0  0  0
 22 23  2  0  0  0  0
 23 30  1  0  0  0  0
 24 27  1  0  0  0  0
 25 28  1  0  0  0  0
 26 29  1  0  0  0  0
 28 24  2  0  0  0  0
 29 31  2  0  0  0  0
 30 25  2  0  0  0  0
 30 29  1  0  0  0  0
 31 24  1  0  0  0  0
M  END
>  <MODEL>
7

>  <REMARK>
 VINA RESULT:      -7.9      2.469      3.355
  Name = 
  3 active torsions:
  status: ('A' for Active; 'I' for Inactive)
    1  A    between atoms: C_9  and  C_22
    2  A    between atoms: C_9  and  C_23
    3  A    between atoms: C_15  and  C_23
                            x       y       z     vdW  Elec       q    Type
                         _______ _______ _______ _____ _____    ______ ____

>  <TORSDO>
F 3

$$$$
=
 OpenBabel11052413053D

 31 35  0  0  1  0  0  0  0  0999 V2000
  191.2500  176.9050  145.7830 C   0  0  0  0  0  0  0  0  0  0  0  0
  188.3810  177.8570  143.4940 C   0  0  1  0  0  3  0  0  0  0  0  0
  187.2300  176.9810  143.9720 C   0  0  0  0  0  2  0  0  0  0  0  0
  185.4240  177.3790  145.6180 C   0  0  0  0  0  3  0  0  0  0  0  0
  189.6730  177.2860  144.0010 C   0  0  0  0  0  0  0  0  0  0  0  0
  191.9700  176.0910  144.9640 N   0  0  0  0  0  0  0  0  0  0  0  0
  186.1220  177.7830  144.5730 C   0  0  0  0  0  0  0  0  0  0  0  0
  189.0750  176.8990  141.2640 C   0  0  0  0  0  0  0  0  0  0  0  0
  191.6800  177.1280  147.1200 N   0  0  0  0  0  1  0  0  0  0  0  0
  186.2120  179.0250  141.6620 C   0  0  0  0  0  2  0  0  0  0  0  0
  184.3200  178.3650  145.8480 C   0  0  0  0  0  2  0  0  0  0  0  0
  190.0440  176.2290  141.8120 N   0  0  0  0  0  0  0  0  0  0  0  0
  188.3710  177.9020  142.0270 N   0  0  0  0  0  0  0  0  0  0  0  0
  190.0810  177.5120  145.3180 C   0  0  0  0  0  3  0  0  0  0  0  0
  184.4880  179.3370  144.7750 N   0  0  0  0  0  0  0  0  0  0  0  0
  190.4320  176.4450  143.1730 C   0  0  0  0  0  0  0  0  0  0  0  0
  191.5890  175.8510  143.6800 C   0  0  0  0  0  3  0  0  0  0  0  0
  187.6980  179.0030  141.3430 C   0  0  0  0  0  2  0  0  0  0  0  0
  185.4930  178.9870  144.0490 C   0  0  0  0  0  0  0  0  0  0  0  0
  185.9830  179.8380  142.9230 C   0  0  0  0  0  2  0  0  0  0  0  0
  188.7590  176.6640  139.8210 C   0  0  0  0  0  2  0  0  0  0  0  0
  189.5250  178.6830  138.8360 O   0  0  0  0  0  0  0  0  0  0  0  0
  189.6910  177.4390  138.9420 C   0  0  0  0  0  0  0  0  0  0  0  0
  192.8160  175.4160  136.7950 C   0  0  0  0  0  0  0  0  0  0  0  0
  190.5180  176.1260  137.0060 C   0  0  0  0  0  3  0  0  0  0  0  0
  192.6190  177.5030  140.2180 Cl  0  0  0  0  0  0  0  0  0  0  0  0
  194.0710  174.5850  135.9030 Cl  0  0  0  0  0  0  0  0  0  0  0  0
  191.5160  175.4630  136.2920 C   0  0  0  0  0  3  0  0  0  0  0  0
  192.1240  176.7060  138.7310 C   0  0  0  0  0  0  0  0  0  0  0  0
  190.7980  176.7540  138.2300 C   0  0  0  0  0  0  0  0  0  0  0  0
  193.1170  176.0390  138.0070 C   0  0  0  0  0  3  0  0  0  0  0  0
  1  9  1  0  0  0  0
  2  3  1  6  0  0  0
  2  5  1  0  0  0  0
  3  7  1  0  0  0  0
  4 11  1  0  0  0  0
  5 14  2  0  0  0  0
  6  1  2  0  0  0  0
  7  4  2  0  0  0  0
  8 12  2  0  0  0  0
  8 13  1  0  0  0  0
 10 20  1  0  0  0  0
 12 16  1  0  0  0  0
 13  2  1  0  0  0  0
 14  1  1  0  0  0  0
 15 11  1  0  0  0  0
 16 17  2  0  0  0  0
 16  5  1  0  0  0  0
 17  6  1  0  0  0  0
 18 10  1  0  0  0  0
 18 13  1  0  0  0  0
 19  7  1  0  0  0  0
 19 15  2  0  0  0  0
 20 19  1  0  0  0  0
 21  8  1  0  0  0  0
 22 23  2  0  0  0  0
 23 21  1  0  0  0  0
 24 31  1  0  0  0  0
 25 30  2  0  0  0  0
 27 24  1  0  0  0  0
 28 24  2  0  0  0  0
 28 25  1  0  0  0  0
 29 26  1  0  0  0  0
 30 29  1  0  0  0  0
 30 23  1  0  0  0  0
 31 29  2  0  0  0  0
M  END
>  <MODEL>
8

>  <REMARK>
 VINA RESULT:      -7.6      3.407      8.538
  Name = 
  3 active torsions:
  status: ('A' for Active; 'I' for Inactive)
    1  A    between atoms: C_9  and  C_22
    2  A    between atoms: C_9  and  C_23
    3  A    between atoms: C_15  and  C_23
                            x       y       z     vdW  Elec       q    Type
                         _______ _______ _______ _____ _____    ______ ____

>  <TORSDO>
F 3

$$$$
=
 OpenBabel11052413053D

 31 35  0  0  1  0  0  0  0  0999 V2000
  180.3640  180.2080  138.7960 C   0  0  0  0  0  0  0  0  0  0  0  0
  183.8470  178.7590  139.1780 C   0  0  1  0  0  3  0  0  0  0  0  0
  183.7500  177.3980  138.5010 C   0  0  0  0  0  2  0  0  0  0  0  0
  184.2170  176.6720  136.1800 C   0  0  0  0  0  3  0  0  0  0  0  0
  182.4640  179.2490  139.4900 C   0  0  0  0  0  0  0  0  0  0  0  0
  179.8620  179.9960  140.0430 N   0  0  0  0  0  0  0  0  0  0  0  0
  184.5910  177.3210  137.2680 C   0  0  2  0  0  3  0  0  0  0  0  0
  184.0040  178.2700  141.6500 C   0  0  0  0  0  0  0  0  0  0  0  0
  179.5500  180.8030  137.7940 N   0  0  0  0  0  1  0  0  0  0  0  0
  186.8080  177.9840  139.4280 C   0  0  0  0  0  2  0  0  0  0  0  0
  185.3600  176.6920  135.2120 C   0  0  0  0  0  3  0  0  0  0  0  0
  182.7320  178.4770  141.8090 N   0  0  0  0  0  0  0  0  0  0  0  0
  184.6430  178.6260  140.4050 N   0  0  0  0  0  0  0  0  0  0  0  0
  181.6750  179.8300  138.4940 C   0  0  0  0  0  3  0  0  0  0  0  0
  186.4120  177.4070  135.9250 N   0  0  0  0  0  0  0  0  0  0  0  0
  181.9260  179.0420  140.7690 C   0  0  0  0  0  0  0  0  0  0  0  0
  180.6090  179.4260  141.0270 C   0  0  0  0  0  3  0  0  0  0  0  0
  186.0720  178.9200  140.3740 C   0  0  0  0  0  2  0  0  0  0  0  0
  185.9750  177.7370  137.0910 C   0  0  0  0  0  0  0  0  0  0  0  0
  186.7870  178.5700  138.0280 C   0  0  0  0  0  2  0  0  0  0  0  0
  184.7980  177.7300  142.7970 C   0  0  0  0  0  2  0  0  0  0  0  0
  184.6740  179.9740  143.5600 O   0  0  0  0  0  0  0  0  0  0  0  0
  185.1270  178.8180  143.7720 C   0  0  0  0  0  0  0  0  0  0  0  0
  187.4260  178.0420  147.3190 C   0  0  0  0  0  0  0  0  0  0  0  0
  185.4530  178.9100  146.2300 C   0  0  0  0  0  3  0  0  0  0  0  0
  187.9170  177.3060  143.4040 Cl  0  0  0  0  0  0  0  0  0  0  0  0
  188.3430  177.7380  148.7780 Cl  0  0  0  0  0  0  0  0  0  0  0  0
  186.1820  178.6690  147.3950 C   0  0  0  0  0  3  0  0  0  0  0  0
  187.2120  177.8870  144.9060 C   0  0  0  0  0  0  0  0  0  0  0  0
  185.9490  178.5290  144.9730 C   0  0  0  0  0  0  0  0  0  0  0  0
  187.9340  177.6500  146.0810 C   0  0  0  0  0  3  0  0  0  0  0  0
  1  6  1  0  0  0  0
  2  3  1  1  0  0  0
  2  5  1  0  0  0  0
  2 13  1  0  0  0  0
  5 16  2  0  0  0  0
  6 17  2  0  0  0  0
  7  4  1  1  0  0  0
  7  3  1  0  0  0  0
  8 12  2  0  0  0  0
  8 21  1  0  0  0  0
  9  1  1  0  0  0  0
 10 18  1  0  0  0  0
 11 15  1  0  0  0  0
 11  4  2  0  0  0  0
 13  8  1  0  0  0  0
 14  1  2  0  0  0  0
 14  5  1  0  0  0  0
 15 19  2  0  0  0  0
 16 17  1  0  0  0  0
 16 12  1  0  0  0  0
 18 13  1  0  0  0  0
 19  7  1  0  0  0  0
 19 20  1  0  0  0  0
 20 10  1  0  0  0  0
 21 23  1  0  0  0  0
 22 23  2  0  0  0  0
 23 30  1  0  0  0  0
 24 28  1  0  0  0  0
 24 27  1  0  0  0  0
 25 28  2  0  0  0  0
 26 29  1  0  0  0  0
 29 30  2  0  0  0  0
 29 31  1  0  0  0  0
 30 25  1  0  0  0  0
 31 24  2  0  0  0  0
M  END
>  <MODEL>
9

>  <REMARK>
 VINA RESULT:      -7.4      4.655      6.394
  Name = 
  3 active torsions:
  status: ('A' for Active; 'I' for Inactive)
    1  A    between atoms: C_9  and  C_22
    2  A    between atoms: C_9  and  C_23
    3  A    between atoms: C_15  and  C_23
                            x       y       z     vdW  Elec       q    Type
                         _______ _______ _______ _____ _____    ______ ____

>  <TORSDO>
F 3

$$$$
