=
 OpenBabel11052415283D

 37 38  0  0  1  0  0  0  0  0999 V2000
  190.3710  177.6410  138.1510 O   0  0  0  0  0  0  0  0  0  0  0  0
  187.0210  174.7750  137.0730 C   0  0  0  0  0  2  0  0  0  0  0  0
  190.8960  176.3890  138.5710 C   0  0  2  0  0  3  0  0  0  0  0  0
  188.3710  175.4840  137.0420 C   0  0  1  0  0  3  0  0  0  0  0  0
  188.3030  176.6300  137.8430 O   0  0  0  0  0  0  0  0  0  0  0  0
  189.4870  174.5380  137.5310 C   0  0  1  0  0  3  0  0  0  0  0  0
  188.1740  172.5680  136.6910 C   0  0  0  0  0  2  0  0  0  0  0  0
  189.2550  177.4990  137.2960 C   0  0  1  0  0  3  0  0  0  0  0  0
  189.5180  173.2870  136.6490 C   0  0  0  0  0  2  0  0  0  0  0  0
  190.8590  175.2380  137.5370 C   0  0  2  0  0  3  0  0  0  0  0  0
  187.0630  173.5050  136.2200 C   0  0  1  0  0  3  0  0  0  0  0  0
  185.7080  172.8010  136.1980 C   0  0  0  0  0  2  0  0  0  0  0  0
  184.9680  172.9210  137.5240 C   0  0  0  0  0  1  0  0  0  0  0  0
  188.6170  178.8560  137.0510 C   0  0  0  0  0  2  0  0  0  0  0  0
  187.2480  178.6850  136.4190 C   0  0  0  0  0  1  0  0  0  0  0  0
  190.3530  176.0090  139.8020 O   0  0  0  0  0  0  0  0  0  0  0  0
  190.5880  177.0960  140.6470 C   0  0  0  0  0  2  0  0  0  0  0  0
  190.1080  176.7740  142.0510 C   0  0  0  0  0  2  0  0  0  0  0  0
  188.6370  177.1170  142.1960 C   0  0  0  0  0  2  0  0  0  0  0  0
  188.0370  176.3880  143.3860 C   0  0  0  0  0  2  0  0  0  0  0  0
  187.9800  177.2880  144.6220 C   0  0  1  0  0  3  0  0  0  0  0  0
  186.5770  177.6730  145.1030 C   0  0  0  0  0  2  0  0  0  0  0  0
  186.6100  178.1770  146.3930 F   0  0  0  0  0  0  0  0  0  0  0  0
  188.8960  176.9170  145.6420 O   0  0  0  0  0  0  0  0  0  0  0  0
  191.3280  176.9020  145.5720 C   0  0  0  0  0  1  0  0  0  0  0  0
  190.0550  178.7890  144.7910 F   0  0  0  0  0  0  0  0  0  0  0  0
  190.0580  177.7290  145.6850 C   0  0  1  0  0  3  0  0  0  0  0  0
  191.8720  174.3120  137.8610 O   0  0  0  0  0  0  0  0  0  0  0  0
  193.0090  174.4640  137.0200 C   0  0  1  0  0  0  0  0  0  0  0  0
  193.3640  173.1670  136.2890 C   0  0  0  0  0  1  0  0  0  0  0  0
  192.8640  175.6420  136.0320 C   0  0  0  0  0  2  0  0  0  0  0  0
  194.1700  176.3510  135.6950 C   0  0  0  0  0  1  0  0  0  0  0  0
  194.2130  174.7660  137.9170 C   0  0  0  0  0  2  0  0  0  0  0  0
  195.1200  173.5590  138.1690 C   0  0  0  0  0  2  0  0  0  0  0  0
  196.5460  173.9790  138.5060 C   0  0  0  0  0  2  0  0  0  0  0  0
  197.6450  174.9080  136.4680 C   0  0  0  0  0  1  0  0  0  0  0  0
  197.4980  173.6870  137.3570 C   0  0  0  0  0  2  0  0  0  0  0  0
  1  3  1  0  0  0  0
  3 16  1  1  0  0  0
  4  2  1  1  0  0  0
  4  6  1  0  0  0  0
  4  5  1  0  0  0  0
  6  9  1  6  0  0  0
  6 10  1  0  0  0  0
  8 14  1  1  0  0  0
  8  5  1  0  0  0  0
  8  1  1  0  0  0  0
  9  7  1  0  0  0  0
 10 28  1  1  0  0  0
 10  3  1  0  0  0  0
 11 12  1  1  0  0  0
 11  7  1  0  0  0  0
 11  2  1  0  0  0  0
 12 13  1  0  0  0  0
 15 14  1  0  0  0  0
 16 17  1  0  0  0  0
 17 18  1  0  0  0  0
 18 19  1  0  0  0  0
 19 20  1  0  0  0  0
 21 20  1  6  0  0  0
 21 22  1  0  0  0  0
 21 24  1  0  0  0  0
 22 23  1  0  0  0  0
 24 27  1  0  0  0  0
 26 27  1  0  0  0  0
 27 25  1  6  0  0  0
 29 30  1  6  0  0  0
 29 28  1  0  0  0  0
 29 33  1  0  0  0  0
 31 29  1  0  0  0  0
 32 31  1  0  0  0  0
 33 34  1  0  0  0  0
 34 35  1  0  0  0  0
 36 37  1  0  0  0  0
 37 35  1  0  0  0  0
M  END
>  <MODEL>
1

>  <REMARK>
 VINA RESULT:      -6.0      0.000      0.000
  Name = 
  18 active torsions:
  status: ('A' for Active; 'I' for Inactive)
    1  A    between atoms: C_1  and  C_5
    2  A    between atoms: C_1  and  C_17
    3  A    between atoms: C_1  and  O_36
    4  A    between atoms: O_2  and  C_6
    5  A    between atoms: O_2  and  C_35
    6  A    between atoms: C_3  and  C_32
    7  A    between atoms: C_6  and  C_8
    8  A    between atoms: C_6  and  C_31
    9  A    between atoms: C_7  and  O_14
   10  A    between atoms: C_7  and  C_27
   11  A    between atoms: C_10  and  O_14
   12  A    between atoms: C_17  and  C_33
   13  A    between atoms: C_22  and  C_24
   14  A    between atoms: C_26  and  C_33
   15  A    between atoms: C_26  and  C_34
   16  A    between atoms: C_27  and  C_37
   17  A    between atoms: C_29  and  O_36
   18  A    between atoms: C_31  and  C_37
                            x       y       z     vdW  Elec       q    Type
                         _______ _______ _______ _____ _____    ______ ____

>  <TORSDO>
F 18

$$$$
=
 OpenBabel11052415283D

 37 38  0  0  1  0  0  0  0  0999 V2000
  188.9520  178.0920  137.5260 O   0  0  0  0  0  0  0  0  0  0  0  0
  186.4840  174.3640  136.7370 C   0  0  0  0  0  2  0  0  0  0  0  0
  189.6430  177.1040  138.2800 C   0  0  2  0  0  3  0  0  0  0  0  0
  187.6480  175.3500  136.7060 C   0  0  1  0  0  3  0  0  0  0  0  0
  187.2150  176.5830  137.2110 O   0  0  0  0  0  0  0  0  0  0  0  0
  188.8350  174.8070  137.5280 C   0  0  1  0  0  3  0  0  0  0  0  0
  188.1100  172.4600  137.0080 C   0  0  0  0  0  2  0  0  0  0  0  0
  188.0470  177.5270  136.5990 C   0  0  1  0  0  3  0  0  0  0  0  0
  189.2670  173.4520  136.9640 C   0  0  0  0  0  2  0  0  0  0  0  0
  190.0150  175.7980  137.5380 C   0  0  2  0  0  3  0  0  0  0  0  0
  186.9260  172.9990  136.2060 C   0  0  1  0  0  3  0  0  0  0  0  0
  185.7670  172.0050  136.1850 C   0  0  0  0  0  2  0  0  0  0  0  0
  184.6090  172.4420  137.0720 C   0  0  0  0  0  1  0  0  0  0  0  0
  187.1960  178.6210  135.9760 C   0  0  0  0  0  2  0  0  0  0  0  0
  186.6680  178.1710  134.6270 C   0  0  0  0  0  1  0  0  0  0  0  0
  188.9910  176.8550  139.4910 O   0  0  0  0  0  0  0  0  0  0  0  0
  189.1200  178.0420  140.2170 C   0  0  0  0  0  2  0  0  0  0  0  0
  188.2580  177.9830  141.4640 C   0  0  0  0  0  2  0  0  0  0  0  0
  188.7210  176.8580  142.3720 C   0  0  0  0  0  2  0  0  0  0  0  0
  188.8700  177.3560  143.8000 C   0  0  0  0  0  2  0  0  0  0  0  0
  190.3410  177.4340  144.2140 C   0  0  1  0  0  3  0  0  0  0  0  0
  191.1840  178.4890  143.4910 C   0  0  0  0  0  2  0  0  0  0  0  0
  190.9320  179.7580  143.9860 F   0  0  0  0  0  0  0  0  0  0  0  0
  190.5440  177.3450  145.6170 O   0  0  0  0  0  0  0  0  0  0  0  0
  191.6030  176.0810  147.4060 C   0  0  0  0  0  1  0  0  0  0  0  0
  192.0270  175.5860  145.0890 F   0  0  0  0  0  0  0  0  0  0  0  0
  191.6920  176.5950  145.9790 C   0  0  1  0  0  3  0  0  0  0  0  0
  191.1260  175.2180  138.1830 O   0  0  0  0  0  0  0  0  0  0  0  0
  192.2990  175.3020  137.3830 C   0  0  1  0  0  0  0  0  0  0  0  0
  191.9880  175.7280  135.9460 C   0  0  0  0  0  1  0  0  0  0  0  0
  193.3850  176.2030  138.0110 C   0  0  0  0  0  2  0  0  0  0  0  0
  192.9770  176.8680  139.3200 C   0  0  0  0  0  1  0  0  0  0  0  0
  192.8850  173.8920  137.2700 C   0  0  0  0  0  2  0  0  0  0  0  0
  194.4120  173.8590  137.1560 C   0  0  0  0  0  2  0  0  0  0  0  0
  195.0650  173.3240  138.4250 C   0  0  0  0  0  2  0  0  0  0  0  0
  196.9360  174.5190  137.2850 C   0  0  0  0  0  1  0  0  0  0  0  0
  196.5530  173.6420  138.4620 C   0  0  0  0  0  2  0  0  0  0  0  0
  1  3  1  0  0  0  0
  3 16  1  1  0  0  0
  4  2  1  1  0  0  0
  4  5  1  0  0  0  0
  4  6  1  0  0  0  0
  6  9  1  6  0  0  0
  6 10  1  0  0  0  0
  8 14  1  1  0  0  0
  8  5  1  0  0  0  0
  8  1  1  0  0  0  0
  9  7  1  0  0  0  0
 10 28  1  1  0  0  0
 10  3  1  0  0  0  0
 11 12  1  1  0  0  0
 11  2  1  0  0  0  0
 11  7  1  0  0  0  0
 12 13  1  0  0  0  0
 15 14  1  0  0  0  0
 16 17  1  0  0  0  0
 17 18  1  0  0  0  0
 18 19  1  0  0  0  0
 19 20  1  0  0  0  0
 20 21  1  0  0  0  0
 21 22  1  1  0  0  0
 21 24  1  0  0  0  0
 22 23  1  0  0  0  0
 24 27  1  0  0  0  0
 26 27  1  0  0  0  0
 27 25  1  1  0  0  0
 29 30  1  6  0  0  0
 29 31  1  0  0  0  0
 29 28  1  0  0  0  0
 31 32  1  0  0  0  0
 33 29  1  0  0  0  0
 34 33  1  0  0  0  0
 34 35  1  0  0  0  0
 35 37  1  0  0  0  0
 36 37  1  0  0  0  0
M  END
>  <MODEL>
2

>  <REMARK>
 VINA RESULT:      -5.6      1.484      2.058
  Name = 
  18 active torsions:
  status: ('A' for Active; 'I' for Inactive)
    1  A    between atoms: C_1  and  C_5
    2  A    between atoms: C_1  and  C_17
    3  A    between atoms: C_1  and  O_36
    4  A    between atoms: O_2  and  C_6
    5  A    between atoms: O_2  and  C_35
    6  A    between atoms: C_3  and  C_32
    7  A    between atoms: C_6  and  C_8
    8  A    between atoms: C_6  and  C_31
    9  A    between atoms: C_7  and  O_14
   10  A    between atoms: C_7  and  C_27
   11  A    between atoms: C_10  and  O_14
   12  A    between atoms: C_17  and  C_33
   13  A    between atoms: C_22  and  C_24
   14  A    between atoms: C_26  and  C_33
   15  A    between atoms: C_26  and  C_34
   16  A    between atoms: C_27  and  C_37
   17  A    between atoms: C_29  and  O_36
   18  A    between atoms: C_31  and  C_37
                            x       y       z     vdW  Elec       q    Type
                         _______ _______ _______ _____ _____    ______ ____

>  <TORSDO>
F 18

$$$$
=
 OpenBabel11052415283D

 37 38  0  0  1  0  0  0  0  0999 V2000
  189.8080  177.7020  137.8280 O   0  0  0  0  0  0  0  0  0  0  0  0
  186.8940  174.3040  137.0740 C   0  0  0  0  0  2  0  0  0  0  0  0
  190.6180  176.5540  138.0440 C   0  0  2  0  0  3  0  0  0  0  0  0
  188.0660  175.2620  136.8820 C   0  0  1  0  0  3  0  0  0  0  0  0
  187.9360  176.3280  137.7800 O   0  0  0  0  0  0  0  0  0  0  0  0
  189.4040  174.5240  137.0940 C   0  0  1  0  0  3  0  0  0  0  0  0
  188.3400  172.3870  136.3150 C   0  0  0  0  0  2  0  0  0  0  0  0
  188.6010  177.3930  137.1610 C   0  0  1  0  0  3  0  0  0  0  0  0
  189.5020  173.3530  136.1140 C   0  0  0  0  0  2  0  0  0  0  0  0
  190.6050  175.4760  136.9340 C   0  0  2  0  0  3  0  0  0  0  0  0
  187.0120  173.1150  136.1180 C   0  0  1  0  0  3  0  0  0  0  0  0
  185.8260  172.1630  136.2610 C   0  0  0  0  0  2  0  0  0  0  0  0
  184.8420  172.6150  137.3320 C   0  0  0  0  0  1  0  0  0  0  0  0
  187.6950  178.6120  137.1440 C   0  0  0  0  0  2  0  0  0  0  0  0
  186.3170  178.2490  137.6670 C   0  0  0  0  0  1  0  0  0  0  0  0
  190.3820  176.0100  139.3110 O   0  0  0  0  0  0  0  0  0  0  0  0
  190.5150  177.0850  140.1920 C   0  0  0  0  0  2  0  0  0  0  0  0
  190.3590  176.6040  141.6230 C   0  0  0  0  0  2  0  0  0  0  0  0
  190.1210  177.7810  142.5510 C   0  0  0  0  0  2  0  0  0  0  0  0
  190.3130  177.3610  143.9990 C   0  0  0  0  0  2  0  0  0  0  0  0
  189.0200  177.5190  144.8020 C   0  0  1  0  0  3  0  0  0  0  0  0
  187.7180  177.3170  144.0190 C   0  0  0  0  0  2  0  0  0  0  0  0
  187.5740  176.0000  143.6170 F   0  0  0  0  0  0  0  0  0  0  0  0
  189.0640  176.9070  146.0820 O   0  0  0  0  0  0  0  0  0  0  0  0
  187.7400  177.9930  147.8100 C   0  0  0  0  0  1  0  0  0  0  0  0
  190.0960  177.5930  148.0910 F   0  0  0  0  0  0  0  0  0  0  0  0
  189.1010  177.8340  147.1560 C   0  0  1  0  0  3  0  0  0  0  0  0
  191.8100  174.7470  137.0050 O   0  0  0  0  0  0  0  0  0  0  0  0
  192.7050  175.1130  135.9610 C   0  0  1  0  0  0  0  0  0  0  0  0
  191.9860  175.8070  134.8010 C   0  0  0  0  0  1  0  0  0  0  0  0
  193.8950  175.9590  136.4670 C   0  0  0  0  0  2  0  0  0  0  0  0
  194.9770  176.2160  135.4250 C   0  0  0  0  0  1  0  0  0  0  0  0
  193.2800  173.8230  135.3690 C   0  0  0  0  0  2  0  0  0  0  0  0
  193.4890  172.7060  136.3950 C   0  0  0  0  0  2  0  0  0  0  0  0
  194.8890  172.1090  136.3080 C   0  0  0  0  0  2  0  0  0  0  0  0
  195.1930  173.2160  138.5240 C   0  0  0  0  0  1  0  0  0  0  0  0
  195.8650  172.8440  137.2150 C   0  0  0  0  0  2  0  0  0  0  0  0
  1  3  1  0  0  0  0
  3 16  1  1  0  0  0
  4  2  1  1  0  0  0
  4  6  1  0  0  0  0
  4  5  1  0  0  0  0
  6  9  1  6  0  0  0
  8 14  1  1  0  0  0
  8  5  1  0  0  0  0
  8  1  1  0  0  0  0
  9  7  1  0  0  0  0
 10 28  1  1  0  0  0
 10  6  1  0  0  0  0
 10  3  1  0  0  0  0
 11 12  1  1  0  0  0
 11  7  1  0  0  0  0
 11  2  1  0  0  0  0
 12 13  1  0  0  0  0
 14 15  1  0  0  0  0
 16 17  1  0  0  0  0
 17 18  1  0  0  0  0
 18 19  1  0  0  0  0
 19 20  1  0  0  0  0
 21 20  1  6  0  0  0
 21 24  1  0  0  0  0
 22 21  1  0  0  0  0
 23 22  1  0  0  0  0
 24 27  1  0  0  0  0
 27 25  1  1  0  0  0
 27 26  1  0  0  0  0
 29 30  1  6  0  0  0
 29 31  1  0  0  0  0
 29 28  1  0  0  0  0
 32 31  1  0  0  0  0
 33 29  1  0  0  0  0
 33 34  1  0  0  0  0
 35 34  1  0  0  0  0
 35 37  1  0  0  0  0
 37 36  1  0  0  0  0
M  END
>  <MODEL>
3

>  <REMARK>
 VINA RESULT:      -5.6      1.340      1.855
  Name = 
  18 active torsions:
  status: ('A' for Active; 'I' for Inactive)
    1  A    between atoms: C_1  and  C_5
    2  A    between atoms: C_1  and  C_17
    3  A    between atoms: C_1  and  O_36
    4  A    between atoms: O_2  and  C_6
    5  A    between atoms: O_2  and  C_35
    6  A    between atoms: C_3  and  C_32
    7  A    between atoms: C_6  and  C_8
    8  A    between atoms: C_6  and  C_31
    9  A    between atoms: C_7  and  O_14
   10  A    between atoms: C_7  and  C_27
   11  A    between atoms: C_10  and  O_14
   12  A    between atoms: C_17  and  C_33
   13  A    between atoms: C_22  and  C_24
   14  A    between atoms: C_26  and  C_33
   15  A    between atoms: C_26  and  C_34
   16  A    between atoms: C_27  and  C_37
   17  A    between atoms: C_29  and  O_36
   18  A    between atoms: C_31  and  C_37
                            x       y       z     vdW  Elec       q    Type
                         _______ _______ _______ _____ _____    ______ ____

>  <TORSDO>
F 18

$$$$
=
 OpenBabel11052415283D

 37 38  0  0  1  0  0  0  0  0999 V2000
  182.3600  177.7880  138.4960 O   0  0  0  0  0  0  0  0  0  0  0  0
  180.7940  181.4390  136.3000 C   0  0  0  0  0  2  0  0  0  0  0  0
  182.4200  178.7950  139.4980 C   0  0  2  0  0  3  0  0  0  0  0  0
  180.8630  180.2700  137.2780 C   0  0  1  0  0  3  0  0  0  0  0  0
  181.9290  179.4370  136.9180 O   0  0  0  0  0  0  0  0  0  0  0  0
  181.0320  180.7860  138.7220 C   0  0  1  0  0  3  0  0  0  0  0  0
  179.8020  182.8870  138.1060 C   0  0  0  0  0  2  0  0  0  0  0  0
  181.5630  178.1720  137.3930 C   0  0  1  0  0  3  0  0  0  0  0  0
  179.8640  181.7100  139.0730 C   0  0  0  0  0  2  0  0  0  0  0  0
  181.1340  179.6240  139.7280 C   0  0  2  0  0  3  0  0  0  0  0  0
  179.6480  182.3820  136.6730 C   0  0  1  0  0  3  0  0  0  0  0  0
  179.5290  183.5370  135.6810 C   0  0  0  0  0  2  0  0  0  0  0  0
  180.7520  184.4450  135.6960 C   0  0  0  0  0  1  0  0  0  0  0  0
  181.7050  177.1520  136.2760 C   0  0  0  0  0  2  0  0  0  0  0  0
  182.8400  177.5450  135.3480 C   0  0  0  0  0  1  0  0  0  0  0  0
  183.5460  179.6050  139.3230 O   0  0  0  0  0  0  0  0  0  0  0  0
  184.6350  178.7500  139.5090 C   0  0  0  0  0  2  0  0  0  0  0  0
  185.2370  178.9710  140.8840 C   0  0  0  0  0  2  0  0  0  0  0  0
  186.7020  178.5730  140.8880 C   0  0  0  0  0  2  0  0  0  0  0  0
  187.1480  178.2030  142.2920 C   0  0  0  0  0  2  0  0  0  0  0  0
  188.2350  177.1270  142.2680 C   0  0  1  0  0  3  0  0  0  0  0  0
  189.5360  177.5070  141.5540 C   0  0  0  0  0  2  0  0  0  0  0  0
  190.2080  176.3830  141.1030 F   0  0  0  0  0  0  0  0  0  0  0  0
  188.3920  176.4470  143.5040 O   0  0  0  0  0  0  0  0  0  0  0  0
  188.7570  177.4150  145.7060 C   0  0  0  0  0  1  0  0  0  0  0  0
  190.5260  176.3090  144.5050 F   0  0  0  0  0  0  0  0  0  0  0  0
  189.3550  177.0390  144.3610 C   0  0  1  0  0  3  0  0  0  0  0  0
  181.1560  180.1270  141.0450 O   0  0  0  0  0  0  0  0  0  0  0  0
  180.2510  179.4240  141.8890 C   0  0  1  0  0  0  0  0  0  0  0  0
  179.6320  180.3320  142.9550 C   0  0  0  0  0  1  0  0  0  0  0  0
  179.1620  178.6700  141.0950 C   0  0  0  0  0  2  0  0  0  0  0  0
  179.2830  177.1520  141.1380 C   0  0  0  0  0  1  0  0  0  0  0  0
  181.0580  178.3790  142.6640 C   0  0  0  0  0  2  0  0  0  0  0  0
  181.7290  178.9220  143.9280 C   0  0  0  0  0  2  0  0  0  0  0  0
  183.2420  179.0190  143.7720 C   0  0  0  0  0  2  0  0  0  0  0  0
  185.1420  178.2710  145.2070 C   0  0  0  0  0  1  0  0  0  0  0  0
  183.9310  179.1810  145.1190 C   0  0  0  0  0  2  0  0  0  0  0  0
  1  3  1  0  0  0  0
  2 11  1  0  0  0  0
  3 16  1  6  0  0  0
  3 10  1  0  0  0  0
  4  2  1  6  0  0  0
  4  6  1  0  0  0  0
  5  4  1  0  0  0  0
  5  8  1  0  0  0  0
  6  9  1  1  0  0  0
  6 10  1  0  0  0  0
  7  9  1  0  0  0  0
  8 14  1  6  0  0  0
  8  1  1  0  0  0  0
 10 28  1  1  0  0  0
 11 12  1  6  0  0  0
 11  7  1  0  0  0  0
 12 13  1  0  0  0  0
 15 14  1  0  0  0  0
 16 17  1  0  0  0  0
 17 18  1  0  0  0  0
 18 19  1  0  0  0  0
 19 20  1  0  0  0  0
 21 22  1  1  0  0  0
 21 20  1  0  0  0  0
 21 24  1  0  0  0  0
 23 22  1  0  0  0  0
 24 27  1  0  0  0  0
 27 26  1  0  0  0  0
 27 25  1  1  0  0  0
 28 29  1  0  0  0  0
 29 33  1  0  0  0  0
 29 30  1  1  0  0  0
 31 32  1  0  0  0  0
 31 29  1  0  0  0  0
 33 34  1  0  0  0  0
 35 34  1  0  0  0  0
 35 37  1  0  0  0  0
 37 36  1  0  0  0  0
M  END
>  <MODEL>
4

>  <REMARK>
 VINA RESULT:      -5.5      5.925     10.488
  Name = 
  18 active torsions:
  status: ('A' for Active; 'I' for Inactive)
    1  A    between atoms: C_1  and  C_5
    2  A    between atoms: C_1  and  C_17
    3  A    between atoms: C_1  and  O_36
    4  A    between atoms: O_2  and  C_6
    5  A    between atoms: O_2  and  C_35
    6  A    between atoms: C_3  and  C_32
    7  A    between atoms: C_6  and  C_8
    8  A    between atoms: C_6  and  C_31
    9  A    between atoms: C_7  and  O_14
   10  A    between atoms: C_7  and  C_27
   11  A    between atoms: C_10  and  O_14
   12  A    between atoms: C_17  and  C_33
   13  A    between atoms: C_22  and  C_24
   14  A    between atoms: C_26  and  C_33
   15  A    between atoms: C_26  and  C_34
   16  A    between atoms: C_27  and  C_37
   17  A    between atoms: C_29  and  O_36
   18  A    between atoms: C_31  and  C_37
                            x       y       z     vdW  Elec       q    Type
                         _______ _______ _______ _____ _____    ______ ____

>  <TORSDO>
F 18

$$$$
=
 OpenBabel11052415283D

 37 38  0  0  1  0  0  0  0  0999 V2000
  190.5440  177.7020  138.1780 O   0  0  0  0  0  0  0  0  0  0  0  0
  187.1770  174.8800  137.0380 C   0  0  0  0  0  2  0  0  0  0  0  0
  191.0370  176.4460  138.6250 C   0  0  2  0  0  3  0  0  0  0  0  0
  188.5400  175.5660  137.0360 C   0  0  1  0  0  3  0  0  0  0  0  0
  188.4690  176.7220  137.8230 O   0  0  0  0  0  0  0  0  0  0  0  0
  189.6260  174.6070  137.5660 C   0  0  1  0  0  3  0  0  0  0  0  0
  188.3030  172.6500  136.7110 C   0  0  0  0  0  2  0  0  0  0  0  0
  189.4500  177.5690  137.2930 C   0  0  1  0  0  3  0  0  0  0  0  0
  189.6600  173.3460  136.6990 C   0  0  0  0  0  2  0  0  0  0  0  0
  191.0090  175.2850  137.6030 C   0  0  2  0  0  3  0  0  0  0  0  0
  187.2210  173.6000  136.2000 C   0  0  1  0  0  3  0  0  0  0  0  0
  185.8560  172.9180  136.1480 C   0  0  0  0  0  2  0  0  0  0  0  0
  185.1640  172.8970  137.5050 C   0  0  0  0  0  1  0  0  0  0  0  0
  188.8420  178.9340  137.0160 C   0  0  0  0  0  2  0  0  0  0  0  0
  187.4260  178.7800  136.4910 C   0  0  0  0  0  1  0  0  0  0  0  0
  190.4530  176.0890  139.8450 O   0  0  0  0  0  0  0  0  0  0  0  0
  190.7840  177.1290  140.7170 C   0  0  0  0  0  2  0  0  0  0  0  0
  190.5590  176.6920  142.1530 C   0  0  0  0  0  2  0  0  0  0  0  0
  190.5270  177.8990  143.0720 C   0  0  0  0  0  2  0  0  0  0  0  0
  191.4790  177.7030  144.2390 C   0  0  0  0  0  2  0  0  0  0  0  0
  190.7450  177.1900  145.4790 C   0  0  1  0  0  3  0  0  0  0  0  0
  191.6200  176.5170  146.5420 C   0  0  0  0  0  2  0  0  0  0  0  0
  192.2270  175.3760  146.0440 F   0  0  0  0  0  0  0  0  0  0  0  0
  189.7640  178.0880  145.9750 O   0  0  0  0  0  0  0  0  0  0  0  0
  187.9630  177.7890  147.5840 C   0  0  0  0  0  1  0  0  0  0  0  0
  187.5570  177.7450  145.2120 F   0  0  0  0  0  0  0  0  0  0  0  0
  188.4990  177.4840  146.1950 C   0  0  1  0  0  3  0  0  0  0  0  0
  191.9960  174.3460  137.9650 O   0  0  0  0  0  0  0  0  0  0  0  0
  193.1540  174.4620  137.1470 C   0  0  1  0  0  0  0  0  0  0  0  0
  192.9570  173.8140  135.7740 C   0  0  0  0  0  1  0  0  0  0  0  0
  193.6430  175.9210  137.0120 C   0  0  0  0  0  2  0  0  0  0  0  0
  193.8650  176.3850  135.5780 C   0  0  0  0  0  1  0  0  0  0  0  0
  194.2760  173.6630  137.8150 C   0  0  0  0  0  2  0  0  0  0  0  0
  195.6460  174.3440  137.7550 C   0  0  0  0  0  2  0  0  0  0  0  0
  196.5380  173.9320  138.9200 C   0  0  0  0  0  2  0  0  0  0  0  0
  197.4940  175.3670  140.7240 C   0  0  0  0  0  1  0  0  0  0  0  0
  197.5570  175.0130  139.2500 C   0  0  0  0  0  2  0  0  0  0  0  0
  1  3  1  0  0  0  0
  3 16  1  1  0  0  0
  4  2  1  1  0  0  0
  4  6  1  0  0  0  0
  4  5  1  0  0  0  0
  6  9  1  6  0  0  0
  6 10  1  0  0  0  0
  8 14  1  1  0  0  0
  8  5  1  0  0  0  0
  8  1  1  0  0  0  0
  9  7  1  0  0  0  0
 10 28  1  1  0  0  0
 10  3  1  0  0  0  0
 11 12  1  1  0  0  0
 11  7  1  0  0  0  0
 11  2  1  0  0  0  0
 12 13  1  0  0  0  0
 15 14  1  0  0  0  0
 16 17  1  0  0  0  0
 17 18  1  0  0  0  0
 18 19  1  0  0  0  0
 19 20  1  0  0  0  0
 21 20  1  6  0  0  0
 21 24  1  0  0  0  0
 21 22  1  0  0  0  0
 23 22  1  0  0  0  0
 24 27  1  0  0  0  0
 26 27  1  0  0  0  0
 27 25  1  1  0  0  0
 29 30  1  6  0  0  0
 29 33  1  0  0  0  0
 29 28  1  0  0  0  0
 31 29  1  0  0  0  0
 32 31  1  0  0  0  0
 34 33  1  0  0  0  0
 34 35  1  0  0  0  0
 35 37  1  0  0  0  0
 37 36  1  0  0  0  0
M  END
>  <MODEL>
5

>  <REMARK>
 VINA RESULT:      -5.5      1.229      2.042
  Name = 
  18 active torsions:
  status: ('A' for Active; 'I' for Inactive)
    1  A    between atoms: C_1  and  C_5
    2  A    between atoms: C_1  and  C_17
    3  A    between atoms: C_1  and  O_36
    4  A    between atoms: O_2  and  C_6
    5  A    between atoms: O_2  and  C_35
    6  A    between atoms: C_3  and  C_32
    7  A    between atoms: C_6  and  C_8
    8  A    between atoms: C_6  and  C_31
    9  A    between atoms: C_7  and  O_14
   10  A    between atoms: C_7  and  C_27
   11  A    between atoms: C_10  and  O_14
   12  A    between atoms: C_17  and  C_33
   13  A    between atoms: C_22  and  C_24
   14  A    between atoms: C_26  and  C_33
   15  A    between atoms: C_26  and  C_34
   16  A    between atoms: C_27  and  C_37
   17  A    between atoms: C_29  and  O_36
   18  A    between atoms: C_31  and  C_37
                            x       y       z     vdW  Elec       q    Type
                         _______ _______ _______ _____ _____    ______ ____

>  <TORSDO>
F 18

$$$$
=
 OpenBabel11052415283D

 37 38  0  0  1  0  0  0  0  0999 V2000
  184.2240  180.0220  139.0940 O   0  0  0  0  0  0  0  0  0  0  0  0
  181.2580  176.6250  138.5750 C   0  0  0  0  0  2  0  0  0  0  0  0
  185.0620  178.8750  139.1520 C   0  0  2  0  0  3  0  0  0  0  0  0
  182.3890  177.6040  138.2740 C   0  0  1  0  0  3  0  0  0  0  0  0
  182.3700  178.6290  139.2280 O   0  0  0  0  0  0  0  0  0  0  0  0
  183.7480  176.8740  138.2790 C   0  0  1  0  0  3  0  0  0  0  0  0
  182.6060  174.7590  137.5510 C   0  0  0  0  0  2  0  0  0  0  0  0
  182.9420  179.7280  138.5750 C   0  0  1  0  0  3  0  0  0  0  0  0
  183.7260  175.7470  137.2440 C   0  0  0  0  0  2  0  0  0  0  0  0
  184.9120  177.8460  138.0070 C   0  0  2  0  0  3  0  0  0  0  0  0
  181.2590  175.4790  137.5600 C   0  0  1  0  0  3  0  0  0  0  0  0
  180.1070  174.5080  137.8130 C   0  0  0  0  0  2  0  0  0  0  0  0
  179.8780  174.2500  139.2960 C   0  0  0  0  0  1  0  0  0  0  0  0
  182.0340  180.9350  138.7300 C   0  0  0  0  0  2  0  0  0  0  0  0
  181.1340  181.0730  137.5150 C   0  0  0  0  0  1  0  0  0  0  0  0
  184.9960  178.2750  140.4130 O   0  0  0  0  0  0  0  0  0  0  0  0
  185.6980  179.1390  141.2580 C   0  0  0  0  0  2  0  0  0  0  0  0
  186.9570  178.4590  141.7640 C   0  0  0  0  0  2  0  0  0  0  0  0
  186.7280  177.8930  143.1520 C   0  0  0  0  0  2  0  0  0  0  0  0
  187.7100  176.7680  143.4350 C   0  0  0  0  0  2  0  0  0  0  0  0
  188.5730  177.0740  144.6600 C   0  0  1  0  0  3  0  0  0  0  0  0
  189.6870  178.1050  144.4520 C   0  0  0  0  0  2  0  0  0  0  0  0
  190.0780  178.1600  143.1240 F   0  0  0  0  0  0  0  0  0  0  0  0
  187.8300  177.2120  145.8620 O   0  0  0  0  0  0  0  0  0  0  0  0
  187.8560  178.1530  148.1060 C   0  0  0  0  0  1  0  0  0  0  0  0
  189.3120  176.3410  147.4800 F   0  0  0  0  0  0  0  0  0  0  0  0
  188.6350  177.4550  147.0050 C   0  0  1  0  0  3  0  0  0  0  0  0
  186.1210  177.1290  137.8880 O   0  0  0  0  0  0  0  0  0  0  0  0
  186.8400  177.5060  136.7200 C   0  0  1  0  0  0  0  0  0  0  0  0
  185.9330  177.6050  135.4910 C   0  0  0  0  0  1  0  0  0  0  0  0
  187.6580  178.8010  136.9170 C   0  0  0  0  0  2  0  0  0  0  0  0
  189.0580  178.5860  137.4800 C   0  0  0  0  0  1  0  0  0  0  0  0
  187.8310  176.3830  136.4030 C   0  0  0  0  0  2  0  0  0  0  0  0
  187.4450  175.0250  136.9980 C   0  0  0  0  0  2  0  0  0  0  0  0
  188.5390  173.9830  136.7920 C   0  0  0  0  0  2  0  0  0  0  0  0
  190.8840  174.4010  136.0480 C   0  0  0  0  0  1  0  0  0  0  0  0
  189.9030  174.5200  137.1990 C   0  0  0  0  0  2  0  0  0  0  0  0
  1  3  1  0  0  0  0
  3 16  1  1  0  0  0
  4  6  1  0  0  0  0
  4  2  1  1  0  0  0
  4  5  1  0  0  0  0
  6  9  1  6  0  0  0
  7 11  1  0  0  0  0
  8 14  1  1  0  0  0
  8  1  1  0  0  0  0
  8  5  1  0  0  0  0
  9  7  1  0  0  0  0
 10 28  1  1  0  0  0
 10  6  1  0  0  0  0
 10  3  1  0  0  0  0
 11 12  1  1  0  0  0
 11  2  1  0  0  0  0
 12 13  1  0  0  0  0
 15 14  1  0  0  0  0
 16 17  1  0  0  0  0
 17 18  1  0  0  0  0
 18 19  1  0  0  0  0
 19 20  1  0  0  0  0
 21 20  1  6  0  0  0
 21 24  1  0  0  0  0
 22 21  1  0  0  0  0
 23 22  1  0  0  0  0
 24 27  1  0  0  0  0
 27 26  1  0  0  0  0
 27 25  1  1  0  0  0
 29 30  1  6  0  0  0
 29 31  1  0  0  0  0
 29 28  1  0  0  0  0
 31 32  1  0  0  0  0
 33 29  1  0  0  0  0
 33 34  1  0  0  0  0
 35 34  1  0  0  0  0
 35 37  1  0  0  0  0
 36 37  1  0  0  0  0
M  END
>  <MODEL>
6

>  <REMARK>
 VINA RESULT:      -5.4      3.530      5.886
  Name = 
  18 active torsions:
  status: ('A' for Active; 'I' for Inactive)
    1  A    between atoms: C_1  and  C_5
    2  A    between atoms: C_1  and  C_17
    3  A    between atoms: C_1  and  O_36
    4  A    between atoms: O_2  and  C_6
    5  A    between atoms: O_2  and  C_35
    6  A    between atoms: C_3  and  C_32
    7  A    between atoms: C_6  and  C_8
    8  A    between atoms: C_6  and  C_31
    9  A    between atoms: C_7  and  O_14
   10  A    between atoms: C_7  and  C_27
   11  A    between atoms: C_10  and  O_14
   12  A    between atoms: C_17  and  C_33
   13  A    between atoms: C_22  and  C_24
   14  A    between atoms: C_26  and  C_33
   15  A    between atoms: C_26  and  C_34
   16  A    between atoms: C_27  and  C_37
   17  A    between atoms: C_29  and  O_36
   18  A    between atoms: C_31  and  C_37
                            x       y       z     vdW  Elec       q    Type
                         _______ _______ _______ _____ _____    ______ ____

>  <TORSDO>
F 18

$$$$
=
 OpenBabel11052415283D

 37 38  0  0  1  0  0  0  0  0999 V2000
  181.6320  177.3370  137.7170 O   0  0  0  0  0  0  0  0  0  0  0  0
  180.8200  181.2860  135.6300 C   0  0  0  0  0  2  0  0  0  0  0  0
  182.0070  178.2860  138.7060 C   0  0  2  0  0  3  0  0  0  0  0  0
  180.6820  180.1210  136.6060 C   0  0  1  0  0  3  0  0  0  0  0  0
  181.4870  179.0620  136.1680 O   0  0  0  0  0  0  0  0  0  0  0  0
  181.0800  180.5620  138.0300 C   0  0  1  0  0  3  0  0  0  0  0  0
  180.3450  182.9050  137.5000 C   0  0  0  0  0  2  0  0  0  0  0  0
  180.8670  177.9150  136.6770 C   0  0  1  0  0  3  0  0  0  0  0  0
  180.1970  181.7330  138.4660 C   0  0  0  0  0  2  0  0  0  0  0  0
  180.9780  179.3960  139.0310 C   0  0  2  0  0  3  0  0  0  0  0  0
  179.9640  182.4700  136.0860 C   0  0  1  0  0  3  0  0  0  0  0  0
  180.0500  183.6340  135.1010 C   0  0  0  0  0  2  0  0  0  0  0  0
  180.8190  184.8200  135.6670 C   0  0  0  0  0  1  0  0  0  0  0  0
  180.6750  176.9060  135.5570 C   0  0  0  0  0  2  0  0  0  0  0  0
  181.7790  175.8660  135.5940 C   0  0  0  0  0  1  0  0  0  0  0  0
  183.2770  178.8070  138.4400 O   0  0  0  0  0  0  0  0  0  0  0  0
  184.1570  177.7560  138.7070 C   0  0  0  0  0  2  0  0  0  0  0  0
  185.1980  177.6590  137.6060 C   0  0  0  0  0  2  0  0  0  0  0  0
  186.5080  178.2730  138.0640 C   0  0  0  0  0  2  0  0  0  0  0  0
  187.6410  177.2700  137.9230 C   0  0  0  0  0  2  0  0  0  0  0  0
  188.7050  177.4740  139.0040 C   0  0  1  0  0  3  0  0  0  0  0  0
  190.1530  177.2210  138.5710 C   0  0  0  0  0  2  0  0  0  0  0  0
  190.8840  176.6260  139.5870 F   0  0  0  0  0  0  0  0  0  0  0  0
  188.4970  178.6320  139.7990 O   0  0  0  0  0  0  0  0  0  0  0  0
  186.8990  178.6440  141.6330 C   0  0  0  0  0  1  0  0  0  0  0  0
  188.7320  177.0860  141.5670 F   0  0  0  0  0  0  0  0  0  0  0  0
  188.3180  178.3510  141.1780 C   0  0  1  0  0  3  0  0  0  0  0  0
  181.2200  179.8610  140.3400 O   0  0  0  0  0  0  0  0  0  0  0  0
  180.1980  179.4490  141.2390 C   0  0  1  0  0  0  0  0  0  0  0  0
  179.5160  180.6380  141.9220 C   0  0  0  0  0  1  0  0  0  0  0  0
  179.1620  178.5160  140.5740 C   0  0  0  0  0  2  0  0  0  0  0  0
  179.2220  177.0670  141.0420 C   0  0  0  0  0  1  0  0  0  0  0  0
  180.8650  178.6600  142.3690 C   0  0  0  0  0  2  0  0  0  0  0  0
  182.3450  178.9940  142.5730 C   0  0  0  0  0  2  0  0  0  0  0  0
  182.7460  178.9270  144.0420 C   0  0  0  0  0  2  0  0  0  0  0  0
  184.6250  178.6750  145.6650 C   0  0  0  0  0  1  0  0  0  0  0  0
  184.2300  178.6310  144.2010 C   0  0  0  0  0  2  0  0  0  0  0  0
  1  3  1  0  0  0  0
  2 11  1  0  0  0  0
  3 16  1  6  0  0  0
  3 10  1  0  0  0  0
  4  2  1  6  0  0  0
  4  6  1  0  0  0  0
  5  4  1  0  0  0  0
  5  8  1  0  0  0  0
  6  9  1  1  0  0  0
  6 10  1  0  0  0  0
  7  9  1  0  0  0  0
  8 14  1  6  0  0  0
  8  1  1  0  0  0  0
 10 28  1  1  0  0  0
 11 12  1  6  0  0  0
 11  7  1  0  0  0  0
 12 13  1  0  0  0  0
 14 15  1  0  0  0  0
 16 17  1  0  0  0  0
 18 19  1  0  0  0  0
 18 17  1  0  0  0  0
 20 19  1  0  0  0  0
 21 20  1  6  0  0  0
 21 24  1  0  0  0  0
 22 21  1  0  0  0  0
 22 23  1  0  0  0  0
 24 27  1  0  0  0  0
 27 26  1  0  0  0  0
 27 25  1  6  0  0  0
 28 29  1  0  0  0  0
 29 30  1  1  0  0  0
 29 33  1  0  0  0  0
 31 32  1  0  0  0  0
 31 29  1  0  0  0  0
 33 34  1  0  0  0  0
 34 35  1  0  0  0  0
 35 37  1  0  0  0  0
 37 36  1  0  0  0  0
M  END
>  <MODEL>
7

>  <REMARK>
 VINA RESULT:      -5.3      5.995     10.805
  Name = 
  18 active torsions:
  status: ('A' for Active; 'I' for Inactive)
    1  A    between atoms: C_1  and  C_5
    2  A    between atoms: C_1  and  C_17
    3  A    between atoms: C_1  and  O_36
    4  A    between atoms: O_2  and  C_6
    5  A    between atoms: O_2  and  C_35
    6  A    between atoms: C_3  and  C_32
    7  A    between atoms: C_6  and  C_8
    8  A    between atoms: C_6  and  C_31
    9  A    between atoms: C_7  and  O_14
   10  A    between atoms: C_7  and  C_27
   11  A    between atoms: C_10  and  O_14
   12  A    between atoms: C_17  and  C_33
   13  A    between atoms: C_22  and  C_24
   14  A    between atoms: C_26  and  C_33
   15  A    between atoms: C_26  and  C_34
   16  A    between atoms: C_27  and  C_37
   17  A    between atoms: C_29  and  O_36
   18  A    between atoms: C_31  and  C_37
                            x       y       z     vdW  Elec       q    Type
                         _______ _______ _______ _____ _____    ______ ____

>  <TORSDO>
F 18

$$$$
=
 OpenBabel11052415283D

 37 38  0  0  1  0  0  0  0  0999 V2000
  191.0760  175.9990  137.1930 O   0  0  0  0  0  0  0  0  0  0  0  0
  190.5710  176.7710  141.6370 C   0  0  0  0  0  2  0  0  0  0  0  0
  189.6680  175.8890  137.3620 C   0  0  2  0  0  3  0  0  0  0  0  0
  190.5090  176.9770  140.1270 C   0  0  1  0  0  3  0  0  0  0  0  0
  191.3160  176.0170  139.5030 O   0  0  0  0  0  0  0  0  0  0  0  0
  189.0520  176.8770  139.6290 C   0  0  1  0  0  3  0  0  0  0  0  0
  188.2430  177.7090  141.8570 C   0  0  0  0  0  2  0  0  0  0  0  0
  191.7060  176.6140  138.2990 C   0  0  1  0  0  3  0  0  0  0  0  0
  188.1960  177.9230  140.3470 C   0  0  0  0  0  2  0  0  0  0  0  0
  188.9650  177.0530  138.1010 C   0  0  2  0  0  3  0  0  0  0  0  0
  189.6850  177.7940  142.3530 C   0  0  1  0  0  3  0  0  0  0  0  0
  189.7650  177.6370  143.8700 C   0  0  0  0  0  2  0  0  0  0  0  0
  188.4000  177.4020  144.5040 C   0  0  0  0  0  1  0  0  0  0  0  0
  193.2150  176.5160  138.1520 C   0  0  0  0  0  2  0  0  0  0  0  0
  193.6000  175.1600  137.5910 C   0  0  0  0  0  1  0  0  0  0  0  0
  189.3270  174.6420  137.8960 O   0  0  0  0  0  0  0  0  0  0  0  0
  189.8890  173.7120  137.0180 C   0  0  0  0  0  2  0  0  0  0  0  0
  188.8780  173.3280  135.9540 C   0  0  0  0  0  2  0  0  0  0  0  0
  187.5740  172.8940  136.5980 C   0  0  0  0  0  2  0  0  0  0  0  0
  186.6160  172.3590  135.5470 C   0  0  0  0  0  2  0  0  0  0  0  0
  185.1970  172.8880  135.7640 C   0  0  1  0  0  3  0  0  0  0  0  0
  184.0910  171.8290  135.8190 C   0  0  0  0  0  2  0  0  0  0  0  0
  183.9350  171.3320  137.1020 F   0  0  0  0  0  0  0  0  0  0  0  0
  185.1130  173.9120  136.7440 O   0  0  0  0  0  0  0  0  0  0  0  0
  183.3900  175.0670  138.0150 C   0  0  0  0  0  1  0  0  0  0  0  0
  184.0480  175.8060  135.8220 F   0  0  0  0  0  0  0  0  0  0  0  0
  183.9350  174.6970  136.6470 C   0  0  1  0  0  3  0  0  0  0  0  0
  187.6140  177.0870  137.6970 O   0  0  0  0  0  0  0  0  0  0  0  0
  187.3410  178.2220  136.8840 C   0  0  1  0  0  0  0  0  0  0  0  0
  188.5260  179.1890  136.8240 C   0  0  0  0  0  1  0  0  0  0  0  0
  186.8610  177.8370  135.4670 C   0  0  0  0  0  2  0  0  0  0  0  0
  187.1500  176.3950  135.0700 C   0  0  0  0  0  1  0  0  0  0  0  0
  186.2090  179.0090  137.5510 C   0  0  0  0  0  2  0  0  0  0  0  0
  185.2420  178.1420  138.3630 C   0  0  0  0  0  2  0  0  0  0  0  0
  184.7470  178.8600  139.6130 C   0  0  0  0  0  2  0  0  0  0  0  0
  183.9690  178.3470  141.9280 C   0  0  0  0  0  1  0  0  0  0  0  0
  183.8740  177.9520  140.4670 C   0  0  0  0  0  2  0  0  0  0  0  0
  1  3  1  0  0  0  0
  1  8  1  0  0  0  0
  2 11  1  0  0  0  0
  3 16  1  1  0  0  0
  3 10  1  0  0  0  0
  4  2  1  1  0  0  0
  5  4  1  0  0  0  0
  6  4  1  0  0  0  0
  6  9  1  1  0  0  0
  7 11  1  0  0  0  0
  8 14  1  6  0  0  0
  8  5  1  0  0  0  0
  9  7  1  0  0  0  0
 10 28  1  6  0  0  0
 10  6  1  0  0  0  0
 11 12  1  1  0  0  0
 12 13  1  0  0  0  0
 15 14  1  0  0  0  0
 17 16  1  0  0  0  0
 18 19  1  0  0  0  0
 18 17  1  0  0  0  0
 20 19  1  0  0  0  0
 21 20  1  1  0  0  0
 21 22  1  0  0  0  0
 21 24  1  0  0  0  0
 22 23  1  0  0  0  0
 26 27  1  0  0  0  0
 27 24  1  0  0  0  0
 27 25  1  1  0  0  0
 29 30  1  6  0  0  0
 29 33  1  0  0  0  0
 29 28  1  0  0  0  0
 31 29  1  0  0  0  0
 32 31  1  0  0  0  0
 33 34  1  0  0  0  0
 34 35  1  0  0  0  0
 35 37  1  0  0  0  0
 37 36  1  0  0  0  0
M  END
>  <MODEL>
8

>  <REMARK>
 VINA RESULT:      -5.0      3.349      8.394
  Name = 
  18 active torsions:
  status: ('A' for Active; 'I' for Inactive)
    1  A    between atoms: C_1  and  C_5
    2  A    between atoms: C_1  and  C_17
    3  A    between atoms: C_1  and  O_36
    4  A    between atoms: O_2  and  C_6
    5  A    between atoms: O_2  and  C_35
    6  A    between atoms: C_3  and  C_32
    7  A    between atoms: C_6  and  C_8
    8  A    between atoms: C_6  and  C_31
    9  A    between atoms: C_7  and  O_14
   10  A    between atoms: C_7  and  C_27
   11  A    between atoms: C_10  and  O_14
   12  A    between atoms: C_17  and  C_33
   13  A    between atoms: C_22  and  C_24
   14  A    between atoms: C_26  and  C_33
   15  A    between atoms: C_26  and  C_34
   16  A    between atoms: C_27  and  C_37
   17  A    between atoms: C_29  and  O_36
   18  A    between atoms: C_31  and  C_37
                            x       y       z     vdW  Elec       q    Type
                         _______ _______ _______ _____ _____    ______ ____

>  <TORSDO>
F 18

$$$$
=
 OpenBabel11052415283D

 37 38  0  0  1  0  0  0  0  0999 V2000
  184.4990  176.6590  138.4140 O   0  0  0  0  0  0  0  0  0  0  0  0
  181.4520  179.6240  136.8240 C   0  0  0  0  0  2  0  0  0  0  0  0
  184.9630  177.8900  138.9540 C   0  0  2  0  0  3  0  0  0  0  0  0
  182.2300  178.7470  137.8010 C   0  0  1  0  0  3  0  0  0  0  0  0
  183.0190  177.8460  137.0750 O   0  0  0  0  0  0  0  0  0  0  0  0
  183.1030  179.6180  138.7280 C   0  0  1  0  0  3  0  0  0  0  0  0
  181.4460  181.4930  138.5130 C   0  0  0  0  0  2  0  0  0  0  0  0
  183.1740  176.7480  137.9290 C   0  0  1  0  0  3  0  0  0  0  0  0
  182.2130  180.6050  139.4870 C   0  0  0  0  0  2  0  0  0  0  0  0
  183.9230  178.7550  139.7060 C   0  0  2  0  0  3  0  0  0  0  0  0
  180.5900  180.6350  137.5830 C   0  0  1  0  0  3  0  0  0  0  0  0
  179.7660  181.4960  136.6280 C   0  0  0  0  0  2  0  0  0  0  0  0
  180.5420  181.8840  135.3770 C   0  0  0  0  0  1  0  0  0  0  0  0
  182.8120  175.4740  137.1850 C   0  0  0  0  0  2  0  0  0  0  0  0
  183.9810  175.0150  136.3330 C   0  0  0  0  0  1  0  0  0  0  0  0
  185.6610  178.6240  137.9900 O   0  0  0  0  0  0  0  0  0  0  0  0
  186.7830  177.8470  137.6920 C   0  0  0  0  0  2  0  0  0  0  0  0
  187.8250  178.6920  136.9830 C   0  0  0  0  0  2  0  0  0  0  0  0
  189.1940  178.4660  137.5970 C   0  0  0  0  0  2  0  0  0  0  0  0
  189.0730  178.2510  139.0960 C   0  0  0  0  0  2  0  0  0  0  0  0
  190.1320  177.2730  139.6080 C   0  0  1  0  0  3  0  0  0  0  0  0
  190.0860  176.9620  141.1080 C   0  0  0  0  0  2  0  0  0  0  0  0
  189.8050  178.0990  141.8470 F   0  0  0  0  0  0  0  0  0  0  0  0
  190.3340  176.1540  138.7580 O   0  0  0  0  0  0  0  0  0  0  0  0
  191.7970  175.9920  136.8210 C   0  0  0  0  0  1  0  0  0  0  0  0
  192.5750  176.8790  138.9190 F   0  0  0  0  0  0  0  0  0  0  0  0
  191.6790  175.9950  138.3350 C   0  0  1  0  0  3  0  0  0  0  0  0
  184.6060  179.5810  140.6210 O   0  0  0  0  0  0  0  0  0  0  0  0
  184.4980  179.0890  141.9520 C   0  0  1  0  0  0  0  0  0  0  0  0
  185.0110  180.0970  142.9840 C   0  0  0  0  0  1  0  0  0  0  0  0
  183.0680  178.6160  142.2960 C   0  0  0  0  0  2  0  0  0  0  0  0
  182.6710  178.8070  143.7540 C   0  0  0  0  0  1  0  0  0  0  0  0
  185.4230  177.8760  142.0750 C   0  0  0  0  0  2  0  0  0  0  0  0
  186.7460  178.1710  142.7870 C   0  0  0  0  0  2  0  0  0  0  0  0
  187.1080  177.0810  143.7900 C   0  0  0  0  0  2  0  0  0  0  0  0
  188.0950  177.6590  146.0070 C   0  0  0  0  0  1  0  0  0  0  0  0
  186.8080  177.5150  145.2170 C   0  0  0  0  0  2  0  0  0  0  0  0
  1  3  1  0  0  0  0
  2 11  1  0  0  0  0
  3 16  1  6  0  0  0
  3 10  1  0  0  0  0
  4  2  1  6  0  0  0
  4  6  1  0  0  0  0
  5  4  1  0  0  0  0
  5  8  1  0  0  0  0
  6  9  1  1  0  0  0
  6 10  1  0  0  0  0
  7  9  1  0  0  0  0
  8 14  1  6  0  0  0
  8  1  1  0  0  0  0
 10 28  1  1  0  0  0
 11 12  1  6  0  0  0
 11  7  1  0  0  0  0
 13 12  1  0  0  0  0
 15 14  1  0  0  0  0
 17 16  1  0  0  0  0
 18 19  1  0  0  0  0
 18 17  1  0  0  0  0
 19 20  1  0  0  0  0
 21 20  1  6  0  0  0
 21 22  1  0  0  0  0
 22 23  1  0  0  0  0
 24 21  1  0  0  0  0
 27 25  1  6  0  0  0
 27 24  1  0  0  0  0
 27 26  1  0  0  0  0
 28 29  1  0  0  0  0
 29 33  1  0  0  0  0
 29 31  1  0  0  0  0
 29 30  1  1  0  0  0
 31 32  1  0  0  0  0
 33 34  1  0  0  0  0
 34 35  1  0  0  0  0
 35 37  1  0  0  0  0
 37 36  1  0  0  0  0
M  END
>  <MODEL>
9

>  <REMARK>
 VINA RESULT:      -5.0      4.192      8.851
  Name = 
  18 active torsions:
  status: ('A' for Active; 'I' for Inactive)
    1  A    between atoms: C_1  and  C_5
    2  A    between atoms: C_1  and  C_17
    3  A    between atoms: C_1  and  O_36
    4  A    between atoms: O_2  and  C_6
    5  A    between atoms: O_2  and  C_35
    6  A    between atoms: C_3  and  C_32
    7  A    between atoms: C_6  and  C_8
    8  A    between atoms: C_6  and  C_31
    9  A    between atoms: C_7  and  O_14
   10  A    between atoms: C_7  and  C_27
   11  A    between atoms: C_10  and  O_14
   12  A    between atoms: C_17  and  C_33
   13  A    between atoms: C_22  and  C_24
   14  A    between atoms: C_26  and  C_33
   15  A    between atoms: C_26  and  C_34
   16  A    between atoms: C_27  and  C_37
   17  A    between atoms: C_29  and  O_36
   18  A    between atoms: C_31  and  C_37
                            x       y       z     vdW  Elec       q    Type
                         _______ _______ _______ _____ _____    ______ ____

>  <TORSDO>
F 18

$$$$
