=
 OpenBabel11052416493D

 32 37  0  0  1  0  0  0  0  0999 V2000
  189.0660  173.2890  135.6970 C   0  0  0  0  0  0  0  0  0  0  0  0
  190.8520  175.3140  138.2590 C   0  0  0  0  0  2  0  0  0  0  0  0
  186.8810  178.1040  138.8130 C   0  0  0  0  0  2  0  0  0  0  0  0
  188.8470  176.9950  144.3210 C   0  0  0  0  0  2  0  0  0  0  0  0
  187.3320  176.8450  144.4900 C   0  0  0  0  0  2  0  0  0  0  0  0
  189.0550  177.7890  137.5310 C   0  0  0  0  0  0  0  0  0  0  0  0
  189.8140  178.1680  139.9170 C   0  0  0  0  0  2  0  0  0  0  0  0
  189.8920  173.5060  136.7880 C   0  0  0  0  0  3  0  0  0  0  0  0
  191.2060  176.7990  138.2710 C   0  0  0  0  0  2  0  0  0  0  0  0
  189.2470  176.7630  142.8600 C   0  0  0  0  0  2  0  0  0  0  0  0
  188.4930  177.6690  140.4600 C   0  0  1  0  0  3  0  0  0  0  0  0
  188.3730  177.5620  141.9390 C   0  0  0  0  0  0  0  0  0  0  0  0
  186.5050  178.4850  141.1120 N   0  0  0  0  0  0  0  0  0  0  0  0
  188.5060  174.7450  135.0800 S   0  0  0  0  0  0  0  0  0  0  0  0
  189.3020  175.6980  136.2120 C   0  0  0  0  0  0  0  0  0  0  0  0
  188.7370  172.0090  135.1730 N   0  0  0  0  0  1  0  0  0  0  0  0
  189.9810  177.6290  138.5190 C   0  0  0  0  0  0  0  0  0  0  0  0
  189.2980  177.1940  136.1740 C   0  0  0  0  0  2  0  0  0  0  0  0
  190.0430  174.8700  137.0710 C   0  0  0  0  0  0  0  0  0  0  0  0
  186.5880  177.8830  143.6420 C   0  0  0  0  0  2  0  0  0  0  0  0
  187.1480  177.9340  142.2500 C   0  0  0  0  0  0  0  0  0  0  0  0
  187.7830  178.5940  137.6810 C   0  0  0  0  0  2  0  0  0  0  0  0
  187.4340  178.5940  140.0630 N   0  0  2  0  0  0  0  0  0  0  0  0
  185.3020  179.3100  141.1820 C   0  0  0  0  0  2  0  0  0  0  0  0
  183.7020  177.5530  140.6190 C   0  0  0  0  0  3  0  0  0  0  0  0
  182.6280  176.9890  139.7950 C   0  0  0  0  0  0  0  0  0  0  0  0
  183.7440  179.4790  139.1290 C   0  0  0  0  0  0  0  0  0  0  0  0
  182.9000  178.7780  138.1040 C   0  0  0  0  0  2  0  0  0  0  0  0
  182.1720  177.6860  138.6720 O   0  0  0  0  0  0  0  0  0  0  0  0
  182.0900  175.8990  140.1210 O   0  0  0  0  0  0  0  0  0  0  0  0
  184.0870  180.6750  138.9360 O   0  0  0  0  0  0  0  0  0  0  0  0
  184.2230  178.7430  140.3170 C   0  0  0  0  0  0  0  0  0  0  0  0
  1  8  2  0  0  0  0
  2  9  1  0  0  0  0
  4  5  1  0  0  0  0
  6 22  1  0  0  0  0
  6 17  2  0  0  0  0
  8 19  1  0  0  0  0
  9 17  1  0  0  0  0
 10  4  1  0  0  0  0
 11  7  1  1  0  0  0
 11 12  1  0  0  0  0
 12 21  2  0  0  0  0
 12 10  1  0  0  0  0
 13 24  1  0  0  0  0
 13 21  1  0  0  0  0
 14  1  1  0  0  0  0
 14 15  1  0  0  0  0
 15 19  2  0  0  0  0
 16  1  1  0  0  0  0
 17  7  1  0  0  0  0
 18 15  1  0  0  0  0
 18  6  1  0  0  0  0
 19  2  1  0  0  0  0
 20  5  1  0  0  0  0
 21 20  1  0  0  0  0
 22  3  1  0  0  0  0
 23  3  1  6  0  0  0
 23 11  1  0  0  0  0
 23 13  1  0  0  0  0
 26 30  2  0  0  0  0
 26 25  1  0  0  0  0
 27 32  1  0  0  0  0
 28 29  1  0  0  0  0
 28 27  1  0  0  0  0
 29 26  1  0  0  0  0
 31 27  2  0  0  0  0
 32 25  2  0  0  0  0
 32 24  1  0  0  0  0
M  END
>  <MODEL>
1

>  <REMARK>
 VINA RESULT:      -8.4      0.000      0.000
  Name = 
  2 active torsions:
  status: ('A' for Active; 'I' for Inactive)
    1  A    between atoms: N_16  and  C_27
    2  A    between atoms: C_27  and  C_32
                            x       y       z     vdW  Elec       q    Type
                         _______ _______ _______ _____ _____    ______ ____

>  <TORSDO>
F 2

$$$$
=
 OpenBabel11052416493D

 32 37  0  0  1  0  0  0  0  0999 V2000
  187.7850  173.1620  135.5340 C   0  0  0  0  0  0  0  0  0  0  0  0
  190.5380  174.4480  137.6850 C   0  0  0  0  0  2  0  0  0  0  0  0
  187.7390  178.2310  138.9950 C   0  0  0  0  0  2  0  0  0  0  0  0
  190.3000  176.3120  144.0150 C   0  0  0  0  0  2  0  0  0  0  0  0
  188.8680  176.5960  144.4790 C   0  0  0  0  0  2  0  0  0  0  0  0
  189.4410  177.3710  137.3130 C   0  0  0  0  0  0  0  0  0  0  0  0
  190.7160  177.3880  139.5010 C   0  0  0  0  0  2  0  0  0  0  0  0
  188.8300  173.0740  136.4410 C   0  0  0  0  0  3  0  0  0  0  0  0
  191.3070  175.7650  137.6190 C   0  0  0  0  0  2  0  0  0  0  0  0
  190.3300  176.0520  142.5050 C   0  0  0  0  0  2  0  0  0  0  0  0
  189.4340  177.2630  140.2960 C   0  0  1  0  0  3  0  0  0  0  0  0
  189.5700  177.1170  141.7700 C   0  0  0  0  0  0  0  0  0  0  0  0
  187.9330  178.5810  141.3220 N   0  0  0  0  0  0  0  0  0  0  0  0
  187.5710  174.7490  135.0320 S   0  0  0  0  0  0  0  0  0  0  0  0
  188.8100  175.3710  135.9810 C   0  0  0  0  0  0  0  0  0  0  0  0
  187.0020  172.0610  135.0920 N   0  0  0  0  0  1  0  0  0  0  0  0
  190.4490  176.8990  138.1000 C   0  0  0  0  0  0  0  0  0  0  0  0
  189.2370  176.8050  135.9370 C   0  0  0  0  0  2  0  0  0  0  0  0
  189.4240  174.3200  136.6810 C   0  0  0  0  0  0  0  0  0  0  0  0
  188.3140  177.8470  143.7890 C   0  0  0  0  0  2  0  0  0  0  0  0
  188.5900  177.8090  142.3130 C   0  0  0  0  0  0  0  0  0  0  0  0
  188.5130  178.4990  137.7060 C   0  0  0  0  0  2  0  0  0  0  0  0
  188.6380  178.4740  140.1100 N   0  0  2  0  0  0  0  0  0  0  0  0
  187.0610  179.7130  141.6230 C   0  0  0  0  0  2  0  0  0  0  0  0
  185.2240  178.9940  143.0630 C   0  0  0  0  0  3  0  0  0  0  0  0
  183.8400  178.5620  143.2870 C   0  0  0  0  0  0  0  0  0  0  0  0
  184.7460  179.0690  140.6760 C   0  0  0  0  0  0  0  0  0  0  0  0
  183.4570  178.3200  140.8520 C   0  0  0  0  0  2  0  0  0  0  0  0
  182.9800  178.3910  142.1980 O   0  0  0  0  0  0  0  0  0  0  0  0
  183.4170  178.3850  144.4580 O   0  0  0  0  0  0  0  0  0  0  0  0
  185.0700  179.4840  139.5330 O   0  0  0  0  0  0  0  0  0  0  0  0
  185.6530  179.2530  141.8280 C   0  0  0  0  0  0  0  0  0  0  0  0
  1  8  2  0  0  0  0
  4  5  1  0  0  0  0
  6 22  1  0  0  0  0
  6 17  2  0  0  0  0
  8 19  1  0  0  0  0
  9  2  1  0  0  0  0
  9 17  1  0  0  0  0
 10  4  1  0  0  0  0
 11  7  1  6  0  0  0
 11 12  1  0  0  0  0
 12 21  2  0  0  0  0
 12 10  1  0  0  0  0
 13 24  1  0  0  0  0
 13 21  1  0  0  0  0
 14  1  1  0  0  0  0
 14 15  1  0  0  0  0
 15 19  2  0  0  0  0
 16  1  1  0  0  0  0
 17  7  1  0  0  0  0
 18 15  1  0  0  0  0
 18  6  1  0  0  0  0
 19  2  1  0  0  0  0
 20  5  1  0  0  0  0
 21 20  1  0  0  0  0
 22  3  1  0  0  0  0
 23  3  1  6  0  0  0
 23 11  1  0  0  0  0
 23 13  1  0  0  0  0
 24 32  1  0  0  0  0
 25 26  1  0  0  0  0
 26 30  2  0  0  0  0
 27 28  1  0  0  0  0
 27 32  1  0  0  0  0
 28 29  1  0  0  0  0
 29 26  1  0  0  0  0
 31 27  2  0  0  0  0
 32 25  2  0  0  0  0
M  END
>  <MODEL>
2

>  <REMARK>
 VINA RESULT:      -7.9      1.598      1.960
  Name = 
  2 active torsions:
  status: ('A' for Active; 'I' for Inactive)
    1  A    between atoms: N_16  and  C_27
    2  A    between atoms: C_27  and  C_32
                            x       y       z     vdW  Elec       q    Type
                         _______ _______ _______ _____ _____    ______ ____

>  <TORSDO>
F 2

$$$$
=
 OpenBabel11052416493D

 32 37  0  0  1  0  0  0  0  0999 V2000
  180.4280  175.2100  139.9120 C   0  0  0  0  0  0  0  0  0  0  0  0
  182.4400  175.6350  136.8090 C   0  0  0  0  0  2  0  0  0  0  0  0
  185.7170  178.2630  139.3020 C   0  0  0  0  0  2  0  0  0  0  0  0
  188.8890  174.5530  135.8960 C   0  0  0  0  0  2  0  0  0  0  0  0
  189.6590  174.5030  137.2180 C   0  0  0  0  0  2  0  0  0  0  0  0
  183.5740  178.3420  137.9360 C   0  0  0  0  0  0  0  0  0  0  0  0
  185.3050  177.5040  136.2890 C   0  0  0  0  0  2  0  0  0  0  0  0
  181.0180  174.8140  138.7230 C   0  0  0  0  0  3  0  0  0  0  0  0
  182.8340  176.9020  136.0560 C   0  0  0  0  0  2  0  0  0  0  0  0
  187.4360  174.9740  136.1380 C   0  0  0  0  0  2  0  0  0  0  0  0
  186.1630  176.9540  137.4080 C   0  0  1  0  0  3  0  0  0  0  0  0
  187.3790  176.1940  137.0110 C   0  0  0  0  0  0  0  0  0  0  0  0
  187.8940  177.5850  138.6920 N   0  0  0  0  0  0  0  0  0  0  0  0
  180.7160  176.8370  140.2030 S   0  0  0  0  0  0  0  0  0  0  0  0
  181.6240  177.0760  138.8090 C   0  0  0  0  0  0  0  0  0  0  0  0
  179.6820  174.3550  140.7690 N   0  0  0  0  0  1  0  0  0  0  0  0
  183.8970  177.6510  136.8060 C   0  0  0  0  0  0  0  0  0  0  0  0
  182.1440  178.4140  138.3870 C   0  0  0  0  0  2  0  0  0  0  0  0
  181.6800  175.8730  138.0860 C   0  0  0  0  0  0  0  0  0  0  0  0
  189.6900  175.8860  137.8790 C   0  0  0  0  0  2  0  0  0  0  0  0
  188.3240  176.5100  137.8720 C   0  0  0  0  0  0  0  0  0  0  0  0
  184.5680  179.1190  138.7700 C   0  0  0  0  0  2  0  0  0  0  0  0
  186.6610  178.0640  138.2170 N   0  0  2  0  0  0  0  0  0  0  0  0
  188.8010  178.4080  139.4880 C   0  0  0  0  0  2  0  0  0  0  0  0
  188.1700  177.4190  141.6300 C   0  0  0  0  0  3  0  0  0  0  0  0
  188.4830  176.7280  142.8850 C   0  0  0  0  0  0  0  0  0  0  0  0
  190.5470  177.3960  141.1000 C   0  0  0  0  0  0  0  0  0  0  0  0
  190.9150  177.0000  142.5000 C   0  0  0  0  0  2  0  0  0  0  0  0
  189.8100  176.4150  143.1950 O   0  0  0  0  0  0  0  0  0  0  0  0
  187.5560  176.3820  143.6620 O   0  0  0  0  0  0  0  0  0  0  0  0
  191.4490  177.5030  140.2290 O   0  0  0  0  0  0  0  0  0  0  0  0
  189.1440  177.7230  140.7710 C   0  0  0  0  0  0  0  0  0  0  0  0
  1 14  1  0  0  0  0
  1 16  1  0  0  0  0
  2 19  1  0  0  0  0
  4 10  1  0  0  0  0
  4  5  1  0  0  0  0
  5 20  1  0  0  0  0
  6 18  1  0  0  0  0
  6 22  1  0  0  0  0
  7 17  1  0  0  0  0
  8  1  2  0  0  0  0
  9 17  1  0  0  0  0
  9  2  1  0  0  0  0
 10 12  1  0  0  0  0
 11  7  1  6  0  0  0
 11 23  1  0  0  0  0
 12 11  1  0  0  0  0
 12 21  2  0  0  0  0
 13 24  1  0  0  0  0
 15 14  1  0  0  0  0
 17  6  2  0  0  0  0
 18 15  1  0  0  0  0
 19  8  1  0  0  0  0
 19 15  2  0  0  0  0
 21 20  1  0  0  0  0
 21 13  1  0  0  0  0
 22  3  1  0  0  0  0
 23 13  1  0  0  0  0
 23  3  1  1  0  0  0
 24 32  1  0  0  0  0
 25 26  1  0  0  0  0
 26 29  1  0  0  0  0
 26 30  2  0  0  0  0
 27 28  1  0  0  0  0
 28 29  1  0  0  0  0
 31 27  2  0  0  0  0
 32 27  1  0  0  0  0
 32 25  2  0  0  0  0
M  END
>  <MODEL>
3

>  <REMARK>
 VINA RESULT:      -7.2      3.647      7.086
  Name = 
  2 active torsions:
  status: ('A' for Active; 'I' for Inactive)
    1  A    between atoms: N_16  and  C_27
    2  A    between atoms: C_27  and  C_32
                            x       y       z     vdW  Elec       q    Type
                         _______ _______ _______ _____ _____    ______ ____

>  <TORSDO>
F 2

$$$$
=
 OpenBabel11052416493D

 32 37  0  0  1  0  0  0  0  0999 V2000
  188.0600  176.7820  135.6420 C   0  0  0  0  0  0  0  0  0  0  0  0
  184.5440  177.4410  134.6110 C   0  0  0  0  0  2  0  0  0  0  0  0
  183.0730  176.7660  139.2200 C   0  0  0  0  0  2  0  0  0  0  0  0
  180.1680  181.5930  137.2970 C   0  0  0  0  0  2  0  0  0  0  0  0
  180.5620  182.0070  138.7180 C   0  0  0  0  0  2  0  0  0  0  0  0
  183.5290  175.6450  136.9830 C   0  0  0  0  0  0  0  0  0  0  0  0
  181.6360  177.2480  136.4760 C   0  0  0  0  0  2  0  0  0  0  0  0
  187.0400  177.4290  134.9620 C   0  0  0  0  0  3  0  0  0  0  0  0
  183.3110  176.5440  134.6810 C   0  0  0  0  0  2  0  0  0  0  0  0
  181.1110  180.5030  136.7760 C   0  0  0  0  0  2  0  0  0  0  0  0
  182.0270  178.1410  137.6330 C   0  0  1  0  0  3  0  0  0  0  0  0
  181.2630  179.4080  137.7910 C   0  0  0  0  0  0  0  0  0  0  0  0
  181.5140  178.4410  139.7990 N   0  0  0  0  0  0  0  0  0  0  0  0
  187.4500  175.5100  136.5500 S   0  0  0  0  0  0  0  0  0  0  0  0
  185.8500  175.7670  136.1050 C   0  0  0  0  0  0  0  0  0  0  0  0
  189.4320  177.1450  135.5790 N   0  0  0  0  0  1  0  0  0  0  0  0
  182.8350  176.4150  136.0990 C   0  0  0  0  0  0  0  0  0  0  0  0
  184.7270  174.8680  136.5200 C   0  0  0  0  0  2  0  0  0  0  0  0
  185.7900  176.8450  135.2080 C   0  0  0  0  0  0  0  0  0  0  0  0
  180.4560  180.8160  139.6770 C   0  0  0  0  0  2  0  0  0  0  0  0
  181.1010  179.5950  139.0850 C   0  0  0  0  0  0  0  0  0  0  0  0
  183.1420  175.4580  138.4330 C   0  0  0  0  0  2  0  0  0  0  0  0
  181.8190  177.4170  138.8850 N   0  0  2  0  0  0  0  0  0  0  0  0
  181.1410  178.1700  141.1850 C   0  0  0  0  0  2  0  0  0  0  0  0
  183.4500  178.8190  141.6490 C   0  0  0  0  0  3  0  0  0  0  0  0
  184.5130  179.2870  142.5450 C   0  0  0  0  0  0  0  0  0  0  0  0
  181.9260  178.8510  143.5490 C   0  0  0  0  0  0  0  0  0  0  0  0
  183.0560  179.0030  144.5270 C   0  0  0  0  0  2  0  0  0  0  0  0
  184.2390  179.5030  143.8990 O   0  0  0  0  0  0  0  0  0  0  0  0
  185.6590  179.5330  142.0870 O   0  0  0  0  0  0  0  0  0  0  0  0
  180.7390  178.8580  143.9690 O   0  0  0  0  0  0  0  0  0  0  0  0
  182.2160  178.6270  142.1180 C   0  0  0  0  0  0  0  0  0  0  0  0
  1 14  1  0  0  0  0
  2  9  1  0  0  0  0
  2 19  1  0  0  0  0
  4  5  1  0  0  0  0
  5 20  1  0  0  0  0
  6 22  1  0  0  0  0
  8 19  1  0  0  0  0
  8  1  2  0  0  0  0
  9 17  1  0  0  0  0
 10  4  1  0  0  0  0
 10 12  1  0  0  0  0
 11  7  1  6  0  0  0
 11 12  1  0  0  0  0
 11 23  1  0  0  0  0
 12 21  2  0  0  0  0
 13 24  1  0  0  0  0
 15 18  1  0  0  0  0
 15 14  1  0  0  0  0
 16  1  1  0  0  0  0
 17  7  1  0  0  0  0
 17  6  2  0  0  0  0
 18  6  1  0  0  0  0
 19 15  2  0  0  0  0
 21 20  1  0  0  0  0
 21 13  1  0  0  0  0
 22  3  1  0  0  0  0
 23  3  1  1  0  0  0
 23 13  1  0  0  0  0
 24 32  1  0  0  0  0
 25 32  2  0  0  0  0
 25 26  1  0  0  0  0
 26 29  1  0  0  0  0
 27 31  2  0  0  0  0
 27 28  1  0  0  0  0
 29 28  1  0  0  0  0
 30 26  2  0  0  0  0
 32 27  1  0  0  0  0
M  END
>  <MODEL>
4

>  <REMARK>
 VINA RESULT:      -6.3      3.694      6.533
  Name = 
  2 active torsions:
  status: ('A' for Active; 'I' for Inactive)
    1  A    between atoms: N_16  and  C_27
    2  A    between atoms: C_27  and  C_32
                            x       y       z     vdW  Elec       q    Type
                         _______ _______ _______ _____ _____    ______ ____

>  <TORSDO>
F 2

$$$$
=
 OpenBabel11052416493D

 32 37  0  0  1  0  0  0  0  0999 V2000
  185.3510  178.4570  143.2250 C   0  0  0  0  0  0  0  0  0  0  0  0
  182.1420  178.3570  141.3410 C   0  0  0  0  0  2  0  0  0  0  0  0
  184.4490  176.3490  137.5320 C   0  0  0  0  0  2  0  0  0  0  0  0
  179.3900  173.2740  138.1500 C   0  0  0  0  0  2  0  0  0  0  0  0
  180.4010  172.1620  137.8550 C   0  0  0  0  0  2  0  0  0  0  0  0
  183.7420  178.5270  138.6400 C   0  0  0  0  0  0  0  0  0  0  0  0
  181.5460  177.4030  138.0680 C   0  0  0  0  0  2  0  0  0  0  0  0
  183.9910  178.2550  143.0510 C   0  0  0  0  0  3  0  0  0  0  0  0
  181.7490  179.0290  140.0280 C   0  0  0  0  0  2  0  0  0  0  0  0
  180.0990  174.5010  138.7330 C   0  0  0  0  0  2  0  0  0  0  0  0
  182.1930  176.0360  138.0900 C   0  0  1  0  0  3  0  0  0  0  0  0
  181.2940  174.8650  137.9010 C   0  0  0  0  0  0  0  0  0  0  0  0
  183.1450  174.5810  136.6680 N   0  0  0  0  0  0  0  0  0  0  0  0
  186.0540  179.0030  141.8020 S   0  0  0  0  0  0  0  0  0  0  0  0
  184.6270  178.9800  140.9160 C   0  0  0  0  0  0  0  0  0  0  0  0
  186.0540  178.2320  144.4390 N   0  0  0  0  0  1  0  0  0  0  0  0
  182.4110  178.3450  138.8680 C   0  0  0  0  0  0  0  0  0  0  0  0
  184.5290  179.4680  139.5050 C   0  0  0  0  0  2  0  0  0  0  0  0
  183.5750  178.5690  141.7500 C   0  0  0  0  0  0  0  0  0  0  0  0
  181.4310  172.6290  136.8200 C   0  0  0  0  0  2  0  0  0  0  0  0
  181.9530  173.9940  137.1650 C   0  0  0  0  0  0  0  0  0  0  0  0
  184.5070  177.8760  137.5080 C   0  0  0  0  0  2  0  0  0  0  0  0
  183.1590  175.9480  136.9980 N   0  0  2  0  0  0  0  0  0  0  0  0
  183.9110  174.0360  135.5500 C   0  0  0  0  0  2  0  0  0  0  0  0
  186.2680  174.5590  135.1800 C   0  0  0  0  0  3  0  0  0  0  0  0
  187.6890  174.4710  135.5310 C   0  0  0  0  0  0  0  0  0  0  0  0
  185.7810  173.0850  137.0560 C   0  0  0  0  0  0  0  0  0  0  0  0
  187.2280  172.7210  137.2220 C   0  0  0  0  0  2  0  0  0  0  0  0
  188.0910  173.6870  136.6160 O   0  0  0  0  0  0  0  0  0  0  0  0
  188.5400  175.1330  134.8820 O   0  0  0  0  0  0  0  0  0  0  0  0
  184.9310  172.6270  137.8650 O   0  0  0  0  0  0  0  0  0  0  0  0
  185.3570  173.9170  135.9120 C   0  0  0  0  0  0  0  0  0  0  0  0
  1 16  1  0  0  0  0
  2 19  1  0  0  0  0
  4 10  1  0  0  0  0
  5  4  1  0  0  0  0
  6 17  2  0  0  0  0
  6 18  1  0  0  0  0
  7 17  1  0  0  0  0
  8  1  2  0  0  0  0
  9  2  1  0  0  0  0
 11  7  1  6  0  0  0
 12 11  1  0  0  0  0
 12 10  1  0  0  0  0
 13 23  1  0  0  0  0
 13 21  1  0  0  0  0
 14  1  1  0  0  0  0
 15 19  2  0  0  0  0
 15 14  1  0  0  0  0
 17  9  1  0  0  0  0
 18 15  1  0  0  0  0
 19  8  1  0  0  0  0
 20 21  1  0  0  0  0
 20  5  1  0  0  0  0
 21 12  2  0  0  0  0
 22  3  1  0  0  0  0
 22  6  1  0  0  0  0
 23  3  1  1  0  0  0
 23 11  1  0  0  0  0
 24 32  1  0  0  0  0
 24 13  1  0  0  0  0
 25 26  1  0  0  0  0
 25 32  2  0  0  0  0
 26 29  1  0  0  0  0
 27 28  1  0  0  0  0
 27 31  2  0  0  0  0
 29 28  1  0  0  0  0
 30 26  2  0  0  0  0
 32 27  1  0  0  0  0
M  END
>  <MODEL>
5

>  <REMARK>
 VINA RESULT:      -6.0      4.100      8.237
  Name = 
  2 active torsions:
  status: ('A' for Active; 'I' for Inactive)
    1  A    between atoms: N_16  and  C_27
    2  A    between atoms: C_27  and  C_32
                            x       y       z     vdW  Elec       q    Type
                         _______ _______ _______ _____ _____    ______ ____

>  <TORSDO>
F 2

$$$$
=
 OpenBabel11052416493D

 32 37  0  0  1  0  0  0  0  0999 V2000
  187.3970  177.3850  143.6920 C   0  0  0  0  0  0  0  0  0  0  0  0
  183.8410  178.3570  143.1740 C   0  0  0  0  0  2  0  0  0  0  0  0
  184.1220  176.8850  138.5250 C   0  0  0  0  0  2  0  0  0  0  0  0
  178.9310  174.7990  140.5590 C   0  0  0  0  0  2  0  0  0  0  0  0
  179.4500  173.6120  139.7420 C   0  0  0  0  0  2  0  0  0  0  0  0
  184.4340  178.8380  140.1240 C   0  0  0  0  0  0  0  0  0  0  0  0
  181.9570  178.3300  140.2710 C   0  0  0  0  0  2  0  0  0  0  0  0
  186.0550  177.4990  144.0200 C   0  0  0  0  0  3  0  0  0  0  0  0
  183.2270  179.3810  142.2220 C   0  0  0  0  0  2  0  0  0  0  0  0
  180.0950  175.6930  141.0020 C   0  0  0  0  0  2  0  0  0  0  0  0
  182.1840  176.8960  139.8450 C   0  0  1  0  0  3  0  0  0  0  0  0
  180.9960  176.0010  139.8420 C   0  0  0  0  0  0  0  0  0  0  0  0
  182.1830  175.6570  137.9720 N   0  0  0  0  0  0  0  0  0  0  0  0
  187.7050  178.1000  142.2060 S   0  0  0  0  0  0  0  0  0  0  0  0
  186.1130  178.5640  141.9340 C   0  0  0  0  0  0  0  0  0  0  0  0
  188.3760  176.7490  144.5020 N   0  0  0  0  0  1  0  0  0  0  0  0
  183.2570  178.8710  140.8110 C   0  0  0  0  0  0  0  0  0  0  0  0
  185.6850  179.3790  140.7540 C   0  0  0  0  0  2  0  0  0  0  0  0
  185.3290  178.1830  143.0350 C   0  0  0  0  0  0  0  0  0  0  0  0
  180.1620  174.0970  138.4740 C   0  0  0  0  0  2  0  0  0  0  0  0
  181.1140  175.2150  138.7910 C   0  0  0  0  0  0  0  0  0  0  0  0
  184.5750  178.3330  138.7050 C   0  0  0  0  0  2  0  0  0  0  0  0
  182.6720  176.8790  138.4680 N   0  0  2  0  0  0  0  0  0  0  0  0
  182.3580  175.2500  136.5800 C   0  0  0  0  0  2  0  0  0  0  0  0
  184.3620  173.9320  137.0450 C   0  0  0  0  0  3  0  0  0  0  0  0
  185.1420  172.6920  136.9920 C   0  0  0  0  0  0  0  0  0  0  0  0
  182.5990  172.7980  135.8050 C   0  0  0  0  0  0  0  0  0  0  0  0
  183.5010  171.6500  135.4570 C   0  0  0  0  0  2  0  0  0  0  0  0
  184.6230  171.5690  136.3400 O   0  0  0  0  0  0  0  0  0  0  0  0
  186.2590  172.6250  137.5680 O   0  0  0  0  0  0  0  0  0  0  0  0
  181.3910  172.7660  135.4500 O   0  0  0  0  0  0  0  0  0  0  0  0
  183.1470  173.9820  136.4980 C   0  0  0  0  0  0  0  0  0  0  0  0
  1  8  2  0  0  0  0
  1 16  1  0  0  0  0
  3 22  1  0  0  0  0
  4 10  1  0  0  0  0
  5  4  1  0  0  0  0
  6 18  1  0  0  0  0
  6 17  2  0  0  0  0
  7 17  1  0  0  0  0
  9  2  1  0  0  0  0
 11  7  1  6  0  0  0
 12 11  1  0  0  0  0
 12 10  1  0  0  0  0
 13 23  1  0  0  0  0
 13 21  1  0  0  0  0
 14  1  1  0  0  0  0
 15 14  1  0  0  0  0
 15 19  2  0  0  0  0
 17  9  1  0  0  0  0
 18 15  1  0  0  0  0
 19  2  1  0  0  0  0
 19  8  1  0  0  0  0
 20 21  1  0  0  0  0
 20  5  1  0  0  0  0
 21 12  2  0  0  0  0
 22  6  1  0  0  0  0
 23  3  1  1  0  0  0
 23 11  1  0  0  0  0
 24 13  1  0  0  0  0
 26 25  1  0  0  0  0
 26 30  2  0  0  0  0
 27 32  1  0  0  0  0
 28 27  1  0  0  0  0
 28 29  1  0  0  0  0
 29 26  1  0  0  0  0
 31 27  2  0  0  0  0
 32 24  1  0  0  0  0
 32 25  2  0  0  0  0
M  END
>  <MODEL>
6

>  <REMARK>
 VINA RESULT:      -5.9      4.441      7.623
  Name = 
  2 active torsions:
  status: ('A' for Active; 'I' for Inactive)
    1  A    between atoms: N_16  and  C_27
    2  A    between atoms: C_27  and  C_32
                            x       y       z     vdW  Elec       q    Type
                         _______ _______ _______ _____ _____    ______ ____

>  <TORSDO>
F 2

$$$$
=
 OpenBabel11052416493D

 32 37  0  0  1  0  0  0  0  0999 V2000
  185.6680  173.3320  136.1120 C   0  0  0  0  0  0  0  0  0  0  0  0
  182.7470  175.2860  134.8840 C   0  0  0  0  0  2  0  0  0  0  0  0
  181.3790  176.1260  139.4980 C   0  0  0  0  0  2  0  0  0  0  0  0
  180.7840  181.3320  136.6720 C   0  0  0  0  0  2  0  0  0  0  0  0
  181.3950  181.7650  138.0080 C   0  0  0  0  0  2  0  0  0  0  0  0
  181.1770  174.5550  137.5080 C   0  0  0  0  0  0  0  0  0  0  0  0
  180.1530  176.7160  136.6730 C   0  0  0  0  0  2  0  0  0  0  0  0
  185.0010  174.2360  135.3010 C   0  0  0  0  0  3  0  0  0  0  0  0
  181.2520  175.0510  135.0780 C   0  0  0  0  0  2  0  0  0  0  0  0
  181.1250  179.8670  136.3790 C   0  0  0  0  0  2  0  0  0  0  0  0
  180.9570  177.5280  137.6650 C   0  0  1  0  0  3  0  0  0  0  0  0
  180.8360  179.0080  137.5760 C   0  0  0  0  0  0  0  0  0  0  0  0
  180.7450  178.3880  139.7290 N   0  0  0  0  0  0  0  0  0  0  0  0
  184.6120  172.6350  137.2140 S   0  0  0  0  0  0  0  0  0  0  0  0
  183.2650  173.4900  136.6870 C   0  0  0  0  0  0  0  0  0  0  0  0
  187.0550  173.0360  136.0240 N   0  0  0  0  0  1  0  0  0  0  0  0
  180.8440  175.3890  136.4820 C   0  0  0  0  0  0  0  0  0  0  0  0
  181.8860  173.2640  137.2230 C   0  0  0  0  0  2  0  0  0  0  0  0
  183.6360  174.3140  135.6110 C   0  0  0  0  0  0  0  0  0  0  0  0
  180.8300  180.9260  139.1600 C   0  0  0  0  0  2  0  0  0  0  0  0
  180.8420  179.4660  138.8110 C   0  0  0  0  0  0  0  0  0  0  0  0
  180.8250  174.8080  138.9570 C   0  0  0  0  0  2  0  0  0  0  0  0
  180.5210  177.1950  139.0190 N   0  0  2  0  0  0  0  0  0  0  0  0
  180.3660  178.5500  141.1290 C   0  0  0  0  0  2  0  0  0  0  0  0
  182.7890  178.6260  141.4300 C   0  0  0  0  0  3  0  0  0  0  0  0
  183.9920  178.7640  142.2570 C   0  0  0  0  0  0  0  0  0  0  0  0
  181.4530  178.8220  143.4570 C   0  0  0  0  0  0  0  0  0  0  0  0
  182.6540  178.6300  144.3370 C   0  0  0  0  0  2  0  0  0  0  0  0
  183.8720  178.9110  143.6430 O   0  0  0  0  0  0  0  0  0  0  0  0
  185.1280  178.7910  141.7170 O   0  0  0  0  0  0  0  0  0  0  0  0
  180.3320  179.0540  143.9810 O   0  0  0  0  0  0  0  0  0  0  0  0
  181.5810  178.6710  141.9930 C   0  0  0  0  0  0  0  0  0  0  0  0
  1 14  1  0  0  0  0
  2  9  1  0  0  0  0
  2 19  1  0  0  0  0
  4  5  1  0  0  0  0
  5 20  1  0  0  0  0
  6 22  1  0  0  0  0
  8 19  1  0  0  0  0
  8  1  2  0  0  0  0
  9 17  1  0  0  0  0
 10  4  1  0  0  0  0
 10 12  1  0  0  0  0
 11  7  1  6  0  0  0
 11 23  1  0  0  0  0
 12 11  1  0  0  0  0
 12 21  2  0  0  0  0
 13 24  1  0  0  0  0
 15 14  1  0  0  0  0
 15 18  1  0  0  0  0
 16  1  1  0  0  0  0
 17  7  1  0  0  0  0
 17  6  2  0  0  0  0
 18  6  1  0  0  0  0
 19 15  2  0  0  0  0
 21 20  1  0  0  0  0
 21 13  1  0  0  0  0
 22  3  1  0  0  0  0
 23  3  1  1  0  0  0
 23 13  1  0  0  0  0
 24 32  1  0  0  0  0
 25 32  2  0  0  0  0
 25 26  1  0  0  0  0
 26 29  1  0  0  0  0
 27 31  2  0  0  0  0
 27 28  1  0  0  0  0
 29 28  1  0  0  0  0
 30 26  2  0  0  0  0
 32 27  1  0  0  0  0
M  END
>  <MODEL>
7

>  <REMARK>
 VINA RESULT:      -5.7      4.619      7.273
  Name = 
  2 active torsions:
  status: ('A' for Active; 'I' for Inactive)
    1  A    between atoms: N_16  and  C_27
    2  A    between atoms: C_27  and  C_32
                            x       y       z     vdW  Elec       q    Type
                         _______ _______ _______ _____ _____    ______ ____

>  <TORSDO>
F 2

$$$$
=
 OpenBabel11052416493D

 32 37  0  0  1  0  0  0  0  0999 V2000
  189.7160  176.1390  142.5630 C   0  0  0  0  0  0  0  0  0  0  0  0
  186.5600  178.0860  142.2440 C   0  0  0  0  0  2  0  0  0  0  0  0
  186.1970  176.7190  137.5690 C   0  0  0  0  0  2  0  0  0  0  0  0
  180.7290  176.1250  139.8440 C   0  0  0  0  0  2  0  0  0  0  0  0
  180.8530  174.8620  138.9870 C   0  0  0  0  0  2  0  0  0  0  0  0
  187.1220  178.4620  139.1740 C   0  0  0  0  0  0  0  0  0  0  0  0
  184.6120  178.6680  139.4430 C   0  0  0  0  0  2  0  0  0  0  0  0
  188.4780  176.6170  142.9620 C   0  0  0  0  0  3  0  0  0  0  0  0
  186.2170  179.2660  141.3390 C   0  0  0  0  0  2  0  0  0  0  0  0
  182.1170  176.6430  140.2370 C   0  0  0  0  0  2  0  0  0  0  0  0
  184.4050  177.2400  138.9880 C   0  0  1  0  0  3  0  0  0  0  0  0
  183.0130  176.7160  139.0360 C   0  0  0  0  0  0  0  0  0  0  0  0
  183.9670  176.1020  137.1020 N   0  0  0  0  0  0  0  0  0  0  0  0
  190.1440  176.7780  141.0730 S   0  0  0  0  0  0  0  0  0  0  0  0
  188.7380  177.6790  140.8900 C   0  0  0  0  0  0  0  0  0  0  0  0
  190.5130  175.2320  143.3130 N   0  0  0  0  0  1  0  0  0  0  0  0
  186.0360  178.8060  139.9220 C   0  0  0  0  0  0  0  0  0  0  0  0
  188.5020  178.6120  139.7440 C   0  0  0  0  0  2  0  0  0  0  0  0
  187.9300  177.5040  142.0260 C   0  0  0  0  0  0  0  0  0  0  0  0
  181.6130  175.1610  137.6900 C   0  0  0  0  0  2  0  0  0  0  0  0
  182.8560  175.9570  137.9710 C   0  0  0  0  0  0  0  0  0  0  0  0
  187.0490  177.9760  137.7430 C   0  0  0  0  0  2  0  0  0  0  0  0
  184.8030  177.1230  137.5870 N   0  0  2  0  0  0  0  0  0  0  0  0
  183.9550  175.7000  135.6980 C   0  0  0  0  0  2  0  0  0  0  0  0
  183.8550  173.2630  135.8300 C   0  0  0  0  0  3  0  0  0  0  0  0
  184.4350  171.9270  135.6540 C   0  0  0  0  0  0  0  0  0  0  0  0
  185.9650  174.2070  135.0610 C   0  0  0  0  0  0  0  0  0  0  0  0
  186.6700  172.8890  135.1940 C   0  0  0  0  0  2  0  0  0  0  0  0
  185.7520  171.7930  135.2040 O   0  0  0  0  0  0  0  0  0  0  0  0
  183.7350  170.9040  135.8690 O   0  0  0  0  0  0  0  0  0  0  0  0
  186.5880  175.2000  134.6010 O   0  0  0  0  0  0  0  0  0  0  0  0
  184.5710  174.3480  135.5330 C   0  0  0  0  0  0  0  0  0  0  0  0
  1  8  2  0  0  0  0
  1 16  1  0  0  0  0
  3 22  1  0  0  0  0
  4 10  1  0  0  0  0
  5  4  1  0  0  0  0
  6 18  1  0  0  0  0
  6 17  2  0  0  0  0
  7 17  1  0  0  0  0
  9  2  1  0  0  0  0
 11 12  1  0  0  0  0
 11  7  1  6  0  0  0
 12 10  1  0  0  0  0
 13 23  1  0  0  0  0
 13 21  1  0  0  0  0
 14  1  1  0  0  0  0
 15 14  1  0  0  0  0
 15 19  2  0  0  0  0
 17  9  1  0  0  0  0
 18 15  1  0  0  0  0
 19  2  1  0  0  0  0
 19  8  1  0  0  0  0
 20 21  1  0  0  0  0
 20  5  1  0  0  0  0
 21 12  2  0  0  0  0
 22  6  1  0  0  0  0
 23  3  1  1  0  0  0
 23 11  1  0  0  0  0
 24 13  1  0  0  0  0
 26 25  1  0  0  0  0
 26 30  2  0  0  0  0
 27 28  1  0  0  0  0
 27 32  1  0  0  0  0
 28 29  1  0  0  0  0
 29 26  1  0  0  0  0
 31 27  2  0  0  0  0
 32 24  1  0  0  0  0
 32 25  2  0  0  0  0
M  END
>  <MODEL>
8

>  <REMARK>
 VINA RESULT:      -5.6      3.568      6.415
  Name = 
  2 active torsions:
  status: ('A' for Active; 'I' for Inactive)
    1  A    between atoms: N_16  and  C_27
    2  A    between atoms: C_27  and  C_32
                            x       y       z     vdW  Elec       q    Type
                         _______ _______ _______ _____ _____    ______ ____

>  <TORSDO>
F 2

$$$$
=
 OpenBabel11052416493D

 32 37  0  0  1  0  0  0  0  0999 V2000
  180.7400  182.9750  136.3240 C   0  0  0  0  0  0  0  0  0  0  0  0
  181.7090  180.6430  139.0580 C   0  0  0  0  0  2  0  0  0  0  0  0
  184.0500  177.8320  135.8220 C   0  0  0  0  0  2  0  0  0  0  0  0
  187.6890  178.2530  140.5140 C   0  0  0  0  0  2  0  0  0  0  0  0
  188.6660  178.3910  139.3440 C   0  0  0  0  0  2  0  0  0  0  0  0
  181.8330  178.2860  136.9820 C   0  0  0  0  0  0  0  0  0  0  0  0
  183.3740  177.6160  138.8760 C   0  0  0  0  0  2  0  0  0  0  0  0
  181.1810  182.6220  137.5890 C   0  0  0  0  0  3  0  0  0  0  0  0
  181.3810  179.1660  139.2570 C   0  0  0  0  0  2  0  0  0  0  0  0
  186.2760  178.6580  140.0820 C   0  0  0  0  0  2  0  0  0  0  0  0
  184.5930  178.0540  138.0930 C   0  0  1  0  0  3  0  0  0  0  0  0
  185.9030  177.9820  138.7950 C   0  0  0  0  0  0  0  0  0  0  0  0
  186.1350  177.1780  136.7150 N   0  0  0  0  0  0  0  0  0  0  0  0
  180.3850  181.6080  135.4190 S   0  0  0  0  0  0  0  0  0  0  0  0
  180.8040  180.5200  136.6280 C   0  0  0  0  0  0  0  0  0  0  0  0
  180.6070  184.3110  135.8560 N   0  0  0  0  0  1  0  0  0  0  0  0
  182.1700  178.3190  138.3020 C   0  0  0  0  0  0  0  0  0  0  0  0
  180.6280  179.0390  136.4980 C   0  0  0  0  0  2  0  0  0  0  0  0
  181.2000  181.2330  137.7710 C   0  0  0  0  0  0  0  0  0  0  0  0
  188.2610  177.4690  138.1880 C   0  0  0  0  0  2  0  0  0  0  0  0
  186.7900  177.5820  137.9060 C   0  0  0  0  0  0  0  0  0  0  0  0
  182.5690  177.4770  135.9370 C   0  0  0  0  0  2  0  0  0  0  0  0
  184.7450  177.1900  136.9240 N   0  0  2  0  0  0  0  0  0  0  0  0
  186.7650  176.3580  135.6840 C   0  0  0  0  0  2  0  0  0  0  0  0
  185.8170  174.3050  136.6080 C   0  0  0  0  0  3  0  0  0  0  0  0
  185.9180  172.9090  137.0450 C   0  0  0  0  0  0  0  0  0  0  0  0
  188.1990  174.2500  136.1030 C   0  0  0  0  0  0  0  0  0  0  0  0
  188.3860  172.9580  136.8440 C   0  0  0  0  0  2  0  0  0  0  0  0
  187.1520  172.2530  137.0030 O   0  0  0  0  0  0  0  0  0  0  0  0
  184.8880  172.2900  137.4180 O   0  0  0  0  0  0  0  0  0  0  0  0
  189.1760  174.7650  135.4990 O   0  0  0  0  0  0  0  0  0  0  0  0
  186.8930  174.9410  136.1440 C   0  0  0  0  0  0  0  0  0  0  0  0
  1  8  2  0  0  0  0
  2  9  1  0  0  0  0
  3 22  1  0  0  0  0
  5  4  1  0  0  0  0
  6 17  2  0  0  0  0
  8 19  1  0  0  0  0
 10  4  1  0  0  0  0
 11 12  1  0  0  0  0
 11  7  1  1  0  0  0
 12 10  1  0  0  0  0
 13 23  1  0  0  0  0
 13 21  1  0  0  0  0
 14  1  1  0  0  0  0
 14 15  1  0  0  0  0
 15 19  2  0  0  0  0
 16  1  1  0  0  0  0
 17  7  1  0  0  0  0
 17  9  1  0  0  0  0
 18 15  1  0  0  0  0
 18  6  1  0  0  0  0
 19  2  1  0  0  0  0
 20  5  1  0  0  0  0
 21 20  1  0  0  0  0
 21 12  2  0  0  0  0
 22  6  1  0  0  0  0
 23  3  1  6  0  0  0
 23 11  1  0  0  0  0
 24 32  1  0  0  0  0
 24 13  1  0  0  0  0
 25 26  1  0  0  0  0
 26 30  2  0  0  0  0
 27 32  1  0  0  0  0
 27 28  1  0  0  0  0
 28 29  1  0  0  0  0
 29 26  1  0  0  0  0
 31 27  2  0  0  0  0
 32 25  2  0  0  0  0
M  END
>  <MODEL>
9

>  <REMARK>
 VINA RESULT:      -5.6      4.106      7.891
  Name = 
  2 active torsions:
  status: ('A' for Active; 'I' for Inactive)
    1  A    between atoms: N_16  and  C_27
    2  A    between atoms: C_27  and  C_32
                            x       y       z     vdW  Elec       q    Type
                         _______ _______ _______ _____ _____    ______ ____

>  <TORSDO>
F 2

$$$$
