=
 OpenBabel11052412393D

 25 27  0  0  1  0  0  0  0  0999 V2000
  184.7430  178.2180  143.1140 C   0  0  0  0  0  0  0  0  0  0  0  0
  185.8950  177.8790  143.8550 C   0  0  0  0  0  0  0  0  0  0  0  0
  183.7210  179.1180  145.1280 C   0  0  0  0  0  3  0  0  0  0  0  0
  184.8570  178.7830  145.8640 C   0  0  0  0  0  3  0  0  0  0  0  0
  187.0990  177.8270  145.9810 C   0  0  0  0  0  0  0  0  0  0  0  0
  187.2270  178.1550  147.7040 Cl  0  0  0  0  0  0  0  0  0  0  0  0
  186.9920  177.2620  143.2380 C   0  0  0  0  0  3  0  0  0  0  0  0
  183.6640  178.8370  143.7630 C   0  0  0  0  0  3  0  0  0  0  0  0
  188.1790  177.2120  145.3430 C   0  0  0  0  0  3  0  0  0  0  0  0
  188.1320  176.9270  143.9710 C   0  0  0  0  0  0  0  0  0  0  0  0
  185.9500  178.1650  145.2440 C   0  0  0  0  0  0  0  0  0  0  0  0
  184.6600  177.9320  141.6360 C   0  0  2  0  0  3  0  0  0  0  0  0
  183.7620  178.1060  138.9200 C   0  0  0  0  0  2  0  0  0  0  0  0
  185.1320  179.0920  140.7800 C   0  0  0  0  0  0  0  0  0  0  0  0
  184.5260  179.3350  139.4210 C   0  0  0  0  0  2  0  0  0  0  0  0
  182.8460  177.5740  139.9870 C   0  0  0  0  0  3  0  0  0  0  0  0
  186.0450  179.8080  141.1600 O   0  0  0  0  0  0  0  0  0  0  0  0
  183.2680  177.4890  141.2540 C   0  0  0  0  0  3  0  0  0  0  0  0
  189.2020  176.3130  143.3150 O   0  0  0  0  0  0  0  0  0  0  0  0
  190.1630  177.0420  142.5640 C   0  0  0  0  0  2  0  0  0  0  0  0
  191.5250  176.9370  143.2280 C   0  0  2  0  0  3  0  0  0  0  0  0
  191.7160  175.5990  143.7650 N   0  0  0  0  0  1  0  0  0  0  0  0
  191.6460  177.9470  144.3200 C   0  0  0  0  0  0  0  0  0  0  0  0
  191.7570  177.5230  145.6370 O   0  0  0  0  0  1  0  0  0  0  0  0
  191.6590  179.1790  144.0570 O   0  0  0  0  0  0  0  0  0  0  0  0
  1  8  2  0  0  0  0
  1  2  1  0  0  0  0
  2 11  1  0  0  0  0
  3  4  2  0  0  0  0
  5  6  1  0  0  0  0
  7  2  2  0  0  0  0
  7 10  1  0  0  0  0
  8  3  1  0  0  0  0
  9  5  1  0  0  0  0
 10  9  2  0  0  0  0
 11  4  1  0  0  0  0
 11  5  2  0  0  0  0
 12  1  1  1  0  0  0
 13 15  1  0  0  0  0
 13 16  1  0  0  0  0
 14 17  2  0  0  0  0
 14 12  1  0  0  0  0
 15 14  1  0  0  0  0
 16 18  2  0  0  0  0
 18 12  1  0  0  0  0
 19 10  1  0  0  0  0
 20 21  1  0  0  0  0
 20 19  1  0  0  0  0
 21 22  1  1  0  0  0
 21 23  1  0  0  0  0
 23 24  1  0  0  0  0
 25 23  2  0  0  0  0
M  END
>  <MODEL>
1

>  <REMARK>
 VINA RESULT:      -8.9      0.000      0.000
  Name = 
  5 active torsions:
  status: ('A' for Active; 'I' for Inactive)
    1  A    between atoms: C_1  and  C_5
    2  A    between atoms: C_2  and  C_21
    3  A    between atoms: O_6  and  C_15
    4  A    between atoms: O_6  and  C_23
    5  A    between atoms: C_15  and  C_21
                            x       y       z     vdW  Elec       q    Type
                         _______ _______ _______ _____ _____    ______ ____

>  <TORSDO>
F 5

$$$$
=
 OpenBabel11052412393D

 25 27  0  0  1  0  0  0  0  0999 V2000
  187.6210  177.8850  144.2000 C   0  0  0  0  0  0  0  0  0  0  0  0
  186.4760  178.2440  143.4580 C   0  0  0  0  0  0  0  0  0  0  0  0
  186.2620  177.7390  146.2110 C   0  0  0  0  0  3  0  0  0  0  0  0
  185.1280  178.0950  145.4810 C   0  0  0  0  0  3  0  0  0  0  0  0
  184.0780  178.7090  143.3650 C   0  0  0  0  0  0  0  0  0  0  0  0
  182.4930  178.8560  144.1120 Cl  0  0  0  0  0  0  0  0  0  0  0  0
  186.5620  178.5000  142.0820 C   0  0  0  0  0  3  0  0  0  0  0  0
  187.4990  177.6340  145.5750 C   0  0  0  0  0  3  0  0  0  0  0  0
  184.1900  178.9580  141.9950 C   0  0  0  0  0  3  0  0  0  0  0  0
  185.4290  178.8540  141.3470 C   0  0  0  0  0  0  0  0  0  0  0  0
  185.2190  178.3500  144.1070 C   0  0  0  0  0  0  0  0  0  0  0  0
  188.9680  177.7590  143.5350 C   0  0  2  0  0  3  0  0  0  0  0  0
  191.7430  177.1230  143.2040 C   0  0  0  0  0  2  0  0  0  0  0  0
  189.3640  176.3200  143.2660 C   0  0  0  0  0  0  0  0  0  0  0  0
  190.8140  175.9080  143.2910 C   0  0  0  0  0  2  0  0  0  0  0  0
  191.3220  178.1880  144.1770 C   0  0  0  0  0  3  0  0  0  0  0  0
  188.5160  175.4920  142.9720 O   0  0  0  0  0  0  0  0  0  0  0  0
  190.0270  178.4870  144.3280 C   0  0  0  0  0  3  0  0  0  0  0  0
  185.5610  179.1000  139.9780 O   0  0  0  0  0  0  0  0  0  0  0  0
  185.3760  178.0900  138.9950 C   0  0  0  0  0  2  0  0  0  0  0  0
  186.3780  178.2760  137.8680 C   0  0  2  0  0  3  0  0  0  0  0  0
  186.0180  177.4360  136.7380 N   0  0  0  0  0  1  0  0  0  0  0  0
  187.7530  177.9360  138.3390 C   0  0  0  0  0  0  0  0  0  0  0  0
  188.6200  178.9520  138.7160 O   0  0  0  0  0  1  0  0  0  0  0  0
  188.1290  176.7360  138.4100 O   0  0  0  0  0  0  0  0  0  0  0  0
  1  8  1  0  0  0  0
  2 11  1  0  0  0  0
  2  1  2  0  0  0  0
  4  3  1  0  0  0  0
  5 11  1  0  0  0  0
  5  6  1  0  0  0  0
  7  2  1  0  0  0  0
  8  3  2  0  0  0  0
  9  5  2  0  0  0  0
 10  9  1  0  0  0  0
 10  7  2  0  0  0  0
 11  4  2  0  0  0  0
 12  1  1  1  0  0  0
 12 18  1  0  0  0  0
 13 15  1  0  0  0  0
 13 16  1  0  0  0  0
 14 15  1  0  0  0  0
 14 12  1  0  0  0  0
 16 18  2  0  0  0  0
 17 14  2  0  0  0  0
 19 10  1  0  0  0  0
 20 19  1  0  0  0  0
 21 22  1  6  0  0  0
 21 23  1  0  0  0  0
 21 20  1  0  0  0  0
 23 25  2  0  0  0  0
 23 24  1  0  0  0  0
M  END
>  <MODEL>
2

>  <REMARK>
 VINA RESULT:      -8.8      2.834      5.982
  Name = 
  5 active torsions:
  status: ('A' for Active; 'I' for Inactive)
    1  A    between atoms: C_1  and  C_5
    2  A    between atoms: C_2  and  C_21
    3  A    between atoms: O_6  and  C_15
    4  A    between atoms: O_6  and  C_23
    5  A    between atoms: C_15  and  C_21
                            x       y       z     vdW  Elec       q    Type
                         _______ _______ _______ _____ _____    ______ ____

>  <TORSDO>
F 5

$$$$
=
 OpenBabel11052412393D

 25 27  0  0  1  0  0  0  0  0999 V2000
  187.4580  178.0060  145.8070 C   0  0  0  0  0  0  0  0  0  0  0  0
  188.7000  177.6540  145.2380 C   0  0  0  0  0  0  0  0  0  0  0  0
  188.2190  177.1790  147.9630 C   0  0  0  0  0  3  0  0  0  0  0  0
  189.4470  176.8280  147.4040 C   0  0  0  0  0  3  0  0  0  0  0  0
  190.9400  176.7060  145.4780 C   0  0  0  0  0  0  0  0  0  0  0  0
  192.2220  175.9660  146.4270 Cl  0  0  0  0  0  0  0  0  0  0  0  0
  188.9600  177.8830  143.8800 C   0  0  0  0  0  3  0  0  0  0  0  0
  187.2310  177.7650  147.1700 C   0  0  0  0  0  3  0  0  0  0  0  0
  191.1750  176.9460  144.1220 C   0  0  0  0  0  3  0  0  0  0  0  0
  190.1890  177.5350  143.3170 C   0  0  0  0  0  0  0  0  0  0  0  0
  189.7030  177.0580  146.0460 C   0  0  0  0  0  0  0  0  0  0  0  0
  186.3770  178.6460  144.9730 C   0  0  2  0  0  3  0  0  0  0  0  0
  183.9020  178.9310  143.5570 C   0  0  0  0  0  2  0  0  0  0  0  0
  185.1090  178.9250  145.7590 C   0  0  0  0  0  0  0  0  0  0  0  0
  183.7640  178.8770  145.0820 C   0  0  0  0  0  2  0  0  0  0  0  0
  184.9390  177.9540  143.0790 C   0  0  0  0  0  3  0  0  0  0  0  0
  185.1710  179.2450  146.9360 O   0  0  0  0  0  0  0  0  0  0  0  0
  186.0950  177.8250  143.7390 C   0  0  0  0  0  3  0  0  0  0  0  0
  190.4060  177.7820  141.9590 O   0  0  0  0  0  0  0  0  0  0  0  0
  189.5310  177.3090  140.9430 C   0  0  0  0  0  2  0  0  0  0  0  0
  188.9050  178.4840  140.2120 C   0  0  2  0  0  3  0  0  0  0  0  0
  187.4680  178.5000  140.4340 N   0  0  0  0  0  1  0  0  0  0  0  0
  189.1940  178.3950  138.7510 C   0  0  0  0  0  0  0  0  0  0  0  0
  189.7070  177.2180  138.2240 O   0  0  0  0  0  1  0  0  0  0  0  0
  188.9660  179.3720  137.9900 O   0  0  0  0  0  0  0  0  0  0  0  0
  1  8  1  0  0  0  0
  2  1  2  0  0  0  0
  2 11  1  0  0  0  0
  4  3  1  0  0  0  0
  5 11  1  0  0  0  0
  5  6  1  0  0  0  0
  7  2  1  0  0  0  0
  8  3  2  0  0  0  0
  9  5  2  0  0  0  0
 10  7  2  0  0  0  0
 10  9  1  0  0  0  0
 11  4  2  0  0  0  0
 12 14  1  0  0  0  0
 12  1  1  1  0  0  0
 13 15  1  0  0  0  0
 14 17  2  0  0  0  0
 15 14  1  0  0  0  0
 16 13  1  0  0  0  0
 16 18  2  0  0  0  0
 18 12  1  0  0  0  0
 19 10  1  0  0  0  0
 20 19  1  0  0  0  0
 21 22  1  6  0  0  0
 21 20  1  0  0  0  0
 23 21  1  0  0  0  0
 24 23  1  0  0  0  0
 25 23  2  0  0  0  0
M  END
>  <MODEL>
3

>  <REMARK>
 VINA RESULT:      -8.7      2.887      4.713
  Name = 
  5 active torsions:
  status: ('A' for Active; 'I' for Inactive)
    1  A    between atoms: C_1  and  C_5
    2  A    between atoms: C_2  and  C_21
    3  A    between atoms: O_6  and  C_15
    4  A    between atoms: O_6  and  C_23
    5  A    between atoms: C_15  and  C_21
                            x       y       z     vdW  Elec       q    Type
                         _______ _______ _______ _____ _____    ______ ____

>  <TORSDO>
F 5

$$$$
=
 OpenBabel11052412393D

 25 27  0  0  1  0  0  0  0  0999 V2000
  187.7970  177.8520  144.3350 C   0  0  0  0  0  0  0  0  0  0  0  0
  186.6070  178.2570  143.6950 C   0  0  0  0  0  0  0  0  0  0  0  0
  186.5840  177.6230  146.4300 C   0  0  0  0  0  3  0  0  0  0  0  0
  185.4060  178.0230  145.8000 C   0  0  0  0  0  3  0  0  0  0  0  0
  184.2150  178.7470  143.7970 C   0  0  0  0  0  0  0  0  0  0  0  0
  182.6890  178.8730  144.6620 Cl  0  0  0  0  0  0  0  0  0  0  0  0
  186.5970  178.5760  142.3300 C   0  0  0  0  0  3  0  0  0  0  0  0
  187.7710  177.5370  145.7020 C   0  0  0  0  0  3  0  0  0  0  0  0
  184.2310  179.0600  142.4360 C   0  0  0  0  0  3  0  0  0  0  0  0
  185.4190  178.9760  141.6950 C   0  0  0  0  0  0  0  0  0  0  0  0
  185.4010  178.3430  144.4370 C   0  0  0  0  0  0  0  0  0  0  0  0
  189.0920  177.7460  143.5700 C   0  0  2  0  0  3  0  0  0  0  0  0
  191.8350  177.1240  143.0190 C   0  0  0  0  0  2  0  0  0  0  0  0
  189.4670  176.3140  143.2360 C   0  0  0  0  0  0  0  0  0  0  0  0
  190.9150  175.9050  143.1440 C   0  0  0  0  0  2  0  0  0  0  0  0
  191.4870  178.1630  144.0470 C   0  0  0  0  0  3  0  0  0  0  0  0
  188.6000  175.4920  142.9850 O   0  0  0  0  0  0  0  0  0  0  0  0
  190.2060  178.4560  144.3000 C   0  0  0  0  0  3  0  0  0  0  0  0
  185.4560  179.2850  140.3340 O   0  0  0  0  0  0  0  0  0  0  0  0
  184.9870  178.3940  139.3310 C   0  0  0  0  0  2  0  0  0  0  0  0
  183.6970  178.9240  138.7300 C   0  0  2  0  0  3  0  0  0  0  0  0
  183.5880  180.3540  138.9670 N   0  0  0  0  0  1  0  0  0  0  0  0
  182.5240  178.2180  139.3230 C   0  0  0  0  0  0  0  0  0  0  0  0
  181.2760  178.8260  139.3050 O   0  0  0  0  0  0  0  0  0  0  0  0
  182.6520  177.0710  139.8270 O   0  0  0  0  0  1  0  0  0  0  0  0
  1  8  1  0  0  0  0
  2  1  2  0  0  0  0
  2 11  1  0  0  0  0
  4  3  1  0  0  0  0
  5 11  1  0  0  0  0
  5  6  1  0  0  0  0
  7  2  1  0  0  0  0
  8  3  2  0  0  0  0
  9  5  2  0  0  0  0
 10  7  2  0  0  0  0
 10  9  1  0  0  0  0
 11  4  2  0  0  0  0
 12 18  1  0  0  0  0
 12  1  1  1  0  0  0
 13 15  1  0  0  0  0
 13 16  1  0  0  0  0
 14 12  1  0  0  0  0
 15 14  1  0  0  0  0
 16 18  2  0  0  0  0
 17 14  2  0  0  0  0
 19 10  1  0  0  0  0
 20 19  1  0  0  0  0
 21 22  1  1  0  0  0
 21 23  1  0  0  0  0
 21 20  1  0  0  0  0
 23 25  1  0  0  0  0
 24 23  2  0  0  0  0
M  END
>  <MODEL>
4

>  <REMARK>
 VINA RESULT:      -8.6      2.912      6.794
  Name = 
  5 active torsions:
  status: ('A' for Active; 'I' for Inactive)
    1  A    between atoms: C_1  and  C_5
    2  A    between atoms: C_2  and  C_21
    3  A    between atoms: O_6  and  C_15
    4  A    between atoms: O_6  and  C_23
    5  A    between atoms: C_15  and  C_21
                            x       y       z     vdW  Elec       q    Type
                         _______ _______ _______ _____ _____    ______ ____

>  <TORSDO>
F 5

$$$$
=
 OpenBabel11052412393D

 25 27  0  0  1  0  0  0  0  0999 V2000
  184.6150  178.2010  143.1130 C   0  0  0  0  0  0  0  0  0  0  0  0
  185.8390  177.9160  143.7530 C   0  0  0  0  0  0  0  0  0  0  0  0
  183.7040  178.9990  145.2210 C   0  0  0  0  0  3  0  0  0  0  0  0
  184.9120  178.7180  145.8580 C   0  0  0  0  0  3  0  0  0  0  0  0
  187.2070  177.8920  145.7780 C   0  0  0  0  0  0  0  0  0  0  0  0
  187.4520  178.1930  147.4940 Cl  0  0  0  0  0  0  0  0  0  0  0  0
  186.9170  177.3760  143.0380 C   0  0  0  0  0  3  0  0  0  0  0  0
  183.5570  178.7430  143.8580 C   0  0  0  0  0  3  0  0  0  0  0  0
  188.2670  177.3540  145.0440 C   0  0  0  0  0  3  0  0  0  0  0  0
  188.1290  177.0940  143.6720 C   0  0  0  0  0  0  0  0  0  0  0  0
  185.9870  178.1770  145.1400 C   0  0  0  0  0  0  0  0  0  0  0  0
  184.4320  177.9390  141.6390 C   0  0  2  0  0  3  0  0  0  0  0  0
  183.3850  178.1920  138.9830 C   0  0  0  0  0  2  0  0  0  0  0  0
  184.9050  179.0890  140.7700 C   0  0  0  0  0  0  0  0  0  0  0  0
  184.2330  179.3790  139.4520 C   0  0  0  0  0  2  0  0  0  0  0  0
  182.5100  177.6870  140.0960 C   0  0  0  0  0  3  0  0  0  0  0  0
  185.8710  179.7580  141.1030 O   0  0  0  0  0  0  0  0  0  0  0  0
  183.0010  177.5660  141.3350 C   0  0  0  0  0  3  0  0  0  0  0  0
  189.1770  176.5570  142.9210 O   0  0  0  0  0  0  0  0  0  0  0  0
  190.0830  177.3630  142.1810 C   0  0  0  0  0  2  0  0  0  0  0  0
  190.1860  176.8500  140.7550 C   0  0  2  0  0  3  0  0  0  0  0  0
  191.5070  177.1320  140.2180 N   0  0  0  0  0  1  0  0  0  0  0  0
  189.1410  177.4880  139.9020 C   0  0  0  0  0  0  0  0  0  0  0  0
  188.6850  176.8290  138.7690 O   0  0  0  0  0  0  0  0  0  0  0  0
  188.6610  178.6120  140.2060 O   0  0  0  0  0  1  0  0  0  0  0  0
  1  2  2  0  0  0  0
  1  8  1  0  0  0  0
  2 11  1  0  0  0  0
  3  4  1  0  0  0  0
  5  6  1  0  0  0  0
  7 10  2  0  0  0  0
  7  2  1  0  0  0  0
  8  3  2  0  0  0  0
  9  5  2  0  0  0  0
 10  9  1  0  0  0  0
 11  5  1  0  0  0  0
 11  4  2  0  0  0  0
 12  1  1  1  0  0  0
 13 15  1  0  0  0  0
 13 16  1  0  0  0  0
 14 17  2  0  0  0  0
 14 12  1  0  0  0  0
 15 14  1  0  0  0  0
 16 18  2  0  0  0  0
 18 12  1  0  0  0  0
 19 10  1  0  0  0  0
 20 19  1  0  0  0  0
 21 22  1  6  0  0  0
 21 20  1  0  0  0  0
 23 25  1  0  0  0  0
 23 21  1  0  0  0  0
 24 23  2  0  0  0  0
M  END
>  <MODEL>
5

>  <REMARK>
 VINA RESULT:      -8.5      1.531      2.296
  Name = 
  5 active torsions:
  status: ('A' for Active; 'I' for Inactive)
    1  A    between atoms: C_1  and  C_5
    2  A    between atoms: C_2  and  C_21
    3  A    between atoms: O_6  and  C_15
    4  A    between atoms: O_6  and  C_23
    5  A    between atoms: C_15  and  C_21
                            x       y       z     vdW  Elec       q    Type
                         _______ _______ _______ _____ _____    ______ ____

>  <TORSDO>
F 5

$$$$
=
 OpenBabel11052412393D

 25 27  0  0  1  0  0  0  0  0999 V2000
  189.1880  177.1690  144.1610 C   0  0  0  0  0  0  0  0  0  0  0  0
  188.1950  177.5410  145.0910 C   0  0  0  0  0  0  0  0  0  0  0  0
  190.8060  176.9950  145.9680 C   0  0  0  0  0  3  0  0  0  0  0  0
  189.8270  177.3640  146.8900 C   0  0  0  0  0  3  0  0  0  0  0  0
  187.5290  178.0120  147.3940 C   0  0  0  0  0  0  0  0  0  0  0  0
  187.8700  178.1520  149.1140 Cl  0  0  0  0  0  0  0  0  0  0  0  0
  186.8850  177.8170  144.6730 C   0  0  0  0  0  3  0  0  0  0  0  0
  190.4880  176.8980  144.6120 C   0  0  0  0  0  3  0  0  0  0  0  0
  186.2310  178.2820  146.9530 C   0  0  0  0  0  3  0  0  0  0  0  0
  185.9020  178.1850  145.5940 C   0  0  0  0  0  0  0  0  0  0  0  0
  188.5200  177.6400  146.4680 C   0  0  0  0  0  0  0  0  0  0  0  0
  188.8690  177.0500  142.6920 C   0  0  2  0  0  3  0  0  0  0  0  0
  189.0490  177.4970  139.8660 C   0  0  0  0  0  2  0  0  0  0  0  0
  189.9560  176.3430  141.9040 C   0  0  0  0  0  0  0  0  0  0  0  0
  190.2160  176.7050  140.4650 C   0  0  0  0  0  2  0  0  0  0  0  0
  188.6340  178.6120  140.7840 C   0  0  0  0  0  3  0  0  0  0  0  0
  190.5950  175.4350  142.4130 O   0  0  0  0  0  0  0  0  0  0  0  0
  188.5470  178.4020  142.1020 C   0  0  0  0  0  3  0  0  0  0  0  0
  184.6100  178.4510  145.1330 O   0  0  0  0  0  0  0  0  0  0  0  0
  184.3360  179.4220  144.1330 C   0  0  0  0  0  2  0  0  0  0  0  0
  184.1650  178.7420  142.7850 C   0  0  2  0  0  3  0  0  0  0  0  0
  185.0270  179.3700  141.7970 N   0  0  0  0  0  1  0  0  0  0  0  0
  182.7420  178.8200  142.3450 C   0  0  0  0  0  0  0  0  0  0  0  0
  181.7710  179.2510  143.2370 O   0  0  0  0  0  1  0  0  0  0  0  0
  182.4160  178.5110  141.1680 O   0  0  0  0  0  0  0  0  0  0  0  0
  1  8  2  0  0  0  0
  1  2  1  0  0  0  0
  2 11  1  0  0  0  0
  3  4  2  0  0  0  0
  5  6  1  0  0  0  0
  7  2  2  0  0  0  0
  7 10  1  0  0  0  0
  8  3  1  0  0  0  0
  9  5  1  0  0  0  0
 10  9  2  0  0  0  0
 11  4  1  0  0  0  0
 11  5  2  0  0  0  0
 12  1  1  1  0  0  0
 13 15  1  0  0  0  0
 13 16  1  0  0  0  0
 14 17  2  0  0  0  0
 14 12  1  0  0  0  0
 15 14  1  0  0  0  0
 16 18  2  0  0  0  0
 18 12  1  0  0  0  0
 19 10  1  0  0  0  0
 20 19  1  0  0  0  0
 21 22  1  6  0  0  0
 21 20  1  0  0  0  0
 23 21  1  0  0  0  0
 23 24  1  0  0  0  0
 25 23  2  0  0  0  0
M  END
>  <MODEL>
6

>  <REMARK>
 VINA RESULT:      -7.9      2.681      6.002
  Name = 
  5 active torsions:
  status: ('A' for Active; 'I' for Inactive)
    1  A    between atoms: C_1  and  C_5
    2  A    between atoms: C_2  and  C_21
    3  A    between atoms: O_6  and  C_15
    4  A    between atoms: O_6  and  C_23
    5  A    between atoms: C_15  and  C_21
                            x       y       z     vdW  Elec       q    Type
                         _______ _______ _______ _____ _____    ______ ____

>  <TORSDO>
F 5

$$$$
=
 OpenBabel11052412393D

 25 27  0  0  1  0  0  0  0  0999 V2000
  186.7450  178.1690  145.0280 C   0  0  0  0  0  0  0  0  0  0  0  0
  187.9360  177.8430  144.3480 C   0  0  0  0  0  0  0  0  0  0  0  0
  187.7250  177.3830  147.1100 C   0  0  0  0  0  3  0  0  0  0  0  0
  188.9040  177.0570  146.4400 C   0  0  0  0  0  3  0  0  0  0  0  0
  190.2130  176.9540  144.3830 C   0  0  0  0  0  0  0  0  0  0  0  0
  191.5960  176.2550  145.2130 Cl  0  0  0  0  0  0  0  0  0  0  0  0
  188.0620  178.0650  142.9700 C   0  0  0  0  0  3  0  0  0  0  0  0
  186.6530  177.9350  146.4090 C   0  0  0  0  0  3  0  0  0  0  0  0
  190.3130  177.1860  143.0090 C   0  0  0  0  0  3  0  0  0  0  0  0
  189.2420  177.7420  142.2960 C   0  0  0  0  0  0  0  0  0  0  0  0
  189.0250  177.2800  145.0630 C   0  0  0  0  0  0  0  0  0  0  0  0
  185.5740  178.7740  144.2950 C   0  0  2  0  0  3  0  0  0  0  0  0
  183.0280  178.9420  142.9900 C   0  0  0  0  0  2  0  0  0  0  0  0
  184.3180  178.8470  145.1430 C   0  0  0  0  0  0  0  0  0  0  0  0
  182.9570  178.7290  144.5050 C   0  0  0  0  0  2  0  0  0  0  0  0
  184.1350  178.1240  142.3860 C   0  0  0  0  0  3  0  0  0  0  0  0
  184.3950  179.0580  146.3430 O   0  0  0  0  0  0  0  0  0  0  0  0
  185.3240  178.0490  142.9950 C   0  0  0  0  0  3  0  0  0  0  0  0
  189.3230  177.9810  140.9220 O   0  0  0  0  0  0  0  0  0  0  0  0
  189.9350  177.0700  140.0190 C   0  0  0  0  0  2  0  0  0  0  0  0
  189.1250  176.9920  138.7360 C   0  0  2  0  0  3  0  0  0  0  0  0
  190.0050  176.7440  137.6060 N   0  0  0  0  0  1  0  0  0  0  0  0
  188.3700  178.2610  138.5250 C   0  0  0  0  0  0  0  0  0  0  0  0
  189.0280  179.3750  138.0230 O   0  0  0  0  0  0  0  0  0  0  0  0
  187.1390  178.3280  138.7860 O   0  0  0  0  0  1  0  0  0  0  0  0
  1  8  1  0  0  0  0
  2  1  2  0  0  0  0
  2 11  1  0  0  0  0
  4  3  1  0  0  0  0
  5 11  1  0  0  0  0
  5  6  1  0  0  0  0
  7  2  1  0  0  0  0
  8  3  2  0  0  0  0
  9  5  2  0  0  0  0
 10  7  2  0  0  0  0
 10  9  1  0  0  0  0
 11  4  2  0  0  0  0
 12  1  1  1  0  0  0
 12 14  1  0  0  0  0
 13 15  1  0  0  0  0
 14 17  2  0  0  0  0
 15 14  1  0  0  0  0
 16 13  1  0  0  0  0
 16 18  2  0  0  0  0
 18 12  1  0  0  0  0
 19 10  1  0  0  0  0
 20 19  1  0  0  0  0
 21 22  1  6  0  0  0
 21 20  1  0  0  0  0
 23 21  1  0  0  0  0
 23 25  1  0  0  0  0
 24 23  2  0  0  0  0
M  END
>  <MODEL>
7

>  <REMARK>
 VINA RESULT:      -7.8      2.787      4.498
  Name = 
  5 active torsions:
  status: ('A' for Active; 'I' for Inactive)
    1  A    between atoms: C_1  and  C_5
    2  A    between atoms: C_2  and  C_21
    3  A    between atoms: O_6  and  C_15
    4  A    between atoms: O_6  and  C_23
    5  A    between atoms: C_15  and  C_21
                            x       y       z     vdW  Elec       q    Type
                         _______ _______ _______ _____ _____    ______ ____

>  <TORSDO>
F 5

$$$$
=
 OpenBabel11052412393D

 25 27  0  0  1  0  0  0  0  0999 V2000
  183.7300  178.2080  141.9820 C   0  0  0  0  0  0  0  0  0  0  0  0
  184.8120  178.2200  142.8860 C   0  0  0  0  0  0  0  0  0  0  0  0
  182.2600  179.0200  143.7400 C   0  0  0  0  0  3  0  0  0  0  0  0
  183.3270  179.0310  144.6380 C   0  0  0  0  0  3  0  0  0  0  0  0
  185.6860  178.6450  145.1290 C   0  0  0  0  0  0  0  0  0  0  0  0
  185.4950  179.1500  146.8020 Cl  0  0  0  0  0  0  0  0  0  0  0  0
  186.0950  177.8250  142.4800 C   0  0  0  0  0  3  0  0  0  0  0  0
  182.4600  178.6120  142.4210 C   0  0  0  0  0  3  0  0  0  0  0  0
  186.9550  178.2470  144.6990 C   0  0  0  0  0  3  0  0  0  0  0  0
  187.1660  177.8360  143.3750 C   0  0  0  0  0  0  0  0  0  0  0  0
  184.6070  178.6350  144.2270 C   0  0  0  0  0  0  0  0  0  0  0  0
  183.9210  177.7770  140.5490 C   0  0  2  0  0  3  0  0  0  0  0  0
  183.3550  177.4110  137.7640 C   0  0  0  0  0  2  0  0  0  0  0  0
  184.1180  178.9440  139.6010 C   0  0  0  0  0  0  0  0  0  0  0  0
  183.6400  178.8590  138.1740 C   0  0  0  0  0  2  0  0  0  0  0  0
  182.5220  176.7150  138.8030 C   0  0  0  0  0  3  0  0  0  0  0  0
  184.7160  179.9440  139.9680 O   0  0  0  0  0  0  0  0  0  0  0  0
  182.7890  176.8840  140.1030 C   0  0  0  0  0  3  0  0  0  0  0  0
  188.4270  177.4350  142.9260 O   0  0  0  0  0  0  0  0  0  0  0  0
  189.6320  178.0240  143.3950 C   0  0  0  0  0  2  0  0  0  0  0  0
  190.8270  177.3200  142.7750 C   0  0  2  0  0  3  0  0  0  0  0  0
  190.6360  177.1870  141.3400 N   0  0  0  0  0  1  0  0  0  0  0  0
  191.0090  175.9730  143.3920 C   0  0  0  0  0  0  0  0  0  0  0  0
  191.8420  175.8300  144.4920 O   0  0  0  0  0  1  0  0  0  0  0  0
  190.4050  174.9680  142.9310 O   0  0  0  0  0  0  0  0  0  0  0  0
  1  8  2  0  0  0  0
  1  2  1  0  0  0  0
  2 11  1  0  0  0  0
  3  4  2  0  0  0  0
  5  6  1  0  0  0  0
  7  2  2  0  0  0  0
  7 10  1  0  0  0  0
  8  3  1  0  0  0  0
  9  5  1  0  0  0  0
 10  9  2  0  0  0  0
 11  4  1  0  0  0  0
 11  5  2  0  0  0  0
 12  1  1  1  0  0  0
 13 15  1  0  0  0  0
 13 16  1  0  0  0  0
 14 17  2  0  0  0  0
 14 12  1  0  0  0  0
 15 14  1  0  0  0  0
 16 18  2  0  0  0  0
 18 12  1  0  0  0  0
 19 10  1  0  0  0  0
 19 20  1  0  0  0  0
 21 22  1  6  0  0  0
 21 23  1  0  0  0  0
 21 20  1  0  0  0  0
 23 24  1  0  0  0  0
 25 23  2  0  0  0  0
M  END
>  <MODEL>
8

>  <REMARK>
 VINA RESULT:      -7.5      1.532      1.942
  Name = 
  5 active torsions:
  status: ('A' for Active; 'I' for Inactive)
    1  A    between atoms: C_1  and  C_5
    2  A    between atoms: C_2  and  C_21
    3  A    between atoms: O_6  and  C_15
    4  A    between atoms: O_6  and  C_23
    5  A    between atoms: C_15  and  C_21
                            x       y       z     vdW  Elec       q    Type
                         _______ _______ _______ _____ _____    ______ ____

>  <TORSDO>
F 5

$$$$
=
 OpenBabel11052412393D

 25 27  0  0  1  0  0  0  0  0999 V2000
  189.3460  177.2140  145.3750 C   0  0  0  0  0  0  0  0  0  0  0  0
  188.0670  177.6210  144.9410 C   0  0  0  0  0  0  0  0  0  0  0  0
  188.5870  177.3110  147.6830 C   0  0  0  0  0  3  0  0  0  0  0  0
  187.3220  177.7150  147.2580 C   0  0  0  0  0  3  0  0  0  0  0  0
  185.7720  178.2810  145.4600 C   0  0  0  0  0  0  0  0  0  0  0  0
  184.4660  178.6090  146.5910 Cl  0  0  0  0  0  0  0  0  0  0  0  0
  187.7870  177.7810  143.5760 C   0  0  0  0  0  3  0  0  0  0  0  0
  189.5920  177.0620  146.7480 C   0  0  0  0  0  3  0  0  0  0  0  0
  185.5180  178.4320  144.0950 C   0  0  0  0  0  3  0  0  0  0  0  0
  186.5210  178.1830  143.1470 C   0  0  0  0  0  0  0  0  0  0  0  0
  187.0460  177.8740  145.8940 C   0  0  0  0  0  0  0  0  0  0  0  0
  190.4480  176.9320  144.3840 C   0  0  2  0  0  3  0  0  0  0  0  0
  191.8240  176.8000  141.8740 C   0  0  0  0  0  2  0  0  0  0  0  0
  191.0810  178.1930  143.8280 C   0  0  0  0  0  0  0  0  0  0  0  0
  191.6320  178.2170  142.4250 C   0  0  0  0  0  2  0  0  0  0  0  0
  190.5980  175.9640  142.1090 C   0  0  0  0  0  3  0  0  0  0  0  0
  191.2010  179.1850  144.5300 O   0  0  0  0  0  0  0  0  0  0  0  0
  189.9580  176.0240  143.2820 C   0  0  0  0  0  3  0  0  0  0  0  0
  186.2860  178.3300  141.7780 O   0  0  0  0  0  0  0  0  0  0  0  0
  185.0640  178.8360  141.2580 C   0  0  0  0  0  2  0  0  0  0  0  0
  184.9370  178.4720  139.7880 C   0  0  2  0  0  3  0  0  0  0  0  0
  186.2210  178.6280  139.1240 N   0  0  0  0  0  1  0  0  0  0  0  0
  183.9150  179.3360  139.1300 C   0  0  0  0  0  0  0  0  0  0  0  0
  184.1410  180.7000  139.0140 O   0  0  0  0  0  1  0  0  0  0  0  0
  182.8540  178.8380  138.6670 O   0  0  0  0  0  0  0  0  0  0  0  0
  1  8  1  0  0  0  0
  2  1  2  0  0  0  0
  2 11  1  0  0  0  0
  4  3  1  0  0  0  0
  5 11  1  0  0  0  0
  5  6  1  0  0  0  0
  7  2  1  0  0  0  0
  8  3  2  0  0  0  0
  9  5  2  0  0  0  0
 10  7  2  0  0  0  0
 10  9  1  0  0  0  0
 11  4  2  0  0  0  0
 12  1  1  1  0  0  0
 13 16  1  0  0  0  0
 13 15  1  0  0  0  0
 14 12  1  0  0  0  0
 14 17  2  0  0  0  0
 15 14  1  0  0  0  0
 16 18  2  0  0  0  0
 18 12  1  0  0  0  0
 19 10  1  0  0  0  0
 20 19  1  0  0  0  0
 21 22  1  6  0  0  0
 21 20  1  0  0  0  0
 23 21  1  0  0  0  0
 24 23  1  0  0  0  0
 25 23  2  0  0  0  0
M  END
>  <MODEL>
9

>  <REMARK>
 VINA RESULT:      -7.5      2.254      6.337
  Name = 
  5 active torsions:
  status: ('A' for Active; 'I' for Inactive)
    1  A    between atoms: C_1  and  C_5
    2  A    between atoms: C_2  and  C_21
    3  A    between atoms: O_6  and  C_15
    4  A    between atoms: O_6  and  C_23
    5  A    between atoms: C_15  and  C_21
                            x       y       z     vdW  Elec       q    Type
                         _______ _______ _______ _____ _____    ______ ____

>  <TORSDO>
F 5

$$$$
