=
 OpenBabel11052413013D

 31 34  0  0  1  0  0  0  0  0999 V2000
  186.1490  178.1840  138.3350 C   0  0  0  0  0  2  0  0  0  0  0  0
  184.3090  176.7320  136.1640 C   0  0  1  0  0  3  0  0  0  0  0  0
  184.0040  177.6470  137.2820 N   0  0  2  0  0  0  0  0  0  0  0  0
  186.2420  176.0300  134.5960 C   0  0  0  0  0  1  0  0  0  0  0  0
  187.0350  177.7900  137.1590 C   0  0  0  0  0  2  0  0  0  0  0  0
  184.8910  177.3290  138.4020 C   0  0  0  0  0  2  0  0  0  0  0  0
  186.4130  178.2240  135.8360 C   0  0  0  0  0  2  0  0  0  0  0  0
  185.4730  177.1700  135.2450 C   0  0  2  0  0  3  0  0  0  0  0  0
  181.9900  178.9530  139.7300 C   0  0  2  0  0  3  0  0  0  0  0  0
  180.4970  180.7400  139.2930 C   0  0  0  0  0  1  0  0  0  0  0  0
  180.6000  179.2890  139.3700 N   0  0  0  0  0  0  0  0  0  0  0  0
  182.4430  177.5680  139.2230 C   0  0  1  0  0  3  0  0  0  0  0  0
  181.5390  176.4350  139.6870 C   0  0  0  0  0  1  0  0  0  0  0  0
  182.5920  177.5250  137.6880 C   0  0  1  0  0  3  0  0  0  0  0  0
  180.2040  178.7620  138.0570 C   0  0  0  0  0  2  0  0  0  0  0  0
  181.5690  178.8050  136.8380 S   0  0  0  0  0  0  0  0  0  0  0  0
  181.4820  178.4370  143.5830 C   0  0  1  0  0  3  0  0  0  0  0  0
  183.8690  178.4890  142.9510 C   0  0  0  0  0  3  0  0  0  0  0  0
  180.5330  178.9340  144.4560 F   0  0  0  0  0  0  0  0  0  0  0  0
  181.0830  178.7730  142.1330 C   0  0  0  0  0  2  0  0  0  0  0  0
  183.5790  178.5860  141.6500 C   0  0  0  0  0  3  0  0  0  0  0  0
  182.2630  179.1820  141.2240 C   0  0  1  0  0  3  0  0  0  0  0  0
  182.8680  178.9610  143.9630 C   0  0  0  0  0  2  0  0  0  0  0  0
  183.9750  175.2610  136.3500 C   0  0  0  0  0  0  0  0  0  0  0  0
  184.5190  173.2310  137.4600 C   0  0  0  0  0  3  0  0  0  0  0  0
  184.7280  174.5530  137.2340 N   0  0  0  0  0  0  0  0  0  0  0  0
  182.0430  175.2790  134.6880 C   0  0  0  0  0  1  0  0  0  0  0  0
  183.5050  172.5730  136.7700 C   0  0  0  0  0  0  0  0  0  0  0  0
  183.2570  171.1260  137.0000 C   0  0  0  0  0  1  0  0  0  0  0  0
  182.9420  174.5890  135.6550 C   0  0  0  0  0  0  0  0  0  0  0  0
  182.7400  173.2660  135.8890 N   0  0  0  0  0  0  0  0  0  0  0  0
  1  6  1  0  0  0  0
  2 24  1  1  0  0  0
  2  3  1  0  0  0  0
  3 14  1  0  0  0  0
  3  6  1  1  0  0  0
  5  1  1  0  0  0  0
  7  5  1  0  0  0  0
  8  4  1  1  0  0  0
  8  7  1  0  0  0  0
  8  2  1  0  0  0  0
  9 11  1  1  0  0  0
  9 22  1  0  0  0  0
 10 11  1  0  0  0  0
 12 13  1  6  0  0  0
 12  9  1  0  0  0  0
 14 16  1  6  0  0  0
 14 12  1  0  0  0  0
 15 11  1  0  0  0  0
 16 15  1  0  0  0  0
 17 23  1  0  0  0  0
 17 19  1  1  0  0  0
 18 23  1  0  0  0  0
 20 17  1  0  0  0  0
 21 18  2  0  0  0  0
 22 21  1  1  0  0  0
 22 20  1  0  0  0  0
 24 26  1  0  0  0  0
 26 25  2  0  0  0  0
 27 30  1  0  0  0  0
 28 29  1  0  0  0  0
 28 25  1  0  0  0  0
 30 31  1  0  0  0  0
 30 24  2  0  0  0  0
 31 28  2  0  0  0  0
M  END
>  <MODEL>
1

>  <REMARK>
 VINA RESULT:      -5.4      0.000      0.000
  Name = 
  3 active torsions:
  status: ('A' for Active; 'I' for Inactive)
    1  A    between atoms: C_3  and  C_22
    2  A    between atoms: C_4  and  C_5
    3  A    between atoms: N_12  and  C_21
                            x       y       z     vdW  Elec       q    Type
                         _______ _______ _______ _____ _____    ______ ____

>  <TORSDO>
F 3

$$$$
=
 OpenBabel11052413013D

 31 34  0  0  1  0  0  0  0  0999 V2000
  186.3730  178.1440  138.3930 C   0  0  0  0  0  2  0  0  0  0  0  0
  184.5380  176.7130  136.2050 C   0  0  1  0  0  3  0  0  0  0  0  0
  184.2270  177.5900  137.3510 N   0  0  2  0  0  0  0  0  0  0  0  0
  186.4660  176.0960  134.5950 C   0  0  0  0  0  1  0  0  0  0  0  0
  187.2530  177.8020  137.1970 C   0  0  0  0  0  2  0  0  0  0  0  0
  185.1350  177.2610  138.4510 C   0  0  0  0  0  2  0  0  0  0  0  0
  186.6060  178.2580  135.8940 C   0  0  0  0  0  2  0  0  0  0  0  0
  185.6810  177.2010  135.2850 C   0  0  2  0  0  3  0  0  0  0  0  0
  182.3310  178.3970  140.0910 C   0  0  2  0  0  3  0  0  0  0  0  0
  180.8960  180.2810  140.1010 C   0  0  0  0  0  1  0  0  0  0  0  0
  180.9460  178.8460  139.8600 N   0  0  0  0  0  0  0  0  0  0  0  0
  182.7180  177.1410  139.2820 C   0  0  1  0  0  3  0  0  0  0  0  0
  181.7860  175.9630  139.5230 C   0  0  0  0  0  1  0  0  0  0  0  0
  182.8240  177.4260  137.7700 C   0  0  1  0  0  3  0  0  0  0  0  0
  180.4950  178.6280  138.4790 C   0  0  0  0  0  2  0  0  0  0  0  0
  181.8270  178.8910  137.2510 S   0  0  0  0  0  0  0  0  0  0  0  0
  184.1890  179.2850  143.4280 C   0  0  1  0  0  3  0  0  0  0  0  0
  181.7510  179.0460  143.7470 C   0  0  0  0  0  3  0  0  0  0  0  0
  185.4320  178.9200  143.9090 F   0  0  0  0  0  0  0  0  0  0  0  0
  184.0470  178.8420  141.9590 C   0  0  0  0  0  2  0  0  0  0  0  0
  181.5440  178.8490  142.4410 C   0  0  0  0  0  3  0  0  0  0  0  0
  182.6530  178.2890  141.5890 C   0  0  1  0  0  3  0  0  0  0  0  0
  183.0920  178.7220  144.3350 C   0  0  0  0  0  2  0  0  0  0  0  0
  184.2370  175.2310  136.3540 C   0  0  0  0  0  0  0  0  0  0  0  0
  184.8100  173.1920  137.4330 C   0  0  0  0  0  3  0  0  0  0  0  0
  184.9900  174.5230  137.2380 N   0  0  0  0  0  0  0  0  0  0  0  0
  182.3400  175.2350  134.6520 C   0  0  0  0  0  1  0  0  0  0  0  0
  183.8270  172.5240  136.7090 C   0  0  0  0  0  0  0  0  0  0  0  0
  183.6110  171.0660  136.9040 C   0  0  0  0  0  1  0  0  0  0  0  0
  183.2370  174.5480  135.6230 C   0  0  0  0  0  0  0  0  0  0  0  0
  183.0630  173.2150  135.8260 N   0  0  0  0  0  0  0  0  0  0  0  0
  1  6  1  0  0  0  0
  2 24  1  1  0  0  0
  2  3  1  0  0  0  0
  3 14  1  0  0  0  0
  3  6  1  1  0  0  0
  5  1  1  0  0  0  0
  7  5  1  0  0  0  0
  8  4  1  1  0  0  0
  8  7  1  0  0  0  0
  8  2  1  0  0  0  0
  9 11  1  1  0  0  0
  9 22  1  0  0  0  0
 11 10  1  0  0  0  0
 12 13  1  6  0  0  0
 12  9  1  0  0  0  0
 14 16  1  1  0  0  0
 14 12  1  0  0  0  0
 15 11  1  0  0  0  0
 16 15  1  0  0  0  0
 17 19  1  1  0  0  0
 17 23  1  0  0  0  0
 18 23  1  0  0  0  0
 20 17  1  0  0  0  0
 21 18  2  0  0  0  0
 22 20  1  6  0  0  0
 22 21  1  0  0  0  0
 24 26  1  0  0  0  0
 26 25  2  0  0  0  0
 27 30  1  0  0  0  0
 28 29  1  0  0  0  0
 28 25  1  0  0  0  0
 30 31  1  0  0  0  0
 30 24  2  0  0  0  0
 31 28  2  0  0  0  0
M  END
>  <MODEL>
2

>  <REMARK>
 VINA RESULT:      -5.2      1.020      1.359
  Name = 
  3 active torsions:
  status: ('A' for Active; 'I' for Inactive)
    1  A    between atoms: C_3  and  C_22
    2  A    between atoms: C_4  and  C_5
    3  A    between atoms: N_12  and  C_21
                            x       y       z     vdW  Elec       q    Type
                         _______ _______ _______ _____ _____    ______ ____

>  <TORSDO>
F 3

$$$$
=
 OpenBabel11052413013D

 31 34  0  0  1  0  0  0  0  0999 V2000
  185.7280  178.9360  140.9000 C   0  0  0  0  0  2  0  0  0  0  0  0
  182.8720  178.0960  139.7390 C   0  0  1  0  0  3  0  0  0  0  0  0
  184.2520  177.7470  139.3480 N   0  0  2  0  0  0  0  0  0  0  0  0
  181.4970  178.9510  141.7550 C   0  0  0  0  0  1  0  0  0  0  0  0
  184.6890  179.1830  141.9880 C   0  0  0  0  0  2  0  0  0  0  0  0
  185.0990  178.9300  139.5140 C   0  0  0  0  0  2  0  0  0  0  0  0
  183.7870  177.9680  142.1690 C   0  0  0  0  0  2  0  0  0  0  0  0
  182.5630  177.9910  141.2500 C   0  0  2  0  0  3  0  0  0  0  0  0
  186.3970  175.9040  137.4090 C   0  0  2  0  0  3  0  0  0  0  0  0
  186.0060  173.6120  136.9540 C   0  0  0  0  0  1  0  0  0  0  0  0
  185.8090  174.9610  136.4400 N   0  0  0  0  0  0  0  0  0  0  0  0
  185.7340  177.2970  137.3950 C   0  0  1  0  0  3  0  0  0  0  0  0
  185.7440  177.9520  136.0220 C   0  0  0  0  0  1  0  0  0  0  0  0
  184.2970  177.2700  137.9540 C   0  0  1  0  0  3  0  0  0  0  0  0
  184.3610  175.1430  136.2670 C   0  0  0  0  0  2  0  0  0  0  0  0
  183.5160  175.6020  137.8250 S   0  0  0  0  0  0  0  0  0  0  0  0
  189.8490  176.6170  135.6930 C   0  0  1  0  0  3  0  0  0  0  0  0
  189.8060  177.3460  138.0520 C   0  0  0  0  0  3  0  0  0  0  0  0
  190.5600  175.9120  134.7410 F   0  0  0  0  0  0  0  0  0  0  0  0
  188.4420  176.0080  135.8480 C   0  0  0  0  0  2  0  0  0  0  0  0
  188.5200  177.0140  138.1890 C   0  0  0  0  0  3  0  0  0  0  0  0
  187.9280  175.9480  137.3030 C   0  0  1  0  0  3  0  0  0  0  0  0
  190.6340  176.6620  137.0050 C   0  0  0  0  0  2  0  0  0  0  0  0
  182.1200  179.0790  138.8560 C   0  0  0  0  0  0  0  0  0  0  0  0
  181.9510  181.3210  138.0860 C   0  0  0  0  0  3  0  0  0  0  0  0
  182.5630  180.3650  138.8300 N   0  0  0  0  0  0  0  0  0  0  0  0
  180.4430  177.3550  138.0140 C   0  0  0  0  0  1  0  0  0  0  0  0
  180.8370  180.9830  137.3240 C   0  0  0  0  0  0  0  0  0  0  0  0
  180.1490  182.0120  136.5010 C   0  0  0  0  0  1  0  0  0  0  0  0
  180.9900  178.7390  138.0770 C   0  0  0  0  0  0  0  0  0  0  0  0
  180.3840  179.7030  137.3350 N   0  0  0  0  0  0  0  0  0  0  0  0
  1  5  1  0  0  0  0
  2 24  1  1  0  0  0
  2  8  1  0  0  0  0
  3  6  1  6  0  0  0
  3  2  1  0  0  0  0
  5  7  1  0  0  0  0
  6  1  1  0  0  0  0
  8  4  1  1  0  0  0
  8  7  1  0  0  0  0
  9 11  1  6  0  0  0
 11 10  1  0  0  0  0
 12 13  1  6  0  0  0
 12  9  1  0  0  0  0
 12 14  1  0  0  0  0
 14 16  1  1  0  0  0
 14  3  1  0  0  0  0
 15 11  1  0  0  0  0
 15 16  1  0  0  0  0
 17 19  1  6  0  0  0
 17 20  1  0  0  0  0
 17 23  1  0  0  0  0
 18 21  2  0  0  0  0
 22 20  1  6  0  0  0
 22  9  1  0  0  0  0
 22 21  1  0  0  0  0
 23 18  1  0  0  0  0
 25 26  2  0  0  0  0
 26 24  1  0  0  0  0
 27 30  1  0  0  0  0
 28 31  2  0  0  0  0
 28 25  1  0  0  0  0
 29 28  1  0  0  0  0
 30 24  2  0  0  0  0
 31 30  1  0  0  0  0
M  END
>  <MODEL>
3

>  <REMARK>
 VINA RESULT:      -4.9      3.252      7.323
  Name = 
  3 active torsions:
  status: ('A' for Active; 'I' for Inactive)
    1  A    between atoms: C_3  and  C_22
    2  A    between atoms: C_4  and  C_5
    3  A    between atoms: N_12  and  C_21
                            x       y       z     vdW  Elec       q    Type
                         _______ _______ _______ _____ _____    ______ ____

>  <TORSDO>
F 3

$$$$
=
 OpenBabel11052413013D

 31 34  0  0  1  0  0  0  0  0999 V2000
  185.3430  173.0040  137.3100 C   0  0  0  0  0  2  0  0  0  0  0  0
  183.1360  175.1490  136.4530 C   0  0  1  0  0  3  0  0  0  0  0  0
  184.6110  175.1540  136.3920 N   0  0  2  0  0  0  0  0  0  0  0  0
  181.1230  173.5310  136.5740 C   0  0  0  0  0  1  0  0  0  0  0  0
  184.0190  172.2690  137.1340 C   0  0  0  0  0  2  0  0  0  0  0  0
  185.1300  174.4860  137.5870 C   0  0  0  0  0  2  0  0  0  0  0  0
  183.3590  172.6400  135.8110 C   0  0  0  0  0  2  0  0  0  0  0  0
  182.4530  173.8690  135.9200 C   0  0  2  0  0  3  0  0  0  0  0  0
  187.6330  176.7180  136.8130 C   0  0  2  0  0  3  0  0  0  0  0  0
  188.9840  177.3350  134.9670 C   0  0  0  0  0  1  0  0  0  0  0  0
  187.9700  177.8210  135.8940 N   0  0  0  0  0  0  0  0  0  0  0  0
  186.2000  176.8010  137.3790 C   0  0  1  0  0  3  0  0  0  0  0  0
  185.9090  178.1180  138.0820 C   0  0  0  0  0  1  0  0  0  0  0  0
  185.1270  176.5310  136.3040 C   0  0  1  0  0  3  0  0  0  0  0  0
  186.8270  178.2620  135.0830 C   0  0  0  0  0  2  0  0  0  0  0  0
  185.7320  176.8780  134.5940 S   0  0  0  0  0  0  0  0  0  0  0  0
  191.2450  176.0540  138.1860 C   0  0  1  0  0  3  0  0  0  0  0  0
  190.1030  177.8800  139.3960 C   0  0  0  0  0  3  0  0  0  0  0  0
  191.9700  174.8870  138.3270 F   0  0  0  0  0  0  0  0  0  0  0  0
  189.9610  175.7770  137.3790 C   0  0  0  0  0  2  0  0  0  0  0  0
  189.0340  177.8160  138.5960 C   0  0  0  0  0  3  0  0  0  0  0  0
  188.7110  176.5250  137.8900 C   0  0  1  0  0  3  0  0  0  0  0  0
  190.9710  176.6680  139.5610 C   0  0  0  0  0  2  0  0  0  0  0  0
  182.4750  175.9940  137.5300 C   0  0  0  0  0  0  0  0  0  0  0  0
  182.0870  176.2890  139.8560 C   0  0  0  0  0  3  0  0  0  0  0  0
  182.6480  175.6100  138.8230 N   0  0  0  0  0  0  0  0  0  0  0  0
  181.4600  177.6590  135.8890 C   0  0  0  0  0  1  0  0  0  0  0  0
  181.3100  177.4120  139.5920 C   0  0  0  0  0  0  0  0  0  0  0  0
  180.6850  178.1720  140.7050 C   0  0  0  0  0  1  0  0  0  0  0  0
  181.6880  177.1390  137.2660 C   0  0  0  0  0  0  0  0  0  0  0  0
  181.1310  177.8120  138.3070 N   0  0  0  0  0  0  0  0  0  0  0  0
  1  6  1  0  0  0  0
  2 24  1  1  0  0  0
  3  2  1  0  0  0  0
  3  6  1  1  0  0  0
  5  1  1  0  0  0  0
  7  8  1  0  0  0  0
  7  5  1  0  0  0  0
  8  2  1  0  0  0  0
  8  4  1  1  0  0  0
  9 11  1  1  0  0  0
  9 12  1  0  0  0  0
  9 22  1  0  0  0  0
 10 11  1  0  0  0  0
 12 13  1  6  0  0  0
 14 16  1  6  0  0  0
 14  3  1  0  0  0  0
 14 12  1  0  0  0  0
 15 11  1  0  0  0  0
 16 15  1  0  0  0  0
 17 19  1  1  0  0  0
 17 23  1  0  0  0  0
 18 23  1  0  0  0  0
 20 17  1  0  0  0  0
 21 18  2  0  0  0  0
 22 20  1  6  0  0  0
 22 21  1  0  0  0  0
 24 26  1  0  0  0  0
 26 25  2  0  0  0  0
 27 30  1  0  0  0  0
 28 25  1  0  0  0  0
 28 29  1  0  0  0  0
 30 24  2  0  0  0  0
 30 31  1  0  0  0  0
 31 28  2  0  0  0  0
M  END
>  <MODEL>
4

>  <REMARK>
 VINA RESULT:      -4.8      3.406      6.687
  Name = 
  3 active torsions:
  status: ('A' for Active; 'I' for Inactive)
    1  A    between atoms: C_3  and  C_22
    2  A    between atoms: C_4  and  C_5
    3  A    between atoms: N_12  and  C_21
                            x       y       z     vdW  Elec       q    Type
                         _______ _______ _______ _____ _____    ______ ____

>  <TORSDO>
F 3

$$$$
=
 OpenBabel11052413013D

 31 34  0  0  1  0  0  0  0  0999 V2000
  183.8780  178.2850  141.6740 C   0  0  0  0  0  2  0  0  0  0  0  0
  181.1240  178.6050  140.0870 C   0  0  1  0  0  3  0  0  0  0  0  0
  182.2780  177.7010  139.9140 N   0  0  2  0  0  0  0  0  0  0  0  0
  179.9530  180.0710  141.8670 C   0  0  0  0  0  1  0  0  0  0  0  0
  182.8920  179.0020  142.5890 C   0  0  0  0  0  2  0  0  0  0  0  0
  183.5040  178.4470  140.2070 C   0  0  0  0  0  2  0  0  0  0  0  0
  181.5540  178.2720  142.6300 C   0  0  0  0  0  2  0  0  0  0  0  0
  180.5900  178.7310  141.5330 C   0  0  2  0  0  3  0  0  0  0  0  0
  184.6900  176.9520  137.5950 C   0  0  2  0  0  3  0  0  0  0  0  0
  185.4360  174.7300  137.2470 C   0  0  0  0  0  1  0  0  0  0  0  0
  184.5010  175.7420  136.7730 N   0  0  0  0  0  0  0  0  0  0  0  0
  183.4250  177.8280  137.7050 C   0  0  1  0  0  3  0  0  0  0  0  0
  182.8690  178.2490  136.3530 C   0  0  0  0  0  1  0  0  0  0  0  0
  182.3180  177.1590  138.5440 C   0  0  1  0  0  3  0  0  0  0  0  0
  183.1540  175.1700  136.8960 C   0  0  0  0  0  2  0  0  0  0  0  0
  182.4740  175.3200  138.5890 S   0  0  0  0  0  0  0  0  0  0  0  0
  188.4330  178.0960  137.8260 C   0  0  1  0  0  3  0  0  0  0  0  0
  187.7410  177.6160  135.5040 C   0  0  0  0  0  3  0  0  0  0  0  0
  189.0620  179.0080  138.6520 F   0  0  0  0  0  0  0  0  0  0  0  0
  186.9900  177.8620  138.3120 C   0  0  0  0  0  2  0  0  0  0  0  0
  186.5280  177.2120  135.8910 C   0  0  0  0  0  3  0  0  0  0  0  0
  185.9470  177.7320  137.1810 C   0  0  1  0  0  3  0  0  0  0  0  0
  188.5100  178.5680  136.3720 C   0  0  0  0  0  2  0  0  0  0  0  0
  180.9740  179.7500  139.0990 C   0  0  0  0  0  0  0  0  0  0  0  0
  181.8210  181.8390  138.3440 C   0  0  0  0  0  3  0  0  0  0  0  0
  181.8780  180.7640  139.1710 N   0  0  0  0  0  0  0  0  0  0  0  0
  178.9310  178.7570  137.9440 C   0  0  0  0  0  1  0  0  0  0  0  0
  180.8100  181.9110  137.3900 C   0  0  0  0  0  0  0  0  0  0  0  0
  180.7270  183.0780  136.4720 C   0  0  0  0  0  1  0  0  0  0  0  0
  179.9510  179.8260  138.1250 C   0  0  0  0  0  0  0  0  0  0  0  0
  179.9030  180.9060  137.3000 N   0  0  0  0  0  0  0  0  0  0  0  0
  1  5  1  0  0  0  0
  2 24  1  1  0  0  0
  2  8  1  0  0  0  0
  3  2  1  0  0  0  0
  3  6  1  6  0  0  0
  5  7  1  0  0  0  0
  6  1  1  0  0  0  0
  8  4  1  1  0  0  0
  8  7  1  0  0  0  0
  9 11  1  6  0  0  0
  9 12  1  0  0  0  0
 11 15  1  0  0  0  0
 11 10  1  0  0  0  0
 12 13  1  6  0  0  0
 12 14  1  0  0  0  0
 14 16  1  1  0  0  0
 14  3  1  0  0  0  0
 15 16  1  0  0  0  0
 17 20  1  0  0  0  0
 17 19  1  1  0  0  0
 18 21  2  0  0  0  0
 18 23  1  0  0  0  0
 22 21  1  6  0  0  0
 22  9  1  0  0  0  0
 22 20  1  0  0  0  0
 23 17  1  0  0  0  0
 24 26  1  0  0  0  0
 25 26  2  0  0  0  0
 27 30  1  0  0  0  0
 28 25  1  0  0  0  0
 29 28  1  0  0  0  0
 30 24  2  0  0  0  0
 31 28  2  0  0  0  0
 31 30  1  0  0  0  0
M  END
>  <MODEL>
5

>  <REMARK>
 VINA RESULT:      -4.7      2.559      7.095
  Name = 
  3 active torsions:
  status: ('A' for Active; 'I' for Inactive)
    1  A    between atoms: C_3  and  C_22
    2  A    between atoms: C_4  and  C_5
    3  A    between atoms: N_12  and  C_21
                            x       y       z     vdW  Elec       q    Type
                         _______ _______ _______ _____ _____    ______ ____

>  <TORSDO>
F 3

$$$$
=
 OpenBabel11052413013D

 31 34  0  0  1  0  0  0  0  0999 V2000
  181.2110  181.7490  138.0060 C   0  0  0  0  0  2  0  0  0  0  0  0
  179.8460  179.0220  137.0560 C   0  0  1  0  0  3  0  0  0  0  0  0
  180.1460  179.5770  138.3900 N   0  0  2  0  0  0  0  0  0  0  0  0
  179.4730  179.7460  134.6010 C   0  0  0  0  0  1  0  0  0  0  0  0
  180.7180  181.9460  136.5770 C   0  0  0  0  0  2  0  0  0  0  0  0
  181.4300  180.2770  138.3280 C   0  0  0  0  0  2  0  0  0  0  0  0
  179.2740  181.4790  136.4280 C   0  0  0  0  0  2  0  0  0  0  0  0
  179.1620  179.9950  136.0680 C   0  0  2  0  0  3  0  0  0  0  0  0
  181.8740  178.9500  141.2840 C   0  0  2  0  0  3  0  0  0  0  0  0
  180.9160  179.3370  143.4150 C   0  0  0  0  0  1  0  0  0  0  0  0
  181.1430  178.3190  142.3980 N   0  0  0  0  0  0  0  0  0  0  0  0
  181.6220  178.2760  139.9190 C   0  0  1  0  0  3  0  0  0  0  0  0
  181.9370  176.7870  139.9180 C   0  0  0  0  0  1  0  0  0  0  0  0
  180.1870  178.5090  139.4050 C   0  0  1  0  0  3  0  0  0  0  0  0
  179.8230  177.8090  142.0030 C   0  0  0  0  0  2  0  0  0  0  0  0
  178.9940  178.8760  140.7670 S   0  0  0  0  0  0  0  0  0  0  0  0
  185.3650  177.9640  142.7710 C   0  0  1  0  0  3  0  0  0  0  0  0
  185.5520  178.9440  140.5120 C   0  0  0  0  0  3  0  0  0  0  0  0
  185.8530  178.0020  144.0630 F   0  0  0  0  0  0  0  0  0  0  0  0
  183.8510  178.2490  142.7770 C   0  0  0  0  0  2  0  0  0  0  0  0
  184.2250  179.0350  140.3820 C   0  0  0  0  0  3  0  0  0  0  0  0
  183.3630  179.1380  141.6130 C   0  0  1  0  0  3  0  0  0  0  0  0
  186.1560  178.9280  141.8850 C   0  0  0  0  0  2  0  0  0  0  0  0
  180.7310  177.8940  136.5500 C   0  0  0  0  0  0  0  0  0  0  0  0
  182.8750  177.2740  135.7330 C   0  0  0  0  0  3  0  0  0  0  0  0
  182.0110  178.2060  136.2090 N   0  0  0  0  0  0  0  0  0  0  0  0
  178.9310  176.1040  136.7750 C   0  0  0  0  0  1  0  0  0  0  0  0
  182.4470  175.9580  135.5870 C   0  0  0  0  0  0  0  0  0  0  0  0
  183.3750  174.9190  135.0680 C   0  0  0  0  0  1  0  0  0  0  0  0
  180.3020  176.5540  136.4040 C   0  0  0  0  0  0  0  0  0  0  0  0
  181.1750  175.6290  135.9270 N   0  0  0  0  0  0  0  0  0  0  0  0
  1  6  1  0  0  0  0
  2 24  1  6  0  0  0
  2  3  1  0  0  0  0
  3  6  1  6  0  0  0
  3 14  1  0  0  0  0
  5  1  1  0  0  0  0
  7  5  1  0  0  0  0
  8  4  1  6  0  0  0
  8  7  1  0  0  0  0
  8  2  1  0  0  0  0
  9 22  1  0  0  0  0
  9 11  1  1  0  0  0
 11 10  1  0  0  0  0
 12 13  1  1  0  0  0
 12  9  1  0  0  0  0
 14 12  1  0  0  0  0
 14 16  1  1  0  0  0
 15 11  1  0  0  0  0
 16 15  1  0  0  0  0
 17 20  1  0  0  0  0
 17 19  1  1  0  0  0
 18 23  1  0  0  0  0
 21 18  2  0  0  0  0
 22 21  1  6  0  0  0
 22 20  1  0  0  0  0
 23 17  1  0  0  0  0
 25 26  1  0  0  0  0
 26 24  2  0  0  0  0
 28 25  2  0  0  0  0
 28 31  1  0  0  0  0
 29 28  1  0  0  0  0
 30 24  1  0  0  0  0
 30 27  1  0  0  0  0
 31 30  2  0  0  0  0
M  END
>  <MODEL>
6

>  <REMARK>
 VINA RESULT:      -4.6      2.528      4.481
  Name = 
  3 active torsions:
  status: ('A' for Active; 'I' for Inactive)
    1  A    between atoms: C_3  and  C_22
    2  A    between atoms: C_4  and  C_5
    3  A    between atoms: N_12  and  C_21
                            x       y       z     vdW  Elec       q    Type
                         _______ _______ _______ _____ _____    ______ ____

>  <TORSDO>
F 3

$$$$
=
 OpenBabel11052413013D

 31 34  0  0  1  0  0  0  0  0999 V2000
  185.1810  178.7890  139.6950 C   0  0  0  0  0  2  0  0  0  0  0  0
  182.4610  177.3100  138.9070 C   0  0  1  0  0  3  0  0  0  0  0  0
  183.8680  177.0850  138.5240 N   0  0  2  0  0  0  0  0  0  0  0  0
  181.0190  178.3870  140.7650 C   0  0  0  0  0  1  0  0  0  0  0  0
  184.1430  179.1220  140.7600 C   0  0  0  0  0  2  0  0  0  0  0  0
  184.5280  178.3840  138.3800 C   0  0  0  0  0  2  0  0  0  0  0  0
  183.4410  177.8600  141.2520 C   0  0  0  0  0  2  0  0  0  0  0  0
  182.2070  177.5020  140.4200 C   0  0  2  0  0  3  0  0  0  0  0  0
  186.3390  175.6020  136.6650 C   0  0  2  0  0  3  0  0  0  0  0  0
  186.7310  173.2680  136.7510 C   0  0  0  0  0  1  0  0  0  0  0  0
  186.0320  174.3140  136.0170 N   0  0  0  0  0  0  0  0  0  0  0  0
  185.2350  176.6650  136.4820 C   0  0  1  0  0  3  0  0  0  0  0  0
  184.8940  176.9300  135.0230 C   0  0  0  0  0  1  0  0  0  0  0  0
  183.9530  176.3200  137.2670 C   0  0  1  0  0  3  0  0  0  0  0  0
  184.6020  173.9790  136.0540 C   0  0  0  0  0  2  0  0  0  0  0  0
  183.7920  174.5120  137.6070 S   0  0  0  0  0  0  0  0  0  0  0  0
  190.1990  176.1010  137.1370 C   0  0  1  0  0  3  0  0  0  0  0  0
  189.6080  175.5010  134.8150 C   0  0  0  0  0  3  0  0  0  0  0  0
  190.9190  176.9730  137.9300 F   0  0  0  0  0  0  0  0  0  0  0  0
  188.7050  176.1730  137.5060 C   0  0  0  0  0  2  0  0  0  0  0  0
  188.3160  175.3570  135.1230 C   0  0  0  0  0  3  0  0  0  0  0  0
  187.7440  176.1040  136.2990 C   0  0  1  0  0  3  0  0  0  0  0  0
  190.4690  176.3920  135.6590 C   0  0  0  0  0  2  0  0  0  0  0  0
  181.5470  177.9530  137.8770 C   0  0  0  0  0  0  0  0  0  0  0  0
  181.0450  179.9060  136.6180 C   0  0  0  0  0  3  0  0  0  0  0  0
  181.8100  179.2380  137.5190 N   0  0  0  0  0  0  0  0  0  0  0  0
  180.0850  175.8860  137.5840 C   0  0  0  0  0  1  0  0  0  0  0  0
  179.9550  179.2610  136.0390 C   0  0  0  0  0  0  0  0  0  0  0  0
  179.1020  179.9710  135.0510 C   0  0  0  0  0  1  0  0  0  0  0  0
  180.4410  177.3010  137.2820 C   0  0  0  0  0  0  0  0  0  0  0  0
  179.6810  177.9770  136.3810 N   0  0  0  0  0  0  0  0  0  0  0  0
  1  5  1  0  0  0  0
  2 24  1  6  0  0  0
  2  8  1  0  0  0  0
  3  6  1  6  0  0  0
  3  2  1  0  0  0  0
  5  7  1  0  0  0  0
  6  1  1  0  0  0  0
  8  4  1  6  0  0  0
  8  7  1  0  0  0  0
  9 11  1  6  0  0  0
 11 15  1  0  0  0  0
 11 10  1  0  0  0  0
 12 13  1  6  0  0  0
 12  9  1  0  0  0  0
 12 14  1  0  0  0  0
 14 16  1  1  0  0  0
 14  3  1  0  0  0  0
 15 16  1  0  0  0  0
 17 20  1  0  0  0  0
 17 19  1  1  0  0  0
 18 21  2  0  0  0  0
 18 23  1  0  0  0  0
 22 21  1  6  0  0  0
 22  9  1  0  0  0  0
 22 20  1  0  0  0  0
 23 17  1  0  0  0  0
 25 26  2  0  0  0  0
 26 24  1  0  0  0  0
 28 31  2  0  0  0  0
 28 25  1  0  0  0  0
 29 28  1  0  0  0  0
 30 27  1  0  0  0  0
 30 24  2  0  0  0  0
 31 30  1  0  0  0  0
M  END
>  <MODEL>
7

>  <REMARK>
 VINA RESULT:      -4.3      3.168      7.144
  Name = 
  3 active torsions:
  status: ('A' for Active; 'I' for Inactive)
    1  A    between atoms: C_3  and  C_22
    2  A    between atoms: C_4  and  C_5
    3  A    between atoms: N_12  and  C_21
                            x       y       z     vdW  Elec       q    Type
                         _______ _______ _______ _____ _____    ______ ____

>  <TORSDO>
F 3

$$$$
=
 OpenBabel11052413013D

 31 34  0  0  1  0  0  0  0  0999 V2000
  183.9070  179.4340  139.1880 C   0  0  0  0  0  2  0  0  0  0  0  0
  182.5250  177.1440  137.4410 C   0  0  1  0  0  3  0  0  0  0  0  0
  182.2510  178.5860  137.5950 N   0  0  2  0  0  0  0  0  0  0  0  0
  184.4140  175.4020  137.7330 C   0  0  0  0  0  1  0  0  0  0  0  0
  184.9050  178.2910  139.0430 C   0  0  0  0  0  2  0  0  0  0  0  0
  182.4740  178.9590  138.9930 C   0  0  0  0  0  2  0  0  0  0  0  0
  185.0230  177.8500  137.5880 C   0  0  0  0  0  2  0  0  0  0  0  0
  184.0070  176.7700  137.2070 C   0  0  2  0  0  3  0  0  0  0  0  0
  180.4600  181.4090  136.8340 C   0  0  2  0  0  3  0  0  0  0  0  0
  180.0260  182.0420  134.5940 C   0  0  0  0  0  1  0  0  0  0  0  0
  179.4780  181.3250  135.7370 N   0  0  0  0  0  0  0  0  0  0  0  0
  180.3870  180.2240  137.8210 C   0  0  1  0  0  3  0  0  0  0  0  0
  179.0040  180.0330  138.4260 C   0  0  0  0  0  1  0  0  0  0  0  0
  180.8700  178.9030  137.1890 C   0  0  1  0  0  3  0  0  0  0  0  0
  179.2270  179.9470  135.2960 C   0  0  0  0  0  2  0  0  0  0  0  0
  180.7300  178.9030  135.3470 S   0  0  0  0  0  0  0  0  0  0  0  0
  181.6610  185.0680  137.5670 C   0  0  1  0  0  3  0  0  0  0  0  0
  179.2030  184.9080  137.3830 C   0  0  0  0  0  3  0  0  0  0  0  0
  182.7070  185.5530  138.3280 F   0  0  0  0  0  0  0  0  0  0  0  0
  181.7780  183.5370  137.4350 C   0  0  0  0  0  2  0  0  0  0  0  0
  179.2560  183.6100  137.0690 C   0  0  0  0  0  3  0  0  0  0  0  0
  180.4330  182.7840  137.5190 C   0  0  1  0  0  3  0  0  0  0  0  0
  180.3270  185.5200  138.1650 C   0  0  0  0  0  2  0  0  0  0  0  0
  181.5750  176.1730  138.1230 C   0  0  0  0  0  0  0  0  0  0  0  0
  180.6170  175.4490  140.1740 C   0  0  0  0  0  3  0  0  0  0  0  0
  181.4290  176.2790  139.4710 N   0  0  0  0  0  0  0  0  0  0  0  0
  180.9160  174.9850  135.9670 C   0  0  0  0  0  1  0  0  0  0  0  0
  179.9080  174.4580  139.5020 C   0  0  0  0  0  0  0  0  0  0  0  0
  179.0120  173.5380  140.2500 C   0  0  0  0  0  1  0  0  0  0  0  0
  180.8490  175.1670  137.4440 C   0  0  0  0  0  0  0  0  0  0  0  0
  180.0380  174.3410  138.1560 N   0  0  0  0  0  0  0  0  0  0  0  0
  2  3  1  0  0  0  0
  2 24  1  1  0  0  0
  3  6  1  1  0  0  0
  5  1  1  0  0  0  0
  6  1  1  0  0  0  0
  7  5  1  0  0  0  0
  8  2  1  0  0  0  0
  8  7  1  0  0  0  0
  8  4  1  1  0  0  0
  9 11  1  6  0  0  0
  9 22  1  0  0  0  0
  9 12  1  0  0  0  0
 10 11  1  0  0  0  0
 12 13  1  6  0  0  0
 14 16  1  6  0  0  0
 14  3  1  0  0  0  0
 14 12  1  0  0  0  0
 15 16  1  0  0  0  0
 15 11  1  0  0  0  0
 17 23  1  0  0  0  0
 17 19  1  1  0  0  0
 18 23  1  0  0  0  0
 20 22  1  0  0  0  0
 20 17  1  0  0  0  0
 21 18  2  0  0  0  0
 22 21  1  6  0  0  0
 24 26  1  0  0  0  0
 26 25  2  0  0  0  0
 27 30  1  0  0  0  0
 28 25  1  0  0  0  0
 28 29  1  0  0  0  0
 30 24  2  0  0  0  0
 30 31  1  0  0  0  0
 31 28  2  0  0  0  0
M  END
>  <MODEL>
8

>  <REMARK>
 VINA RESULT:      -4.3      3.277      5.056
  Name = 
  3 active torsions:
  status: ('A' for Active; 'I' for Inactive)
    1  A    between atoms: C_3  and  C_22
    2  A    between atoms: C_4  and  C_5
    3  A    between atoms: N_12  and  C_21
                            x       y       z     vdW  Elec       q    Type
                         _______ _______ _______ _____ _____    ______ ____

>  <TORSDO>
F 3

$$$$
=
 OpenBabel11052413013D

 31 34  0  0  1  0  0  0  0  0999 V2000
  188.6030  174.8020  134.9040 C   0  0  0  0  0  2  0  0  0  0  0  0
  191.0940  174.9860  136.8950 C   0  0  1  0  0  3  0  0  0  0  0  0
  189.8300  175.7420  136.8030 N   0  0  2  0  0  0  0  0  0  0  0  0
  192.1510  172.7250  136.2170 C   0  0  0  0  0  1  0  0  0  0  0  0
  189.3530  173.4760  134.8380 C   0  0  0  0  0  2  0  0  0  0  0  0
  189.5000  175.9320  135.3900 C   0  0  0  0  0  2  0  0  0  0  0  0
  189.6340  172.9380  136.2360 C   0  0  0  0  0  2  0  0  0  0  0  0
  190.9560  173.4480  136.8170 C   0  0  2  0  0  3  0  0  0  0  0  0
  187.7550  177.8410  138.5480 C   0  0  2  0  0  3  0  0  0  0  0  0
  187.7590  177.9120  140.9150 C   0  0  0  0  0  1  0  0  0  0  0  0
  188.3110  178.5380  139.7220 N   0  0  0  0  0  0  0  0  0  0  0  0
  188.6710  177.8900  137.3070 C   0  0  1  0  0  3  0  0  0  0  0  0
  189.0430  179.3060  136.8930 C   0  0  0  0  0  1  0  0  0  0  0  0
  189.9470  177.0430  137.4860 C   0  0  1  0  0  3  0  0  0  0  0  0
  189.7730  178.4250  139.8170 C   0  0  0  0  0  2  0  0  0  0  0  0
  190.3930  176.7950  139.2610 S   0  0  0  0  0  0  0  0  0  0  0  0
  184.0210  177.3470  137.4570 C   0  0  1  0  0  3  0  0  0  0  0  0
  184.2280  178.7370  139.4880 C   0  0  0  0  0  3  0  0  0  0  0  0
  183.4370  177.2520  136.2080 F   0  0  0  0  0  0  0  0  0  0  0  0
  185.5550  177.3060  137.3200 C   0  0  0  0  0  2  0  0  0  0  0  0
  185.5540  178.5730  139.5320 C   0  0  0  0  0  3  0  0  0  0  0  0
  186.3080  178.2700  138.2630 C   0  0  1  0  0  3  0  0  0  0  0  0
  183.5140  178.5990  138.1770 C   0  0  0  0  0  2  0  0  0  0  0  0
  192.3620  175.6780  136.4230 C   0  0  0  0  0  0  0  0  0  0  0  0
  193.5180  176.6650  134.5950 C   0  0  0  0  0  3  0  0  0  0  0  0
  192.4240  176.0540  135.1170 N   0  0  0  0  0  0  0  0  0  0  0  0
  193.5000  175.5950  138.7020 C   0  0  0  0  0  1  0  0  0  0  0  0
  194.6130  176.9180  135.4150 C   0  0  0  0  0  0  0  0  0  0  0  0
  195.8230  177.5860  134.8670 C   0  0  0  0  0  1  0  0  0  0  0  0
  193.4770  175.9410  137.2540 C   0  0  0  0  0  0  0  0  0  0  0  0
  194.5670  176.5540  136.7220 N   0  0  0  0  0  0  0  0  0  0  0  0
  1  6  1  0  0  0  0
  2 24  1  6  0  0  0
  3  6  1  6  0  0  0
  3  2  1  0  0  0  0
  3 14  1  0  0  0  0
  5  1  1  0  0  0  0
  5  7  1  0  0  0  0
  7  8  1  0  0  0  0
  8  4  1  6  0  0  0
  8  2  1  0  0  0  0
  9 11  1  1  0  0  0
 11 15  1  0  0  0  0
 11 10  1  0  0  0  0
 12 13  1  1  0  0  0
 12 14  1  0  0  0  0
 12  9  1  0  0  0  0
 14 16  1  1  0  0  0
 16 15  1  0  0  0  0
 17 19  1  6  0  0  0
 17 23  1  0  0  0  0
 18 21  2  0  0  0  0
 20 17  1  0  0  0  0
 22 20  1  1  0  0  0
 22  9  1  0  0  0  0
 22 21  1  0  0  0  0
 23 18  1  0  0  0  0
 24 30  1  0  0  0  0
 25 26  1  0  0  0  0
 25 28  2  0  0  0  0
 26 24  2  0  0  0  0
 28 31  1  0  0  0  0
 29 28  1  0  0  0  0
 30 27  1  0  0  0  0
 31 30  2  0  0  0  0
M  END
>  <MODEL>
9

>  <REMARK>
 VINA RESULT:      -4.0      5.475      8.178
  Name = 
  3 active torsions:
  status: ('A' for Active; 'I' for Inactive)
    1  A    between atoms: C_3  and  C_22
    2  A    between atoms: C_4  and  C_5
    3  A    between atoms: N_12  and  C_21
                            x       y       z     vdW  Elec       q    Type
                         _______ _______ _______ _____ _____    ______ ____

>  <TORSDO>
F 3

$$$$
