=
 OpenBabel11052414523D

 55 61  0  0  1  0  0  0  0  0999 V2000
  181.6790  174.2870  137.9580 C   0  0  0  0  0  2  0  0  0  0  0  0
  186.0120  177.9430  138.4380 C   0  0  0  0  0  3  0  0  0  0  0  0
  184.9620  179.2240  141.7760 C   0  0  0  0  0  1  0  0  0  0  0  0
  187.5180  176.2720  136.4460 C   0  0  0  0  0  2  0  0  0  0  0  0
  187.7430  178.5090  135.1670 C   0  0  0  0  0  2  0  0  0  0  0  0
  183.5880  180.6150  139.2620 C   0  0  0  0  0  3  0  0  0  0  0  0
  192.0060  176.9640  134.9340 O   0  0  0  0  0  0  0  0  0  0  0  0
  191.8010  176.5040  137.4250 C   0  0  2  0  0  3  0  0  0  0  0  0
  191.2050  175.0930  137.2840 C   0  0  0  0  0  2  0  0  0  0  0  0
  183.2040  181.6500  138.4130 C   0  0  0  0  0  3  0  0  0  0  0  0
  182.0590  179.1170  138.1460 C   0  0  0  0  0  0  0  0  0  0  0  0
  181.6420  180.1720  137.3190 C   0  0  0  0  0  3  0  0  0  0  0  0
  183.3250  176.8920  139.4510 O   0  0  0  0  0  0  0  0  0  0  0  0
  189.6080  176.8460  135.2390 C   0  0  0  0  0  0  0  0  0  0  0  0
  188.9720  177.8340  134.6000 C   0  0  0  0  0  3  0  0  0  0  0  0
  182.2350  181.4300  137.4360 C   0  0  0  0  0  3  0  0  0  0  0  0
  184.7690  172.9160  136.3790 C   0  0  0  0  0  2  0  0  0  0  0  0
  190.8220  176.2470  134.5940 C   0  0  0  0  0  2  0  0  0  0  0  0
  183.0490  179.3230  139.1070 C   0  0  0  0  0  0  0  0  0  0  0  0
  184.5410  175.3200  135.6860 C   0  0  2  0  0  3  0  0  0  0  0  0
  181.4690  175.3730  138.9940 C   0  0  2  0  0  3  0  0  0  0  0  0
  192.5830  176.9470  136.2100 C   0  0  0  0  0  0  0  0  0  0  0  0
  183.7310  176.0610  134.6440 C   0  0  0  0  0  2  0  0  0  0  0  0
  180.0170  177.9300  138.9300 C   0  0  2  0  0  3  0  0  0  0  0  0
  179.9820  175.6490  139.1470 C   0  0  0  0  0  2  0  0  0  0  0  0
  186.8330  178.3830  137.3890 O   0  0  0  0  0  0  0  0  0  0  0  0
  181.3320  177.8210  138.1260 C   0  0  2  0  0  3  0  0  0  0  0  0
  185.8690  178.6690  139.5330 C   0  0  0  0  0  3  0  0  0  0  0  0
  184.8780  178.2810  140.5880 C   0  0  2  0  0  3  0  0  0  0  0  0
  183.3510  172.7720  136.9220 C   0  0  0  0  0  2  0  0  0  0  0  0
  189.0460  176.3490  136.5580 C   0  0  2  0  0  3  0  0  0  0  0  0
  186.9050  177.6650  136.1570 C   0  0  2  0  0  0  0  0  0  0  0  0
  183.1110  173.7900  138.0260 C   0  0  0  0  0  2  0  0  0  0  0  0
  183.4310  178.1820  140.0410 C   0  0  2  0  0  3  0  0  0  0  0  0
  182.2230  176.6530  138.5920 C   0  0  1  0  0  3  0  0  0  0  0  0
  193.7800  177.3150  136.3270 O   0  0  0  0  0  0  0  0  0  0  0  0
  185.4800  177.5680  135.5730 C   0  0  0  0  0  2  0  0  0  0  0  0
  179.8080  176.8590  139.8400 O   0  0  0  0  0  0  0  0  0  0  0  0
  189.6650  175.0450  137.1540 C   0  0  1  0  0  0  0  0  0  0  0  0
  185.2170  176.3090  134.7580 C   0  0  1  0  0  3  0  0  0  0  0  0
  184.8210  173.8980  135.2150 C   0  0  0  0  0  2  0  0  0  0  0  0
  189.3020  173.8540  136.2790 C   0  0  0  0  0  0  0  0  0  0  0  0
  188.2580  173.0070  136.6330 O   0  0  0  0  0  1  0  0  0  0  0  0
  189.9830  173.5770  135.2490 O   0  0  0  0  0  0  0  0  0  0  0  0
  193.5850  175.9340  138.7550 C   0  0  0  0  0  1  0  0  0  0  0  0
  192.4520  176.7580  138.6560 O   0  0  0  0  0  0  0  0  0  0  0  0
  189.0820  174.8010  138.5600 C   0  0  0  0  0  2  0  0  0  0  0  0
  189.0730  176.0490  139.4250 C   0  0  0  0  0  1  0  0  0  0  0  0
  178.9310  178.0650  138.0440 O   0  0  0  0  0  0  0  0  0  0  0  0
  179.2940  179.0430  137.1080 C   0  0  0  0  0  2  0  0  0  0  0  0
  180.4130  178.7450  134.8990 C   0  0  0  0  0  1  0  0  0  0  0  0
  179.1580  178.4620  135.7060 C   0  0  1  0  0  3  0  0  0  0  0  0
  178.9310  176.9570  135.8030 C   0  0  0  0  0  2  0  0  0  0  0  0
  179.7620  176.2040  134.7810 C   0  0  0  0  0  2  0  0  0  0  0  0
  179.6360  174.8300  134.9930 O   0  0  0  0  0  1  0  0  0  0  0  0
  1 33  1  0  0  0  0
  2 28  2  0  0  0  0
  7 22  1  0  0  0  0
  8 46  1  1  0  0  0
  9  8  1  0  0  0  0
 10  6  2  0  0  0  0
 11 19  2  0  0  0  0
 12 16  2  0  0  0  0
 12 11  1  0  0  0  0
 13 34  1  0  0  0  0
 14 31  1  0  0  0  0
 15  5  1  0  0  0  0
 15 14  2  0  0  0  0
 16 10  1  0  0  0  0
 17 30  1  0  0  0  0
 18  7  1  0  0  0  0
 18 14  1  0  0  0  0
 19  6  1  0  0  0  0
 20 23  1  6  0  0  0
 21  1  1  6  0  0  0
 21 25  1  0  0  0  0
 22 36  2  0  0  0  0
 22  8  1  0  0  0  0
 24 49  1  6  0  0  0
 24 38  1  0  0  0  0
 25 38  1  0  0  0  0
 26  2  1  0  0  0  0
 27 11  1  1  0  0  0
 27 35  1  0  0  0  0
 27 24  1  0  0  0  0
 28 29  1  0  0  0  0
 29  3  1  1  0  0  0
 30 33  1  0  0  0  0
 31  4  1  6  0  0  0
 31 39  1  0  0  0  0
 32  5  1  6  0  0  0
 32  4  1  0  0  0  0
 32 26  1  0  0  0  0
 34 19  1  6  0  0  0
 34 29  1  0  0  0  0
 35 21  1  0  0  0  0
 35 13  1  1  0  0  0
 37 32  1  0  0  0  0
 39  9  1  0  0  0  0
 39 47  1  1  0  0  0
 40 23  1  6  0  0  0
 40 37  1  0  0  0  0
 40 20  1  0  0  0  0
 41 20  1  0  0  0  0
 41 17  1  0  0  0  0
 42 43  1  0  0  0  0
 42 39  1  0  0  0  0
 44 42  2  0  0  0  0
 46 45  1  0  0  0  0
 47 48  1  0  0  0  0
 50 49  1  0  0  0  0
 52 51  1  6  0  0  0
 52 53  1  0  0  0  0
 52 50  1  0  0  0  0
 54 55  1  0  0  0  0
 54 53  1  0  0  0  0
M  END
>  <MODEL>
1

>  <REMARK>
 VINA RESULT:       1.3      0.000      0.000
  Name = 
  8 active torsions:
  status: ('A' for Active; 'I' for Inactive)
    1  A    between atoms: C_1  and  C_53
    2  A    between atoms: C_6  and  C_53
    3  A    between atoms: C_12  and  O_38
    4  A    between atoms: O_13  and  C_33
    5  A    between atoms: O_13  and  C_48
    6  A    between atoms: C_18  and  C_39
    7  A    between atoms: C_32  and  C_39
    8  A    between atoms: C_32  and  C_48
                            x       y       z     vdW  Elec       q    Type
                         _______ _______ _______ _____ _____    ______ ____

>  <TORSDO>
F 8

$$$$
=
 OpenBabel11052414523D

 55 61  0  0  1  0  0  0  0  0999 V2000
  181.7540  174.3310  138.0980 C   0  0  0  0  0  2  0  0  0  0  0  0
  186.2080  177.8520  138.4700 C   0  0  0  0  0  3  0  0  0  0  0  0
  185.2420  179.2150  141.8000 C   0  0  0  0  0  1  0  0  0  0  0  0
  187.6340  176.1040  136.4850 C   0  0  0  0  0  2  0  0  0  0  0  0
  187.9150  178.3130  135.1700 C   0  0  0  0  0  2  0  0  0  0  0  0
  183.8810  180.6120  139.2820 C   0  0  0  0  0  3  0  0  0  0  0  0
  192.1230  176.6280  134.9090 O   0  0  0  0  0  0  0  0  0  0  0  0
  191.9340  176.2120  137.4090 C   0  0  2  0  0  3  0  0  0  0  0  0
  191.2920  174.8190  137.2960 C   0  0  0  0  0  2  0  0  0  0  0  0
  183.5200  181.6470  138.4230 C   0  0  0  0  0  3  0  0  0  0  0  0
  182.2910  179.1490  138.2080 C   0  0  0  0  0  0  0  0  0  0  0  0
  181.8980  180.2040  137.3700 C   0  0  0  0  0  3  0  0  0  0  0  0
  183.5010  176.9040  139.5310 O   0  0  0  0  0  0  0  0  0  0  0  0
  189.7260  176.5930  135.2450 C   0  0  0  0  0  0  0  0  0  0  0  0
  189.1150  177.5910  134.5990 C   0  0  0  0  0  3  0  0  0  0  0  0
  182.5320  181.4440  137.4610 C   0  0  0  0  0  3  0  0  0  0  0  0
  184.7780  172.8380  136.5020 C   0  0  0  0  0  2  0  0  0  0  0  0
  190.9120  175.9450  134.5940 C   0  0  0  0  0  2  0  0  0  0  0  0
  183.2990  179.3370  139.1530 C   0  0  0  0  0  0  0  0  0  0  0  0
  184.6190  175.2380  135.7760 C   0  0  2  0  0  3  0  0  0  0  0  0
  181.5920  175.4390  139.1200 C   0  0  2  0  0  3  0  0  0  0  0  0
  192.7140  176.6120  136.1770 C   0  0  0  0  0  0  0  0  0  0  0  0
  183.8200  175.9890  134.7330 C   0  0  0  0  0  2  0  0  0  0  0  0
  180.2220  178.0400  139.0340 C   0  0  2  0  0  3  0  0  0  0  0  0
  180.1160  175.7650  139.2870 C   0  0  0  0  0  2  0  0  0  0  0  0
  187.0300  178.2500  137.4040 O   0  0  0  0  0  0  0  0  0  0  0  0
  181.5230  177.8770  138.2160 C   0  0  2  0  0  3  0  0  0  0  0  0
  186.1020  178.5980  139.5560 C   0  0  0  0  0  3  0  0  0  0  0  0
  185.1120  178.2580  140.6280 C   0  0  2  0  0  3  0  0  0  0  0  0
  183.3630  172.7480  137.0640 C   0  0  0  0  0  2  0  0  0  0  0  0
  189.1650  176.1330  136.5770 C   0  0  2  0  0  3  0  0  0  0  0  0
  187.0620  177.5120  136.1820 C   0  0  2  0  0  0  0  0  0  0  0  0
  183.1700  173.7890  138.1560 C   0  0  0  0  0  2  0  0  0  0  0  0
  183.6560  178.1980  140.1000 C   0  0  2  0  0  3  0  0  0  0  0  0
  182.3810  176.6870  138.6900 C   0  0  1  0  0  3  0  0  0  0  0  0
  193.9240  176.9420  136.2750 O   0  0  0  0  0  0  0  0  0  0  0  0
  185.6280  177.4520  135.6170 C   0  0  0  0  0  2  0  0  0  0  0  0
  179.9900  176.9900  139.9630 O   0  0  0  0  0  0  0  0  0  0  0  0
  189.7490  174.8190  137.1860 C   0  0  1  0  0  0  0  0  0  0  0  0
  185.3140  176.1900  134.8240 C   0  0  1  0  0  3  0  0  0  0  0  0
  184.8470  173.8000  135.3230 C   0  0  0  0  0  2  0  0  0  0  0  0
  189.3370  173.6270  136.3330 C   0  0  0  0  0  0  0  0  0  0  0  0
  187.9940  173.3560  136.0980 O   0  0  0  0  0  1  0  0  0  0  0  0
  190.2050  172.8280  135.8780 O   0  0  0  0  0  0  0  0  0  0  0  0
  192.0070  177.5600  139.2680 C   0  0  0  0  0  1  0  0  0  0  0  0
  192.6080  176.4630  138.6280 O   0  0  0  0  0  0  0  0  0  0  0  0
  189.1760  174.6150  138.6020 C   0  0  0  0  0  2  0  0  0  0  0  0
  189.2170  175.8750  139.4480 C   0  0  0  0  0  1  0  0  0  0  0  0
  179.1290  178.1970  138.1600 O   0  0  0  0  0  0  0  0  0  0  0  0
  178.9310  179.5770  138.0080 C   0  0  0  0  0  2  0  0  0  0  0  0
  179.0260  181.7450  139.2340 C   0  0  0  0  0  1  0  0  0  0  0  0
  179.4730  180.2940  139.2370 C   0  0  1  0  0  3  0  0  0  0  0  0
  178.9660  179.5960  140.4940 C   0  0  0  0  0  2  0  0  0  0  0  0
  179.5490  180.2190  141.7480 C   0  0  0  0  0  2  0  0  0  0  0  0
  178.9690  179.6380  142.8760 O   0  0  0  0  0  1  0  0  0  0  0  0
  1 33  1  0  0  0  0
  2 28  2  0  0  0  0
  7 22  1  0  0  0  0
  8 46  1  1  0  0  0
  9  8  1  0  0  0  0
 10  6  2  0  0  0  0
 11 19  2  0  0  0  0
 12 16  2  0  0  0  0
 12 11  1  0  0  0  0
 13 34  1  0  0  0  0
 14 31  1  0  0  0  0
 15  5  1  0  0  0  0
 15 14  2  0  0  0  0
 16 10  1  0  0  0  0
 17 30  1  0  0  0  0
 18  7  1  0  0  0  0
 18 14  1  0  0  0  0
 19  6  1  0  0  0  0
 20 23  1  6  0  0  0
 21  1  1  6  0  0  0
 21 25  1  0  0  0  0
 22 36  2  0  0  0  0
 22  8  1  0  0  0  0
 24 49  1  6  0  0  0
 24 38  1  0  0  0  0
 25 38  1  0  0  0  0
 26  2  1  0  0  0  0
 27 11  1  1  0  0  0
 27 35  1  0  0  0  0
 27 24  1  0  0  0  0
 28 29  1  0  0  0  0
 29  3  1  1  0  0  0
 30 33  1  0  0  0  0
 31  4  1  6  0  0  0
 31 39  1  0  0  0  0
 32  5  1  6  0  0  0
 32  4  1  0  0  0  0
 32 26  1  0  0  0  0
 34 19  1  6  0  0  0
 34 29  1  0  0  0  0
 35 21  1  0  0  0  0
 35 13  1  1  0  0  0
 37 32  1  0  0  0  0
 39  9  1  0  0  0  0
 39 47  1  1  0  0  0
 40 23  1  6  0  0  0
 40 37  1  0  0  0  0
 40 20  1  0  0  0  0
 41 20  1  0  0  0  0
 41 17  1  0  0  0  0
 42 39  1  0  0  0  0
 43 42  1  0  0  0  0
 44 42  2  0  0  0  0
 46 45  1  0  0  0  0
 47 48  1  0  0  0  0
 50 49  1  0  0  0  0
 50 52  1  0  0  0  0
 52 51  1  1  0  0  0
 52 53  1  0  0  0  0
 53 54  1  0  0  0  0
 54 55  1  0  0  0  0
M  END
>  <MODEL>
2

>  <REMARK>
 VINA RESULT:       2.2      1.184      2.071
  Name = 
  8 active torsions:
  status: ('A' for Active; 'I' for Inactive)
    1  A    between atoms: C_1  and  C_53
    2  A    between atoms: C_6  and  C_53
    3  A    between atoms: C_12  and  O_38
    4  A    between atoms: O_13  and  C_33
    5  A    between atoms: O_13  and  C_48
    6  A    between atoms: C_18  and  C_39
    7  A    between atoms: C_32  and  C_39
    8  A    between atoms: C_32  and  C_48
                            x       y       z     vdW  Elec       q    Type
                         _______ _______ _______ _____ _____    ______ ____

>  <TORSDO>
F 8

$$$$
=
 OpenBabel11052414523D

 55 61  0  0  1  0  0  0  0  0999 V2000
  189.0850  177.9480  141.0720 C   0  0  0  0  0  2  0  0  0  0  0  0
  186.6200  174.7840  137.0370 C   0  0  0  0  0  3  0  0  0  0  0  0
  188.6810  171.7570  137.7210 C   0  0  0  0  0  1  0  0  0  0  0  0
  184.2510  176.6270  137.1720 C   0  0  0  0  0  2  0  0  0  0  0  0
  184.6480  176.8630  134.6270 C   0  0  0  0  0  2  0  0  0  0  0  0
  189.9800  173.9030  135.7600 C   0  0  0  0  0  3  0  0  0  0  0  0
  180.1560  176.2150  134.7290 O   0  0  0  0  0  0  0  0  0  0  0  0
  180.6370  174.2750  136.2970 C   0  0  2  0  0  3  0  0  0  0  0  0
  180.6190  175.1030  137.5940 C   0  0  0  0  0  2  0  0  0  0  0  0
  190.5590  174.3980  134.5940 C   0  0  0  0  0  3  0  0  0  0  0  0
  190.5940  175.9200  136.9340 C   0  0  0  0  0  0  0  0  0  0  0  0
  191.2140  176.4000  135.7700 C   0  0  0  0  0  3  0  0  0  0  0  0
  188.8530  175.1650  139.0910 O   0  0  0  0  0  0  0  0  0  0  0  0
  182.3440  176.7830  135.5920 C   0  0  0  0  0  0  0  0  0  0  0  0
  183.1730  177.1950  134.6270 C   0  0  0  0  0  3  0  0  0  0  0  0
  191.1710  175.6490  134.5940 C   0  0  0  0  0  3  0  0  0  0  0  0
  185.4680  178.8010  140.7240 C   0  0  0  0  0  2  0  0  0  0  0  0
  180.8960  177.1610  135.4960 C   0  0  0  0  0  2  0  0  0  0  0  0
  189.9540  174.6820  136.9330 C   0  0  0  0  0  0  0  0  0  0  0  0
  186.4500  178.6150  138.4180 C   0  0  2  0  0  3  0  0  0  0  0  0
  189.8780  176.7220  140.6660 C   0  0  2  0  0  3  0  0  0  0  0  0
  179.8660  174.9180  135.1670 C   0  0  0  0  0  0  0  0  0  0  0  0
  187.2690  179.5240  137.5280 C   0  0  0  0  0  2  0  0  0  0  0  0
  192.1460  176.3380  138.8330 C   0  0  2  0  0  3  0  0  0  0  0  0
  191.3600  176.9800  140.8880 C   0  0  0  0  0  2  0  0  0  0  0  0
  185.8440  175.2700  135.9730 O   0  0  0  0  0  0  0  0  0  0  0  0
  190.7610  176.6440  138.2200 C   0  0  2  0  0  3  0  0  0  0  0  0
  187.2290  173.6140  136.9480 C   0  0  0  0  0  3  0  0  0  0  0  0
  188.1800  173.1600  138.0130 C   0  0  2  0  0  3  0  0  0  0  0  0
  186.8030  178.8460  141.4610 C   0  0  0  0  0  2  0  0  0  0  0  0
  182.9150  175.9970  136.7580 C   0  0  2  0  0  3  0  0  0  0  0  0
  185.2770  176.5800  136.0120 C   0  0  2  0  0  0  0  0  0  0  0  0
  187.6110  177.5950  141.1520 C   0  0  0  0  0  2  0  0  0  0  0  0
  189.3530  174.1510  138.2280 C   0  0  2  0  0  3  0  0  0  0  0  0
  189.6010  176.3640  139.1960 C   0  0  1  0  0  3  0  0  0  0  0  0
  178.9400  174.2880  134.5940 O   0  0  0  0  0  0  0  0  0  0  0  0
  186.4230  177.5950  136.2040 C   0  0  0  0  0  2  0  0  0  0  0  0
  192.1040  175.9980  140.2120 O   0  0  0  0  0  0  0  0  0  0  0  0
  181.9740  175.7420  137.9780 C   0  0  1  0  0  0  0  0  0  0  0  0
  186.0350  178.8460  136.9800 C   0  0  1  0  0  3  0  0  0  0  0  0
  185.5730  179.4460  139.3470 C   0  0  0  0  0  2  0  0  0  0  0  0
  181.6910  177.0540  138.6950 C   0  0  0  0  0  0  0  0  0  0  0  0
  180.6250  177.8570  138.3060 O   0  0  0  0  0  0  0  0  0  0  0  0
  182.4560  177.4660  139.6140 O   0  0  0  0  0  1  0  0  0  0  0  0
  180.7750  172.2060  135.3100 C   0  0  0  0  0  1  0  0  0  0  0  0
  180.3730  172.8950  136.4660 O   0  0  0  0  0  0  0  0  0  0  0  0
  182.6760  174.7950  138.9720 C   0  0  0  0  0  2  0  0  0  0  0  0
  183.3660  173.6260  138.2940 C   0  0  0  0  0  1  0  0  0  0  0  0
  193.0170  177.4200  138.6020 O   0  0  0  0  0  0  0  0  0  0  0  0
  194.2750  176.8710  138.3190 C   0  0  0  0  0  2  0  0  0  0  0  0
  194.5790  175.7520  136.1120 C   0  0  0  0  0  1  0  0  0  0  0  0
  194.0870  175.5770  137.5370 C   0  0  1  0  0  3  0  0  0  0  0  0
  194.8630  174.4560  138.2220 C   0  0  0  0  0  2  0  0  0  0  0  0
  196.2810  174.3610  137.6930 C   0  0  0  0  0  2  0  0  0  0  0  0
  197.1690  174.8870  138.6330 O   0  0  0  0  0  1  0  0  0  0  0  0
  1 33  1  0  0  0  0
  5 15  1  0  0  0  0
  6 19  1  0  0  0  0
  7 22  1  0  0  0  0
  7 18  1  0  0  0  0
  8 46  1  1  0  0  0
  8  9  1  0  0  0  0
  9 39  1  0  0  0  0
 10 16  1  0  0  0  0
 10  6  2  0  0  0  0
 12 11  1  0  0  0  0
 14 31  1  0  0  0  0
 15 14  2  0  0  0  0
 16 12  2  0  0  0  0
 17 30  1  0  0  0  0
 18 14  1  0  0  0  0
 19 11  2  0  0  0  0
 20 23  1  6  0  0  0
 20 41  1  0  0  0  0
 21 25  1  6  0  0  0
 21  1  1  0  0  0  0
 22  8  1  0  0  0  0
 24 49  1  1  0  0  0
 24 38  1  0  0  0  0
 26 32  1  0  0  0  0
 26  2  1  0  0  0  0
 27 11  1  6  0  0  0
 27 24  1  0  0  0  0
 27 35  1  0  0  0  0
 28  2  2  0  0  0  0
 28 29  1  0  0  0  0
 29  3  1  6  0  0  0
 29 34  1  0  0  0  0
 31  4  1  1  0  0  0
 31 39  1  0  0  0  0
 32  5  1  6  0  0  0
 32 37  1  0  0  0  0
 32  4  1  0  0  0  0
 33 30  1  0  0  0  0
 34 19  1  6  0  0  0
 34 13  1  0  0  0  0
 35 13  1  1  0  0  0
 35 21  1  0  0  0  0
 36 22  2  0  0  0  0
 38 25  1  0  0  0  0
 39 42  1  0  0  0  0
 39 47  1  1  0  0  0
 40 37  1  6  0  0  0
 40 23  1  0  0  0  0
 40 20  1  0  0  0  0
 41 17  1  0  0  0  0
 42 44  1  0  0  0  0
 43 42  2  0  0  0  0
 45 46  1  0  0  0  0
 48 47  1  0  0  0  0
 50 49  1  0  0  0  0
 52 51  1  6  0  0  0
 52 53  1  0  0  0  0
 52 50  1  0  0  0  0
 54 53  1  0  0  0  0
 54 55  1  0  0  0  0
M  END
>  <MODEL>
3

>  <REMARK>
 VINA RESULT:       2.8      2.025      9.938
  Name = 
  8 active torsions:
  status: ('A' for Active; 'I' for Inactive)
    1  A    between atoms: C_1  and  C_53
    2  A    between atoms: C_6  and  C_53
    3  A    between atoms: C_12  and  O_38
    4  A    between atoms: O_13  and  C_33
    5  A    between atoms: O_13  and  C_48
    6  A    between atoms: C_18  and  C_39
    7  A    between atoms: C_32  and  C_39
    8  A    between atoms: C_32  and  C_48
                            x       y       z     vdW  Elec       q    Type
                         _______ _______ _______ _____ _____    ______ ____

>  <TORSDO>
F 8

$$$$
