=
 OpenBabel11052413583D

 34 37  0  0  1  0  0  0  0  0999 V2000
  183.4220  178.0380  139.7830 C   0  0  1  0  0  3  0  0  0  0  0  0
  185.3800  178.9310  141.0440 C   0  0  0  0  0  0  0  0  0  0  0  0
  183.4870  178.6560  142.3190 C   0  0  0  0  0  2  0  0  0  0  0  0
  185.7020  179.5090  142.2480 O   0  0  0  0  0  0  0  0  0  0  0  0
  184.4270  177.8340  138.6590 C   0  0  0  0  0  0  0  0  0  0  0  0
  186.1490  178.9040  140.0050 N   0  0  0  0  0  0  0  0  0  0  0  0
  185.7160  178.2770  138.7800 C   0  0  0  0  0  0  0  0  0  0  0  0
  184.5950  179.3700  143.1360 C   0  0  2  0  0  3  0  0  0  0  0  0
  184.1000  178.3690  141.0320 N   0  0  0  0  0  0  0  0  0  0  0  0
  182.8360  180.2220  138.8930 N   0  0  0  0  0  0  0  0  0  0  0  0
  180.9630  178.8380  139.6680 C   0  0  0  0  0  0  0  0  0  0  0  0
  180.6540  181.2120  138.8420 C   0  0  0  0  0  3  0  0  0  0  0  0
  180.1510  180.0420  139.4920 N   0  0  0  0  0  0  0  0  0  0  0  0
  182.4290  179.1060  139.4300 C   0  0  0  0  0  0  0  0  0  0  0  0
  181.9470  181.2910  138.5470 C   0  0  0  0  0  3  0  0  0  0  0  0
  180.5230  177.8590  138.7960 F   0  0  0  0  0  0  0  0  0  0  0  0
  186.7420  178.1280  137.7160 C   0  0  0  0  0  0  0  0  0  0  0  0
  186.9160  179.0290  136.8520 O   0  0  0  0  0  0  0  0  0  0  0  0
  188.6740  176.7520  138.2300 N   0  0  0  0  0  0  0  0  0  0  0  0
  187.5270  176.9230  137.6880 N   0  0  0  0  0  0  0  0  0  0  0  0
  189.4200  177.7770  138.9510 C   0  0  0  0  0  2  0  0  0  0  0  0
  189.4410  177.4550  140.4330 C   0  0  0  0  0  2  0  0  0  0  0  0
  190.4080  176.4040  140.6850 N   0  0  0  0  0  1  0  0  0  0  0  0
  183.3580  175.7830  137.7590 C   0  0  0  0  0  1  0  0  0  0  0  0
  183.9090  177.1580  137.4240 C   0  0  0  0  0  2  0  0  0  0  0  0
  185.0030  178.5180  144.3250 C   0  0  0  0  0  2  0  0  0  0  0  0
  186.3210  177.8170  144.0450 C   0  0  0  0  0  2  0  0  0  0  0  0
  188.9350  176.7560  144.1620 O   0  0  0  0  0  0  0  0  0  0  0  0
  187.1010  177.7130  145.2690 N   0  0  0  0  0  0  0  0  0  0  0  0
  188.4460  177.1970  145.2370 C   0  0  0  0  0  0  0  0  0  0  0  0
  188.4680  177.2100  147.7310 C   0  0  0  0  0  2  0  0  0  0  0  0
  187.3620  178.2520  147.6620 C   0  0  0  0  0  2  0  0  0  0  0  0
  186.3980  177.8900  146.5380 C   0  0  0  0  0  2  0  0  0  0  0  0
  189.3090  177.2550  146.4600 C   0  0  0  0  0  2  0  0  0  0  0  0
  1 14  1  6  0  0  0
  1  9  1  0  0  0  0
  2  4  1  0  0  0  0
  3  8  1  0  0  0  0
  4  8  1  0  0  0  0
  5  7  2  0  0  0  0
  5  1  1  0  0  0  0
  6  2  2  0  0  0  0
  7  6  1  0  0  0  0
  8 26  1  1  0  0  0
  9  2  1  0  0  0  0
  9  3  1  0  0  0  0
 10 14  1  0  0  0  0
 12 13  2  0  0  0  0
 13 11  1  0  0  0  0
 14 11  2  0  0  0  0
 15 12  1  0  0  0  0
 15 10  2  0  0  0  0
 16 11  1  0  0  0  0
 17  7  1  0  0  0  0
 18 17  2  0  0  0  0
 19 21  1  0  0  0  0
 20 17  1  0  0  0  0
 20 19  2  0  0  0  0
 21 22  1  0  0  0  0
 22 23  1  0  0  0  0
 25 24  1  0  0  0  0
 25  5  1  0  0  0  0
 27 26  1  0  0  0  0
 27 29  1  0  0  0  0
 28 30  2  0  0  0  0
 29 33  1  0  0  0  0
 30 29  1  0  0  0  0
 30 34  1  0  0  0  0
 32 31  1  0  0  0  0
 33 32  1  0  0  0  0
 34 31  1  0  0  0  0
M  END
>  <MODEL>
1

>  <REMARK>
 VINA RESULT:      -7.8      0.000      0.000
  Name = 
  9 active torsions:
  status: ('A' for Active; 'I' for Inactive)
    1  A    between atoms: C_3  and  N_13
    2  A    between atoms: C_3  and  C_17
    3  A    between atoms: C_4  and  C_15
    4  A    between atoms: C_7  and  C_8
    5  A    between atoms: C_8  and  N_16
    6  A    between atoms: C_12  and  N_27
    7  A    between atoms: C_12  and  C_28
    8  A    between atoms: C_17  and  C_29
    9  A    between atoms: C_21  and  C_32
                            x       y       z     vdW  Elec       q    Type
                         _______ _______ _______ _____ _____    ______ ____

>  <TORSDO>
F 9

$$$$
=
 OpenBabel11052413583D

 34 37  0  0  1  0  0  0  0  0999 V2000
  190.4760  175.8560  138.3130 C   0  0  1  0  0  3  0  0  0  0  0  0
  192.2850  177.0200  139.5770 C   0  0  0  0  0  0  0  0  0  0  0  0
  190.3300  176.7600  140.7590 C   0  0  0  0  0  2  0  0  0  0  0  0
  192.4880  177.7510  140.7220 O   0  0  0  0  0  0  0  0  0  0  0  0
  191.5660  175.5960  137.2840 C   0  0  0  0  0  0  0  0  0  0  0  0
  193.1220  176.9300  138.5970 N   0  0  0  0  0  0  0  0  0  0  0  0
  192.8140  176.1390  137.4300 C   0  0  0  0  0  0  0  0  0  0  0  0
  191.3330  177.6370  141.5520 C   0  0  2  0  0  3  0  0  0  0  0  0
  191.0460  176.3730  139.5540 N   0  0  0  0  0  0  0  0  0  0  0  0
  189.7930  178.0080  137.4160 N   0  0  0  0  0  0  0  0  0  0  0  0
  188.0240  176.3210  137.6290 C   0  0  0  0  0  0  0  0  0  0  0  0
  187.5620  178.6930  136.8730 C   0  0  0  0  0  3  0  0  0  0  0  0
  187.1030  177.4140  137.3180 N   0  0  0  0  0  0  0  0  0  0  0  0
  189.4450  176.8050  137.7780 C   0  0  0  0  0  0  0  0  0  0  0  0
  188.8600  178.9730  136.9140 C   0  0  0  0  0  3  0  0  0  0  0  0
  187.9610  175.3710  136.6270 F   0  0  0  0  0  0  0  0  0  0  0  0
  193.9170  175.9420  136.4550 C   0  0  0  0  0  0  0  0  0  0  0  0
  194.4990  176.9280  135.9270 O   0  0  0  0  0  0  0  0  0  0  0  0
  195.2700  173.9350  136.6290 N   0  0  0  0  0  0  0  0  0  0  0  0
  194.3010  174.5960  136.1190 N   0  0  0  0  0  0  0  0  0  0  0  0
  196.1990  174.4480  137.6290 C   0  0  0  0  0  2  0  0  0  0  0  0
  195.7380  174.0470  139.0170 C   0  0  0  0  0  2  0  0  0  0  0  0
  195.9110  175.1650  139.9240 N   0  0  0  0  0  1  0  0  0  0  0  0
  190.7390  173.3700  136.5650 C   0  0  0  0  0  1  0  0  0  0  0  0
  191.1770  174.7500  136.1080 C   0  0  0  0  0  2  0  0  0  0  0  0
  191.7110  176.9550  142.8560 C   0  0  0  0  0  2  0  0  0  0  0  0
  190.5830  176.0540  143.3270 C   0  0  0  0  0  2  0  0  0  0  0  0
  187.9940  177.1710  143.4780 O   0  0  0  0  0  0  0  0  0  0  0  0
  189.9970  176.5850  144.5490 N   0  0  0  0  0  0  0  0  0  0  0  0
  188.6520  177.1000  144.5500 C   0  0  0  0  0  0  0  0  0  0  0  0
  189.0120  177.9230  146.8780 C   0  0  0  0  0  2  0  0  0  0  0  0
  190.1180  176.8850  146.9950 C   0  0  0  0  0  2  0  0  0  0  0  0
  190.8900  176.8220  145.6810 C   0  0  0  0  0  2  0  0  0  0  0  0
  187.9880  177.4810  145.8390 C   0  0  0  0  0  2  0  0  0  0  0  0
  1 14  1  6  0  0  0
  1  9  1  0  0  0  0
  2  4  1  0  0  0  0
  3  8  1  0  0  0  0
  4  8  1  0  0  0  0
  5  7  2  0  0  0  0
  5  1  1  0  0  0  0
  6  2  2  0  0  0  0
  7  6  1  0  0  0  0
  8 26  1  1  0  0  0
  9  2  1  0  0  0  0
  9  3  1  0  0  0  0
 10 14  1  0  0  0  0
 11 14  2  0  0  0  0
 12 15  1  0  0  0  0
 12 13  2  0  0  0  0
 13 11  1  0  0  0  0
 15 10  2  0  0  0  0
 16 11  1  0  0  0  0
 17  7  1  0  0  0  0
 18 17  2  0  0  0  0
 19 21  1  0  0  0  0
 20 17  1  0  0  0  0
 20 19  2  0  0  0  0
 21 22  1  0  0  0  0
 22 23  1  0  0  0  0
 25 24  1  0  0  0  0
 25  5  1  0  0  0  0
 26 27  1  0  0  0  0
 27 29  1  0  0  0  0
 28 30  2  0  0  0  0
 29 30  1  0  0  0  0
 29 33  1  0  0  0  0
 30 34  1  0  0  0  0
 31 32  1  0  0  0  0
 33 32  1  0  0  0  0
 34 31  1  0  0  0  0
M  END
>  <MODEL>
2

>  <REMARK>
 VINA RESULT:      -7.5      4.361      6.678
  Name = 
  9 active torsions:
  status: ('A' for Active; 'I' for Inactive)
    1  A    between atoms: C_3  and  N_13
    2  A    between atoms: C_3  and  C_17
    3  A    between atoms: C_4  and  C_15
    4  A    between atoms: C_7  and  C_8
    5  A    between atoms: C_8  and  N_16
    6  A    between atoms: C_12  and  N_27
    7  A    between atoms: C_12  and  C_28
    8  A    between atoms: C_17  and  C_29
    9  A    between atoms: C_21  and  C_32
                            x       y       z     vdW  Elec       q    Type
                         _______ _______ _______ _____ _____    ______ ____

>  <TORSDO>
F 9

$$$$
=
 OpenBabel11052413583D

 34 37  0  0  1  0  0  0  0  0999 V2000
  188.7130  176.8990  142.4660 C   0  0  1  0  0  3  0  0  0  0  0  0
  188.3710  178.1470  140.3340 C   0  0  0  0  0  0  0  0  0  0  0  0
  190.2120  176.7700  140.3320 C   0  0  0  0  0  2  0  0  0  0  0  0
  189.0160  178.4540  139.1600 O   0  0  0  0  0  0  0  0  0  0  0  0
  187.3430  177.4480  142.8350 C   0  0  0  0  0  0  0  0  0  0  0  0
  187.3010  178.7280  140.7650 N   0  0  0  0  0  0  0  0  0  0  0  0
  186.7000  178.3380  142.0170 C   0  0  0  0  0  0  0  0  0  0  0  0
  190.1740  177.6280  139.0410 C   0  0  2  0  0  3  0  0  0  0  0  0
  189.0020  177.1290  141.0540 N   0  0  0  0  0  0  0  0  0  0  0  0
  190.0650  178.7740  143.2140 N   0  0  0  0  0  0  0  0  0  0  0  0
  190.4880  176.6300  144.3320 C   0  0  0  0  0  0  0  0  0  0  0  0
  191.8570  178.7070  144.8030 C   0  0  0  0  0  3  0  0  0  0  0  0
  191.6480  177.2980  144.9210 N   0  0  0  0  0  0  0  0  0  0  0  0
  189.7850  177.5060  143.3230 C   0  0  0  0  0  0  0  0  0  0  0  0
  191.0870  179.4170  143.9860 C   0  0  0  0  0  3  0  0  0  0  0  0
  189.6040  176.2790  145.3350 F   0  0  0  0  0  0  0  0  0  0  0  0
  185.3710  178.9270  142.3250 C   0  0  0  0  0  0  0  0  0  0  0  0
  185.2650  180.1250  142.7020 O   0  0  0  0  0  0  0  0  0  0  0  0
  183.6500  177.7370  141.0960 N   0  0  0  0  0  0  0  0  0  0  0  0
  184.2060  178.0930  142.1920 N   0  0  0  0  0  0  0  0  0  0  0  0
  184.0790  178.1530  139.7660 C   0  0  0  0  0  2  0  0  0  0  0  0
  183.3070  179.3860  139.3350 C   0  0  0  0  0  2  0  0  0  0  0  0
  184.2380  180.4420  138.9890 N   0  0  0  0  0  1  0  0  0  0  0  0
  186.8930  178.0710  145.1940 C   0  0  0  0  0  1  0  0  0  0  0  0
  186.7740  176.9820  144.1420 C   0  0  0  0  0  2  0  0  0  0  0  0
  190.0370  176.7360  137.8200 C   0  0  0  0  0  2  0  0  0  0  0  0
  189.2450  177.4450  136.7340 C   0  0  0  0  0  2  0  0  0  0  0  0
  186.8810  178.9750  136.9460 O   0  0  0  0  0  0  0  0  0  0  0  0
  187.9040  176.8850  136.6480 N   0  0  0  0  0  0  0  0  0  0  0  0
  186.7490  177.7420  136.7250 C   0  0  0  0  0  0  0  0  0  0  0  0
  185.3000  175.7120  136.8170 C   0  0  0  0  0  2  0  0  0  0  0  0
  186.4450  174.9550  136.1630 C   0  0  0  0  0  2  0  0  0  0  0  0
  187.7680  175.4340  136.7530 C   0  0  0  0  0  2  0  0  0  0  0  0
  185.3800  177.1920  136.4590 C   0  0  0  0  0  2  0  0  0  0  0  0
  1  5  1  0  0  0  0
  1 14  1  1  0  0  0
  2  6  2  0  0  0  0
  2  9  1  0  0  0  0
  3  9  1  0  0  0  0
  4  2  1  0  0  0  0
  5 25  1  0  0  0  0
  6  7  1  0  0  0  0
  7 17  1  0  0  0  0
  7  5  2  0  0  0  0
  8 26  1  6  0  0  0
  8  4  1  0  0  0  0
  8  3  1  0  0  0  0
  9  1  1  0  0  0  0
 10 14  2  0  0  0  0
 10 15  1  0  0  0  0
 11 13  2  0  0  0  0
 11 16  1  0  0  0  0
 12 13  1  0  0  0  0
 14 11  1  0  0  0  0
 15 12  2  0  0  0  0
 17 18  2  0  0  0  0
 19 20  2  0  0  0  0
 20 17  1  0  0  0  0
 21 19  1  0  0  0  0
 22 21  1  0  0  0  0
 23 22  1  0  0  0  0
 25 24  1  0  0  0  0
 27 26  1  0  0  0  0
 29 30  1  0  0  0  0
 29 27  1  0  0  0  0
 29 33  1  0  0  0  0
 30 28  2  0  0  0  0
 32 33  1  0  0  0  0
 32 31  1  0  0  0  0
 34 30  1  0  0  0  0
 34 31  1  0  0  0  0
M  END
>  <MODEL>
3

>  <REMARK>
 VINA RESULT:      -7.2      2.856      8.233
  Name = 
  9 active torsions:
  status: ('A' for Active; 'I' for Inactive)
    1  A    between atoms: C_3  and  N_13
    2  A    between atoms: C_3  and  C_17
    3  A    between atoms: C_4  and  C_15
    4  A    between atoms: C_7  and  C_8
    5  A    between atoms: C_8  and  N_16
    6  A    between atoms: C_12  and  N_27
    7  A    between atoms: C_12  and  C_28
    8  A    between atoms: C_17  and  C_29
    9  A    between atoms: C_21  and  C_32
                            x       y       z     vdW  Elec       q    Type
                         _______ _______ _______ _____ _____    ______ ____

>  <TORSDO>
F 9

$$$$
=
 OpenBabel11052413583D

 34 37  0  0  1  0  0  0  0  0999 V2000
  189.6960  177.5890  137.9100 C   0  0  1  0  0  3  0  0  0  0  0  0
  188.8030  177.3630  140.2280 C   0  0  0  0  0  0  0  0  0  0  0  0
  191.0950  177.2680  140.0910 C   0  0  0  0  0  2  0  0  0  0  0  0
  189.1990  177.0120  141.4960 O   0  0  0  0  0  0  0  0  0  0  0  0
  188.2580  177.9310  137.5480 C   0  0  0  0  0  0  0  0  0  0  0  0
  187.5760  177.4820  139.8410 N   0  0  0  0  0  0  0  0  0  0  0  0
  187.2600  177.8490  138.4820 C   0  0  0  0  0  0  0  0  0  0  0  0
  190.6240  176.9500  141.5330 C   0  0  2  0  0  3  0  0  0  0  0  0
  189.8770  177.5710  139.3580 N   0  0  0  0  0  0  0  0  0  0  0  0
  189.4210  175.1950  137.5980 N   0  0  0  0  0  0  0  0  0  0  0  0
  191.2730  176.2350  136.3670 C   0  0  0  0  0  0  0  0  0  0  0  0
  190.8560  173.7370  136.3490 C   0  0  0  0  0  3  0  0  0  0  0  0
  191.6840  174.8660  136.0590 N   0  0  0  0  0  0  0  0  0  0  0  0
  190.1010  176.2710  137.3180 C   0  0  0  0  0  0  0  0  0  0  0  0
  189.7610  173.9010  137.0840 C   0  0  0  0  0  3  0  0  0  0  0  0
  190.9380  176.8860  135.1950 F   0  0  0  0  0  0  0  0  0  0  0  0
  185.8350  178.1500  138.1920 C   0  0  0  0  0  0  0  0  0  0  0  0
  185.1070  177.3160  137.5890 O   0  0  0  0  0  0  0  0  0  0  0  0
  184.6690  179.6580  139.6930 N   0  0  0  0  0  0  0  0  0  0  0  0
  185.3050  179.4210  138.6090 N   0  0  0  0  0  0  0  0  0  0  0  0
  184.3240  178.6590  140.6980 C   0  0  0  0  0  2  0  0  0  0  0  0
  185.0330  178.9720  142.0020 C   0  0  0  0  0  2  0  0  0  0  0  0
  184.1260  178.7440  143.1110 N   0  0  0  0  0  1  0  0  0  0  0  0
  187.5930  177.1150  135.3010 C   0  0  0  0  0  1  0  0  0  0  0  0
  188.0110  178.3220  136.1220 C   0  0  0  0  0  2  0  0  0  0  0  0
  191.1520  177.9940  142.5020 C   0  0  0  0  0  2  0  0  0  0  0  0
  190.0660  178.3990  143.4840 C   0  0  0  0  0  2  0  0  0  0  0  0
  188.0780  178.1120  145.4680 O   0  0  0  0  0  0  0  0  0  0  0  0
  190.2870  177.7490  144.7670 N   0  0  0  0  0  0  0  0  0  0  0  0
  189.2070  177.6060  145.7100 C   0  0  0  0  0  0  0  0  0  0  0  0
  190.8440  176.7760  147.4000 C   0  0  0  0  0  2  0  0  0  0  0  0
  191.7480  176.4060  146.2340 C   0  0  0  0  0  2  0  0  0  0  0  0
  191.6690  177.4960  145.1700 C   0  0  0  0  0  2  0  0  0  0  0  0
  189.3870  176.7840  146.9500 C   0  0  0  0  0  2  0  0  0  0  0  0
  1 14  1  1  0  0  0
  1  9  1  0  0  0  0
  2  4  1  0  0  0  0
  3  8  1  0  0  0  0
  4  8  1  0  0  0  0
  5  1  1  0  0  0  0
  5  7  2  0  0  0  0
  6  2  2  0  0  0  0
  7  6  1  0  0  0  0
  8 26  1  1  0  0  0
  9  3  1  0  0  0  0
  9  2  1  0  0  0  0
 11 14  2  0  0  0  0
 12 15  1  0  0  0  0
 13 12  2  0  0  0  0
 13 11  1  0  0  0  0
 14 10  1  0  0  0  0
 15 10  2  0  0  0  0
 16 11  1  0  0  0  0
 17  7  1  0  0  0  0
 17 20  1  0  0  0  0
 18 17  2  0  0  0  0
 19 21  1  0  0  0  0
 20 19  2  0  0  0  0
 21 22  1  0  0  0  0
 22 23  1  0  0  0  0
 24 25  1  0  0  0  0
 25  5  1  0  0  0  0
 26 27  1  0  0  0  0
 27 29  1  0  0  0  0
 28 30  2  0  0  0  0
 29 33  1  0  0  0  0
 29 30  1  0  0  0  0
 30 34  1  0  0  0  0
 32 31  1  0  0  0  0
 33 32  1  0  0  0  0
 34 31  1  0  0  0  0
M  END
>  <MODEL>
4

>  <REMARK>
 VINA RESULT:      -7.1      3.089      6.460
  Name = 
  9 active torsions:
  status: ('A' for Active; 'I' for Inactive)
    1  A    between atoms: C_3  and  N_13
    2  A    between atoms: C_3  and  C_17
    3  A    between atoms: C_4  and  C_15
    4  A    between atoms: C_7  and  C_8
    5  A    between atoms: C_8  and  N_16
    6  A    between atoms: C_12  and  N_27
    7  A    between atoms: C_12  and  C_28
    8  A    between atoms: C_17  and  C_29
    9  A    between atoms: C_21  and  C_32
                            x       y       z     vdW  Elec       q    Type
                         _______ _______ _______ _____ _____    ______ ____

>  <TORSDO>
F 9

$$$$
=
 OpenBabel11052413583D

 34 37  0  0  1  0  0  0  0  0999 V2000
  188.6580  176.9700  142.4740 C   0  0  1  0  0  3  0  0  0  0  0  0
  188.1430  178.2470  140.3940 C   0  0  0  0  0  0  0  0  0  0  0  0
  190.0630  176.9890  140.2730 C   0  0  0  0  0  2  0  0  0  0  0  0
  188.7130  178.6220  139.2020 O   0  0  0  0  0  0  0  0  0  0  0  0
  187.2750  177.4230  142.9180 C   0  0  0  0  0  0  0  0  0  0  0  0
  187.0590  178.7480  140.8880 N   0  0  0  0  0  0  0  0  0  0  0  0
  186.5420  178.2910  142.1540 C   0  0  0  0  0  0  0  0  0  0  0  0
  189.9130  177.8740  139.0090 C   0  0  2  0  0  3  0  0  0  0  0  0
  188.8670  177.2520  141.0570 N   0  0  0  0  0  0  0  0  0  0  0  0
  189.9180  178.9090  143.2210 N   0  0  0  0  0  0  0  0  0  0  0  0
  190.5380  176.7650  144.2410 C   0  0  0  0  0  0  0  0  0  0  0  0
  191.7880  178.9150  144.7190 C   0  0  0  0  0  3  0  0  0  0  0  0
  191.6790  177.4920  144.7970 N   0  0  0  0  0  0  0  0  0  0  0  0
  189.7290  177.6220  143.2990 C   0  0  0  0  0  0  0  0  0  0  0  0
  190.9320  179.5960  143.9650 C   0  0  0  0  0  3  0  0  0  0  0  0
  189.7310  176.3230  145.2730 F   0  0  0  0  0  0  0  0  0  0  0  0
  185.1950  178.7870  142.5370 C   0  0  0  0  0  0  0  0  0  0  0  0
  185.0620  179.8320  143.2290 O   0  0  0  0  0  0  0  0  0  0  0  0
  183.4320  178.1680  140.9890 N   0  0  0  0  0  0  0  0  0  0  0  0
  184.0430  178.0410  142.1060 N   0  0  0  0  0  0  0  0  0  0  0  0
  183.7730  179.1350  139.9530 C   0  0  0  0  0  2  0  0  0  0  0  0
  183.8320  178.4470  138.6020 C   0  0  0  0  0  2  0  0  0  0  0  0
  185.1910  178.4920  138.0970 N   0  0  0  0  0  1  0  0  0  0  0  0
  186.9850  177.9260  145.3300 C   0  0  0  0  0  1  0  0  0  0  0  0
  186.7970  176.8900  144.2360 C   0  0  0  0  0  2  0  0  0  0  0  0
  189.7750  177.0060  137.7710 C   0  0  0  0  0  2  0  0  0  0  0  0
  190.6240  175.7530  137.9070 C   0  0  0  0  0  2  0  0  0  0  0  0
  193.2270  176.7570  138.3430 O   0  0  0  0  0  0  0  0  0  0  0  0
  191.6750  175.7500  136.9010 N   0  0  0  0  0  0  0  0  0  0  0  0
  192.9900  176.2440  137.2170 C   0  0  0  0  0  0  0  0  0  0  0  0
  193.6020  176.0410  134.8060 C   0  0  0  0  0  2  0  0  0  0  0  0
  192.4760  175.0260  134.6820 C   0  0  0  0  0  2  0  0  0  0  0  0
  191.2860  175.4900  135.5160 C   0  0  0  0  0  2  0  0  0  0  0  0
  194.1160  176.0780  136.2410 C   0  0  0  0  0  2  0  0  0  0  0  0
  1  5  1  0  0  0  0
  1 14  1  1  0  0  0
  2  6  2  0  0  0  0
  2  9  1  0  0  0  0
  3  9  1  0  0  0  0
  4  2  1  0  0  0  0
  5 25  1  0  0  0  0
  6  7  1  0  0  0  0
  7 17  1  0  0  0  0
  7  5  2  0  0  0  0
  8 26  1  6  0  0  0
  8  4  1  0  0  0  0
  8  3  1  0  0  0  0
  9  1  1  0  0  0  0
 10 14  2  0  0  0  0
 10 15  1  0  0  0  0
 11 13  2  0  0  0  0
 11 16  1  0  0  0  0
 12 13  1  0  0  0  0
 14 11  1  0  0  0  0
 15 12  2  0  0  0  0
 17 18  2  0  0  0  0
 19 20  2  0  0  0  0
 20 17  1  0  0  0  0
 21 19  1  0  0  0  0
 22 21  1  0  0  0  0
 23 22  1  0  0  0  0
 25 24  1  0  0  0  0
 26 27  1  0  0  0  0
 29 30  1  0  0  0  0
 29 27  1  0  0  0  0
 30 28  2  0  0  0  0
 31 34  1  0  0  0  0
 32 31  1  0  0  0  0
 32 33  1  0  0  0  0
 33 29  1  0  0  0  0
 34 30  1  0  0  0  0
M  END
>  <MODEL>
5

>  <REMARK>
 VINA RESULT:      -6.9      3.643      8.536
  Name = 
  9 active torsions:
  status: ('A' for Active; 'I' for Inactive)
    1  A    between atoms: C_3  and  N_13
    2  A    between atoms: C_3  and  C_17
    3  A    between atoms: C_4  and  C_15
    4  A    between atoms: C_7  and  C_8
    5  A    between atoms: C_8  and  N_16
    6  A    between atoms: C_12  and  N_27
    7  A    between atoms: C_12  and  C_28
    8  A    between atoms: C_17  and  C_29
    9  A    between atoms: C_21  and  C_32
                            x       y       z     vdW  Elec       q    Type
                         _______ _______ _______ _____ _____    ______ ____

>  <TORSDO>
F 9

$$$$
=
 OpenBabel11052413583D

 34 37  0  0  1  0  0  0  0  0999 V2000
  188.5040  177.0120  142.4690 C   0  0  1  0  0  3  0  0  0  0  0  0
  187.9340  178.4310  140.4980 C   0  0  0  0  0  0  0  0  0  0  0  0
  189.7780  177.0920  140.1910 C   0  0  0  0  0  2  0  0  0  0  0  0
  188.4530  178.8470  139.2960 O   0  0  0  0  0  0  0  0  0  0  0  0
  187.1740  177.5040  143.0210 C   0  0  0  0  0  0  0  0  0  0  0  0
  186.9090  178.9540  141.0840 N   0  0  0  0  0  0  0  0  0  0  0  0
  186.4430  178.4480  142.3520 C   0  0  0  0  0  0  0  0  0  0  0  0
  189.6000  178.0560  138.9900 C   0  0  2  0  0  3  0  0  0  0  0  0
  188.6450  177.3660  141.0600 N   0  0  0  0  0  0  0  0  0  0  0  0
  189.8960  178.8430  143.2520 N   0  0  0  0  0  0  0  0  0  0  0  0
  190.4770  176.6130  144.0970 C   0  0  0  0  0  0  0  0  0  0  0  0
  191.8530  178.6720  144.6240 C   0  0  0  0  0  3  0  0  0  0  0  0
  191.6820  177.2530  144.6220 N   0  0  0  0  0  0  0  0  0  0  0  0
  189.6520  177.5630  143.2620 C   0  0  0  0  0  0  0  0  0  0  0  0
  190.9850  179.4360  143.9700 C   0  0  0  0  0  3  0  0  0  0  0  0
  189.7150  176.1400  145.1490 F   0  0  0  0  0  0  0  0  0  0  0  0
  185.1470  178.9850  142.8430 C   0  0  0  0  0  0  0  0  0  0  0  0
  185.0970  180.0670  143.4880 O   0  0  0  0  0  0  0  0  0  0  0  0
  183.2400  178.2990  141.5090 N   0  0  0  0  0  0  0  0  0  0  0  0
  183.9490  178.2350  142.5720 N   0  0  0  0  0  0  0  0  0  0  0  0
  183.4990  179.1850  140.3810 C   0  0  0  0  0  2  0  0  0  0  0  0
  183.8530  178.3690  139.1530 C   0  0  0  0  0  2  0  0  0  0  0  0
  184.9580  179.0000  138.4560 N   0  0  0  0  0  1  0  0  0  0  0  0
  187.0440  177.8810  145.4700 C   0  0  0  0  0  1  0  0  0  0  0  0
  186.7460  176.9180  144.3340 C   0  0  0  0  0  2  0  0  0  0  0  0
  189.3470  177.2680  137.7160 C   0  0  0  0  0  2  0  0  0  0  0  0
  189.9770  175.8900  137.8140 C   0  0  0  0  0  2  0  0  0  0  0  0
  190.1320  175.1160  135.1030 O   0  0  0  0  0  0  0  0  0  0  0  0
  191.2150  175.8510  137.0490 N   0  0  0  0  0  0  0  0  0  0  0  0
  191.2020  175.4840  135.6560 C   0  0  0  0  0  0  0  0  0  0  0  0
  193.6970  175.4600  135.6810 C   0  0  0  0  0  2  0  0  0  0  0  0
  193.6200  176.3780  136.8920 C   0  0  0  0  0  2  0  0  0  0  0  0
  192.4720  175.9310  137.7900 C   0  0  0  0  0  2  0  0  0  0  0  0
  192.4430  175.6160  134.8270 C   0  0  0  0  0  2  0  0  0  0  0  0
  1  5  1  0  0  0  0
  1 14  1  1  0  0  0
  2  9  1  0  0  0  0
  2  6  2  0  0  0  0
  3  9  1  0  0  0  0
  4  2  1  0  0  0  0
  5 25  1  0  0  0  0
  6  7  1  0  0  0  0
  7 17  1  0  0  0  0
  7  5  2  0  0  0  0
  8 26  1  6  0  0  0
  8  4  1  0  0  0  0
  8  3  1  0  0  0  0
  9  1  1  0  0  0  0
 10 14  2  0  0  0  0
 10 15  1  0  0  0  0
 11 13  2  0  0  0  0
 11 16  1  0  0  0  0
 13 12  1  0  0  0  0
 14 11  1  0  0  0  0
 15 12  2  0  0  0  0
 17 18  2  0  0  0  0
 19 20  2  0  0  0  0
 20 17  1  0  0  0  0
 21 19  1  0  0  0  0
 22 21  1  0  0  0  0
 23 22  1  0  0  0  0
 25 24  1  0  0  0  0
 26 27  1  0  0  0  0
 28 30  2  0  0  0  0
 29 33  1  0  0  0  0
 29 27  1  0  0  0  0
 30 29  1  0  0  0  0
 31 32  1  0  0  0  0
 32 33  1  0  0  0  0
 34 30  1  0  0  0  0
 34 31  1  0  0  0  0
M  END
>  <MODEL>
6

>  <REMARK>
 VINA RESULT:      -6.8      3.449      8.478
  Name = 
  9 active torsions:
  status: ('A' for Active; 'I' for Inactive)
    1  A    between atoms: C_3  and  N_13
    2  A    between atoms: C_3  and  C_17
    3  A    between atoms: C_4  and  C_15
    4  A    between atoms: C_7  and  C_8
    5  A    between atoms: C_8  and  N_16
    6  A    between atoms: C_12  and  N_27
    7  A    between atoms: C_12  and  C_28
    8  A    between atoms: C_17  and  C_29
    9  A    between atoms: C_21  and  C_32
                            x       y       z     vdW  Elec       q    Type
                         _______ _______ _______ _____ _____    ______ ____

>  <TORSDO>
F 9

$$$$
=
 OpenBabel11052413583D

 34 37  0  0  1  0  0  0  0  0999 V2000
  188.7750  176.8720  141.9980 C   0  0  1  0  0  3  0  0  0  0  0  0
  188.1030  178.2950  140.0630 C   0  0  0  0  0  0  0  0  0  0  0  0
  190.0490  177.1170  139.7320 C   0  0  0  0  0  2  0  0  0  0  0  0
  188.5920  178.7850  138.8760 O   0  0  0  0  0  0  0  0  0  0  0  0
  187.4070  177.2410  142.5540 C   0  0  0  0  0  0  0  0  0  0  0  0
  187.0360  178.7180  140.6560 N   0  0  0  0  0  0  0  0  0  0  0  0
  186.6060  178.1420  141.9060 C   0  0  0  0  0  0  0  0  0  0  0  0
  189.8000  178.0960  138.5560 C   0  0  2  0  0  3  0  0  0  0  0  0
  188.8940  177.2750  140.6010 N   0  0  0  0  0  0  0  0  0  0  0  0
  189.8820  178.7770  143.0230 N   0  0  0  0  0  0  0  0  0  0  0  0
  190.9230  176.5900  143.4150 C   0  0  0  0  0  0  0  0  0  0  0  0
  191.9510  178.7560  144.2320 C   0  0  0  0  0  3  0  0  0  0  0  0
  192.0370  177.3510  143.9810 N   0  0  0  0  0  0  0  0  0  0  0  0
  189.8720  177.4910  142.8140 C   0  0  0  0  0  0  0  0  0  0  0  0
  190.9060  179.4390  143.7760 C   0  0  0  0  0  3  0  0  0  0  0  0
  190.3540  175.8100  144.4040 F   0  0  0  0  0  0  0  0  0  0  0  0
  185.2700  178.5590  142.4030 C   0  0  0  0  0  0  0  0  0  0  0  0
  184.2310  177.9200  142.0850 O   0  0  0  0  0  0  0  0  0  0  0  0
  184.6470  179.7750  144.4090 N   0  0  0  0  0  0  0  0  0  0  0  0
  185.1870  179.7190  143.2500 N   0  0  0  0  0  0  0  0  0  0  0  0
  183.9720  178.6650  145.0720 C   0  0  0  0  0  2  0  0  0  0  0  0
  184.4760  178.5310  146.4960 C   0  0  0  0  0  2  0  0  0  0  0  0
  185.5700  179.4580  146.7100 N   0  0  0  0  0  1  0  0  0  0  0  0
  187.4880  177.4220  145.0270 C   0  0  0  0  0  1  0  0  0  0  0  0
  187.0220  176.5870  143.8480 C   0  0  0  0  0  2  0  0  0  0  0  0
  189.6170  177.3270  137.2600 C   0  0  0  0  0  2  0  0  0  0  0  0
  188.1680  176.8970  137.1020 C   0  0  0  0  0  2  0  0  0  0  0  0
  185.7460  175.4460  137.1180 O   0  0  0  0  0  0  0  0  0  0  0  0
  188.0880  175.4490  136.9810 N   0  0  0  0  0  0  0  0  0  0  0  0
  186.8080  174.7880  136.9570 C   0  0  0  0  0  0  0  0  0  0  0  0
  187.9850  172.5910  137.0860 C   0  0  0  0  0  2  0  0  0  0  0  0
  189.2110  173.2990  136.5290 C   0  0  0  0  0  2  0  0  0  0  0  0
  189.3220  174.6840  137.1560 C   0  0  0  0  0  2  0  0  0  0  0  0
  186.7190  173.3220  136.6550 C   0  0  0  0  0  2  0  0  0  0  0  0
  1  5  1  0  0  0  0
  1 14  1  1  0  0  0
  2  9  1  0  0  0  0
  2  6  2  0  0  0  0
  3  9  1  0  0  0  0
  4  2  1  0  0  0  0
  5 25  1  0  0  0  0
  6  7  1  0  0  0  0
  7 17  1  0  0  0  0
  7  5  2  0  0  0  0
  8 26  1  6  0  0  0
  8  4  1  0  0  0  0
  8  3  1  0  0  0  0
  9  1  1  0  0  0  0
 10 15  1  0  0  0  0
 11 13  2  0  0  0  0
 11 16  1  0  0  0  0
 13 12  1  0  0  0  0
 14 10  2  0  0  0  0
 14 11  1  0  0  0  0
 15 12  2  0  0  0  0
 17 20  1  0  0  0  0
 18 17  2  0  0  0  0
 19 21  1  0  0  0  0
 20 19  2  0  0  0  0
 21 22  1  0  0  0  0
 22 23  1  0  0  0  0
 25 24  1  0  0  0  0
 27 26  1  0  0  0  0
 29 27  1  0  0  0  0
 29 33  1  0  0  0  0
 30 29  1  0  0  0  0
 30 28  2  0  0  0  0
 32 31  1  0  0  0  0
 32 33  1  0  0  0  0
 34 30  1  0  0  0  0
 34 31  1  0  0  0  0
M  END
>  <MODEL>
7

>  <REMARK>
 VINA RESULT:      -6.7      3.762      8.400
  Name = 
  9 active torsions:
  status: ('A' for Active; 'I' for Inactive)
    1  A    between atoms: C_3  and  N_13
    2  A    between atoms: C_3  and  C_17
    3  A    between atoms: C_4  and  C_15
    4  A    between atoms: C_7  and  C_8
    5  A    between atoms: C_8  and  N_16
    6  A    between atoms: C_12  and  N_27
    7  A    between atoms: C_12  and  C_28
    8  A    between atoms: C_17  and  C_29
    9  A    between atoms: C_21  and  C_32
                            x       y       z     vdW  Elec       q    Type
                         _______ _______ _______ _____ _____    ______ ____

>  <TORSDO>
F 9

$$$$
=
 OpenBabel11052413583D

 34 37  0  0  1  0  0  0  0  0999 V2000
  190.7760  177.4950  138.6250 C   0  0  1  0  0  3  0  0  0  0  0  0
  189.3470  177.0380  140.6180 C   0  0  0  0  0  0  0  0  0  0  0  0
  191.5910  177.2060  141.0890 C   0  0  0  0  0  2  0  0  0  0  0  0
  189.4410  176.6610  141.9360 O   0  0  0  0  0  0  0  0  0  0  0  0
  189.4500  177.6960  137.9060 C   0  0  0  0  0  0  0  0  0  0  0  0
  188.2570  177.0420  139.9240 N   0  0  0  0  0  0  0  0  0  0  0  0
  188.2620  177.4500  138.5410 C   0  0  0  0  0  0  0  0  0  0  0  0
  190.8040  176.7550  142.3460 C   0  0  2  0  0  3  0  0  0  0  0  0
  190.5760  177.4140  140.0690 N   0  0  0  0  0  0  0  0  0  0  0  0
  190.7930  175.1970  137.8350 N   0  0  0  0  0  0  0  0  0  0  0  0
  192.9740  176.3180  137.9320 C   0  0  0  0  0  0  0  0  0  0  0  0
  192.7210  173.8800  137.2980 C   0  0  0  0  0  3  0  0  0  0  0  0
  193.5360  174.9940  137.6660 N   0  0  0  0  0  0  0  0  0  0  0  0
  191.4780  176.2670  138.1270 C   0  0  0  0  0  0  0  0  0  0  0  0
  191.3980  173.9840  137.3720 C   0  0  0  0  0  3  0  0  0  0  0  0
  193.2750  177.1620  136.8790 F   0  0  0  0  0  0  0  0  0  0  0  0
  186.9350  177.6070  137.8920 C   0  0  0  0  0  0  0  0  0  0  0  0
  186.3810  176.6380  137.3060 O   0  0  0  0  0  0  0  0  0  0  0  0
  185.3200  179.2310  138.6950 N   0  0  0  0  0  0  0  0  0  0  0  0
  186.2980  178.8970  137.9410 N   0  0  0  0  0  0  0  0  0  0  0  0
  184.6390  178.3400  139.6270 C   0  0  0  0  0  2  0  0  0  0  0  0
  183.2760  177.9620  139.0770 C   0  0  0  0  0  2  0  0  0  0  0  0
  183.0300  176.5550  139.3240 N   0  0  0  0  0  1  0  0  0  0  0  0
  189.3230  176.9630  135.5380 C   0  0  0  0  0  1  0  0  0  0  0  0
  189.5350  178.1390  136.4750 C   0  0  0  0  0  2  0  0  0  0  0  0
  190.9310  177.7940  143.4470 C   0  0  0  0  0  2  0  0  0  0  0  0
  191.2820  177.1250  144.7650 C   0  0  0  0  0  2  0  0  0  0  0  0
  191.6150  177.0380  147.5680 O   0  0  0  0  0  0  0  0  0  0  0  0
  190.1960  177.2990  145.7190 N   0  0  0  0  0  0  0  0  0  0  0  0
  190.4570  177.2820  147.1350 C   0  0  0  0  0  0  0  0  0  0  0  0
  187.9970  177.3030  147.5480 C   0  0  0  0  0  2  0  0  0  0  0  0
  187.8420  177.8960  146.1560 C   0  0  0  0  0  2  0  0  0  0  0  0
  188.8290  177.2210  145.2090 C   0  0  0  0  0  2  0  0  0  0  0  0
  189.3750  177.6360  148.1090 C   0  0  0  0  0  2  0  0  0  0  0  0
  1 14  1  6  0  0  0
  1  9  1  0  0  0  0
  2  4  1  0  0  0  0
  3  8  1  0  0  0  0
  4  8  1  0  0  0  0
  5  7  2  0  0  0  0
  5  1  1  0  0  0  0
  6  2  2  0  0  0  0
  7  6  1  0  0  0  0
  8 26  1  1  0  0  0
  9  2  1  0  0  0  0
  9  3  1  0  0  0  0
 10 14  1  0  0  0  0
 11 14  2  0  0  0  0
 12 15  1  0  0  0  0
 12 13  2  0  0  0  0
 13 11  1  0  0  0  0
 15 10  2  0  0  0  0
 16 11  1  0  0  0  0
 17 20  1  0  0  0  0
 17  7  1  0  0  0  0
 18 17  2  0  0  0  0
 19 21  1  0  0  0  0
 20 19  2  0  0  0  0
 22 23  1  0  0  0  0
 22 21  1  0  0  0  0
 24 25  1  0  0  0  0
 25  5  1  0  0  0  0
 26 27  1  0  0  0  0
 27 29  1  0  0  0  0
 29 30  1  0  0  0  0
 30 28  2  0  0  0  0
 30 34  1  0  0  0  0
 31 34  1  0  0  0  0
 32 31  1  0  0  0  0
 33 29  1  0  0  0  0
 33 32  1  0  0  0  0
M  END
>  <MODEL>
8

>  <REMARK>
 VINA RESULT:      -6.7      3.363      7.051
  Name = 
  9 active torsions:
  status: ('A' for Active; 'I' for Inactive)
    1  A    between atoms: C_3  and  N_13
    2  A    between atoms: C_3  and  C_17
    3  A    between atoms: C_4  and  C_15
    4  A    between atoms: C_7  and  C_8
    5  A    between atoms: C_8  and  N_16
    6  A    between atoms: C_12  and  N_27
    7  A    between atoms: C_12  and  C_28
    8  A    between atoms: C_17  and  C_29
    9  A    between atoms: C_21  and  C_32
                            x       y       z     vdW  Elec       q    Type
                         _______ _______ _______ _____ _____    ______ ____

>  <TORSDO>
F 9

$$$$
=
 OpenBabel11052413583D

 34 37  0  0  1  0  0  0  0  0999 V2000
  182.3500  177.6620  140.2370 C   0  0  1  0  0  3  0  0  0  0  0  0
  184.6940  178.4870  140.0150 C   0  0  0  0  0  0  0  0  0  0  0  0
  183.8680  178.5680  142.1590 C   0  0  0  0  0  2  0  0  0  0  0  0
  185.6580  179.1670  140.7190 O   0  0  0  0  0  0  0  0  0  0  0  0
  182.5260  177.2200  138.7910 C   0  0  0  0  0  0  0  0  0  0  0  0
  184.7280  178.2560  138.7440 N   0  0  0  0  0  0  0  0  0  0  0  0
  183.6610  177.5360  138.0940 C   0  0  0  0  0  0  0  0  0  0  0  0
  185.2570  179.2530  142.0850 C   0  0  2  0  0  3  0  0  0  0  0  0
  183.6280  178.0660  140.8150 N   0  0  0  0  0  0  0  0  0  0  0  0
  181.4150  179.7850  139.5140 N   0  0  0  0  0  0  0  0  0  0  0  0
  180.2670  178.6850  141.3840 C   0  0  0  0  0  0  0  0  0  0  0  0
  179.6020  180.9750  140.5340 C   0  0  0  0  0  3  0  0  0  0  0  0
  179.5240  179.9370  141.5140 N   0  0  0  0  0  0  0  0  0  0  0  0
  181.3540  178.7790  140.3400 C   0  0  0  0  0  0  0  0  0  0  0  0
  180.5090  180.8940  139.5660 C   0  0  0  0  0  3  0  0  0  0  0  0
  179.3930  177.6670  141.0510 F   0  0  0  0  0  0  0  0  0  0  0  0
  183.8890  177.1530  136.6760 C   0  0  0  0  0  0  0  0  0  0  0  0
  183.2590  177.7190  135.7430 O   0  0  0  0  0  0  0  0  0  0  0  0
  186.0610  176.2740  136.0460 N   0  0  0  0  0  0  0  0  0  0  0  0
  184.8410  176.1120  136.3940 N   0  0  0  0  0  0  0  0  0  0  0  0
  186.7050  177.5650  135.8290 C   0  0  0  0  0  2  0  0  0  0  0  0
  187.7910  177.7810  136.8660 C   0  0  0  0  0  2  0  0  0  0  0  0
  187.9960  176.5550  137.6120 N   0  0  0  0  0  1  0  0  0  0  0  0
  181.4590  174.9910  138.5650 C   0  0  0  0  0  1  0  0  0  0  0  0
  181.3820  176.4600  138.1890 C   0  0  0  0  0  2  0  0  0  0  0  0
  186.2560  178.5110  142.9550 C   0  0  0  0  0  2  0  0  0  0  0  0
  185.6650  178.2430  144.3280 C   0  0  0  0  0  2  0  0  0  0  0  0
  185.3970  178.7130  147.0990 O   0  0  0  0  0  0  0  0  0  0  0  0
  186.7300  178.0250  145.2960 N   0  0  0  0  0  0  0  0  0  0  0  0
  186.4990  178.2510  146.7000 C   0  0  0  0  0  0  0  0  0  0  0  0
  188.9360  177.9150  147.1150 C   0  0  0  0  0  2  0  0  0  0  0  0
  188.9780  177.1430  145.8050 C   0  0  0  0  0  2  0  0  0  0  0  0
  188.0860  177.8390  144.7820 C   0  0  0  0  0  2  0  0  0  0  0  0
  187.5340  177.8580  147.7100 C   0  0  0  0  0  2  0  0  0  0  0  0
  1 14  1  6  0  0  0
  1  9  1  0  0  0  0
  2  4  1  0  0  0  0
  2  9  1  0  0  0  0
  4  8  1  0  0  0  0
  5  1  1  0  0  0  0
  6  2  2  0  0  0  0
  7  6  1  0  0  0  0
  7  5  2  0  0  0  0
  8  3  1  0  0  0  0
  8 26  1  1  0  0  0
  9  3  1  0  0  0  0
 10 15  2  0  0  0  0
 10 14  1  0  0  0  0
 11 13  1  0  0  0  0
 12 13  2  0  0  0  0
 14 11  2  0  0  0  0
 15 12  1  0  0  0  0
 16 11  1  0  0  0  0
 17  7  1  0  0  0  0
 18 17  2  0  0  0  0
 19 20  2  0  0  0  0
 20 17  1  0  0  0  0
 21 19  1  0  0  0  0
 21 22  1  0  0  0  0
 22 23  1  0  0  0  0
 25 24  1  0  0  0  0
 25  5  1  0  0  0  0
 26 27  1  0  0  0  0
 27 29  1  0  0  0  0
 29 30  1  0  0  0  0
 30 28  2  0  0  0  0
 30 34  1  0  0  0  0
 31 34  1  0  0  0  0
 32 31  1  0  0  0  0
 33 29  1  0  0  0  0
 33 32  1  0  0  0  0
M  END
>  <MODEL>
9

>  <REMARK>
 VINA RESULT:      -6.5      1.897      2.493
  Name = 
  9 active torsions:
  status: ('A' for Active; 'I' for Inactive)
    1  A    between atoms: C_3  and  N_13
    2  A    between atoms: C_3  and  C_17
    3  A    between atoms: C_4  and  C_15
    4  A    between atoms: C_7  and  C_8
    5  A    between atoms: C_8  and  N_16
    6  A    between atoms: C_12  and  N_27
    7  A    between atoms: C_12  and  C_28
    8  A    between atoms: C_17  and  C_29
    9  A    between atoms: C_21  and  C_32
                            x       y       z     vdW  Elec       q    Type
                         _______ _______ _______ _____ _____    ______ ____

>  <TORSDO>
F 9

$$$$
