=
 OpenBabel11052415113D

 55 60  0  0  1  0  0  0  0  0999 V2000
  188.8120  177.4900  135.4180 C   0  0  0  0  0  2  0  0  0  0  0  0
  186.5460  176.5650  136.8830 C   0  0  2  0  0  3  0  0  0  0  0  0
  187.3870  177.6990  137.4820 C   0  0  2  0  0  3  0  0  0  0  0  0
  187.8040  176.4480  134.9470 C   0  0  0  0  0  2  0  0  0  0  0  0
  188.1170  178.4570  136.3690 C   0  0  0  0  0  2  0  0  0  0  0  0
  187.3020  175.7100  136.0450 O   0  0  0  0  0  0  0  0  0  0  0  0
  185.2550  177.0380  136.2300 C   0  0  0  0  0  2  0  0  0  0  0  0
  184.4000  177.7280  137.2740 C   0  0  0  0  0  2  0  0  0  0  0  0
  183.9370  176.7410  138.3280 C   0  0  0  0  0  2  0  0  0  0  0  0
  182.5590  176.2540  138.0350 C   0  0  0  0  0  0  0  0  0  0  0  0
  182.3570  175.0240  137.8540 O   0  0  0  0  0  0  0  0  0  0  0  0
  181.5000  177.1630  138.0010 O   0  0  0  0  0  0  0  0  0  0  0  0
  179.7770  177.0610  139.7570 C   0  0  0  0  0  2  0  0  0  0  0  0
  180.9490  177.7490  139.1750 C   0  0  1  0  0  0  0  0  0  0  0  0
  181.0780  176.9050  140.2910 O   0  0  0  0  0  0  0  0  0  0  0  0
  181.1940  179.2340  139.4820 C   0  0  1  0  0  0  0  0  0  0  0  0
  179.9960  179.7980  139.9320 O   0  0  0  0  0  1  0  0  0  0  0  0
  182.1520  179.3690  140.4770 F   0  0  0  0  0  0  0  0  0  0  0  0
  182.7470  180.7900  138.4820 F   0  0  0  0  0  0  0  0  0  0  0  0
  181.6560  179.9800  138.2230 C   0  0  2  0  0  3  0  0  0  0  0  0
  180.5050  180.7530  137.5630 C   0  0  2  0  0  3  0  0  0  0  0  0
  179.7070  179.8490  136.6290 C   0  0  0  0  0  2  0  0  0  0  0  0
  180.6740  179.3210  135.1780 S   0  0  0  0  0  1  0  0  0  0  0  0
  180.9390  182.0350  136.8440 C   0  0  0  0  0  2  0  0  0  0  0  0
  179.5540  183.4140  135.4580 O   0  0  0  0  0  1  0  0  0  0  0  0
  179.8380  183.0970  136.7890 C   0  0  2  0  0  3  0  0  0  0  0  0
  180.1760  184.3620  137.5860 C   0  0  0  0  0  3  0  0  0  0  0  0
  181.6340  184.7210  137.3960 C   0  0  0  0  0  1  0  0  0  0  0  0
  179.3310  185.5360  137.1320 C   0  0  0  0  0  1  0  0  0  0  0  0
  188.3650  177.0900  138.4710 C   0  0  0  0  0  2  0  0  0  0  0  0
  187.9850  177.3740  139.8530 N   0  0  0  0  0  2  0  0  0  0  0  0
  189.1670  177.8120  140.6080 C   0  0  2  0  0  3  0  0  0  0  0  0
  190.9510  176.7560  139.1730 C   0  0  2  0  0  3  0  0  0  0  0  0
  191.6860  177.2850  140.4000 C   0  0  0  0  0  2  0  0  0  0  0  0
  190.2780  176.7380  140.5420 C   0  0  1  0  0  3  0  0  0  0  0  0
  191.3090  175.4310  138.8570 O   0  0  0  0  0  0  0  0  0  0  0  0
  193.3930  176.2060  136.7940 C   0  0  0  0  0  0  0  0  0  0  0  0
  194.4410  176.7100  136.3050 O   0  0  0  0  0  0  0  0  0  0  0  0
  193.0200  174.8730  137.3430 C   0  0  0  0  0  2  0  0  0  0  0  0
  191.6870  175.3840  137.4970 C   0  0  2  0  0  3  0  0  0  0  0  0
  192.0500  176.6800  137.0610 O   0  0  0  0  0  0  0  0  0  0  0  0
  188.7790  178.3180  142.0190 C   0  0  1  0  0  3  0  0  0  0  0  0
  186.4480  179.1500  141.6430 C   0  0  0  0  0  2  0  0  0  0  0  0
  184.5680  178.2620  143.0320 C   0  0  0  0  0  2  0  0  0  0  0  0
  186.9860  177.9230  143.8400 C   0  0  2  0  0  3  0  0  0  0  0  0
  185.4920  177.6980  144.1160 C   0  0  0  0  0  2  0  0  0  0  0  0
  185.1700  179.5070  142.4060 C   0  0  0  0  0  2  0  0  0  0  0  0
  187.2960  178.0640  142.3320 C   0  0  2  0  0  3  0  0  0  0  0  0
  187.7340  176.8210  144.4150 N   0  0  0  0  0  1  0  0  0  0  0  0
  189.5860  177.7400  143.0080 O   0  0  0  0  0  0  0  0  0  0  0  0
  190.4250  178.7710  143.4380 C   0  0  0  0  0  2  0  0  0  0  0  0
  191.3040  177.2870  145.0760 C   0  0  0  0  0  0  0  0  0  0  0  0
  191.7990  176.8810  143.7230 O   0  0  0  0  0  0  0  0  0  0  0  0
  190.8650  176.9860  146.2890 C   0  0  0  0  0  2  0  0  0  0  0  0
  191.6580  178.1880  144.0960 C   0  0  1  0  0  3  0  0  0  0  0  0
  1  5  1  0  0  0  0
  2  7  1  6  0  0  0
  2  3  1  0  0  0  0
  3 30  1  1  0  0  0
  4  1  1  0  0  0  0
  4  6  1  0  0  0  0
  5  3  1  0  0  0  0
  6  2  1  0  0  0  0
  7  8  1  0  0  0  0
  8  9  1  0  0  0  0
 10  9  1  0  0  0  0
 11 10  2  0  0  0  0
 12 10  1  0  0  0  0
 13 15  1  0  0  0  0
 14 12  1  6  0  0  0
 14 16  1  0  0  0  0
 14 13  1  0  0  0  0
 14 15  1  0  0  0  0
 16 17  1  1  0  0  0
 16 18  1  0  0  0  0
 20 19  1  1  0  0  0
 20 16  1  0  0  0  0
 21 22  1  6  0  0  0
 21 20  1  0  0  0  0
 23 22  1  0  0  0  0
 24 21  1  0  0  0  0
 26 25  1  6  0  0  0
 26 24  1  0  0  0  0
 26 27  1  0  0  0  0
 28 27  1  0  0  0  0
 29 27  1  0  0  0  0
 30 31  1  0  0  0  0
 32 31  1  1  0  0  0
 32 42  1  0  0  0  0
 33 36  1  1  0  0  0
 33 34  1  0  0  0  0
 33 35  1  0  0  0  0
 34 35  1  0  0  0  0
 35 32  1  6  0  0  0
 37 41  1  0  0  0  0
 37 39  1  0  0  0  0
 38 37  2  0  0  0  0
 39 40  1  0  0  0  0
 40 36  1  1  0  0  0
 41 40  1  0  0  0  0
 42 50  1  1  0  0  0
 43 48  1  0  0  0  0
 43 47  1  0  0  0  0
 44 46  1  0  0  0  0
 45 46  1  0  0  0  0
 45 49  1  6  0  0  0
 47 44  1  0  0  0  0
 48 42  1  1  0  0  0
 48 45  1  0  0  0  0
 50 51  1  0  0  0  0
 52 54  2  0  0  0  0
 53 55  1  0  0  0  0
 53 52  1  0  0  0  0
 55 51  1  6  0  0  0
 55 52  1  0  0  0  0
M  END
>  <MODEL>
1

>  <REMARK>
 VINA RESULT:      -6.4      0.000      0.000
  Name = 
  24 active torsions:
  status: ('A' for Active; 'I' for Inactive)
    1  A    between atoms: C_1  and  C_29
    2  A    between atoms: C_2  and  N_28
    3  A    between atoms: C_2  and  C_31
    4  A    between atoms: C_3  and  C_29
    5  A    between atoms: C_3  and  C_38
    6  A    between atoms: C_6  and  C_14
    7  A    between atoms: C_6  and  C_20
    8  A    between atoms: C_8  and  O_22
    9  A    between atoms: C_8  and  C_35
   10  A    between atoms: C_11  and  C_38
   11  A    between atoms: C_13  and  O_48
   12  A    between atoms: C_14  and  C_38
   13  A    between atoms: C_19  and  C_40
   14  A    between atoms: C_19  and  O_45
   15  A    between atoms: C_20  and  O_22
   16  A    between atoms: C_26  and  C_49
   17  A    between atoms: C_27  and  C_54
   18  A    between atoms: N_28  and  C_33
   19  A    between atoms: C_33  and  C_49
   20  A    between atoms: C_33  and  C_52
   21  A    between atoms: C_35  and  C_51
   22  A    between atoms: C_39  and  O_48
   23  A    between atoms: O_45  and  C_49
   24  A    between atoms: C_51  and  C_54
                            x       y       z     vdW  Elec       q    Type
                         _______ _______ _______ _____ _____    ______ ____

>  <TORSDO>
F 24

$$$$
=
 OpenBabel11052415113D

 55 60  0  0  1  0  0  0  0  0999 V2000
  189.6300  177.9270  136.7600 C   0  0  0  0  0  2  0  0  0  0  0  0
  187.0300  177.2110  137.6900 C   0  0  2  0  0  3  0  0  0  0  0  0
  187.7630  178.3610  138.3900 C   0  0  2  0  0  3  0  0  0  0  0  0
  188.7100  176.8850  136.1350 C   0  0  0  0  0  2  0  0  0  0  0  0
  188.7810  178.9950  137.4380 C   0  0  0  0  0  2  0  0  0  0  0  0
  187.9180  176.2610  137.1270 O   0  0  0  0  0  0  0  0  0  0  0  0
  185.9630  177.6720  136.7070 C   0  0  0  0  0  2  0  0  0  0  0  0
  184.5960  177.4010  137.3030 C   0  0  0  0  0  2  0  0  0  0  0  0
  184.4170  175.9230  137.5890 C   0  0  0  0  0  2  0  0  0  0  0  0
  183.5230  175.2870  136.5800 C   0  0  0  0  0  0  0  0  0  0  0  0
  183.8870  174.2290  136.0020 O   0  0  0  0  0  0  0  0  0  0  0  0
  182.2750  175.8530  136.3130 O   0  0  0  0  0  0  0  0  0  0  0  0
  180.5840  174.1940  136.9860 C   0  0  0  0  0  2  0  0  0  0  0  0
  181.1180  175.5690  137.0920 C   0  0  1  0  0  0  0  0  0  0  0  0
  181.3770  174.6080  138.0820 O   0  0  0  0  0  0  0  0  0  0  0  0
  180.2020  176.7120  137.5520 C   0  0  1  0  0  0  0  0  0  0  0  0
  179.7640  177.4130  136.4230 O   0  0  0  0  0  1  0  0  0  0  0  0
  179.0950  176.2050  138.2180 F   0  0  0  0  0  0  0  0  0  0  0  0
  181.9430  177.0260  139.1980 F   0  0  0  0  0  0  0  0  0  0  0  0
  180.9570  177.6760  138.4760 C   0  0  2  0  0  3  0  0  0  0  0  0
  180.0020  178.4650  139.3840 C   0  0  2  0  0  3  0  0  0  0  0  0
  179.4640  179.7000  138.6670 C   0  0  0  0  0  2  0  0  0  0  0  0
  180.3680  181.2150  139.1210 S   0  0  0  0  0  1  0  0  0  0  0  0
  180.5930  178.8380  140.7480 C   0  0  0  0  0  2  0  0  0  0  0  0
  179.0480  177.1310  141.4120 O   0  0  0  0  0  1  0  0  0  0  0  0
  179.9960  178.0320  141.9040 C   0  0  2  0  0  3  0  0  0  0  0  0
  179.3880  178.9090  143.0030 C   0  0  0  0  0  3  0  0  0  0  0  0
  179.9000  178.4720  144.3590 C   0  0  0  0  0  1  0  0  0  0  0  0
  179.7500  180.3680  142.8020 C   0  0  0  0  0  1  0  0  0  0  0  0
  188.4390  177.8040  139.6310 C   0  0  0  0  0  2  0  0  0  0  0  0
  188.3100  178.7100  140.7710 N   0  0  0  0  0  2  0  0  0  0  0  0
  188.7650  178.0310  141.9920 C   0  0  2  0  0  3  0  0  0  0  0  0
  191.0580  177.0000  142.1760 C   0  0  2  0  0  3  0  0  0  0  0  0
  190.1140  175.9940  142.8250 C   0  0  0  0  0  2  0  0  0  0  0  0
  189.6450  176.8100  141.6360 C   0  0  1  0  0  3  0  0  0  0  0  0
  191.9470  176.3980  141.2650 O   0  0  0  0  0  0  0  0  0  0  0  0
  193.1820  176.7680  138.5200 C   0  0  0  0  0  0  0  0  0  0  0  0
  193.8570  176.5160  137.4850 O   0  0  0  0  0  0  0  0  0  0  0  0
  191.7630  176.5760  138.9280 C   0  0  0  0  0  2  0  0  0  0  0  0
  192.0920  177.2530  140.1500 C   0  0  2  0  0  3  0  0  0  0  0  0
  193.4620  177.3600  139.8120 O   0  0  0  0  0  0  0  0  0  0  0  0
  187.5880  177.7750  142.9650 C   0  0  1  0  0  3  0  0  0  0  0  0
  189.4930  178.2750  144.5100 C   0  0  0  0  0  2  0  0  0  0  0  0
  189.1390  178.2230  146.9850 C   0  0  0  0  0  2  0  0  0  0  0  0
  187.4140  177.0880  145.4520 C   0  0  2  0  0  3  0  0  0  0  0  0
  187.8350  177.4260  146.8900 C   0  0  0  0  0  2  0  0  0  0  0  0
  190.0830  177.8480  145.8560 C   0  0  0  0  0  2  0  0  0  0  0  0
  187.9660  178.0980  144.4200 C   0  0  2  0  0  3  0  0  0  0  0  0
  185.9660  177.0350  145.3930 N   0  0  0  0  0  1  0  0  0  0  0  0
  186.4500  178.5010  142.5910 O   0  0  0  0  0  0  0  0  0  0  0  0
  185.5700  177.5500  142.0670 C   0  0  0  0  0  2  0  0  0  0  0  0
  183.8920  179.0730  142.7880 C   0  0  0  0  0  0  0  0  0  0  0  0
  184.4130  179.5050  141.4520 O   0  0  0  0  0  0  0  0  0  0  0  0
  183.4470  179.3510  144.0040 C   0  0  0  0  0  2  0  0  0  0  0  0
  184.2290  178.1920  141.7840 C   0  0  1  0  0  3  0  0  0  0  0  0
  1  5  1  0  0  0  0
  2  7  1  6  0  0  0
  2  3  1  0  0  0  0
  3 30  1  1  0  0  0
  4  1  1  0  0  0  0
  4  6  1  0  0  0  0
  5  3  1  0  0  0  0
  6  2  1  0  0  0  0
  7  8  1  0  0  0  0
  8  9  1  0  0  0  0
 10  9  1  0  0  0  0
 11 10  2  0  0  0  0
 12 10  1  0  0  0  0
 13 14  1  0  0  0  0
 13 15  1  0  0  0  0
 14 12  1  6  0  0  0
 14 16  1  0  0  0  0
 14 15  1  0  0  0  0
 16 17  1  6  0  0  0
 16 18  1  0  0  0  0
 16 20  1  0  0  0  0
 20 19  1  1  0  0  0
 20 21  1  0  0  0  0
 21 22  1  6  0  0  0
 21 24  1  0  0  0  0
 22 23  1  0  0  0  0
 24 26  1  0  0  0  0
 26 25  1  6  0  0  0
 26 27  1  0  0  0  0
 27 28  1  0  0  0  0
 29 27  1  0  0  0  0
 30 31  1  0  0  0  0
 32 31  1  6  0  0  0
 32 42  1  0  0  0  0
 33 36  1  6  0  0  0
 33 34  1  0  0  0  0
 35 32  1  1  0  0  0
 35 33  1  0  0  0  0
 35 34  1  0  0  0  0
 37 39  1  0  0  0  0
 37 41  1  0  0  0  0
 38 37  2  0  0  0  0
 39 40  1  0  0  0  0
 40 36  1  1  0  0  0
 41 40  1  0  0  0  0
 42 50  1  6  0  0  0
 43 47  1  0  0  0  0
 45 49  1  1  0  0  0
 45 46  1  0  0  0  0
 46 44  1  0  0  0  0
 47 44  1  0  0  0  0
 48 42  1  6  0  0  0
 48 43  1  0  0  0  0
 48 45  1  0  0  0  0
 51 50  1  0  0  0  0
 52 54  2  0  0  0  0
 53 55  1  0  0  0  0
 53 52  1  0  0  0  0
 55 51  1  1  0  0  0
 55 52  1  0  0  0  0
M  END
>  <MODEL>
2

>  <REMARK>
 VINA RESULT:      -6.1      2.442      4.302
  Name = 
  24 active torsions:
  status: ('A' for Active; 'I' for Inactive)
    1  A    between atoms: C_1  and  C_29
    2  A    between atoms: C_2  and  N_28
    3  A    between atoms: C_2  and  C_31
    4  A    between atoms: C_3  and  C_29
    5  A    between atoms: C_3  and  C_38
    6  A    between atoms: C_6  and  C_14
    7  A    between atoms: C_6  and  C_20
    8  A    between atoms: C_8  and  O_22
    9  A    between atoms: C_8  and  C_35
   10  A    between atoms: C_11  and  C_38
   11  A    between atoms: C_13  and  O_48
   12  A    between atoms: C_14  and  C_38
   13  A    between atoms: C_19  and  C_40
   14  A    between atoms: C_19  and  O_45
   15  A    between atoms: C_20  and  O_22
   16  A    between atoms: C_26  and  C_49
   17  A    between atoms: C_27  and  C_54
   18  A    between atoms: N_28  and  C_33
   19  A    between atoms: C_33  and  C_49
   20  A    between atoms: C_33  and  C_52
   21  A    between atoms: C_35  and  C_51
   22  A    between atoms: C_39  and  O_48
   23  A    between atoms: O_45  and  C_49
   24  A    between atoms: C_51  and  C_54
                            x       y       z     vdW  Elec       q    Type
                         _______ _______ _______ _____ _____    ______ ____

>  <TORSDO>
F 24

$$$$
=
 OpenBabel11052415113D

 55 60  0  0  1  0  0  0  0  0999 V2000
  184.5800  178.1760  139.8840 C   0  0  0  0  0  2  0  0  0  0  0  0
  185.0800  178.4010  142.6830 C   0  0  2  0  0  3  0  0  0  0  0  0
  186.0970  179.0100  141.7100 C   0  0  2  0  0  3  0  0  0  0  0  0
  183.6460  177.7250  141.0000 C   0  0  0  0  0  2  0  0  0  0  0  0
  185.4170  179.3480  140.3810 C   0  0  0  0  0  2  0  0  0  0  0  0
  184.3870  177.2970  142.1270 O   0  0  0  0  0  0  0  0  0  0  0  0
  184.1460  179.4240  143.3140 C   0  0  0  0  0  2  0  0  0  0  0  0
  183.1910  178.7080  144.2470 C   0  0  0  0  0  2  0  0  0  0  0  0
  181.8520  179.4160  144.2950 C   0  0  0  0  0  2  0  0  0  0  0  0
  180.8080  178.6370  143.5700 C   0  0  0  0  0  0  0  0  0  0  0  0
  179.9590  177.9730  144.2210 O   0  0  0  0  0  0  0  0  0  0  0  0
  180.7600  178.6830  142.1750 O   0  0  0  0  0  0  0  0  0  0  0  0
  178.9310  180.3190  141.9750 C   0  0  0  0  0  2  0  0  0  0  0  0
  180.2080  179.7810  141.4580 C   0  0  1  0  0  0  0  0  0  0  0  0
  180.1700  180.9490  142.2370 O   0  0  0  0  0  0  0  0  0  0  0  0
  180.6000  180.0180  139.9930 C   0  0  1  0  0  0  0  0  0  0  0  0
  180.1450  181.2840  139.6110 O   0  0  0  0  0  1  0  0  0  0  0  0
  181.9800  179.9800  139.8500 F   0  0  0  0  0  0  0  0  0  0  0  0
  179.2720  178.0090  139.8080 F   0  0  0  0  0  0  0  0  0  0  0  0
  179.9630  178.9620  139.0810 C   0  0  2  0  0  3  0  0  0  0  0  0
  180.9910  178.3310  138.1300 C   0  0  2  0  0  3  0  0  0  0  0  0
  181.3770  179.3050  137.0220 C   0  0  0  0  0  2  0  0  0  0  0  0
  179.9900  179.6620  135.8960 S   0  0  0  0  0  1  0  0  0  0  0  0
  180.5640  176.9800  137.5470 C   0  0  0  0  0  2  0  0  0  0  0  0
  181.4940  175.7570  139.3850 O   0  0  0  0  0  1  0  0  0  0  0  0
  181.4610  175.8220  137.9900 C   0  0  2  0  0  3  0  0  0  0  0  0
  182.8800  175.9030  137.4190 C   0  0  0  0  0  3  0  0  0  0  0  0
  183.6630  174.6630  137.7940 C   0  0  0  0  0  1  0  0  0  0  0  0
  182.8560  176.0150  135.9060 C   0  0  0  0  0  1  0  0  0  0  0  0
  187.2230  178.0100  141.5170 C   0  0  0  0  0  2  0  0  0  0  0  0
  188.0680  178.3590  140.3770 N   0  0  0  0  0  2  0  0  0  0  0  0
  189.1310  177.3570  140.2270 C   0  0  2  0  0  3  0  0  0  0  0  0
  190.6440  176.9220  142.1970 C   0  0  2  0  0  3  0  0  0  0  0  0
  191.5400  176.7980  140.9690 C   0  0  0  0  0  2  0  0  0  0  0  0
  190.4070  177.8060  140.9770 C   0  0  1  0  0  3  0  0  0  0  0  0
  191.2130  177.7260  143.2030 O   0  0  0  0  0  0  0  0  0  0  0  0
  189.4330  177.3740  145.6340 C   0  0  0  0  0  0  0  0  0  0  0  0
  188.9340  176.8480  146.6650 O   0  0  0  0  0  0  0  0  0  0  0  0
  190.5330  178.3420  145.3680 C   0  0  0  0  0  2  0  0  0  0  0  0
  190.1690  178.2740  143.9810 C   0  0  2  0  0  3  0  0  0  0  0  0
  189.1820  177.2860  144.2090 O   0  0  0  0  0  0  0  0  0  0  0  0
  189.3100  176.9420  138.7460 C   0  0  1  0  0  3  0  0  0  0  0  0
  187.4560  175.9780  137.3690 C   0  0  0  0  0  2  0  0  0  0  0  0
  186.0750  177.4720  135.9150 C   0  0  0  0  0  2  0  0  0  0  0  0
  188.3400  178.3230  136.7870 C   0  0  2  0  0  3  0  0  0  0  0  0
  187.0900  178.6190  135.9460 C   0  0  0  0  0  2  0  0  0  0  0  0
  186.7780  176.1290  136.0050 C   0  0  0  0  0  2  0  0  0  0  0  0
  188.0730  177.2850  137.9010 C   0  0  2  0  0  3  0  0  0  0  0  0
  188.8240  179.5680  137.3520 N   0  0  0  0  0  1  0  0  0  0  0  0
  190.4530  177.5300  138.1870 O   0  0  0  0  0  0  0  0  0  0  0  0
  190.9980  176.5450  137.3590 C   0  0  0  0  0  2  0  0  0  0  0  0
  190.7460  174.1840  137.2320 C   0  0  0  0  0  0  0  0  0  0  0  0
  192.1310  174.5100  137.6980 O   0  0  0  0  0  0  0  0  0  0  0  0
  189.9040  173.4450  136.5240 C   0  0  0  0  0  2  0  0  0  0  0  0
  191.0330  175.2210  138.0920 C   0  0  1  0  0  3  0  0  0  0  0  0
  1  5  1  0  0  0  0
  1  4  1  0  0  0  0
  2  7  1  6  0  0  0
  3 30  1  6  0  0  0
  3  2  1  0  0  0  0
  4  6  1  0  0  0  0
  5  3  1  0  0  0  0
  6  2  1  0  0  0  0
  7  8  1  0  0  0  0
  8  9  1  0  0  0  0
 10 11  2  0  0  0  0
 10  9  1  0  0  0  0
 12 10  1  0  0  0  0
 13 15  1  0  0  0  0
 14 13  1  0  0  0  0
 14 12  1  1  0  0  0
 14 15  1  0  0  0  0
 16 17  1  6  0  0  0
 16 14  1  0  0  0  0
 18 16  1  0  0  0  0
 20 19  1  1  0  0  0
 20 16  1  0  0  0  0
 21 22  1  6  0  0  0
 21 20  1  0  0  0  0
 23 22  1  0  0  0  0
 24 26  1  0  0  0  0
 24 21  1  0  0  0  0
 26 25  1  1  0  0  0
 27 28  1  0  0  0  0
 27 26  1  0  0  0  0
 29 27  1  0  0  0  0
 31 30  1  0  0  0  0
 32 31  1  6  0  0  0
 33 36  1  1  0  0  0
 34 35  1  0  0  0  0
 34 33  1  0  0  0  0
 35 32  1  6  0  0  0
 35 33  1  0  0  0  0
 37 38  2  0  0  0  0
 39 37  1  0  0  0  0
 40 36  1  6  0  0  0
 40 41  1  0  0  0  0
 40 39  1  0  0  0  0
 41 37  1  0  0  0  0
 42 50  1  6  0  0  0
 42 32  1  0  0  0  0
 43 48  1  0  0  0  0
 44 46  1  0  0  0  0
 44 47  1  0  0  0  0
 45 49  1  1  0  0  0
 45 48  1  0  0  0  0
 46 45  1  0  0  0  0
 47 43  1  0  0  0  0
 48 42  1  6  0  0  0
 51 50  1  0  0  0  0
 52 53  1  0  0  0  0
 52 55  1  0  0  0  0
 53 55  1  0  0  0  0
 54 52  2  0  0  0  0
 55 51  1  6  0  0  0
M  END
>  <MODEL>
3

>  <REMARK>
 VINA RESULT:      -6.0      2.288      6.320
  Name = 
  24 active torsions:
  status: ('A' for Active; 'I' for Inactive)
    1  A    between atoms: C_1  and  C_29
    2  A    between atoms: C_2  and  N_28
    3  A    between atoms: C_2  and  C_31
    4  A    between atoms: C_3  and  C_29
    5  A    between atoms: C_3  and  C_38
    6  A    between atoms: C_6  and  C_14
    7  A    between atoms: C_6  and  C_20
    8  A    between atoms: C_8  and  O_22
    9  A    between atoms: C_8  and  C_35
   10  A    between atoms: C_11  and  C_38
   11  A    between atoms: C_13  and  O_48
   12  A    between atoms: C_14  and  C_38
   13  A    between atoms: C_19  and  C_40
   14  A    between atoms: C_19  and  O_45
   15  A    between atoms: C_20  and  O_22
   16  A    between atoms: C_26  and  C_49
   17  A    between atoms: C_27  and  C_54
   18  A    between atoms: N_28  and  C_33
   19  A    between atoms: C_33  and  C_49
   20  A    between atoms: C_33  and  C_52
   21  A    between atoms: C_35  and  C_51
   22  A    between atoms: C_39  and  O_48
   23  A    between atoms: O_45  and  C_49
   24  A    between atoms: C_51  and  C_54
                            x       y       z     vdW  Elec       q    Type
                         _______ _______ _______ _____ _____    ______ ____

>  <TORSDO>
F 24

$$$$
=
 OpenBabel11052415113D

 55 60  0  0  1  0  0  0  0  0999 V2000
  188.9860  177.7190  135.7080 C   0  0  0  0  0  2  0  0  0  0  0  0
  186.5570  176.5150  136.5960 C   0  0  2  0  0  3  0  0  0  0  0  0
  187.1030  177.7150  137.3780 C   0  0  2  0  0  3  0  0  0  0  0  0
  188.2380  176.5880  135.0110 C   0  0  0  0  0  2  0  0  0  0  0  0
  187.9850  178.5780  136.4710 C   0  0  0  0  0  2  0  0  0  0  0  0
  187.5780  175.7700  135.9570 O   0  0  0  0  0  0  0  0  0  0  0  0
  185.4100  176.8650  135.6580 C   0  0  0  0  0  2  0  0  0  0  0  0
  184.1190  176.8920  136.4500 C   0  0  0  0  0  2  0  0  0  0  0  0
  183.8720  175.5560  137.1230 C   0  0  0  0  0  2  0  0  0  0  0  0
  182.7960  174.7960  136.4250 C   0  0  0  0  0  0  0  0  0  0  0  0
  183.0450  173.6570  135.9480 O   0  0  0  0  0  0  0  0  0  0  0  0
  181.5130  175.3400  136.3380 O   0  0  0  0  0  0  0  0  0  0  0  0
  179.7300  173.9110  137.2550 C   0  0  0  0  0  2  0  0  0  0  0  0
  180.5280  175.1530  137.3470 C   0  0  1  0  0  0  0  0  0  0  0  0
  180.8120  174.0410  138.1570 O   0  0  0  0  0  0  0  0  0  0  0  0
  179.9740  176.3620  138.1160 C   0  0  1  0  0  0  0  0  0  0  0  0
  179.2570  177.1650  137.2230 O   0  0  0  0  0  1  0  0  0  0  0  0
  179.1160  175.9420  139.1230 F   0  0  0  0  0  0  0  0  0  0  0  0
  181.6420  176.5760  139.8490 F   0  0  0  0  0  0  0  0  0  0  0  0
  181.1130  177.1870  138.7260 C   0  0  2  0  0  3  0  0  0  0  0  0
  180.6850  178.6360  139.0040 C   0  0  2  0  0  3  0  0  0  0  0  0
  181.8990  179.5540  139.0990 C   0  0  0  0  0  2  0  0  0  0  0  0
  181.5760  181.2090  138.4090 S   0  0  0  0  0  1  0  0  0  0  0  0
  179.7770  178.8000  140.2270 C   0  0  0  0  0  2  0  0  0  0  0  0
  179.5040  177.2820  142.0600 O   0  0  0  0  0  1  0  0  0  0  0  0
  180.3810  178.2190  141.5080 C   0  0  2  0  0  3  0  0  0  0  0  0
  180.7510  179.2880  142.5420 C   0  0  0  0  0  3  0  0  0  0  0  0
  179.6730  180.3480  142.6020 C   0  0  0  0  0  1  0  0  0  0  0  0
  180.9050  178.6810  143.9240 C   0  0  0  0  0  1  0  0  0  0  0  0
  187.8840  177.1860  138.5690 C   0  0  0  0  0  2  0  0  0  0  0  0
  187.7470  178.0550  139.7360 N   0  0  0  0  0  2  0  0  0  0  0  0
  188.9810  178.0100  140.5310 C   0  0  2  0  0  3  0  0  0  0  0  0
  190.6890  176.8030  139.1230 C   0  0  2  0  0  3  0  0  0  0  0  0
  191.2200  176.7250  140.5500 C   0  0  0  0  0  2  0  0  0  0  0  0
  189.7250  176.6740  140.2980 C   0  0  1  0  0  3  0  0  0  0  0  0
  190.7260  175.5600  138.4630 O   0  0  0  0  0  0  0  0  0  0  0  0
  193.5860  175.5620  137.4550 C   0  0  0  0  0  0  0  0  0  0  0  0
  194.8460  175.5070  137.4760 O   0  0  0  0  0  0  0  0  0  0  0  0
  192.4890  174.5730  137.2600 C   0  0  0  0  0  2  0  0  0  0  0  0
  191.5720  175.6760  137.3390 C   0  0  2  0  0  3  0  0  0  0  0  0
  192.5980  176.6100  137.6140 O   0  0  0  0  0  0  0  0  0  0  0  0
  188.7170  178.4060  142.0040 C   0  0  1  0  0  3  0  0  0  0  0  0
  186.3640  179.2540  141.8980 C   0  0  0  0  0  2  0  0  0  0  0  0
  184.6090  178.2520  143.3710 C   0  0  0  0  0  2  0  0  0  0  0  0
  187.0870  177.8620  143.9370 C   0  0  2  0  0  3  0  0  0  0  0  0
  185.6230  177.6100  144.3230 C   0  0  0  0  0  2  0  0  0  0  0  0
  185.1580  179.5450  142.7930 C   0  0  0  0  0  2  0  0  0  0  0  0
  187.2660  178.1210  142.4230 C   0  0  2  0  0  3  0  0  0  0  0  0
  187.8800  176.7220  144.3580 N   0  0  0  0  0  1  0  0  0  0  0  0
  189.6050  177.7580  142.8730 O   0  0  0  0  0  0  0  0  0  0  0  0
  190.3760  178.7810  143.4310 C   0  0  0  0  0  2  0  0  0  0  0  0
  191.3100  177.3100  145.0490 C   0  0  0  0  0  0  0  0  0  0  0  0
  191.7540  176.8890  143.6830 O   0  0  0  0  0  0  0  0  0  0  0  0
  190.9140  177.0200  146.2800 C   0  0  0  0  0  2  0  0  0  0  0  0
  191.6300  178.2000  144.0480 C   0  0  1  0  0  3  0  0  0  0  0  0
  1  5  1  0  0  0  0
  2  7  1  6  0  0  0
  2  3  1  0  0  0  0
  3 30  1  1  0  0  0
  4  1  1  0  0  0  0
  4  6  1  0  0  0  0
  5  3  1  0  0  0  0
  6  2  1  0  0  0  0
  7  8  1  0  0  0  0
  8  9  1  0  0  0  0
 10  9  1  0  0  0  0
 11 10  2  0  0  0  0
 12 10  1  0  0  0  0
 13 14  1  0  0  0  0
 13 15  1  0  0  0  0
 14 12  1  6  0  0  0
 14 16  1  0  0  0  0
 14 15  1  0  0  0  0
 16 17  1  6  0  0  0
 16 20  1  0  0  0  0
 16 18  1  0  0  0  0
 20 21  1  0  0  0  0
 20 19  1  1  0  0  0
 21 22  1  1  0  0  0
 21 24  1  0  0  0  0
 23 22  1  0  0  0  0
 24 26  1  0  0  0  0
 26 25  1  1  0  0  0
 26 27  1  0  0  0  0
 27 28  1  0  0  0  0
 27 29  1  0  0  0  0
 30 31  1  0  0  0  0
 32 31  1  6  0  0  0
 32 42  1  0  0  0  0
 33 36  1  6  0  0  0
 33 35  1  0  0  0  0
 33 34  1  0  0  0  0
 35 32  1  1  0  0  0
 35 34  1  0  0  0  0
 37 38  2  0  0  0  0
 37 41  1  0  0  0  0
 39 40  1  0  0  0  0
 39 37  1  0  0  0  0
 40 41  1  0  0  0  0
 40 36  1  1  0  0  0
 42 50  1  1  0  0  0
 43 48  1  0  0  0  0
 43 47  1  0  0  0  0
 44 46  1  0  0  0  0
 45 46  1  0  0  0  0
 45 49  1  6  0  0  0
 47 44  1  0  0  0  0
 48 42  1  1  0  0  0
 48 45  1  0  0  0  0
 50 51  1  0  0  0  0
 52 54  2  0  0  0  0
 53 55  1  0  0  0  0
 53 52  1  0  0  0  0
 55 51  1  6  0  0  0
 55 52  1  0  0  0  0
M  END
>  <MODEL>
4

>  <REMARK>
 VINA RESULT:      -5.9      2.280      3.097
  Name = 
  24 active torsions:
  status: ('A' for Active; 'I' for Inactive)
    1  A    between atoms: C_1  and  C_29
    2  A    between atoms: C_2  and  N_28
    3  A    between atoms: C_2  and  C_31
    4  A    between atoms: C_3  and  C_29
    5  A    between atoms: C_3  and  C_38
    6  A    between atoms: C_6  and  C_14
    7  A    between atoms: C_6  and  C_20
    8  A    between atoms: C_8  and  O_22
    9  A    between atoms: C_8  and  C_35
   10  A    between atoms: C_11  and  C_38
   11  A    between atoms: C_13  and  O_48
   12  A    between atoms: C_14  and  C_38
   13  A    between atoms: C_19  and  C_40
   14  A    between atoms: C_19  and  O_45
   15  A    between atoms: C_20  and  O_22
   16  A    between atoms: C_26  and  C_49
   17  A    between atoms: C_27  and  C_54
   18  A    between atoms: N_28  and  C_33
   19  A    between atoms: C_33  and  C_49
   20  A    between atoms: C_33  and  C_52
   21  A    between atoms: C_35  and  C_51
   22  A    between atoms: C_39  and  O_48
   23  A    between atoms: O_45  and  C_49
   24  A    between atoms: C_51  and  C_54
                            x       y       z     vdW  Elec       q    Type
                         _______ _______ _______ _____ _____    ______ ____

>  <TORSDO>
F 24

$$$$
=
 OpenBabel11052415113D

 55 60  0  0  1  0  0  0  0  0999 V2000
  191.6190  175.9990  143.4280 C   0  0  0  0  0  2  0  0  0  0  0  0
  189.8510  178.0700  142.5810 C   0  0  2  0  0  3  0  0  0  0  0  0
  189.7110  176.6860  141.9380 C   0  0  2  0  0  3  0  0  0  0  0  0
  191.5370  177.4030  144.0140 C   0  0  0  0  0  2  0  0  0  0  0  0
  190.2500  175.6090  142.8840 C   0  0  0  0  0  2  0  0  0  0  0  0
  191.1720  178.3380  143.0170 O   0  0  0  0  0  0  0  0  0  0  0  0
  188.8080  178.3580  143.6520 C   0  0  0  0  0  2  0  0  0  0  0  0
  187.9220  177.1390  143.8140 C   0  0  0  0  0  2  0  0  0  0  0  0
  186.4670  177.5450  143.9410 C   0  0  0  0  0  2  0  0  0  0  0  0
  186.0550  178.4230  142.8090 C   0  0  0  0  0  0  0  0  0  0  0  0
  186.6060  178.2900  141.6830 O   0  0  0  0  0  0  0  0  0  0  0  0
  185.0370  179.3590  142.9980 O   0  0  0  0  0  0  0  0  0  0  0  0
  182.9000  178.6650  144.0060 C   0  0  0  0  0  2  0  0  0  0  0  0
  183.6620  179.0520  142.7990 C   0  0  1  0  0  0  0  0  0  0  0  0
  182.8210  179.9650  143.4550 O   0  0  0  0  0  0  0  0  0  0  0  0
  183.1610  178.6260  141.4100 C   0  0  1  0  0  0  0  0  0  0  0  0
  183.6650  179.5230  140.4630 O   0  0  0  0  0  1  0  0  0  0  0  0
  183.6170  177.3520  141.1030 F   0  0  0  0  0  0  0  0  0  0  0  0
  181.1060  177.3830  141.1530 F   0  0  0  0  0  0  0  0  0  0  0  0
  181.6290  178.6480  141.3540 C   0  0  2  0  0  3  0  0  0  0  0  0
  181.1090  179.6590  140.3200 C   0  0  2  0  0  3  0  0  0  0  0  0
  179.9640  180.4860  140.8950 C   0  0  0  0  0  2  0  0  0  0  0  0
  179.5860  180.0440  142.6220 S   0  0  0  0  0  1  0  0  0  0  0  0
  180.7140  179.0380  138.9760 C   0  0  0  0  0  2  0  0  0  0  0  0
  181.6860  180.8500  137.7470 O   0  0  0  0  0  1  0  0  0  0  0  0
  181.6320  179.4560  137.8250 C   0  0  2  0  0  3  0  0  0  0  0  0
  181.2260  178.8540  136.4760 C   0  0  0  0  0  3  0  0  0  0  0  0
  181.1130  177.3490  136.5920 C   0  0  0  0  0  1  0  0  0  0  0  0
  179.8890  179.4010  136.0140 C   0  0  0  0  0  1  0  0  0  0  0  0
  190.4700  176.6960  140.6230 C   0  0  0  0  0  2  0  0  0  0  0  0
  189.6610  176.1670  139.5260 N   0  0  0  0  0  2  0  0  0  0  0  0
  190.2460  176.5760  138.2420 C   0  0  2  0  0  3  0  0  0  0  0  0
  188.0120  177.6900  137.8890 C   0  0  2  0  0  3  0  0  0  0  0  0
  188.8180  178.6690  138.7370 C   0  0  0  0  0  2  0  0  0  0  0  0
  189.5180  177.8240  137.6900 C   0  0  1  0  0  3  0  0  0  0  0  0
  187.3800  178.3130  136.7960 O   0  0  0  0  0  0  0  0  0  0  0  0
  184.7890  176.8500  137.3850 C   0  0  0  0  0  0  0  0  0  0  0  0
  183.9890  175.8930  137.5690 O   0  0  0  0  0  0  0  0  0  0  0  0
  185.6500  177.6910  138.2620 C   0  0  0  0  0  2  0  0  0  0  0  0
  186.0040  178.4370  137.0870 C   0  0  2  0  0  3  0  0  0  0  0  0
  185.2620  177.5890  136.2310 O   0  0  0  0  0  0  0  0  0  0  0  0
  190.3830  175.3720  137.2780 C   0  0  1  0  0  3  0  0  0  0  0  0
  192.7590  175.9000  137.8650 C   0  0  0  0  0  2  0  0  0  0  0  0
  194.6050  175.2320  136.3160 C   0  0  0  0  0  2  0  0  0  0  0  0
  192.1910  175.2920  135.4300 C   0  0  2  0  0  3  0  0  0  0  0  0
  193.6710  175.0240  135.1200 C   0  0  0  0  0  2  0  0  0  0  0  0
  194.0800  176.3300  137.2240 C   0  0  0  0  0  2  0  0  0  0  0  0
  191.8510  175.0850  136.9240 C   0  0  2  0  0  3  0  0  0  0  0  0
  191.3780  174.4280  134.5960 N   0  0  0  0  0  1  0  0  0  0  0  0
  189.7820  174.2230  137.8080 O   0  0  0  0  0  0  0  0  0  0  0  0
  189.0160  173.7000  136.7620 C   0  0  0  0  0  2  0  0  0  0  0  0
  186.9080  172.6040  136.6680 C   0  0  0  0  0  0  0  0  0  0  0  0
  187.9870  171.6340  136.3010 O   0  0  0  0  0  0  0  0  0  0  0  0
  185.6880  173.0960  136.5100 C   0  0  0  0  0  2  0  0  0  0  0  0
  188.1420  172.5770  137.2780 C   0  0  1  0  0  3  0  0  0  0  0  0
  1  4  1  0  0  0  0
  2  6  1  0  0  0  0
  2  7  1  1  0  0  0
  3 30  1  6  0  0  0
  3  2  1  0  0  0  0
  3  5  1  0  0  0  0
  5  1  1  0  0  0  0
  6  4  1  0  0  0  0
  7  8  1  0  0  0  0
  8  9  1  0  0  0  0
 10 12  1  0  0  0  0
 10  9  1  0  0  0  0
 11 10  2  0  0  0  0
 14 12  1  1  0  0  0
 14 15  1  0  0  0  0
 14 13  1  0  0  0  0
 15 13  1  0  0  0  0
 16 17  1  6  0  0  0
 16 14  1  0  0  0  0
 18 16  1  0  0  0  0
 20 19  1  6  0  0  0
 20 16  1  0  0  0  0
 21 24  1  6  0  0  0
 21 22  1  0  0  0  0
 21 20  1  0  0  0  0
 22 23  1  0  0  0  0
 26 25  1  6  0  0  0
 26 24  1  0  0  0  0
 27 28  1  0  0  0  0
 27 26  1  0  0  0  0
 29 27  1  0  0  0  0
 31 30  1  0  0  0  0
 32 31  1  1  0  0  0
 33 36  1  6  0  0  0
 33 34  1  0  0  0  0
 35 33  1  0  0  0  0
 35 32  1  1  0  0  0
 35 34  1  0  0  0  0
 37 38  2  0  0  0  0
 37 39  1  0  0  0  0
 40 36  1  6  0  0  0
 40 39  1  0  0  0  0
 41 40  1  0  0  0  0
 41 37  1  0  0  0  0
 42 50  1  1  0  0  0
 42 32  1  0  0  0  0
 44 47  1  0  0  0  0
 45 49  1  6  0  0  0
 45 48  1  0  0  0  0
 46 45  1  0  0  0  0
 46 44  1  0  0  0  0
 47 43  1  0  0  0  0
 48 42  1  6  0  0  0
 48 43  1  0  0  0  0
 51 50  1  0  0  0  0
 52 55  1  0  0  0  0
 53 52  1  0  0  0  0
 53 55  1  0  0  0  0
 54 52  2  0  0  0  0
 55 51  1  6  0  0  0
M  END
>  <MODEL>
5

>  <REMARK>
 VINA RESULT:      -5.8      2.742      7.172
  Name = 
  24 active torsions:
  status: ('A' for Active; 'I' for Inactive)
    1  A    between atoms: C_1  and  C_29
    2  A    between atoms: C_2  and  N_28
    3  A    between atoms: C_2  and  C_31
    4  A    between atoms: C_3  and  C_29
    5  A    between atoms: C_3  and  C_38
    6  A    between atoms: C_6  and  C_14
    7  A    between atoms: C_6  and  C_20
    8  A    between atoms: C_8  and  O_22
    9  A    between atoms: C_8  and  C_35
   10  A    between atoms: C_11  and  C_38
   11  A    between atoms: C_13  and  O_48
   12  A    between atoms: C_14  and  C_38
   13  A    between atoms: C_19  and  C_40
   14  A    between atoms: C_19  and  O_45
   15  A    between atoms: C_20  and  O_22
   16  A    between atoms: C_26  and  C_49
   17  A    between atoms: C_27  and  C_54
   18  A    between atoms: N_28  and  C_33
   19  A    between atoms: C_33  and  C_49
   20  A    between atoms: C_33  and  C_52
   21  A    between atoms: C_35  and  C_51
   22  A    between atoms: C_39  and  O_48
   23  A    between atoms: O_45  and  C_49
   24  A    between atoms: C_51  and  C_54
                            x       y       z     vdW  Elec       q    Type
                         _______ _______ _______ _____ _____    ______ ____

>  <TORSDO>
F 24

$$$$
=
 OpenBabel11052415113D

 55 60  0  0  1  0  0  0  0  0999 V2000
  189.3820  178.0570  137.1070 C   0  0  0  0  0  2  0  0  0  0  0  0
  186.9370  177.4640  138.4500 C   0  0  2  0  0  3  0  0  0  0  0  0
  187.8170  178.5900  139.0040 C   0  0  2  0  0  3  0  0  0  0  0  0
  188.3330  177.0470  136.6560 C   0  0  0  0  0  2  0  0  0  0  0  0
  188.6950  179.1680  137.8900 C   0  0  0  0  0  2  0  0  0  0  0  0
  187.6850  176.4700  137.7730 O   0  0  0  0  0  0  0  0  0  0  0  0
  185.7460  177.9580  137.6400 C   0  0  0  0  0  2  0  0  0  0  0  0
  184.7900  178.6840  138.5650 C   0  0  0  0  0  2  0  0  0  0  0  0
  183.5270  177.8730  138.7770 C   0  0  0  0  0  2  0  0  0  0  0  0
  182.3530  178.5350  138.1390 C   0  0  0  0  0  0  0  0  0  0  0  0
  182.3140  179.7910  138.0540 O   0  0  0  0  0  0  0  0  0  0  0  0
  181.3260  177.7520  137.6080 O   0  0  0  0  0  0  0  0  0  0  0  0
  181.8080  177.9810  135.2040 C   0  0  0  0  0  2  0  0  0  0  0  0
  181.4190  177.1160  136.3390 C   0  0  1  0  0  0  0  0  0  0  0  0
  182.7340  177.1240  135.8440 O   0  0  0  0  0  0  0  0  0  0  0  0
  180.6600  175.8070  136.0770 C   0  0  1  0  0  0  0  0  0  0  0  0
  179.3540  175.9470  136.5600 O   0  0  0  0  0  1  0  0  0  0  0  0
  180.6040  175.5460  134.7140 F   0  0  0  0  0  0  0  0  0  0  0  0
  182.1630  175.0660  137.8160 F   0  0  0  0  0  0  0  0  0  0  0  0
  181.3350  174.6320  136.7950 C   0  0  2  0  0  3  0  0  0  0  0  0
  182.0660  173.7050  135.8130 C   0  0  2  0  0  3  0  0  0  0  0  0
  181.0870  172.7530  135.1330 C   0  0  0  0  0  2  0  0  0  0  0  0
  181.1450  171.0740  135.8410 S   0  0  0  0  0  1  0  0  0  0  0  0
  183.2400  172.9360  136.4280 C   0  0  0  0  0  2  0  0  0  0  0  0
  184.9770  171.6840  135.3520 O   0  0  0  0  0  1  0  0  0  0  0  0
  184.5060  172.9820  135.5690 C   0  0  2  0  0  3  0  0  0  0  0  0
  185.6090  173.8650  136.1630 C   0  0  0  0  0  3  0  0  0  0  0  0
  186.1180  173.2620  137.4540 C   0  0  0  0  0  1  0  0  0  0  0  0
  186.7760  174.0010  135.2040 C   0  0  0  0  0  1  0  0  0  0  0  0
  188.6590  178.0210  140.1330 C   0  0  0  0  0  2  0  0  0  0  0  0
  188.4190  178.7200  141.3930 N   0  0  0  0  0  2  0  0  0  0  0  0
  188.8800  177.8870  142.5130 C   0  0  2  0  0  3  0  0  0  0  0  0
  191.0940  176.8670  141.8700 C   0  0  2  0  0  3  0  0  0  0  0  0
  190.5430  175.9660  142.9710 C   0  0  0  0  0  2  0  0  0  0  0  0
  189.5930  176.6210  141.9850 C   0  0  1  0  0  3  0  0  0  0  0  0
  191.5620  176.1390  140.7600 O   0  0  0  0  0  0  0  0  0  0  0  0
  193.2320  176.6170  138.2740 C   0  0  0  0  0  0  0  0  0  0  0  0
  194.0530  176.3970  137.3420 O   0  0  0  0  0  0  0  0  0  0  0  0
  191.7590  176.4700  138.4400 C   0  0  0  0  0  2  0  0  0  0  0  0
  191.9160  177.0530  139.7430 C   0  0  2  0  0  3  0  0  0  0  0  0
  193.3250  177.1130  139.6320 O   0  0  0  0  0  0  0  0  0  0  0  0
  187.7530  177.6650  143.5510 C   0  0  1  0  0  3  0  0  0  0  0  0
  189.7340  177.6970  145.0810 C   0  0  0  0  0  2  0  0  0  0  0  0
  189.4010  177.9480  147.5470 C   0  0  0  0  0  2  0  0  0  0  0  0
  187.4040  177.2590  146.0810 C   0  0  2  0  0  3  0  0  0  0  0  0
  187.9180  177.5690  147.4940 C   0  0  0  0  0  2  0  0  0  0  0  0
  190.1820  177.2230  146.4650 C   0  0  0  0  0  2  0  0  0  0  0  0
  188.2220  177.9750  144.9810 C   0  0  2  0  0  3  0  0  0  0  0  0
  186.0050  177.6330  146.0040 N   0  0  0  0  0  1  0  0  0  0  0  0
  186.6170  178.4240  143.2410 O   0  0  0  0  0  0  0  0  0  0  0  0
  185.7260  177.5200  142.6580 C   0  0  0  0  0  2  0  0  0  0  0  0
  183.9490  178.9880  143.2460 C   0  0  0  0  0  0  0  0  0  0  0  0
  184.7350  179.5860  142.1210 O   0  0  0  0  0  0  0  0  0  0  0  0
  183.2680  179.1050  144.3760 C   0  0  0  0  0  2  0  0  0  0  0  0
  184.4760  178.2480  142.2100 C   0  0  1  0  0  3  0  0  0  0  0  0
  1  5  1  0  0  0  0
  2  7  1  6  0  0  0
  2  3  1  0  0  0  0
  3 30  1  1  0  0  0
  4  1  1  0  0  0  0
  4  6  1  0  0  0  0
  5  3  1  0  0  0  0
  6  2  1  0  0  0  0
  7  8  1  0  0  0  0
  8  9  1  0  0  0  0
 10  9  1  0  0  0  0
 11 10  2  0  0  0  0
 12 10  1  0  0  0  0
 13 15  1  0  0  0  0
 13 14  1  0  0  0  0
 14 12  1  1  0  0  0
 15 14  1  0  0  0  0
 16 18  1  6  0  0  0
 16 14  1  0  0  0  0
 16 17  1  0  0  0  0
 16 20  1  0  0  0  0
 20 19  1  1  0  0  0
 21 22  1  1  0  0  0
 21 24  1  0  0  0  0
 21 20  1  0  0  0  0
 22 23  1  0  0  0  0
 26 25  1  1  0  0  0
 26 27  1  0  0  0  0
 26 24  1  0  0  0  0
 27 28  1  0  0  0  0
 29 27  1  0  0  0  0
 30 31  1  0  0  0  0
 32 31  1  6  0  0  0
 32 42  1  0  0  0  0
 33 36  1  6  0  0  0
 33 35  1  0  0  0  0
 33 34  1  0  0  0  0
 35 32  1  1  0  0  0
 35 34  1  0  0  0  0
 37 39  1  0  0  0  0
 37 41  1  0  0  0  0
 38 37  2  0  0  0  0
 39 40  1  0  0  0  0
 40 36  1  1  0  0  0
 41 40  1  0  0  0  0
 42 50  1  6  0  0  0
 43 47  1  0  0  0  0
 45 49  1  1  0  0  0
 45 46  1  0  0  0  0
 46 44  1  0  0  0  0
 47 44  1  0  0  0  0
 48 42  1  6  0  0  0
 48 43  1  0  0  0  0
 48 45  1  0  0  0  0
 51 50  1  0  0  0  0
 52 54  2  0  0  0  0
 53 55  1  0  0  0  0
 53 52  1  0  0  0  0
 55 51  1  1  0  0  0
 55 52  1  0  0  0  0
M  END
>  <MODEL>
6

>  <REMARK>
 VINA RESULT:      -5.8      3.042      5.744
  Name = 
  24 active torsions:
  status: ('A' for Active; 'I' for Inactive)
    1  A    between atoms: C_1  and  C_29
    2  A    between atoms: C_2  and  N_28
    3  A    between atoms: C_2  and  C_31
    4  A    between atoms: C_3  and  C_29
    5  A    between atoms: C_3  and  C_38
    6  A    between atoms: C_6  and  C_14
    7  A    between atoms: C_6  and  C_20
    8  A    between atoms: C_8  and  O_22
    9  A    between atoms: C_8  and  C_35
   10  A    between atoms: C_11  and  C_38
   11  A    between atoms: C_13  and  O_48
   12  A    between atoms: C_14  and  C_38
   13  A    between atoms: C_19  and  C_40
   14  A    between atoms: C_19  and  O_45
   15  A    between atoms: C_20  and  O_22
   16  A    between atoms: C_26  and  C_49
   17  A    between atoms: C_27  and  C_54
   18  A    between atoms: N_28  and  C_33
   19  A    between atoms: C_33  and  C_49
   20  A    between atoms: C_33  and  C_52
   21  A    between atoms: C_35  and  C_51
   22  A    between atoms: C_39  and  O_48
   23  A    between atoms: O_45  and  C_49
   24  A    between atoms: C_51  and  C_54
                            x       y       z     vdW  Elec       q    Type
                         _______ _______ _______ _____ _____    ______ ____

>  <TORSDO>
F 24

$$$$
=
 OpenBabel11052415113D

 55 60  0  0  1  0  0  0  0  0999 V2000
  184.3120  179.6830  144.3830 C   0  0  0  0  0  2  0  0  0  0  0  0
  185.5360  177.8960  142.5280 C   0  0  2  0  0  3  0  0  0  0  0  0
  184.7310  179.0780  141.9770 C   0  0  2  0  0  3  0  0  0  0  0  0
  185.2280  178.5150  144.7330 C   0  0  0  0  0  2  0  0  0  0  0  0
  184.6890  180.2120  143.0050 C   0  0  0  0  0  2  0  0  0  0  0  0
  185.0760  177.4660  143.7960 O   0  0  0  0  0  0  0  0  0  0  0  0
  187.0430  178.1110  142.4900 C   0  0  0  0  0  2  0  0  0  0  0  0
  187.4410  178.5600  141.0990 C   0  0  0  0  0  2  0  0  0  0  0  0
  188.9440  178.4800  140.9160 C   0  0  0  0  0  2  0  0  0  0  0  0
  189.3150  177.3320  140.0410 C   0  0  0  0  0  0  0  0  0  0  0  0
  188.9360  177.3130  138.8400 O   0  0  0  0  0  0  0  0  0  0  0  0
  190.1130  176.3060  140.5520 O   0  0  0  0  0  0  0  0  0  0  0  0
  192.3980  176.7810  141.3380 C   0  0  0  0  0  2  0  0  0  0  0  0
  190.9850  176.4880  141.6620 C   0  0  1  0  0  0  0  0  0  0  0  0
  191.4910  177.7970  141.7210 O   0  0  0  0  0  0  0  0  0  0  0  0
  190.6210  175.8960  143.0310 C   0  0  1  0  0  0  0  0  0  0  0  0
  189.2280  175.8100  143.1230 O   0  0  0  0  0  1  0  0  0  0  0  0
  191.1550  174.6210  143.1620 F   0  0  0  0  0  0  0  0  0  0  0  0
  191.8910  176.0660  145.0790 F   0  0  0  0  0  0  0  0  0  0  0  0
  191.1420  176.7870  144.1660 C   0  0  2  0  0  3  0  0  0  0  0  0
  190.0090  177.5740  144.8410 C   0  0  2  0  0  3  0  0  0  0  0  0
  190.0040  179.0270  144.3770 C   0  0  0  0  0  2  0  0  0  0  0  0
  191.6720  179.7600  144.3670 S   0  0  0  0  0  1  0  0  0  0  0  0
  190.0070  177.4880  146.3710 C   0  0  0  0  0  2  0  0  0  0  0  0
  187.7520  176.8000  145.9460 O   0  0  0  0  0  1  0  0  0  0  0  0
  188.7360  176.8520  146.9370 C   0  0  2  0  0  3  0  0  0  0  0  0
  188.2060  177.5660  148.1860 C   0  0  0  0  0  3  0  0  0  0  0  0
  189.3400  178.2660  148.9040 C   0  0  0  0  0  1  0  0  0  0  0  0
  187.1580  178.5990  147.8230 C   0  0  0  0  0  1  0  0  0  0  0  0
  183.3340  178.5830  141.6420 C   0  0  0  0  0  2  0  0  0  0  0  0
  183.3630  177.5060  140.6560 N   0  0  0  0  0  2  0  0  0  0  0  0
  182.7040  177.9520  139.4210 C   0  0  2  0  0  3  0  0  0  0  0  0
  180.4650  178.7570  138.5870 C   0  0  2  0  0  3  0  0  0  0  0  0
  180.1630  177.9960  139.8740 C   0  0  0  0  0  2  0  0  0  0  0  0
  181.4480  178.7920  139.7520 C   0  0  1  0  0  3  0  0  0  0  0  0
  179.8210  180.0080  138.5340 O   0  0  0  0  0  0  0  0  0  0  0  0
  180.7150  182.6020  137.2430 C   0  0  0  0  0  0  0  0  0  0  0  0
  180.7080  183.6040  136.4770 O   0  0  0  0  0  0  0  0  0  0  0  0
  180.2240  182.3230  138.6210 C   0  0  0  0  0  2  0  0  0  0  0  0
  180.8080  181.0170  138.4920 C   0  0  2  0  0  3  0  0  0  0  0  0
  181.1990  181.2400  137.1510 O   0  0  0  0  0  0  0  0  0  0  0  0
  182.5090  176.7770  138.4310 C   0  0  1  0  0  3  0  0  0  0  0  0
  184.9480  177.1990  138.0590 C   0  0  0  0  0  2  0  0  0  0  0  0
  185.8780  177.1790  135.7380 C   0  0  0  0  0  2  0  0  0  0  0  0
  183.3370  177.4080  136.0640 C   0  0  2  0  0  3  0  0  0  0  0  0
  184.5070  177.3340  135.0720 C   0  0  0  0  0  2  0  0  0  0  0  0
  185.9060  177.8840  137.0820 C   0  0  0  0  0  2  0  0  0  0  0  0
  183.6480  176.6990  137.4020 C   0  0  2  0  0  3  0  0  0  0  0  0
  182.1620  176.8310  135.4390 N   0  0  0  0  0  1  0  0  0  0  0  0
  182.3850  175.5560  139.1070 O   0  0  0  0  0  0  0  0  0  0  0  0
  181.8510  174.6730  138.1640 C   0  0  0  0  0  2  0  0  0  0  0  0
  179.6500  174.9190  137.2990 C   0  0  0  0  0  0  0  0  0  0  0  0
  179.8940  173.4800  137.6330 O   0  0  0  0  0  0  0  0  0  0  0  0
  179.1290  175.8580  136.5220 C   0  0  0  0  0  2  0  0  0  0  0  0
  180.3660  174.5070  138.4010 C   0  0  1  0  0  3  0  0  0  0  0  0
  1  4  1  0  0  0  0
  2  7  1  1  0  0  0
  2  6  1  0  0  0  0
  3 30  1  1  0  0  0
  3  2  1  0  0  0  0
  3  5  1  0  0  0  0
  5  1  1  0  0  0  0
  6  4  1  0  0  0  0
  8  7  1  0  0  0  0
  9  8  1  0  0  0  0
 10 12  1  0  0  0  0
 10  9  1  0  0  0  0
 11 10  2  0  0  0  0
 13 14  1  0  0  0  0
 13 15  1  0  0  0  0
 14 12  1  6  0  0  0
 14 15  1  0  0  0  0
 14 16  1  0  0  0  0
 16 17  1  1  0  0  0
 16 18  1  0  0  0  0
 16 20  1  0  0  0  0
 20 21  1  0  0  0  0
 20 19  1  1  0  0  0
 21 22  1  1  0  0  0
 21 24  1  0  0  0  0
 23 22  1  0  0  0  0
 24 26  1  0  0  0  0
 26 25  1  6  0  0  0
 26 27  1  0  0  0  0
 27 28  1  0  0  0  0
 29 27  1  0  0  0  0
 31 30  1  0  0  0  0
 32 31  1  1  0  0  0
 33 36  1  1  0  0  0
 33 35  1  0  0  0  0
 33 34  1  0  0  0  0
 35 32  1  6  0  0  0
 35 34  1  0  0  0  0
 37 39  1  0  0  0  0
 38 37  2  0  0  0  0
 40 36  1  6  0  0  0
 40 39  1  0  0  0  0
 41 37  1  0  0  0  0
 41 40  1  0  0  0  0
 42 50  1  1  0  0  0
 42 32  1  0  0  0  0
 44 47  1  0  0  0  0
 45 49  1  6  0  0  0
 45 48  1  0  0  0  0
 46 44  1  0  0  0  0
 46 45  1  0  0  0  0
 47 43  1  0  0  0  0
 48 43  1  0  0  0  0
 48 42  1  1  0  0  0
 51 50  1  0  0  0  0
 52 53  1  0  0  0  0
 52 55  1  0  0  0  0
 53 55  1  0  0  0  0
 54 52  2  0  0  0  0
 55 51  1  6  0  0  0
M  END
>  <MODEL>
7

>  <REMARK>
 VINA RESULT:      -5.7      3.661     10.892
  Name = 
  24 active torsions:
  status: ('A' for Active; 'I' for Inactive)
    1  A    between atoms: C_1  and  C_29
    2  A    between atoms: C_2  and  N_28
    3  A    between atoms: C_2  and  C_31
    4  A    between atoms: C_3  and  C_29
    5  A    between atoms: C_3  and  C_38
    6  A    between atoms: C_6  and  C_14
    7  A    between atoms: C_6  and  C_20
    8  A    between atoms: C_8  and  O_22
    9  A    between atoms: C_8  and  C_35
   10  A    between atoms: C_11  and  C_38
   11  A    between atoms: C_13  and  O_48
   12  A    between atoms: C_14  and  C_38
   13  A    between atoms: C_19  and  C_40
   14  A    between atoms: C_19  and  O_45
   15  A    between atoms: C_20  and  O_22
   16  A    between atoms: C_26  and  C_49
   17  A    between atoms: C_27  and  C_54
   18  A    between atoms: N_28  and  C_33
   19  A    between atoms: C_33  and  C_49
   20  A    between atoms: C_33  and  C_52
   21  A    between atoms: C_35  and  C_51
   22  A    between atoms: C_39  and  O_48
   23  A    between atoms: O_45  and  C_49
   24  A    between atoms: C_51  and  C_54
                            x       y       z     vdW  Elec       q    Type
                         _______ _______ _______ _____ _____    ______ ____

>  <TORSDO>
F 24

$$$$
=
 OpenBabel11052415113D

 55 60  0  0  1  0  0  0  0  0999 V2000
  189.3900  178.2440  143.7430 C   0  0  0  0  0  2  0  0  0  0  0  0
  189.2390  176.7460  141.3210 C   0  0  2  0  0  3  0  0  0  0  0  0
  188.5000  178.0880  141.3950 C   0  0  2  0  0  3  0  0  0  0  0  0
  190.1310  176.9470  143.4440 C   0  0  0  0  0  2  0  0  0  0  0  0
  189.1580  178.9950  142.4380 C   0  0  0  0  0  2  0  0  0  0  0  0
  189.3650  176.1230  142.5860 O   0  0  0  0  0  0  0  0  0  0  0  0
  190.5580  176.8150  140.5650 C   0  0  0  0  0  2  0  0  0  0  0  0
  190.3480  176.2840  139.1610 C   0  0  0  0  0  2  0  0  0  0  0  0
  191.0980  177.1270  138.1480 C   0  0  0  0  0  2  0  0  0  0  0  0
  192.3860  176.4830  137.7660 C   0  0  0  0  0  0  0  0  0  0  0  0
  193.3630  176.5180  138.5600 O   0  0  0  0  0  0  0  0  0  0  0  0
  192.4860  175.8140  136.5440 O   0  0  0  0  0  0  0  0  0  0  0  0
  192.7450  173.3690  136.4060 C   0  0  0  0  0  2  0  0  0  0  0  0
  191.8680  174.5550  136.3020 C   0  0  1  0  0  0  0  0  0  0  0  0
  191.8660  173.7440  137.4490 O   0  0  0  0  0  0  0  0  0  0  0  0
  190.5730  174.4790  135.4790 C   0  0  1  0  0  0  0  0  0  0  0  0
  190.4910  175.6200  134.6750 O   0  0  0  0  0  1  0  0  0  0  0  0
  190.5880  173.3580  134.6600 F   0  0  0  0  0  0  0  0  0  0  0  0
  189.1980  173.1780  136.9810 F   0  0  0  0  0  0  0  0  0  0  0  0
  189.3460  174.4250  136.3980 C   0  0  2  0  0  3  0  0  0  0  0  0
  188.0700  174.8810  135.6760 C   0  0  2  0  0  3  0  0  0  0  0  0
  187.3270  175.9320  136.4930 C   0  0  0  0  0  2  0  0  0  0  0  0
  187.9190  177.6220  136.1550 S   0  0  0  0  0  1  0  0  0  0  0  0
  187.1320  173.7370  135.2730 C   0  0  0  0  0  2  0  0  0  0  0  0
  186.1050  173.2210  137.3750 O   0  0  0  0  0  1  0  0  0  0  0  0
  185.8390  173.7030  136.0900 C   0  0  2  0  0  3  0  0  0  0  0  0
  184.7250  172.8860  135.4270 C   0  0  0  0  0  3  0  0  0  0  0  0
  184.4310  171.6470  136.2450 C   0  0  0  0  0  1  0  0  0  0  0  0
  183.4480  173.6970  135.3090 C   0  0  0  0  0  1  0  0  0  0  0  0
  187.0480  177.8080  141.7430 C   0  0  0  0  0  2  0  0  0  0  0  0
  186.1320  178.4890  140.8310 N   0  0  0  0  0  2  0  0  0  0  0  0
  184.9320  178.9130  141.5650 C   0  0  2  0  0  3  0  0  0  0  0  0
  184.7570  179.8510  143.8980 C   0  0  2  0  0  3  0  0  0  0  0  0
  183.7980  178.6660  143.8710 C   0  0  0  0  0  2  0  0  0  0  0  0
  185.0870  178.6120  143.0740 C   0  0  1  0  0  3  0  0  0  0  0  0
  185.5930  179.8460  145.0310 O   0  0  0  0  0  0  0  0  0  0  0  0
  186.7980  177.8710  146.9920 C   0  0  0  0  0  0  0  0  0  0  0  0
  187.6220  177.3630  147.8010 O   0  0  0  0  0  0  0  0  0  0  0  0
  185.6070  178.7560  147.1150 C   0  0  0  0  0  2  0  0  0  0  0  0
  185.4350  178.6100  145.6970 C   0  0  2  0  0  3  0  0  0  0  0  0
  186.6160  177.8430  145.5550 O   0  0  0  0  0  0  0  0  0  0  0  0
  183.6420  178.3910  140.8850 C   0  0  1  0  0  3  0  0  0  0  0  0
  181.2640  179.1720  140.8290 C   0  0  0  0  0  2  0  0  0  0  0  0
  180.6310  181.1420  139.4250 C   0  0  0  0  0  2  0  0  0  0  0  0
  182.8690  179.9570  138.9780 C   0  0  2  0  0  3  0  0  0  0  0  0
  181.9070  181.0860  138.5790 C   0  0  0  0  0  2  0  0  0  0  0  0
  180.2200  179.7510  139.8730 C   0  0  0  0  0  2  0  0  0  0  0  0
  182.7140  179.5390  140.4580 C   0  0  2  0  0  3  0  0  0  0  0  0
  184.2280  180.3890  138.7080 N   0  0  0  0  0  1  0  0  0  0  0  0
  183.9400  177.5780  139.7840 O   0  0  0  0  0  0  0  0  0  0  0  0
  183.0290  176.5200  139.8580 C   0  0  0  0  0  2  0  0  0  0  0  0
  182.6750  176.5370  137.5070 C   0  0  0  0  0  0  0  0  0  0  0  0
  184.0940  176.1540  137.7910 O   0  0  0  0  0  0  0  0  0  0  0  0
  181.7680  177.1700  136.7770 C   0  0  0  0  0  2  0  0  0  0  0  0
  183.0470  175.7360  138.5640 C   0  0  1  0  0  3  0  0  0  0  0  0
  2  7  1  1  0  0  0
  2  3  1  0  0  0  0
  2  6  1  0  0  0  0
  3 30  1  1  0  0  0
  3  5  1  0  0  0  0
  4  1  1  0  0  0  0
  5  1  1  0  0  0  0
  6  4  1  0  0  0  0
  8  7  1  0  0  0  0
  9  8  1  0  0  0  0
 10  9  1  0  0  0  0
 10 11  2  0  0  0  0
 12 10  1  0  0  0  0
 13 15  1  0  0  0  0
 14 13  1  0  0  0  0
 14 12  1  1  0  0  0
 14 15  1  0  0  0  0
 16 18  1  6  0  0  0
 16 14  1  0  0  0  0
 16 20  1  0  0  0  0
 17 16  1  0  0  0  0
 20 19  1  6  0  0  0
 21 24  1  1  0  0  0
 21 20  1  0  0  0  0
 21 22  1  0  0  0  0
 23 22  1  0  0  0  0
 24 26  1  0  0  0  0
 26 25  1  1  0  0  0
 27 26  1  0  0  0  0
 27 28  1  0  0  0  0
 29 27  1  0  0  0  0
 31 30  1  0  0  0  0
 32 31  1  6  0  0  0
 33 36  1  1  0  0  0
 34 33  1  0  0  0  0
 35 32  1  6  0  0  0
 35 34  1  0  0  0  0
 35 33  1  0  0  0  0
 37 39  1  0  0  0  0
 37 38  2  0  0  0  0
 40 36  1  6  0  0  0
 40 39  1  0  0  0  0
 41 40  1  0  0  0  0
 41 37  1  0  0  0  0
 42 50  1  6  0  0  0
 42 32  1  0  0  0  0
 44 47  1  0  0  0  0
 45 49  1  1  0  0  0
 45 48  1  0  0  0  0
 46 45  1  0  0  0  0
 46 44  1  0  0  0  0
 47 43  1  0  0  0  0
 48 43  1  0  0  0  0
 48 42  1  6  0  0  0
 50 51  1  0  0  0  0
 52 53  1  0  0  0  0
 52 55  1  0  0  0  0
 53 55  1  0  0  0  0
 54 52  2  0  0  0  0
 55 51  1  1  0  0  0
M  END
>  <MODEL>
8

>  <REMARK>
 VINA RESULT:      -5.7      3.314      9.451
  Name = 
  24 active torsions:
  status: ('A' for Active; 'I' for Inactive)
    1  A    between atoms: C_1  and  C_29
    2  A    between atoms: C_2  and  N_28
    3  A    between atoms: C_2  and  C_31
    4  A    between atoms: C_3  and  C_29
    5  A    between atoms: C_3  and  C_38
    6  A    between atoms: C_6  and  C_14
    7  A    between atoms: C_6  and  C_20
    8  A    between atoms: C_8  and  O_22
    9  A    between atoms: C_8  and  C_35
   10  A    between atoms: C_11  and  C_38
   11  A    between atoms: C_13  and  O_48
   12  A    between atoms: C_14  and  C_38
   13  A    between atoms: C_19  and  C_40
   14  A    between atoms: C_19  and  O_45
   15  A    between atoms: C_20  and  O_22
   16  A    between atoms: C_26  and  C_49
   17  A    between atoms: C_27  and  C_54
   18  A    between atoms: N_28  and  C_33
   19  A    between atoms: C_33  and  C_49
   20  A    between atoms: C_33  and  C_52
   21  A    between atoms: C_35  and  C_51
   22  A    between atoms: C_39  and  O_48
   23  A    between atoms: O_45  and  C_49
   24  A    between atoms: C_51  and  C_54
                            x       y       z     vdW  Elec       q    Type
                         _______ _______ _______ _____ _____    ______ ____

>  <TORSDO>
F 24

$$$$
=
 OpenBabel11052415113D

 55 60  0  0  1  0  0  0  0  0999 V2000
  181.7800  178.7810  141.1410 C   0  0  0  0  0  2  0  0  0  0  0  0
  184.4070  177.8650  140.5110 C   0  0  2  0  0  3  0  0  0  0  0  0
  183.4170  178.0820  139.3620 C   0  0  2  0  0  3  0  0  0  0  0  0
  182.9280  178.6010  142.1280 C   0  0  0  0  0  2  0  0  0  0  0  0
  182.3540  179.1070  139.7680 C   0  0  0  0  0  2  0  0  0  0  0  0
  183.7650  177.5330  141.7290 O   0  0  0  0  0  0  0  0  0  0  0  0
  185.4200  178.9910  140.6690 C   0  0  0  0  0  2  0  0  0  0  0  0
  186.4070  178.6150  141.7550 C   0  0  0  0  0  2  0  0  0  0  0  0
  187.8300  178.6880  141.2380 C   0  0  0  0  0  2  0  0  0  0  0  0
  188.7070  177.7100  141.9430 C   0  0  0  0  0  0  0  0  0  0  0  0
  188.2420  176.5910  142.2900 O   0  0  0  0  0  0  0  0  0  0  0  0
  190.0450  178.0290  142.1790 O   0  0  0  0  0  0  0  0  0  0  0  0
  190.7520  179.7010  143.8430 C   0  0  0  0  0  2  0  0  0  0  0  0
  190.5590  178.2800  143.4820 C   0  0  1  0  0  0  0  0  0  0  0  0
  189.6320  178.9600  144.2890 O   0  0  0  0  0  0  0  0  0  0  0  0
  191.3500  177.1900  144.2200 C   0  0  1  0  0  0  0  0  0  0  0  0
  191.9580  176.3620  143.2700 O   0  0  0  0  0  1  0  0  0  0  0  0
  192.3390  177.7610  145.0090 F   0  0  0  0  0  0  0  0  0  0  0  0
  189.1410  176.2800  144.5760 F   0  0  0  0  0  0  0  0  0  0  0  0
  190.4210  176.3430  145.0980 C   0  0  2  0  0  3  0  0  0  0  0  0
  190.4250  176.8170  146.5590 C   0  0  2  0  0  3  0  0  0  0  0  0
  191.5170  176.1110  147.3570 C   0  0  0  0  0  2  0  0  0  0  0  0
  192.1670  177.1430  148.7100 S   0  0  0  0  0  1  0  0  0  0  0  0
  189.0700  176.6990  147.2640 C   0  0  0  0  0  2  0  0  0  0  0  0
  188.3920  178.6070  148.5440 O   0  0  0  0  0  1  0  0  0  0  0  0
  188.2850  178.0120  147.2840 C   0  0  2  0  0  3  0  0  0  0  0  0
  186.8140  177.8450  146.8890 C   0  0  0  0  0  3  0  0  0  0  0  0
  186.0260  179.0750  147.2860 C   0  0  0  0  0  1  0  0  0  0  0  0
  186.6680  177.6460  145.3930 C   0  0  0  0  0  1  0  0  0  0  0  0
  182.7900  176.7420  139.0190 C   0  0  0  0  0  2  0  0  0  0  0  0
  183.5080  176.0680  137.9400 N   0  0  0  0  0  2  0  0  0  0  0  0
  182.5570  175.6500  136.9010 C   0  0  2  0  0  3  0  0  0  0  0  0
  183.6850  173.4890  137.5470 C   0  0  2  0  0  3  0  0  0  0  0  0
  182.1990  173.1560  137.4650 C   0  0  0  0  0  2  0  0  0  0  0  0
  182.7990  174.1730  136.5110 C   0  0  1  0  0  3  0  0  0  0  0  0
  184.4880  172.5530  136.8700 O   0  0  0  0  0  0  0  0  0  0  0  0
  187.4810  173.0460  136.8390 C   0  0  0  0  0  0  0  0  0  0  0  0
  188.6940  172.9660  137.1720 O   0  0  0  0  0  0  0  0  0  0  0  0
  186.6040  172.3390  135.8650 C   0  0  0  0  0  2  0  0  0  0  0  0
  185.5570  173.2420  136.2550 C   0  0  2  0  0  3  0  0  0  0  0  0
  186.3540  173.8610  137.2470 O   0  0  0  0  0  0  0  0  0  0  0  0
  182.5070  176.6720  135.7390 C   0  0  1  0  0  3  0  0  0  0  0  0
  181.6780  179.0040  136.1160 C   0  0  0  0  0  2  0  0  0  0  0  0
  179.2410  179.4150  136.4960 C   0  0  0  0  0  2  0  0  0  0  0  0
  180.1630  177.0300  136.7710 C   0  0  2  0  0  3  0  0  0  0  0  0
  178.9370  177.9530  136.8350 C   0  0  0  0  0  2  0  0  0  0  0  0
  180.6470  179.7880  136.9310 C   0  0  0  0  0  2  0  0  0  0  0  0
  181.2520  177.5560  135.8070 C   0  0  2  0  0  3  0  0  0  0  0  0
  179.7260  175.7050  136.3750 N   0  0  0  0  0  1  0  0  0  0  0  0
  183.6580  177.4710  135.7130 O   0  0  0  0  0  0  0  0  0  0  0  0
  184.5430  176.8010  134.8640 C   0  0  0  0  0  2  0  0  0  0  0  0
  186.4800  177.2560  136.1670 C   0  0  0  0  0  0  0  0  0  0  0  0
  186.8740  176.4860  134.9450 O   0  0  0  0  0  0  0  0  0  0  0  0
  186.6050  177.5270  137.4580 C   0  0  0  0  0  2  0  0  0  0  0  0
  185.9080  177.4530  134.9290 C   0  0  1  0  0  3  0  0  0  0  0  0
  1  4  1  0  0  0  0
  2  7  1  1  0  0  0
  2  6  1  0  0  0  0
  3 30  1  1  0  0  0
  3  5  1  0  0  0  0
  3  2  1  0  0  0  0
  5  1  1  0  0  0  0
  6  4  1  0  0  0  0
  7  8  1  0  0  0  0
  9  8  1  0  0  0  0
  9 10  1  0  0  0  0
 10 12  1  0  0  0  0
 10 11  2  0  0  0  0
 13 15  1  0  0  0  0
 14 12  1  6  0  0  0
 14 13  1  0  0  0  0
 14 16  1  0  0  0  0
 14 15  1  0  0  0  0
 16 17  1  6  0  0  0
 16 18  1  0  0  0  0
 16 20  1  0  0  0  0
 20 19  1  6  0  0  0
 20 21  1  0  0  0  0
 21 24  1  1  0  0  0
 21 22  1  0  0  0  0
 22 23  1  0  0  0  0
 24 26  1  0  0  0  0
 26 25  1  1  0  0  0
 27 26  1  0  0  0  0
 27 28  1  0  0  0  0
 29 27  1  0  0  0  0
 31 30  1  0  0  0  0
 32 31  1  1  0  0  0
 33 36  1  6  0  0  0
 34 33  1  0  0  0  0
 35 32  1  1  0  0  0
 35 34  1  0  0  0  0
 35 33  1  0  0  0  0
 37 38  2  0  0  0  0
 37 41  1  0  0  0  0
 39 40  1  0  0  0  0
 39 37  1  0  0  0  0
 40 36  1  1  0  0  0
 40 41  1  0  0  0  0
 42 50  1  1  0  0  0
 42 32  1  0  0  0  0
 43 47  1  0  0  0  0
 44 46  1  0  0  0  0
 44 47  1  0  0  0  0
 45 49  1  6  0  0  0
 45 46  1  0  0  0  0
 48 42  1  1  0  0  0
 48 43  1  0  0  0  0
 48 45  1  0  0  0  0
 51 50  1  0  0  0  0
 52 54  2  0  0  0  0
 53 52  1  0  0  0  0
 55 51  1  1  0  0  0
 55 53  1  0  0  0  0
 55 52  1  0  0  0  0
M  END
>  <MODEL>
9

>  <REMARK>
 VINA RESULT:      -5.6      4.424      9.999
  Name = 
  24 active torsions:
  status: ('A' for Active; 'I' for Inactive)
    1  A    between atoms: C_1  and  C_29
    2  A    between atoms: C_2  and  N_28
    3  A    between atoms: C_2  and  C_31
    4  A    between atoms: C_3  and  C_29
    5  A    between atoms: C_3  and  C_38
    6  A    between atoms: C_6  and  C_14
    7  A    between atoms: C_6  and  C_20
    8  A    between atoms: C_8  and  O_22
    9  A    between atoms: C_8  and  C_35
   10  A    between atoms: C_11  and  C_38
   11  A    between atoms: C_13  and  O_48
   12  A    between atoms: C_14  and  C_38
   13  A    between atoms: C_19  and  C_40
   14  A    between atoms: C_19  and  O_45
   15  A    between atoms: C_20  and  O_22
   16  A    between atoms: C_26  and  C_49
   17  A    between atoms: C_27  and  C_54
   18  A    between atoms: N_28  and  C_33
   19  A    between atoms: C_33  and  C_49
   20  A    between atoms: C_33  and  C_52
   21  A    between atoms: C_35  and  C_51
   22  A    between atoms: C_39  and  O_48
   23  A    between atoms: O_45  and  C_49
   24  A    between atoms: C_51  and  C_54
                            x       y       z     vdW  Elec       q    Type
                         _______ _______ _______ _____ _____    ______ ____

>  <TORSDO>
F 24

$$$$
