=
 OpenBabel11052416483D

 32 38  0  0  1  0  0  0  0  0999 V2000
  188.1320  177.6990  145.9860 C   0  0  0  0  0  2  0  0  0  0  0  0
  187.9860  178.2030  141.1010 C   0  0  0  0  0  0  0  0  0  0  0  0
  183.1880  178.6930  140.2810 C   0  0  0  0  0  3  0  0  0  0  0  0
  183.3960  178.0480  138.9400 C   0  0  0  0  0  2  0  0  0  0  0  0
  189.3440  178.0990  138.9200 C   0  0  2  0  0  3  0  0  0  0  0  0
  190.1760  177.0750  139.6160 C   0  0  0  0  0  0  0  0  0  0  0  0
  188.6960  177.7120  143.3850 C   0  0  1  0  0  3  0  0  0  0  0  0
  186.2890  177.9240  142.8020 N   0  0  0  0  0  2  0  0  0  0  0  0
  189.4270  176.5360  136.8840 C   0  0  0  0  0  0  0  0  0  0  0  0
  186.9080  177.3540  145.1320 C   0  0  0  0  0  2  0  0  0  0  0  0
  184.2210  178.9270  141.0920 C   0  0  0  0  0  3  0  0  0  0  0  0
  186.5960  178.3270  141.6010 C   0  0  0  0  0  0  0  0  0  0  0  0
  185.5640  178.6740  140.6510 N   0  0  0  0  0  0  0  0  0  0  0  0
  187.0860  178.3700  138.8040 C   0  0  0  0  0  0  0  0  0  0  0  0
  190.3350  175.7830  137.5230 C   0  0  0  0  0  3  0  0  0  0  0  0
  187.2630  177.2350  143.6520 C   0  0  2  0  0  3  0  0  0  0  0  0
  190.6780  176.0220  138.9510 C   0  0  0  0  0  3  0  0  0  0  0  0
  189.6070  176.8890  144.0780 O   0  0  0  0  0  0  0  0  0  0  0  0
  189.4060  176.9720  145.4880 C   0  0  1  0  0  3  0  0  0  0  0  0
  184.6760  178.5400  138.2630 C   0  0  0  0  0  2  0  0  0  0  0  0
  185.8240  178.5170  139.2320 C   0  0  0  0  0  0  0  0  0  0  0  0
  187.4570  177.7950  137.5560 N   0  0  0  0  0  2  0  0  0  0  0  0
  188.9740  177.7630  141.9060 C   0  0  2  0  0  3  0  0  0  0  0  0
  190.6610  177.4650  141.2970 S   0  0  0  0  0  0  0  0  0  0  0  0
  189.0430  176.2200  135.4810 C   0  0  0  0  0  1  0  0  0  0  0  0
  188.1780  178.4340  139.7030 N   0  0  0  0  0  0  0  0  0  0  0  0
  188.7360  177.5820  137.6480 C   0  0  1  0  0  3  0  0  0  0  0  0
  190.6600  177.4770  146.1980 C   0  0  0  0  0  2  0  0  0  0  0  0
  190.9270  176.7590  147.5180 C   0  0  0  0  0  2  0  0  0  0  0  0
  192.1620  175.9260  147.4480 C   0  0  0  0  0  0  0  0  0  0  0  0
  193.1110  175.9910  148.4610 O   0  0  0  0  0  1  0  0  0  0  0  0
  192.3600  175.1830  146.4520 O   0  0  0  0  0  0  0  0  0  0  0  0
  2 12  2  0  0  0  0
  3 11  2  0  0  0  0
  4  3  1  0  0  0  0
  5  6  1  1  0  0  0
  5 26  1  0  0  0  0
  6 24  1  0  0  0  0
  7 16  1  0  0  0  0
  7 18  1  1  0  0  0
  8 16  1  0  0  0  0
  9 15  2  0  0  0  0
 10  1  1  0  0  0  0
 12  8  1  0  0  0  0
 13 11  1  0  0  0  0
 13 12  1  0  0  0  0
 14 21  2  0  0  0  0
 14 26  1  0  0  0  0
 15 17  1  0  0  0  0
 16 10  1  1  0  0  0
 17  6  2  0  0  0  0
 18 19  1  0  0  0  0
 19  1  1  0  0  0  0
 19 28  1  1  0  0  0
 20  4  1  0  0  0  0
 20 21  1  0  0  0  0
 21 13  1  0  0  0  0
 22 27  1  0  0  0  0
 22 14  1  0  0  0  0
 23  2  1  1  0  0  0
 23  7  1  0  0  0  0
 24 23  1  0  0  0  0
 25  9  1  0  0  0  0
 26  2  1  0  0  0  0
 27  9  1  1  0  0  0
 27  5  1  0  0  0  0
 28 29  1  0  0  0  0
 30 29  1  0  0  0  0
 30 31  1  0  0  0  0
 32 30  2  0  0  0  0
M  END
>  <MODEL>
1

>  <REMARK>
 VINA RESULT:      -9.6      0.000      0.000
  Name = 
  3 active torsions:
  status: ('A' for Active; 'I' for Inactive)
    1  A    between atoms: C_1  and  C_10
    2  A    between atoms: C_10  and  C_19
    3  A    between atoms: C_19  and  C_24
                            x       y       z     vdW  Elec       q    Type
                         _______ _______ _______ _____ _____    ______ ____

>  <TORSDO>
F 3

$$$$
=
 OpenBabel11052416483D

 32 38  0  0  1  0  0  0  0  0999 V2000
  189.7020  177.5580  138.2290 C   0  0  0  0  0  2  0  0  0  0  0  0
  188.1290  177.1600  142.8660 C   0  0  0  0  0  0  0  0  0  0  0  0
  183.7440  179.3150  142.6330 C   0  0  0  0  0  3  0  0  0  0  0  0
  183.9220  179.7320  144.0650 C   0  0  0  0  0  2  0  0  0  0  0  0
  188.7640  176.4950  145.2680 C   0  0  2  0  0  3  0  0  0  0  0  0
  190.1470  176.9190  144.9030 C   0  0  0  0  0  0  0  0  0  0  0  0
  189.5230  177.2170  140.8620 C   0  0  1  0  0  3  0  0  0  0  0  0
  187.2980  178.3250  140.9160 N   0  0  0  0  0  2  0  0  0  0  0  0
  189.1460  177.7470  147.4780 C   0  0  0  0  0  0  0  0  0  0  0  0
  188.6700  178.4970  138.8610 C   0  0  0  0  0  2  0  0  0  0  0  0
  184.6670  178.5710  142.0200 C   0  0  0  0  0  3  0  0  0  0  0  0
  187.0480  177.8070  142.0860 C   0  0  0  0  0  0  0  0  0  0  0  0
  185.7910  178.0590  142.7520 N   0  0  0  0  0  0  0  0  0  0  0  0
  186.7450  177.4780  144.8900 C   0  0  0  0  0  0  0  0  0  0  0  0
  190.4370  177.9010  147.1450 C   0  0  0  0  0  3  0  0  0  0  0  0
  188.6620  178.3910  140.3840 C   0  0  2  0  0  3  0  0  0  0  0  0
  190.9420  177.5300  145.7950 C   0  0  0  0  0  3  0  0  0  0  0  0
  190.8650  177.4280  140.4880 O   0  0  0  0  0  0  0  0  0  0  0  0
  191.0020  177.4820  139.0690 C   0  0  1  0  0  3  0  0  0  0  0  0
  184.5500  178.6240  144.9090 C   0  0  0  0  0  2  0  0  0  0  0  0
  185.7390  178.0360  144.2030 C   0  0  0  0  0  0  0  0  0  0  0  0
  187.0420  177.7500  146.2550 N   0  0  0  0  0  2  0  0  0  0  0  0
  189.3640  177.0090  142.3460 C   0  0  2  0  0  3  0  0  0  0  0  0
  190.7520  176.3480  143.3150 S   0  0  0  0  0  0  0  0  0  0  0  0
  188.6540  178.2050  148.8050 C   0  0  0  0  0  1  0  0  0  0  0  0
  187.8250  176.8470  144.2280 N   0  0  0  0  0  0  0  0  0  0  0  0
  188.2240  177.2440  146.4520 C   0  0  1  0  0  3  0  0  0  0  0  0
  191.9410  176.3900  138.5610 C   0  0  0  0  0  2  0  0  0  0  0  0
  191.5610  175.8750  137.1760 C   0  0  0  0  0  2  0  0  0  0  0  0
  191.4240  174.3900  137.1620 C   0  0  0  0  0  0  0  0  0  0  0  0
  190.2290  173.7930  137.5440 O   0  0  0  0  0  1  0  0  0  0  0  0
  192.4040  173.6740  136.8320 O   0  0  0  0  0  0  0  0  0  0  0  0
  1 10  1  0  0  0  0
  1 19  1  0  0  0  0
  2 26  1  0  0  0  0
  3  4  1  0  0  0  0
  4 20  1  0  0  0  0
  5  6  1  6  0  0  0
  5 27  1  0  0  0  0
  6 17  2  0  0  0  0
  7 18  1  1  0  0  0
  7 23  1  0  0  0  0
  8 12  1  0  0  0  0
  9 25  1  0  0  0  0
 11  3  2  0  0  0  0
 11 13  1  0  0  0  0
 12 13  1  0  0  0  0
 12  2  2  0  0  0  0
 13 21  1  0  0  0  0
 14 22  1  0  0  0  0
 15  9  2  0  0  0  0
 16 10  1  6  0  0  0
 16  7  1  0  0  0  0
 16  8  1  0  0  0  0
 17 15  1  0  0  0  0
 19 28  1  6  0  0  0
 19 18  1  0  0  0  0
 21 14  2  0  0  0  0
 21 20  1  0  0  0  0
 23  2  1  6  0  0  0
 23 24  1  0  0  0  0
 24  6  1  0  0  0  0
 26 14  1  0  0  0  0
 26  5  1  0  0  0  0
 27 22  1  6  0  0  0
 27  9  1  0  0  0  0
 29 28  1  0  0  0  0
 30 29  1  0  0  0  0
 30 31  1  0  0  0  0
 32 30  2  0  0  0  0
M  END
>  <MODEL>
2

>  <REMARK>
 VINA RESULT:      -9.3      2.665      6.950
  Name = 
  3 active torsions:
  status: ('A' for Active; 'I' for Inactive)
    1  A    between atoms: C_1  and  C_10
    2  A    between atoms: C_10  and  C_19
    3  A    between atoms: C_19  and  C_24
                            x       y       z     vdW  Elec       q    Type
                         _______ _______ _______ _____ _____    ______ ____

>  <TORSDO>
F 3

$$$$
=
 OpenBabel11052416483D

 32 38  0  0  1  0  0  0  0  0999 V2000
  188.6930  177.4370  145.9370 C   0  0  0  0  0  2  0  0  0  0  0  0
  186.9870  178.3130  141.4130 C   0  0  0  0  0  0  0  0  0  0  0  0
  182.2000  178.8970  142.2360 C   0  0  0  0  0  3  0  0  0  0  0  0
  181.9420  178.3550  140.8590 C   0  0  0  0  0  2  0  0  0  0  0  0
  187.5610  178.3660  138.9070 C   0  0  2  0  0  3  0  0  0  0  0  0
  188.5410  177.2860  139.2210 C   0  0  0  0  0  0  0  0  0  0  0  0
  188.3830  177.6440  143.3020 C   0  0  1  0  0  3  0  0  0  0  0  0
  185.9250  177.9170  143.5500 N   0  0  0  0  0  2  0  0  0  0  0  0
  186.9300  176.9620  136.8510 C   0  0  0  0  0  0  0  0  0  0  0  0
  187.2480  177.1670  145.5050 C   0  0  0  0  0  2  0  0  0  0  0  0
  183.4480  179.0610  142.6810 C   0  0  0  0  0  3  0  0  0  0  0  0
  185.8390  178.4080  142.3460 C   0  0  0  0  0  0  0  0  0  0  0  0
  184.5660  178.8330  141.8100 N   0  0  0  0  0  0  0  0  0  0  0  0
  185.3960  178.6600  139.5520 C   0  0  0  0  0  0  0  0  0  0  0  0
  187.9720  176.1560  137.1060 C   0  0  0  0  0  3  0  0  0  0  0  0
  187.1000  177.1590  143.9860 C   0  0  2  0  0  3  0  0  0  0  0  0
  188.7670  176.2840  138.3570 C   0  0  0  0  0  3  0  0  0  0  0  0
  189.4440  176.7650  143.6000 O   0  0  0  0  0  0  0  0  0  0  0  0
  189.7130  176.7420  145.0020 C   0  0  1  0  0  3  0  0  0  0  0  0
  182.9480  178.8870  139.8390 C   0  0  0  0  0  2  0  0  0  0  0  0
  184.3470  178.7840  140.3760 C   0  0  0  0  0  0  0  0  0  0  0  0
  185.3250  178.1800  138.2140 N   0  0  0  0  0  2  0  0  0  0  0  0
  188.1690  177.8060  141.8190 C   0  0  2  0  0  3  0  0  0  0  0  0
  189.5560  177.5430  140.6760 S   0  0  0  0  0  0  0  0  0  0  0  0
  186.1030  176.7560  135.6320 C   0  0  0  0  0  1  0  0  0  0  0  0
  186.7220  178.6490  140.0490 N   0  0  0  0  0  0  0  0  0  0  0  0
  186.5570  177.9520  137.8700 C   0  0  1  0  0  3  0  0  0  0  0  0
  191.1450  177.1820  145.2980 C   0  0  0  0  0  2  0  0  0  0  0  0
  191.9680  176.1040  145.9950 C   0  0  0  0  0  2  0  0  0  0  0  0
  192.1160  176.3830  147.4520 C   0  0  0  0  0  0  0  0  0  0  0  0
  192.9890  175.6290  148.2260 O   0  0  0  0  0  1  0  0  0  0  0  0
  191.4240  177.2850  147.9900 O   0  0  0  0  0  0  0  0  0  0  0  0
  2 23  1  0  0  0  0
  2 12  2  0  0  0  0
  3 11  2  0  0  0  0
  4  3  1  0  0  0  0
  5  6  1  1  0  0  0
  5 26  1  0  0  0  0
  6 24  1  0  0  0  0
  7 18  1  6  0  0  0
  7 16  1  0  0  0  0
  8 16  1  0  0  0  0
  9 15  2  0  0  0  0
 10  1  1  0  0  0  0
 12  8  1  0  0  0  0
 13 12  1  0  0  0  0
 13 11  1  0  0  0  0
 14 26  1  0  0  0  0
 14 21  2  0  0  0  0
 15 17  1  0  0  0  0
 16 10  1  1  0  0  0
 17  6  2  0  0  0  0
 18 19  1  0  0  0  0
 19 28  1  6  0  0  0
 19  1  1  0  0  0  0
 20 21  1  0  0  0  0
 20  4  1  0  0  0  0
 21 13  1  0  0  0  0
 22 14  1  0  0  0  0
 23 24  1  1  0  0  0
 23  7  1  0  0  0  0
 25  9  1  0  0  0  0
 26  2  1  0  0  0  0
 27  9  1  1  0  0  0
 27 22  1  0  0  0  0
 27  5  1  0  0  0  0
 28 29  1  0  0  0  0
 29 30  1  0  0  0  0
 30 32  2  0  0  0  0
 30 31  1  0  0  0  0
M  END
>  <MODEL>
3

>  <REMARK>
 VINA RESULT:      -9.0      1.315      1.700
  Name = 
  3 active torsions:
  status: ('A' for Active; 'I' for Inactive)
    1  A    between atoms: C_1  and  C_10
    2  A    between atoms: C_10  and  C_19
    3  A    between atoms: C_19  and  C_24
                            x       y       z     vdW  Elec       q    Type
                         _______ _______ _______ _____ _____    ______ ____

>  <TORSDO>
F 3

$$$$
=
 OpenBabel11052416483D

 32 38  0  0  1  0  0  0  0  0999 V2000
  187.7880  177.7240  146.3100 C   0  0  0  0  0  2  0  0  0  0  0  0
  186.4990  178.4390  141.6230 C   0  0  0  0  0  0  0  0  0  0  0  0
  181.6300  178.7680  141.9550 C   0  0  0  0  0  3  0  0  0  0  0  0
  181.5410  178.1930  140.5700 C   0  0  0  0  0  2  0  0  0  0  0  0
  187.3180  178.4870  139.1850 C   0  0  2  0  0  3  0  0  0  0  0  0
  188.3180  177.4670  139.6170 C   0  0  0  0  0  0  0  0  0  0  0  0
  187.7330  177.8760  143.6540 C   0  0  1  0  0  3  0  0  0  0  0  0
  185.2520  178.0150  143.6520 N   0  0  0  0  0  2  0  0  0  0  0  0
  186.9720  177.0200  137.1060 C   0  0  0  0  0  0  0  0  0  0  0  0
  186.4100  177.3680  145.7430 C   0  0  0  0  0  2  0  0  0  0  0  0
  182.8160  179.0080  142.5180 C   0  0  0  0  0  3  0  0  0  0  0  0
  185.2600  178.4830  142.4350 C   0  0  0  0  0  0  0  0  0  0  0  0
  184.0270  178.8300  141.7680 N   0  0  0  0  0  0  0  0  0  0  0  0
  185.0870  178.6700  139.6070 C   0  0  0  0  0  0  0  0  0  0  0  0
  188.0260  176.2770  137.4780 C   0  0  0  0  0  3  0  0  0  0  0  0
  186.4160  177.3300  144.2170 C   0  0  2  0  0  3  0  0  0  0  0  0
  188.6830  176.4670  138.8000 C   0  0  0  0  0  3  0  0  0  0  0  0
  188.8040  177.0610  144.0740 O   0  0  0  0  0  0  0  0  0  0  0  0
  188.9330  177.0730  145.4950 C   0  0  1  0  0  3  0  0  0  0  0  0
  182.6130  178.7650  139.6440 C   0  0  0  0  0  2  0  0  0  0  0  0
  183.9550  178.7470  140.3200 C   0  0  0  0  0  0  0  0  0  0  0  0
  185.1760  178.1670  138.2780 N   0  0  0  0  0  2  0  0  0  0  0  0
  187.6600  178.0040  142.1550 C   0  0  2  0  0  3  0  0  0  0  0  0
  189.1670  177.8020  141.1600 S   0  0  0  0  0  0  0  0  0  0  0  0
  186.2840  176.7510  135.8140 C   0  0  0  0  0  1  0  0  0  0  0  0
  186.3550  178.7390  140.2320 N   0  0  0  0  0  0  0  0  0  0  0  0
  186.4470  178.0020  138.0630 C   0  0  1  0  0  3  0  0  0  0  0  0
  190.3020  177.5970  145.9230 C   0  0  0  0  0  2  0  0  0  0  0  0
  191.4440  177.0350  145.0820 C   0  0  0  0  0  2  0  0  0  0  0  0
  191.7180  177.8890  143.8910 C   0  0  0  0  0  0  0  0  0  0  0  0
  191.5230  179.2640  143.9520 O   0  0  0  0  0  1  0  0  0  0  0  0
  192.1000  177.3600  142.8150 O   0  0  0  0  0  0  0  0  0  0  0  0
  2 23  1  0  0  0  0
  2 12  2  0  0  0  0
  3 11  2  0  0  0  0
  4  3  1  0  0  0  0
  5  6  1  1  0  0  0
  5 26  1  0  0  0  0
  6 24  1  0  0  0  0
  7 18  1  6  0  0  0
  7 16  1  0  0  0  0
  8 16  1  0  0  0  0
  9 15  2  0  0  0  0
 10  1  1  0  0  0  0
 12  8  1  0  0  0  0
 13 12  1  0  0  0  0
 13 11  1  0  0  0  0
 14 26  1  0  0  0  0
 14 21  2  0  0  0  0
 15 17  1  0  0  0  0
 16 10  1  1  0  0  0
 17  6  2  0  0  0  0
 18 19  1  0  0  0  0
 19 28  1  6  0  0  0
 19  1  1  0  0  0  0
 20 21  1  0  0  0  0
 20  4  1  0  0  0  0
 21 13  1  0  0  0  0
 22 14  1  0  0  0  0
 23 24  1  1  0  0  0
 23  7  1  0  0  0  0
 25  9  1  0  0  0  0
 26  2  1  0  0  0  0
 27  9  1  1  0  0  0
 27 22  1  0  0  0  0
 27  5  1  0  0  0  0
 29 28  1  0  0  0  0
 30 31  1  0  0  0  0
 30 29  1  0  0  0  0
 32 30  2  0  0  0  0
M  END
>  <MODEL>
4

>  <REMARK>
 VINA RESULT:      -8.8      1.884      2.315
  Name = 
  3 active torsions:
  status: ('A' for Active; 'I' for Inactive)
    1  A    between atoms: C_1  and  C_10
    2  A    between atoms: C_10  and  C_19
    3  A    between atoms: C_19  and  C_24
                            x       y       z     vdW  Elec       q    Type
                         _______ _______ _______ _____ _____    ______ ____

>  <TORSDO>
F 3

$$$$
=
 OpenBabel11052416483D

 32 38  0  0  1  0  0  0  0  0999 V2000
  181.4870  178.9620  138.9290 C   0  0  0  0  0  2  0  0  0  0  0  0
  186.2640  178.5620  140.0040 C   0  0  0  0  0  0  0  0  0  0  0  0
  188.1940  177.4880  135.6390 C   0  0  0  0  0  3  0  0  0  0  0  0
  189.2650  176.7140  136.3530 C   0  0  0  0  0  2  0  0  0  0  0  0
  188.0110  178.4870  141.8900 C   0  0  2  0  0  3  0  0  0  0  0  0
  186.9280  177.8830  142.7200 C   0  0  0  0  0  0  0  0  0  0  0  0
  183.8310  178.6950  140.1610 C   0  0  1  0  0  3  0  0  0  0  0  0
  184.9540  178.0960  138.0260 N   0  0  0  0  0  2  0  0  0  0  0  0
  189.5490  176.6920  142.8950 C   0  0  0  0  0  0  0  0  0  0  0  0
  182.4780  178.1360  138.1040 C   0  0  0  0  0  2  0  0  0  0  0  0
  187.2580  178.1470  136.3260 C   0  0  0  0  0  3  0  0  0  0  0  0
  186.1200  178.3590  138.5430 C   0  0  0  0  0  0  0  0  0  0  0  0
  187.3250  178.2240  137.7580 N   0  0  0  0  0  0  0  0  0  0  0  0
  188.6730  178.0650  139.7520 C   0  0  0  0  0  0  0  0  0  0  0  0
  188.5680  176.3560  143.7470 C   0  0  0  0  0  3  0  0  0  0  0  0
  183.7740  177.8750  138.8670 C   0  0  2  0  0  3  0  0  0  0  0  0
  187.1990  176.9240  143.6200 C   0  0  0  0  0  3  0  0  0  0  0  0
  182.7820  178.3040  141.0180 O   0  0  0  0  0  0  0  0  0  0  0  0
  181.5100  178.5630  140.4260 C   0  0  1  0  0  3  0  0  0  0  0  0
  189.7460  177.4330  137.6120 C   0  0  0  0  0  2  0  0  0  0  0  0
  188.5760  177.9100  138.4240 C   0  0  0  0  0  0  0  0  0  0  0  0
  189.6380  177.4200  140.5750 N   0  0  0  0  0  2  0  0  0  0  0  0
  185.1840  178.5720  140.8120 C   0  0  2  0  0  3  0  0  0  0  0  0
  185.3250  178.6770  142.6200 S   0  0  0  0  0  0  0  0  0  0  0  0
  190.8850  176.0440  142.9950 C   0  0  0  0  0  1  0  0  0  0  0  0
  187.6020  178.5970  140.5090 N   0  0  0  0  0  0  0  0  0  0  0  0
  189.2240  177.6060  141.7930 C   0  0  1  0  0  3  0  0  0  0  0  0
  180.6870  179.5240  141.2810 C   0  0  0  0  0  2  0  0  0  0  0  0
  179.6680  178.8120  142.1650 C   0  0  0  0  0  2  0  0  0  0  0  0
  180.2380  178.4850  143.5040 C   0  0  0  0  0  0  0  0  0  0  0  0
  181.4860  178.9720  143.8730 O   0  0  0  0  0  0  0  0  0  0  0  0
  179.6000  177.7400  144.2910 O   0  0  0  0  0  1  0  0  0  0  0  0
  1 19  1  0  0  0  0
  2 26  1  0  0  0  0
  3 11  2  0  0  0  0
  3  4  1  0  0  0  0
  4 20  1  0  0  0  0
  5  6  1  1  0  0  0
  6 17  2  0  0  0  0
  7 23  1  0  0  0  0
  7 18  1  1  0  0  0
  8 12  1  0  0  0  0
  8 16  1  0  0  0  0
  9 25  1  0  0  0  0
  9 15  2  0  0  0  0
 10  1  1  0  0  0  0
 11 13  1  0  0  0  0
 12  2  2  0  0  0  0
 13 21  1  0  0  0  0
 13 12  1  0  0  0  0
 14 26  1  0  0  0  0
 14 22  1  0  0  0  0
 16 10  1  6  0  0  0
 16  7  1  0  0  0  0
 17 15  1  0  0  0  0
 19 18  1  0  0  0  0
 19 28  1  1  0  0  0
 20 21  1  0  0  0  0
 21 14  2  0  0  0  0
 23  2  1  6  0  0  0
 23 24  1  0  0  0  0
 24  6  1  0  0  0  0
 26  5  1  0  0  0  0
 27 22  1  6  0  0  0
 27  5  1  0  0  0  0
 27  9  1  0  0  0  0
 28 29  1  0  0  0  0
 29 30  1  0  0  0  0
 30 31  2  0  0  0  0
 30 32  1  0  0  0  0
M  END
>  <MODEL>
5

>  <REMARK>
 VINA RESULT:      -8.4      3.908      7.231
  Name = 
  3 active torsions:
  status: ('A' for Active; 'I' for Inactive)
    1  A    between atoms: C_1  and  C_10
    2  A    between atoms: C_10  and  C_19
    3  A    between atoms: C_19  and  C_24
                            x       y       z     vdW  Elec       q    Type
                         _______ _______ _______ _____ _____    ______ ____

>  <TORSDO>
F 3

$$$$
=
 OpenBabel11052416483D

 32 38  0  0  1  0  0  0  0  0999 V2000
  190.3900  177.5160  143.4150 C   0  0  0  0  0  2  0  0  0  0  0  0
  186.2320  178.6190  141.0410 C   0  0  0  0  0  0  0  0  0  0  0  0
  183.0120  178.8830  144.7140 C   0  0  0  0  0  3  0  0  0  0  0  0
  181.9480  178.4280  143.7560 C   0  0  0  0  0  2  0  0  0  0  0  0
  185.1130  178.8810  138.7400 C   0  0  2  0  0  3  0  0  0  0  0  0
  186.0720  177.8360  138.2770 C   0  0  0  0  0  0  0  0  0  0  0  0
  188.5010  177.8930  141.5790 C   0  0  1  0  0  3  0  0  0  0  0  0
  186.7380  178.0140  143.3270 N   0  0  0  0  0  2  0  0  0  0  0  0
  183.3320  177.5960  137.4100 C   0  0  0  0  0  0  0  0  0  0  0  0
  188.9910  177.1990  143.9560 C   0  0  0  0  0  2  0  0  0  0  0  0
  184.2640  179.0820  144.2970 C   0  0  0  0  0  3  0  0  0  0  0  0
  185.9200  178.5850  142.4890 C   0  0  0  0  0  0  0  0  0  0  0  0
  184.5930  178.9780  142.9040 N   0  0  0  0  0  0  0  0  0  0  0  0
  183.8280  179.0120  140.6160 C   0  0  0  0  0  0  0  0  0  0  0  0
  184.3030  176.8310  136.8860 C   0  0  0  0  0  3  0  0  0  0  0  0
  187.9260  177.2920  142.8660 C   0  0  2  0  0  3  0  0  0  0  0  0
  185.7060  176.9120  137.3750 C   0  0  0  0  0  3  0  0  0  0  0  0
  189.5130  177.0540  141.0720 O   0  0  0  0  0  0  0  0  0  0  0  0
  190.6000  176.9450  141.9910 C   0  0  1  0  0  3  0  0  0  0  0  0
  182.0970  179.0850  142.3840 C   0  0  0  0  0  2  0  0  0  0  0  0
  183.5240  179.0190  141.9210 C   0  0  0  0  0  0  0  0  0  0  0  0
  182.9350  178.6250  139.5780 N   0  0  0  0  0  2  0  0  0  0  0  0
  187.4070  178.1490  140.5750 C   0  0  2  0  0  3  0  0  0  0  0  0
  187.7740  178.0440  138.7980 S   0  0  0  0  0  0  0  0  0  0  0  0
  181.9240  177.4330  136.9580 C   0  0  0  0  0  1  0  0  0  0  0  0
  185.1730  179.0360  140.1750 N   0  0  0  0  0  0  0  0  0  0  0  0
  183.6810  178.4890  138.5220 C   0  0  1  0  0  3  0  0  0  0  0  0
  191.9030  177.4400  141.3690 C   0  0  0  0  0  2  0  0  0  0  0  0
  191.8950  177.3840  139.8440 C   0  0  0  0  0  2  0  0  0  0  0  0
  193.2480  177.0690  139.3010 C   0  0  0  0  0  0  0  0  0  0  0  0
  193.4160  176.8020  137.9470 O   0  0  0  0  0  0  0  0  0  0  0  0
  194.2370  177.0150  140.0760 O   0  0  0  0  0  1  0  0  0  0  0  0
  1 10  1  0  0  0  0
  2 12  2  0  0  0  0
  4  3  1  0  0  0  0
  5  6  1  1  0  0  0
  5 26  1  0  0  0  0
  6 24  1  0  0  0  0
  7 18  1  6  0  0  0
  7 16  1  0  0  0  0
 11  3  2  0  0  0  0
 12 13  1  0  0  0  0
 12  8  1  0  0  0  0
 13 11  1  0  0  0  0
 14 21  2  0  0  0  0
 15 17  1  0  0  0  0
 15  9  2  0  0  0  0
 16  8  1  0  0  0  0
 16 10  1  1  0  0  0
 17  6  2  0  0  0  0
 18 19  1  0  0  0  0
 19 28  1  6  0  0  0
 19  1  1  0  0  0  0
 20  4  1  0  0  0  0
 21 20  1  0  0  0  0
 21 13  1  0  0  0  0
 22 14  1  0  0  0  0
 23 24  1  6  0  0  0
 23  2  1  0  0  0  0
 23  7  1  0  0  0  0
 25  9  1  0  0  0  0
 26 14  1  0  0  0  0
 26  2  1  0  0  0  0
 27  9  1  1  0  0  0
 27  5  1  0  0  0  0
 27 22  1  0  0  0  0
 29 28  1  0  0  0  0
 30 29  1  0  0  0  0
 30 32  1  0  0  0  0
 31 30  2  0  0  0  0
M  END
>  <MODEL>
6

>  <REMARK>
 VINA RESULT:      -8.4      2.990      4.850
  Name = 
  3 active torsions:
  status: ('A' for Active; 'I' for Inactive)
    1  A    between atoms: C_1  and  C_10
    2  A    between atoms: C_10  and  C_19
    3  A    between atoms: C_19  and  C_24
                            x       y       z     vdW  Elec       q    Type
                         _______ _______ _______ _____ _____    ______ ____

>  <TORSDO>
F 3

$$$$
=
 OpenBabel11052416483D

 32 38  0  0  1  0  0  0  0  0999 V2000
  188.2630  177.9130  144.9230 C   0  0  0  0  0  2  0  0  0  0  0  0
  184.9300  178.8250  141.4310 C   0  0  0  0  0  0  0  0  0  0  0  0
  180.7500  178.6970  143.9680 C   0  0  0  0  0  3  0  0  0  0  0  0
  180.0610  178.2110  142.7240 C   0  0  0  0  0  2  0  0  0  0  0  0
  184.5330  179.1110  138.9060 C   0  0  2  0  0  3  0  0  0  0  0  0
  185.6670  178.1570  138.7310 C   0  0  0  0  0  0  0  0  0  0  0  0
  186.9850  178.2380  142.6120 C   0  0  1  0  0  3  0  0  0  0  0  0
  184.7770  178.1560  143.7500 N   0  0  0  0  0  2  0  0  0  0  0  0
  183.3400  177.7630  137.0730 C   0  0  0  0  0  0  0  0  0  0  0  0
  186.7980  177.4750  145.0110 C   0  0  0  0  0  2  0  0  0  0  0  0
  182.0490  179.0030  143.9520 C   0  0  0  0  0  3  0  0  0  0  0  0
  184.2030  178.7040  142.7160 C   0  0  0  0  0  0  0  0  0  0  0  0
  182.7860  178.9840  142.7200 N   0  0  0  0  0  0  0  0  0  0  0  0
  182.7390  179.0660  140.3100 C   0  0  0  0  0  0  0  0  0  0  0  0
  184.4810  177.0930  136.8500 C   0  0  0  0  0  3  0  0  0  0  0  0
  186.1030  177.5400  143.6530 C   0  0  2  0  0  3  0  0  0  0  0  0
  185.6630  177.2510  137.7410 C   0  0  0  0  0  3  0  0  0  0  0  0
  188.1670  177.4960  142.4150 O   0  0  0  0  0  0  0  0  0  0  0  0
  188.9340  177.4220  143.6160 C   0  0  1  0  0  3  0  0  0  0  0  0
  180.5590  178.9380  141.4750 C   0  0  0  0  0  2  0  0  0  0  0  0
  182.0600  178.9930  141.4630 C   0  0  0  0  0  0  0  0  0  0  0  0
  182.2310  178.6640  139.0430 N   0  0  0  0  0  2  0  0  0  0  0  0
  186.2250  178.4600  141.3310 C   0  0  2  0  0  3  0  0  0  0  0  0
  187.1130  178.4610  139.7450 S   0  0  0  0  0  0  0  0  0  0  0  0
  182.1480  177.5220  136.2150 C   0  0  0  0  0  1  0  0  0  0  0  0
  184.1480  179.2050  140.2950 N   0  0  0  0  0  0  0  0  0  0  0  0
  183.2670  178.6280  138.2580 C   0  0  1  0  0  3  0  0  0  0  0  0
  190.3200  178.0350  143.4270 C   0  0  0  0  0  2  0  0  0  0  0  0
  191.1000  178.1610  144.7320 C   0  0  0  0  0  2  0  0  0  0  0  0
  191.6450  176.8450  145.1730 C   0  0  0  0  0  0  0  0  0  0  0  0
  192.0550  176.6600  146.4880 O   0  0  0  0  0  1  0  0  0  0  0  0
  191.7630  175.9070  144.3430 O   0  0  0  0  0  0  0  0  0  0  0  0
  1 10  1  0  0  0  0
  2 12  2  0  0  0  0
  4  3  1  0  0  0  0
  5  6  1  1  0  0  0
  5 26  1  0  0  0  0
  6 24  1  0  0  0  0
  7 18  1  6  0  0  0
  7 16  1  0  0  0  0
 11  3  2  0  0  0  0
 12 13  1  0  0  0  0
 12  8  1  0  0  0  0
 13 11  1  0  0  0  0
 14 21  2  0  0  0  0
 15  9  2  0  0  0  0
 15 17  1  0  0  0  0
 16  8  1  0  0  0  0
 16 10  1  1  0  0  0
 17  6  2  0  0  0  0
 18 19  1  0  0  0  0
 19 28  1  6  0  0  0
 19  1  1  0  0  0  0
 20  4  1  0  0  0  0
 21 20  1  0  0  0  0
 21 13  1  0  0  0  0
 22 14  1  0  0  0  0
 23 24  1  1  0  0  0
 23  2  1  0  0  0  0
 23  7  1  0  0  0  0
 25  9  1  0  0  0  0
 26 14  1  0  0  0  0
 26  2  1  0  0  0  0
 27  9  1  1  0  0  0
 27  5  1  0  0  0  0
 27 22  1  0  0  0  0
 28 29  1  0  0  0  0
 29 30  1  0  0  0  0
 30 31  1  0  0  0  0
 32 30  2  0  0  0  0
M  END
>  <MODEL>
7

>  <REMARK>
 VINA RESULT:      -8.4      2.644      3.999
  Name = 
  3 active torsions:
  status: ('A' for Active; 'I' for Inactive)
    1  A    between atoms: C_1  and  C_10
    2  A    between atoms: C_10  and  C_19
    3  A    between atoms: C_19  and  C_24
                            x       y       z     vdW  Elec       q    Type
                         _______ _______ _______ _____ _____    ______ ____

>  <TORSDO>
F 3

$$$$
=
 OpenBabel11052416483D

 32 38  0  0  1  0  0  0  0  0999 V2000
  183.0830  177.7080  136.1150 C   0  0  0  0  0  2  0  0  0  0  0  0
  186.8840  178.1540  139.1950 C   0  0  0  0  0  0  0  0  0  0  0  0
  190.4670  175.9440  136.7020 C   0  0  0  0  0  3  0  0  0  0  0  0
  191.0780  175.5490  138.0170 C   0  0  0  0  0  2  0  0  0  0  0  0
  187.6270  178.8600  141.5540 C   0  0  2  0  0  3  0  0  0  0  0  0
  186.2610  178.4460  141.9890 C   0  0  0  0  0  0  0  0  0  0  0  0
  184.6380  178.0840  138.2420 C   0  0  1  0  0  3  0  0  0  0  0  0
  186.5470  176.9520  137.1240 N   0  0  0  0  0  2  0  0  0  0  0  0
  188.4770  177.6430  143.6500 C   0  0  0  0  0  0  0  0  0  0  0  0
  184.2910  176.7660  136.1170 C   0  0  0  0  0  2  0  0  0  0  0  0
  189.3610  176.6900  136.6620 C   0  0  0  0  0  3  0  0  0  0  0  0
  187.3820  177.4830  137.9710 C   0  0  0  0  0  0  0  0  0  0  0  0
  188.8010  177.2260  137.8700 N   0  0  0  0  0  0  0  0  0  0  0  0
  189.1330  177.8480  140.1770 C   0  0  0  0  0  0  0  0  0  0  0  0
  187.2070  177.4990  144.0580 C   0  0  0  0  0  3  0  0  0  0  0  0
  185.1090  176.8940  137.4000 C   0  0  2  0  0  3  0  0  0  0  0  0
  186.0620  177.8570  143.1790 C   0  0  0  0  0  3  0  0  0  0  0  0
  183.3010  177.8830  138.6440 O   0  0  0  0  0  0  0  0  0  0  0  0
  182.4300  177.8120  137.5160 C   0  0  1  0  0  3  0  0  0  0  0  0
  190.9980  176.6770  139.0450 C   0  0  0  0  0  2  0  0  0  0  0  0
  189.6170  177.2680  139.0700 C   0  0  0  0  0  0  0  0  0  0  0  0
  189.6070  177.5980  141.4960 N   0  0  0  0  0  2  0  0  0  0  0  0
  185.5620  178.3120  139.4090 C   0  0  2  0  0  3  0  0  0  0  0  0
  184.9050  179.0020  140.9570 S   0  0  0  0  0  0  0  0  0  0  0  0
  189.6000  177.1980  144.5200 C   0  0  0  0  0  1  0  0  0  0  0  0
  187.8670  178.4820  140.1810 N   0  0  0  0  0  0  0  0  0  0  0  0
  188.7130  178.1210  142.2820 C   0  0  1  0  0  3  0  0  0  0  0  0
  181.3680  178.9070  137.5660 C   0  0  0  0  0  2  0  0  0  0  0  0
  181.3780  179.6880  138.8760 C   0  0  0  0  0  2  0  0  0  0  0  0
  181.8910  181.0750  138.6830 C   0  0  0  0  0  0  0  0  0  0  0  0
  181.0100  182.1200  138.4330 O   0  0  0  0  0  0  0  0  0  0  0  0
  183.1280  181.2950  138.7180 O   0  0  0  0  0  1  0  0  0  0  0  0
  1 10  1  0  0  0  0
  1 19  1  0  0  0  0
  2 26  1  0  0  0  0
  3  4  1  0  0  0  0
  4 20  1  0  0  0  0
  5  6  1  1  0  0  0
  5 27  1  0  0  0  0
  6 17  2  0  0  0  0
  7 18  1  1  0  0  0
  7 23  1  0  0  0  0
  8 16  1  0  0  0  0
  8 12  1  0  0  0  0
  9 15  2  0  0  0  0
  9 25  1  0  0  0  0
 11  3  2  0  0  0  0
 11 13  1  0  0  0  0
 12  2  2  0  0  0  0
 13 12  1  0  0  0  0
 13 21  1  0  0  0  0
 14 26  1  0  0  0  0
 14 22  1  0  0  0  0
 16 10  1  6  0  0  0
 16  7  1  0  0  0  0
 17 15  1  0  0  0  0
 19 28  1  6  0  0  0
 19 18  1  0  0  0  0
 20 21  1  0  0  0  0
 21 14  2  0  0  0  0
 23  2  1  6  0  0  0
 23 24  1  0  0  0  0
 24  6  1  0  0  0  0
 26  5  1  0  0  0  0
 27 22  1  6  0  0  0
 27  9  1  0  0  0  0
 28 29  1  0  0  0  0
 30 32  1  0  0  0  0
 30 29  1  0  0  0  0
 31 30  2  0  0  0  0
M  END
>  <MODEL>
8

>  <REMARK>
 VINA RESULT:      -8.0      4.071      8.259
  Name = 
  3 active torsions:
  status: ('A' for Active; 'I' for Inactive)
    1  A    between atoms: C_1  and  C_10
    2  A    between atoms: C_10  and  C_19
    3  A    between atoms: C_19  and  C_24
                            x       y       z     vdW  Elec       q    Type
                         _______ _______ _______ _____ _____    ______ ____

>  <TORSDO>
F 3

$$$$
=
 OpenBabel11052416483D

 32 38  0  0  1  0  0  0  0  0999 V2000
  191.0030  177.1100  141.0860 C   0  0  0  0  0  2  0  0  0  0  0  0
  186.3660  178.5380  141.8620 C   0  0  0  0  0  0  0  0  0  0  0  0
  186.0240  178.2460  146.7340 C   0  0  0  0  0  3  0  0  0  0  0  0
  184.5630  177.9330  146.5680 C   0  0  0  0  0  2  0  0  0  0  0  0
  184.1210  179.1330  140.7580 C   0  0  2  0  0  3  0  0  0  0  0  0
  184.5170  178.1710  139.6890 C   0  0  0  0  0  0  0  0  0  0  0  0
  188.4320  177.7480  140.8270 C   0  0  1  0  0  3  0  0  0  0  0  0
  188.0860  177.6040  143.2840 N   0  0  0  0  0  2  0  0  0  0  0  0
  181.7950  178.0520  140.6350 C   0  0  0  0  0  0  0  0  0  0  0  0
  190.1860  176.7130  142.3190 C   0  0  0  0  0  2  0  0  0  0  0  0
  186.7890  178.5080  145.6720 C   0  0  0  0  0  3  0  0  0  0  0  0
  186.9810  178.2890  143.1870 C   0  0  0  0  0  0  0  0  0  0  0  0
  186.2070  178.6120  144.3630 N   0  0  0  0  0  0  0  0  0  0  0  0
  184.2320  178.9810  143.0290 C   0  0  0  0  0  0  0  0  0  0  0  0
  182.1880  177.3760  139.5440 C   0  0  0  0  0  3  0  0  0  0  0  0
  188.6930  176.9610  142.1160 C   0  0  2  0  0  3  0  0  0  0  0  0
  183.6050  177.3890  139.0900 C   0  0  0  0  0  3  0  0  0  0  0  0
  188.8630  176.9960  139.7150 O   0  0  0  0  0  0  0  0  0  0  0  0
  190.2680  176.7570  139.7690 C   0  0  1  0  0  3  0  0  0  0  0  0
  183.9180  178.7860  145.4760 C   0  0  0  0  0  2  0  0  0  0  0  0
  184.7720  178.7940  144.2410 C   0  0  0  0  0  0  0  0  0  0  0  0
  182.8650  178.7480  142.7050 N   0  0  0  0  0  2  0  0  0  0  0  0
  186.9830  178.1450  140.7290 C   0  0  2  0  0  3  0  0  0  0  0  0
  186.2030  178.3050  139.0950 S   0  0  0  0  0  0  0  0  0  0  0  0
  180.3890  177.9530  141.1120 C   0  0  0  0  0  1  0  0  0  0  0  0
  185.0410  179.0750  141.8710 N   0  0  0  0  0  0  0  0  0  0  0  0
  182.8160  178.7720  141.4060 C   0  0  1  0  0  3  0  0  0  0  0  0
  190.9770  177.3430  138.5500 C   0  0  0  0  0  2  0  0  0  0  0  0
  191.8040  176.3110  137.7880 C   0  0  0  0  0  2  0  0  0  0  0  0
  193.2630  176.6050  137.8760 C   0  0  0  0  0  0  0  0  0  0  0  0
  193.8760  176.7530  139.1140 O   0  0  0  0  0  1  0  0  0  0  0  0
  193.9370  176.7500  136.8240 O   0  0  0  0  0  0  0  0  0  0  0  0
  1 10  1  0  0  0  0
  2 26  1  0  0  0  0
  2 12  2  0  0  0  0
  4  3  1  0  0  0  0
  5  6  1  6  0  0  0
  5 27  1  0  0  0  0
  5 26  1  0  0  0  0
  7 18  1  6  0  0  0
  7 16  1  0  0  0  0
  9 25  1  0  0  0  0
 11  3  2  0  0  0  0
 12  8  1  0  0  0  0
 12 13  1  0  0  0  0
 13 11  1  0  0  0  0
 14 21  2  0  0  0  0
 15  9  2  0  0  0  0
 16 10  1  1  0  0  0
 16  8  1  0  0  0  0
 17 15  1  0  0  0  0
 17  6  2  0  0  0  0
 18 19  1  0  0  0  0
 19 28  1  6  0  0  0
 19  1  1  0  0  0  0
 20  4  1  0  0  0  0
 21 13  1  0  0  0  0
 21 20  1  0  0  0  0
 22 14  1  0  0  0  0
 23 24  1  6  0  0  0
 23  7  1  0  0  0  0
 23  2  1  0  0  0  0
 24  6  1  0  0  0  0
 26 14  1  0  0  0  0
 27  9  1  6  0  0  0
 27 22  1  0  0  0  0
 29 30  1  0  0  0  0
 29 28  1  0  0  0  0
 30 31  1  0  0  0  0
 32 30  2  0  0  0  0
M  END
>  <MODEL>
9

>  <REMARK>
 VINA RESULT:      -8.0      3.388      6.459
  Name = 
  3 active torsions:
  status: ('A' for Active; 'I' for Inactive)
    1  A    between atoms: C_1  and  C_10
    2  A    between atoms: C_10  and  C_19
    3  A    between atoms: C_19  and  C_24
                            x       y       z     vdW  Elec       q    Type
                         _______ _______ _______ _____ _____    ______ ____

>  <TORSDO>
F 3

$$$$
