=
 OpenBabel11052412423D

 25 27  0  0  1  0  0  0  0  0999 V2000
  187.0420  177.4460  145.0770 C   0  0  1  0  0  3  0  0  0  0  0  0
  188.5010  177.7390  144.6660 C   0  0  2  0  0  3  0  0  0  0  0  0
  187.8880  177.7300  147.4520 C   0  0  0  0  0  2  0  0  0  0  0  0
  189.2450  177.3110  146.9840 C   0  0  0  0  0  3  0  0  0  0  0  0
  190.9130  176.9690  145.2540 C   0  0  0  0  0  0  0  0  0  0  0  0
  191.8900  177.2340  146.0050 O   0  0  0  0  0  0  0  0  0  0  0  0
  188.7430  177.2320  143.2430 C   0  0  0  0  0  2  0  0  0  0  0  0
  186.8310  177.0870  146.5630 C   0  0  0  0  0  2  0  0  0  0  0  0
  191.2210  176.2420  143.6460 S   0  0  0  0  0  0  0  0  0  0  0  0
  190.1830  177.4660  142.8050 C   0  0  1  0  0  3  0  0  0  0  0  0
  189.5360  177.2730  145.6800 C   0  0  0  0  0  0  0  0  0  0  0  0
  186.0840  178.5350  144.5810 C   0  0  2  0  0  3  0  0  0  0  0  0
  183.2730  178.7850  143.7260 C   0  0  0  0  0  2  0  0  0  0  0  0
  184.9600  178.8490  145.5560 C   0  0  0  0  0  0  0  0  0  0  0  0
  183.6960  179.0040  145.1490 C   0  0  0  0  0  3  0  0  0  0  0  0
  184.4210  179.0740  142.7690 C   0  0  0  0  0  2  0  0  0  0  0  0
  185.2550  179.0670  146.8960 O   0  0  0  0  0  1  0  0  0  0  0  0
  185.6050  178.2030  143.1610 C   0  0  0  0  0  2  0  0  0  0  0  0
  190.3050  177.2780  141.3300 C   0  0  0  0  0  3  0  0  0  0  0  0
  189.5390  177.9720  140.4890 C   0  0  0  0  0  3  0  0  0  0  0  0
  189.6590  177.7850  139.0090 C   0  0  1  0  0  3  0  0  0  0  0  0
  189.4680  176.3220  138.6650 C   0  0  0  0  0  1  0  0  0  0  0  0
  188.6550  178.6170  138.2800 C   0  0  0  0  0  0  0  0  0  0  0  0
  187.2940  178.4400  138.5010 O   0  0  0  0  0  1  0  0  0  0  0  0
  189.0450  179.4870  137.4570 O   0  0  0  0  0  0  0  0  0  0  0  0
  1  8  1  1  0  0  0
  2  7  1  6  0  0  0
  2  1  1  0  0  0  0
  2 11  1  0  0  0  0
  4  3  1  0  0  0  0
  5 11  1  0  0  0  0
  5  6  2  0  0  0  0
  8  3  1  0  0  0  0
  9  5  1  0  0  0  0
 10 19  1  6  0  0  0
 10  7  1  0  0  0  0
 10  9  1  0  0  0  0
 11  4  2  0  0  0  0
 12 18  1  6  0  0  0
 12  1  1  0  0  0  0
 12 14  1  0  0  0  0
 13 15  1  0  0  0  0
 14 17  1  0  0  0  0
 15 14  2  0  0  0  0
 16 18  1  0  0  0  0
 16 13  1  0  0  0  0
 20 19  2  0  0  0  0
 21 22  1  1  0  0  0
 21 20  1  0  0  0  0
 23 24  1  0  0  0  0
 23 21  1  0  0  0  0
 25 23  2  0  0  0  0
M  END
>  <MODEL>
1

>  <REMARK>
 VINA RESULT:     -10.1      0.000      0.000
  Name = 
  4 active torsions:
  status: ('A' for Active; 'I' for Inactive)
    1  A    between atoms: C_1  and  C_5
    2  A    between atoms: C_2  and  C_21
    3  A    between atoms: C_6  and  C_23
    4  A    between atoms: C_15  and  C_21
                            x       y       z     vdW  Elec       q    Type
                         _______ _______ _______ _____ _____    ______ ____

>  <TORSDO>
F 4

$$$$
=
 OpenBabel11052412423D

 25 27  0  0  1  0  0  0  0  0999 V2000
  187.0990  177.4760  145.2620 C   0  0  1  0  0  3  0  0  0  0  0  0
  188.5420  177.6570  144.7420 C   0  0  2  0  0  3  0  0  0  0  0  0
  188.0830  178.0470  147.5300 C   0  0  0  0  0  2  0  0  0  0  0  0
  189.3980  177.5190  147.0560 C   0  0  0  0  0  3  0  0  0  0  0  0
  190.9590  176.8840  145.3070 C   0  0  0  0  0  0  0  0  0  0  0  0
  191.9830  177.2120  145.9650 O   0  0  0  0  0  0  0  0  0  0  0  0
  188.6900  176.9540  143.3910 C   0  0  0  0  0  2  0  0  0  0  0  0
  186.9590  177.3300  146.7910 C   0  0  0  0  0  2  0  0  0  0  0  0
  191.1560  175.9360  143.8000 S   0  0  0  0  0  0  0  0  0  0  0  0
  190.1100  177.0740  142.8530 C   0  0  1  0  0  3  0  0  0  0  0  0
  189.6160  177.2940  145.7560 C   0  0  0  0  0  0  0  0  0  0  0  0
  186.1480  178.5230  144.6700 C   0  0  2  0  0  3  0  0  0  0  0  0
  183.3690  178.6880  143.6990 C   0  0  0  0  0  2  0  0  0  0  0  0
  184.9840  178.8760  145.5840 C   0  0  0  0  0  0  0  0  0  0  0  0
  183.7350  178.9910  145.1220 C   0  0  0  0  0  3  0  0  0  0  0  0
  184.5490  178.9390  142.7700 C   0  0  0  0  0  2  0  0  0  0  0  0
  185.2260  179.1720  146.9200 O   0  0  0  0  0  1  0  0  0  0  0  0
  185.7280  178.1070  143.2540 C   0  0  0  0  0  2  0  0  0  0  0  0
  190.1450  176.6830  141.4140 C   0  0  0  0  0  3  0  0  0  0  0  0
  189.5060  177.4080  140.4950 C   0  0  0  0  0  3  0  0  0  0  0  0
  189.5400  177.0190  139.0510 C   0  0  1  0  0  3  0  0  0  0  0  0
  189.3780  178.2540  138.1880 C   0  0  0  0  0  1  0  0  0  0  0  0
  190.8190  176.3250  138.7120 C   0  0  0  0  0  0  0  0  0  0  0  0
  190.8290  174.9660  138.4130 O   0  0  0  0  0  0  0  0  0  0  0  0
  191.8970  176.9740  138.6970 O   0  0  0  0  0  1  0  0  0  0  0  0
  1  8  1  1  0  0  0
  2  7  1  6  0  0  0
  2  1  1  0  0  0  0
  2 11  1  0  0  0  0
  4  3  1  0  0  0  0
  5 11  1  0  0  0  0
  5  6  2  0  0  0  0
  8  3  1  0  0  0  0
  9  5  1  0  0  0  0
 10 19  1  6  0  0  0
 10  7  1  0  0  0  0
 10  9  1  0  0  0  0
 11  4  2  0  0  0  0
 12 18  1  6  0  0  0
 12  1  1  0  0  0  0
 12 14  1  0  0  0  0
 13 15  1  0  0  0  0
 14 17  1  0  0  0  0
 15 14  2  0  0  0  0
 16 18  1  0  0  0  0
 16 13  1  0  0  0  0
 20 19  2  0  0  0  0
 21 22  1  6  0  0  0
 21 20  1  0  0  0  0
 23 21  1  0  0  0  0
 24 23  2  0  0  0  0
 25 23  1  0  0  0  0
M  END
>  <MODEL>
2

>  <REMARK>
 VINA RESULT:     -10.1      1.345      1.509
  Name = 
  4 active torsions:
  status: ('A' for Active; 'I' for Inactive)
    1  A    between atoms: C_1  and  C_5
    2  A    between atoms: C_2  and  C_21
    3  A    between atoms: C_6  and  C_23
    4  A    between atoms: C_15  and  C_21
                            x       y       z     vdW  Elec       q    Type
                         _______ _______ _______ _____ _____    ______ ____

>  <TORSDO>
F 4

$$$$
=
 OpenBabel11052412423D

 25 27  0  0  1  0  0  0  0  0999 V2000
  186.7280  177.4830  144.6960 C   0  0  1  0  0  3  0  0  0  0  0  0
  188.0940  177.7980  144.0490 C   0  0  2  0  0  3  0  0  0  0  0  0
  187.9500  177.7880  146.8980 C   0  0  0  0  0  2  0  0  0  0  0  0
  189.2170  177.3890  146.2120 C   0  0  0  0  0  3  0  0  0  0  0  0
  190.5830  177.0680  144.2300 C   0  0  0  0  0  0  0  0  0  0  0  0
  191.6660  177.3510  144.8100 O   0  0  0  0  0  0  0  0  0  0  0  0
  188.1060  177.2900  142.6060 C   0  0  0  0  0  2  0  0  0  0  0  0
  186.7710  177.1260  146.1960 C   0  0  0  0  0  2  0  0  0  0  0  0
  190.6330  176.3410  142.5940 S   0  0  0  0  0  0  0  0  0  0  0  0
  189.4490  177.5460  141.9360 C   0  0  1  0  0  3  0  0  0  0  0  0
  189.2900  177.3520  144.8780 C   0  0  0  0  0  0  0  0  0  0  0  0
  185.6830  178.5540  144.3640 C   0  0  2  0  0  3  0  0  0  0  0  0
  182.7790  178.7400  143.8900 C   0  0  0  0  0  2  0  0  0  0  0  0
  184.6880  178.8050  145.4870 C   0  0  0  0  0  0  0  0  0  0  0  0
  183.3780  178.9310  145.2520 C   0  0  0  0  0  3  0  0  0  0  0  0
  183.7830  179.0930  142.8020 C   0  0  0  0  0  2  0  0  0  0  0  0
  185.1500  178.9930  146.7830 O   0  0  0  0  0  1  0  0  0  0  0  0
  185.0320  178.2490  143.0080 C   0  0  0  0  0  2  0  0  0  0  0  0
  189.3290  177.3540  140.4610 C   0  0  0  0  0  3  0  0  0  0  0  0
  188.2090  177.6870  139.8200 C   0  0  0  0  0  3  0  0  0  0  0  0
  188.0850  177.4970  138.3410 C   0  0  1  0  0  3  0  0  0  0  0  0
  186.6970  177.9050  137.8900 C   0  0  0  0  0  1  0  0  0  0  0  0
  189.1150  178.2950  137.6090 C   0  0  0  0  0  0  0  0  0  0  0  0
  189.0150  179.6810  137.5350 O   0  0  0  0  0  1  0  0  0  0  0  0
  190.0810  177.7090  137.0550 O   0  0  0  0  0  0  0  0  0  0  0  0
  1  8  1  1  0  0  0
  2  7  1  6  0  0  0
  2  1  1  0  0  0  0
  2 11  1  0  0  0  0
  4  3  1  0  0  0  0
  5  6  2  0  0  0  0
  5 11  1  0  0  0  0
  8  3  1  0  0  0  0
  9  5  1  0  0  0  0
 10 19  1  6  0  0  0
 10  9  1  0  0  0  0
 10  7  1  0  0  0  0
 11  4  2  0  0  0  0
 12 18  1  6  0  0  0
 12  1  1  0  0  0  0
 12 14  1  0  0  0  0
 13 15  1  0  0  0  0
 14 17  1  0  0  0  0
 15 14  2  0  0  0  0
 16 18  1  0  0  0  0
 16 13  1  0  0  0  0
 20 19  2  0  0  0  0
 21 22  1  6  0  0  0
 21 20  1  0  0  0  0
 23 21  1  0  0  0  0
 24 23  1  0  0  0  0
 25 23  2  0  0  0  0
M  END
>  <MODEL>
3

>  <REMARK>
 VINA RESULT:      -9.8      0.979      1.244
  Name = 
  4 active torsions:
  status: ('A' for Active; 'I' for Inactive)
    1  A    between atoms: C_1  and  C_5
    2  A    between atoms: C_2  and  C_21
    3  A    between atoms: C_6  and  C_23
    4  A    between atoms: C_15  and  C_21
                            x       y       z     vdW  Elec       q    Type
                         _______ _______ _______ _____ _____    ______ ____

>  <TORSDO>
F 4

$$$$
=
 OpenBabel11052412423D

 25 27  0  0  1  0  0  0  0  0999 V2000
  188.8270  177.9600  145.3660 C   0  0  1  0  0  3  0  0  0  0  0  0
  187.3120  177.7340  145.1690 C   0  0  2  0  0  3  0  0  0  0  0  0
  188.3600  177.4570  147.8080 C   0  0  0  0  0  2  0  0  0  0  0  0
  186.9610  177.9440  147.6070 C   0  0  0  0  0  3  0  0  0  0  0  0
  185.0500  178.4840  146.2090 C   0  0  0  0  0  0  0  0  0  0  0  0
  184.1970  178.1640  147.0790 O   0  0  0  0  0  0  0  0  0  0  0  0
  186.8640  178.3830  143.8590 C   0  0  0  0  0  2  0  0  0  0  0  0
  189.2830  178.1660  146.8250 C   0  0  0  0  0  2  0  0  0  0  0  0
  184.5150  179.3710  144.7470 S   0  0  0  0  0  0  0  0  0  0  0  0
  185.3660  178.2180  143.6380 C   0  0  1  0  0  3  0  0  0  0  0  0
  186.4670  178.1160  146.3760 C   0  0  0  0  0  0  0  0  0  0  0  0
  189.6580  176.9090  144.6200 C   0  0  2  0  0  3  0  0  0  0  0  0
  190.9460  176.5660  141.9910 C   0  0  0  0  0  2  0  0  0  0  0  0
  191.0910  177.3420  144.3520 C   0  0  0  0  0  0  0  0  0  0  0  0
  191.6780  177.1400  143.1680 C   0  0  0  0  0  3  0  0  0  0  0  0
  189.8210  175.6480  142.4470 C   0  0  0  0  0  2  0  0  0  0  0  0
  191.8480  177.8860  145.3830 O   0  0  0  0  0  1  0  0  0  0  0  0
  188.9030  176.4350  143.3710 C   0  0  0  0  0  2  0  0  0  0  0  0
  185.0180  178.5530  142.2270 C   0  0  0  0  0  3  0  0  0  0  0  0
  184.0250  177.9200  141.6010 C   0  0  0  0  0  3  0  0  0  0  0  0
  183.6740  178.2550  140.1860 C   0  0  1  0  0  3  0  0  0  0  0  0
  182.3390  178.9720  140.1500 C   0  0  0  0  0  1  0  0  0  0  0  0
  184.7280  179.1080  139.5580 C   0  0  0  0  0  0  0  0  0  0  0  0
  186.0110  178.6120  139.3540 O   0  0  0  0  0  1  0  0  0  0  0  0
  184.4530  180.2860  139.2110 O   0  0  0  0  0  0  0  0  0  0  0  0
  1  8  1  1  0  0  0
  2  7  1  6  0  0  0
  2  1  1  0  0  0  0
  2 11  1  0  0  0  0
  4  3  1  0  0  0  0
  5 11  1  0  0  0  0
  5  6  2  0  0  0  0
  8  3  1  0  0  0  0
  9  5  1  0  0  0  0
 10 19  1  6  0  0  0
 10  7  1  0  0  0  0
 10  9  1  0  0  0  0
 11  4  2  0  0  0  0
 12 18  1  6  0  0  0
 12  1  1  0  0  0  0
 13 16  1  0  0  0  0
 13 15  1  0  0  0  0
 14 12  1  0  0  0  0
 14 17  1  0  0  0  0
 15 14  2  0  0  0  0
 16 18  1  0  0  0  0
 20 19  2  0  0  0  0
 21 22  1  1  0  0  0
 21 20  1  0  0  0  0
 23 21  1  0  0  0  0
 24 23  1  0  0  0  0
 25 23  2  0  0  0  0
M  END
>  <MODEL>
4

>  <REMARK>
 VINA RESULT:      -9.0      2.398      5.347
  Name = 
  4 active torsions:
  status: ('A' for Active; 'I' for Inactive)
    1  A    between atoms: C_1  and  C_5
    2  A    between atoms: C_2  and  C_21
    3  A    between atoms: C_6  and  C_23
    4  A    between atoms: C_15  and  C_21
                            x       y       z     vdW  Elec       q    Type
                         _______ _______ _______ _____ _____    ______ ____

>  <TORSDO>
F 4

$$$$
=
 OpenBabel11052412423D

 25 27  0  0  1  0  0  0  0  0999 V2000
  185.2890  178.1560  142.4050 C   0  0  1  0  0  3  0  0  0  0  0  0
  185.9930  178.5290  143.7270 C   0  0  2  0  0  3  0  0  0  0  0  0
  183.3230  179.4570  143.3440 C   0  0  0  0  0  2  0  0  0  0  0  0
  183.8140  179.1420  144.7200 C   0  0  0  0  0  3  0  0  0  0  0  0
  185.5460  178.4800  146.2880 C   0  0  0  0  0  0  0  0  0  0  0  0
  185.0930  179.1780  147.2350 O   0  0  0  0  0  0  0  0  0  0  0  0
  187.1660  177.5780  143.9680 C   0  0  0  0  0  2  0  0  0  0  0  0
  183.7580  178.3500  142.3920 C   0  0  0  0  0  2  0  0  0  0  0  0
  186.8230  177.2710  146.6280 S   0  0  0  0  0  0  0  0  0  0  0  0
  187.8720  177.8840  145.2820 C   0  0  1  0  0  3  0  0  0  0  0  0
  185.0500  178.6710  144.9130 C   0  0  0  0  0  0  0  0  0  0  0  0
  185.9840  178.7890  141.1940 C   0  0  2  0  0  3  0  0  0  0  0  0
  187.1100  177.9500  138.6020 C   0  0  0  0  0  2  0  0  0  0  0  0
  185.1530  178.7440  139.9210 C   0  0  0  0  0  0  0  0  0  0  0  0
  185.6870  178.4040  138.7430 C   0  0  0  0  0  3  0  0  0  0  0  0
  187.9860  178.5670  139.6830 C   0  0  0  0  0  2  0  0  0  0  0  0
  183.8240  179.1460  139.9550 O   0  0  0  0  0  1  0  0  0  0  0  0
  187.3970  178.2100  141.0400 C   0  0  0  0  0  2  0  0  0  0  0  0
  189.1870  177.1800  145.3320 C   0  0  0  0  0  3  0  0  0  0  0  0
  190.3160  177.8260  145.0410 C   0  0  0  0  0  3  0  0  0  0  0  0
  191.6360  177.1240  145.0900 C   0  0  1  0  0  3  0  0  0  0  0  0
  191.7590  176.3640  146.3960 C   0  0  0  0  0  1  0  0  0  0  0  0
  191.7880  176.1850  143.9370 C   0  0  0  0  0  0  0  0  0  0  0  0
  191.5980  176.6300  142.6330 O   0  0  0  0  0  0  0  0  0  0  0  0
  192.0900  174.9820  144.1480 O   0  0  0  0  0  1  0  0  0  0  0  0
  1  8  1  1  0  0  0
  1  2  1  0  0  0  0
  2  7  1  1  0  0  0
  2 11  1  0  0  0  0
  3  4  1  0  0  0  0
  4 11  2  0  0  0  0
  5  9  1  0  0  0  0
  5  6  2  0  0  0  0
  7 10  1  0  0  0  0
  8  3  1  0  0  0  0
 10 19  1  6  0  0  0
 10  9  1  0  0  0  0
 11  5  1  0  0  0  0
 12 18  1  6  0  0  0
 12  1  1  0  0  0  0
 13 15  1  0  0  0  0
 13 16  1  0  0  0  0
 14 17  1  0  0  0  0
 14 12  1  0  0  0  0
 15 14  2  0  0  0  0
 16 18  1  0  0  0  0
 20 21  1  0  0  0  0
 20 19  2  0  0  0  0
 21 22  1  1  0  0  0
 23 25  1  0  0  0  0
 23 21  1  0  0  0  0
 24 23  2  0  0  0  0
M  END
>  <MODEL>
5

>  <REMARK>
 VINA RESULT:      -8.7      2.358      5.631
  Name = 
  4 active torsions:
  status: ('A' for Active; 'I' for Inactive)
    1  A    between atoms: C_1  and  C_5
    2  A    between atoms: C_2  and  C_21
    3  A    between atoms: C_6  and  C_23
    4  A    between atoms: C_15  and  C_21
                            x       y       z     vdW  Elec       q    Type
                         _______ _______ _______ _____ _____    ______ ____

>  <TORSDO>
F 4

$$$$
=
 OpenBabel11052412423D

 25 27  0  0  1  0  0  0  0  0999 V2000
  185.0210  178.8710  143.9580 C   0  0  1  0  0  3  0  0  0  0  0  0
  184.7500  178.3490  142.5310 C   0  0  2  0  0  3  0  0  0  0  0  0
  182.5160  178.6280  144.2830 C   0  0  0  0  0  2  0  0  0  0  0  0
  182.3400  178.8200  142.8110 C   0  0  0  0  0  3  0  0  0  0  0  0
  183.1590  178.8090  140.5260 C   0  0  0  0  0  0  0  0  0  0  0  0
  182.0560  178.4590  140.0270 O   0  0  0  0  0  0  0  0  0  0  0  0
  185.9200  178.7220  141.6190 C   0  0  0  0  0  2  0  0  0  0  0  0
  183.7780  179.3530  144.7350 C   0  0  0  0  0  2  0  0  0  0  0  0
  184.4660  179.3770  139.4410 S   0  0  0  0  0  0  0  0  0  0  0  0
  185.6810  178.2580  140.1880 C   0  0  1  0  0  3  0  0  0  0  0  0
  183.3830  178.7300  141.9800 C   0  0  0  0  0  0  0  0  0  0  0  0
  185.8910  177.8980  144.7620 C   0  0  2  0  0  3  0  0  0  0  0  0
  188.5030  177.8780  146.1280 C   0  0  0  0  0  2  0  0  0  0  0  0
  186.0490  178.2860  146.2240 C   0  0  0  0  0  0  0  0  0  0  0  0
  187.2320  178.2290  146.8440 C   0  0  0  0  0  3  0  0  0  0  0  0
  188.2230  176.9660  144.9420 C   0  0  0  0  0  2  0  0  0  0  0  0
  184.9270  178.6280  146.9680 O   0  0  0  0  0  1  0  0  0  0  0  0
  187.2190  177.6570  144.0310 C   0  0  0  0  0  2  0  0  0  0  0  0
  186.9520  178.3300  139.4090 C   0  0  0  0  0  3  0  0  0  0  0  0
  188.1310  178.1810  140.0140 C   0  0  0  0  0  3  0  0  0  0  0  0
  189.4070  178.2520  139.2360 C   0  0  1  0  0  3  0  0  0  0  0  0
  190.1510  176.9380  139.3590 C   0  0  0  0  0  1  0  0  0  0  0  0
  189.1410  178.5560  137.7970 C   0  0  0  0  0  0  0  0  0  0  0  0
  188.9890  177.5270  136.8730 O   0  0  0  0  0  0  0  0  0  0  0  0
  189.0560  179.7530  137.4170 O   0  0  0  0  0  1  0  0  0  0  0  0
  1  8  1  1  0  0  0
  1 12  1  0  0  0  0
  2  7  1  6  0  0  0
  2  1  1  0  0  0  0
  3  8  1  0  0  0  0
  4  3  1  0  0  0  0
  5 11  1  0  0  0  0
  6  5  2  0  0  0  0
  9 10  1  0  0  0  0
  9  5  1  0  0  0  0
 10 19  1  6  0  0  0
 10  7  1  0  0  0  0
 11  2  1  0  0  0  0
 11  4  2  0  0  0  0
 12 18  1  6  0  0  0
 12 14  1  0  0  0  0
 13 15  1  0  0  0  0
 14 15  2  0  0  0  0
 14 17  1  0  0  0  0
 16 13  1  0  0  0  0
 18 16  1  0  0  0  0
 19 20  2  0  0  0  0
 21 22  1  6  0  0  0
 21 20  1  0  0  0  0
 23 21  1  0  0  0  0
 24 23  2  0  0  0  0
 25 23  1  0  0  0  0
M  END
>  <MODEL>
6

>  <REMARK>
 VINA RESULT:      -8.7      2.616      5.080
  Name = 
  4 active torsions:
  status: ('A' for Active; 'I' for Inactive)
    1  A    between atoms: C_1  and  C_5
    2  A    between atoms: C_2  and  C_21
    3  A    between atoms: C_6  and  C_23
    4  A    between atoms: C_15  and  C_21
                            x       y       z     vdW  Elec       q    Type
                         _______ _______ _______ _____ _____    ______ ____

>  <TORSDO>
F 4

$$$$
=
 OpenBabel11052412423D

 25 27  0  0  1  0  0  0  0  0999 V2000
  187.8270  178.1180  145.3930 C   0  0  1  0  0  3  0  0  0  0  0  0
  186.9780  177.8370  144.1340 C   0  0  2  0  0  3  0  0  0  0  0  0
  185.6360  177.8830  146.6520 C   0  0  0  0  0  2  0  0  0  0  0  0
  184.9170  178.3120  145.4140 C   0  0  0  0  0  3  0  0  0  0  0  0
  184.7760  178.6470  143.0130 C   0  0  0  0  0  0  0  0  0  0  0  0
  183.5410  178.4070  142.9520 O   0  0  0  0  0  0  0  0  0  0  0  0
  187.7270  178.3240  142.8930 C   0  0  0  0  0  2  0  0  0  0  0  0
  187.0310  178.4980  146.6590 C   0  0  0  0  0  2  0  0  0  0  0  0
  185.6000  179.3520  141.5870 S   0  0  0  0  0  0  0  0  0  0  0  0
  186.9110  178.1010  141.6260 C   0  0  1  0  0  3  0  0  0  0  0  0
  185.5420  178.3320  144.2320 C   0  0  0  0  0  0  0  0  0  0  0  0
  188.8560  177.0100  145.6410 C   0  0  2  0  0  3  0  0  0  0  0  0
  191.6800  176.7540  146.4490 C   0  0  0  0  0  2  0  0  0  0  0  0
  189.2790  176.8860  147.0970 C   0  0  0  0  0  0  0  0  0  0  0  0
  190.5600  176.7250  147.4470 C   0  0  0  0  0  3  0  0  0  0  0  0
  191.2010  176.2830  145.0830 C   0  0  0  0  0  2  0  0  0  0  0  0
  188.3110  176.8510  148.0930 O   0  0  0  0  0  1  0  0  0  0  0  0
  190.0260  177.1520  144.6590 C   0  0  0  0  0  2  0  0  0  0  0  0
  187.7790  178.2680  140.4240 C   0  0  0  0  0  3  0  0  0  0  0  0
  188.9890  177.7100  140.3750 C   0  0  0  0  0  3  0  0  0  0  0  0
  189.8610  177.8750  139.1710 C   0  0  1  0  0  3  0  0  0  0  0  0
  190.5900  176.5770  138.8900 C   0  0  0  0  0  1  0  0  0  0  0  0
  189.0570  178.2770  137.9770 C   0  0  0  0  0  0  0  0  0  0  0  0
  188.3210  177.3330  137.2690 O   0  0  0  0  0  0  0  0  0  0  0  0
  189.0460  179.4810  137.6080 O   0  0  0  0  0  1  0  0  0  0  0  0
  1 12  1  0  0  0  0
  1  8  1  1  0  0  0
  2  7  1  6  0  0  0
  2 11  1  0  0  0  0
  2  1  1  0  0  0  0
  3  8  1  0  0  0  0
  4  3  1  0  0  0  0
  5 11  1  0  0  0  0
  6  5  2  0  0  0  0
  9 10  1  0  0  0  0
  9  5  1  0  0  0  0
 10 19  1  6  0  0  0
 10  7  1  0  0  0  0
 11  4  2  0  0  0  0
 12 18  1  6  0  0  0
 12 14  1  0  0  0  0
 13 15  1  0  0  0  0
 14 15  2  0  0  0  0
 14 17  1  0  0  0  0
 16 13  1  0  0  0  0
 18 16  1  0  0  0  0
 20 19  2  0  0  0  0
 21 22  1  6  0  0  0
 21 20  1  0  0  0  0
 23 21  1  0  0  0  0
 24 23  2  0  0  0  0
 25 23  1  0  0  0  0
M  END
>  <MODEL>
7

>  <REMARK>
 VINA RESULT:      -8.7      2.097      4.591
  Name = 
  4 active torsions:
  status: ('A' for Active; 'I' for Inactive)
    1  A    between atoms: C_1  and  C_5
    2  A    between atoms: C_2  and  C_21
    3  A    between atoms: C_6  and  C_23
    4  A    between atoms: C_15  and  C_21
                            x       y       z     vdW  Elec       q    Type
                         _______ _______ _______ _____ _____    ______ ____

>  <TORSDO>
F 4

$$$$
=
 OpenBabel11052412423D

 25 27  0  0  1  0  0  0  0  0999 V2000
  188.5660  178.2210  142.6150 C   0  0  1  0  0  3  0  0  0  0  0  0
  187.3650  177.7930  143.4870 C   0  0  2  0  0  3  0  0  0  0  0  0
  189.9820  177.3360  144.5250 C   0  0  0  0  0  2  0  0  0  0  0  0
  188.8490  177.6240  145.4560 C   0  0  0  0  0  3  0  0  0  0  0  0
  186.5040  178.0420  145.9270 C   0  0  0  0  0  0  0  0  0  0  0  0
  186.5280  177.4830  147.0560 O   0  0  0  0  0  0  0  0  0  0  0  0
  186.1080  178.5310  143.0240 C   0  0  0  0  0  2  0  0  0  0  0  0
  189.9210  178.3020  143.3480 C   0  0  0  0  0  2  0  0  0  0  0  0
  185.0750  179.0210  145.4690 S   0  0  0  0  0  0  0  0  0  0  0  0
  184.9010  178.1680  143.8790 C   0  0  1  0  0  3  0  0  0  0  0  0
  187.6240  177.8780  144.9840 C   0  0  0  0  0  0  0  0  0  0  0  0
  188.6360  177.4180  141.3120 C   0  0  2  0  0  3  0  0  0  0  0  0
  190.0440  177.5200  138.7240 C   0  0  0  0  0  2  0  0  0  0  0  0
  189.9770  176.7360  141.0860 C   0  0  0  0  0  0  0  0  0  0  0  0
  190.5840  176.7530  139.8950 C   0  0  0  0  0  3  0  0  0  0  0  0
  188.5290  177.6400  138.8060 C   0  0  0  0  0  2  0  0  0  0  0  0
  190.5550  176.0030  142.1140 O   0  0  0  0  0  1  0  0  0  0  0  0
  188.1700  178.2870  140.1360 C   0  0  0  0  0  2  0  0  0  0  0  0
  183.6470  178.6280  143.2140 C   0  0  0  0  0  3  0  0  0  0  0  0
  182.5320  178.8160  143.9190 C   0  0  0  0  0  3  0  0  0  0  0  0
  181.2730  179.2780  143.2540 C   0  0  1  0  0  3  0  0  0  0  0  0
  181.2800  178.8510  141.8000 C   0  0  0  0  0  1  0  0  0  0  0  0
  180.0680  178.7250  143.9440 C   0  0  0  0  0  0  0  0  0  0  0  0
  179.0230  179.5610  144.3220 O   0  0  0  0  0  1  0  0  0  0  0  0
  179.9980  177.4920  144.1830 O   0  0  0  0  0  0  0  0  0  0  0  0
  1  8  1  1  0  0  0
  1  2  1  0  0  0  0
  2  7  1  1  0  0  0
  2 11  1  0  0  0  0
  3  4  1  0  0  0  0
  5  6  2  0  0  0  0
  7 10  1  0  0  0  0
  8  3  1  0  0  0  0
  9  5  1  0  0  0  0
 10 19  1  6  0  0  0
 10  9  1  0  0  0  0
 11  4  2  0  0  0  0
 11  5  1  0  0  0  0
 12 18  1  6  0  0  0
 12  1  1  0  0  0  0
 13 16  1  0  0  0  0
 13 15  1  0  0  0  0
 14 12  1  0  0  0  0
 14 17  1  0  0  0  0
 15 14  2  0  0  0  0
 16 18  1  0  0  0  0
 19 20  2  0  0  0  0
 21 22  1  6  0  0  0
 21 20  1  0  0  0  0
 21 23  1  0  0  0  0
 23 25  2  0  0  0  0
 23 24  1  0  0  0  0
M  END
>  <MODEL>
8

>  <REMARK>
 VINA RESULT:      -8.7      2.804      6.777
  Name = 
  4 active torsions:
  status: ('A' for Active; 'I' for Inactive)
    1  A    between atoms: C_1  and  C_5
    2  A    between atoms: C_2  and  C_21
    3  A    between atoms: C_6  and  C_23
    4  A    between atoms: C_15  and  C_21
                            x       y       z     vdW  Elec       q    Type
                         _______ _______ _______ _____ _____    ______ ____

>  <TORSDO>
F 4

$$$$
=
 OpenBabel11052412423D

 25 27  0  0  1  0  0  0  0  0999 V2000
  187.1310  178.4680  145.8980 C   0  0  1  0  0  3  0  0  0  0  0  0
  186.6080  177.9600  144.5370 C   0  0  2  0  0  3  0  0  0  0  0  0
  184.7030  178.3470  146.6240 C   0  0  0  0  0  2  0  0  0  0  0  0
  184.3010  178.5480  145.1980 C   0  0  0  0  0  3  0  0  0  0  0  0
  184.7400  178.4970  142.8110 C   0  0  0  0  0  0  0  0  0  0  0  0
  183.5550  178.2020  142.4990 O   0  0  0  0  0  0  0  0  0  0  0  0
  187.6330  178.2740  143.4450 C   0  0  0  0  0  2  0  0  0  0  0  0
  186.0550  179.0100  146.8610 C   0  0  0  0  0  2  0  0  0  0  0  0
  185.8810  179.0000  141.5250 S   0  0  0  0  0  0  0  0  0  0  0  0
  187.1450  177.8230  142.0750 C   0  0  1  0  0  3  0  0  0  0  0  0
  185.1910  178.4070  144.2110 C   0  0  0  0  0  0  0  0  0  0  0  0
  188.0710  177.4530  146.5580 C   0  0  2  0  0  3  0  0  0  0  0  0
  190.8770  177.2910  147.4480 C   0  0  0  0  0  2  0  0  0  0  0  0
  188.5050  177.8480  147.9620 C   0  0  0  0  0  0  0  0  0  0  0  0
  189.7740  177.7270  148.3670 C   0  0  0  0  0  3  0  0  0  0  0  0
  190.3410  176.3840  146.3490 C   0  0  0  0  0  2  0  0  0  0  0  0
  187.5530  178.2650  148.8830 O   0  0  0  0  0  1  0  0  0  0  0  0
  189.2340  177.1240  145.6130 C   0  0  0  0  0  2  0  0  0  0  0  0
  188.2760  177.8330  141.1010 C   0  0  0  0  0  3  0  0  0  0  0  0
  189.3020  176.9940  141.2410 C   0  0  0  0  0  3  0  0  0  0  0  0
  190.4360  177.0010  140.2660 C   0  0  1  0  0  3  0  0  0  0  0  0
  190.0820  177.8770  139.0810 C   0  0  0  0  0  1  0  0  0  0  0  0
  191.6930  177.4940  140.9080 C   0  0  0  0  0  0  0  0  0  0  0  0
  191.7170  177.8150  142.2610 O   0  0  0  0  0  1  0  0  0  0  0  0
  192.7380  177.6200  140.2180 O   0  0  0  0  0  0  0  0  0  0  0  0
  1 12  1  0  0  0  0
  1  8  1  1  0  0  0
  2  7  1  6  0  0  0
  2  1  1  0  0  0  0
  3  8  1  0  0  0  0
  4  3  1  0  0  0  0
  5 11  1  0  0  0  0
  6  5  2  0  0  0  0
  9 10  1  0  0  0  0
  9  5  1  0  0  0  0
 10 19  1  6  0  0  0
 10  7  1  0  0  0  0
 11  2  1  0  0  0  0
 11  4  2  0  0  0  0
 12 18  1  6  0  0  0
 12 14  1  0  0  0  0
 13 15  1  0  0  0  0
 14 15  2  0  0  0  0
 14 17  1  0  0  0  0
 16 13  1  0  0  0  0
 18 16  1  0  0  0  0
 19 20  2  0  0  0  0
 21 22  1  6  0  0  0
 21 23  1  0  0  0  0
 21 20  1  0  0  0  0
 23 24  1  0  0  0  0
 25 23  2  0  0  0  0
M  END
>  <MODEL>
9

>  <REMARK>
 VINA RESULT:      -8.5      2.443      4.813
  Name = 
  4 active torsions:
  status: ('A' for Active; 'I' for Inactive)
    1  A    between atoms: C_1  and  C_5
    2  A    between atoms: C_2  and  C_21
    3  A    between atoms: C_6  and  C_23
    4  A    between atoms: C_15  and  C_21
                            x       y       z     vdW  Elec       q    Type
                         _______ _______ _______ _____ _____    ______ ____

>  <TORSDO>
F 4

$$$$
