=
 OpenBabel11052413313D

 28 30  0  0  1  0  0  0  0  0999 V2000
  189.7610  177.2560  138.5540 N   0  0  0  0  0  0  0  0  0  0  0  0
  189.3770  177.3470  141.0230 C   0  0  1  0  0  3  0  0  0  0  0  0
  191.2260  176.1150  140.0360 O   0  0  0  0  0  1  0  0  0  0  0  0
  187.8370  178.3450  139.7040 C   0  0  0  0  0  2  0  0  0  0  0  0
  188.6070  178.5140  140.8680 O   0  0  0  0  0  0  0  0  0  0  0  0
  188.7380  178.3160  138.4630 C   0  0  0  0  0  2  0  0  0  0  0  0
  190.4080  177.2410  139.8840 C   0  0  1  0  0  3  0  0  0  0  0  0
  185.0390  179.1110  144.0110 C   0  0  0  0  0  1  0  0  0  0  0  0
  191.2990  177.4070  142.4310 O   0  0  0  0  0  0  0  0  0  0  0  0
  187.7090  177.4440  145.8950 C   0  0  2  0  0  3  0  0  0  0  0  0
  187.7890  177.1810  143.4730 C   0  0  0  0  0  2  0  0  0  0  0  0
  185.5950  178.1640  146.2400 C   0  0  0  0  0  0  0  0  0  0  0  0
  187.1820  177.9980  144.5930 C   0  0  1  0  0  3  0  0  0  0  0  0
  189.9270  177.1220  144.8680 C   0  0  0  0  0  2  0  0  0  0  0  0
  186.8320  177.9770  146.9150 N   0  0  0  0  0  2  0  0  0  0  0  0
  189.1700  177.8170  146.0180 C   0  0  0  0  0  2  0  0  0  0  0  0
  190.0400  177.3550  142.3670 C   0  0  0  0  0  0  0  0  0  0  0  0
  184.5290  178.4440  146.8540 O   0  0  0  0  0  0  0  0  0  0  0  0
  185.6770  177.9610  144.7630 C   0  0  2  0  0  3  0  0  0  0  0  0
  189.2530  177.2990  143.5690 N   0  0  0  0  0  0  0  0  0  0  0  0
  189.2600  175.9320  138.1200 C   0  0  1  0  0  3  0  0  0  0  0  0
  187.9070  175.9790  137.4220 C   0  0  0  0  0  1  0  0  0  0  0  0
  190.2770  175.2100  137.2460 C   0  0  0  0  0  2  0  0  0  0  0  0
  190.8620  176.1870  135.0550 C   0  0  0  0  0  1  0  0  0  0  0  0
  191.1870  176.2000  136.5340 C   0  0  2  0  0  3  0  0  0  0  0  0
  192.6220  175.8220  136.7380 C   0  0  0  0  0  0  0  0  0  0  0  0
  193.0600  174.7400  136.2610 O   0  0  0  0  0  0  0  0  0  0  0  0
  193.4960  176.6770  137.4750 N   0  0  0  0  0  1  0  0  0  0  0  0
  1  7  1  0  0  0  0
  2 17  1  1  0  0  0
  4  5  1  0  0  0  0
  5  2  1  0  0  0  0
  6  1  1  0  0  0  0
  6  4  1  0  0  0  0
  7  3  1  1  0  0  0
  7  2  1  0  0  0  0
 10 16  1  1  0  0  0
 10 15  1  0  0  0  0
 11 20  1  0  0  0  0
 12 18  2  0  0  0  0
 12 15  1  0  0  0  0
 13 11  1  6  0  0  0
 13 19  1  0  0  0  0
 13 10  1  0  0  0  0
 14 16  1  0  0  0  0
 17  9  2  0  0  0  0
 17 20  1  0  0  0  0
 19  8  1  6  0  0  0
 19 12  1  0  0  0  0
 20 14  1  0  0  0  0
 21 22  1  6  0  0  0
 21  1  1  0  0  0  0
 23 21  1  0  0  0  0
 25 24  1  6  0  0  0
 25 26  1  0  0  0  0
 25 23  1  0  0  0  0
 26 28  1  0  0  0  0
 27 26  2  0  0  0  0
M  END
>  <MODEL>
1

>  <REMARK>
 VINA RESULT:      -7.9      0.000      0.000
  Name = 
  5 active torsions:
  status: ('A' for Active; 'I' for Inactive)
    1  A    between atoms: N_1  and  C_2
    2  A    between atoms: C_2  and  C_3
    3  A    between atoms: C_3  and  C_11
    4  A    between atoms: C_6  and  C_11
    5  A    between atoms: C_16  and  C_20
                            x       y       z     vdW  Elec       q    Type
                         _______ _______ _______ _____ _____    ______ ____

>  <TORSDO>
F 5

$$$$
=
 OpenBabel11052413313D

 28 30  0  0  1  0  0  0  0  0999 V2000
  189.5640  176.5950  137.0750 N   0  0  0  0  0  0  0  0  0  0  0  0
  189.8250  177.3400  139.4470 C   0  0  1  0  0  3  0  0  0  0  0  0
  190.8600  175.3120  138.5980 O   0  0  0  0  0  1  0  0  0  0  0  0
  188.4490  178.5580  138.1300 C   0  0  0  0  0  2  0  0  0  0  0  0
  189.4810  178.6540  139.0800 O   0  0  0  0  0  0  0  0  0  0  0  0
  188.9700  177.9240  136.8350 C   0  0  0  0  0  2  0  0  0  0  0  0
  190.4600  176.6080  138.2520 C   0  0  1  0  0  3  0  0  0  0  0  0
  186.0220  178.3590  143.3660 C   0  0  0  0  0  1  0  0  0  0  0  0
  191.9760  177.5870  140.4440 O   0  0  0  0  0  0  0  0  0  0  0  0
  189.2060  176.9740  144.5480 C   0  0  2  0  0  3  0  0  0  0  0  0
  188.8130  176.8420  142.1460 C   0  0  0  0  0  2  0  0  0  0  0  0
  187.1390  177.3870  145.3620 C   0  0  0  0  0  0  0  0  0  0  0  0
  188.3570  177.5160  143.4230 C   0  0  1  0  0  3  0  0  0  0  0  0
  191.1850  177.0020  143.0770 C   0  0  0  0  0  2  0  0  0  0  0  0
  188.5030  177.3340  145.7590 N   0  0  0  0  0  2  0  0  0  0  0  0
  190.6050  177.5330  144.4040 C   0  0  0  0  0  2  0  0  0  0  0  0
  190.7460  177.3700  140.6280 C   0  0  0  0  0  0  0  0  0  0  0  0
  186.1980  177.4910  146.1950 O   0  0  0  0  0  0  0  0  0  0  0  0
  186.9360  177.2690  143.8870 C   0  0  2  0  0  3  0  0  0  0  0  0
  190.2390  177.1510  141.9560 N   0  0  0  0  0  0  0  0  0  0  0  0
  188.5570  175.5090  137.1050 C   0  0  1  0  0  3  0  0  0  0  0  0
  187.1180  176.0010  137.1860 C   0  0  0  0  0  1  0  0  0  0  0  0
  188.7240  174.5620  135.9240 C   0  0  0  0  0  2  0  0  0  0  0  0
  190.2260  172.6750  135.3950 C   0  0  0  0  0  1  0  0  0  0  0  0
  189.2040  173.1940  136.3850 C   0  0  2  0  0  3  0  0  0  0  0  0
  188.0510  172.2410  136.4620 C   0  0  0  0  0  0  0  0  0  0  0  0
  187.1290  172.4370  137.2990 O   0  0  0  0  0  0  0  0  0  0  0  0
  187.9930  171.1060  135.5970 N   0  0  0  0  0  1  0  0  0  0  0  0
  1 21  1  0  0  0  0
  1  7  1  0  0  0  0
  2 17  1  1  0  0  0
  4  5  1  0  0  0  0
  5  2  1  0  0  0  0
  6  1  1  0  0  0  0
  6  4  1  0  0  0  0
  7  3  1  1  0  0  0
  7  2  1  0  0  0  0
  9 17  2  0  0  0  0
 10 16  1  1  0  0  0
 10 15  1  0  0  0  0
 12 15  1  0  0  0  0
 12 18  2  0  0  0  0
 13 11  1  6  0  0  0
 13 19  1  0  0  0  0
 13 10  1  0  0  0  0
 14 16  1  0  0  0  0
 17 20  1  0  0  0  0
 19  8  1  6  0  0  0
 19 12  1  0  0  0  0
 20 11  1  0  0  0  0
 20 14  1  0  0  0  0
 21 22  1  6  0  0  0
 23 25  1  0  0  0  0
 23 21  1  0  0  0  0
 25 24  1  6  0  0  0
 25 26  1  0  0  0  0
 26 27  2  0  0  0  0
 28 26  1  0  0  0  0
M  END
>  <MODEL>
2

>  <REMARK>
 VINA RESULT:      -7.6      2.418      2.943
  Name = 
  5 active torsions:
  status: ('A' for Active; 'I' for Inactive)
    1  A    between atoms: N_1  and  C_2
    2  A    between atoms: C_2  and  C_3
    3  A    between atoms: C_3  and  C_11
    4  A    between atoms: C_6  and  C_11
    5  A    between atoms: C_16  and  C_20
                            x       y       z     vdW  Elec       q    Type
                         _______ _______ _______ _____ _____    ______ ____

>  <TORSDO>
F 5

$$$$
=
 OpenBabel11052413313D

 28 30  0  0  1  0  0  0  0  0999 V2000
  190.4830  176.3040  141.4560 N   0  0  0  0  0  0  0  0  0  0  0  0
  190.2820  177.5490  143.6150 C   0  0  1  0  0  3  0  0  0  0  0  0
  188.9050  175.6150  143.0930 O   0  0  0  0  0  1  0  0  0  0  0  0
  191.7100  178.3840  142.0740 C   0  0  0  0  0  2  0  0  0  0  0  0
  191.5740  178.0770  143.4400 O   0  0  0  0  0  0  0  0  0  0  0  0
  191.7050  177.1010  141.2340 C   0  0  0  0  0  2  0  0  0  0  0  0
  190.1650  176.1930  142.8960 C   0  0  1  0  0  3  0  0  0  0  0  0
  185.2380  179.8750  143.5650 C   0  0  0  0  0  1  0  0  0  0  0  0
  190.9360  177.2860  145.8920 O   0  0  0  0  0  0  0  0  0  0  0  0
  186.0060  177.7830  146.4780 C   0  0  2  0  0  3  0  0  0  0  0  0
  187.5210  177.5660  144.5810 C   0  0  0  0  0  2  0  0  0  0  0  0
  184.2120  178.8040  145.5580 C   0  0  0  0  0  0  0  0  0  0  0  0
  186.4470  178.4390  145.1910 C   0  0  1  0  0  3  0  0  0  0  0  0
  188.3410  177.1540  146.9640 C   0  0  0  0  0  2  0  0  0  0  0  0
  184.7510  178.4170  146.8160 N   0  0  0  0  0  2  0  0  0  0  0  0
  187.1170  177.9290  147.4950 C   0  0  0  0  0  2  0  0  0  0  0  0
  189.9820  177.4250  145.0780 C   0  0  0  0  0  0  0  0  0  0  0  0
  183.0300  179.2260  145.4340 O   0  0  0  0  0  0  0  0  0  0  0  0
  185.1570  178.6250  144.4160 C   0  0  2  0  0  3  0  0  0  0  0  0
  188.6240  177.4610  145.5500 N   0  0  0  0  0  0  0  0  0  0  0  0
  189.3410  176.7540  140.6270 C   0  0  1  0  0  3  0  0  0  0  0  0
  188.7000  178.0490  141.1070 C   0  0  0  0  0  1  0  0  0  0  0  0
  189.7310  176.8720  139.1600 C   0  0  0  0  0  2  0  0  0  0  0  0
  188.0220  176.0670  137.5700 C   0  0  0  0  0  1  0  0  0  0  0  0
  188.5390  177.2830  138.3090 C   0  0  2  0  0  3  0  0  0  0  0  0
  188.9460  178.3350  137.3230 C   0  0  0  0  0  0  0  0  0  0  0  0
  188.9800  179.5460  137.6730 O   0  0  0  0  0  0  0  0  0  0  0  0
  189.2890  177.9750  135.9840 N   0  0  0  0  0  1  0  0  0  0  0  0
  1  7  1  0  0  0  0
  2 17  1  1  0  0  0
  4  5  1  0  0  0  0
  5  2  1  0  0  0  0
  6  1  1  0  0  0  0
  6  4  1  0  0  0  0
  7  3  1  6  0  0  0
  7  2  1  0  0  0  0
 10 15  1  0  0  0  0
 10 16  1  1  0  0  0
 11 20  1  0  0  0  0
 12 15  1  0  0  0  0
 13 11  1  6  0  0  0
 13 10  1  0  0  0  0
 14 16  1  0  0  0  0
 17 20  1  0  0  0  0
 17  9  2  0  0  0  0
 18 12  2  0  0  0  0
 19  8  1  6  0  0  0
 19 13  1  0  0  0  0
 19 12  1  0  0  0  0
 20 14  1  0  0  0  0
 21 22  1  1  0  0  0
 21  1  1  0  0  0  0
 23 21  1  0  0  0  0
 25 24  1  6  0  0  0
 25 23  1  0  0  0  0
 26 27  2  0  0  0  0
 26 25  1  0  0  0  0
 28 26  1  0  0  0  0
M  END
>  <MODEL>
3

>  <REMARK>
 VINA RESULT:      -7.6      2.482      3.247
  Name = 
  5 active torsions:
  status: ('A' for Active; 'I' for Inactive)
    1  A    between atoms: N_1  and  C_2
    2  A    between atoms: C_2  and  C_3
    3  A    between atoms: C_3  and  C_11
    4  A    between atoms: C_6  and  C_11
    5  A    between atoms: C_16  and  C_20
                            x       y       z     vdW  Elec       q    Type
                         _______ _______ _______ _____ _____    ______ ____

>  <TORSDO>
F 5

$$$$
=
 OpenBabel11052413313D

 28 30  0  0  1  0  0  0  0  0999 V2000
  184.8260  178.2400  138.2850 N   0  0  0  0  0  0  0  0  0  0  0  0
  186.4410  178.3470  140.1910 C   0  0  1  0  0  3  0  0  0  0  0  0
  186.9750  177.2430  138.0930 O   0  0  0  0  0  1  0  0  0  0  0  0
  184.3760  179.1990  140.5410 C   0  0  0  0  0  2  0  0  0  0  0  0
  185.7480  179.4480  140.7270 O   0  0  0  0  0  0  0  0  0  0  0  0
  184.0250  179.2160  139.0480 C   0  0  0  0  0  2  0  0  0  0  0  0
  186.2550  178.2990  138.6640 C   0  0  1  0  0  3  0  0  0  0  0  0
  185.8020  178.3370  145.7100 C   0  0  0  0  0  1  0  0  0  0  0  0
  188.7190  178.8730  139.7270 O   0  0  0  0  0  0  0  0  0  0  0  0
  189.1360  177.4240  144.4830 C   0  0  2  0  0  3  0  0  0  0  0  0
  187.3560  177.4420  142.8180 C   0  0  0  0  0  2  0  0  0  0  0  0
  187.9880  177.3980  146.4290 C   0  0  0  0  0  0  0  0  0  0  0  0
  187.7330  177.9090  144.2070 C   0  0  1  0  0  3  0  0  0  0  0  0
  189.7740  177.9260  142.1540 C   0  0  0  0  0  2  0  0  0  0  0  0
  189.3050  177.5470  145.9140 N   0  0  0  0  0  2  0  0  0  0  0  0
  190.0960  178.2270  143.6320 C   0  0  0  0  0  2  0  0  0  0  0  0
  187.8880  178.4310  140.5680 C   0  0  0  0  0  0  0  0  0  0  0  0
  187.7580  177.2630  147.6610 O   0  0  0  0  0  0  0  0  0  0  0  0
  186.9280  177.3790  145.3770 C   0  0  2  0  0  3  0  0  0  0  0  0
  188.3290  178.0090  141.8700 N   0  0  0  0  0  0  0  0  0  0  0  0
  184.2570  176.8730  138.3190 C   0  0  1  0  0  3  0  0  0  0  0  0
  182.9780  176.7540  139.1380 C   0  0  0  0  0  1  0  0  0  0  0  0
  184.0360  176.3260  136.9150 C   0  0  0  0  0  2  0  0  0  0  0  0
  184.9920  174.8830  135.1560 C   0  0  0  0  0  1  0  0  0  0  0  0
  184.9300  175.1250  136.6490 C   0  0  2  0  0  3  0  0  0  0  0  0
  184.3800  173.9110  137.3330 C   0  0  0  0  0  0  0  0  0  0  0  0
  183.1450  173.6630  137.2790 O   0  0  0  0  0  0  0  0  0  0  0  0
  185.2470  173.0330  138.0520 N   0  0  0  0  0  1  0  0  0  0  0  0
  1 21  1  0  0  0  0
  1  7  1  0  0  0  0
  1  6  1  0  0  0  0
  2 17  1  6  0  0  0
  2  5  1  0  0  0  0
  4  5  1  0  0  0  0
  6  4  1  0  0  0  0
  7  3  1  1  0  0  0
  7  2  1  0  0  0  0
  9 17  2  0  0  0  0
 10 16  1  6  0  0  0
 10 15  1  0  0  0  0
 12 18  2  0  0  0  0
 13 11  1  6  0  0  0
 13 10  1  0  0  0  0
 13 19  1  0  0  0  0
 14 16  1  0  0  0  0
 15 12  1  0  0  0  0
 17 20  1  0  0  0  0
 19  8  1  1  0  0  0
 19 12  1  0  0  0  0
 20 14  1  0  0  0  0
 20 11  1  0  0  0  0
 21 22  1  6  0  0  0
 23 21  1  0  0  0  0
 25 24  1  6  0  0  0
 25 23  1  0  0  0  0
 25 26  1  0  0  0  0
 26 28  1  0  0  0  0
 27 26  2  0  0  0  0
M  END
>  <MODEL>
4

>  <REMARK>
 VINA RESULT:      -7.3      3.528      4.747
  Name = 
  5 active torsions:
  status: ('A' for Active; 'I' for Inactive)
    1  A    between atoms: N_1  and  C_2
    2  A    between atoms: C_2  and  C_3
    3  A    between atoms: C_3  and  C_11
    4  A    between atoms: C_6  and  C_11
    5  A    between atoms: C_16  and  C_20
                            x       y       z     vdW  Elec       q    Type
                         _______ _______ _______ _____ _____    ______ ____

>  <TORSDO>
F 5

$$$$
=
 OpenBabel11052413313D

 28 30  0  0  1  0  0  0  0  0999 V2000
  188.3130  177.0350  138.3000 N   0  0  0  0  0  0  0  0  0  0  0  0
  190.6020  177.0250  139.3060 C   0  0  1  0  0  3  0  0  0  0  0  0
  188.9760  178.7680  139.7840 O   0  0  0  0  0  1  0  0  0  0  0  0
  190.1350  175.4100  137.7960 C   0  0  0  0  0  2  0  0  0  0  0  0
  190.7160  175.6460  139.0540 O   0  0  0  0  0  0  0  0  0  0  0  0
  188.6230  175.6650  137.8470 C   0  0  0  0  0  2  0  0  0  0  0  0
  189.1220  177.4090  139.4810 C   0  0  1  0  0  3  0  0  0  0  0  0
  186.3940  177.8150  142.8450 C   0  0  0  0  0  1  0  0  0  0  0  0
  192.5920  177.8060  140.3610 O   0  0  0  0  0  0  0  0  0  0  0  0
  189.6780  177.2280  144.3700 C   0  0  2  0  0  3  0  0  0  0  0  0
  189.4970  176.7070  141.9960 C   0  0  0  0  0  2  0  0  0  0  0  0
  187.5140  177.3450  145.0130 C   0  0  0  0  0  0  0  0  0  0  0  0
  188.8320  177.4450  143.1380 C   0  0  1  0  0  3  0  0  0  0  0  0
  191.7240  177.4360  143.0090 C   0  0  0  0  0  2  0  0  0  0  0  0
  188.8320  177.6050  145.4800 N   0  0  0  0  0  2  0  0  0  0  0  0
  190.9590  178.0180  144.2160 C   0  0  0  0  0  2  0  0  0  0  0  0
  191.4110  177.3860  140.5150 C   0  0  0  0  0  0  0  0  0  0  0  0
  186.5110  177.3790  145.7750 O   0  0  0  0  0  0  0  0  0  0  0  0
  187.4480  176.9970  143.5620 C   0  0  2  0  0  3  0  0  0  0  0  0
  190.8540  177.2530  141.8330 N   0  0  0  0  0  0  0  0  0  0  0  0
  188.3620  178.0300  137.2050 C   0  0  1  0  0  3  0  0  0  0  0  0
  189.0020  177.5120  135.9240 C   0  0  0  0  0  1  0  0  0  0  0  0
  186.9810  178.6010  136.9090 C   0  0  0  0  0  2  0  0  0  0  0  0
  185.0950  177.1900  136.1690 C   0  0  0  0  0  1  0  0  0  0  0  0
  185.8870  177.6530  137.3740 C   0  0  2  0  0  3  0  0  0  0  0  0
  184.9750  178.3490  138.3380 C   0  0  0  0  0  0  0  0  0  0  0  0
  183.7310  178.3520  138.1360 O   0  0  0  0  0  0  0  0  0  0  0  0
  185.5080  179.0170  139.4820 N   0  0  0  0  0  1  0  0  0  0  0  0
  1  7  1  0  0  0  0
  2  7  1  0  0  0  0
  2 17  1  1  0  0  0
  4  6  1  0  0  0  0
  4  5  1  0  0  0  0
  5  2  1  0  0  0  0
  6  1  1  0  0  0  0
  7  3  1  6  0  0  0
  9 17  2  0  0  0  0
 10 16  1  6  0  0  0
 10 15  1  0  0  0  0
 12 15  1  0  0  0  0
 12 18  2  0  0  0  0
 13 11  1  6  0  0  0
 13 19  1  0  0  0  0
 13 10  1  0  0  0  0
 14 16  1  0  0  0  0
 17 20  1  0  0  0  0
 19  8  1  6  0  0  0
 19 12  1  0  0  0  0
 20 11  1  0  0  0  0
 20 14  1  0  0  0  0
 21 22  1  6  0  0  0
 21  1  1  0  0  0  0
 23 21  1  0  0  0  0
 23 25  1  0  0  0  0
 25 24  1  6  0  0  0
 25 26  1  0  0  0  0
 26 28  1  0  0  0  0
 27 26  2  0  0  0  0
M  END
>  <MODEL>
5

>  <REMARK>
 VINA RESULT:      -7.3      2.205      4.151
  Name = 
  5 active torsions:
  status: ('A' for Active; 'I' for Inactive)
    1  A    between atoms: N_1  and  C_2
    2  A    between atoms: C_2  and  C_3
    3  A    between atoms: C_3  and  C_11
    4  A    between atoms: C_6  and  C_11
    5  A    between atoms: C_16  and  C_20
                            x       y       z     vdW  Elec       q    Type
                         _______ _______ _______ _____ _____    ______ ____

>  <TORSDO>
F 5

$$$$
=
 OpenBabel11052413313D

 28 30  0  0  1  0  0  0  0  0999 V2000
  189.0210  178.3480  142.7630 N   0  0  0  0  0  0  0  0  0  0  0  0
  189.3170  177.6390  140.3830 C   0  0  1  0  0  3  0  0  0  0  0  0
  187.2620  178.6540  141.1940 O   0  0  0  0  0  1  0  0  0  0  0  0
  190.9990  177.1630  141.8160 C   0  0  0  0  0  2  0  0  0  0  0  0
  190.7140  177.6750  140.5380 O   0  0  0  0  0  0  0  0  0  0  0  0
  190.4700  178.1080  142.9020 C   0  0  0  0  0  2  0  0  0  0  0  0
  188.6520  178.6280  141.3580 C   0  0  1  0  0  3  0  0  0  0  0  0
  193.1880  174.5030  137.9270 C   0  0  0  0  0  1  0  0  0  0  0  0
  188.3050  178.9910  138.7010 O   0  0  0  0  0  0  0  0  0  0  0  0
  190.3260  175.4420  135.8350 C   0  0  2  0  0  3  0  0  0  0  0  0
  190.0590  175.8030  138.2300 C   0  0  0  0  0  2  0  0  0  0  0  0
  192.0950  174.0390  135.7440 C   0  0  0  0  0  0  0  0  0  0  0  0
  191.0770  175.5480  137.1400 C   0  0  1  0  0  3  0  0  0  0  0  0
  188.8290  177.2710  136.5400 C   0  0  0  0  0  2  0  0  0  0  0  0
  191.2560  174.8290  134.9120 N   0  0  0  0  0  2  0  0  0  0  0  0
  189.8290  176.8200  135.4550 C   0  0  0  0  0  2  0  0  0  0  0  0
  188.9580  177.9430  138.9600 C   0  0  0  0  0  0  0  0  0  0  0  0
  192.9180  173.2070  135.2750 O   0  0  0  0  0  0  0  0  0  0  0  0
  191.8790  174.2630  137.2050 C   0  0  2  0  0  3  0  0  0  0  0  0
  189.3490  177.0500  137.9030 N   0  0  0  0  0  0  0  0  0  0  0  0
  188.1970  177.2920  143.3950 C   0  0  1  0  0  3  0  0  0  0  0  0
  188.7510  175.8850  143.2180 C   0  0  0  0  0  1  0  0  0  0  0  0
  187.9580  177.5820  144.8710 C   0  0  0  0  0  2  0  0  0  0  0  0
  185.6920  178.2530  144.1550 C   0  0  0  0  0  1  0  0  0  0  0  0
  186.4770  177.5020  145.2100 C   0  0  2  0  0  3  0  0  0  0  0  0
  186.2220  178.1120  146.5550 C   0  0  0  0  0  0  0  0  0  0  0  0
  187.1490  178.1650  147.4070 O   0  0  0  0  0  0  0  0  0  0  0  0
  184.9310  178.6280  146.8800 N   0  0  0  0  0  1  0  0  0  0  0  0
  1  6  1  0  0  0  0
  1 21  1  0  0  0  0
  2 17  1  6  0  0  0
  2  5  1  0  0  0  0
  2  7  1  0  0  0  0
  4  6  1  0  0  0  0
  5  4  1  0  0  0  0
  7  3  1  1  0  0  0
  7  1  1  0  0  0  0
  9 17  2  0  0  0  0
 10 16  1  6  0  0  0
 10 13  1  0  0  0  0
 12 19  1  0  0  0  0
 13 19  1  0  0  0  0
 13 11  1  1  0  0  0
 14 20  1  0  0  0  0
 15 12  1  0  0  0  0
 15 10  1  0  0  0  0
 16 14  1  0  0  0  0
 18 12  2  0  0  0  0
 19  8  1  1  0  0  0
 20 11  1  0  0  0  0
 20 17  1  0  0  0  0
 21 22  1  1  0  0  0
 21 23  1  0  0  0  0
 23 25  1  0  0  0  0
 25 24  1  6  0  0  0
 25 26  1  0  0  0  0
 26 28  1  0  0  0  0
 26 27  2  0  0  0  0
M  END
>  <MODEL>
6

>  <REMARK>
 VINA RESULT:      -7.2      1.605      8.878
  Name = 
  5 active torsions:
  status: ('A' for Active; 'I' for Inactive)
    1  A    between atoms: N_1  and  C_2
    2  A    between atoms: C_2  and  C_3
    3  A    between atoms: C_3  and  C_11
    4  A    between atoms: C_6  and  C_11
    5  A    between atoms: C_16  and  C_20
                            x       y       z     vdW  Elec       q    Type
                         _______ _______ _______ _____ _____    ______ ____

>  <TORSDO>
F 5

$$$$
=
 OpenBabel11052413313D

 28 30  0  0  1  0  0  0  0  0999 V2000
  184.1990  178.1460  138.2460 N   0  0  0  0  0  0  0  0  0  0  0  0
  183.3160  177.7220  140.5450 C   0  0  1  0  0  3  0  0  0  0  0  0
  184.8790  179.5190  140.0620 O   0  0  0  0  0  1  0  0  0  0  0  0
  182.7170  176.2620  138.9270 C   0  0  0  0  0  2  0  0  0  0  0  0
  182.2240  177.0180  140.0050 O   0  0  0  0  0  0  0  0  0  0  0  0
  183.1770  177.1850  137.7910 C   0  0  0  0  0  2  0  0  0  0  0  0
  183.8230  178.7660  139.5350 C   0  0  1  0  0  3  0  0  0  0  0  0
  187.6570  176.0700  143.5930 C   0  0  0  0  0  1  0  0  0  0  0  0
  181.7030  178.6580  142.0300 O   0  0  0  0  0  0  0  0  0  0  0  0
  185.7630  178.9190  144.9170 C   0  0  2  0  0  3  0  0  0  0  0  0
  185.3120  178.3260  142.5960 C   0  0  0  0  0  2  0  0  0  0  0  0
  187.7110  177.8490  145.3270 C   0  0  0  0  0  0  0  0  0  0  0  0
  185.9260  177.8270  143.8870 C   0  0  1  0  0  3  0  0  0  0  0  0
  183.5130  179.4180  144.0410 C   0  0  0  0  0  2  0  0  0  0  0  0
  186.6780  178.5730  145.9820 N   0  0  0  0  0  2  0  0  0  0  0  0
  184.3020  179.0020  145.3000 C   0  0  0  0  0  2  0  0  0  0  0  0
  182.9140  178.3580  141.8410 C   0  0  0  0  0  0  0  0  0  0  0  0
  188.7880  177.5400  145.9060 O   0  0  0  0  0  0  0  0  0  0  0  0
  187.4130  177.5340  143.8980 C   0  0  2  0  0  3  0  0  0  0  0  0
  183.8950  178.6280  142.8570 N   0  0  0  0  0  0  0  0  0  0  0  0
  185.5690  177.5830  138.2330 C   0  0  1  0  0  3  0  0  0  0  0  0
  185.9040  176.7990  136.9710 C   0  0  0  0  0  1  0  0  0  0  0  0
  186.6170  178.6610  138.4770 C   0  0  0  0  0  2  0  0  0  0  0  0
  188.2960  178.4390  140.2740 C   0  0  0  0  0  1  0  0  0  0  0  0
  187.9560  178.0450  138.8510 C   0  0  2  0  0  3  0  0  0  0  0  0
  189.0270  178.5360  137.9250 C   0  0  0  0  0  0  0  0  0  0  0  0
  189.0570  179.7500  137.5860 O   0  0  0  0  0  0  0  0  0  0  0  0
  190.0110  177.6340  137.4180 N   0  0  0  0  0  1  0  0  0  0  0  0
  1  7  1  0  0  0  0
  2 17  1  1  0  0  0
  4  5  1  0  0  0  0
  5  2  1  0  0  0  0
  6  1  1  0  0  0  0
  6  4  1  0  0  0  0
  7  3  1  1  0  0  0
  7  2  1  0  0  0  0
 10 16  1  1  0  0  0
 10 15  1  0  0  0  0
 11 20  1  0  0  0  0
 12 18  2  0  0  0  0
 12 15  1  0  0  0  0
 13 11  1  6  0  0  0
 13 19  1  0  0  0  0
 13 10  1  0  0  0  0
 14 16  1  0  0  0  0
 17  9  2  0  0  0  0
 17 20  1  0  0  0  0
 19  8  1  1  0  0  0
 19 12  1  0  0  0  0
 20 14  1  0  0  0  0
 21 22  1  6  0  0  0
 21  1  1  0  0  0  0
 21 23  1  0  0  0  0
 23 25  1  0  0  0  0
 25 24  1  1  0  0  0
 26 25  1  0  0  0  0
 27 26  2  0  0  0  0
 28 26  1  0  0  0  0
M  END
>  <MODEL>
7

>  <REMARK>
 VINA RESULT:      -7.1      3.310      5.249
  Name = 
  5 active torsions:
  status: ('A' for Active; 'I' for Inactive)
    1  A    between atoms: N_1  and  C_2
    2  A    between atoms: C_2  and  C_3
    3  A    between atoms: C_3  and  C_11
    4  A    between atoms: C_6  and  C_11
    5  A    between atoms: C_16  and  C_20
                            x       y       z     vdW  Elec       q    Type
                         _______ _______ _______ _____ _____    ______ ____

>  <TORSDO>
F 5

$$$$
=
 OpenBabel11052413313D

 28 30  0  0  1  0  0  0  0  0999 V2000
  189.1180  178.2490  142.3270 N   0  0  0  0  0  0  0  0  0  0  0  0
  189.0060  177.7640  139.8770 C   0  0  1  0  0  3  0  0  0  0  0  0
  187.4620  179.2860  140.9750 O   0  0  0  0  0  1  0  0  0  0  0  0
  190.5250  176.6070  141.0870 C   0  0  0  0  0  2  0  0  0  0  0  0
  190.3430  177.3280  139.8940 O   0  0  0  0  0  0  0  0  0  0  0  0
  190.4120  177.5400  142.3000 C   0  0  0  0  0  2  0  0  0  0  0  0
  188.7720  178.7940  140.9960 C   0  0  1  0  0  3  0  0  0  0  0  0
  188.1480  172.9630  137.2160 C   0  0  0  0  0  1  0  0  0  0  0  0
  189.0550  179.4980  138.2430 O   0  0  0  0  0  0  0  0  0  0  0  0
  186.7140  175.9470  135.6370 C   0  0  2  0  0  3  0  0  0  0  0  0
  187.4510  176.2130  137.9450 C   0  0  0  0  0  2  0  0  0  0  0  0
  186.6070  173.7010  135.4120 C   0  0  0  0  0  0  0  0  0  0  0  0
  187.5570  175.3250  136.7240 C   0  0  1  0  0  3  0  0  0  0  0  0
  187.4640  178.1910  136.3300 C   0  0  0  0  0  2  0  0  0  0  0  0
  186.5320  174.9020  134.6540 N   0  0  0  0  0  2  0  0  0  0  0  0
  187.4080  177.2000  135.1500 C   0  0  0  0  0  2  0  0  0  0  0  0
  188.6760  178.3290  138.5290 C   0  0  0  0  0  0  0  0  0  0  0  0
  186.3090  172.5770  134.9240 O   0  0  0  0  0  0  0  0  0  0  0  0
  187.0290  173.9080  136.8290 C   0  0  2  0  0  3  0  0  0  0  0  0
  187.9350  177.5520  137.5730 N   0  0  0  0  0  0  0  0  0  0  0  0
  188.0340  177.4500  142.9430 C   0  0  1  0  0  3  0  0  0  0  0  0
  188.4120  176.0010  143.2190 C   0  0  0  0  0  1  0  0  0  0  0  0
  187.5100  178.1080  144.2130 C   0  0  0  0  0  2  0  0  0  0  0  0
  185.2110  178.2750  143.3290 C   0  0  0  0  0  1  0  0  0  0  0  0
  186.0570  177.7340  144.4620 C   0  0  2  0  0  3  0  0  0  0  0  0
  185.5890  178.3160  145.7610 C   0  0  0  0  0  0  0  0  0  0  0  0
  186.2990  178.1960  146.7960 O   0  0  0  0  0  0  0  0  0  0  0  0
  184.3390  179.0020  145.8360 N   0  0  0  0  0  1  0  0  0  0  0  0
  1 21  1  0  0  0  0
  2 17  1  6  0  0  0
  2  5  1  0  0  0  0
  2  7  1  0  0  0  0
  4  6  1  0  0  0  0
  5  4  1  0  0  0  0
  6  1  1  0  0  0  0
  7  3  1  1  0  0  0
  7  1  1  0  0  0  0
  9 17  2  0  0  0  0
 10 16  1  6  0  0  0
 10 13  1  0  0  0  0
 12 19  1  0  0  0  0
 13 19  1  0  0  0  0
 13 11  1  1  0  0  0
 14 20  1  0  0  0  0
 15 12  1  0  0  0  0
 15 10  1  0  0  0  0
 16 14  1  0  0  0  0
 18 12  2  0  0  0  0
 19  8  1  6  0  0  0
 20 11  1  0  0  0  0
 20 17  1  0  0  0  0
 21 22  1  1  0  0  0
 21 23  1  0  0  0  0
 23 25  1  0  0  0  0
 25 24  1  6  0  0  0
 25 26  1  0  0  0  0
 26 28  1  0  0  0  0
 26 27  2  0  0  0  0
M  END
>  <MODEL>
8

>  <REMARK>
 VINA RESULT:      -7.0      2.500      8.488
  Name = 
  5 active torsions:
  status: ('A' for Active; 'I' for Inactive)
    1  A    between atoms: N_1  and  C_2
    2  A    between atoms: C_2  and  C_3
    3  A    between atoms: C_3  and  C_11
    4  A    between atoms: C_6  and  C_11
    5  A    between atoms: C_16  and  C_20
                            x       y       z     vdW  Elec       q    Type
                         _______ _______ _______ _____ _____    ______ ____

>  <TORSDO>
F 5

$$$$
=
 OpenBabel11052413313D

 28 30  0  0  1  0  0  0  0  0999 V2000
  189.4670  177.8820  144.6720 N   0  0  0  0  0  0  0  0  0  0  0  0
  190.4840  177.2560  142.4760 C   0  0  1  0  0  3  0  0  0  0  0  0
  188.3780  176.3210  143.2500 O   0  0  0  0  0  1  0  0  0  0  0  0
  191.6810  178.6340  143.8090 C   0  0  0  0  0  2  0  0  0  0  0  0
  191.2500  178.4350  142.4850 O   0  0  0  0  0  0  0  0  0  0  0  0
  190.4870  178.9470  144.7200 C   0  0  0  0  0  2  0  0  0  0  0  0
  189.1880  177.4620  143.2820 C   0  0  1  0  0  3  0  0  0  0  0  0
  185.1410  178.7710  142.3180 C   0  0  0  0  0  1  0  0  0  0  0  0
  190.9400  176.0030  140.5000 O   0  0  0  0  0  0  0  0  0  0  0  0
  186.7870  178.3650  139.0650 C   0  0  2  0  0  3  0  0  0  0  0  0
  188.2640  178.4610  141.0010 C   0  0  0  0  0  2  0  0  0  0  0  0
  184.8470  179.1860  139.8850 C   0  0  0  0  0  0  0  0  0  0  0  0
  186.8280  178.2530  140.5700 C   0  0  1  0  0  3  0  0  0  0  0  0
  188.9320  177.1590  138.9090 C   0  0  0  0  0  2  0  0  0  0  0  0
  185.3900  178.5460  138.7370 N   0  0  0  0  0  2  0  0  0  0  0  0
  187.4520  177.1410  138.4750 C   0  0  0  0  0  2  0  0  0  0  0  0
  190.1950  176.8530  141.0620 C   0  0  0  0  0  0  0  0  0  0  0  0
  183.6850  179.6730  139.8990 O   0  0  0  0  0  0  0  0  0  0  0  0
  185.7930  179.2560  141.0390 C   0  0  2  0  0  3  0  0  0  0  0  0
  189.0860  177.4290  140.3500 N   0  0  0  0  0  0  0  0  0  0  0  0
  189.7650  176.7560  145.5870 C   0  0  1  0  0  3  0  0  0  0  0  0
  191.1650  176.7960  146.1840 C   0  0  0  0  0  1  0  0  0  0  0  0
  188.7240  176.6460  146.6930 C   0  0  0  0  0  2  0  0  0  0  0  0
  188.1310  178.2520  148.4720 C   0  0  0  0  0  1  0  0  0  0  0  0
  188.0870  177.9970  146.9800 C   0  0  2  0  0  3  0  0  0  0  0  0
  186.6650  178.0080  146.5100 C   0  0  0  0  0  0  0  0  0  0  0  0
  186.2630  177.1280  145.7020 O   0  0  0  0  0  0  0  0  0  0  0  0
  185.7610  179.0150  146.9680 N   0  0  0  0  0  1  0  0  0  0  0  0
  1  6  1  0  0  0  0
  1 21  1  0  0  0  0
  2 17  1  6  0  0  0
  2  5  1  0  0  0  0
  2  7  1  0  0  0  0
  4  6  1  0  0  0  0
  5  4  1  0  0  0  0
  7  3  1  1  0  0  0
  7  1  1  0  0  0  0
  9 17  2  0  0  0  0
 10 16  1  6  0  0  0
 10 13  1  0  0  0  0
 12 18  2  0  0  0  0
 12 19  1  0  0  0  0
 13 11  1  1  0  0  0
 13 19  1  0  0  0  0
 14 20  1  0  0  0  0
 15 10  1  0  0  0  0
 15 12  1  0  0  0  0
 16 14  1  0  0  0  0
 19  8  1  1  0  0  0
 20 11  1  0  0  0  0
 20 17  1  0  0  0  0
 21 22  1  1  0  0  0
 21 23  1  0  0  0  0
 23 25  1  0  0  0  0
 25 24  1  1  0  0  0
 26 28  1  0  0  0  0
 26 25  1  0  0  0  0
 27 26  2  0  0  0  0
M  END
>  <MODEL>
9

>  <REMARK>
 VINA RESULT:      -7.0      2.431      7.342
  Name = 
  5 active torsions:
  status: ('A' for Active; 'I' for Inactive)
    1  A    between atoms: N_1  and  C_2
    2  A    between atoms: C_2  and  C_3
    3  A    between atoms: C_3  and  C_11
    4  A    between atoms: C_6  and  C_11
    5  A    between atoms: C_16  and  C_20
                            x       y       z     vdW  Elec       q    Type
                         _______ _______ _______ _____ _____    ______ ____

>  <TORSDO>
F 5

$$$$
