=
 OpenBabel11052415313D

 37 45  0  0  1  0  0  0  0  0999 V2000
  183.9920  178.8530  138.3510 O   0  0  0  0  0  0  0  0  0  0  0  0
  187.7980  176.4700  138.1470 C   0  0  1  0  0  3  0  0  0  0  0  0
  191.6470  177.3440  139.7060 C   0  0  2  0  0  3  0  0  0  0  0  0
  186.1580  178.0970  137.8950 N   0  0  0  0  0  0  0  0  0  0  0  0
  190.2540  177.7830  139.2740 C   0  0  1  0  0  3  0  0  0  0  0  0
  187.5200  177.9320  138.3310 C   0  0  1  0  0  3  0  0  0  0  0  0
  190.6540  176.3150  139.1800 C   0  0  1  0  0  3  0  0  0  0  0  0
  185.8800  177.0840  136.8850 C   0  0  0  0  0  2  0  0  0  0  0  0
  187.8580  178.4680  139.7350 C   0  0  1  0  0  3  0  0  0  0  0  0
  187.0570  178.9010  142.0470 C   0  0  0  0  0  2  0  0  0  0  0  0
  187.6150  175.8200  135.7010 C   0  0  0  0  0  2  0  0  0  0  0  0
  188.3010  178.2180  142.6470 C   0  0  2  0  0  3  0  0  0  0  0  0
  186.9410  175.9650  137.0340 C   0  0  2  0  0  0  0  0  0  0  0  0
  186.6970  178.2750  140.7010 C   0  0  1  0  0  3  0  0  0  0  0  0
  191.8670  177.3770  141.2360 C   0  0  0  0  0  2  0  0  0  0  0  0
  188.4600  176.3690  136.8190 C   0  0  2  0  0  0  0  0  0  0  0  0
  189.1110  177.7760  140.2880 C   0  0  2  0  0  3  0  0  0  0  0  0
  185.1510  178.6100  138.7770 C   0  0  0  0  0  0  0  0  0  0  0  0
  190.8250  175.9700  137.6890 C   0  0  2  0  0  3  0  0  0  0  0  0
  185.4770  178.8560  140.1490 N   0  0  0  0  0  2  0  0  0  0  0  0
  189.5150  178.2410  141.6770 C   0  0  2  0  0  3  0  0  0  0  0  0
  190.6360  177.3160  142.1470 C   0  0  0  0  0  2  0  0  0  0  0  0
  189.5530  175.3320  137.0790 C   0  0  0  0  0  2  0  0  0  0  0  0
  193.2710  175.5060  137.8920 C   0  0  0  0  0  3  0  0  0  0  0  0
  192.0040  175.0720  137.4850 C   0  0  0  0  0  0  0  0  0  0  0  0
  191.8600  173.8040  136.9000 C   0  0  0  0  0  3  0  0  0  0  0  0
  192.8330  171.7590  136.1570 F   0  0  0  0  0  0  0  0  0  0  0  0
  194.2390  173.4200  137.1300 C   0  0  0  0  0  3  0  0  0  0  0  0
  192.9760  172.9820  136.7230 C   0  0  0  0  0  0  0  0  0  0  0  0
  194.3870  174.6820  137.7140 C   0  0  0  0  0  3  0  0  0  0  0  0
  187.9510  176.8510  143.1810 C   0  0  0  0  0  0  0  0  0  0  0  0
  188.4510  175.8450  142.6980 O   0  0  0  0  0  0  0  0  0  0  0  0
  187.0070  176.7280  144.3290 C   0  0  0  0  0  2  0  0  0  0  0  0
  187.5380  177.4640  145.5110 C   0  0  0  0  0  3  0  0  0  0  0  0
  188.6840  177.0910  146.0690 C   0  0  0  0  0  3  0  0  0  0  0  0
  189.2110  177.8290  147.2490 C   0  0  0  0  0  2  0  0  0  0  0  0
  188.1590  177.8550  148.3380 C   0  0  0  0  0  1  0  0  0  0  0  0
  1 18  2  0  0  0  0
  2  6  1  0  0  0  0
  3 15  1  0  0  0  0
  4  6  1  0  0  0  0
  4 18  1  0  0  0  0
  5  3  1  0  0  0  0
  5 17  1  0  0  0  0
  6  9  1  0  0  0  0
  7  5  1  0  0  0  0
  7  3  1  0  0  0  0
  8 13  1  0  0  0  0
  8  4  1  0  0  0  0
  9 17  1  0  0  0  0
  9 14  1  0  0  0  0
 10 12  1  0  0  0  0
 11 16  1  0  0  0  0
 11 13  1  0  0  0  0
 12 31  1  0  0  0  0
 13  2  1  0  0  0  0
 14 10  1  0  0  0  0
 15 22  1  0  0  0  0
 16 13  1  0  0  0  0
 16 23  1  0  0  0  0
 16  2  1  0  0  0  0
 17 21  1  0  0  0  0
 18 20  1  0  0  0  0
 19  7  1  0  0  0  0
 20 14  1  0  0  0  0
 21 22  1  0  0  0  0
 21 12  1  0  0  0  0
 23 19  1  0  0  0  0
 25 19  1  0  0  0  0
 25 24  2  0  0  0  0
 26 25  1  0  0  0  0
 27 29  1  0  0  0  0
 28 30  2  0  0  0  0
 29 26  2  0  0  0  0
 29 28  1  0  0  0  0
 30 24  1  0  0  0  0
 31 33  1  0  0  0  0
 32 31  2  0  0  0  0
 33 34  1  0  0  0  0
 34 35  2  0  0  0  0
 35 36  1  0  0  0  0
 36 37  1  0  0  0  0
M  END
>  <MODEL>
1

>  <REMARK>
 VINA RESULT:      -8.9      0.000      0.000
  Name = 
  5 active torsions:
  status: ('A' for Active; 'I' for Inactive)
    1  A    between atoms: C_1  and  C_5
    2  A    between atoms: C_1  and  C_23
    3  A    between atoms: C_5  and  C_17
    4  A    between atoms: C_6  and  C_31
    5  A    between atoms: C_11  and  C_26
                            x       y       z     vdW  Elec       q    Type
                         _______ _______ _______ _____ _____    ______ ____

>  <TORSDO>
F 5

$$$$
=
 OpenBabel11052415313D

 37 45  0  0  1  0  0  0  0  0999 V2000
  188.8940  177.7710  135.1350 O   0  0  0  0  0  0  0  0  0  0  0  0
  188.2550  177.2380  139.5530 C   0  0  1  0  0  3  0  0  0  0  0  0
  185.3400  178.9580  142.1110 C   0  0  2  0  0  3  0  0  0  0  0  0
  188.7250  178.0970  137.4460 N   0  0  0  0  0  0  0  0  0  0  0  0
  186.1250  178.9440  140.8070 C   0  0  1  0  0  3  0  0  0  0  0  0
  187.8930  178.3340  138.5960 C   0  0  1  0  0  3  0  0  0  0  0  0
  186.3640  177.8600  141.8510 C   0  0  1  0  0  3  0  0  0  0  0  0
  189.9480  177.4450  137.8960 C   0  0  0  0  0  2  0  0  0  0  0  0
  186.3810  178.4680  138.3310 C   0  0  1  0  0  3  0  0  0  0  0  0
  184.4430  177.7810  136.9370 C   0  0  0  0  0  2  0  0  0  0  0  0
  190.6940  177.4040  140.2310 C   0  0  0  0  0  2  0  0  0  0  0  0
  183.6020  177.4710  138.1900 C   0  0  2  0  0  3  0  0  0  0  0  0
  189.6690  176.8360  139.2930 C   0  0  2  0  0  0  0  0  0  0  0  0
  185.9260  177.5410  137.2120 C   0  0  1  0  0  3  0  0  0  0  0  0
  183.8520  178.5710  141.9510 C   0  0  0  0  0  2  0  0  0  0  0  0
  189.2700  177.8380  140.4580 C   0  0  2  0  0  0  0  0  0  0  0  0
  185.5830  178.1700  139.6070 C   0  0  2  0  0  3  0  0  0  0  0  0
  188.1550  177.8670  136.1500 C   0  0  0  0  0  0  0  0  0  0  0  0
  187.7440  178.1150  142.4840 C   0  0  2  0  0  3  0  0  0  0  0  0
  186.7350  177.7560  136.0160 N   0  0  0  0  0  2  0  0  0  0  0  0
  184.0760  178.2720  139.4340 C   0  0  2  0  0  3  0  0  0  0  0  0
  183.4450  177.7490  140.7220 C   0  0  0  0  0  2  0  0  0  0  0  0
  188.8630  177.2750  141.8210 C   0  0  0  0  0  2  0  0  0  0  0  0
  186.4700  177.8100  144.6110 C   0  0  0  0  0  3  0  0  0  0  0  0
  187.7070  177.8570  143.9570 C   0  0  0  0  0  0  0  0  0  0  0  0
  188.8870  177.6560  144.6900 C   0  0  0  0  0  3  0  0  0  0  0  0
  189.9670  177.2200  146.7700 F   0  0  0  0  0  0  0  0  0  0  0  0
  187.5890  177.3690  146.7130 C   0  0  0  0  0  3  0  0  0  0  0  0
  188.8270  177.4130  146.0650 C   0  0  0  0  0  0  0  0  0  0  0  0
  186.4110  177.5670  145.9860 C   0  0  0  0  0  3  0  0  0  0  0  0
  183.4980  175.9810  138.4070 C   0  0  0  0  0  0  0  0  0  0  0  0
  182.6930  175.5190  139.2020 O   0  0  0  0  0  0  0  0  0  0  0  0
  184.3720  175.0600  137.6230 C   0  0  0  0  0  2  0  0  0  0  0  0
  183.6270  173.8150  137.2810 C   0  0  0  0  0  3  0  0  0  0  0  0
  184.2610  172.6480  137.2450 C   0  0  0  0  0  3  0  0  0  0  0  0
  183.5140  171.4070  136.9030 C   0  0  0  0  0  2  0  0  0  0  0  0
  182.0290  171.7000  136.8920 C   0  0  0  0  0  1  0  0  0  0  0  0
  1 18  2  0  0  0  0
  2 16  1  0  0  0  0
  4  8  1  0  0  0  0
  4  6  1  0  0  0  0
  5  7  1  0  0  0  0
  5  3  1  0  0  0  0
  6  2  1  0  0  0  0
  7  3  1  0  0  0  0
  7 19  1  0  0  0  0
  8 13  1  0  0  0  0
  9  6  1  0  0  0  0
  9 17  1  0  0  0  0
 10 14  1  0  0  0  0
 10 12  1  0  0  0  0
 11 16  1  0  0  0  0
 12 31  1  0  0  0  0
 12 21  1  0  0  0  0
 13  2  1  0  0  0  0
 13 11  1  0  0  0  0
 13 16  1  0  0  0  0
 14  9  1  0  0  0  0
 15  3  1  0  0  0  0
 16 23  1  0  0  0  0
 17  5  1  0  0  0  0
 18  4  1  0  0  0  0
 19 25  1  0  0  0  0
 20 18  1  0  0  0  0
 20 14  1  0  0  0  0
 21 17  1  0  0  0  0
 21 22  1  0  0  0  0
 22 15  1  0  0  0  0
 23 19  1  0  0  0  0
 24 30  1  0  0  0  0
 25 24  2  0  0  0  0
 25 26  1  0  0  0  0
 26 29  2  0  0  0  0
 29 28  1  0  0  0  0
 29 27  1  0  0  0  0
 30 28  2  0  0  0  0
 31 32  2  0  0  0  0
 33 31  1  0  0  0  0
 34 33  1  0  0  0  0
 35 34  2  0  0  0  0
 36 35  1  0  0  0  0
 37 36  1  0  0  0  0
M  END
>  <MODEL>
2

>  <REMARK>
 VINA RESULT:      -8.5      3.353      7.613
  Name = 
  5 active torsions:
  status: ('A' for Active; 'I' for Inactive)
    1  A    between atoms: C_1  and  C_5
    2  A    between atoms: C_1  and  C_23
    3  A    between atoms: C_5  and  C_17
    4  A    between atoms: C_6  and  C_31
    5  A    between atoms: C_11  and  C_26
                            x       y       z     vdW  Elec       q    Type
                         _______ _______ _______ _____ _____    ______ ____

>  <TORSDO>
F 5

$$$$
=
 OpenBabel11052415313D

 37 45  0  0  1  0  0  0  0  0999 V2000
  188.2650  177.7010  135.0410 O   0  0  0  0  0  0  0  0  0  0  0  0
  187.8680  177.2310  139.4940 C   0  0  1  0  0  3  0  0  0  0  0  0
  185.1440  179.0470  142.1930 C   0  0  2  0  0  3  0  0  0  0  0  0
  188.2360  178.0570  137.3530 N   0  0  0  0  0  0  0  0  0  0  0  0
  185.8520  179.0010  140.8460 C   0  0  1  0  0  3  0  0  0  0  0  0
  187.4760  178.3250  138.5450 C   0  0  1  0  0  3  0  0  0  0  0  0
  186.1260  177.9220  141.8880 C   0  0  1  0  0  3  0  0  0  0  0  0
  189.4670  177.3820  137.7410 C   0  0  0  0  0  2  0  0  0  0  0  0
  185.9560  178.4920  138.3650 C   0  0  1  0  0  3  0  0  0  0  0  0
  183.9260  177.8340  137.0930 C   0  0  0  0  0  2  0  0  0  0  0  0
  190.3450  177.3490  140.0300 C   0  0  0  0  0  2  0  0  0  0  0  0
  183.1510  177.5580  138.3950 C   0  0  2  0  0  3  0  0  0  0  0  0
  189.2550  176.7940  139.1590 C   0  0  2  0  0  0  0  0  0  0  0  0
  185.4160  177.5630  137.2860 C   0  0  1  0  0  3  0  0  0  0  0  0
  183.6400  178.6930  142.1230 C   0  0  0  0  0  2  0  0  0  0  0  0
  188.9470  177.8170  140.3330 C   0  0  2  0  0  0  0  0  0  0  0  0
  185.2250  178.2260  139.6890 C   0  0  2  0  0  3  0  0  0  0  0  0
  187.5880  177.8250  136.0950 C   0  0  0  0  0  0  0  0  0  0  0  0
  187.5450  178.1520  142.4380 C   0  0  2  0  0  3  0  0  0  0  0  0
  186.1600  177.7460  136.0440 N   0  0  0  0  0  2  0  0  0  0  0  0
  183.7140  178.3620  139.6010 C   0  0  2  0  0  3  0  0  0  0  0  0
  183.1450  177.8670  140.9290 C   0  0  0  0  0  2  0  0  0  0  0  0
  188.6050  177.2790  141.7230 C   0  0  0  0  0  2  0  0  0  0  0  0
  186.3840  177.7880  144.6200 C   0  0  0  0  0  3  0  0  0  0  0  0
  187.5870  177.9110  143.9150 C   0  0  0  0  0  0  0  0  0  0  0  0
  188.8070  177.8010  144.5990 C   0  0  0  0  0  3  0  0  0  0  0  0
  189.9990  177.4670  146.6360 F   0  0  0  0  0  0  0  0  0  0  0  0
  187.6160  177.4510  146.6780 C   0  0  0  0  0  3  0  0  0  0  0  0
  188.8200  177.5720  145.9780 C   0  0  0  0  0  0  0  0  0  0  0  0
  186.3990  177.5590  145.9990 C   0  0  0  0  0  3  0  0  0  0  0  0
  183.0260  176.0730  138.6360 C   0  0  0  0  0  0  0  0  0  0  0  0
  182.7440  175.6410  139.7450 O   0  0  0  0  0  0  0  0  0  0  0  0
  183.2250  175.1240  137.5030 C   0  0  0  0  0  2  0  0  0  0  0  0
  184.2720  174.1220  137.8510 C   0  0  0  0  0  3  0  0  0  0  0  0
  185.2840  173.9000  137.0200 C   0  0  0  0  0  3  0  0  0  0  0  0
  186.3280  172.8980  137.3710 C   0  0  0  0  0  2  0  0  0  0  0  0
  187.6520  173.3170  136.7670 C   0  0  0  0  0  1  0  0  0  0  0  0
  1 18  2  0  0  0  0
  2 16  1  0  0  0  0
  4  8  1  0  0  0  0
  4  6  1  0  0  0  0
  5  7  1  0  0  0  0
  5  3  1  0  0  0  0
  6  2  1  0  0  0  0
  7  3  1  0  0  0  0
  7 19  1  0  0  0  0
  8 13  1  0  0  0  0
  9  6  1  0  0  0  0
  9 17  1  0  0  0  0
 10 14  1  0  0  0  0
 10 12  1  0  0  0  0
 11 16  1  0  0  0  0
 12 31  1  0  0  0  0
 12 21  1  0  0  0  0
 13  2  1  0  0  0  0
 13 11  1  0  0  0  0
 13 16  1  0  0  0  0
 14  9  1  0  0  0  0
 15  3  1  0  0  0  0
 16 23  1  0  0  0  0
 17  5  1  0  0  0  0
 18  4  1  0  0  0  0
 19 25  1  0  0  0  0
 20 18  1  0  0  0  0
 20 14  1  0  0  0  0
 21 17  1  0  0  0  0
 21 22  1  0  0  0  0
 22 15  1  0  0  0  0
 23 19  1  0  0  0  0
 24 30  1  0  0  0  0
 25 26  1  0  0  0  0
 25 24  2  0  0  0  0
 26 29  2  0  0  0  0
 29 27  1  0  0  0  0
 29 28  1  0  0  0  0
 30 28  2  0  0  0  0
 31 32  2  0  0  0  0
 33 34  1  0  0  0  0
 33 31  1  0  0  0  0
 35 36  1  0  0  0  0
 35 34  2  0  0  0  0
 37 36  1  0  0  0  0
M  END
>  <MODEL>
3

>  <REMARK>
 VINA RESULT:      -8.4      3.372      7.399
  Name = 
  5 active torsions:
  status: ('A' for Active; 'I' for Inactive)
    1  A    between atoms: C_1  and  C_5
    2  A    between atoms: C_1  and  C_23
    3  A    between atoms: C_5  and  C_17
    4  A    between atoms: C_6  and  C_31
    5  A    between atoms: C_11  and  C_26
                            x       y       z     vdW  Elec       q    Type
                         _______ _______ _______ _____ _____    ______ ____

>  <TORSDO>
F 5

$$$$
=
 OpenBabel11052415313D

 37 45  0  0  1  0  0  0  0  0999 V2000
  192.1260  176.7490  137.8750 O   0  0  0  0  0  0  0  0  0  0  0  0
  188.5830  177.1710  140.6090 C   0  0  1  0  0  3  0  0  0  0  0  0
  184.9200  179.2310  140.0240 C   0  0  2  0  0  3  0  0  0  0  0  0
  190.4590  177.5690  139.2970 N   0  0  0  0  0  0  0  0  0  0  0  0
  186.3780  178.9770  139.6630 C   0  0  1  0  0  3  0  0  0  0  0  0
  189.0980  178.0030  139.4720 C   0  0  1  0  0  3  0  0  0  0  0  0
  185.7150  178.1680  140.7730 C   0  0  1  0  0  3  0  0  0  0  0  0
  190.9590  177.1110  140.5860 C   0  0  0  0  0  2  0  0  0  0  0  0
  188.2050  177.9800  138.2180 C   0  0  1  0  0  3  0  0  0  0  0  0
  187.6870  176.8800  136.0510 C   0  0  0  0  0  2  0  0  0  0  0  0
  189.8940  177.6360  142.7310 C   0  0  0  0  0  2  0  0  0  0  0  0
  186.1890  176.8050  136.4030 C   0  0  2  0  0  3  0  0  0  0  0  0
  189.7350  176.8100  141.4870 C   0  0  2  0  0  0  0  0  0  0  0  0
  188.5400  176.8010  137.3150 C   0  0  1  0  0  3  0  0  0  0  0  0
  183.9150  178.7260  138.9630 C   0  0  0  0  0  2  0  0  0  0  0  0
  188.7610  178.0190  141.8180 C   0  0  2  0  0  0  0  0  0  0  0  0
  186.7230  177.9230  138.6130 C   0  0  2  0  0  3  0  0  0  0  0  0
  190.9100  177.0210  138.0510 C   0  0  0  0  0  0  0  0  0  0  0  0
  186.3050  178.6430  142.1130 C   0  0  2  0  0  3  0  0  0  0  0  0
  189.9650  176.7950  136.9990 N   0  0  0  0  0  2  0  0  0  0  0  0
  185.7670  177.8910  137.4320 C   0  0  2  0  0  3  0  0  0  0  0  0
  184.3720  177.6280  137.9960 C   0  0  0  0  0  2  0  0  0  0  0  0
  187.4730  177.7490  142.5960 C   0  0  0  0  0  2  0  0  0  0  0  0
  183.9120  178.9250  142.7750 C   0  0  0  0  0  3  0  0  0  0  0  0
  185.2410  178.7170  143.1640 C   0  0  0  0  0  0  0  0  0  0  0  0
  185.5520  178.5760  144.5250 C   0  0  0  0  0  3  0  0  0  0  0  0
  184.8430  178.5100  146.8000 F   0  0  0  0  0  0  0  0  0  0  0  0
  183.2150  178.8540  145.0930 C   0  0  0  0  0  3  0  0  0  0  0  0
  184.5400  178.6450  145.4870 C   0  0  0  0  0  0  0  0  0  0  0  0
  182.9020  178.9940  143.7380 C   0  0  0  0  0  3  0  0  0  0  0  0
  185.8020  175.3970  136.7840 C   0  0  0  0  0  0  0  0  0  0  0  0
  186.4600  174.7660  137.5990 O   0  0  0  0  0  0  0  0  0  0  0  0
  184.5870  174.7780  136.1790 C   0  0  0  0  0  2  0  0  0  0  0  0
  184.2700  173.4940  136.8650 C   0  0  0  0  0  3  0  0  0  0  0  0
  183.5900  172.5470  136.2280 C   0  0  0  0  0  3  0  0  0  0  0  0
  183.2750  171.2660  136.9170 C   0  0  0  0  0  2  0  0  0  0  0  0
  183.5090  170.1110  135.9660 C   0  0  0  0  0  1  0  0  0  0  0  0
  1 18  2  0  0  0  0
  2 13  1  0  0  0  0
  2 16  1  0  0  0  0
  3  7  1  0  0  0  0
  4  6  1  0  0  0  0
  4  8  1  0  0  0  0
  5  3  1  0  0  0  0
  5  7  1  0  0  0  0
  6  2  1  0  0  0  0
  7 19  1  0  0  0  0
  8 13  1  0  0  0  0
  9 17  1  0  0  0  0
  9  6  1  0  0  0  0
 10 12  1  0  0  0  0
 10 14  1  0  0  0  0
 12 31  1  0  0  0  0
 12 21  1  0  0  0  0
 13 16  1  0  0  0  0
 13 11  1  0  0  0  0
 14  9  1  0  0  0  0
 15  3  1  0  0  0  0
 16 23  1  0  0  0  0
 16 11  1  0  0  0  0
 17  5  1  0  0  0  0
 18  4  1  0  0  0  0
 19 23  1  0  0  0  0
 19 25  1  0  0  0  0
 20 14  1  0  0  0  0
 20 18  1  0  0  0  0
 21 22  1  0  0  0  0
 21 17  1  0  0  0  0
 22 15  1  0  0  0  0
 24 25  2  0  0  0  0
 24 30  1  0  0  0  0
 25 26  1  0  0  0  0
 26 29  2  0  0  0  0
 28 29  1  0  0  0  0
 29 27  1  0  0  0  0
 30 28  2  0  0  0  0
 31 32  2  0  0  0  0
 33 31  1  0  0  0  0
 33 34  1  0  0  0  0
 35 34  2  0  0  0  0
 35 36  1  0  0  0  0
 37 36  1  0  0  0  0
M  END
>  <MODEL>
4

>  <REMARK>
 VINA RESULT:      -8.2      3.827      8.608
  Name = 
  5 active torsions:
  status: ('A' for Active; 'I' for Inactive)
    1  A    between atoms: C_1  and  C_5
    2  A    between atoms: C_1  and  C_23
    3  A    between atoms: C_5  and  C_17
    4  A    between atoms: C_6  and  C_31
    5  A    between atoms: C_11  and  C_26
                            x       y       z     vdW  Elec       q    Type
                         _______ _______ _______ _____ _____    ______ ____

>  <TORSDO>
F 5

$$$$
=
 OpenBabel11052415313D

 37 45  0  0  1  0  0  0  0  0999 V2000
  189.3500  177.4160  134.9610 O   0  0  0  0  0  0  0  0  0  0  0  0
  187.5720  177.4560  139.0900 C   0  0  1  0  0  3  0  0  0  0  0  0
  183.9000  179.0820  140.4600 C   0  0  2  0  0  3  0  0  0  0  0  0
  188.5150  178.0540  137.0520 N   0  0  0  0  0  0  0  0  0  0  0  0
  185.0130  178.9920  139.4240 C   0  0  1  0  0  3  0  0  0  0  0  0
  187.3770  178.3310  137.8880 C   0  0  1  0  0  3  0  0  0  0  0  0
  185.0640  178.1230  140.6750 C   0  0  1  0  0  3  0  0  0  0  0  0
  189.6260  177.6670  137.9110 C   0  0  0  0  0  2  0  0  0  0  0  0
  185.9930  178.1970  137.2260 C   0  0  1  0  0  3  0  0  0  0  0  0
  184.5990  177.0270  135.5340 C   0  0  0  0  0  2  0  0  0  0  0  0
  189.6970  178.0850  140.3260 C   0  0  0  0  0  2  0  0  0  0  0  0
  183.4810  176.7850  136.5660 C   0  0  2  0  0  3  0  0  0  0  0  0
  189.0370  177.2370  139.2780 C   0  0  2  0  0  0  0  0  0  0  0  0
  185.9640  177.0560  136.2180 C   0  0  1  0  0  3  0  0  0  0  0  0
  182.5630  178.4570  139.9990 C   0  0  0  0  0  2  0  0  0  0  0  0
  188.2290  178.3290  140.0990 C   0  0  2  0  0  0  0  0  0  0  0  0
  184.9070  177.9750  138.2890 C   0  0  2  0  0  3  0  0  0  0  0  0
  188.3540  177.5500  135.7190 C   0  0  0  0  0  0  0  0  0  0  0  0
  186.1810  178.6730  141.5810 C   0  0  2  0  0  3  0  0  0  0  0  0
  187.0450  177.2090  135.2500 N   0  0  0  0  0  2  0  0  0  0  0  0
  183.5060  177.8240  137.7220 C   0  0  2  0  0  3  0  0  0  0  0  0
  182.6000  177.4100  138.8790 C   0  0  0  0  0  2  0  0  0  0  0  0
  187.5210  177.9210  141.3920 C   0  0  0  0  0  2  0  0  0  0  0  0
  184.6350  179.3560  143.4210 C   0  0  0  0  0  3  0  0  0  0  0  0
  185.7640  178.6340  143.0180 C   0  0  0  0  0  0  0  0  0  0  0  0
  186.4820  177.8840  143.9630 C   0  0  0  0  0  3  0  0  0  0  0  0
  186.7660  177.1370  146.2080 F   0  0  0  0  0  0  0  0  0  0  0  0
  184.9430  178.5850  145.6960 C   0  0  0  0  0  3  0  0  0  0  0  0
  186.0710  177.8610  145.2980 C   0  0  0  0  0  0  0  0  0  0  0  0
  184.2260  179.3320  144.7570 C   0  0  0  0  0  3  0  0  0  0  0  0
  183.4770  175.3450  137.0190 C   0  0  0  0  0  0  0  0  0  0  0  0
  184.1770  174.9820  137.9530 O   0  0  0  0  0  0  0  0  0  0  0  0
  182.5890  174.3600  136.3360 C   0  0  0  0  0  2  0  0  0  0  0  0
  181.6240  173.7780  137.3110 C   0  0  0  0  0  3  0  0  0  0  0  0
  180.7150  174.5530  137.8930 C   0  0  0  0  0  3  0  0  0  0  0  0
  179.7530  173.9680  138.8670 C   0  0  0  0  0  2  0  0  0  0  0  0
  179.8390  174.7240  140.1750 C   0  0  0  0  0  1  0  0  0  0  0  0
  1 18  2  0  0  0  0
  2 13  1  0  0  0  0
  2 16  1  0  0  0  0
  3  7  1  0  0  0  0
  4  6  1  0  0  0  0
  4  8  1  0  0  0  0
  5  3  1  0  0  0  0
  5  7  1  0  0  0  0
  6  2  1  0  0  0  0
  7 19  1  0  0  0  0
  8 13  1  0  0  0  0
  9  6  1  0  0  0  0
  9 17  1  0  0  0  0
 10 14  1  0  0  0  0
 10 12  1  0  0  0  0
 12 31  1  0  0  0  0
 12 21  1  0  0  0  0
 13 16  1  0  0  0  0
 13 11  1  0  0  0  0
 14  9  1  0  0  0  0
 15  3  1  0  0  0  0
 16 11  1  0  0  0  0
 16 23  1  0  0  0  0
 17  5  1  0  0  0  0
 18  4  1  0  0  0  0
 19 25  1  0  0  0  0
 20 18  1  0  0  0  0
 20 14  1  0  0  0  0
 21 17  1  0  0  0  0
 21 22  1  0  0  0  0
 22 15  1  0  0  0  0
 23 19  1  0  0  0  0
 24 30  1  0  0  0  0
 25 24  2  0  0  0  0
 25 26  1  0  0  0  0
 26 29  2  0  0  0  0
 29 28  1  0  0  0  0
 29 27  1  0  0  0  0
 30 28  2  0  0  0  0
 31 32  2  0  0  0  0
 33 31  1  0  0  0  0
 33 34  1  0  0  0  0
 34 35  2  0  0  0  0
 35 36  1  0  0  0  0
 36 37  1  0  0  0  0
M  END
>  <MODEL>
5

>  <REMARK>
 VINA RESULT:      -8.0      3.727      8.210
  Name = 
  5 active torsions:
  status: ('A' for Active; 'I' for Inactive)
    1  A    between atoms: C_1  and  C_5
    2  A    between atoms: C_1  and  C_23
    3  A    between atoms: C_5  and  C_17
    4  A    between atoms: C_6  and  C_31
    5  A    between atoms: C_11  and  C_26
                            x       y       z     vdW  Elec       q    Type
                         _______ _______ _______ _____ _____    ______ ____

>  <TORSDO>
F 5

$$$$
=
 OpenBabel11052415313D

 37 45  0  0  1  0  0  0  0  0999 V2000
  194.2080  176.7500  140.0050 O   0  0  0  0  0  0  0  0  0  0  0  0
  189.8730  177.0610  141.1510 C   0  0  1  0  0  3  0  0  0  0  0  0
  186.6090  178.7500  139.0300 C   0  0  2  0  0  3  0  0  0  0  0  0
  192.0840  177.5240  140.6060 N   0  0  0  0  0  0  0  0  0  0  0  0
  188.1050  178.5980  139.2700 C   0  0  1  0  0  3  0  0  0  0  0  0
  190.7390  177.8500  140.2140 C   0  0  1  0  0  3  0  0  0  0  0  0
  187.1120  177.8170  140.1240 C   0  0  1  0  0  3  0  0  0  0  0  0
  192.0770  177.2050  142.0280 C   0  0  0  0  0  2  0  0  0  0  0  0
  190.3950  177.6600  138.7250 C   0  0  1  0  0  3  0  0  0  0  0  0
  190.8020  176.3660  136.6430 C   0  0  0  0  0  2  0  0  0  0  0  0
  190.2480  177.7900  143.5520 C   0  0  0  0  0  2  0  0  0  0  0  0
  189.2900  176.1870  136.4120 C   0  0  2  0  0  3  0  0  0  0  0  0
  190.6190  176.8660  142.4290 C   0  0  2  0  0  0  0  0  0  0  0  0
  191.1110  176.4520  138.1360 C   0  0  1  0  0  3  0  0  0  0  0  0
  186.1130  178.0850  137.7250 C   0  0  0  0  0  2  0  0  0  0  0  0
  189.5310  178.0070  142.2460 C   0  0  2  0  0  0  0  0  0  0  0  0
  188.8800  177.5040  138.5370 C   0  0  2  0  0  3  0  0  0  0  0  0
  193.0050  176.9280  139.6830 C   0  0  0  0  0  0  0  0  0  0  0  0
  187.1190  178.4370  141.5340 C   0  0  2  0  0  3  0  0  0  0  0  0
  192.5470  176.5460  138.3810 N   0  0  0  0  0  2  0  0  0  0  0  0
  188.4500  177.3040  137.0930 C   0  0  2  0  0  3  0  0  0  0  0  0
  186.9620  176.9640  137.1150 C   0  0  0  0  0  2  0  0  0  0  0  0
  188.0590  177.6830  142.5070 C   0  0  0  0  0  2  0  0  0  0  0  0
  184.6420  178.3240  141.2340 C   0  0  0  0  0  3  0  0  0  0  0  0
  185.7320  178.4940  142.0940 C   0  0  0  0  0  0  0  0  0  0  0  0
  185.5100  178.7090  143.4630 C   0  0  0  0  0  3  0  0  0  0  0  0
  183.9930  178.9640  145.2840 F   0  0  0  0  0  0  0  0  0  0  0  0
  183.1200  178.5860  143.0990 C   0  0  0  0  0  3  0  0  0  0  0  0
  184.2060  178.7550  143.9630 C   0  0  0  0  0  0  0  0  0  0  0  0
  183.3380  178.3700  141.7350 C   0  0  0  0  0  3  0  0  0  0  0  0
  188.8600  174.7820  136.7580 C   0  0  0  0  0  0  0  0  0  0  0  0
  189.1630  174.2830  137.8320 O   0  0  0  0  0  0  0  0  0  0  0  0
  188.0360  174.0050  135.7880 C   0  0  0  0  0  2  0  0  0  0  0  0
  186.6370  173.8820  136.2880 C   0  0  0  0  0  3  0  0  0  0  0  0
  186.3070  172.8880  137.1060 C   0  0  0  0  0  3  0  0  0  0  0  0
  184.9090  172.7680  137.6030 C   0  0  0  0  0  2  0  0  0  0  0  0
  184.2520  174.1330  137.5920 C   0  0  0  0  0  1  0  0  0  0  0  0
  2 16  1  0  0  0  0
  2 13  1  0  0  0  0
  3  5  1  0  0  0  0
  3  7  1  0  0  0  0
  4  8  1  0  0  0  0
  5  7  1  0  0  0  0
  6  4  1  0  0  0  0
  6  2  1  0  0  0  0
  7 19  1  0  0  0  0
  8 13  1  0  0  0  0
  9  6  1  0  0  0  0
 10 14  1  0  0  0  0
 12 10  1  0  0  0  0
 12 31  1  0  0  0  0
 12 21  1  0  0  0  0
 13 11  1  0  0  0  0
 14 20  1  0  0  0  0
 14  9  1  0  0  0  0
 15  3  1  0  0  0  0
 16 13  1  0  0  0  0
 16 23  1  0  0  0  0
 16 11  1  0  0  0  0
 17  9  1  0  0  0  0
 17  5  1  0  0  0  0
 18  1  2  0  0  0  0
 18  4  1  0  0  0  0
 19 25  1  0  0  0  0
 19 23  1  0  0  0  0
 20 18  1  0  0  0  0
 21 22  1  0  0  0  0
 21 17  1  0  0  0  0
 22 15  1  0  0  0  0
 24 30  2  0  0  0  0
 24 25  1  0  0  0  0
 25 26  2  0  0  0  0
 26 29  1  0  0  0  0
 28 29  2  0  0  0  0
 29 27  1  0  0  0  0
 30 28  1  0  0  0  0
 31 32  2  0  0  0  0
 33 34  1  0  0  0  0
 33 31  1  0  0  0  0
 34 35  2  0  0  0  0
 35 36  1  0  0  0  0
 37 36  1  0  0  0  0
M  END
>  <MODEL>
6

>  <REMARK>
 VINA RESULT:      -7.8      3.779      8.234
  Name = 
  5 active torsions:
  status: ('A' for Active; 'I' for Inactive)
    1  A    between atoms: C_1  and  C_5
    2  A    between atoms: C_1  and  C_23
    3  A    between atoms: C_5  and  C_17
    4  A    between atoms: C_6  and  C_31
    5  A    between atoms: C_11  and  C_26
                            x       y       z     vdW  Elec       q    Type
                         _______ _______ _______ _____ _____    ______ ____

>  <TORSDO>
F 5

$$$$
=
 OpenBabel11052415313D

 37 45  0  0  1  0  0  0  0  0999 V2000
  192.0390  177.0730  142.4110 O   0  0  0  0  0  0  0  0  0  0  0  0
  187.5480  177.2600  142.4350 C   0  0  1  0  0  3  0  0  0  0  0  0
  184.8960  179.3820  139.8920 C   0  0  2  0  0  3  0  0  0  0  0  0
  189.8110  177.7680  142.5750 N   0  0  0  0  0  0  0  0  0  0  0  0
  186.2830  179.1560  140.4780 C   0  0  1  0  0  3  0  0  0  0  0  0
  188.6040  178.1900  141.9160 C   0  0  1  0  0  3  0  0  0  0  0  0
  185.1250  178.2520  140.8880 C   0  0  1  0  0  3  0  0  0  0  0  0
  189.4470  177.1910  143.8630 C   0  0  0  0  0  2  0  0  0  0  0  0
  188.6610  178.2860  140.3800 C   0  0  1  0  0  3  0  0  0  0  0  0
  189.6270  177.3920  138.2720 C   0  0  0  0  0  2  0  0  0  0  0  0
  187.2710  177.5230  144.9430 C   0  0  0  0  0  2  0  0  0  0  0  0
  188.2300  177.2910  137.6290 C   0  0  2  0  0  3  0  0  0  0  0  0
  187.9450  176.8160  143.8040 C   0  0  2  0  0  0  0  0  0  0  0  0
  189.5380  177.1930  139.7840 C   0  0  1  0  0  3  0  0  0  0  0  0
  184.7710  178.9810  138.4040 C   0  0  0  0  0  2  0  0  0  0  0  0
  186.9090  177.9940  143.5600 C   0  0  2  0  0  0  0  0  0  0  0  0
  187.2500  178.2000  139.7820 C   0  0  2  0  0  3  0  0  0  0  0  0
  190.9550  177.3340  141.8270 C   0  0  0  0  0  0  0  0  0  0  0  0
  184.7520  178.6000  142.3400 C   0  0  2  0  0  3  0  0  0  0  0  0
  190.8590  177.2090  140.4050 N   0  0  0  0  0  2  0  0  0  0  0  0
  187.2130  178.2810  138.2650 C   0  0  2  0  0  3  0  0  0  0  0  0
  185.7790  177.9740  137.8380 C   0  0  0  0  0  2  0  0  0  0  0  0
  185.4290  177.6590  143.3670 C   0  0  0  0  0  2  0  0  0  0  0  0
  182.7320  178.8710  143.7850 C   0  0  0  0  0  3  0  0  0  0  0  0
  183.2660  178.5820  142.5240 C   0  0  0  0  0  0  0  0  0  0  0  0
  182.4050  178.2860  141.4570 C   0  0  0  0  0  3  0  0  0  0  0  0
  180.1920  177.9930  140.6200 F   0  0  0  0  0  0  0  0  0  0  0  0
  180.4930  178.5680  142.9140 C   0  0  0  0  0  3  0  0  0  0  0  0
  181.0210  178.2790  141.6520 C   0  0  0  0  0  0  0  0  0  0  0  0
  181.3480  178.8640  143.9790 C   0  0  0  0  0  3  0  0  0  0  0  0
  187.7650  175.8560  137.5870 C   0  0  0  0  0  0  0  0  0  0  0  0
  188.4670  174.9580  138.0300 O   0  0  0  0  0  0  0  0  0  0  0  0
  186.4220  175.5340  137.0240 C   0  0  0  0  0  2  0  0  0  0  0  0
  186.0660  174.1190  137.3270 C   0  0  0  0  0  3  0  0  0  0  0  0
  184.9100  173.6180  136.9060 C   0  0  0  0  0  3  0  0  0  0  0  0
  184.5570  172.2040  137.2120 C   0  0  0  0  0  2  0  0  0  0  0  0
  183.9630  171.5560  135.9790 C   0  0  0  0  0  1  0  0  0  0  0  0
  2 16  1  0  0  0  0
  2 13  1  0  0  0  0
  3  5  1  0  0  0  0
  3  7  1  0  0  0  0
  4  8  1  0  0  0  0
  5  7  1  0  0  0  0
  6  2  1  0  0  0  0
  6  4  1  0  0  0  0
  7 19  1  0  0  0  0
  9  6  1  0  0  0  0
 10 14  1  0  0  0  0
 12 21  1  0  0  0  0
 12 10  1  0  0  0  0
 13  8  1  0  0  0  0
 13 11  1  0  0  0  0
 14  9  1  0  0  0  0
 14 20  1  0  0  0  0
 15  3  1  0  0  0  0
 16 13  1  0  0  0  0
 16 11  1  0  0  0  0
 17  9  1  0  0  0  0
 17  5  1  0  0  0  0
 18  1  2  0  0  0  0
 18  4  1  0  0  0  0
 19 25  1  0  0  0  0
 19 23  1  0  0  0  0
 20 18  1  0  0  0  0
 21 17  1  0  0  0  0
 22 21  1  0  0  0  0
 22 15  1  0  0  0  0
 23 16  1  0  0  0  0
 24 30  1  0  0  0  0
 25 24  2  0  0  0  0
 26 29  2  0  0  0  0
 26 25  1  0  0  0  0
 27 29  1  0  0  0  0
 28 30  2  0  0  0  0
 29 28  1  0  0  0  0
 31 12  1  0  0  0  0
 31 32  2  0  0  0  0
 33 34  1  0  0  0  0
 33 31  1  0  0  0  0
 35 36  1  0  0  0  0
 35 34  2  0  0  0  0
 37 36  1  0  0  0  0
M  END
>  <MODEL>
7

>  <REMARK>
 VINA RESULT:      -7.8      3.877      8.778
  Name = 
  5 active torsions:
  status: ('A' for Active; 'I' for Inactive)
    1  A    between atoms: C_1  and  C_5
    2  A    between atoms: C_1  and  C_23
    3  A    between atoms: C_5  and  C_17
    4  A    between atoms: C_6  and  C_31
    5  A    between atoms: C_11  and  C_26
                            x       y       z     vdW  Elec       q    Type
                         _______ _______ _______ _____ _____    ______ ____

>  <TORSDO>
F 5

$$$$
=
 OpenBabel11052415313D

 37 45  0  0  1  0  0  0  0  0999 V2000
  180.4600  173.6700  137.8610 O   0  0  0  0  0  0  0  0  0  0  0  0
  181.0620  178.0980  137.3750 C   0  0  1  0  0  3  0  0  0  0  0  0
  178.9310  181.3420  139.0900 C   0  0  2  0  0  3  0  0  0  0  0  0
  180.2130  175.9350  137.3320 N   0  0  0  0  0  0  0  0  0  0  0  0
  179.0360  179.8720  138.7050 C   0  0  1  0  0  3  0  0  0  0  0  0
  179.8730  177.2670  137.7580 C   0  0  1  0  0  3  0  0  0  0  0  0
  180.1920  180.8210  138.4130 C   0  0  1  0  0  3  0  0  0  0  0  0
  181.1080  176.0400  136.1870 C   0  0  0  0  0  2  0  0  0  0  0  0
  179.4390  177.4250  139.2270 C   0  0  1  0  0  3  0  0  0  0  0  0
  179.6750  176.6220  141.5660 C   0  0  0  0  0  2  0  0  0  0  0  0
  181.3990  178.0810  134.8600 C   0  0  0  0  0  2  0  0  0  0  0  0
  179.8740  178.0600  142.0810 C   0  0  2  0  0  3  0  0  0  0  0  0
  181.7160  177.4650  136.1920 C   0  0  2  0  0  0  0  0  0  0  0  0
  180.2090  176.4820  140.1420 C   0  0  1  0  0  3  0  0  0  0  0  0
  179.0160  181.5990  140.6120 C   0  0  0  0  0  2  0  0  0  0  0  0
  180.7110  178.6850  136.0550 C   0  0  2  0  0  0  0  0  0  0  0  0
  179.6360  178.8740  139.6940 C   0  0  2  0  0  3  0  0  0  0  0  0
  180.2710  174.8470  138.2640 C   0  0  0  0  0  0  0  0  0  0  0  0
  180.2370  181.0490  136.8910 C   0  0  2  0  0  3  0  0  0  0  0  0
  180.0990  175.1090  139.6610 N   0  0  0  0  0  2  0  0  0  0  0  0
  179.2370  179.1200  141.1390 C   0  0  2  0  0  3  0  0  0  0  0  0
  179.6870  180.5360  141.4900 C   0  0  0  0  0  2  0  0  0  0  0  0
  181.2460  180.1120  136.1820 C   0  0  0  0  0  2  0  0  0  0  0  0
  180.1200  183.0210  135.3620 C   0  0  0  0  0  3  0  0  0  0  0  0
  180.5510  182.4790  136.5780 C   0  0  0  0  0  0  0  0  0  0  0  0
  181.2620  183.2820  137.4830 C   0  0  0  0  0  3  0  0  0  0  0  0
  182.2260  185.3880  138.0450 F   0  0  0  0  0  0  0  0  0  0  0  0
  181.1070  185.1520  135.9540 C   0  0  0  0  0  3  0  0  0  0  0  0
  181.5390  184.6150  137.1700 C   0  0  0  0  0  0  0  0  0  0  0  0
  180.3980  184.3550  135.0500 C   0  0  0  0  0  3  0  0  0  0  0  0
  181.3250  178.3110  142.4150 C   0  0  0  0  0  0  0  0  0  0  0  0
  182.1860  178.2440  141.5500 O   0  0  0  0  0  0  0  0  0  0  0  0
  181.7080  178.6690  143.8110 C   0  0  0  0  0  2  0  0  0  0  0  0
  183.1920  178.6920  143.9460 C   0  0  0  0  0  3  0  0  0  0  0  0
  183.7510  178.9880  145.1140 C   0  0  0  0  0  3  0  0  0  0  0  0
  185.2330  179.0100  145.2440 C   0  0  0  0  0  2  0  0  0  0  0  0
  185.6410  178.2540  146.4910 C   0  0  0  0  0  1  0  0  0  0  0  0
  1 18  2  0  0  0  0
  2  6  1  0  0  0  0
  3 15  1  0  0  0  0
  4  6  1  0  0  0  0
  4 18  1  0  0  0  0
  5  3  1  0  0  0  0
  5 17  1  0  0  0  0
  6  9  1  0  0  0  0
  7  5  1  0  0  0  0
  7  3  1  0  0  0  0
  8 13  1  0  0  0  0
  8  4  1  0  0  0  0
  9 17  1  0  0  0  0
  9 14  1  0  0  0  0
 10 12  1  0  0  0  0
 11 16  1  0  0  0  0
 11 13  1  0  0  0  0
 12 31  1  0  0  0  0
 13  2  1  0  0  0  0
 14 10  1  0  0  0  0
 15 22  1  0  0  0  0
 16 23  1  0  0  0  0
 16 13  1  0  0  0  0
 16  2  1  0  0  0  0
 17 21  1  0  0  0  0
 18 20  1  0  0  0  0
 19  7  1  0  0  0  0
 20 14  1  0  0  0  0
 21 22  1  0  0  0  0
 21 12  1  0  0  0  0
 23 19  1  0  0  0  0
 24 25  1  0  0  0  0
 25 19  1  0  0  0  0
 25 26  2  0  0  0  0
 28 29  2  0  0  0  0
 29 26  1  0  0  0  0
 29 27  1  0  0  0  0
 30 24  2  0  0  0  0
 30 28  1  0  0  0  0
 31 33  1  0  0  0  0
 32 31  2  0  0  0  0
 33 34  1  0  0  0  0
 34 35  2  0  0  0  0
 35 36  1  0  0  0  0
 36 37  1  0  0  0  0
M  END
>  <MODEL>
8

>  <REMARK>
 VINA RESULT:      -7.8      7.740     10.233
  Name = 
  5 active torsions:
  status: ('A' for Active; 'I' for Inactive)
    1  A    between atoms: C_1  and  C_5
    2  A    between atoms: C_1  and  C_23
    3  A    between atoms: C_5  and  C_17
    4  A    between atoms: C_6  and  C_31
    5  A    between atoms: C_11  and  C_26
                            x       y       z     vdW  Elec       q    Type
                         _______ _______ _______ _____ _____    ______ ____

>  <TORSDO>
F 5

$$$$
=
 OpenBabel11052415313D

 37 45  0  0  1  0  0  0  0  0999 V2000
  191.6950  177.3200  142.2940 O   0  0  0  0  0  0  0  0  0  0  0  0
  187.2010  177.3730  142.2070 C   0  0  1  0  0  3  0  0  0  0  0  0
  184.5500  179.3660  139.5600 C   0  0  2  0  0  3  0  0  0  0  0  0
  189.4440  177.9500  142.3910 N   0  0  0  0  0  0  0  0  0  0  0  0
  185.9290  179.1920  140.1840 C   0  0  1  0  0  3  0  0  0  0  0  0
  188.2420  178.3240  141.6950 C   0  0  1  0  0  3  0  0  0  0  0  0
  184.7890  178.2620  140.5830 C   0  0  1  0  0  3  0  0  0  0  0  0
  189.0660  177.3880  143.6810 C   0  0  0  0  0  2  0  0  0  0  0  0
  188.3340  178.3920  140.1590 C   0  0  1  0  0  3  0  0  0  0  0  0
  189.3760  177.4870  138.0930 C   0  0  0  0  0  2  0  0  0  0  0  0
  186.8550  177.6750  144.7020 C   0  0  0  0  0  2  0  0  0  0  0  0
  187.9990  177.3330  137.4190 C   0  0  2  0  0  3  0  0  0  0  0  0
  187.5770  176.9670  143.5930 C   0  0  2  0  0  0  0  0  0  0  0  0
  189.2560  177.3150  139.6060 C   0  0  1  0  0  3  0  0  0  0  0  0
  184.4740  178.9330  138.0780 C   0  0  0  0  0  2  0  0  0  0  0  0
  186.5140  178.1080  143.3020 C   0  0  2  0  0  0  0  0  0  0  0  0
  186.9410  178.2530  139.5290 C   0  0  2  0  0  3  0  0  0  0  0  0
  190.6190  177.5370  141.6800 C   0  0  0  0  0  0  0  0  0  0  0  0
  184.3700  178.6260  142.0190 C   0  0  2  0  0  3  0  0  0  0  0  0
  190.5600  177.3820  140.2580 N   0  0  0  0  0  2  0  0  0  0  0  0
  186.9380  178.3030  138.0110 C   0  0  2  0  0  3  0  0  0  0  0  0
  185.5250  177.9460  137.5560 C   0  0  0  0  0  2  0  0  0  0  0  0
  185.0490  177.7260  143.0800 C   0  0  0  0  0  2  0  0  0  0  0  0
  182.0970  178.2490  141.0530 C   0  0  0  0  0  3  0  0  0  0  0  0
  182.8820  178.5670  142.1680 C   0  0  0  0  0  0  0  0  0  0  0  0
  182.2640  178.8200  143.4020 C   0  0  0  0  0  3  0  0  0  0  0  0
  180.2790  179.0010  144.7090 F   0  0  0  0  0  0  0  0  0  0  0  0
  180.0930  178.4380  142.4000 C   0  0  0  0  0  3  0  0  0  0  0  0
  180.8730  178.7560  143.5170 C   0  0  0  0  0  0  0  0  0  0  0  0
  180.7050  178.1850  141.1690 C   0  0  0  0  0  3  0  0  0  0  0  0
  187.5780  175.8840  137.3950 C   0  0  0  0  0  0  0  0  0  0  0  0
  186.9860  175.3890  138.3430 O   0  0  0  0  0  0  0  0  0  0  0  0
  187.8640  175.0540  136.1890 C   0  0  0  0  0  2  0  0  0  0  0  0
  189.3290  174.8090  136.0720 C   0  0  0  0  0  3  0  0  0  0  0  0
  189.9390  173.9950  136.9270 C   0  0  0  0  0  3  0  0  0  0  0  0
  191.4030  173.7530  136.8070 C   0  0  0  0  0  2  0  0  0  0  0  0
  192.1540  174.8060  137.5960 C   0  0  0  0  0  1  0  0  0  0  0  0
  2 16  1  0  0  0  0
  2 13  1  0  0  0  0
  3  5  1  0  0  0  0
  3  7  1  0  0  0  0
  4  8  1  0  0  0  0
  5  7  1  0  0  0  0
  6  2  1  0  0  0  0
  6  4  1  0  0  0  0
  7 19  1  0  0  0  0
  9  6  1  0  0  0  0
 10 14  1  0  0  0  0
 12 21  1  0  0  0  0
 12 10  1  0  0  0  0
 13  8  1  0  0  0  0
 13 11  1  0  0  0  0
 14  9  1  0  0  0  0
 14 20  1  0  0  0  0
 15  3  1  0  0  0  0
 16 13  1  0  0  0  0
 16 11  1  0  0  0  0
 17  9  1  0  0  0  0
 17  5  1  0  0  0  0
 18  1  2  0  0  0  0
 18  4  1  0  0  0  0
 19 25  1  0  0  0  0
 19 23  1  0  0  0  0
 20 18  1  0  0  0  0
 21 17  1  0  0  0  0
 22 21  1  0  0  0  0
 22 15  1  0  0  0  0
 23 16  1  0  0  0  0
 24 30  2  0  0  0  0
 24 25  1  0  0  0  0
 25 26  2  0  0  0  0
 26 29  1  0  0  0  0
 28 29  2  0  0  0  0
 29 27  1  0  0  0  0
 30 28  1  0  0  0  0
 31 12  1  0  0  0  0
 31 32  2  0  0  0  0
 33 31  1  0  0  0  0
 34 33  1  0  0  0  0
 34 35  2  0  0  0  0
 36 35  1  0  0  0  0
 36 37  1  0  0  0  0
M  END
>  <MODEL>
9

>  <REMARK>
 VINA RESULT:      -7.2      3.917      8.807
  Name = 
  5 active torsions:
  status: ('A' for Active; 'I' for Inactive)
    1  A    between atoms: C_1  and  C_5
    2  A    between atoms: C_1  and  C_23
    3  A    between atoms: C_5  and  C_17
    4  A    between atoms: C_6  and  C_31
    5  A    between atoms: C_11  and  C_26
                            x       y       z     vdW  Elec       q    Type
                         _______ _______ _______ _____ _____    ______ ____

>  <TORSDO>
F 5

$$$$
