=
 OpenBabel11052412173D

 30 35  0  0  1  0  0  0  0  0999 V2000
  187.2300  177.7890  140.7680 C   0  0  1  0  0  3  0  0  0  0  0  0
  189.7070  178.4210  139.7700 C   0  0  1  0  0  3  0  0  0  0  0  0
  190.2280  177.8560  144.2110 N   0  0  0  0  0  2  0  0  0  0  0  0
  186.4320  177.5960  142.1250 C   0  0  2  0  0  3  0  0  0  0  0  0
  186.4300  178.5250  139.6970 C   0  0  0  0  0  2  0  0  0  0  0  0
  182.8800  179.1000  141.6720 S   0  0  0  0  0  0  0  0  0  0  0  0
  185.1210  177.9110  144.9210 C   0  0  1  0  0  3  0  0  0  0  0  0
  184.6540  179.0830  141.3520 C   0  0  0  0  0  0  0  0  0  0  0  0
  183.7000  178.6600  138.8800 S   0  0  0  0  0  0  0  0  0  0  0  0
  186.5170  177.6010  145.4770 C   0  0  2  0  0  3  0  0  0  0  0  0
  189.0530  177.2250  144.9120 C   0  0  1  0  0  3  0  0  0  0  0  0
  185.0140  178.8510  140.0790 C   0  0  0  0  0  0  0  0  0  0  0  0
  185.6600  178.8890  142.4700 C   0  0  1  0  0  3  0  0  0  0  0  0
  190.7980  177.4040  139.7750 N   0  0  0  0  0  2  0  0  0  0  0  0
  186.6910  178.5010  146.6790 C   0  0  0  0  0  2  0  0  0  0  0  0
  184.3080  178.2230  146.1400 C   0  0  0  0  0  2  0  0  0  0  0  0
  182.8660  176.6730  140.5160 N   0  0  0  0  0  1  0  0  0  0  0  0
  189.1180  178.5970  138.3800 C   0  0  0  0  0  1  0  0  0  0  0  0
  190.3180  178.2490  142.8280 C   0  0  0  0  0  0  0  0  0  0  0  0
  191.6340  177.1900  140.9310 C   0  0  0  0  0  3  0  0  0  0  0  0
  182.5720  178.0670  140.1950 C   0  0  1  0  0  3  0  0  0  0  0  0
  188.6870  178.3080  140.9100 C   0  0  2  0  0  3  0  0  0  0  0  0
  187.1550  176.8060  143.2500 C   0  0  0  0  0  2  0  0  0  0  0  0
  189.2120  177.3730  146.2910 O   0  0  0  0  0  1  0  0  0  0  0  0
  187.6350  177.6790  144.4290 C   0  0  1  0  0  3  0  0  0  0  0  0
  185.2840  178.7790  147.1750 C   0  0  0  0  0  2  0  0  0  0  0  0
  185.1990  180.4400  144.4060 C   0  0  0  0  0  1  0  0  0  0  0  0
  191.1820  177.6790  142.0410 C   0  0  0  0  0  0  0  0  0  0  0  0
  189.0600  178.5300  142.1700 C   0  0  0  0  0  2  0  0  0  0  0  0
  185.0080  179.0390  143.8710 C   0  0  2  0  0  3  0  0  0  0  0  0
  1  5  1  6  0  0  0
  1 22  1  0  0  0  0
  1  4  1  0  0  0  0
  2 18  1  6  0  0  0
  2 14  1  0  0  0  0
  2 22  1  0  0  0  0
  3 11  1  0  0  0  0
  4 13  1  0  0  0  0
  4 23  1  1  0  0  0
  5 12  1  0  0  0  0
  7 10  1  0  0  0  0
  7 16  1  1  0  0  0
  8  6  1  0  0  0  0
  9 12  1  0  0  0  0
  9 21  1  0  0  0  0
 10 15  1  1  0  0  0
 11 24  1  1  0  0  0
 12  8  2  0  0  0  0
 13  8  1  6  0  0  0
 13 30  1  0  0  0  0
 14 20  1  0  0  0  0
 15 26  1  0  0  0  0
 16 26  1  0  0  0  0
 19  3  1  0  0  0  0
 20 28  2  0  0  0  0
 21 17  1  1  0  0  0
 21  6  1  0  0  0  0
 22 29  1  1  0  0  0
 25 23  1  6  0  0  0
 25 11  1  0  0  0  0
 25 10  1  0  0  0  0
 28 19  2  0  0  0  0
 29 19  1  0  0  0  0
 30 27  1  1  0  0  0
 30  7  1  0  0  0  0
M  END
>  <MODEL>
1

>  <REMARK>
 VINA RESULT:      -7.9      0.000      0.000
  Name = 
  0 active torsions:
  status: ('A' for Active; 'I' for Inactive)
                            x       y       z     vdW  Elec       q    Type
                         _______ _______ _______ _____ _____    ______ ____

>  <TORSDO>
F 0

$$$$
=
 OpenBabel11052412173D

 30 35  0  0  1  0  0  0  0  0999 V2000
  186.1810  177.8480  144.4940 C   0  0  1  0  0  3  0  0  0  0  0  0
  184.0800  179.2540  143.4300 C   0  0  1  0  0  3  0  0  0  0  0  0
  186.8650  178.3400  140.0070 N   0  0  0  0  0  2  0  0  0  0  0  0
  187.6220  177.2830  144.1470 C   0  0  2  0  0  3  0  0  0  0  0  0
  186.0920  178.4530  145.8920 C   0  0  0  0  0  2  0  0  0  0  0  0
  189.9070  177.7860  147.2480 S   0  0  0  0  0  0  0  0  0  0  0  0
  190.5770  176.8930  143.2800 C   0  0  1  0  0  3  0  0  0  0  0  0
  188.5630  178.2990  146.1600 C   0  0  0  0  0  0  0  0  0  0  0  0
  187.2250  177.9210  148.4550 S   0  0  0  0  0  0  0  0  0  0  0  0
  190.0330  176.9190  141.8450 C   0  0  2  0  0  3  0  0  0  0  0  0
  187.9400  177.3300  140.3170 C   0  0  1  0  0  3  0  0  0  0  0  0
  187.3410  178.3260  146.7170 C   0  0  0  0  0  0  0  0  0  0  0  0
  188.7070  178.2620  144.6510 C   0  0  1  0  0  3  0  0  0  0  0  0
  183.1290  178.5860  142.4940 N   0  0  0  0  0  2  0  0  0  0  0  0
  191.0530  177.6850  141.0330 C   0  0  0  0  0  2  0  0  0  0  0  0
  192.0630  176.8220  143.1010 C   0  0  0  0  0  2  0  0  0  0  0  0
  188.4070  175.6030  147.7130 N   0  0  0  0  0  1  0  0  0  0  0  0
  183.4720  179.4220  144.8130 C   0  0  0  0  0  1  0  0  0  0  0  0
  185.8990  178.9020  140.9160 C   0  0  0  0  0  0  0  0  0  0  0  0
  183.4000  178.4790  141.0810 C   0  0  0  0  0  3  0  0  0  0  0  0
  188.7330  176.8880  148.3250 C   0  0  1  0  0  3  0  0  0  0  0  0
  185.5200  178.7300  143.4000 C   0  0  2  0  0  3  0  0  0  0  0  0
  187.7850  176.5990  142.7620 C   0  0  0  0  0  2  0  0  0  0  0  0
  188.8940  177.3540  139.2980 O   0  0  0  0  0  1  0  0  0  0  0  0
  188.5900  177.4270  141.7370 C   0  0  1  0  0  3  0  0  0  0  0  0
  192.3670  177.5020  141.7680 C   0  0  0  0  0  2  0  0  0  0  0  0
  190.8360  179.3870  143.8980 C   0  0  0  0  0  1  0  0  0  0  0  0
  184.6300  178.6890  140.7350 C   0  0  0  0  0  0  0  0  0  0  0  0
  186.2740  178.8980  142.3140 C   0  0  0  0  0  2  0  0  0  0  0  0
  190.1820  178.0600  144.2120 C   0  0  2  0  0  3  0  0  0  0  0  0
  1  5  1  1  0  0  0
  2 18  1  1  0  0  0
  3 11  1  0  0  0  0
  3 19  1  0  0  0  0
  4 23  1  6  0  0  0
  4  1  1  0  0  0  0
  4 13  1  0  0  0  0
  5 12  1  0  0  0  0
  6 21  1  0  0  0  0
  7 16  1  6  0  0  0
  7 30  1  0  0  0  0
  8 12  2  0  0  0  0
  8  6  1  0  0  0  0
 10 15  1  6  0  0  0
 10  7  1  0  0  0  0
 11 24  1  6  0  0  0
 11 25  1  0  0  0  0
 12  9  1  0  0  0  0
 13  8  1  1  0  0  0
 14  2  1  0  0  0  0
 15 26  1  0  0  0  0
 19 29  1  0  0  0  0
 20 14  1  0  0  0  0
 21 17  1  6  0  0  0
 21  9  1  0  0  0  0
 22 29  1  6  0  0  0
 22  2  1  0  0  0  0
 22  1  1  0  0  0  0
 25 10  1  0  0  0  0
 25 23  1  1  0  0  0
 26 16  1  0  0  0  0
 28 19  2  0  0  0  0
 28 20  2  0  0  0  0
 30 27  1  6  0  0  0
 30 13  1  0  0  0  0
M  END
>  <MODEL>
2

>  <REMARK>
 VINA RESULT:      -7.5      3.187      6.640
  Name = 
  0 active torsions:
  status: ('A' for Active; 'I' for Inactive)
                            x       y       z     vdW  Elec       q    Type
                         _______ _______ _______ _____ _____    ______ ____

>  <TORSDO>
F 0

$$$$
=
 OpenBabel11052412173D

 30 35  0  0  1  0  0  0  0  0999 V2000
  182.5380  178.9920  140.5660 C   0  0  1  0  0  3  0  0  0  0  0  0
  182.5010  178.6570  143.2890 C   0  0  1  0  0  3  0  0  0  0  0  0
  186.7970  178.1990  142.0080 N   0  0  0  0  0  2  0  0  0  0  0  0
  183.4750  178.8530  139.2940 C   0  0  2  0  0  3  0  0  0  0  0  0
  181.1130  178.5050  140.3220 C   0  0  0  0  0  2  0  0  0  0  0  0
  181.3550  177.4200  136.3730 S   0  0  0  0  0  0  0  0  0  0  0  0
  185.3940  177.8780  137.0570 C   0  0  1  0  0  3  0  0  0  0  0  0
  181.7770  177.5470  138.1210 C   0  0  0  0  0  0  0  0  0  0  0  0
  179.2700  178.5060  138.1450 S   0  0  0  0  0  0  0  0  0  0  0  0
  186.5090  178.0800  138.0920 C   0  0  2  0  0  3  0  0  0  0  0  0
  187.0860  178.6280  140.5930 C   0  0  1  0  0  3  0  0  0  0  0  0
  180.8270  178.0720  138.9130 C   0  0  0  0  0  0  0  0  0  0  0  0
  183.2160  177.4990  138.5960 C   0  0  1  0  0  3  0  0  0  0  0  0
  183.1450  179.6680  144.1780 N   0  0  0  0  0  2  0  0  0  0  0  0
  187.4710  176.9320  137.8900 C   0  0  0  0  0  2  0  0  0  0  0  0
  186.0990  177.2770  135.8790 C   0  0  0  0  0  2  0  0  0  0  0  0
  180.8060  180.0470  136.5360 N   0  0  0  0  0  1  0  0  0  0  0  0
  180.9870  178.7920  143.3000 C   0  0  0  0  0  1  0  0  0  0  0  0
  185.5160  178.1350  142.6630 C   0  0  0  0  0  0  0  0  0  0  0  0
  184.5560  179.6280  144.4790 C   0  0  0  0  0  3  0  0  0  0  0  0
  180.1200  178.7580  136.5420 C   0  0  1  0  0  3  0  0  0  0  0  0
  183.1390  178.4840  141.9060 C   0  0  2  0  0  3  0  0  0  0  0  0
  184.9300  179.3780  139.4410 C   0  0  0  0  0  2  0  0  0  0  0  0
  188.3540  178.1700  140.2280 O   0  0  0  0  0  1  0  0  0  0  0  0
  185.9990  178.2680  139.5270 C   0  0  1  0  0  3  0  0  0  0  0  0
  187.3000  176.5190  136.4400 C   0  0  0  0  0  2  0  0  0  0  0  0
  184.4520  175.5360  137.6020 C   0  0  0  0  0  1  0  0  0  0  0  0
  185.2700  178.8880  143.6930 C   0  0  0  0  0  0  0  0  0  0  0  0
  184.3700  177.9870  141.7910 C   0  0  0  0  0  2  0  0  0  0  0  0
  184.1810  177.0180  137.4780 C   0  0  2  0  0  3  0  0  0  0  0  0
  1  5  1  6  0  0  0
  1 22  1  0  0  0  0
  2 18  1  6  0  0  0
  2 14  1  0  0  0  0
  3 19  1  0  0  0  0
  4 23  1  1  0  0  0
  4  1  1  0  0  0  0
  6 21  1  0  0  0  0
  6  8  1  0  0  0  0
  7 16  1  6  0  0  0
  7 30  1  0  0  0  0
  7 10  1  0  0  0  0
  8 12  2  0  0  0  0
  9 12  1  0  0  0  0
 10 15  1  1  0  0  0
 10 25  1  0  0  0  0
 11 24  1  6  0  0  0
 11  3  1  0  0  0  0
 12  5  1  0  0  0  0
 13  8  1  6  0  0  0
 13  4  1  0  0  0  0
 14 20  1  0  0  0  0
 16 26  1  0  0  0  0
 19 28  2  0  0  0  0
 21 17  1  1  0  0  0
 21  9  1  0  0  0  0
 22 29  1  1  0  0  0
 22  2  1  0  0  0  0
 25 23  1  6  0  0  0
 25 11  1  0  0  0  0
 26 15  1  0  0  0  0
 28 20  2  0  0  0  0
 29 19  1  0  0  0  0
 30 27  1  1  0  0  0
 30 13  1  0  0  0  0
M  END
>  <MODEL>
3

>  <REMARK>
 VINA RESULT:      -6.8      3.095      6.687
  Name = 
  0 active torsions:
  status: ('A' for Active; 'I' for Inactive)
                            x       y       z     vdW  Elec       q    Type
                         _______ _______ _______ _____ _____    ______ ____

>  <TORSDO>
F 0

$$$$
=
 OpenBabel11052412173D

 30 35  0  0  1  0  0  0  0  0999 V2000
  186.7260  178.4630  141.7270 C   0  0  1  0  0  3  0  0  0  0  0  0
  187.4030  177.3670  144.1490 C   0  0  1  0  0  3  0  0  0  0  0  0
  190.9660  176.7940  141.4490 N   0  0  0  0  0  2  0  0  0  0  0  0
  187.2100  178.5860  140.2210 C   0  0  2  0  0  3  0  0  0  0  0  0
  185.2220  178.2380  141.8600 C   0  0  0  0  0  2  0  0  0  0  0  0
  184.0960  178.3120  137.9150 S   0  0  0  0  0  0  0  0  0  0  0  0
  188.1670  178.0760  137.3130 C   0  0  1  0  0  3  0  0  0  0  0  0
  185.0190  177.8810  139.4040 C   0  0  0  0  0  0  0  0  0  0  0  0
  182.8730  179.0810  140.4800 S   0  0  0  0  0  0  0  0  0  0  0  0
  189.5490  177.8400  137.9370 C   0  0  2  0  0  3  0  0  0  0  0  0
  190.9170  177.5750  140.1610 C   0  0  1  0  0  3  0  0  0  0  0  0
  184.4620  178.2650  140.5650 C   0  0  0  0  0  0  0  0  0  0  0  0
  186.4920  177.5310  139.3500 C   0  0  1  0  0  3  0  0  0  0  0  0
  188.4660  177.9970  144.9850 N   0  0  0  0  0  2  0  0  0  0  0  0
  190.1600  176.6940  137.1640 C   0  0  0  0  0  2  0  0  0  0  0  0
  188.3680  177.7610  135.8620 C   0  0  0  0  0  2  0  0  0  0  0  0
  184.1610  180.8270  138.8640 N   0  0  0  0  0  1  0  0  0  0  0  0
  186.0170  177.6710  144.6910 C   0  0  0  0  0  1  0  0  0  0  0  0
  189.9410  176.6960  142.4560 C   0  0  0  0  0  0  0  0  0  0  0  0
  189.8650  177.7070  144.7850 C   0  0  0  0  0  3  0  0  0  0  0  0
  183.2590  179.6810  138.7930 C   0  0  1  0  0  3  0  0  0  0  0  0
  187.5690  177.5250  142.6330 C   0  0  2  0  0  3  0  0  0  0  0  0
  188.7200  178.8720  139.9980 C   0  0  0  0  0  2  0  0  0  0  0  0
  191.9080  177.0950  139.3010 O   0  0  0  0  0  1  0  0  0  0  0  0
  189.5210  177.6660  139.4610 C   0  0  1  0  0  3  0  0  0  0  0  0
  189.5000  176.7380  135.7990 C   0  0  0  0  0  2  0  0  0  0  0  0
  186.9670  175.8040  137.5720 C   0  0  0  0  0  1  0  0  0  0  0  0
  190.1590  177.1450  143.6560 C   0  0  0  0  0  0  0  0  0  0  0  0
  188.5880  176.9410  142.0030 C   0  0  0  0  0  2  0  0  0  0  0  0
  186.9780  177.2810  137.8970 C   0  0  2  0  0  3  0  0  0  0  0  0
  1  5  1  6  0  0  0
  1 22  1  0  0  0  0
  2 18  1  1  0  0  0
  2 14  1  0  0  0  0
  3 19  1  0  0  0  0
  4 23  1  1  0  0  0
  4  1  1  0  0  0  0
  6 21  1  0  0  0  0
  6  8  1  0  0  0  0
  7 16  1  6  0  0  0
  7 30  1  0  0  0  0
  7 10  1  0  0  0  0
  8 12  2  0  0  0  0
  9 12  1  0  0  0  0
 10 15  1  6  0  0  0
 10 25  1  0  0  0  0
 11 24  1  6  0  0  0
 11  3  1  0  0  0  0
 12  5  1  0  0  0  0
 13  8  1  6  0  0  0
 13  4  1  0  0  0  0
 19 28  2  0  0  0  0
 20 14  1  0  0  0  0
 21 17  1  1  0  0  0
 21  9  1  0  0  0  0
 22 29  1  1  0  0  0
 22  2  1  0  0  0  0
 25 23  1  1  0  0  0
 25 11  1  0  0  0  0
 26 16  1  0  0  0  0
 26 15  1  0  0  0  0
 28 20  2  0  0  0  0
 29 19  1  0  0  0  0
 30 27  1  1  0  0  0
 30 13  1  0  0  0  0
M  END
>  <MODEL>
4

>  <REMARK>
 VINA RESULT:      -6.7      2.287      5.725
  Name = 
  0 active torsions:
  status: ('A' for Active; 'I' for Inactive)
                            x       y       z     vdW  Elec       q    Type
                         _______ _______ _______ _____ _____    ______ ____

>  <TORSDO>
F 0

$$$$
=
 OpenBabel11052412173D

 30 35  0  0  1  0  0  0  0  0999 V2000
  184.3070  177.3790  138.3330 C   0  0  1  0  0  3  0  0  0  0  0  0
  186.8810  178.3240  138.4380 C   0  0  1  0  0  3  0  0  0  0  0  0
  185.0090  179.2800  142.4250 N   0  0  0  0  0  2  0  0  0  0  0  0
  182.9280  177.3940  139.1160 C   0  0  2  0  0  3  0  0  0  0  0  0
  184.1440  177.5150  136.8220 C   0  0  0  0  0  2  0  0  0  0  0  0
  180.0560  177.6800  136.5170 S   0  0  0  0  0  0  0  0  0  0  0  0
  180.3150  178.1700  140.6020 C   0  0  1  0  0  3  0  0  0  0  0  0
  181.7260  178.0450  137.0920 C   0  0  0  0  0  0  0  0  0  0  0  0
  182.2620  176.6590  134.8570 S   0  0  0  0  0  0  0  0  0  0  0  0
  181.2220  178.4290  141.8120 C   0  0  2  0  0  3  0  0  0  0  0  0
  183.6910  178.5970  142.6860 C   0  0  1  0  0  3  0  0  0  0  0  0
  182.7220  177.5470  136.3410 C   0  0  0  0  0  0  0  0  0  0  0  0
  181.9970  178.4740  138.5200 C   0  0  1  0  0  3  0  0  0  0  0  0
  187.8760  177.6880  139.3510 N   0  0  0  0  0  2  0  0  0  0  0  0
  180.6650  179.6600  142.4880 C   0  0  0  0  0  2  0  0  0  0  0  0
  178.9590  178.6030  141.0690 C   0  0  0  0  0  2  0  0  0  0  0  0
  180.8380  175.1080  136.5550 N   0  0  0  0  0  1  0  0  0  0  0  0
  187.1080  177.9090  136.9940 C   0  0  0  0  0  1  0  0  0  0  0  0
  185.7890  179.2490  141.2140 C   0  0  0  0  0  0  0  0  0  0  0  0
  187.9850  178.0640  140.7390 C   0  0  0  0  0  3  0  0  0  0  0  0
  180.6560  176.2080  135.6130 C   0  0  1  0  0  3  0  0  0  0  0  0
  185.4240  178.2880  138.9150 C   0  0  2  0  0  3  0  0  0  0  0  0
  183.0010  177.2040  140.6560 C   0  0  0  0  0  2  0  0  0  0  0  0
  183.0840  179.1900  143.7950 O   0  0  0  0  0  1  0  0  0  0  0  0
  182.7160  178.4860  141.4680 C   0  0  1  0  0  3  0  0  0  0  0  0
  179.1930  179.6850  142.1210 C   0  0  0  0  0  2  0  0  0  0  0  0
  180.4660  180.3510  139.2280 C   0  0  0  0  0  1  0  0  0  0  0  0
  186.9770  178.7230  141.2160 C   0  0  0  0  0  0  0  0  0  0  0  0
  185.0540  178.9700  139.9990 C   0  0  0  0  0  2  0  0  0  0  0  0
  180.6920  178.8570  139.2700 C   0  0  2  0  0  3  0  0  0  0  0  0
  1  5  1  6  0  0  0
  1 22  1  0  0  0  0
  1  4  1  0  0  0  0
  2 18  1  6  0  0  0
  2 22  1  0  0  0  0
  2 14  1  0  0  0  0
  3 11  1  0  0  0  0
  4 23  1  1  0  0  0
  6  8  1  0  0  0  0
  7 16  1  1  0  0  0
  7 10  1  0  0  0  0
  9 21  1  0  0  0  0
  9 12  1  0  0  0  0
 10 15  1  6  0  0  0
 11 24  1  1  0  0  0
 12  5  1  0  0  0  0
 12  8  2  0  0  0  0
 13  8  1  6  0  0  0
 13  4  1  0  0  0  0
 13 30  1  0  0  0  0
 14 20  1  0  0  0  0
 16 26  1  0  0  0  0
 19 28  2  0  0  0  0
 19  3  1  0  0  0  0
 20 28  2  0  0  0  0
 21  6  1  0  0  0  0
 21 17  1  1  0  0  0
 22 29  1  1  0  0  0
 25 23  1  1  0  0  0
 25 10  1  0  0  0  0
 25 11  1  0  0  0  0
 26 15  1  0  0  0  0
 29 19  1  0  0  0  0
 30 27  1  1  0  0  0
 30  7  1  0  0  0  0
M  END
>  <MODEL>
5

>  <REMARK>
 VINA RESULT:      -6.7      3.415      5.401
  Name = 
  0 active torsions:
  status: ('A' for Active; 'I' for Inactive)
                            x       y       z     vdW  Elec       q    Type
                         _______ _______ _______ _____ _____    ______ ____

>  <TORSDO>
F 0

$$$$
=
 OpenBabel11052412173D

 30 35  0  0  1  0  0  0  0  0999 V2000
  189.0870  178.1400  140.2520 C   0  0  1  0  0  3  0  0  0  0  0  0
  188.9300  177.0910  137.7210 C   0  0  1  0  0  3  0  0  0  0  0  0
  184.7540  178.3720  138.8310 N   0  0  0  0  0  2  0  0  0  0  0  0
  188.1950  178.6500  141.4610 C   0  0  2  0  0  3  0  0  0  0  0  0
  190.2900  177.3130  140.6970 C   0  0  0  0  0  2  0  0  0  0  0  0
  189.8390  177.4620  144.7730 S   0  0  0  0  0  0  0  0  0  0  0  0
  186.1370  178.9670  143.7630 C   0  0  1  0  0  3  0  0  0  0  0  0
  189.4250  177.2410  143.0320 C   0  0  0  0  0  0  0  0  0  0  0  0
  192.1040  177.3180  142.8980 S   0  0  0  0  0  0  0  0  0  0  0  0
  185.1130  179.2250  142.6490 C   0  0  2  0  0  3  0  0  0  0  0  0
  184.6620  179.2330  140.0640 C   0  0  1  0  0  3  0  0  0  0  0  0
  190.4670  177.2070  142.1850 C   0  0  0  0  0  0  0  0  0  0  0  0
  188.0310  177.5230  142.5060 C   0  0  1  0  0  3  0  0  0  0  0  0
  188.6140  177.9760  136.5620 N   0  0  0  0  0  2  0  0  0  0  0  0
  183.8420  178.5370  143.0930 C   0  0  0  0  0  2  0  0  0  0  0  0
  185.3150  178.9590  145.0150 C   0  0  0  0  0  2  0  0  0  0  0  0
  191.1910  179.6360  143.9520 N   0  0  0  0  0  1  0  0  0  0  0  0
  190.4070  176.7350  137.7620 C   0  0  0  0  0  1  0  0  0  0  0  0
  185.9270  177.7340  138.2910 C   0  0  0  0  0  0  0  0  0  0  0  0
  187.2550  178.3030  136.2020 C   0  0  0  0  0  3  0  0  0  0  0  0
  191.4300  178.2460  144.3270 C   0  0  1  0  0  3  0  0  0  0  0  0
  188.3140  177.5070  139.0630 C   0  0  2  0  0  3  0  0  0  0  0  0
  186.9800  179.5460  141.0970 C   0  0  0  0  0  2  0  0  0  0  0  0
  183.3260  179.3140  140.4640 O   0  0  0  0  0  1  0  0  0  0  0  0
  185.6100  178.8500  141.2480 C   0  0  1  0  0  3  0  0  0  0  0  0
  183.9170  178.4970  144.6070 C   0  0  0  0  0  2  0  0  0  0  0  0
  186.2660  176.3930  143.9100 C   0  0  0  0  0  1  0  0  0  0  0  0
  186.3670  178.0660  137.1140 C   0  0  0  0  0  0  0  0  0  0  0  0
  186.9930  177.4730  139.2350 C   0  0  0  0  0  2  0  0  0  0  0  0
  186.9990  177.6900  143.6540 C   0  0  2  0  0  3  0  0  0  0  0  0
  1  5  1  1  0  0  0
  1  4  1  0  0  0  0
  2 18  1  1  0  0  0
  2 22  1  0  0  0  0
  3 11  1  0  0  0  0
  4 23  1  6  0  0  0
  4 13  1  0  0  0  0
  5 12  1  0  0  0  0
  7 16  1  1  0  0  0
  8  6  1  0  0  0  0
  9 21  1  0  0  0  0
 10 15  1  1  0  0  0
 10  7  1  0  0  0  0
 11 24  1  1  0  0  0
 11 25  1  0  0  0  0
 12  9  1  0  0  0  0
 12  8  2  0  0  0  0
 13  8  1  1  0  0  0
 13 30  1  0  0  0  0
 14  2  1  0  0  0  0
 15 26  1  0  0  0  0
 19  3  1  0  0  0  0
 19 29  1  0  0  0  0
 20 14  1  0  0  0  0
 20 28  2  0  0  0  0
 21 17  1  6  0  0  0
 21  6  1  0  0  0  0
 22 29  1  6  0  0  0
 22  1  1  0  0  0  0
 25 23  1  6  0  0  0
 25 10  1  0  0  0  0
 26 16  1  0  0  0  0
 28 19  2  0  0  0  0
 30  7  1  0  0  0  0
 30 27  1  6  0  0  0
M  END
>  <MODEL>
6

>  <REMARK>
 VINA RESULT:      -6.6      3.192      5.442
  Name = 
  0 active torsions:
  status: ('A' for Active; 'I' for Inactive)
                            x       y       z     vdW  Elec       q    Type
                         _______ _______ _______ _____ _____    ______ ____

>  <TORSDO>
F 0

$$$$
=
 OpenBabel11052412173D

 30 35  0  0  1  0  0  0  0  0999 V2000
  183.8750  178.9050  143.6680 C   0  0  1  0  0  3  0  0  0  0  0  0
  185.6130  177.8870  145.5320 C   0  0  1  0  0  3  0  0  0  0  0  0
  187.7600  177.7360  141.5720 N   0  0  0  0  0  2  0  0  0  0  0  0
  183.6700  179.0870  142.1060 C   0  0  2  0  0  3  0  0  0  0  0  0
  182.5980  178.5080  144.4020 C   0  0  0  0  0  2  0  0  0  0  0  0
  179.9250  178.4620  141.2890 S   0  0  0  0  0  0  0  0  0  0  0  0
  183.3720  178.6990  139.0400 C   0  0  1  0  0  3  0  0  0  0  0  0
  181.4240  178.1360  142.2370 C   0  0  0  0  0  0  0  0  0  0  0  0
  179.8130  179.0770  144.1660 S   0  0  0  0  0  0  0  0  0  0  0  0
  184.9040  178.6220  139.0230 C   0  0  2  0  0  3  0  0  0  0  0  0
  187.0960  178.5100  140.4610 C   0  0  1  0  0  3  0  0  0  0  0  0
  181.3680  178.4500  143.5410 C   0  0  0  0  0  0  0  0  0  0  0  0
  182.7680  177.9580  141.5580 C   0  0  1  0  0  3  0  0  0  0  0  0
  186.8570  178.6330  145.8830 N   0  0  0  0  0  2  0  0  0  0  0  0
  185.2510  177.5560  138.0090 C   0  0  0  0  0  2  0  0  0  0  0  0
  182.9800  178.4130  137.6230 C   0  0  0  0  0  2  0  0  0  0  0  0
  180.1200  180.9650  142.2520 N   0  0  0  0  0  1  0  0  0  0  0  0
  184.5570  178.0270  146.6150 C   0  0  0  0  0  1  0  0  0  0  0  0
  187.2660  177.5180  142.9070 C   0  0  0  0  0  0  0  0  0  0  0  0
  188.0660  178.5060  145.1060 C   0  0  0  0  0  3  0  0  0  0  0  0
  179.3950  179.7230  142.5030 C   0  0  1  0  0  3  0  0  0  0  0  0
  185.1130  178.0670  144.0930 C   0  0  2  0  0  3  0  0  0  0  0  0
  184.9110  179.5450  141.2910 C   0  0  0  0  0  2  0  0  0  0  0  0
  187.6800  178.1500  139.2450 O   0  0  0  0  0  1  0  0  0  0  0  0
  185.5340  178.4420  140.4100 C   0  0  1  0  0  3  0  0  0  0  0  0
  184.0810  177.5270  137.0440 C   0  0  0  0  0  2  0  0  0  0  0  0
  182.6320  176.3030  139.6580 C   0  0  0  0  0  1  0  0  0  0  0  0
  187.9170  177.9860  143.9300 C   0  0  0  0  0  0  0  0  0  0  0  0
  185.8300  177.6060  143.0690 C   0  0  0  0  0  2  0  0  0  0  0  0
  182.6250  177.7700  140.0240 C   0  0  2  0  0  3  0  0  0  0  0  0
  1 22  1  0  0  0  0
  1  5  1  6  0  0  0
  2 14  1  0  0  0  0
  2 18  1  1  0  0  0
  3 19  1  0  0  0  0
  4 23  1  6  0  0  0
  4  1  1  0  0  0  0
  6  8  1  0  0  0  0
  6 21  1  0  0  0  0
  7 16  1  6  0  0  0
  7 30  1  0  0  0  0
  8 12  2  0  0  0  0
 10 15  1  6  0  0  0
 10  7  1  0  0  0  0
 10 25  1  0  0  0  0
 11 24  1  6  0  0  0
 11  3  1  0  0  0  0
 12  9  1  0  0  0  0
 12  5  1  0  0  0  0
 13  4  1  0  0  0  0
 13  8  1  6  0  0  0
 19 29  1  0  0  0  0
 19 28  2  0  0  0  0
 20 14  1  0  0  0  0
 21 17  1  6  0  0  0
 21  9  1  0  0  0  0
 22 29  1  6  0  0  0
 22  2  1  0  0  0  0
 25 11  1  0  0  0  0
 25 23  1  1  0  0  0
 26 16  1  0  0  0  0
 26 15  1  0  0  0  0
 28 20  2  0  0  0  0
 30 27  1  1  0  0  0
 30 13  1  0  0  0  0
M  END
>  <MODEL>
7

>  <REMARK>
 VINA RESULT:      -6.3      2.722      5.882
  Name = 
  0 active torsions:
  status: ('A' for Active; 'I' for Inactive)
                            x       y       z     vdW  Elec       q    Type
                         _______ _______ _______ _____ _____    ______ ____

>  <TORSDO>
F 0

$$$$
=
 OpenBabel11052412173D

 30 35  0  0  1  0  0  0  0  0999 V2000
  183.8930  179.1740  141.8430 C   0  0  1  0  0  3  0  0  0  0  0  0
  184.1040  178.2900  144.4320 C   0  0  1  0  0  3  0  0  0  0  0  0
  188.0270  177.3270  142.4330 N   0  0  0  0  0  2  0  0  0  0  0  0
  184.6240  179.1330  140.4360 C   0  0  2  0  0  3  0  0  0  0  0  0
  182.3790  179.0200  141.7410 C   0  0  0  0  0  2  0  0  0  0  0  0
  181.9220  178.7570  137.6720 S   0  0  0  0  0  0  0  0  0  0  0  0
  186.0190  178.3110  137.7880 C   0  0  1  0  0  3  0  0  0  0  0  0
  182.5630  178.4360  139.3270 C   0  0  0  0  0  0  0  0  0  0  0  0
  180.3360  179.8140  139.9150 S   0  0  0  0  0  0  0  0  0  0  0  0
  187.2640  178.0840  138.6550 C   0  0  2  0  0  3  0  0  0  0  0  0
  188.2320  177.9810  141.0920 C   0  0  1  0  0  3  0  0  0  0  0  0
  181.8450  178.9500  140.3380 C   0  0  0  0  0  0  0  0  0  0  0  0
  184.0050  178.0270  139.5530 C   0  0  1  0  0  3  0  0  0  0  0  0
  185.0470  178.9570  145.3770 N   0  0  0  0  0  2  0  0  0  0  0  0
  187.9320  176.8460  138.1000 C   0  0  0  0  0  2  0  0  0  0  0  0
  186.4380  177.8500  136.4250 C   0  0  0  0  0  2  0  0  0  0  0  0
  181.9640  181.3470  138.3920 N   0  0  0  0  0  1  0  0  0  0  0  0
  182.6650  178.6970  144.7040 C   0  0  0  0  0  1  0  0  0  0  0  0
  186.8460  177.3650  143.2580 C   0  0  0  0  0  0  0  0  0  0  0  0
  186.4430  178.5960  145.4420 C   0  0  0  0  0  3  0  0  0  0  0  0
  181.0260  180.2340  138.2710 C   0  0  1  0  0  3  0  0  0  0  0  0
  184.5250  178.2960  142.9580 C   0  0  2  0  0  3  0  0  0  0  0  0
  186.1640  179.3390  140.4470 C   0  0  0  0  0  2  0  0  0  0  0  0
  189.3230  177.3850  140.4570 O   0  0  0  0  0  1  0  0  0  0  0  0
  186.9770  178.0580  140.1610 C   0  0  1  0  0  3  0  0  0  0  0  0
  187.5090  176.7840  136.6440 C   0  0  0  0  0  2  0  0  0  0  0  0
  184.6730  176.1210  138.0400 C   0  0  0  0  0  1  0  0  0  0  0  0
  186.8880  177.9180  144.4330 C   0  0  0  0  0  0  0  0  0  0  0  0
  185.6010  177.6160  142.5640 C   0  0  0  0  0  2  0  0  0  0  0  0
  184.7090  177.6210  138.2300 C   0  0  2  0  0  3  0  0  0  0  0  0
  1  5  1  6  0  0  0
  1 22  1  0  0  0  0
  2 18  1  6  0  0  0
  2 14  1  0  0  0  0
  3 19  1  0  0  0  0
  4 23  1  1  0  0  0
  4  1  1  0  0  0  0
  6 21  1  0  0  0  0
  6  8  1  0  0  0  0
  7 16  1  6  0  0  0
  7 30  1  0  0  0  0
  7 10  1  0  0  0  0
  8 12  2  0  0  0  0
  9 12  1  0  0  0  0
 10 15  1  6  0  0  0
 10 25  1  0  0  0  0
 11 24  1  6  0  0  0
 11  3  1  0  0  0  0
 12  5  1  0  0  0  0
 13  8  1  6  0  0  0
 13  4  1  0  0  0  0
 14 20  1  0  0  0  0
 16 26  1  0  0  0  0
 19 28  2  0  0  0  0
 21 17  1  1  0  0  0
 21  9  1  0  0  0  0
 22 29  1  1  0  0  0
 22  2  1  0  0  0  0
 25 23  1  1  0  0  0
 25 11  1  0  0  0  0
 26 15  1  0  0  0  0
 28 20  2  0  0  0  0
 29 19  1  0  0  0  0
 30 27  1  1  0  0  0
 30 13  1  0  0  0  0
M  END
>  <MODEL>
8

>  <REMARK>
 VINA RESULT:      -6.2      2.538      5.909
  Name = 
  0 active torsions:
  status: ('A' for Active; 'I' for Inactive)
                            x       y       z     vdW  Elec       q    Type
                         _______ _______ _______ _____ _____    ______ ____

>  <TORSDO>
F 0

$$$$
=
 OpenBabel11052412173D

 30 35  0  0  1  0  0  0  0  0999 V2000
  183.5500  174.8160  137.6680 C   0  0  1  0  0  3  0  0  0  0  0  0
  185.9800  174.5580  136.4200 C   0  0  1  0  0  3  0  0  0  0  0  0
  185.7700  178.7960  137.9380 N   0  0  0  0  0  2  0  0  0  0  0  0
  182.5710  175.8880  138.3070 C   0  0  2  0  0  3  0  0  0  0  0  0
  182.8270  173.7590  136.8380 C   0  0  0  0  0  2  0  0  0  0  0  0
  178.9310  174.9430  137.3390 S   0  0  0  0  0  0  0  0  0  0  0  0
  180.7260  178.3150  138.8880 C   0  0  1  0  0  3  0  0  0  0  0  0
  180.6970  175.0410  136.9890 C   0  0  0  0  0  0  0  0  0  0  0  0
  180.3320  172.3830  136.9580 S   0  0  0  0  0  0  0  0  0  0  0  0
  182.0270  179.1030  139.0900 C   0  0  2  0  0  3  0  0  0  0  0  0
  184.6440  179.0700  138.9010 C   0  0  1  0  0  3  0  0  0  0  0  0
  181.3290  173.8640  136.8480 C   0  0  0  0  0  0  0  0  0  0  0  0
  181.4940  176.2980  137.2780 C   0  0  1  0  0  3  0  0  0  0  0  0
  187.2400  174.6100  137.2170 N   0  0  0  0  0  2  0  0  0  0  0  0
  181.7800  180.4670  138.4880 C   0  0  0  0  0  2  0  0  0  0  0  0
  179.6520  179.3530  139.0140 C   0  0  0  0  0  2  0  0  0  0  0  0
  179.6430  173.3550  139.3880 N   0  0  0  0  0  1  0  0  0  0  0  0
  185.6370  173.1340  136.0150 C   0  0  0  0  0  1  0  0  0  0  0  0
  186.0330  177.5780  137.2160 C   0  0  0  0  0  0  0  0  0  0  0  0
  187.8720  175.8610  137.5620 C   0  0  0  0  0  3  0  0  0  0  0  0
  179.1280  173.2600  138.0250 C   0  0  1  0  0  3  0  0  0  0  0  0
  184.8130  175.3880  136.9670 C   0  0  2  0  0  3  0  0  0  0  0  0
  183.2210  176.9680  139.2140 C   0  0  0  0  0  2  0  0  0  0  0  0
  184.5090  180.4500  139.0630 O   0  0  0  0  0  1  0  0  0  0  0  0
  183.2790  178.3760  138.5830 C   0  0  1  0  0  3  0  0  0  0  0  0
  180.2790  180.6730  138.5700 C   0  0  0  0  0  2  0  0  0  0  0  0
  180.3650  178.3460  136.3320 C   0  0  0  0  0  1  0  0  0  0  0  0
  187.1280  176.9120  137.4330 C   0  0  0  0  0  0  0  0  0  0  0  0
  184.8890  176.7190  136.9950 C   0  0  0  0  0  2  0  0  0  0  0  0
  180.5750  177.5130  137.5760 C   0  0  2  0  0  3  0  0  0  0  0  0
  1  5  1  6  0  0  0
  1  4  1  0  0  0  0
  2 18  1  1  0  0  0
  2 22  1  0  0  0  0
  2 14  1  0  0  0  0
  3 11  1  0  0  0  0
  4 23  1  6  0  0  0
  5 12  1  0  0  0  0
  6 21  1  0  0  0  0
  7 16  1  6  0  0  0
  7 10  1  0  0  0  0
  8  6  1  0  0  0  0
  9 21  1  0  0  0  0
 10 15  1  6  0  0  0
 11 24  1  6  0  0  0
 12  9  1  0  0  0  0
 12  8  2  0  0  0  0
 13  8  1  1  0  0  0
 13 30  1  0  0  0  0
 13  4  1  0  0  0  0
 14 20  1  0  0  0  0
 15 26  1  0  0  0  0
 19 28  2  0  0  0  0
 19  3  1  0  0  0  0
 21 17  1  1  0  0  0
 22 29  1  1  0  0  0
 22  1  1  0  0  0  0
 25 11  1  0  0  0  0
 25 10  1  0  0  0  0
 25 23  1  1  0  0  0
 26 16  1  0  0  0  0
 28 20  2  0  0  0  0
 29 19  1  0  0  0  0
 30 27  1  6  0  0  0
 30  7  1  0  0  0  0
M  END
>  <MODEL>
9

>  <REMARK>
 VINA RESULT:      -6.1      5.663      7.253
  Name = 
  0 active torsions:
  status: ('A' for Active; 'I' for Inactive)
                            x       y       z     vdW  Elec       q    Type
                         _______ _______ _______ _____ _____    ______ ____

>  <TORSDO>
F 0

$$$$
