=
 OpenBabel11052415503D

 34 40  0  0  1  0  0  0  0  0999 V2000
  184.7850  177.8410  142.7930 C   0  0  1  0  0  3  0  0  0  0  0  0
  181.5170  179.0980  141.2620 C   0  0  0  0  0  3  0  0  0  0  0  0
  189.8310  175.9800  142.2620 C   0  0  0  0  0  2  0  0  0  0  0  0
  182.3930  179.4770  143.5630 C   0  0  0  0  0  2  0  0  0  0  0  0
  189.5470  178.8400  142.5060 C   0  0  0  0  0  2  0  0  0  0  0  0
  187.1110  177.7190  142.1050 C   0  0  2  0  0  0  0  0  0  0  0  0
  186.0390  178.5750  142.2900 C   0  0  2  0  0  3  0  0  0  0  0  0
  186.8510  178.4040  144.8100 C   0  0  0  0  0  2  0  0  0  0  0  0
  185.3550  178.1080  146.7120 C   0  0  0  0  0  1  0  0  0  0  0  0
  190.9770  176.7730  142.9120 C   0  0  1  0  0  3  0  0  0  0  0  0
  186.9590  178.4880  143.4080 N   0  0  1  0  0  0  0  0  0  0  0  0
  187.7160  178.4370  141.0240 O   0  0  0  0  0  0  0  0  0  0  0  0
  183.7190  179.5690  144.3090 C   0  0  0  0  0  2  0  0  0  0  0  0
  184.4230  178.2180  144.2760 C   0  0  2  0  0  3  0  0  0  0  0  0
  185.6040  178.2190  145.2490 C   0  0  1  0  0  3  0  0  0  0  0  0
  181.5620  178.5030  139.9920 C   0  0  0  0  0  0  0  0  0  0  0  0
  182.6470  177.6850  139.6620 C   0  0  0  0  0  3  0  0  0  0  0  0
  190.4640  178.1100  143.4870 C   0  0  1  0  0  3  0  0  0  0  0  0
  188.6030  177.8220  141.8620 C   0  0  1  0  0  0  0  0  0  0  0  0
  189.2090  176.7210  141.2400 O   0  0  0  0  0  0  0  0  0  0  0  0
  182.5450  178.8940  142.1870 C   0  0  0  0  0  0  0  0  0  0  0  0
  183.6740  177.4640  140.5820 C   0  0  0  0  0  3  0  0  0  0  0  0
  183.6330  178.0580  141.8490 C   0  0  0  0  0  0  0  0  0  0  0  0
  191.1290  180.2820  144.2820 O   0  0  0  0  0  1  0  0  0  0  0  0
  191.6080  179.0200  143.9190 C   0  0  0  0  0  2  0  0  0  0  0  0
  191.6950  175.9240  143.9670 C   0  0  0  0  0  2  0  0  0  0  0  0
  191.0320  175.9620  145.3440 C   0  0  0  0  0  2  0  0  0  0  0  0
  192.0030  176.4320  146.4090 C   0  0  0  0  0  3  0  0  0  0  0  0
  191.9410  175.4820  147.5890 C   0  0  0  0  0  2  0  0  0  0  0  0
  191.2250  176.8110  147.6520 C   0  0  0  0  0  2  0  0  0  0  0  0
  180.5550  178.6910  139.0330 O   0  0  0  0  0  0  0  0  0  0  0  0
  181.0190  180.8280  137.8430 C   0  0  0  0  0  1  0  0  0  0  0  0
  180.5250  178.8070  136.7090 O   0  0  0  0  0  0  0  0  0  0  0  0
  180.6850  179.3800  137.8180 C   0  0  0  0  0  0  0  0  0  0  0  0
  1 23  1  6  0  0  0
  1 14  1  0  0  0  0
  2 21  1  0  0  0  0
  3 10  1  0  0  0  0
  4 13  1  0  0  0  0
  5 18  1  0  0  0  0
  6 12  1  6  0  0  0
  6  7  1  0  0  0  0
  6 11  1  0  0  0  0
  7  1  1  0  0  0  0
  7 11  1  0  0  0  0
  8 15  1  0  0  0  0
 10 18  1  0  0  0  0
 10 26  1  0  0  0  0
 11  8  1  0  0  0  0
 12 19  1  0  0  0  0
 14 13  1  0  0  0  0
 14 15  1  0  0  0  0
 15  9  1  0  0  0  0
 16  2  2  0  0  0  0
 17 16  1  0  0  0  0
 17 22  2  0  0  0  0
 18 25  1  0  0  0  0
 19  6  1  0  0  0  0
 19  5  1  0  0  0  0
 20 19  1  0  0  0  0
 20  3  1  0  0  0  0
 21  4  1  0  0  0  0
 22 23  1  0  0  0  0
 23 21  2  0  0  0  0
 25 24  1  0  0  0  0
 26 27  1  0  0  0  0
 27 28  1  0  0  0  0
 28 29  1  0  0  0  0
 28 30  1  0  0  0  0
 29 30  1  0  0  0  0
 31 16  1  0  0  0  0
 33 34  2  0  0  0  0
 34 32  1  0  0  0  0
 34 31  1  0  0  0  0
M  END
>  <MODEL>
1

>  <REMARK>
 VINA RESULT:      -7.6      0.000      0.000
  Name = 
  6 active torsions:
  status: ('A' for Active; 'I' for Inactive)
    1  A    between atoms: C_7  and  C_11
    2  A    between atoms: C_7  and  C_14
    3  A    between atoms: C_14  and  C_16
    4  A    between atoms: O_23  and  C_24
    5  A    between atoms: O_23  and  C_25
    6  A    between atoms: C_28  and  C_29
                            x       y       z     vdW  Elec       q    Type
                         _______ _______ _______ _____ _____    ______ ____

>  <TORSDO>
F 6

$$$$
=
 OpenBabel11052415503D

 34 40  0  0  1  0  0  0  0  0999 V2000
  190.7290  175.3230  137.6660 C   0  0  1  0  0  3  0  0  0  0  0  0
  193.4790  175.1300  135.0190 C   0  0  0  0  0  3  0  0  0  0  0  0
  189.0800  176.5110  142.6740 C   0  0  0  0  0  2  0  0  0  0  0  0
  191.0130  175.2270  134.6820 C   0  0  0  0  0  2  0  0  0  0  0  0
  188.8640  178.6270  140.7260 C   0  0  0  0  0  2  0  0  0  0  0  0
  190.3370  176.5970  139.6960 C   0  0  2  0  0  0  0  0  0  0  0  0
  190.6020  176.6990  138.3420 C   0  0  2  0  0  3  0  0  0  0  0  0
  187.9900  176.2530  138.2020 C   0  0  0  0  0  2  0  0  0  0  0  0
  186.9480  174.7150  136.6250 C   0  0  0  0  0  1  0  0  0  0  0  0
  187.9620  177.5520  142.8500 C   0  0  1  0  0  3  0  0  0  0  0  0
  189.1990  176.7760  138.7030 N   0  0  1  0  0  0  0  0  0  0  0  0
  191.0130  177.7950  140.0920 O   0  0  0  0  0  0  0  0  0  0  0  0
  189.7600  175.7610  135.3660 C   0  0  0  0  0  2  0  0  0  0  0  0
  189.5390  175.0260  136.6830 C   0  0  2  0  0  3  0  0  0  0  0  0
  188.1480  175.3470  137.2350 C   0  0  1  0  0  3  0  0  0  0  0  0
  194.6260  175.0300  135.8220 C   0  0  0  0  0  0  0  0  0  0  0  0
  194.4830  175.0060  137.2130 C   0  0  0  0  0  3  0  0  0  0  0  0
  187.6130  178.2170  141.5020 C   0  0  1  0  0  3  0  0  0  0  0  0
  189.8990  177.5040  140.8280 C   0  0  1  0  0  0  0  0  0  0  0  0
  190.2390  177.0910  142.1240 O   0  0  0  0  0  0  0  0  0  0  0  0
  192.2080  175.2210  135.5930 C   0  0  0  0  0  0  0  0  0  0  0  0
  193.2170  175.0840  137.7970 C   0  0  0  0  0  3  0  0  0  0  0  0
  192.0720  175.1870  136.9990 C   0  0  0  0  0  0  0  0  0  0  0  0
  185.6070  179.3440  140.7980 O   0  0  0  0  0  1  0  0  0  0  0  0
  186.6860  179.4140  141.6820 C   0  0  0  0  0  2  0  0  0  0  0  0
  186.7370  176.9230  143.5230 C   0  0  0  0  0  2  0  0  0  0  0  0
  186.6630  177.1760  145.0290 C   0  0  0  0  0  2  0  0  0  0  0  0
  186.1750  178.5810  145.3270 C   0  0  0  0  0  3  0  0  0  0  0  0
  185.0960  178.5140  146.3900 C   0  0  0  0  0  2  0  0  0  0  0  0
  184.7160  178.6880  144.9380 C   0  0  0  0  0  2  0  0  0  0  0  0
  195.9200  174.9470  135.2850 O   0  0  0  0  0  0  0  0  0  0  0  0
  196.5070  177.2880  134.6760 C   0  0  0  0  0  1  0  0  0  0  0  0
  198.0370  175.8090  135.7210 O   0  0  0  0  0  0  0  0  0  0  0  0
  196.8760  175.9730  135.2610 C   0  0  0  0  0  0  0  0  0  0  0  0
  1 23  1  6  0  0  0
  1  7  1  0  0  0  0
  2 21  2  0  0  0  0
  2 16  1  0  0  0  0
  3 10  1  0  0  0  0
  4 13  1  0  0  0  0
  4 21  1  0  0  0  0
  5 19  1  0  0  0  0
  5 18  1  0  0  0  0
  6 12  1  6  0  0  0
  6 19  1  0  0  0  0
  7 11  1  0  0  0  0
  7  6  1  0  0  0  0
  8 11  1  0  0  0  0
  9 15  1  0  0  0  0
 10 26  1  0  0  0  0
 11  6  1  0  0  0  0
 12 19  1  0  0  0  0
 13 14  1  0  0  0  0
 14 15  1  0  0  0  0
 14  1  1  0  0  0  0
 15  8  1  0  0  0  0
 16 17  2  0  0  0  0
 17 22  1  0  0  0  0
 18 25  1  0  0  0  0
 18 10  1  0  0  0  0
 19 20  1  0  0  0  0
 20  3  1  0  0  0  0
 21 23  1  0  0  0  0
 23 22  2  0  0  0  0
 24 25  1  0  0  0  0
 26 27  1  0  0  0  0
 27 28  1  0  0  0  0
 28 29  1  0  0  0  0
 30 28  1  0  0  0  0
 30 29  1  0  0  0  0
 31 16  1  0  0  0  0
 32 34  1  0  0  0  0
 34 31  1  0  0  0  0
 34 33  2  0  0  0  0
M  END
>  <MODEL>
2

>  <REMARK>
 VINA RESULT:      -7.5      5.432      9.613
  Name = 
  6 active torsions:
  status: ('A' for Active; 'I' for Inactive)
    1  A    between atoms: C_7  and  C_11
    2  A    between atoms: C_7  and  C_14
    3  A    between atoms: C_14  and  C_16
    4  A    between atoms: O_23  and  C_24
    5  A    between atoms: O_23  and  C_25
    6  A    between atoms: C_28  and  C_29
                            x       y       z     vdW  Elec       q    Type
                         _______ _______ _______ _____ _____    ______ ____

>  <TORSDO>
F 6

$$$$
=
 OpenBabel11052415503D

 34 40  0  0  1  0  0  0  0  0999 V2000
  186.4050  178.7010  141.6260 C   0  0  1  0  0  3  0  0  0  0  0  0
  189.8150  176.9780  141.5520 C   0  0  0  0  0  3  0  0  0  0  0  0
  182.1080  180.7630  139.0770 C   0  0  0  0  0  2  0  0  0  0  0  0
  188.1730  177.0770  143.4220 C   0  0  0  0  0  2  0  0  0  0  0  0
  181.9360  177.9810  139.8180 C   0  0  0  0  0  2  0  0  0  0  0  0
  184.4830  178.8490  140.1480 C   0  0  2  0  0  0  0  0  0  0  0  0
  185.3140  177.9720  140.8230 C   0  0  2  0  0  3  0  0  0  0  0  0
  183.7260  178.6460  142.8390 C   0  0  0  0  0  2  0  0  0  0  0  0
  184.5140  179.1800  145.0820 C   0  0  0  0  0  1  0  0  0  0  0  0
  180.7210  180.1770  139.3860 C   0  0  1  0  0  3  0  0  0  0  0  0
  184.0880  178.3190  141.5170 N   0  0  1  0  0  0  0  0  0  0  0  0
  184.1960  177.9900  139.0390 O   0  0  0  0  0  0  0  0  0  0  0  0
  186.6720  177.2060  143.6540 C   0  0  0  0  0  2  0  0  0  0  0  0
  186.1940  178.5740  143.1780 C   0  0  2  0  0  3  0  0  0  0  0  0
  184.7630  178.8240  143.6590 C   0  0  1  0  0  3  0  0  0  0  0  0
  190.2760  177.3370  140.2760 C   0  0  0  0  0  0  0  0  0  0  0  0
  189.4780  178.1520  139.4680 C   0  0  0  0  0  3  0  0  0  0  0  0
  180.8390  178.9340  140.2940 C   0  0  1  0  0  3  0  0  0  0  0  0
  183.1610  178.8030  139.4100 C   0  0  1  0  0  0  0  0  0  0  0  0
  182.9420  179.8120  138.4610 O   0  0  0  0  0  0  0  0  0  0  0  0
  188.5680  177.4120  142.0120 C   0  0  0  0  0  0  0  0  0  0  0  0
  188.2350  178.6010  139.9220 C   0  0  0  0  0  3  0  0  0  0  0  0
  187.7720  178.2430  141.1930 C   0  0  0  0  0  0  0  0  0  0  0  0
  179.4360  177.5160  141.6390 O   0  0  0  0  0  1  0  0  0  0  0  0
  179.5130  178.1930  140.4200 C   0  0  0  0  0  2  0  0  0  0  0  0
  179.8000  181.2470  139.9830 C   0  0  0  0  0  2  0  0  0  0  0  0
  178.9400  181.9680  138.9450 C   0  0  0  0  0  2  0  0  0  0  0  0
  179.4380  183.3800  138.7030 C   0  0  0  0  0  3  0  0  0  0  0  0
  178.9310  183.8590  137.3570 C   0  0  0  0  0  2  0  0  0  0  0  0
  180.3570  183.3790  137.4990 C   0  0  0  0  0  2  0  0  0  0  0  0
  191.5170  176.9140  139.7740 O   0  0  0  0  0  0  0  0  0  0  0  0
  192.8970  176.3730  137.7740 C   0  0  0  0  0  1  0  0  0  0  0  0
  190.9410  175.1640  138.3520 O   0  0  0  0  0  0  0  0  0  0  0  0
  191.7230  176.1060  138.6460 C   0  0  0  0  0  0  0  0  0  0  0  0
  1 23  1  1  0  0  0
  1 14  1  0  0  0  0
  2 21  1  0  0  0  0
  3 10  1  0  0  0  0
  4 13  1  0  0  0  0
  5 18  1  0  0  0  0
  6 12  1  6  0  0  0
  6  7  1  0  0  0  0
  6 11  1  0  0  0  0
  7 11  1  0  0  0  0
  7  1  1  0  0  0  0
  8 15  1  0  0  0  0
 10 26  1  0  0  0  0
 10 18  1  0  0  0  0
 11  8  1  0  0  0  0
 12 19  1  0  0  0  0
 14 13  1  0  0  0  0
 14 15  1  0  0  0  0
 15  9  1  0  0  0  0
 16  2  2  0  0  0  0
 17 22  2  0  0  0  0
 17 16  1  0  0  0  0
 18 25  1  0  0  0  0
 19  5  1  0  0  0  0
 19  6  1  0  0  0  0
 20  3  1  0  0  0  0
 20 19  1  0  0  0  0
 21  4  1  0  0  0  0
 22 23  1  0  0  0  0
 23 21  2  0  0  0  0
 25 24  1  0  0  0  0
 27 26  1  0  0  0  0
 28 27  1  0  0  0  0
 29 30  1  0  0  0  0
 29 28  1  0  0  0  0
 30 28  1  0  0  0  0
 31 16  1  0  0  0  0
 32 34  1  0  0  0  0
 33 34  2  0  0  0  0
 34 31  1  0  0  0  0
M  END
>  <MODEL>
3

>  <REMARK>
 VINA RESULT:      -7.3      2.730      9.433
  Name = 
  6 active torsions:
  status: ('A' for Active; 'I' for Inactive)
    1  A    between atoms: C_7  and  C_11
    2  A    between atoms: C_7  and  C_14
    3  A    between atoms: C_14  and  C_16
    4  A    between atoms: O_23  and  C_24
    5  A    between atoms: O_23  and  C_25
    6  A    between atoms: C_28  and  C_29
                            x       y       z     vdW  Elec       q    Type
                         _______ _______ _______ _____ _____    ______ ____

>  <TORSDO>
F 6

$$$$
=
 OpenBabel11052415503D

 34 40  0  0  1  0  0  0  0  0999 V2000
  189.8510  175.4560  137.4560 C   0  0  1  0  0  3  0  0  0  0  0  0
  192.8780  174.9970  135.1690 C   0  0  0  0  0  3  0  0  0  0  0  0
  187.1290  178.2980  141.1610 C   0  0  0  0  0  2  0  0  0  0  0  0
  190.6150  173.9760  134.9620 C   0  0  0  0  0  2  0  0  0  0  0  0
  186.5050  178.8720  138.4040 C   0  0  0  0  0  2  0  0  0  0  0  0
  188.7300  177.3270  138.5250 C   0  0  2  0  0  0  0  0  0  0  0  0
  189.1530  176.8190  137.3090 C   0  0  2  0  0  3  0  0  0  0  0  0
  186.9110  175.4220  137.5650 C   0  0  0  0  0  2  0  0  0  0  0  0
  186.7250  173.0380  137.0960 C   0  0  0  0  0  1  0  0  0  0  0  0
  185.7080  178.7750  140.8210 C   0  0  1  0  0  3  0  0  0  0  0  0
  187.7720  176.5350  137.6490 N   0  0  1  0  0  0  0  0  0  0  0  0
  188.8800  178.7110  138.1930 O   0  0  0  0  0  0  0  0  0  0  0  0
  189.1640  174.2670  135.3260 C   0  0  0  0  0  2  0  0  0  0  0  0
  189.0070  174.2810  136.8430 C   0  0  2  0  0  3  0  0  0  0  0  0
  187.5220  174.2880  137.2140 C   0  0  1  0  0  3  0  0  0  0  0  0
  193.8470  175.7570  135.8410 C   0  0  0  0  0  0  0  0  0  0  0  0
  193.5050  176.3890  137.0400 C   0  0  0  0  0  3  0  0  0  0  0  0
  185.3670  178.4780  139.3450 C   0  0  1  0  0  3  0  0  0  0  0  0
  187.8340  178.4400  139.0290 C   0  0  1  0  0  0  0  0  0  0  0  0
  188.0880  178.9040  140.3280 O   0  0  0  0  0  0  0  0  0  0  0  0
  191.5800  174.8820  135.6740 C   0  0  0  0  0  0  0  0  0  0  0  0
  192.2150  176.2710  137.5610 C   0  0  0  0  0  3  0  0  0  0  0  0
  191.2460  175.5160  136.8910 C   0  0  0  0  0  0  0  0  0  0  0  0
  184.1770  180.5410  138.9980 O   0  0  0  0  0  1  0  0  0  0  0  0
  184.0680  179.1500  138.9150 C   0  0  0  0  0  2  0  0  0  0  0  0
  184.6850  178.1690  141.7880 C   0  0  0  0  0  2  0  0  0  0  0  0
  185.1860  178.0660  143.2290 C   0  0  0  0  0  2  0  0  0  0  0  0
  184.7990  179.2910  144.0340 C   0  0  0  0  0  3  0  0  0  0  0  0
  184.9040  178.9650  145.5110 C   0  0  0  0  0  2  0  0  0  0  0  0
  183.5520  178.9790  144.8360 C   0  0  0  0  0  2  0  0  0  0  0  0
  195.1580  175.9050  135.3610 O   0  0  0  0  0  0  0  0  0  0  0  0
  196.3490  174.0240  136.4720 C   0  0  0  0  0  1  0  0  0  0  0  0
  197.3490  176.1420  136.1090 O   0  0  0  0  0  0  0  0  0  0  0  0
  196.3240  175.4220  135.9720 C   0  0  0  0  0  0  0  0  0  0  0  0
  1 23  1  6  0  0  0
  2 21  2  0  0  0  0
  2 16  1  0  0  0  0
  4 13  1  0  0  0  0
  4 21  1  0  0  0  0
  5 19  1  0  0  0  0
  5 18  1  0  0  0  0
  6 12  1  6  0  0  0
  6 19  1  0  0  0  0
  7  1  1  0  0  0  0
  7 11  1  0  0  0  0
  7  6  1  0  0  0  0
  8 11  1  0  0  0  0
  9 15  1  0  0  0  0
 10  3  1  0  0  0  0
 10 26  1  0  0  0  0
 11  6  1  0  0  0  0
 12 19  1  0  0  0  0
 13 14  1  0  0  0  0
 14 15  1  0  0  0  0
 14  1  1  0  0  0  0
 15  8  1  0  0  0  0
 16 17  2  0  0  0  0
 17 22  1  0  0  0  0
 18 10  1  0  0  0  0
 19 20  1  0  0  0  0
 20  3  1  0  0  0  0
 21 23  1  0  0  0  0
 23 22  2  0  0  0  0
 25 24  1  0  0  0  0
 25 18  1  0  0  0  0
 26 27  1  0  0  0  0
 27 28  1  0  0  0  0
 28 30  1  0  0  0  0
 28 29  1  0  0  0  0
 30 29  1  0  0  0  0
 31 16  1  0  0  0  0
 31 34  1  0  0  0  0
 34 33  2  0  0  0  0
 34 32  1  0  0  0  0
M  END
>  <MODEL>
4

>  <REMARK>
 VINA RESULT:      -7.2      5.395      9.845
  Name = 
  6 active torsions:
  status: ('A' for Active; 'I' for Inactive)
    1  A    between atoms: C_7  and  C_11
    2  A    between atoms: C_7  and  C_14
    3  A    between atoms: C_14  and  C_16
    4  A    between atoms: O_23  and  C_24
    5  A    between atoms: O_23  and  C_25
    6  A    between atoms: C_28  and  C_29
                            x       y       z     vdW  Elec       q    Type
                         _______ _______ _______ _____ _____    ______ ____

>  <TORSDO>
F 6

$$$$
=
 OpenBabel11052415503D

 34 40  0  0  1  0  0  0  0  0999 V2000
  183.4180  178.7670  141.8780 C   0  0  1  0  0  3  0  0  0  0  0  0
  185.7360  178.0930  144.8400 C   0  0  0  0  0  3  0  0  0  0  0  0
  182.1700  178.2200  136.6480 C   0  0  0  0  0  2  0  0  0  0  0  0
  183.3240  178.7130  144.8750 C   0  0  0  0  0  2  0  0  0  0  0  0
  181.1030  176.2180  138.4290 C   0  0  0  0  0  2  0  0  0  0  0  0
  182.9470  177.7080  139.7440 C   0  0  2  0  0  0  0  0  0  0  0  0
  182.9920  177.5030  141.1120 C   0  0  2  0  0  3  0  0  0  0  0  0
  180.6230  178.6890  140.9660 C   0  0  0  0  0  2  0  0  0  0  0  0
  179.8680  180.4300  142.4940 C   0  0  0  0  0  1  0  0  0  0  0  0
  180.8340  177.5550  136.2790 C   0  0  1  0  0  3  0  0  0  0  0  0
  181.6860  177.8470  140.5830 N   0  0  1  0  0  0  0  0  0  0  0  0
  183.2980  176.3730  139.3620 O   0  0  0  0  0  0  0  0  0  0  0  0
  182.0710  178.5820  144.0160 C   0  0  0  0  0  2  0  0  0  0  0  0
  182.2450  179.3780  142.7280 C   0  0  2  0  0  3  0  0  0  0  0  0
  180.9050  179.4880  141.9960 C   0  0  1  0  0  3  0  0  0  0  0  0
  186.9590  177.8710  144.1880 C   0  0  0  0  0  0  0  0  0  0  0  0
  187.0120  177.9660  142.7940 C   0  0  0  0  0  3  0  0  0  0  0  0
  180.1350  176.9910  137.5340 C   0  0  1  0  0  3  0  0  0  0  0  0
  182.4200  176.9920  138.5170 C   0  0  1  0  0  0  0  0  0  0  0  0
  183.0310  177.3160  137.2970 O   0  0  0  0  0  0  0  0  0  0  0  0
  184.5790  178.3890  144.1150 C   0  0  0  0  0  0  0  0  0  0  0  0
  185.8650  178.2740  142.0590 C   0  0  0  0  0  3  0  0  0  0  0  0
  184.6440  178.4920  142.7080 C   0  0  0  0  0  0  0  0  0  0  0  0
  178.9930  174.8960  137.8450 O   0  0  0  0  0  1  0  0  0  0  0  0
  178.9350  176.1210  137.1750 C   0  0  0  0  0  2  0  0  0  0  0  0
  179.9390  178.5280  135.5030 C   0  0  0  0  0  2  0  0  0  0  0  0
  180.6500  179.8130  135.0780 C   0  0  0  0  0  2  0  0  0  0  0  0
  179.8750  181.0410  135.5160 C   0  0  0  0  0  3  0  0  0  0  0  0
  180.6900  182.2790  135.1960 C   0  0  0  0  0  2  0  0  0  0  0  0
  180.6490  181.7470  136.6100 C   0  0  0  0  0  2  0  0  0  0  0  0
  188.1400  177.5620  144.8790 O   0  0  0  0  0  0  0  0  0  0  0  0
  190.3270  178.6240  144.3440 C   0  0  0  0  0  1  0  0  0  0  0  0
  189.8240  176.3720  143.8000 O   0  0  0  0  0  0  0  0  0  0  0  0
  189.4210  177.4460  144.3210 C   0  0  0  0  0  0  0  0  0  0  0  0
  1 23  1  1  0  0  0
  1 14  1  0  0  0  0
  3 20  1  0  0  0  0
  5 19  1  0  0  0  0
  6 12  1  1  0  0  0
  6 11  1  0  0  0  0
  6  7  1  0  0  0  0
  7  1  1  0  0  0  0
  8 15  1  0  0  0  0
 10  3  1  0  0  0  0
 10 18  1  0  0  0  0
 11  8  1  0  0  0  0
 11  7  1  0  0  0  0
 13  4  1  0  0  0  0
 14 13  1  0  0  0  0
 15  9  1  0  0  0  0
 15 14  1  0  0  0  0
 16  2  1  0  0  0  0
 16 31  1  0  0  0  0
 17 16  2  0  0  0  0
 18  5  1  0  0  0  0
 19 12  1  0  0  0  0
 19  6  1  0  0  0  0
 20 19  1  0  0  0  0
 21  2  2  0  0  0  0
 21  4  1  0  0  0  0
 22 23  2  0  0  0  0
 22 17  1  0  0  0  0
 23 21  1  0  0  0  0
 25 18  1  0  0  0  0
 25 24  1  0  0  0  0
 26 10  1  0  0  0  0
 27 26  1  0  0  0  0
 27 28  1  0  0  0  0
 28 30  1  0  0  0  0
 29 28  1  0  0  0  0
 29 30  1  0  0  0  0
 33 34  2  0  0  0  0
 34 32  1  0  0  0  0
 34 31  1  0  0  0  0
M  END
>  <MODEL>
5

>  <REMARK>
 VINA RESULT:      -7.0      2.416      9.714
  Name = 
  6 active torsions:
  status: ('A' for Active; 'I' for Inactive)
    1  A    between atoms: C_7  and  C_11
    2  A    between atoms: C_7  and  C_14
    3  A    between atoms: C_14  and  C_16
    4  A    between atoms: O_23  and  C_24
    5  A    between atoms: O_23  and  C_25
    6  A    between atoms: C_28  and  C_29
                            x       y       z     vdW  Elec       q    Type
                         _______ _______ _______ _____ _____    ______ ____

>  <TORSDO>
F 6

$$$$
=
 OpenBabel11052415503D

 34 40  0  0  1  0  0  0  0  0999 V2000
  187.5040  177.0940  142.7350 C   0  0  1  0  0  3  0  0  0  0  0  0
  184.9070  179.1050  144.6880 C   0  0  0  0  0  3  0  0  0  0  0  0
  189.6010  175.3880  138.0550 C   0  0  0  0  0  2  0  0  0  0  0  0
  187.1520  178.3340  145.4430 C   0  0  0  0  0  2  0  0  0  0  0  0
  190.7000  177.8290  139.1290 C   0  0  0  0  0  2  0  0  0  0  0  0
  188.4590  177.1640  140.5030 C   0  0  2  0  0  0  0  0  0  0  0  0
  188.2420  177.9020  141.6540 C   0  0  2  0  0  3  0  0  0  0  0  0
  190.3800  176.5460  142.4490 C   0  0  0  0  0  2  0  0  0  0  0  0
  190.6000  175.5000  144.6390 C   0  0  0  0  0  1  0  0  0  0  0  0
  191.0680  175.7250  137.7430 C   0  0  1  0  0  3  0  0  0  0  0  0
  189.5390  177.2570  141.5700 N   0  0  1  0  0  0  0  0  0  0  0  0
  188.3940  178.2610  139.5850 O   0  0  0  0  0  0  0  0  0  0  0  0
  188.5240  177.9950  144.8720 C   0  0  0  0  0  2  0  0  0  0  0  0
  188.4190  176.7700  143.9710 C   0  0  2  0  0  3  0  0  0  0  0  0
  189.8180  176.2550  143.6230 C   0  0  1  0  0  3  0  0  0  0  0  0
  183.8500  179.1580  143.7660 C   0  0  0  0  0  0  0  0  0  0  0  0
  183.9930  178.5190  142.5300 C   0  0  0  0  0  3  0  0  0  0  0  0
  191.6520  176.6770  138.8080 C   0  0  1  0  0  3  0  0  0  0  0  0
  189.2760  177.2780  139.2320 C   0  0  1  0  0  0  0  0  0  0  0  0
  188.8110  176.5510  138.1270 O   0  0  0  0  0  0  0  0  0  0  0  0
  186.0960  178.4390  144.3780 C   0  0  0  0  0  0  0  0  0  0  0  0
  185.1720  177.8400  142.2150 C   0  0  0  0  0  3  0  0  0  0  0  0
  186.2280  177.7890  143.1320 C   0  0  0  0  0  0  0  0  0  0  0  0
  193.8920  177.2340  139.4900 O   0  0  0  0  0  1  0  0  0  0  0  0
  193.0180  177.2180  138.4000 C   0  0  0  0  0  2  0  0  0  0  0  0
  191.8980  174.4460  137.5890 C   0  0  0  0  0  2  0  0  0  0  0  0
  192.4930  174.2610  136.1930 C   0  0  0  0  0  2  0  0  0  0  0  0
  193.9880  174.5160  136.1930 C   0  0  0  0  0  3  0  0  0  0  0  0
  194.7140  173.1920  136.0600 C   0  0  0  0  0  2  0  0  0  0  0  0
  194.5990  173.8560  137.4120 C   0  0  0  0  0  2  0  0  0  0  0  0
  182.6450  179.8240  144.0350 O   0  0  0  0  0  0  0  0  0  0  0  0
  180.6890  178.2860  144.1180 C   0  0  0  0  0  1  0  0  0  0  0  0
  180.8080  180.1350  142.6400 O   0  0  0  0  0  0  0  0  0  0  0  0
  181.3770  179.4730  143.5470 C   0  0  0  0  0  0  0  0  0  0  0  0
  1 23  1  1  0  0  0
  1 14  1  0  0  0  0
  3 20  1  0  0  0  0
  5 19  1  0  0  0  0
  6 12  1  6  0  0  0
  6 11  1  0  0  0  0
  6  7  1  0  0  0  0
  7  1  1  0  0  0  0
  8 15  1  0  0  0  0
 10  3  1  0  0  0  0
 10 18  1  0  0  0  0
 11  7  1  0  0  0  0
 11  8  1  0  0  0  0
 13  4  1  0  0  0  0
 14 13  1  0  0  0  0
 15 14  1  0  0  0  0
 15  9  1  0  0  0  0
 16 31  1  0  0  0  0
 16  2  2  0  0  0  0
 17 16  1  0  0  0  0
 18  5  1  0  0  0  0
 19 12  1  0  0  0  0
 19  6  1  0  0  0  0
 20 19  1  0  0  0  0
 21  2  1  0  0  0  0
 21  4  1  0  0  0  0
 22 17  2  0  0  0  0
 22 23  1  0  0  0  0
 23 21  2  0  0  0  0
 25 18  1  0  0  0  0
 25 24  1  0  0  0  0
 26 10  1  0  0  0  0
 27 28  1  0  0  0  0
 27 26  1  0  0  0  0
 28 30  1  0  0  0  0
 29 28  1  0  0  0  0
 29 30  1  0  0  0  0
 33 34  2  0  0  0  0
 34 31  1  0  0  0  0
 34 32  1  0  0  0  0
M  END
>  <MODEL>
6

>  <REMARK>
 VINA RESULT:      -6.7      3.735      5.721
  Name = 
  6 active torsions:
  status: ('A' for Active; 'I' for Inactive)
    1  A    between atoms: C_7  and  C_11
    2  A    between atoms: C_7  and  C_14
    3  A    between atoms: C_14  and  C_16
    4  A    between atoms: O_23  and  C_24
    5  A    between atoms: O_23  and  C_25
    6  A    between atoms: C_28  and  C_29
                            x       y       z     vdW  Elec       q    Type
                         _______ _______ _______ _____ _____    ______ ____

>  <TORSDO>
F 6

$$$$
=
 OpenBabel11052415503D

 34 40  0  0  1  0  0  0  0  0999 V2000
  191.5560  174.9790  137.6340 C   0  0  1  0  0  3  0  0  0  0  0  0
  194.2220  174.9390  134.8970 C   0  0  0  0  0  3  0  0  0  0  0  0
  189.9670  176.2100  142.6510 C   0  0  0  0  0  2  0  0  0  0  0  0
  191.7480  174.7870  134.6470 C   0  0  0  0  0  2  0  0  0  0  0  0
  189.4830  178.2140  140.6330 C   0  0  0  0  0  2  0  0  0  0  0  0
  191.1100  176.2920  139.6280 C   0  0  2  0  0  0  0  0  0  0  0  0
  191.3190  176.3630  138.2620 C   0  0  2  0  0  3  0  0  0  0  0  0
  188.7590  175.6650  138.2350 C   0  0  0  0  0  2  0  0  0  0  0  0
  187.8180  173.9710  136.7580 C   0  0  0  0  0  1  0  0  0  0  0  0
  188.7600  177.1460  142.8290 C   0  0  1  0  0  3  0  0  0  0  0  0
  189.9280  176.3200  138.6710 N   0  0  1  0  0  0  0  0  0  0  0  0
  191.6800  177.5640  139.9530 O   0  0  0  0  0  0  0  0  0  0  0  0
  190.4730  175.2270  135.3560 C   0  0  0  0  0  2  0  0  0  0  0  0
  190.3680  174.5290  136.7070 C   0  0  2  0  0  3  0  0  0  0  0  0
  188.9720  174.7400  137.2980 C   0  0  1  0  0  3  0  0  0  0  0  0
  195.3990  174.9810  135.6600 C   0  0  0  0  0  0  0  0  0  0  0  0
  195.3050  175.0010  137.0550 C   0  0  0  0  0  3  0  0  0  0  0  0
  188.3040  177.7190  141.4710 C   0  0  1  0  0  3  0  0  0  0  0  0
  190.6240  177.1990  140.7400 C   0  0  1  0  0  0  0  0  0  0  0  0
  191.0450  176.8740  142.0370 O   0  0  0  0  0  0  0  0  0  0  0  0
  192.9680  174.9320  135.5130 C   0  0  0  0  0  0  0  0  0  0  0  0
  194.0580  174.9820  137.6820 C   0  0  0  0  0  3  0  0  0  0  0  0
  192.8830  174.9430  136.9230 C   0  0  0  0  0  0  0  0  0  0  0  0
  186.4070  178.8740  140.5430 O   0  0  0  0  0  1  0  0  0  0  0  0
  187.2720  178.8290  141.6390 C   0  0  0  0  0  2  0  0  0  0  0  0
  187.6240  176.4320  143.5700 C   0  0  0  0  0  2  0  0  0  0  0  0
  187.2040  177.1230  144.8670 C   0  0  0  0  0  2  0  0  0  0  0  0
  188.3920  177.7620  145.5590 C   0  0  0  0  0  3  0  0  0  0  0  0
  188.7390  176.9530  146.7940 C   0  0  0  0  0  2  0  0  0  0  0  0
  187.9630  178.2430  146.9300 C   0  0  0  0  0  2  0  0  0  0  0  0
  196.6770  174.9990  135.0790 O   0  0  0  0  0  0  0  0  0  0  0  0
  198.8760  174.2350  135.9590 C   0  0  0  0  0  1  0  0  0  0  0  0
  197.4940  172.8740  134.5960 O   0  0  0  0  0  0  0  0  0  0  0  0
  197.6430  173.9860  135.1680 C   0  0  0  0  0  0  0  0  0  0  0  0
  1 23  1  6  0  0  0
  1  7  1  0  0  0  0
  2 21  2  0  0  0  0
  2 16  1  0  0  0  0
  3 10  1  0  0  0  0
  4 13  1  0  0  0  0
  4 21  1  0  0  0  0
  5 19  1  0  0  0  0
  5 18  1  0  0  0  0
  6 12  1  6  0  0  0
  6 19  1  0  0  0  0
  7 11  1  0  0  0  0
  7  6  1  0  0  0  0
  8 11  1  0  0  0  0
  9 15  1  0  0  0  0
 10 26  1  0  0  0  0
 11  6  1  0  0  0  0
 12 19  1  0  0  0  0
 13 14  1  0  0  0  0
 14 15  1  0  0  0  0
 14  1  1  0  0  0  0
 15  8  1  0  0  0  0
 16 17  2  0  0  0  0
 17 22  1  0  0  0  0
 18 25  1  0  0  0  0
 18 10  1  0  0  0  0
 19 20  1  0  0  0  0
 20  3  1  0  0  0  0
 21 23  1  0  0  0  0
 23 22  2  0  0  0  0
 24 25  1  0  0  0  0
 26 27  1  0  0  0  0
 27 28  1  0  0  0  0
 28 29  1  0  0  0  0
 28 30  1  0  0  0  0
 29 30  1  0  0  0  0
 31 34  1  0  0  0  0
 31 16  1  0  0  0  0
 33 34  2  0  0  0  0
 34 32  1  0  0  0  0
M  END
>  <MODEL>
7

>  <REMARK>
 VINA RESULT:      -6.6      5.836     10.013
  Name = 
  6 active torsions:
  status: ('A' for Active; 'I' for Inactive)
    1  A    between atoms: C_7  and  C_11
    2  A    between atoms: C_7  and  C_14
    3  A    between atoms: C_14  and  C_16
    4  A    between atoms: O_23  and  C_24
    5  A    between atoms: O_23  and  C_25
    6  A    between atoms: C_28  and  C_29
                            x       y       z     vdW  Elec       q    Type
                         _______ _______ _______ _____ _____    ______ ____

>  <TORSDO>
F 6

$$$$
=
 OpenBabel11052415503D

 34 40  0  0  1  0  0  0  0  0999 V2000
  188.5870  177.0540  141.7660 C   0  0  1  0  0  3  0  0  0  0  0  0
  191.6000  177.3130  144.1030 C   0  0  0  0  0  3  0  0  0  0  0  0
  183.2590  177.3130  140.8950 C   0  0  0  0  0  2  0  0  0  0  0  0
  191.5470  177.5110  141.6200 C   0  0  0  0  0  2  0  0  0  0  0  0
  184.7360  179.7590  140.4970 C   0  0  0  0  0  2  0  0  0  0  0  0
  186.3230  177.9320  141.7200 C   0  0  2  0  0  0  0  0  0  0  0  0
  187.6600  178.2810  141.7960 C   0  0  2  0  0  3  0  0  0  0  0  0
  187.4940  177.9120  139.1730 C   0  0  0  0  0  2  0  0  0  0  0  0
  189.1530  176.7110  137.8530 C   0  0  0  0  0  1  0  0  0  0  0  0
  182.7340  178.3210  139.8600 C   0  0  1  0  0  3  0  0  0  0  0  0
  187.0890  178.3120  140.4630 N   0  0  1  0  0  0  0  0  0  0  0  0
  185.8200  179.0240  142.4970 O   0  0  0  0  0  0  0  0  0  0  0  0
  190.6010  177.9290  140.5010 C   0  0  0  0  0  2  0  0  0  0  0  0
  189.4220  176.9640  140.4370 C   0  0  2  0  0  3  0  0  0  0  0  0
  188.6220  177.2000  139.1540 C   0  0  1  0  0  3  0  0  0  0  0  0
  191.0060  177.0470  145.3460 C   0  0  0  0  0  0  0  0  0  0  0  0
  189.6380  176.7660  145.4010 C   0  0  0  0  0  3  0  0  0  0  0  0
  183.8710  179.2310  139.3520 C   0  0  1  0  0  3  0  0  0  0  0  0
  184.9930  178.6200  141.4860 C   0  0  1  0  0  0  0  0  0  0  0  0
  183.8580  177.9660  141.9880 O   0  0  0  0  0  0  0  0  0  0  0  0
  190.8380  177.3160  142.9310 C   0  0  0  0  0  0  0  0  0  0  0  0
  188.8690  176.7540  144.2350 C   0  0  0  0  0  3  0  0  0  0  0  0
  189.4580  177.0220  142.9940 C   0  0  0  0  0  0  0  0  0  0  0  0
  182.1400  180.8720  139.0340 O   0  0  0  0  0  1  0  0  0  0  0  0
  183.3420  180.3890  138.5120 C   0  0  0  0  0  2  0  0  0  0  0  0
  182.0140  177.5970  138.7160 C   0  0  0  0  0  2  0  0  0  0  0  0
  182.4540  176.1450  138.5310 C   0  0  0  0  0  2  0  0  0  0  0  0
  183.1370  175.9430  137.1920 C   0  0  0  0  0  3  0  0  0  0  0  0
  184.1400  174.8130  137.3140 C   0  0  0  0  0  2  0  0  0  0  0  0
  184.6130  176.2480  137.3410 C   0  0  0  0  0  2  0  0  0  0  0  0
  191.7340  177.0440  146.5470 O   0  0  0  0  0  0  0  0  0  0  0  0
  192.7750  176.0210  148.5620 C   0  0  0  0  0  1  0  0  0  0  0  0
  192.5410  174.8620  146.5080 O   0  0  0  0  0  0  0  0  0  0  0  0
  192.3450  175.9320  147.1430 C   0  0  0  0  0  0  0  0  0  0  0  0
  1  7  1  0  0  0  0
  1 23  1  1  0  0  0
  2 16  1  0  0  0  0
  3 20  1  0  0  0  0
  4 21  1  0  0  0  0
  5 19  1  0  0  0  0
  6  7  1  0  0  0  0
  6 12  1  6  0  0  0
  8 11  1  0  0  0  0
  9 15  1  0  0  0  0
 10  3  1  0  0  0  0
 11  6  1  0  0  0  0
 11  7  1  0  0  0  0
 13  4  1  0  0  0  0
 14 13  1  0  0  0  0
 14  1  1  0  0  0  0
 15  8  1  0  0  0  0
 15 14  1  0  0  0  0
 16 17  2  0  0  0  0
 16 31  1  0  0  0  0
 18 10  1  0  0  0  0
 18  5  1  0  0  0  0
 19  6  1  0  0  0  0
 19 20  1  0  0  0  0
 19 12  1  0  0  0  0
 21 23  1  0  0  0  0
 21  2  2  0  0  0  0
 22 17  1  0  0  0  0
 23 22  2  0  0  0  0
 25 24  1  0  0  0  0
 25 18  1  0  0  0  0
 26 10  1  0  0  0  0
 27 26  1  0  0  0  0
 28 29  1  0  0  0  0
 28 30  1  0  0  0  0
 28 27  1  0  0  0  0
 29 30  1  0  0  0  0
 31 34  1  0  0  0  0
 33 34  2  0  0  0  0
 34 32  1  0  0  0  0
M  END
>  <MODEL>
8

>  <REMARK>
 VINA RESULT:      -6.4      2.506      9.419
  Name = 
  6 active torsions:
  status: ('A' for Active; 'I' for Inactive)
    1  A    between atoms: C_7  and  C_11
    2  A    between atoms: C_7  and  C_14
    3  A    between atoms: C_14  and  C_16
    4  A    between atoms: O_23  and  C_24
    5  A    between atoms: O_23  and  C_25
    6  A    between atoms: C_28  and  C_29
                            x       y       z     vdW  Elec       q    Type
                         _______ _______ _______ _____ _____    ______ ____

>  <TORSDO>
F 6

$$$$
=
 OpenBabel11052415503D

 34 40  0  0  1  0  0  0  0  0999 V2000
  186.2590  176.8570  137.6490 C   0  0  1  0  0  3  0  0  0  0  0  0
  189.9600  176.8600  136.6950 C   0  0  0  0  0  3  0  0  0  0  0  0
  182.2500  178.2670  140.9880 C   0  0  0  0  0  2  0  0  0  0  0  0
  187.9840  176.4960  135.2230 C   0  0  0  0  0  2  0  0  0  0  0  0
  182.8150  180.0970  138.8310 C   0  0  0  0  0  2  0  0  0  0  0  0
  184.7950  178.2520  138.9940 C   0  0  2  0  0  0  0  0  0  0  0  0
  185.6810  178.2550  137.9320 C   0  0  2  0  0  3  0  0  0  0  0  0
  183.5360  177.3550  136.6560 C   0  0  0  0  0  2  0  0  0  0  0  0
  183.5620  175.5020  135.0730 C   0  0  0  0  0  1  0  0  0  0  0  0
  181.0940  179.1130  140.4300 C   0  0  1  0  0  3  0  0  0  0  0  0
  184.2830  178.1270  137.5680 N   0  0  1  0  0  0  0  0  0  0  0  0
  185.0670  179.5830  139.4450 O   0  0  0  0  0  0  0  0  0  0  0  0
  186.5110  176.8770  135.1280 C   0  0  0  0  0  2  0  0  0  0  0  0
  185.7440  176.2580  136.2910 C   0  0  2  0  0  3  0  0  0  0  0  0
  184.2380  176.3930  136.0550 C   0  0  1  0  0  3  0  0  0  0  0  0
  190.5660  177.0440  137.9470 C   0  0  0  0  0  0  0  0  0  0  0  0
  189.7600  177.1430  139.0860 C   0  0  0  0  0  3  0  0  0  0  0  0
  181.3910  179.5630  138.9840 C   0  0  1  0  0  3  0  0  0  0  0  0
  183.7690  179.1850  139.6050 C   0  0  1  0  0  0  0  0  0  0  0  0
  183.4660  178.9760  140.9580 O   0  0  0  0  0  0  0  0  0  0  0  0
  188.5690  176.7920  136.5750 C   0  0  0  0  0  0  0  0  0  0  0  0
  188.3700  177.0640  138.9790 C   0  0  0  0  0  3  0  0  0  0  0  0
  187.7630  176.8830  137.7310 C   0  0  0  0  0  0  0  0  0  0  0  0
  180.2340  181.6280  139.4200 O   0  0  0  0  0  1  0  0  0  0  0  0
  180.3830  180.5950  138.4910 C   0  0  0  0  0  2  0  0  0  0  0  0
  179.7650  178.3580  140.5430 C   0  0  0  0  0  2  0  0  0  0  0  0
  179.9240  176.8400  140.6340 C   0  0  0  0  0  2  0  0  0  0  0  0
  179.6120  176.1750  139.3070 C   0  0  0  0  0  3  0  0  0  0  0  0
  179.9970  174.7100  139.3870 C   0  0  0  0  0  2  0  0  0  0  0  0
  180.9050  175.6920  138.6830 C   0  0  0  0  0  2  0  0  0  0  0  0
  191.9580  177.1280  138.1090 O   0  0  0  0  0  0  0  0  0  0  0  0
  192.7180  174.8140  137.5940 C   0  0  0  0  0  1  0  0  0  0  0  0
  193.9300  176.7420  136.9360 O   0  0  0  0  0  0  0  0  0  0  0  0
  192.9130  176.2860  137.5210 C   0  0  0  0  0  0  0  0  0  0  0  0
  1 23  1  6  0  0  0
  1  7  1  0  0  0  0
  2 16  1  0  0  0  0
  4 21  1  0  0  0  0
  5 18  1  0  0  0  0
  5 19  1  0  0  0  0
  6 12  1  6  0  0  0
  6 19  1  0  0  0  0
  7  6  1  0  0  0  0
  8 11  1  0  0  0  0
  9 15  1  0  0  0  0
 10 26  1  0  0  0  0
 10  3  1  0  0  0  0
 11  7  1  0  0  0  0
 11  6  1  0  0  0  0
 12 19  1  0  0  0  0
 13  4  1  0  0  0  0
 13 14  1  0  0  0  0
 14  1  1  0  0  0  0
 15 14  1  0  0  0  0
 15  8  1  0  0  0  0
 16 31  1  0  0  0  0
 16 17  2  0  0  0  0
 18 10  1  0  0  0  0
 19 20  1  0  0  0  0
 20  3  1  0  0  0  0
 21  2  2  0  0  0  0
 21 23  1  0  0  0  0
 22 17  1  0  0  0  0
 23 22  2  0  0  0  0
 25 18  1  0  0  0  0
 25 24  1  0  0  0  0
 26 27  1  0  0  0  0
 28 29  1  0  0  0  0
 28 27  1  0  0  0  0
 30 28  1  0  0  0  0
 30 29  1  0  0  0  0
 33 34  2  0  0  0  0
 34 32  1  0  0  0  0
 34 31  1  0  0  0  0
M  END
>  <MODEL>
9

>  <REMARK>
 VINA RESULT:      -6.2      4.619      9.918
  Name = 
  6 active torsions:
  status: ('A' for Active; 'I' for Inactive)
    1  A    between atoms: C_7  and  C_11
    2  A    between atoms: C_7  and  C_14
    3  A    between atoms: C_14  and  C_16
    4  A    between atoms: O_23  and  C_24
    5  A    between atoms: O_23  and  C_25
    6  A    between atoms: C_28  and  C_29
                            x       y       z     vdW  Elec       q    Type
                         _______ _______ _______ _____ _____    ______ ____

>  <TORSDO>
F 6

$$$$
