=
 OpenBabel11052412533D

 25 27  0  0  1  0  0  0  0  0999 V2000
  188.0890  177.2050  144.6330 C   0  0  0  0  0  0  0  0  0  0  0  0
  186.9260  177.8240  144.1320 C   0  0  0  0  0  0  0  0  0  0  0  0
  187.4670  177.8270  146.8890 C   0  0  0  0  0  3  0  0  0  0  0  0
  189.0750  176.6070  143.6730 C   0  0  0  0  0  2  0  0  0  0  0  0
  185.8840  178.7180  142.0310 C   0  0  2  0  0  3  0  0  0  0  0  0
  190.9770  179.8760  143.8960 N   0  0  0  0  0  1  0  0  0  0  0  0
  186.3000  178.4120  146.4080 C   0  0  0  0  0  3  0  0  0  0  0  0
  190.8950  176.7110  145.8610 C   0  0  0  0  0  2  0  0  0  0  0  0
  191.0930  178.0770  145.3920 N   0  0  0  0  0  0  0  0  0  0  0  0
  184.6990  179.0330  144.5690 C   0  0  2  0  0  3  0  0  0  0  0  0
  183.8090  179.3420  145.6790 N   0  0  0  0  0  1  0  0  0  0  0  0
  186.7350  177.8200  142.7390 O   0  0  0  0  0  0  0  0  0  0  0  0
  190.7130  178.5190  144.2280 C   0  0  0  0  0  0  0  0  0  0  0  0
  188.3720  177.2260  146.0180 C   0  0  0  0  0  0  0  0  0  0  0  0
  189.5820  176.5690  146.6390 C   0  0  0  0  0  2  0  0  0  0  0  0
  183.9840  178.0970  143.6070 C   0  0  0  0  0  2  0  0  0  0  0  0
  190.0860  177.6430  143.1670 C   0  0  0  0  0  2  0  0  0  0  0  0
  184.4070  178.3470  142.1640 C   0  0  0  0  0  2  0  0  0  0  0  0
  185.9980  178.4100  145.0390 C   0  0  0  0  0  0  0  0  0  0  0  0
  186.2930  178.8440  140.5590 C   0  0  0  0  0  2  0  0  0  0  0  0
  184.2020  179.6320  139.3530 C   0  0  0  0  0  1  0  0  0  0  0  0
  185.2160  178.5120  139.5150 C   0  0  1  0  0  3  0  0  0  0  0  0
  185.7630  178.0490  138.2020 C   0  0  0  0  0  0  0  0  0  0  0  0
  185.0980  177.0800  137.4570 O   0  0  0  0  0  0  0  0  0  0  0  0
  186.8180  178.5650  137.7500 O   0  0  0  0  0  1  0  0  0  0  0  0
  1 14  1  0  0  0  0
  2  1  2  0  0  0  0
  2 19  1  0  0  0  0
  4  1  1  0  0  0  0
  5 20  1  6  0  0  0
  5 18  1  0  0  0  0
  5 12  1  0  0  0  0
  6 13  1  0  0  0  0
  7  3  1  0  0  0  0
  8 15  1  0  0  0  0
  9  8  1  0  0  0  0
 10 19  1  0  0  0  0
 10 11  1  1  0  0  0
 12  2  1  0  0  0  0
 13  9  2  0  0  0  0
 14 15  1  0  0  0  0
 14  3  2  0  0  0  0
 16 10  1  0  0  0  0
 17  4  1  0  0  0  0
 17 13  1  0  0  0  0
 18 16  1  0  0  0  0
 19  7  2  0  0  0  0
 22 21  1  6  0  0  0
 22 20  1  0  0  0  0
 23 22  1  0  0  0  0
 24 23  2  0  0  0  0
 25 23  1  0  0  0  0
M  END
>  <MODEL>
1

>  <REMARK>
 VINA RESULT:      -8.6      0.000      0.000
  Name = 
  3 active torsions:
  status: ('A' for Active; 'I' for Inactive)
    1  A    between atoms: C_2  and  C_25
    2  A    between atoms: C_6  and  C_15
    3  A    between atoms: C_15  and  C_25
                            x       y       z     vdW  Elec       q    Type
                         _______ _______ _______ _____ _____    ______ ____

>  <TORSDO>
F 3

$$$$
=
 OpenBabel11052412533D

 25 27  0  0  1  0  0  0  0  0999 V2000
  188.8240  176.9930  144.4480 C   0  0  0  0  0  0  0  0  0  0  0  0
  187.8380  177.6390  143.6750 C   0  0  0  0  0  0  0  0  0  0  0  0
  187.7430  177.7440  146.4810 C   0  0  0  0  0  3  0  0  0  0  0  0
  189.9670  176.3080  143.7580 C   0  0  0  0  0  2  0  0  0  0  0  0
  187.3460  178.4810  141.3620 C   0  0  2  0  0  3  0  0  0  0  0  0
  191.9420  179.4970  144.2940 N   0  0  0  0  0  1  0  0  0  0  0  0
  186.7470  178.3580  145.7270 C   0  0  0  0  0  3  0  0  0  0  0  0
  191.2500  176.4320  146.2980 C   0  0  0  0  0  2  0  0  0  0  0  0
  191.6210  177.7650  145.8390 N   0  0  0  0  0  0  0  0  0  0  0  0
  185.6380  178.9640  143.5510 C   0  0  2  0  0  3  0  0  0  0  0  0
  184.5380  179.3620  144.4180 N   0  0  0  0  0  1  0  0  0  0  0  0
  187.9660  177.5800  142.2750 O   0  0  0  0  0  0  0  0  0  0  0  0
  191.5380  178.1690  144.6050 C   0  0  0  0  0  0  0  0  0  0  0  0
  188.7880  177.0640  145.8600 C   0  0  0  0  0  0  0  0  0  0  0  0
  189.7900  176.3840  146.7620 C   0  0  0  0  0  2  0  0  0  0  0  0
  185.1090  178.0170  142.4850 C   0  0  0  0  0  2  0  0  0  0  0  0
  191.1200  177.2740  143.4600 C   0  0  0  0  0  2  0  0  0  0  0  0
  185.8590  178.1820  141.1690 C   0  0  0  0  0  2  0  0  0  0  0  0
  186.7630  178.3070  144.3250 C   0  0  0  0  0  0  0  0  0  0  0  0
  188.0820  178.5200  140.0180 C   0  0  0  0  0  2  0  0  0  0  0  0
  187.9750  176.9440  138.0290 C   0  0  0  0  0  1  0  0  0  0  0  0
  188.5170  177.1690  139.4300 C   0  0  1  0  0  3  0  0  0  0  0  0
  189.9880  176.9120  139.5170 C   0  0  0  0  0  0  0  0  0  0  0  0
  190.5440  175.7690  138.9550 O   0  0  0  0  0  0  0  0  0  0  0  0
  190.7350  177.7570  140.0760 O   0  0  0  0  0  1  0  0  0  0  0  0
  1 14  1  0  0  0  0
  2 19  1  0  0  0  0
  2  1  2  0  0  0  0
  4  1  1  0  0  0  0
  5 20  1  6  0  0  0
  5 12  1  0  0  0  0
  6 13  1  0  0  0  0
  7  3  1  0  0  0  0
  8 15  1  0  0  0  0
  9  8  1  0  0  0  0
 10 19  1  0  0  0  0
 10 11  1  1  0  0  0
 12  2  1  0  0  0  0
 13  9  2  0  0  0  0
 14  3  2  0  0  0  0
 14 15  1  0  0  0  0
 16 10  1  0  0  0  0
 17  4  1  0  0  0  0
 17 13  1  0  0  0  0
 18  5  1  0  0  0  0
 18 16  1  0  0  0  0
 19  7  2  0  0  0  0
 22 21  1  6  0  0  0
 22 23  1  0  0  0  0
 22 20  1  0  0  0  0
 23 25  1  0  0  0  0
 24 23  2  0  0  0  0
M  END
>  <MODEL>
2

>  <REMARK>
 VINA RESULT:      -8.4      1.951      2.357
  Name = 
  3 active torsions:
  status: ('A' for Active; 'I' for Inactive)
    1  A    between atoms: C_2  and  C_25
    2  A    between atoms: C_6  and  C_15
    3  A    between atoms: C_15  and  C_25
                            x       y       z     vdW  Elec       q    Type
                         _______ _______ _______ _____ _____    ______ ____

>  <TORSDO>
F 3

$$$$
=
 OpenBabel11052412533D

 25 27  0  0  1  0  0  0  0  0999 V2000
  188.9950  176.8260  142.3850 C   0  0  0  0  0  0  0  0  0  0  0  0
  189.0740  177.0820  141.0010 C   0  0  0  0  0  0  0  0  0  0  0  0
  186.9780  178.1590  142.5310 C   0  0  0  0  0  3  0  0  0  0  0  0
  190.0810  176.0330  143.0500 C   0  0  0  0  0  2  0  0  0  0  0  0
  190.6430  177.0170  139.0440 C   0  0  2  0  0  3  0  0  0  0  0  0
  191.6680  179.3490  143.9690 N   0  0  0  0  0  1  0  0  0  0  0  0
  187.0300  178.3900  141.1600 C   0  0  0  0  0  3  0  0  0  0  0  0
  189.0690  177.1400  145.4710 C   0  0  0  0  0  2  0  0  0  0  0  0
  189.9420  178.2510  145.1110 N   0  0  0  0  0  0  0  0  0  0  0  0
  188.0490  178.1060  138.8770 C   0  0  2  0  0  3  0  0  0  0  0  0
  186.7960  178.6970  138.4300 N   0  0  0  0  0  1  0  0  0  0  0  0
  190.1700  176.5450  140.3020 O   0  0  0  0  0  0  0  0  0  0  0  0
  190.8850  178.1880  144.2160 C   0  0  0  0  0  0  0  0  0  0  0  0
  187.9520  177.3870  143.1590 C   0  0  0  0  0  0  0  0  0  0  0  0
  187.7810  177.1460  144.6390 C   0  0  0  0  0  2  0  0  0  0  0  0
  188.2800  176.8070  138.1200 C   0  0  0  0  0  2  0  0  0  0  0  0
  191.2560  176.9180  143.4840 C   0  0  0  0  0  2  0  0  0  0  0  0
  189.7640  176.5560  137.8810 C   0  0  0  0  0  2  0  0  0  0  0  0
  188.0560  177.8510  140.3710 C   0  0  0  0  0  0  0  0  0  0  0  0
  192.1110  176.6380  138.8120 C   0  0  0  0  0  2  0  0  0  0  0  0
  193.6430  176.5720  136.7880 C   0  0  0  0  0  1  0  0  0  0  0  0
  192.4420  175.9490  137.4790 C   0  0  1  0  0  3  0  0  0  0  0  0
  192.5520  174.4600  137.5750 C   0  0  0  0  0  0  0  0  0  0  0  0
  193.7890  173.8490  137.7510 O   0  0  0  0  0  1  0  0  0  0  0  0
  191.5100  173.7550  137.5300 O   0  0  0  0  0  0  0  0  0  0  0  0
  1  4  1  0  0  0  0
  1 14  1  0  0  0  0
  2  1  2  0  0  0  0
  3 14  2  0  0  0  0
  4 17  1  0  0  0  0
  5 20  1  6  0  0  0
  5 12  1  0  0  0  0
  6 13  1  0  0  0  0
  7  3  1  0  0  0  0
  9  8  1  0  0  0  0
 10 11  1  6  0  0  0
 10 19  1  0  0  0  0
 12  2  1  0  0  0  0
 13  9  2  0  0  0  0
 14 15  1  0  0  0  0
 15  8  1  0  0  0  0
 16 10  1  0  0  0  0
 17 13  1  0  0  0  0
 18 16  1  0  0  0  0
 18  5  1  0  0  0  0
 19  2  1  0  0  0  0
 19  7  2  0  0  0  0
 22 21  1  1  0  0  0
 22 23  1  0  0  0  0
 22 20  1  0  0  0  0
 23 24  1  0  0  0  0
 25 23  2  0  0  0  0
M  END
>  <MODEL>
3

>  <REMARK>
 VINA RESULT:      -8.3      4.120      5.591
  Name = 
  3 active torsions:
  status: ('A' for Active; 'I' for Inactive)
    1  A    between atoms: C_2  and  C_25
    2  A    between atoms: C_6  and  C_15
    3  A    between atoms: C_15  and  C_25
                            x       y       z     vdW  Elec       q    Type
                         _______ _______ _______ _____ _____    ______ ____

>  <TORSDO>
F 3

$$$$
=
 OpenBabel11052412533D

 25 27  0  0  1  0  0  0  0  0999 V2000
  187.6280  177.2630  144.7040 C   0  0  0  0  0  0  0  0  0  0  0  0
  186.6940  177.8810  143.8480 C   0  0  0  0  0  0  0  0  0  0  0  0
  186.6240  178.3590  146.6160 C   0  0  0  0  0  3  0  0  0  0  0  0
  188.7070  176.4040  144.1150 C   0  0  0  0  0  2  0  0  0  0  0  0
  186.2590  178.4510  141.4430 C   0  0  2  0  0  3  0  0  0  0  0  0
  190.9390  179.4630  144.2400 N   0  0  0  0  0  1  0  0  0  0  0  0
  185.6770  178.9480  145.7830 C   0  0  0  0  0  3  0  0  0  0  0  0
  190.0110  176.7520  146.6230 C   0  0  0  0  0  2  0  0  0  0  0  0
  190.4870  177.9800  145.9960 N   0  0  0  0  0  0  0  0  0  0  0  0
  184.6090  179.3540  143.5420 C   0  0  2  0  0  3  0  0  0  0  0  0
  183.5500  179.9500  144.3440 N   0  0  0  0  0  1  0  0  0  0  0  0
  186.8090  177.6300  142.4690 O   0  0  0  0  0  0  0  0  0  0  0  0
  190.4300  178.2250  144.7190 C   0  0  0  0  0  0  0  0  0  0  0  0
  187.6060  177.5210  146.0940 C   0  0  0  0  0  0  0  0  0  0  0  0
  188.5540  176.8850  147.0820 C   0  0  0  0  0  2  0  0  0  0  0  0
  183.9980  178.3230  142.6060 C   0  0  0  0  0  2  0  0  0  0  0  0
  189.9340  177.2250  143.6990 C   0  0  0  0  0  2  0  0  0  0  0  0
  184.7510  178.2520  141.2830 C   0  0  0  0  0  2  0  0  0  0  0  0
  185.6800  178.7140  144.4010 C   0  0  0  0  0  0  0  0  0  0  0  0
  186.9880  178.2550  140.1080 C   0  0  0  0  0  2  0  0  0  0  0  0
  189.0680  176.9810  140.8140 C   0  0  0  0  0  1  0  0  0  0  0  0
  188.5230  178.2390  140.1580 C   0  0  1  0  0  3  0  0  0  0  0  0
  189.1780  178.5230  138.8440 C   0  0  0  0  0  0  0  0  0  0  0  0
  190.3150  177.8260  138.4510 O   0  0  0  0  0  1  0  0  0  0  0  0
  188.6740  179.3780  138.0700 O   0  0  0  0  0  0  0  0  0  0  0  0
  1 14  1  0  0  0  0
  2 19  1  0  0  0  0
  2  1  2  0  0  0  0
  4  1  1  0  0  0  0
  5 20  1  6  0  0  0
  5 12  1  0  0  0  0
  6 13  1  0  0  0  0
  7  3  1  0  0  0  0
  8 15  1  0  0  0  0
  9  8  1  0  0  0  0
 10 11  1  1  0  0  0
 10 19  1  0  0  0  0
 12  2  1  0  0  0  0
 13  9  2  0  0  0  0
 14  3  2  0  0  0  0
 14 15  1  0  0  0  0
 16 10  1  0  0  0  0
 17  4  1  0  0  0  0
 17 13  1  0  0  0  0
 18  5  1  0  0  0  0
 18 16  1  0  0  0  0
 19  7  2  0  0  0  0
 20 22  1  0  0  0  0
 22 21  1  6  0  0  0
 23 22  1  0  0  0  0
 24 23  1  0  0  0  0
 25 23  2  0  0  0  0
M  END
>  <MODEL>
4

>  <REMARK>
 VINA RESULT:      -8.2      1.473      2.053
  Name = 
  3 active torsions:
  status: ('A' for Active; 'I' for Inactive)
    1  A    between atoms: C_2  and  C_25
    2  A    between atoms: C_6  and  C_15
    3  A    between atoms: C_15  and  C_25
                            x       y       z     vdW  Elec       q    Type
                         _______ _______ _______ _____ _____    ______ ____

>  <TORSDO>
F 3

$$$$
=
 OpenBabel11052412533D

 25 27  0  0  1  0  0  0  0  0999 V2000
  187.9810  177.2750  142.8440 C   0  0  0  0  0  0  0  0  0  0  0  0
  187.6270  177.7540  141.5660 C   0  0  0  0  0  0  0  0  0  0  0  0
  186.0640  178.3950  143.8110 C   0  0  0  0  0  3  0  0  0  0  0  0
  189.2410  176.4780  143.0070 C   0  0  0  0  0  2  0  0  0  0  0  0
  188.5270  178.1330  139.2540 C   0  0  2  0  0  3  0  0  0  0  0  0
  190.9310  179.7230  143.9920 N   0  0  0  0  0  1  0  0  0  0  0  0
  185.6890  178.8460  142.5490 C   0  0  0  0  0  3  0  0  0  0  0  0
  188.9800  177.0950  145.7750 C   0  0  0  0  0  2  0  0  0  0  0  0
  189.6680  178.3180  145.3780 N   0  0  0  0  0  0  0  0  0  0  0  0
  185.9740  179.0160  140.0550 C   0  0  2  0  0  3  0  0  0  0  0  0
  184.6270  179.5660  140.1080 N   0  0  0  0  0  1  0  0  0  0  0  0
  188.4740  177.4280  140.4910 O   0  0  0  0  0  0  0  0  0  0  0  0
  190.2950  178.4770  144.2480 C   0  0  0  0  0  0  0  0  0  0  0  0
  187.2060  177.6160  143.9760 C   0  0  0  0  0  0  0  0  0  0  0  0
  187.5010  177.1280  145.3740 C   0  0  0  0  0  2  0  0  0  0  0  0
  186.0030  177.8790  139.0450 C   0  0  0  0  0  2  0  0  0  0  0  0
  190.4650  177.3760  143.2260 C   0  0  0  0  0  2  0  0  0  0  0  0
  187.3510  177.7930  138.3390 C   0  0  0  0  0  2  0  0  0  0  0  0
  186.4430  178.5270  141.4100 C   0  0  0  0  0  0  0  0  0  0  0  0
  189.8660  177.9190  138.5370 C   0  0  0  0  0  2  0  0  0  0  0  0
  190.5610  175.5440  137.9670 C   0  0  0  0  0  1  0  0  0  0  0  0
  190.6830  176.6880  138.9590 C   0  0  1  0  0  3  0  0  0  0  0  0
  192.1080  176.9910  139.3020 C   0  0  0  0  0  0  0  0  0  0  0  0
  193.1260  176.7510  138.3860 O   0  0  0  0  0  0  0  0  0  0  0  0
  192.3830  177.5020  140.4180 O   0  0  0  0  0  1  0  0  0  0  0  0
  1  4  1  0  0  0  0
  1 14  1  0  0  0  0
  2  1  2  0  0  0  0
  3 14  2  0  0  0  0
  4 17  1  0  0  0  0
  5 20  1  6  0  0  0
  5 12  1  0  0  0  0
  6 13  1  0  0  0  0
  7  3  1  0  0  0  0
  9  8  1  0  0  0  0
 10 11  1  1  0  0  0
 10 19  1  0  0  0  0
 12  2  1  0  0  0  0
 13  9  2  0  0  0  0
 14 15  1  0  0  0  0
 15  8  1  0  0  0  0
 16 10  1  0  0  0  0
 17 13  1  0  0  0  0
 18 16  1  0  0  0  0
 18  5  1  0  0  0  0
 19  2  1  0  0  0  0
 19  7  2  0  0  0  0
 20 22  1  0  0  0  0
 22 21  1  6  0  0  0
 22 23  1  0  0  0  0
 23 25  1  0  0  0  0
 24 23  2  0  0  0  0
M  END
>  <MODEL>
5

>  <REMARK>
 VINA RESULT:      -8.1      3.031      4.256
  Name = 
  3 active torsions:
  status: ('A' for Active; 'I' for Inactive)
    1  A    between atoms: C_2  and  C_25
    2  A    between atoms: C_6  and  C_15
    3  A    between atoms: C_15  and  C_25
                            x       y       z     vdW  Elec       q    Type
                         _______ _______ _______ _____ _____    ______ ____

>  <TORSDO>
F 3

$$$$
=
 OpenBabel11052412533D

 25 27  0  0  1  0  0  0  0  0999 V2000
  188.6610  177.0790  144.9680 C   0  0  0  0  0  0  0  0  0  0  0  0
  187.4210  177.7480  144.9410 C   0  0  0  0  0  0  0  0  0  0  0  0
  188.7150  177.2450  147.3840 C   0  0  0  0  0  3  0  0  0  0  0  0
  189.3210  176.7020  143.6750 C   0  0  0  0  0  2  0  0  0  0  0  0
  185.8530  178.9920  143.4270 C   0  0  2  0  0  3  0  0  0  0  0  0
  191.2920  179.9240  143.9690 N   0  0  0  0  0  1  0  0  0  0  0  0
  187.4750  177.8760  147.3690 C   0  0  0  0  0  3  0  0  0  0  0  0
  191.6850  176.4440  145.2420 C   0  0  0  0  0  2  0  0  0  0  0  0
  191.7780  177.8790  145.0030 N   0  0  0  0  0  0  0  0  0  0  0  0
  185.4380  178.7870  146.2060 C   0  0  2  0  0  3  0  0  0  0  0  0
  184.9040  178.8540  147.5590 N   0  0  0  0  0  1  0  0  0  0  0  0
  186.8450  178.0020  143.6830 O   0  0  0  0  0  0  0  0  0  0  0  0
  191.0980  178.5220  144.0980 C   0  0  0  0  0  0  0  0  0  0  0  0
  189.3230  176.8460  146.1960 C   0  0  0  0  0  0  0  0  0  0  0  0
  190.6410  176.1190  146.3160 C   0  0  0  0  0  2  0  0  0  0  0  0
  184.4570  178.0290  145.3250 C   0  0  0  0  0  2  0  0  0  0  0  0
  190.1760  177.8440  143.1110 C   0  0  0  0  0  2  0  0  0  0  0  0
  184.4640  178.5590  143.8960 C   0  0  0  0  0  2  0  0  0  0  0  0
  186.8000  178.1250  146.1650 C   0  0  0  0  0  0  0  0  0  0  0  0
  185.8340  179.4050  141.9500 C   0  0  0  0  0  2  0  0  0  0  0  0
  183.4550  178.6220  141.5270 C   0  0  0  0  0  1  0  0  0  0  0  0
  184.8900  178.6190  141.0270 C   0  0  1  0  0  3  0  0  0  0  0  0
  184.9890  179.0040  139.5850 C   0  0  0  0  0  0  0  0  0  0  0  0
  184.3130  180.1170  139.0980 O   0  0  0  0  0  1  0  0  0  0  0  0
  185.7200  178.3320  138.8110 O   0  0  0  0  0  0  0  0  0  0  0  0
  1 14  1  0  0  0  0
  2  1  2  0  0  0  0
  2 19  1  0  0  0  0
  4  1  1  0  0  0  0
  5 20  1  6  0  0  0
  5 12  1  0  0  0  0
  5 18  1  0  0  0  0
  6 13  1  0  0  0  0
  7  3  1  0  0  0  0
  8 15  1  0  0  0  0
  9  8  1  0  0  0  0
 10 11  1  1  0  0  0
 12  2  1  0  0  0  0
 13  9  2  0  0  0  0
 14 15  1  0  0  0  0
 14  3  2  0  0  0  0
 16 10  1  0  0  0  0
 17  4  1  0  0  0  0
 17 13  1  0  0  0  0
 18 16  1  0  0  0  0
 19 10  1  0  0  0  0
 19  7  2  0  0  0  0
 22 21  1  1  0  0  0
 22 20  1  0  0  0  0
 23 22  1  0  0  0  0
 24 23  1  0  0  0  0
 25 23  2  0  0  0  0
M  END
>  <MODEL>
6

>  <REMARK>
 VINA RESULT:      -7.8      1.174      1.545
  Name = 
  3 active torsions:
  status: ('A' for Active; 'I' for Inactive)
    1  A    between atoms: C_2  and  C_25
    2  A    between atoms: C_6  and  C_15
    3  A    between atoms: C_15  and  C_25
                            x       y       z     vdW  Elec       q    Type
                         _______ _______ _______ _____ _____    ______ ____

>  <TORSDO>
F 3

$$$$
=
 OpenBabel11052412533D

 25 27  0  0  1  0  0  0  0  0999 V2000
  186.6780  178.6080  142.6860 C   0  0  0  0  0  0  0  0  0  0  0  0
  187.7650  177.9730  142.0520 C   0  0  0  0  0  0  0  0  0  0  0  0
  186.8050  177.0310  144.5190 C   0  0  0  0  0  3  0  0  0  0  0  0
  185.9900  179.7490  141.9960 C   0  0  0  0  0  2  0  0  0  0  0  0
  188.9340  177.7420  139.8430 C   0  0  2  0  0  3  0  0  0  0  0  0
  183.4850  177.2090  140.7210 N   0  0  0  0  0  1  0  0  0  0  0  0
  187.8990  176.4170  143.9170 C   0  0  0  0  0  3  0  0  0  0  0  0
  183.8620  179.2450  143.8200 C   0  0  0  0  0  2  0  0  0  0  0  0
  183.4820  178.2580  142.8160 N   0  0  0  0  0  0  0  0  0  0  0  0
  189.6210  176.1940  142.0960 C   0  0  2  0  0  3  0  0  0  0  0  0
  190.2490  175.2750  143.0350 N   0  0  0  0  0  1  0  0  0  0  0  0
  188.1710  178.4710  140.8000 O   0  0  0  0  0  0  0  0  0  0  0  0
  183.9480  178.2250  141.6010 C   0  0  0  0  0  0  0  0  0  0  0  0
  186.1810  178.1210  143.9160 C   0  0  0  0  0  0  0  0  0  0  0  0
  185.0380  178.7540  144.6720 C   0  0  0  0  0  2  0  0  0  0  0  0
  190.6450  177.2280  141.6570 C   0  0  0  0  0  2  0  0  0  0  0  0
  184.8910  179.2660  141.0410 C   0  0  0  0  0  2  0  0  0  0  0  0
  190.4150  177.6670  140.2150 C   0  0  0  0  0  2  0  0  0  0  0  0
  188.4080  176.8770  142.6940 C   0  0  0  0  0  0  0  0  0  0  0  0
  188.7470  178.2990  138.4270 C   0  0  0  0  0  2  0  0  0  0  0  0
  188.0760  175.9990  137.5850 C   0  0  0  0  0  1  0  0  0  0  0  0
  187.8360  177.4960  137.4860 C   0  0  1  0  0  3  0  0  0  0  0  0
  186.3860  177.8470  137.5960 C   0  0  0  0  0  0  0  0  0  0  0  0
  185.4040  176.9000  137.3290 O   0  0  0  0  0  0  0  0  0  0  0  0
  186.0520  179.0020  137.9690 O   0  0  0  0  0  1  0  0  0  0  0  0
  1 14  1  0  0  0  0
  2  1  2  0  0  0  0
  2 19  1  0  0  0  0
  4  1  1  0  0  0  0
  5 20  1  6  0  0  0
  5 18  1  0  0  0  0
  5 12  1  0  0  0  0
  6 13  1  0  0  0  0
  7  3  1  0  0  0  0
  8 15  1  0  0  0  0
  9  8  1  0  0  0  0
 10 19  1  0  0  0  0
 10 11  1  1  0  0  0
 12  2  1  0  0  0  0
 13  9  2  0  0  0  0
 14  3  2  0  0  0  0
 14 15  1  0  0  0  0
 16 10  1  0  0  0  0
 17 13  1  0  0  0  0
 17  4  1  0  0  0  0
 18 16  1  0  0  0  0
 19  7  2  0  0  0  0
 22 21  1  1  0  0  0
 22 23  1  0  0  0  0
 22 20  1  0  0  0  0
 23 25  1  0  0  0  0
 24 23  2  0  0  0  0
M  END
>  <MODEL>
7

>  <REMARK>
 VINA RESULT:      -7.8      2.217      5.147
  Name = 
  3 active torsions:
  status: ('A' for Active; 'I' for Inactive)
    1  A    between atoms: C_2  and  C_25
    2  A    between atoms: C_6  and  C_15
    3  A    between atoms: C_15  and  C_25
                            x       y       z     vdW  Elec       q    Type
                         _______ _______ _______ _____ _____    ______ ____

>  <TORSDO>
F 3

$$$$
=
 OpenBabel11052412533D

 25 27  0  0  1  0  0  0  0  0999 V2000
  188.6590  178.2890  143.0760 C   0  0  0  0  0  0  0  0  0  0  0  0
  187.6070  178.2130  144.0110 C   0  0  0  0  0  0  0  0  0  0  0  0
  187.0660  178.1900  141.2550 C   0  0  0  0  0  3  0  0  0  0  0  0
  190.0770  178.3080  143.5640 C   0  0  0  0  0  2  0  0  0  0  0  0
  187.1060  177.7120  146.4190 C   0  0  2  0  0  3  0  0  0  0  0  0
  190.1180  174.5630  142.9900 N   0  0  0  0  0  1  0  0  0  0  0  0
  186.0190  178.1490  142.1700 C   0  0  0  0  0  3  0  0  0  0  0  0
  190.7470  177.5800  140.8940 C   0  0  0  0  0  2  0  0  0  0  0  0
  190.4740  176.2360  141.3880 N   0  0  0  0  0  0  0  0  0  0  0  0
  185.0850  178.1600  144.5060 C   0  0  2  0  0  3  0  0  0  0  0  0
  183.8190  178.3680  143.8180 N   0  0  0  0  0  1  0  0  0  0  0  0
  187.9500  178.1910  145.3760 O   0  0  0  0  0  0  0  0  0  0  0  0
  190.3820  175.9170  142.6470 C   0  0  0  0  0  0  0  0  0  0  0  0
  188.3880  178.2540  141.6890 C   0  0  0  0  0  0  0  0  0  0  0  0
  189.4510  178.3520  140.6210 C   0  0  0  0  0  2  0  0  0  0  0  0
  185.2530  179.2370  145.5670 C   0  0  0  0  0  2  0  0  0  0  0  0
  190.6330  176.8940  143.7740 C   0  0  0  0  0  2  0  0  0  0  0  0
  186.0070  178.7110  146.7830 C   0  0  0  0  0  2  0  0  0  0  0  0
  186.2610  178.1750  143.5510 C   0  0  0  0  0  0  0  0  0  0  0  0
  187.9130  177.3020  147.6560 C   0  0  0  0  0  2  0  0  0  0  0  0
  189.6360  178.5270  149.0620 C   0  0  0  0  0  1  0  0  0  0  0  0
  189.3540  177.8270  147.7440 C   0  0  1  0  0  3  0  0  0  0  0  0
  190.3950  176.8060  147.4100 C   0  0  0  0  0  0  0  0  0  0  0  0
  191.7100  177.1860  147.1650 O   0  0  0  0  0  0  0  0  0  0  0  0
  190.0850  175.5860  147.3840 O   0  0  0  0  0  1  0  0  0  0  0  0
  1  4  1  0  0  0  0
  1  2  1  0  0  0  0
  2 12  1  0  0  0  0
  3 14  1  0  0  0  0
  3  7  2  0  0  0  0
  4 17  1  0  0  0  0
  5 18  1  0  0  0  0
  5 20  1  1  0  0  0
  7 19  1  0  0  0  0
  8  9  1  0  0  0  0
  9 13  2  0  0  0  0
 10 11  1  6  0  0  0
 10 16  1  0  0  0  0
 12  5  1  0  0  0  0
 13  6  1  0  0  0  0
 13 17  1  0  0  0  0
 14  1  2  0  0  0  0
 15  8  1  0  0  0  0
 15 14  1  0  0  0  0
 16 18  1  0  0  0  0
 19  2  2  0  0  0  0
 19 10  1  0  0  0  0
 20 22  1  0  0  0  0
 22 21  1  1  0  0  0
 23 22  1  0  0  0  0
 24 23  2  0  0  0  0
 25 23  1  0  0  0  0
M  END
>  <MODEL>
8

>  <REMARK>
 VINA RESULT:      -7.5      3.073      5.987
  Name = 
  3 active torsions:
  status: ('A' for Active; 'I' for Inactive)
    1  A    between atoms: C_2  and  C_25
    2  A    between atoms: C_6  and  C_15
    3  A    between atoms: C_15  and  C_25
                            x       y       z     vdW  Elec       q    Type
                         _______ _______ _______ _____ _____    ______ ____

>  <TORSDO>
F 3

$$$$
=
 OpenBabel11052412533D

 25 27  0  0  1  0  0  0  0  0999 V2000
  186.0500  177.6140  143.6700 C   0  0  0  0  0  0  0  0  0  0  0  0
  187.3210  177.5750  143.0620 C   0  0  0  0  0  0  0  0  0  0  0  0
  185.3040  179.2430  142.0410 C   0  0  0  0  0  3  0  0  0  0  0  0
  185.8060  176.8110  144.9140 C   0  0  0  0  0  2  0  0  0  0  0  0
  189.7020  176.8820  143.4500 C   0  0  2  0  0  3  0  0  0  0  0  0
  186.6020  179.9590  146.8670 N   0  0  0  0  0  1  0  0  0  0  0  0
  186.5450  179.1870  141.4140 C   0  0  0  0  0  3  0  0  0  0  0  0
  183.5550  178.5180  145.2760 C   0  0  0  0  0  2  0  0  0  0  0  0
  184.5470  179.3880  145.8960 N   0  0  0  0  0  0  0  0  0  0  0  0
  188.8860  178.3020  141.1560 C   0  0  2  0  0  3  0  0  0  0  0  0
  188.8190  178.9790  139.8690 N   0  0  0  0  0  1  0  0  0  0  0  0
  188.2980  176.7480  143.6460 O   0  0  0  0  0  0  0  0  0  0  0  0
  185.7350  179.0050  146.2670 C   0  0  0  0  0  0  0  0  0  0  0  0
  185.0430  178.4700  143.1700 C   0  0  0  0  0  0  0  0  0  0  0  0
  183.6500  178.5570  143.7470 C   0  0  0  0  0  2  0  0  0  0  0  0
  189.3130  176.8600  140.9340 C   0  0  0  0  0  2  0  0  0  0  0  0
  186.2140  177.5730  146.1800 C   0  0  0  0  0  2  0  0  0  0  0  0
  190.1550  176.3410  142.0940 C   0  0  0  0  0  2  0  0  0  0  0  0
  187.5640  178.3510  141.8940 C   0  0  0  0  0  0  0  0  0  0  0  0
  190.4980  176.2440  144.5940 C   0  0  0  0  0  2  0  0  0  0  0  0
  189.6290  177.8160  146.3900 C   0  0  0  0  0  1  0  0  0  0  0  0
  190.8530  177.1560  145.7790 C   0  0  1  0  0  3  0  0  0  0  0  0
  191.7210  176.5060  146.8090 C   0  0  0  0  0  0  0  0  0  0  0  0
  192.4010  175.3270  146.5240 O   0  0  0  0  0  0  0  0  0  0  0  0
  191.8640  177.0490  147.9350 O   0  0  0  0  0  1  0  0  0  0  0  0
  1  4  1  0  0  0  0
  2 12  1  0  0  0  0
  2  1  2  0  0  0  0
  3 14  2  0  0  0  0
  4 17  1  0  0  0  0
  5 12  1  0  0  0  0
  5 20  1  1  0  0  0
  7 19  2  0  0  0  0
  7  3  1  0  0  0  0
  8  9  1  0  0  0  0
  9 13  2  0  0  0  0
 10 11  1  6  0  0  0
 10 19  1  0  0  0  0
 13  6  1  0  0  0  0
 14  1  1  0  0  0  0
 14 15  1  0  0  0  0
 15  8  1  0  0  0  0
 16 10  1  0  0  0  0
 16 18  1  0  0  0  0
 17 13  1  0  0  0  0
 18  5  1  0  0  0  0
 19  2  1  0  0  0  0
 20 22  1  0  0  0  0
 22 21  1  1  0  0  0
 22 23  1  0  0  0  0
 23 25  1  0  0  0  0
 24 23  2  0  0  0  0
M  END
>  <MODEL>
9

>  <REMARK>
 VINA RESULT:      -7.1      2.771      6.645
  Name = 
  3 active torsions:
  status: ('A' for Active; 'I' for Inactive)
    1  A    between atoms: C_2  and  C_25
    2  A    between atoms: C_6  and  C_15
    3  A    between atoms: C_15  and  C_25
                            x       y       z     vdW  Elec       q    Type
                         _______ _______ _______ _____ _____    ______ ____

>  <TORSDO>
F 3

$$$$
