=
 OpenBabel11052415173D

 37 42  0  0  1  0  0  0  0  0999 V2000
  183.3470  179.3420  139.9750 C   0  0  0  0  0  3  0  0  0  0  0  0
  186.4400  177.7010  136.5110 C   0  0  0  0  0  2  0  0  0  0  0  0
  182.0460  176.8610  136.2350 C   0  0  1  0  0  3  0  0  0  0  0  0
  184.4940  176.0500  136.1310 C   0  0  2  0  0  3  0  0  0  0  0  0
  181.4310  178.0960  136.9100 C   0  0  1  0  0  3  0  0  0  0  0  0
  183.5540  177.2570  136.2560 C   0  0  2  0  0  3  0  0  0  0  0  0
  179.9100  178.3800  137.0840 C   0  0  2  0  0  0  0  0  0  0  0  0
  184.1420  174.8100  137.4050 S   0  0  0  0  0  0  0  0  0  0  0  0
  183.6850  178.0830  137.5140 C   0  0  0  0  0  0  0  0  0  0  0  0
  184.6300  178.9640  139.5510 C   0  0  0  0  0  3  0  0  0  0  0  0
  180.3450  175.1400  137.0010 C   0  0  0  0  0  1  0  0  0  0  0  0
  182.6040  174.5290  136.6880 O   0  0  0  0  0  0  0  0  0  0  0  0
  184.8180  178.3190  138.3180 C   0  0  0  0  0  0  0  0  0  0  0  0
  180.1100  177.9260  139.4430 C   0  0  0  0  0  2  0  0  0  0  0  0
  181.7900  175.5930  137.0980 C   0  0  1  0  0  3  0  0  0  0  0  0
  182.4480  178.5560  137.8910 C   0  0  0  0  0  0  0  0  0  0  0  0
  185.9900  176.3460  135.9780 C   0  0  0  0  0  2  0  0  0  0  0  0
  179.3170  177.8430  138.2670 O   0  0  0  0  0  0  0  0  0  0  0  0
  186.1860  177.7980  138.0050 C   0  0  0  0  0  2  0  0  0  0  0  0
  180.8100  179.2780  139.6440 C   0  0  2  0  0  3  0  0  0  0  0  0
  182.2270  179.1170  139.1540 C   0  0  0  0  0  0  0  0  0  0  0  0
  179.1850  177.7820  135.8890 C   0  0  0  0  0  1  0  0  0  0  0  0
  179.6950  179.9030  137.0070 C   0  0  0  0  0  2  0  0  0  0  0  0
  179.9970  180.4990  135.6320 C   0  0  0  0  0  2  0  0  0  0  0  0
  180.4010  184.3130  135.2950 C   0  0  0  0  0  2  0  0  0  0  0  0
  179.9910  182.8860  134.9000 C   0  0  0  0  0  2  0  0  0  0  0  0
  180.7120  181.8340  135.7480 C   0  0  0  0  0  3  0  0  0  0  0  0
  181.1330  183.7620  137.3480 C   0  0  0  0  0  2  0  0  0  0  0  0
  180.8270  182.2630  137.2160 C   0  0  0  0  0  2  0  0  0  0  0  0
  181.5420  184.3100  136.1190 O   0  0  0  0  0  0  0  0  0  0  0  0
  180.6830  179.7850  141.0970 C   0  0  2  0  0  3  0  0  0  0  0  0
  181.7700  179.0160  143.0790 C   0  0  0  0  0  1  0  0  0  0  0  0
  180.7560  178.6930  142.0870 N   0  0  0  0  0  0  0  0  0  0  0  0
  179.7060  178.5740  144.2780 C   0  0  0  0  0  1  0  0  0  0  0  0
  179.4860  178.5020  142.7790 C   0  0  0  0  0  2  0  0  0  0  0  0
  179.5010  180.7590  141.3100 C   0  0  0  0  0  2  0  0  0  0  0  0
  179.2540  181.6760  140.1200 C   0  0  0  0  0  1  0  0  0  0  0  0
  2 19  1  0  0  0  0
  3  6  1  0  0  0  0
  3  5  1  0  0  0  0
  3 15  1  0  0  0  0
  4  6  1  0  0  0  0
  4  8  1  0  0  0  0
  5  7  1  0  0  0  0
  5 16  1  0  0  0  0
  6  9  1  0  0  0  0
  7 18  1  0  0  0  0
  9 16  2  0  0  0  0
  9 13  1  0  0  0  0
 10  1  1  0  0  0  0
 11 15  1  0  0  0  0
 12 15  1  0  0  0  0
 12  8  1  0  0  0  0
 13 10  2  0  0  0  0
 14 20  1  0  0  0  0
 16 21  1  0  0  0  0
 17  4  1  0  0  0  0
 17  2  1  0  0  0  0
 18 14  1  0  0  0  0
 19 13  1  0  0  0  0
 20 31  1  0  0  0  0
 21 20  1  0  0  0  0
 21  1  2  0  0  0  0
 22  7  1  0  0  0  0
 23  7  1  0  0  0  0
 24 27  1  0  0  0  0
 24 23  1  0  0  0  0
 25 30  1  0  0  0  0
 26 25  1  0  0  0  0
 26 27  1  0  0  0  0
 27 29  1  0  0  0  0
 29 28  1  0  0  0  0
 30 28  1  0  0  0  0
 31 36  1  0  0  0  0
 31 33  1  0  0  0  0
 33 35  1  0  0  0  0
 33 32  1  0  0  0  0
 35 34  1  0  0  0  0
 37 36  1  0  0  0  0
M  END
>  <MODEL>
1

>  <REMARK>
 VINA RESULT:      -5.8      0.000      0.000
  Name = 
  7 active torsions:
  status: ('A' for Active; 'I' for Inactive)
    1  A    between atoms: C_7  and  C_14
    2  A    between atoms: C_7  and  C_15
    3  A    between atoms: C_8  and  C_15
    4  A    between atoms: C_11  and  C_26
    5  A    between atoms: N_17  and  C_23
    6  A    between atoms: N_17  and  C_26
    7  A    between atoms: C_26  and  C_33
                            x       y       z     vdW  Elec       q    Type
                         _______ _______ _______ _____ _____    ______ ____

>  <TORSDO>
F 7

$$$$
=
 OpenBabel11052415173D

 37 42  0  0  1  0  0  0  0  0999 V2000
  179.5890  177.0340  138.7520 C   0  0  0  0  0  3  0  0  0  0  0  0
  180.9060  172.4240  137.6220 C   0  0  0  0  0  2  0  0  0  0  0  0
  183.9130  175.7480  137.5320 C   0  0  1  0  0  3  0  0  0  0  0  0
  182.8080  173.6940  136.4260 C   0  0  2  0  0  3  0  0  0  0  0  0
  183.3950  176.6900  138.6280 C   0  0  1  0  0  3  0  0  0  0  0  0
  182.9060  174.5670  137.6850 C   0  0  2  0  0  3  0  0  0  0  0  0
  184.0630  178.0230  139.0770 C   0  0  2  0  0  0  0  0  0  0  0  0
  182.4070  174.6890  134.9660 S   0  0  0  0  0  0  0  0  0  0  0  0
  181.6320  175.2450  138.1320 C   0  0  0  0  0  0  0  0  0  0  0  0
  179.2780  175.7380  138.3130 C   0  0  0  0  0  3  0  0  0  0  0  0
  184.8230  177.5020  135.9400 C   0  0  0  0  0  1  0  0  0  0  0  0
  183.9280  175.4830  135.1070 O   0  0  0  0  0  0  0  0  0  0  0  0
  180.2940  174.8270  137.9860 C   0  0  0  0  0  0  0  0  0  0  0  0
  182.2880  179.2550  138.0090 C   0  0  0  0  0  2  0  0  0  0  0  0
  183.7770  176.4200  136.1360 C   0  0  1  0  0  3  0  0  0  0  0  0
  181.9260  176.4790  138.6680 C   0  0  0  0  0  0  0  0  0  0  0  0
  181.9690  172.4150  136.5300 C   0  0  0  0  0  2  0  0  0  0  0  0
  183.6660  179.1850  138.3470 O   0  0  0  0  0  0  0  0  0  0  0  0
  179.8910  173.5240  137.3680 C   0  0  0  0  0  2  0  0  0  0  0  0
  181.3330  178.8660  139.1460 C   0  0  2  0  0  3  0  0  0  0  0  0
  180.9290  177.4320  138.9120 C   0  0  0  0  0  0  0  0  0  0  0  0
  185.5670  177.8680  138.9180 C   0  0  0  0  0  1  0  0  0  0  0  0
  183.8000  178.2080  140.5830 C   0  0  0  0  0  2  0  0  0  0  0  0
  185.0210  178.6950  141.3660 C   0  0  0  0  0  2  0  0  0  0  0  0
  182.8200  178.8470  144.5220 C   0  0  0  0  0  2  0  0  0  0  0  0
  183.1590  178.8450  143.0230 C   0  0  0  0  0  2  0  0  0  0  0  0
  184.6480  179.1100  142.7780 C   0  0  0  0  0  3  0  0  0  0  0  0
  184.9190  178.4390  145.2140 C   0  0  0  0  0  2  0  0  0  0  0  0
  185.5320  178.3940  143.8060 C   0  0  0  0  0  2  0  0  0  0  0  0
  183.8750  179.3780  145.2860 O   0  0  0  0  0  0  0  0  0  0  0  0
  180.1540  179.8550  139.2770 C   0  0  2  0  0  3  0  0  0  0  0  0
  178.9310  180.5140  137.3350 C   0  0  0  0  0  1  0  0  0  0  0  0
  180.0930  180.8150  138.1570 N   0  0  0  0  0  0  0  0  0  0  0  0
  180.5590  183.1360  137.5960 C   0  0  0  0  0  1  0  0  0  0  0  0
  179.9750  182.1910  138.6270 C   0  0  0  0  0  2  0  0  0  0  0  0
  180.0430  180.5020  140.6770 C   0  0  0  0  0  2  0  0  0  0  0  0
  179.6550  179.5150  141.7690 C   0  0  0  0  0  1  0  0  0  0  0  0
  1 21  1  0  0  0  0
  3  6  1  0  0  0  0
  3  5  1  0  0  0  0
  4 17  1  0  0  0  0
  4  6  1  0  0  0  0
  5 16  1  0  0  0  0
  5  7  1  0  0  0  0
  6  9  1  0  0  0  0
  7 23  1  0  0  0  0
  8 12  1  0  0  0  0
  8  4  1  0  0  0  0
  9 16  1  0  0  0  0
 10  1  2  0  0  0  0
 11 15  1  0  0  0  0
 12 15  1  0  0  0  0
 13  9  2  0  0  0  0
 13 10  1  0  0  0  0
 14 18  1  0  0  0  0
 14 20  1  0  0  0  0
 15  3  1  0  0  0  0
 16 21  2  0  0  0  0
 17  2  1  0  0  0  0
 18  7  1  0  0  0  0
 19  2  1  0  0  0  0
 19 13  1  0  0  0  0
 20 31  1  0  0  0  0
 21 20  1  0  0  0  0
 22  7  1  0  0  0  0
 23 24  1  0  0  0  0
 24 27  1  0  0  0  0
 25 30  1  0  0  0  0
 26 25  1  0  0  0  0
 27 26  1  0  0  0  0
 27 29  1  0  0  0  0
 28 30  1  0  0  0  0
 29 28  1  0  0  0  0
 31 36  1  0  0  0  0
 32 33  1  0  0  0  0
 33 35  1  0  0  0  0
 33 31  1  0  0  0  0
 34 35  1  0  0  0  0
 36 37  1  0  0  0  0
M  END
>  <MODEL>
2

>  <REMARK>
 VINA RESULT:      -5.4      2.528      5.925
  Name = 
  7 active torsions:
  status: ('A' for Active; 'I' for Inactive)
    1  A    between atoms: C_7  and  C_14
    2  A    between atoms: C_7  and  C_15
    3  A    between atoms: C_8  and  C_15
    4  A    between atoms: C_11  and  C_26
    5  A    between atoms: N_17  and  C_23
    6  A    between atoms: N_17  and  C_26
    7  A    between atoms: C_26  and  C_33
                            x       y       z     vdW  Elec       q    Type
                         _______ _______ _______ _____ _____    ______ ____

>  <TORSDO>
F 7

$$$$
=
 OpenBabel11052415173D

 37 42  0  0  1  0  0  0  0  0999 V2000
  180.6950  177.7600  135.6530 C   0  0  0  0  0  3  0  0  0  0  0  0
  180.4790  182.6600  136.1110 C   0  0  0  0  0  2  0  0  0  0  0  0
  181.9890  180.1130  139.4770 C   0  0  1  0  0  3  0  0  0  0  0  0
  180.4790  182.0190  138.6100 C   0  0  2  0  0  3  0  0  0  0  0  0
  182.6320  178.9320  138.7340 C   0  0  1  0  0  3  0  0  0  0  0  0
  181.5880  181.0140  138.2690 C   0  0  2  0  0  3  0  0  0  0  0  0
  183.3580  177.7250  139.3950 C   0  0  2  0  0  0  0  0  0  0  0  0
  179.0240  181.1830  139.2960 S   0  0  0  0  0  0  0  0  0  0  0  0
  181.2780  180.0190  137.1750 C   0  0  0  0  0  0  0  0  0  0  0  0
  180.1660  179.0080  135.2880 C   0  0  0  0  0  3  0  0  0  0  0  0
  181.1200  178.8470  141.4970 C   0  0  0  0  0  1  0  0  0  0  0  0
  179.9520  180.7250  140.6710 O   0  0  0  0  0  0  0  0  0  0  0  0
  180.4410  180.1550  136.0490 C   0  0  0  0  0  0  0  0  0  0  0  0
  181.4970  176.3070  138.8180 C   0  0  0  0  0  2  0  0  0  0  0  0
  180.7340  179.6380  140.2610 C   0  0  1  0  0  3  0  0  0  0  0  0
  181.8790  178.8130  137.4590 C   0  0  0  0  0  0  0  0  0  0  0  0
  180.1260  183.0570  137.5400 C   0  0  0  0  0  2  0  0  0  0  0  0
  182.5210  176.6230  139.7500 O   0  0  0  0  0  0  0  0  0  0  0  0
  179.7130  181.4160  135.6990 C   0  0  0  0  0  2  0  0  0  0  0  0
  181.9490  176.3110  137.3500 C   0  0  2  0  0  3  0  0  0  0  0  0
  181.5450  177.6420  136.7680 C   0  0  0  0  0  0  0  0  0  0  0  0
  184.0310  178.2230  140.6650 C   0  0  0  0  0  1  0  0  0  0  0  0
  184.4880  177.2710  138.4520 C   0  0  0  0  0  2  0  0  0  0  0  0
  185.4070  178.4070  138.0000 C   0  0  0  0  0  2  0  0  0  0  0  0
  189.0920  178.5770  136.8980 C   0  0  0  0  0  2  0  0  0  0  0  0
  187.5630  178.6610  136.7680 C   0  0  0  0  0  2  0  0  0  0  0  0
  186.8560  177.9580  137.9300 C   0  0  0  0  0  3  0  0  0  0  0  0
  189.0940  178.1820  139.1110 C   0  0  0  0  0  2  0  0  0  0  0  0
  187.5660  178.2060  139.2660 C   0  0  0  0  0  2  0  0  0  0  0  0
  189.4730  177.6350  137.8710 O   0  0  0  0  0  0  0  0  0  0  0  0
  181.4210  175.0830  136.5780 C   0  0  2  0  0  3  0  0  0  0  0  0
  179.1800  174.3130  136.8840 C   0  0  0  0  0  1  0  0  0  0  0  0
  180.5380  174.2320  137.4010 N   0  0  0  0  0  0  0  0  0  0  0  0
  179.7340  171.9420  137.2430 C   0  0  0  0  0  1  0  0  0  0  0  0
  180.9530  172.8340  137.3740 C   0  0  0  0  0  2  0  0  0  0  0  0
  182.5240  174.3090  135.8190 C   0  0  0  0  0  2  0  0  0  0  0  0
  183.8430  175.0630  135.7390 C   0  0  0  0  0  1  0  0  0  0  0  0
  1 21  1  0  0  0  0
  2 17  1  0  0  0  0
  3 15  1  0  0  0  0
  4  8  1  0  0  0  0
  5  7  1  0  0  0  0
  5  3  1  0  0  0  0
  6  4  1  0  0  0  0
  6  3  1  0  0  0  0
  7 18  1  0  0  0  0
  7 22  1  0  0  0  0
  8 12  1  0  0  0  0
  9 16  1  0  0  0  0
  9  6  1  0  0  0  0
 10  1  2  0  0  0  0
 10 13  1  0  0  0  0
 13  9  2  0  0  0  0
 14 18  1  0  0  0  0
 15 12  1  0  0  0  0
 15 11  1  0  0  0  0
 16  5  1  0  0  0  0
 17  4  1  0  0  0  0
 19 13  1  0  0  0  0
 19  2  1  0  0  0  0
 20 14  1  0  0  0  0
 21 20  1  0  0  0  0
 21 16  2  0  0  0  0
 23  7  1  0  0  0  0
 24 23  1  0  0  0  0
 25 30  1  0  0  0  0
 26 25  1  0  0  0  0
 26 27  1  0  0  0  0
 27 24  1  0  0  0  0
 27 29  1  0  0  0  0
 28 29  1  0  0  0  0
 30 28  1  0  0  0  0
 31 20  1  0  0  0  0
 31 33  1  0  0  0  0
 32 33  1  0  0  0  0
 34 35  1  0  0  0  0
 35 33  1  0  0  0  0
 36 31  1  0  0  0  0
 37 36  1  0  0  0  0
M  END
>  <MODEL>
3

>  <REMARK>
 VINA RESULT:      -5.4      2.744      6.937
  Name = 
  7 active torsions:
  status: ('A' for Active; 'I' for Inactive)
    1  A    between atoms: C_7  and  C_14
    2  A    between atoms: C_7  and  C_15
    3  A    between atoms: C_8  and  C_15
    4  A    between atoms: C_11  and  C_26
    5  A    between atoms: N_17  and  C_23
    6  A    between atoms: N_17  and  C_26
    7  A    between atoms: C_26  and  C_33
                            x       y       z     vdW  Elec       q    Type
                         _______ _______ _______ _____ _____    ______ ____

>  <TORSDO>
F 7

$$$$
=
 OpenBabel11052415173D

 37 42  0  0  1  0  0  0  0  0999 V2000
  180.1520  176.8270  138.4340 C   0  0  0  0  0  3  0  0  0  0  0  0
  182.1440  172.5490  137.0210 C   0  0  0  0  0  2  0  0  0  0  0  0
  184.7170  176.1570  137.6930 C   0  0  1  0  0  3  0  0  0  0  0  0
  184.0140  174.1450  136.2380 C   0  0  2  0  0  3  0  0  0  0  0  0
  183.9570  176.9020  138.8010 C   0  0  1  0  0  3  0  0  0  0  0  0
  183.8490  174.8670  137.5820 C   0  0  2  0  0  3  0  0  0  0  0  0
  184.3980  178.2350  139.4740 C   0  0  2  0  0  0  0  0  0  0  0  0
  183.6830  175.2600  134.8480 S   0  0  0  0  0  0  0  0  0  0  0  0
  182.4570  175.3490  137.9170 C   0  0  0  0  0  0  0  0  0  0  0  0
  180.0560  175.5670  137.8230 C   0  0  0  0  0  3  0  0  0  0  0  0
  185.6020  178.1750  136.4340 C   0  0  0  0  0  1  0  0  0  0  0  0
  185.0670  176.1870  135.2790 O   0  0  0  0  0  0  0  0  0  0  0  0
  181.2070  174.8130  137.5450 C   0  0  0  0  0  0  0  0  0  0  0  0
  182.6360  179.3920  138.3060 C   0  0  0  0  0  2  0  0  0  0  0  0
  184.6780  176.9730  136.3710 C   0  0  1  0  0  3  0  0  0  0  0  0
  182.5300  176.5340  138.6150 C   0  0  0  0  0  0  0  0  0  0  0  0
  183.3290  172.7820  136.0900 C   0  0  0  0  0  2  0  0  0  0  0  0
  183.9590  179.4270  138.8210 O   0  0  0  0  0  0  0  0  0  0  0  0
  181.0440  173.5580  136.7460 C   0  0  0  0  0  2  0  0  0  0  0  0
  181.5990  178.7720  139.2540 C   0  0  2  0  0  3  0  0  0  0  0  0
  181.4040  177.3410  138.8180 C   0  0  0  0  0  0  0  0  0  0  0  0
  185.9190  178.2580  139.5080 C   0  0  0  0  0  1  0  0  0  0  0  0
  183.9290  178.2100  140.9410 C   0  0  0  0  0  2  0  0  0  0  0  0
  184.7600  179.0970  141.8680 C   0  0  0  0  0  2  0  0  0  0  0  0
  187.0670  177.5270  144.5210 C   0  0  0  0  0  2  0  0  0  0  0  0
  186.5420  177.8750  143.1200 C   0  0  0  0  0  2  0  0  0  0  0  0
  185.0980  178.3840  143.1660 C   0  0  0  0  0  3  0  0  0  0  0  0
  185.5790  178.7980  145.6270 C   0  0  0  0  0  2  0  0  0  0  0  0
  184.8540  179.3030  144.3690 C   0  0  0  0  0  2  0  0  0  0  0  0
  186.0230  177.4730  145.4630 O   0  0  0  0  0  0  0  0  0  0  0  0
  180.3040  179.6080  139.3240 C   0  0  2  0  0  3  0  0  0  0  0  0
  178.9310  180.1270  137.4400 C   0  0  0  0  0  1  0  0  0  0  0  0
  180.1410  180.4980  138.1570 N   0  0  0  0  0  0  0  0  0  0  0  0
  181.1630  182.6960  137.9530 C   0  0  0  0  0  1  0  0  0  0  0  0
  180.0240  181.8970  138.5540 C   0  0  0  0  0  2  0  0  0  0  0  0
  180.0890  180.3020  140.6890 C   0  0  0  0  0  2  0  0  0  0  0  0
  180.4130  179.4070  141.8770 C   0  0  0  0  0  1  0  0  0  0  0  0
  1 21  1  0  0  0  0
  3  5  1  0  0  0  0
  4  6  1  0  0  0  0
  5  7  1  0  0  0  0
  6  3  1  0  0  0  0
  6  9  1  0  0  0  0
  7 22  1  0  0  0  0
  7 23  1  0  0  0  0
  8 12  1  0  0  0  0
  8  4  1  0  0  0  0
  9 16  1  0  0  0  0
 10  1  2  0  0  0  0
 12 15  1  0  0  0  0
 13 10  1  0  0  0  0
 13  9  2  0  0  0  0
 14 18  1  0  0  0  0
 14 20  1  0  0  0  0
 15 11  1  0  0  0  0
 15  3  1  0  0  0  0
 16  5  1  0  0  0  0
 16 21  2  0  0  0  0
 17  4  1  0  0  0  0
 17  2  1  0  0  0  0
 18  7  1  0  0  0  0
 19  2  1  0  0  0  0
 19 13  1  0  0  0  0
 20 31  1  0  0  0  0
 21 20  1  0  0  0  0
 23 24  1  0  0  0  0
 24 27  1  0  0  0  0
 25 30  1  0  0  0  0
 26 27  1  0  0  0  0
 26 25  1  0  0  0  0
 27 29  1  0  0  0  0
 29 28  1  0  0  0  0
 30 28  1  0  0  0  0
 31 36  1  0  0  0  0
 32 33  1  0  0  0  0
 33 35  1  0  0  0  0
 33 31  1  0  0  0  0
 34 35  1  0  0  0  0
 36 37  1  0  0  0  0
M  END
>  <MODEL>
4

>  <REMARK>
 VINA RESULT:      -5.1      2.944      6.218
  Name = 
  7 active torsions:
  status: ('A' for Active; 'I' for Inactive)
    1  A    between atoms: C_7  and  C_14
    2  A    between atoms: C_7  and  C_15
    3  A    between atoms: C_8  and  C_15
    4  A    between atoms: C_11  and  C_26
    5  A    between atoms: N_17  and  C_23
    6  A    between atoms: N_17  and  C_26
    7  A    between atoms: C_26  and  C_33
                            x       y       z     vdW  Elec       q    Type
                         _______ _______ _______ _____ _____    ______ ____

>  <TORSDO>
F 7

$$$$
=
 OpenBabel11052415173D

 37 42  0  0  1  0  0  0  0  0999 V2000
  185.9790  178.6250  141.0970 C   0  0  0  0  0  3  0  0  0  0  0  0
  189.1330  178.5260  137.3150 C   0  0  0  0  0  2  0  0  0  0  0  0
  184.8480  177.3380  136.7500 C   0  0  1  0  0  3  0  0  0  0  0  0
  187.3650  176.8790  136.4110 C   0  0  2  0  0  3  0  0  0  0  0  0
  184.1230  178.2180  137.7790 C   0  0  1  0  0  3  0  0  0  0  0  0
  186.3040  177.8710  136.9070 C   0  0  2  0  0  3  0  0  0  0  0  0
  182.5870  178.2620  138.0230 C   0  0  2  0  0  0  0  0  0  0  0  0
  187.1840  175.2660  137.2180 S   0  0  0  0  0  0  0  0  0  0  0  0
  186.3820  178.2620  138.3640 C   0  0  0  0  0  0  0  0  0  0  0  0
  187.2830  178.5470  140.5840 C   0  0  0  0  0  3  0  0  0  0  0  0
  183.3630  175.2870  136.9110 C   0  0  0  0  0  1  0  0  0  0  0  0
  185.6640  175.0610  136.4370 O   0  0  0  0  0  0  0  0  0  0  0  0
  187.5050  178.3530  139.2120 C   0  0  0  0  0  0  0  0  0  0  0  0
  182.8990  177.1050  140.1130 C   0  0  0  0  0  2  0  0  0  0  0  0
  184.7530  175.8420  137.1590 C   0  0  1  0  0  3  0  0  0  0  0  0
  185.1120  178.4510  138.8630 C   0  0  0  0  0  0  0  0  0  0  0  0
  188.8160  177.3710  136.3720 C   0  0  0  0  0  2  0  0  0  0  0  0
  182.0870  177.3140  138.9670 O   0  0  0  0  0  0  0  0  0  0  0  0
  188.9110  178.1130  138.7580 C   0  0  0  0  0  2  0  0  0  0  0  0
  183.4550  178.3910  140.7430 C   0  0  2  0  0  3  0  0  0  0  0  0
  184.8670  178.5520  140.2380 C   0  0  0  0  0  0  0  0  0  0  0  0
  181.8960  178.0000  136.6930 C   0  0  0  0  0  1  0  0  0  0  0  0
  182.2070  179.6970  138.4350 C   0  0  0  0  0  2  0  0  0  0  0  0
  180.9370  180.2170  137.7600 C   0  0  0  0  0  2  0  0  0  0  0  0
  180.2590  183.0300  135.2200 C   0  0  0  0  0  2  0  0  0  0  0  0
  180.3880  181.5940  135.7510 C   0  0  0  0  0  2  0  0  0  0  0  0
  181.1810  181.5420  137.0600 C   0  0  0  0  0  3  0  0  0  0  0  0
  180.6460  184.0220  137.1990 C   0  0  0  0  0  2  0  0  0  0  0  0
  180.8350  182.7160  137.9850 C   0  0  0  0  0  2  0  0  0  0  0  0
  181.1370  183.9040  135.8860 O   0  0  0  0  0  0  0  0  0  0  0  0
  183.3150  178.3920  142.2800 C   0  0  2  0  0  3  0  0  0  0  0  0
  181.8680  179.0030  144.0790 C   0  0  0  0  0  1  0  0  0  0  0  0
  181.9090  178.4840  142.7200 N   0  0  0  0  0  0  0  0  0  0  0  0
  179.8110  178.7230  141.5110 C   0  0  0  0  0  1  0  0  0  0  0  0
  181.1320  179.3780  141.8690 C   0  0  0  0  0  2  0  0  0  0  0  0
  184.2700  179.3810  142.9870 C   0  0  0  0  0  2  0  0  0  0  0  0
  185.0020  178.7700  144.1730 C   0  0  0  0  0  1  0  0  0  0  0  0
  2 19  1  0  0  0  0
  3  6  1  0  0  0  0
  3 15  1  0  0  0  0
  3  5  1  0  0  0  0
  4  6  1  0  0  0  0
  4  8  1  0  0  0  0
  5  7  1  0  0  0  0
  5 16  1  0  0  0  0
  6  9  1  0  0  0  0
  7 23  1  0  0  0  0
  7 18  1  0  0  0  0
  9 16  2  0  0  0  0
  9 13  1  0  0  0  0
 10  1  1  0  0  0  0
 11 15  1  0  0  0  0
 12 15  1  0  0  0  0
 12  8  1  0  0  0  0
 13 10  2  0  0  0  0
 14 20  1  0  0  0  0
 16 21  1  0  0  0  0
 17  4  1  0  0  0  0
 17  2  1  0  0  0  0
 18 14  1  0  0  0  0
 19 13  1  0  0  0  0
 20 31  1  0  0  0  0
 21 20  1  0  0  0  0
 21  1  2  0  0  0  0
 22  7  1  0  0  0  0
 24 23  1  0  0  0  0
 25 26  1  0  0  0  0
 25 30  1  0  0  0  0
 26 27  1  0  0  0  0
 27 24  1  0  0  0  0
 27 29  1  0  0  0  0
 28 29  1  0  0  0  0
 30 28  1  0  0  0  0
 31 33  1  0  0  0  0
 31 36  1  0  0  0  0
 33 32  1  0  0  0  0
 34 35  1  0  0  0  0
 35 33  1  0  0  0  0
 36 37  1  0  0  0  0
M  END
>  <MODEL>
5

>  <REMARK>
 VINA RESULT:      -5.1      1.763      2.945
  Name = 
  7 active torsions:
  status: ('A' for Active; 'I' for Inactive)
    1  A    between atoms: C_7  and  C_14
    2  A    between atoms: C_7  and  C_15
    3  A    between atoms: C_8  and  C_15
    4  A    between atoms: C_11  and  C_26
    5  A    between atoms: N_17  and  C_23
    6  A    between atoms: N_17  and  C_26
    7  A    between atoms: C_26  and  C_33
                            x       y       z     vdW  Elec       q    Type
                         _______ _______ _______ _____ _____    ______ ____

>  <TORSDO>
F 7

$$$$
=
 OpenBabel11052415173D

 37 42  0  0  1  0  0  0  0  0999 V2000
  183.9350  178.8010  140.3950 C   0  0  0  0  0  3  0  0  0  0  0  0
  186.6590  178.0200  136.3660 C   0  0  0  0  0  2  0  0  0  0  0  0
  182.4430  176.5160  136.6020 C   0  0  1  0  0  3  0  0  0  0  0  0
  184.9370  176.1230  136.0650 C   0  0  2  0  0  3  0  0  0  0  0  0
  181.7680  177.5660  137.4970 C   0  0  1  0  0  3  0  0  0  0  0  0
  183.8630  177.1450  136.4610 C   0  0  2  0  0  3  0  0  0  0  0  0
  180.2680  177.5840  137.9120 C   0  0  2  0  0  0  0  0  0  0  0  0
  184.9700  174.7250  137.2180 S   0  0  0  0  0  0  0  0  0  0  0  0
  184.0670  177.8560  137.7780 C   0  0  0  0  0  0  0  0  0  0  0  0
  185.1780  178.6770  139.7550 C   0  0  0  0  0  3  0  0  0  0  0  0
  181.1480  174.4790  137.3850 C   0  0  0  0  0  1  0  0  0  0  0  0
  183.3950  174.2720  136.6920 O   0  0  0  0  0  0  0  0  0  0  0  0
  185.2640  178.1920  138.4410 C   0  0  0  0  0  0  0  0  0  0  0  0
  180.8940  176.9420  140.1490 C   0  0  0  0  0  2  0  0  0  0  0  0
  182.5100  175.1460  137.3340 C   0  0  1  0  0  3  0  0  0  0  0  0
  182.8470  178.0860  138.3750 C   0  0  0  0  0  0  0  0  0  0  0  0
  186.3330  176.6680  135.7430 C   0  0  0  0  0  2  0  0  0  0  0  0
  179.9490  176.8470  139.0930 O   0  0  0  0  0  0  0  0  0  0  0  0
  186.6280  177.9300  137.8810 C   0  0  0  0  0  2  0  0  0  0  0  0
  181.4140  178.3630  140.4120 C   0  0  2  0  0  3  0  0  0  0  0  0
  182.7460  178.4800  139.7150 C   0  0  0  0  0  0  0  0  0  0  0  0
  179.4610  176.9950  136.7650 C   0  0  0  0  0  1  0  0  0  0  0  0
  179.8250  179.0530  138.0470 C   0  0  0  0  0  2  0  0  0  0  0  0
  179.9810  179.8640  136.7610 C   0  0  0  0  0  2  0  0  0  0  0  0
  181.7570  183.0600  137.9670 C   0  0  0  0  0  2  0  0  0  0  0  0
  181.3170  181.5880  137.9760 C   0  0  0  0  0  2  0  0  0  0  0  0
  180.1200  181.3480  137.0510 C   0  0  0  0  0  3  0  0  0  0  0  0
  180.8070  183.5530  135.9910 C   0  0  0  0  0  2  0  0  0  0  0  0
  180.2360  182.1470  135.7470 C   0  0  0  0  0  2  0  0  0  0  0  0
  180.7900  183.8810  137.3590 O   0  0  0  0  0  0  0  0  0  0  0  0
  181.4410  178.7020  141.9180 C   0  0  2  0  0  3  0  0  0  0  0  0
  180.0520  180.4700  141.1110 C   0  0  0  0  0  1  0  0  0  0  0  0
  180.4230  179.7040  142.2910 N   0  0  0  0  0  0  0  0  0  0  0  0
  179.3090  179.0010  144.3370 C   0  0  0  0  0  1  0  0  0  0  0  0
  179.2180  179.0800  142.8260 C   0  0  0  0  0  2  0  0  0  0  0  0
  182.8580  179.0020  142.4580 C   0  0  0  0  0  2  0  0  0  0  0  0
  182.9370  179.0020  143.9780 C   0  0  0  0  0  1  0  0  0  0  0  0
  2 19  1  0  0  0  0
  3 15  1  0  0  0  0
  3  5  1  0  0  0  0
  4  6  1  0  0  0  0
  4  8  1  0  0  0  0
  5  7  1  0  0  0  0
  5 16  1  0  0  0  0
  6  3  1  0  0  0  0
  6  9  1  0  0  0  0
  7 23  1  0  0  0  0
  7 18  1  0  0  0  0
  9 16  2  0  0  0  0
  9 13  1  0  0  0  0
 10  1  1  0  0  0  0
 12  8  1  0  0  0  0
 12 15  1  0  0  0  0
 13 10  2  0  0  0  0
 14 20  1  0  0  0  0
 15 11  1  0  0  0  0
 16 21  1  0  0  0  0
 17  4  1  0  0  0  0
 17  2  1  0  0  0  0
 18 14  1  0  0  0  0
 19 13  1  0  0  0  0
 20 31  1  0  0  0  0
 21  1  2  0  0  0  0
 21 20  1  0  0  0  0
 22  7  1  0  0  0  0
 24 27  1  0  0  0  0
 24 23  1  0  0  0  0
 25 26  1  0  0  0  0
 27 26  1  0  0  0  0
 28 30  1  0  0  0  0
 29 28  1  0  0  0  0
 29 27  1  0  0  0  0
 30 25  1  0  0  0  0
 31 33  1  0  0  0  0
 31 36  1  0  0  0  0
 32 33  1  0  0  0  0
 33 35  1  0  0  0  0
 35 34  1  0  0  0  0
 36 37  1  0  0  0  0
M  END
>  <MODEL>
6

>  <REMARK>
 VINA RESULT:      -4.9      0.974      1.789
  Name = 
  7 active torsions:
  status: ('A' for Active; 'I' for Inactive)
    1  A    between atoms: C_7  and  C_14
    2  A    between atoms: C_7  and  C_15
    3  A    between atoms: C_8  and  C_15
    4  A    between atoms: C_11  and  C_26
    5  A    between atoms: N_17  and  C_23
    6  A    between atoms: N_17  and  C_26
    7  A    between atoms: C_26  and  C_33
                            x       y       z     vdW  Elec       q    Type
                         _______ _______ _______ _____ _____    ______ ____

>  <TORSDO>
F 7

$$$$
=
 OpenBabel11052415173D

 37 42  0  0  1  0  0  0  0  0999 V2000
  183.8560  177.4220  140.1670 C   0  0  0  0  0  3  0  0  0  0  0  0
  180.4890  178.9900  143.4020 C   0  0  0  0  0  2  0  0  0  0  0  0
  179.3170  177.9650  139.1990 C   0  0  1  0  0  3  0  0  0  0  0  0
  179.2530  179.5760  141.2150 C   0  0  2  0  0  3  0  0  0  0  0  0
  180.3150  176.8550  138.8400 C   0  0  1  0  0  3  0  0  0  0  0  0
  179.6920  178.2000  140.6940 C   0  0  2  0  0  3  0  0  0  0  0  0
  180.3730  176.0790  137.4910 C   0  0  2  0  0  0  0  0  0  0  0  0
  179.9050  180.9100  140.1760 S   0  0  0  0  0  0  0  0  0  0  0  0
  181.1730  177.9090  140.7370 C   0  0  0  0  0  0  0  0  0  0  0  0
  183.5010  178.1130  141.3360 C   0  0  0  0  0  3  0  0  0  0  0  0
  179.1370  179.0510  136.9120 C   0  0  0  0  0  1  0  0  0  0  0  0
  178.9310  180.3520  138.8720 O   0  0  0  0  0  0  0  0  0  0  0  0
  182.1550  178.3770  141.6330 C   0  0  0  0  0  0  0  0  0  0  0  0
  182.3900  177.2640  136.9120 C   0  0  0  0  0  2  0  0  0  0  0  0
  179.5950  179.2360  138.3470 C   0  0  1  0  0  3  0  0  0  0  0  0
  181.5270  177.1370  139.6520 C   0  0  0  0  0  0  0  0  0  0  0  0
  179.4290  179.8420  142.7140 C   0  0  0  0  0  2  0  0  0  0  0  0
  181.1730  176.6800  136.4710 O   0  0  0  0  0  0  0  0  0  0  0  0
  181.8590  179.2590  142.8060 C   0  0  0  0  0  2  0  0  0  0  0  0
  183.1800  176.4100  137.9150 C   0  0  2  0  0  3  0  0  0  0  0  0
  182.8650  176.9430  139.2900 C   0  0  0  0  0  0  0  0  0  0  0  0
  178.9530  175.9650  136.9590 C   0  0  0  0  0  1  0  0  0  0  0  0
  180.8460  174.6430  137.7830 C   0  0  0  0  0  2  0  0  0  0  0  0
  179.9440  173.5640  137.1840 C   0  0  0  0  0  2  0  0  0  0  0  0
  182.6980  172.5280  134.7020 C   0  0  0  0  0  2  0  0  0  0  0  0
  181.5950  173.4010  135.3190 C   0  0  0  0  0  2  0  0  0  0  0  0
  180.7280  172.6090  136.3010 C   0  0  0  0  0  3  0  0  0  0  0  0
  182.6760  170.9780  136.3290 C   0  0  0  0  0  2  0  0  0  0  0  0
  181.5630  171.6450  137.1520 C   0  0  0  0  0  2  0  0  0  0  0  0
  182.4710  171.1620  134.9500 O   0  0  0  0  0  0  0  0  0  0  0  0
  184.6840  176.3570  137.5730 C   0  0  2  0  0  3  0  0  0  0  0  0
  186.1500  178.2420  137.5880 C   0  0  0  0  0  1  0  0  0  0  0  0
  185.1350  177.5410  136.8160 N   0  0  0  0  0  0  0  0  0  0  0  0
  187.0540  177.8660  135.3550 C   0  0  0  0  0  1  0  0  0  0  0  0
  185.7160  177.1740  135.5290 C   0  0  0  0  0  2  0  0  0  0  0  0
  185.1320  175.0060  136.9680 C   0  0  0  0  0  2  0  0  0  0  0  0
  184.5480  173.7990  137.6890 C   0  0  0  0  0  1  0  0  0  0  0  0
  1 10  1  0  0  0  0
  3  6  1  0  0  0  0
  4 17  1  0  0  0  0
  5  3  1  0  0  0  0
  5 16  1  0  0  0  0
  6  9  1  0  0  0  0
  6  4  1  0  0  0  0
  7 23  1  0  0  0  0
  7  5  1  0  0  0  0
  8  4  1  0  0  0  0
  9 13  1  0  0  0  0
 10 13  2  0  0  0  0
 11 15  1  0  0  0  0
 12  8  1  0  0  0  0
 13 19  1  0  0  0  0
 14 20  1  0  0  0  0
 15 12  1  0  0  0  0
 15  3  1  0  0  0  0
 16  9  2  0  0  0  0
 17  2  1  0  0  0  0
 18 14  1  0  0  0  0
 18  7  1  0  0  0  0
 19  2  1  0  0  0  0
 20 21  1  0  0  0  0
 21 16  1  0  0  0  0
 21  1  2  0  0  0  0
 22  7  1  0  0  0  0
 24 23  1  0  0  0  0
 25 30  1  0  0  0  0
 25 26  1  0  0  0  0
 26 27  1  0  0  0  0
 27 29  1  0  0  0  0
 27 24  1  0  0  0  0
 28 29  1  0  0  0  0
 30 28  1  0  0  0  0
 31 20  1  0  0  0  0
 33 31  1  0  0  0  0
 33 32  1  0  0  0  0
 34 35  1  0  0  0  0
 35 33  1  0  0  0  0
 36 31  1  0  0  0  0
 36 37  1  0  0  0  0
M  END
>  <MODEL>
7

>  <REMARK>
 VINA RESULT:      -4.7      2.898      7.373
  Name = 
  7 active torsions:
  status: ('A' for Active; 'I' for Inactive)
    1  A    between atoms: C_7  and  C_14
    2  A    between atoms: C_7  and  C_15
    3  A    between atoms: C_8  and  C_15
    4  A    between atoms: C_11  and  C_26
    5  A    between atoms: N_17  and  C_23
    6  A    between atoms: N_17  and  C_26
    7  A    between atoms: C_26  and  C_33
                            x       y       z     vdW  Elec       q    Type
                         _______ _______ _______ _____ _____    ______ ____

>  <TORSDO>
F 7

$$$$
=
 OpenBabel11052415173D

 37 42  0  0  1  0  0  0  0  0999 V2000
  179.7840  176.7930  140.2770 C   0  0  0  0  0  3  0  0  0  0  0  0
  180.3580  172.4060  138.1110 C   0  0  0  0  0  2  0  0  0  0  0  0
  183.0560  175.8350  137.0810 C   0  0  1  0  0  3  0  0  0  0  0  0
  181.5320  173.8830  136.3510 C   0  0  2  0  0  3  0  0  0  0  0  0
  183.1110  176.6190  138.4000 C   0  0  1  0  0  3  0  0  0  0  0  0
  182.2070  174.6050  137.5260 C   0  0  2  0  0  3  0  0  0  0  0  0
  183.9340  177.9140  138.6590 C   0  0  2  0  0  0  0  0  0  0  0  0
  180.5300  175.0280  135.3670 S   0  0  0  0  0  0  0  0  0  0  0  0
  181.2890  175.1730  138.5810 C   0  0  0  0  0  0  0  0  0  0  0  0
  179.2830  175.5470  139.8700 C   0  0  0  0  0  3  0  0  0  0  0  0
  183.1750  177.8000  135.4800 C   0  0  0  0  0  1  0  0  0  0  0  0
  181.9620  175.8600  134.9000 O   0  0  0  0  0  0  0  0  0  0  0  0
  180.0220  174.7220  139.0070 C   0  0  0  0  0  0  0  0  0  0  0  0
  181.8910  179.1920  138.6730 C   0  0  0  0  0  2  0  0  0  0  0  0
  182.3140  176.6610  135.9940 C   0  0  1  0  0  3  0  0  0  0  0  0
  181.8160  176.3460  139.0750 C   0  0  0  0  0  0  0  0  0  0  0  0
  180.8080  172.5690  136.6640 C   0  0  0  0  0  2  0  0  0  0  0  0
  183.2700  179.1380  138.3380 O   0  0  0  0  0  0  0  0  0  0  0  0
  179.3590  173.4860  138.4840 C   0  0  0  0  0  2  0  0  0  0  0  0
  181.5500  178.6340  140.0620 C   0  0  2  0  0  3  0  0  0  0  0  0
  181.0580  177.2220  139.8600 C   0  0  0  0  0  0  0  0  0  0  0  0
  185.1990  177.8390  137.8170 C   0  0  0  0  0  1  0  0  0  0  0  0
  184.3890  177.9090  140.1300 C   0  0  0  0  0  2  0  0  0  0  0  0
  185.0370  179.2180  140.5800 C   0  0  0  0  0  2  0  0  0  0  0  0
  186.4940  177.5780  143.7440 C   0  0  0  0  0  2  0  0  0  0  0  0
  185.4300  178.1960  142.8230 C   0  0  0  0  0  2  0  0  0  0  0  0
  186.0640  178.9850  141.6740 C   0  0  0  0  0  3  0  0  0  0  0  0
  188.1510  177.6460  142.2270 C   0  0  0  0  0  2  0  0  0  0  0  0
  187.3050  178.2810  141.1130 C   0  0  0  0  0  2  0  0  0  0  0  0
  187.7670  178.1220  143.4940 O   0  0  0  0  0  0  0  0  0  0  0  0
  180.5780  179.5520  140.8340 C   0  0  2  0  0  3  0  0  0  0  0  0
  181.2390  179.3920  143.1240 C   0  0  0  0  0  1  0  0  0  0  0  0
  180.2190  179.0090  142.1590 N   0  0  0  0  0  0  0  0  0  0  0  0
  178.9310  179.5880  144.1400 C   0  0  0  0  0  1  0  0  0  0  0  0
  178.9350  179.5220  142.6250 C   0  0  0  0  0  2  0  0  0  0  0  0
  179.3710  180.0230  139.9900 C   0  0  0  0  0  2  0  0  0  0  0  0
  179.3860  181.5160  139.6980 C   0  0  0  0  0  1  0  0  0  0  0  0
  2 19  1  0  0  0  0
  3  6  1  0  0  0  0
  3  5  1  0  0  0  0
  4 17  1  0  0  0  0
  4  6  1  0  0  0  0
  5  7  1  0  0  0  0
  5 16  1  0  0  0  0
  6  9  1  0  0  0  0
  7 23  1  0  0  0  0
  8  4  1  0  0  0  0
  9 13  1  0  0  0  0
  9 16  2  0  0  0  0
 10  1  1  0  0  0  0
 11 15  1  0  0  0  0
 12  8  1  0  0  0  0
 12 15  1  0  0  0  0
 13 10  2  0  0  0  0
 14 20  1  0  0  0  0
 15  3  1  0  0  0  0
 16 21  1  0  0  0  0
 17  2  1  0  0  0  0
 18  7  1  0  0  0  0
 18 14  1  0  0  0  0
 19 13  1  0  0  0  0
 20 31  1  0  0  0  0
 21 20  1  0  0  0  0
 21  1  2  0  0  0  0
 22  7  1  0  0  0  0
 23 24  1  0  0  0  0
 24 27  1  0  0  0  0
 26 25  1  0  0  0  0
 27 26  1  0  0  0  0
 28 30  1  0  0  0  0
 29 27  1  0  0  0  0
 29 28  1  0  0  0  0
 30 25  1  0  0  0  0
 31 33  1  0  0  0  0
 33 35  1  0  0  0  0
 33 32  1  0  0  0  0
 35 34  1  0  0  0  0
 36 31  1  0  0  0  0
 37 36  1  0  0  0  0
M  END
>  <MODEL>
8

>  <REMARK>
 VINA RESULT:      -4.7      2.677      5.710
  Name = 
  7 active torsions:
  status: ('A' for Active; 'I' for Inactive)
    1  A    between atoms: C_7  and  C_14
    2  A    between atoms: C_7  and  C_15
    3  A    between atoms: C_8  and  C_15
    4  A    between atoms: C_11  and  C_26
    5  A    between atoms: N_17  and  C_23
    6  A    between atoms: N_17  and  C_26
    7  A    between atoms: C_26  and  C_33
                            x       y       z     vdW  Elec       q    Type
                         _______ _______ _______ _____ _____    ______ ____

>  <TORSDO>
F 7

$$$$
=
 OpenBabel11052415173D

 37 42  0  0  1  0  0  0  0  0999 V2000
  185.1050  178.6010  140.7610 C   0  0  0  0  0  3  0  0  0  0  0  0
  181.3630  178.5970  143.9640 C   0  0  0  0  0  2  0  0  0  0  0  0
  180.7000  177.4840  139.6730 C   0  0  1  0  0  3  0  0  0  0  0  0
  180.0200  178.8220  141.7730 C   0  0  2  0  0  3  0  0  0  0  0  0
  182.0430  176.8480  139.2860 C   0  0  1  0  0  3  0  0  0  0  0  0
  180.9440  177.7440  141.1910 C   0  0  2  0  0  3  0  0  0  0  0  0
  182.3990  176.2380  137.8990 C   0  0  2  0  0  0  0  0  0  0  0  0
  180.1390  180.3670  140.8330 S   0  0  0  0  0  0  0  0  0  0  0  0
  182.4280  178.0200  141.2670 C   0  0  0  0  0  0  0  0  0  0  0  0
  184.5060  179.0350  141.9540 C   0  0  0  0  0  3  0  0  0  0  0  0
  180.1520  178.5700  137.4460 C   0  0  0  0  0  1  0  0  0  0  0  0
  179.4560  179.5730  139.4670 O   0  0  0  0  0  0  0  0  0  0  0  0
  183.1550  178.7600  142.2210 C   0  0  0  0  0  0  0  0  0  0  0  0
  183.8370  178.1210  137.4550 C   0  0  0  0  0  2  0  0  0  0  0  0
  180.4940  178.8190  138.9040 C   0  0  1  0  0  3  0  0  0  0  0  0
  183.0540  177.5060  140.1530 C   0  0  0  0  0  0  0  0  0  0  0  0
  180.0690  179.0370  143.2900 C   0  0  0  0  0  2  0  0  0  0  0  0
  182.9290  177.1570  136.9420 O   0  0  0  0  0  0  0  0  0  0  0  0
  182.5400  179.3930  143.4300 C   0  0  0  0  0  2  0  0  0  0  0  0
  184.8770  177.5580  138.4350 C   0  0  2  0  0  3  0  0  0  0  0  0
  184.3720  177.8470  139.8260 C   0  0  0  0  0  0  0  0  0  0  0  0
  181.1290  175.6400  137.3140 C   0  0  0  0  0  1  0  0  0  0  0  0
  183.3700  175.0640  138.1260 C   0  0  0  0  0  2  0  0  0  0  0  0
  183.1710  173.9030  137.1510 C   0  0  0  0  0  2  0  0  0  0  0  0
  186.8070  172.6390  137.1210 C   0  0  0  0  0  2  0  0  0  0  0  0
  185.5870  173.4500  137.5850 C   0  0  0  0  0  2  0  0  0  0  0  0
  184.4840  173.4710  136.5230 C   0  0  0  0  0  3  0  0  0  0  0  0
  185.6940  171.4490  135.5720 C   0  0  0  0  0  2  0  0  0  0  0  0
  184.3320  172.1120  135.8290 C   0  0  0  0  0  2  0  0  0  0  0  0
  186.7480  172.3650  135.7420 O   0  0  0  0  0  0  0  0  0  0  0  0
  186.2970  178.0880  138.1410 C   0  0  2  0  0  3  0  0  0  0  0  0
  187.5460  179.2880  136.4960 C   0  0  0  0  0  1  0  0  0  0  0  0
  186.5560  178.2400  136.6950 N   0  0  0  0  0  0  0  0  0  0  0  0
  186.0890  176.4870  135.0740 C   0  0  0  0  0  1  0  0  0  0  0  0
  187.0710  177.0100  136.1040 C   0  0  0  0  0  2  0  0  0  0  0  0
  187.4080  177.3390  138.9120 C   0  0  0  0  0  2  0  0  0  0  0  0
  188.3980  178.2700  139.5980 C   0  0  0  0  0  1  0  0  0  0  0  0
  1 10  1  0  0  0  0
  3  6  1  0  0  0  0
  4 17  1  0  0  0  0
  5  3  1  0  0  0  0
  5 16  1  0  0  0  0
  6  9  1  0  0  0  0
  6  4  1  0  0  0  0
  7 23  1  0  0  0  0
  7  5  1  0  0  0  0
  8  4  1  0  0  0  0
  9 13  1  0  0  0  0
 10 13  2  0  0  0  0
 11 15  1  0  0  0  0
 12  8  1  0  0  0  0
 13 19  1  0  0  0  0
 14 20  1  0  0  0  0
 15 12  1  0  0  0  0
 15  3  1  0  0  0  0
 16  9  2  0  0  0  0
 17  2  1  0  0  0  0
 18 14  1  0  0  0  0
 18  7  1  0  0  0  0
 19  2  1  0  0  0  0
 20 21  1  0  0  0  0
 21 16  1  0  0  0  0
 21  1  2  0  0  0  0
 22  7  1  0  0  0  0
 24 23  1  0  0  0  0
 25 26  1  0  0  0  0
 27 24  1  0  0  0  0
 27 26  1  0  0  0  0
 28 30  1  0  0  0  0
 28 29  1  0  0  0  0
 29 27  1  0  0  0  0
 30 25  1  0  0  0  0
 31 20  1  0  0  0  0
 31 36  1  0  0  0  0
 32 33  1  0  0  0  0
 33 31  1  0  0  0  0
 34 35  1  0  0  0  0
 35 33  1  0  0  0  0
 36 37  1  0  0  0  0
M  END
>  <MODEL>
9

>  <REMARK>
 VINA RESULT:      -4.6      3.076      7.605
  Name = 
  7 active torsions:
  status: ('A' for Active; 'I' for Inactive)
    1  A    between atoms: C_7  and  C_14
    2  A    between atoms: C_7  and  C_15
    3  A    between atoms: C_8  and  C_15
    4  A    between atoms: C_11  and  C_26
    5  A    between atoms: N_17  and  C_23
    6  A    between atoms: N_17  and  C_26
    7  A    between atoms: C_26  and  C_33
                            x       y       z     vdW  Elec       q    Type
                         _______ _______ _______ _____ _____    ______ ____

>  <TORSDO>
F 7

$$$$
