=
 OpenBabel11052413543D

 27 31  0  0  0  0  0  0  0  0999 V2000
  187.7910  177.5780  144.1620 N   0  0  0  0  0  0  0  0  0  0  0  0
  187.6280  178.0260  141.8390 C   0  0  0  0  0  0  0  0  0  0  0  0
  191.1000  177.0410  142.6440 C   0  0  0  0  0  3  0  0  0  0  0  0
  187.0680  178.4880  140.6200 N   0  0  0  0  0  0  0  0  0  0  0  0
  191.2230  176.6120  145.0350 C   0  0  0  0  0  0  0  0  0  0  0  0
  187.0180  177.9750  143.1050 C   0  0  0  0  0  0  0  0  0  0  0  0
  189.3000  177.8490  140.2980 N   0  0  0  0  0  0  0  0  0  0  0  0
  189.1100  177.2540  144.0270 C   0  0  0  0  0  0  0  0  0  0  0  0
  188.9320  177.6650  141.6630 C   0  0  0  0  0  0  0  0  0  0  0  0
  191.8410  176.6920  143.7760 C   0  0  0  0  0  3  0  0  0  0  0  0
  188.1300  178.4100  139.6130 C   0  0  0  0  0  3  0  0  0  0  0  0
  189.8580  176.9000  145.1530 C   0  0  0  0  0  3  0  0  0  0  0  0
  189.7320  177.3060  142.7550 C   0  0  0  0  0  0  0  0  0  0  0  0
  191.6660  177.5250  139.7410 C   0  0  0  0  0  3  0  0  0  0  0  0
  192.3450  175.8670  138.1140 C   0  0  0  0  0  3  0  0  0  0  0  0
  191.0100  175.4990  137.9330 C   0  0  0  0  0  3  0  0  0  0  0  0
  190.0020  176.1430  138.6570 C   0  0  0  0  0  3  0  0  0  0  0  0
  190.3260  177.1500  139.5790 C   0  0  0  0  0  0  0  0  0  0  0  0
  192.6740  176.8820  139.0170 C   0  0  0  0  0  3  0  0  0  0  0  0
  182.9160  179.0240  143.8390 C   0  0  0  0  0  3  0  0  0  0  0  0
  185.5970  178.3380  143.3400 C   0  0  0  0  0  0  0  0  0  0  0  0
  184.6490  178.3200  142.3050 C   0  0  0  0  0  3  0  0  0  0  0  0
  183.3160  178.6620  142.5510 C   0  0  0  0  0  3  0  0  0  0  0  0
  183.8470  179.0440  144.8800 C   0  0  0  0  0  3  0  0  0  0  0  0
  185.1800  178.7020  144.6300 C   0  0  0  0  0  3  0  0  0  0  0  0
  191.4930  176.5730  147.4930 C   0  0  0  0  0  1  0  0  0  0  0  0
  191.9400  176.2580  146.1820 O   0  0  0  0  0  0  0  0  0  0  0  0
  2  6  1  0  0  0  0
  3 13  2  0  0  0  0
  3 10  1  0  0  0  0
  4  2  1  0  0  0  0
  5 12  1  0  0  0  0
  5 27  1  0  0  0  0
  6 21  1  0  0  0  0
  6  1  2  0  0  0  0
  7  9  1  0  0  0  0
  8  1  1  0  0  0  0
  8 12  2  0  0  0  0
  9  2  2  0  0  0  0
  9 13  1  0  0  0  0
 10  5  2  0  0  0  0
 11  7  1  0  0  0  0
 11  4  2  0  0  0  0
 13  8  1  0  0  0  0
 15 19  1  0  0  0  0
 16 15  2  0  0  0  0
 16 17  1  0  0  0  0
 17 18  2  0  0  0  0
 18 14  1  0  0  0  0
 18  7  1  0  0  0  0
 19 14  2  0  0  0  0
 20 24  1  0  0  0  0
 21 25  1  0  0  0  0
 22 23  1  0  0  0  0
 22 21  2  0  0  0  0
 23 20  2  0  0  0  0
 25 24  2  0  0  0  0
 27 26  1  0  0  0  0
M  END
>  <MODEL>
1

>  <REMARK>
 VINA RESULT:      -9.4      0.000      0.000
  Name = 
  3 active torsions:
  status: ('A' for Active; 'I' for Inactive)
    1  A    between atoms: C_9  and  C_15
    2  A    between atoms: C_13  and  O_22
    3  A    between atoms: C_14  and  N_17
                            x       y       z     vdW  Elec       q    Type
                         _______ _______ _______ _____ _____    ______ ____

>  <TORSDO>
F 3

$$$$
=
 OpenBabel11052413543D

 27 31  0  0  0  0  0  0  0  0999 V2000
  187.5000  177.8980  141.2330 N   0  0  0  0  0  0  0  0  0  0  0  0
  189.8340  177.4930  141.3480 C   0  0  0  0  0  0  0  0  0  0  0  0
  188.4600  177.6460  144.7780 C   0  0  0  0  0  3  0  0  0  0  0  0
  191.1770  177.3820  140.9060 N   0  0  0  0  0  0  0  0  0  0  0  0
  186.0720  178.0810  144.6110 C   0  0  0  0  0  0  0  0  0  0  0  0
  188.6860  177.7320  140.5720 C   0  0  0  0  0  0  0  0  0  0  0  0
  191.0730  177.1940  143.2400 N   0  0  0  0  0  0  0  0  0  0  0  0
  187.4060  177.8550  142.5950 C   0  0  0  0  0  0  0  0  0  0  0  0
  189.7660  177.3990  142.7070 C   0  0  0  0  0  0  0  0  0  0  0  0
  187.2240  177.8730  145.3890 C   0  0  0  0  0  3  0  0  0  0  0  0
  192.0020  177.2130  142.1060 C   0  0  0  0  0  3  0  0  0  0  0  0
  186.1730  178.0760  143.2150 C   0  0  0  0  0  3  0  0  0  0  0  0
  188.5590  177.6170  143.3830 C   0  0  0  0  0  0  0  0  0  0  0  0
  191.2900  177.2460  145.6820 C   0  0  0  0  0  3  0  0  0  0  0  0
  192.1530  175.3370  146.8940 C   0  0  0  0  0  3  0  0  0  0  0  0
  192.2920  174.6370  145.6930 C   0  0  0  0  0  3  0  0  0  0  0  0
  191.9280  175.2420  144.4860 C   0  0  0  0  0  3  0  0  0  0  0  0
  191.4100  176.5450  144.4750 C   0  0  0  0  0  0  0  0  0  0  0  0
  191.6540  176.6430  146.8890 C   0  0  0  0  0  3  0  0  0  0  0  0
  188.7520  177.9380  136.2800 C   0  0  0  0  0  3  0  0  0  0  0  0
  188.7090  177.8220  139.0900 C   0  0  0  0  0  0  0  0  0  0  0  0
  188.9380  179.0380  138.4270 C   0  0  0  0  0  3  0  0  0  0  0  0
  188.9590  179.0970  137.0300 C   0  0  0  0  0  3  0  0  0  0  0  0
  188.5250  176.7200  136.9260 C   0  0  0  0  0  3  0  0  0  0  0  0
  188.5050  176.6650  138.3220 C   0  0  0  0  0  3  0  0  0  0  0  0
  183.8180  179.0980  144.5820 C   0  0  0  0  0  1  0  0  0  0  0  0
  184.8230  178.3030  145.1960 O   0  0  0  0  0  0  0  0  0  0  0  0
  1  8  1  0  0  0  0
  2  9  2  0  0  0  0
  3 10  1  0  0  0  0
  4  2  1  0  0  0  0
  4 11  2  0  0  0  0
  5 27  1  0  0  0  0
  5 10  2  0  0  0  0
  6  1  2  0  0  0  0
  6  2  1  0  0  0  0
  7 18  1  0  0  0  0
  8 12  2  0  0  0  0
  8 13  1  0  0  0  0
  9  7  1  0  0  0  0
  9 13  1  0  0  0  0
 11  7  1  0  0  0  0
 12  5  1  0  0  0  0
 13  3  2  0  0  0  0
 14 19  1  0  0  0  0
 16 15  1  0  0  0  0
 17 16  2  0  0  0  0
 18 17  1  0  0  0  0
 18 14  2  0  0  0  0
 19 15  2  0  0  0  0
 20 24  2  0  0  0  0
 20 23  1  0  0  0  0
 21  6  1  0  0  0  0
 22 21  1  0  0  0  0
 23 22  2  0  0  0  0
 24 25  1  0  0  0  0
 25 21  2  0  0  0  0
 26 27  1  0  0  0  0
M  END
>  <MODEL>
2

>  <REMARK>
 VINA RESULT:      -9.4      2.231      5.978
  Name = 
  3 active torsions:
  status: ('A' for Active; 'I' for Inactive)
    1  A    between atoms: C_9  and  C_15
    2  A    between atoms: C_13  and  O_22
    3  A    between atoms: C_14  and  N_17
                            x       y       z     vdW  Elec       q    Type
                         _______ _______ _______ _____ _____    ______ ____

>  <TORSDO>
F 3

$$$$
=
 OpenBabel11052413543D

 27 31  0  0  0  0  0  0  0  0999 V2000
  188.6840  177.6100  143.2560 N   0  0  0  0  0  0  0  0  0  0  0  0
  186.4260  178.2680  143.5610 C   0  0  0  0  0  0  0  0  0  0  0  0
  187.2150  178.2820  139.9490 C   0  0  0  0  0  3  0  0  0  0  0  0
  185.2540  178.6860  144.2430 N   0  0  0  0  0  0  0  0  0  0  0  0
  189.5410  177.6200  139.6870 C   0  0  0  0  0  0  0  0  0  0  0  0
  187.6570  177.8820  144.1190 C   0  0  0  0  0  0  0  0  0  0  0  0
  184.9270  178.7920  141.9240 N   0  0  0  0  0  0  0  0  0  0  0  0
  188.5520  177.7160  141.9020 C   0  0  0  0  0  0  0  0  0  0  0  0
  186.2490  178.3400  142.2110 C   0  0  0  0  0  0  0  0  0  0  0  0
  188.3200  178.0360  139.1300 C   0  0  0  0  0  3  0  0  0  0  0  0
  184.2780  179.0540  143.2130 C   0  0  0  0  0  3  0  0  0  0  0  0
  189.6510  177.4680  141.0740 C   0  0  0  0  0  3  0  0  0  0  0  0
  187.3150  178.1080  141.3330 C   0  0  0  0  0  0  0  0  0  0  0  0
  184.1030  179.4880  139.7220 C   0  0  0  0  0  3  0  0  0  0  0  0
  182.5970  178.0780  138.4560 C   0  0  0  0  0  3  0  0  0  0  0  0
  182.6360  177.1220  139.4730 C   0  0  0  0  0  3  0  0  0  0  0  0
  183.4100  177.3490  140.6150 C   0  0  0  0  0  3  0  0  0  0  0  0
  184.1620  178.5260  140.7390 C   0  0  0  0  0  0  0  0  0  0  0  0
  183.3290  179.2620  138.5800 C   0  0  0  0  0  3  0  0  0  0  0  0
  188.3730  177.5230  148.3420 C   0  0  0  0  0  3  0  0  0  0  0  0
  187.8900  177.7690  145.5820 C   0  0  0  0  0  0  0  0  0  0  0  0
  186.9630  178.2560  146.5170 C   0  0  0  0  0  3  0  0  0  0  0  0
  187.2020  178.1350  147.8890 C   0  0  0  0  0  3  0  0  0  0  0  0
  189.3040  177.0320  147.4230 C   0  0  0  0  0  3  0  0  0  0  0  0
  189.0620  177.1550  146.0520 C   0  0  0  0  0  3  0  0  0  0  0  0
  190.9180  176.0840  138.3220 C   0  0  0  0  0  1  0  0  0  0  0  0
  190.6600  177.3610  138.8890 O   0  0  0  0  0  0  0  0  0  0  0  0
  1  6  1  0  0  0  0
  2  6  2  0  0  0  0
  2  4  1  0  0  0  0
  3 13  1  0  0  0  0
  5 12  2  0  0  0  0
  6 21  1  0  0  0  0
  7  9  1  0  0  0  0
  7 11  1  0  0  0  0
  8  1  2  0  0  0  0
  9  2  1  0  0  0  0
 10  5  1  0  0  0  0
 10  3  2  0  0  0  0
 11  4  2  0  0  0  0
 12  8  1  0  0  0  0
 13  8  1  0  0  0  0
 13  9  2  0  0  0  0
 14 18  1  0  0  0  0
 15 19  1  0  0  0  0
 15 16  2  0  0  0  0
 16 17  1  0  0  0  0
 17 18  2  0  0  0  0
 18  7  1  0  0  0  0
 19 14  2  0  0  0  0
 21 25  2  0  0  0  0
 21 22  1  0  0  0  0
 22 23  2  0  0  0  0
 23 20  1  0  0  0  0
 24 20  2  0  0  0  0
 25 24  1  0  0  0  0
 26 27  1  0  0  0  0
 27  5  1  0  0  0  0
M  END
>  <MODEL>
3

>  <REMARK>
 VINA RESULT:      -8.9      2.635      5.948
  Name = 
  3 active torsions:
  status: ('A' for Active; 'I' for Inactive)
    1  A    between atoms: C_9  and  C_15
    2  A    between atoms: C_13  and  O_22
    3  A    between atoms: C_14  and  N_17
                            x       y       z     vdW  Elec       q    Type
                         _______ _______ _______ _____ _____    ______ ____

>  <TORSDO>
F 3

$$$$
=
 OpenBabel11052413543D

 27 31  0  0  0  0  0  0  0  0999 V2000
  187.3390  177.9670  144.4630 N   0  0  0  0  0  0  0  0  0  0  0  0
  188.9510  177.3370  142.8440 C   0  0  0  0  0  0  0  0  0  0  0  0
  185.8060  178.2540  141.1290 C   0  0  0  0  0  3  0  0  0  0  0  0
  190.1540  176.7960  142.3200 N   0  0  0  0  0  0  0  0  0  0  0  0
  184.1790  178.8740  142.8280 C   0  0  0  0  0  0  0  0  0  0  0  0
  188.6010  177.5140  144.1930 C   0  0  0  0  0  0  0  0  0  0  0  0
  188.6750  177.3230  140.5800 N   0  0  0  0  0  0  0  0  0  0  0  0
  186.4270  178.2300  143.4820 C   0  0  0  0  0  0  0  0  0  0  0  0
  188.0790  177.6330  141.8380 C   0  0  0  0  0  0  0  0  0  0  0  0
  184.5190  178.6670  141.4800 C   0  0  0  0  0  3  0  0  0  0  0  0
  189.9960  176.7520  140.8630 C   0  0  0  0  0  3  0  0  0  0  0  0
  185.1370  178.6470  143.8230 C   0  0  0  0  0  3  0  0  0  0  0  0
  186.7720  178.0500  142.1190 C   0  0  0  0  0  0  0  0  0  0  0  0
  187.2170  177.5370  138.6190 C   0  0  0  0  0  3  0  0  0  0  0  0
  187.8080  179.0030  136.7850 C   0  0  0  0  0  3  0  0  0  0  0  0
  188.9720  179.3780  137.4600 C   0  0  0  0  0  3  0  0  0  0  0  0
  189.2580  178.8340  138.7160 C   0  0  0  0  0  3  0  0  0  0  0  0
  188.3740  177.9220  139.3110 C   0  0  0  0  0  0  0  0  0  0  0  0
  186.9310  178.0800  137.3640 C   0  0  0  0  0  3  0  0  0  0  0  0
  191.2380  176.7020  147.4880 C   0  0  0  0  0  3  0  0  0  0  0  0
  189.5240  177.2250  145.3200 C   0  0  0  0  0  0  0  0  0  0  0  0
  190.8290  176.7530  145.1040 C   0  0  0  0  0  3  0  0  0  0  0  0
  191.6810  176.4910  146.1810 C   0  0  0  0  0  3  0  0  0  0  0  0
  189.9440  177.1740  147.7190 C   0  0  0  0  0  3  0  0  0  0  0  0
  189.0940  177.4340  146.6400 C   0  0  0  0  0  3  0  0  0  0  0  0
  181.7400  179.0030  142.4390 C   0  0  0  0  0  1  0  0  0  0  0  0
  182.9010  179.2940  143.2050 O   0  0  0  0  0  0  0  0  0  0  0  0
  2  6  2  0  0  0  0
  3 10  2  0  0  0  0
  3 13  1  0  0  0  0
  4  2  1  0  0  0  0
  5 27  1  0  0  0  0
  5 12  2  0  0  0  0
  6  1  1  0  0  0  0
  6 21  1  0  0  0  0
  7 11  1  0  0  0  0
  7  9  1  0  0  0  0
  8 12  1  0  0  0  0
  8  1  2  0  0  0  0
  9 13  2  0  0  0  0
  9  2  1  0  0  0  0
 10  5  1  0  0  0  0
 11  4  2  0  0  0  0
 13  8  1  0  0  0  0
 14 18  1  0  0  0  0
 15 19  1  0  0  0  0
 15 16  2  0  0  0  0
 16 17  1  0  0  0  0
 17 18  2  0  0  0  0
 18  7  1  0  0  0  0
 19 14  2  0  0  0  0
 20 24  1  0  0  0  0
 21 25  1  0  0  0  0
 22 21  2  0  0  0  0
 22 23  1  0  0  0  0
 23 20  2  0  0  0  0
 25 24  2  0  0  0  0
 26 27  1  0  0  0  0
M  END
>  <MODEL>
4

>  <REMARK>
 VINA RESULT:      -8.7      2.521      5.756
  Name = 
  3 active torsions:
  status: ('A' for Active; 'I' for Inactive)
    1  A    between atoms: C_9  and  C_15
    2  A    between atoms: C_13  and  O_22
    3  A    between atoms: C_14  and  N_17
                            x       y       z     vdW  Elec       q    Type
                         _______ _______ _______ _____ _____    ______ ____

>  <TORSDO>
F 3

$$$$
=
 OpenBabel11052413543D

 27 31  0  0  0  0  0  0  0  0999 V2000
  185.9540  178.3960  142.3820 N   0  0  0  0  0  0  0  0  0  0  0  0
  183.7920  178.6110  143.3320 C   0  0  0  0  0  0  0  0  0  0  0  0
  183.5330  178.8880  139.6540 C   0  0  0  0  0  3  0  0  0  0  0  0
  182.8010  178.7820  144.3330 N   0  0  0  0  0  0  0  0  0  0  0  0
  185.7720  178.6810  138.7260 C   0  0  0  0  0  0  0  0  0  0  0  0
  185.1760  178.4440  143.5070 C   0  0  0  0  0  0  0  0  0  0  0  0
  181.8310  178.8990  142.2030 N   0  0  0  0  0  0  0  0  0  0  0  0
  185.4350  178.5190  141.1250 C   0  0  0  0  0  0  0  0  0  0  0  0
  183.2370  178.6930  142.0880 C   0  0  0  0  0  0  0  0  0  0  0  0
  184.3920  178.8790  138.5520 C   0  0  0  0  0  3  0  0  0  0  0  0
  181.5300  178.9940  143.6350 C   0  0  0  0  0  3  0  0  0  0  0  0
  186.2860  178.5070  140.0160 C   0  0  0  0  0  3  0  0  0  0  0  0
  184.0410  178.6920  140.9410 C   0  0  0  0  0  0  0  0  0  0  0  0
  180.6300  177.1850  140.9260 C   0  0  0  0  0  3  0  0  0  0  0  0
  178.9310  177.7970  139.3140 C   0  0  0  0  0  3  0  0  0  0  0  0
  179.1300  179.1460  139.6170 C   0  0  0  0  0  3  0  0  0  0  0  0
  180.0790  179.5150  140.5760 C   0  0  0  0  0  3  0  0  0  0  0  0
  180.8240  178.5340  141.2480 C   0  0  0  0  0  0  0  0  0  0  0  0
  179.6830  176.8160  139.9670 C   0  0  0  0  0  3  0  0  0  0  0  0
  187.0750  178.0740  147.3450 C   0  0  0  0  0  3  0  0  0  0  0  0
  185.8220  178.3300  144.8400 C   0  0  0  0  0  0  0  0  0  0  0  0
  185.3100  178.9910  145.9680 C   0  0  0  0  0  3  0  0  0  0  0  0
  185.9330  178.8660  147.2130 C   0  0  0  0  0  3  0  0  0  0  0  0
  187.5940  177.4080  146.2320 C   0  0  0  0  0  3  0  0  0  0  0  0
  186.9700  177.5360  144.9880 C   0  0  0  0  0  3  0  0  0  0  0  0
  187.8390  177.8790  137.6300 C   0  0  0  0  0  1  0  0  0  0  0  0
  186.6520  178.6600  137.6410 O   0  0  0  0  0  0  0  0  0  0  0  0
  1  6  1  0  0  0  0
  2  6  2  0  0  0  0
  2  4  1  0  0  0  0
  3 13  1  0  0  0  0
  5 12  2  0  0  0  0
  6 21  1  0  0  0  0
  7 11  1  0  0  0  0
  8  1  2  0  0  0  0
  9  7  1  0  0  0  0
  9  2  1  0  0  0  0
 10  5  1  0  0  0  0
 10  3  2  0  0  0  0
 11  4  2  0  0  0  0
 12  8  1  0  0  0  0
 13  8  1  0  0  0  0
 13  9  2  0  0  0  0
 14 18  1  0  0  0  0
 15 16  2  0  0  0  0
 15 19  1  0  0  0  0
 16 17  1  0  0  0  0
 17 18  2  0  0  0  0
 18  7  1  0  0  0  0
 19 14  2  0  0  0  0
 21 25  2  0  0  0  0
 21 22  1  0  0  0  0
 22 23  2  0  0  0  0
 23 20  1  0  0  0  0
 24 20  2  0  0  0  0
 25 24  1  0  0  0  0
 26 27  1  0  0  0  0
 27  5  1  0  0  0  0
M  END
>  <MODEL>
5

>  <REMARK>
 VINA RESULT:      -8.5      3.721      7.959
  Name = 
  3 active torsions:
  status: ('A' for Active; 'I' for Inactive)
    1  A    between atoms: C_9  and  C_15
    2  A    between atoms: C_13  and  O_22
    3  A    between atoms: C_14  and  N_17
                            x       y       z     vdW  Elec       q    Type
                         _______ _______ _______ _____ _____    ______ ____

>  <TORSDO>
F 3

$$$$
=
 OpenBabel11052413543D

 27 31  0  0  0  0  0  0  0  0999 V2000
  188.9120  177.6210  141.8490 N   0  0  0  0  0  0  0  0  0  0  0  0
  186.7390  178.2600  142.5480 C   0  0  0  0  0  0  0  0  0  0  0  0
  186.9290  178.4450  138.8600 C   0  0  0  0  0  3  0  0  0  0  0  0
  185.6950  178.6430  143.4300 N   0  0  0  0  0  0  0  0  0  0  0  0
  189.1770  177.8010  138.1920 C   0  0  0  0  0  0  0  0  0  0  0  0
  188.0420  177.8500  142.8790 C   0  0  0  0  0  0  0  0  0  0  0  0
  184.9960  178.8570  141.2040 N   0  0  0  0  0  0  0  0  0  0  0  0
  188.5630  177.7910  140.5400 C   0  0  0  0  0  0  0  0  0  0  0  0
  186.3440  178.3950  141.2500 C   0  0  0  0  0  0  0  0  0  0  0  0
  187.8840  178.2400  137.8610 C   0  0  0  0  0  3  0  0  0  0  0  0
  184.5670  179.0570  142.5920 C   0  0  0  0  0  3  0  0  0  0  0  0
  189.5100  177.5840  139.5340 C   0  0  0  0  0  3  0  0  0  0  0  0
  187.2520  178.2060  140.2000 C   0  0  0  0  0  0  0  0  0  0  0  0
  183.6380  179.7280  139.3570 C   0  0  0  0  0  3  0  0  0  0  0  0
  182.1200  178.2850  138.1420 C   0  0  0  0  0  3  0  0  0  0  0  0
  182.5090  177.2050  138.9390 C   0  0  0  0  0  3  0  0  0  0  0  0
  183.4640  177.3870  139.9440 C   0  0  0  0  0  3  0  0  0  0  0  0
  184.0470  178.6460  140.1480 C   0  0  0  0  0  0  0  0  0  0  0  0
  182.6830  179.5470  138.3520 C   0  0  0  0  0  3  0  0  0  0  0  0
  189.3440  177.3340  146.9430 C   0  0  0  0  0  3  0  0  0  0  0  0
  188.5100  177.6690  144.2780 C   0  0  0  0  0  0  0  0  0  0  0  0
  189.8750  177.6560  144.6040 C   0  0  0  0  0  3  0  0  0  0  0  0
  190.2910  177.4880  145.9280 C   0  0  0  0  0  3  0  0  0  0  0  0
  187.9820  177.3470  146.6330 C   0  0  0  0  0  3  0  0  0  0  0  0
  187.5690  177.5150  145.3080 C   0  0  0  0  0  3  0  0  0  0  0  0
  190.9120  176.3850  137.1420 C   0  0  0  0  0  1  0  0  0  0  0  0
  190.1490  177.5810  137.2120 O   0  0  0  0  0  0  0  0  0  0  0  0
  1  6  1  0  0  0  0
  2  6  2  0  0  0  0
  2  4  1  0  0  0  0
  3 13  1  0  0  0  0
  5 12  2  0  0  0  0
  6 21  1  0  0  0  0
  7  9  1  0  0  0  0
  7 11  1  0  0  0  0
  8  1  2  0  0  0  0
  9  2  1  0  0  0  0
 10  5  1  0  0  0  0
 10  3  2  0  0  0  0
 11  4  2  0  0  0  0
 12  8  1  0  0  0  0
 13  8  1  0  0  0  0
 13  9  2  0  0  0  0
 14 18  1  0  0  0  0
 15 19  1  0  0  0  0
 15 16  2  0  0  0  0
 16 17  1  0  0  0  0
 17 18  2  0  0  0  0
 18  7  1  0  0  0  0
 19 14  2  0  0  0  0
 21 22  2  0  0  0  0
 21 25  1  0  0  0  0
 22 23  1  0  0  0  0
 23 20  2  0  0  0  0
 24 20  1  0  0  0  0
 25 24  2  0  0  0  0
 26 27  1  0  0  0  0
 27  5  1  0  0  0  0
M  END
>  <MODEL>
6

>  <REMARK>
 VINA RESULT:      -8.2      2.809      6.380
  Name = 
  3 active torsions:
  status: ('A' for Active; 'I' for Inactive)
    1  A    between atoms: C_9  and  C_15
    2  A    between atoms: C_13  and  O_22
    3  A    between atoms: C_14  and  N_17
                            x       y       z     vdW  Elec       q    Type
                         _______ _______ _______ _____ _____    ______ ____

>  <TORSDO>
F 3

$$$$
=
 OpenBabel11052413543D

 27 31  0  0  0  0  0  0  0  0999 V2000
  189.1720  177.4170  142.9190 N   0  0  0  0  0  0  0  0  0  0  0  0
  187.3470  177.9340  144.3420 C   0  0  0  0  0  0  0  0  0  0  0  0
  186.3880  178.6320  140.8400 C   0  0  0  0  0  3  0  0  0  0  0  0
  186.6440  178.1820  145.5490 N   0  0  0  0  0  0  0  0  0  0  0  0
  188.2930  178.1070  139.4220 C   0  0  0  0  0  0  0  0  0  0  0  0
  188.6740  177.4940  144.1900 C   0  0  0  0  0  0  0  0  0  0  0  0
  185.2950  178.6970  143.7030 N   0  0  0  0  0  0  0  0  0  0  0  0
  188.4390  177.7650  141.8200 C   0  0  0  0  0  0  0  0  0  0  0  0
  186.5740  178.2450  143.2630 C   0  0  0  0  0  0  0  0  0  0  0  0
  186.9770  178.5770  139.5750 C   0  0  0  0  0  3  0  0  0  0  0  0
  185.3260  178.6990  145.1700 C   0  0  0  0  0  3  0  0  0  0  0  0
  189.0190  177.7090  140.5500 C   0  0  0  0  0  3  0  0  0  0  0  0
  187.1030  178.2120  141.9660 C   0  0  0  0  0  0  0  0  0  0  0  0
  182.8800  179.1020  143.5720 C   0  0  0  0  0  3  0  0  0  0  0  0
  181.6090  178.4150  141.6300 C   0  0  0  0  0  3  0  0  0  0  0  0
  182.7760  177.9240  141.0400 C   0  0  0  0  0  3  0  0  0  0  0  0
  183.9960  178.0230  141.7160 C   0  0  0  0  0  3  0  0  0  0  0  0
  184.0580  178.6270  142.9800 C   0  0  0  0  0  0  0  0  0  0  0  0
  181.6600  179.0030  142.8980 C   0  0  0  0  0  3  0  0  0  0  0  0
  191.2350  176.4060  147.4660 C   0  0  0  0  0  3  0  0  0  0  0  0
  189.5460  177.1240  145.3350 C   0  0  0  0  0  0  0  0  0  0  0  0
  189.0770  177.1430  146.6580 C   0  0  0  0  0  3  0  0  0  0  0  0
  189.9160  176.7870  147.7180 C   0  0  0  0  0  3  0  0  0  0  0  0
  191.7150  176.3810  146.1550 C   0  0  0  0  0  3  0  0  0  0  0  0
  190.8750  176.7370  145.0970 C   0  0  0  0  0  3  0  0  0  0  0  0
  188.6880  179.0050  137.1510 C   0  0  0  0  0  1  0  0  0  0  0  0
  188.9030  178.0350  138.1660 O   0  0  0  0  0  0  0  0  0  0  0  0
  1  6  1  0  0  0  0
  2  4  1  0  0  0  0
  3 13  1  0  0  0  0
  5 10  1  0  0  0  0
  5 12  2  0  0  0  0
  6  2  2  0  0  0  0
  6 21  1  0  0  0  0
  7 11  1  0  0  0  0
  8 13  1  0  0  0  0
  8  1  2  0  0  0  0
  9  7  1  0  0  0  0
  9  2  1  0  0  0  0
 10  3  2  0  0  0  0
 11  4  2  0  0  0  0
 12  8  1  0  0  0  0
 13  9  2  0  0  0  0
 15 19  1  0  0  0  0
 16 15  2  0  0  0  0
 16 17  1  0  0  0  0
 17 18  2  0  0  0  0
 18 14  1  0  0  0  0
 18  7  1  0  0  0  0
 19 14  2  0  0  0  0
 20 23  1  0  0  0  0
 21 22  1  0  0  0  0
 22 23  2  0  0  0  0
 24 20  2  0  0  0  0
 25 21  2  0  0  0  0
 25 24  1  0  0  0  0
 26 27  1  0  0  0  0
 27  5  1  0  0  0  0
M  END
>  <MODEL>
7

>  <REMARK>
 VINA RESULT:      -8.2      2.631      7.068
  Name = 
  3 active torsions:
  status: ('A' for Active; 'I' for Inactive)
    1  A    between atoms: C_9  and  C_15
    2  A    between atoms: C_13  and  O_22
    3  A    between atoms: C_14  and  N_17
                            x       y       z     vdW  Elec       q    Type
                         _______ _______ _______ _____ _____    ______ ____

>  <TORSDO>
F 3

$$$$
=
 OpenBabel11052413543D

 27 31  0  0  0  0  0  0  0  0999 V2000
  187.0200  178.2320  142.5830 N   0  0  0  0  0  0  0  0  0  0  0  0
  184.7000  178.4710  143.0120 C   0  0  0  0  0  0  0  0  0  0  0  0
  185.2720  178.5580  139.3600 C   0  0  0  0  0  3  0  0  0  0  0  0
  183.5100  178.6800  143.7570 N   0  0  0  0  0  0  0  0  0  0  0  0
  187.6620  178.3290  138.9690 C   0  0  0  0  0  0  0  0  0  0  0  0
  186.0110  178.3290  143.5010 C   0  0  0  0  0  0  0  0  0  0  0  0
  183.0420  178.6780  141.4600 N   0  0  0  0  0  0  0  0  0  0  0  0
  186.7960  178.2860  141.2370 C   0  0  0  0  0  0  0  0  0  0  0  0
  184.4380  178.4820  141.6740 C   0  0  0  0  0  0  0  0  0  0  0  0
  186.3560  178.5020  138.4800 C   0  0  0  0  0  3  0  0  0  0  0  0
  182.4280  178.8420  142.7820 C   0  0  0  0  0  3  0  0  0  0  0  0
  187.8740  178.2270  140.3490 C   0  0  0  0  0  3  0  0  0  0  0  0
  185.4790  178.4330  140.7370 C   0  0  0  0  0  0  0  0  0  0  0  0
  181.6330  179.2090  139.5240 C   0  0  0  0  0  3  0  0  0  0  0  0
  180.6880  177.4500  138.1560 C   0  0  0  0  0  3  0  0  0  0  0  0
  181.3090  176.4910  138.9590 C   0  0  0  0  0  3  0  0  0  0  0  0
  182.0950  176.8910  140.0450 C   0  0  0  0  0  3  0  0  0  0  0  0
  182.2740  178.2540  140.3240 C   0  0  0  0  0  0  0  0  0  0  0  0
  180.8480  178.8090  138.4390 C   0  0  0  0  0  3  0  0  0  0  0  0
  187.0020  178.1770  147.6800 C   0  0  0  0  0  3  0  0  0  0  0  0
  186.3410  178.2900  144.9490 C   0  0  0  0  0  0  0  0  0  0  0  0
  185.5680  178.9720  145.9020 C   0  0  0  0  0  3  0  0  0  0  0  0
  185.8960  178.9180  147.2590 C   0  0  0  0  0  3  0  0  0  0  0  0
  187.7790  177.4910  146.7440 C   0  0  0  0  0  3  0  0  0  0  0  0
  187.4490  177.5480  145.3870 C   0  0  0  0  0  3  0  0  0  0  0  0
  188.6540  178.4620  136.7080 C   0  0  0  0  0  1  0  0  0  0  0  0
  188.7630  178.2640  138.1110 O   0  0  0  0  0  0  0  0  0  0  0  0
  1  6  1  0  0  0  0
  2  6  2  0  0  0  0
  2  4  1  0  0  0  0
  3 13  1  0  0  0  0
  5 12  2  0  0  0  0
  6 21  1  0  0  0  0
  7  9  1  0  0  0  0
  7 11  1  0  0  0  0
  8  1  2  0  0  0  0
  9  2  1  0  0  0  0
 10  5  1  0  0  0  0
 10  3  2  0  0  0  0
 11  4  2  0  0  0  0
 12  8  1  0  0  0  0
 13  8  1  0  0  0  0
 13  9  2  0  0  0  0
 14 18  1  0  0  0  0
 15 19  1  0  0  0  0
 15 16  2  0  0  0  0
 16 17  1  0  0  0  0
 17 18  2  0  0  0  0
 18  7  1  0  0  0  0
 19 14  2  0  0  0  0
 21 25  2  0  0  0  0
 21 22  1  0  0  0  0
 22 23  2  0  0  0  0
 23 20  1  0  0  0  0
 24 20  2  0  0  0  0
 25 24  1  0  0  0  0
 26 27  1  0  0  0  0
 27  5  1  0  0  0  0
M  END
>  <MODEL>
8

>  <REMARK>
 VINA RESULT:      -8.2      3.326      6.931
  Name = 
  3 active torsions:
  status: ('A' for Active; 'I' for Inactive)
    1  A    between atoms: C_9  and  C_15
    2  A    between atoms: C_13  and  O_22
    3  A    between atoms: C_14  and  N_17
                            x       y       z     vdW  Elec       q    Type
                         _______ _______ _______ _____ _____    ______ ____

>  <TORSDO>
F 3

$$$$
=
 OpenBabel11052413543D

 27 31  0  0  0  0  0  0  0  0999 V2000
  190.1330  177.1730  141.9560 N   0  0  0  0  0  0  0  0  0  0  0  0
  187.9610  177.8760  141.3130 C   0  0  0  0  0  0  0  0  0  0  0  0
  190.0460  177.4600  138.2870 C   0  0  0  0  0  3  0  0  0  0  0  0
  186.6420  178.3790  141.4510 N   0  0  0  0  0  0  0  0  0  0  0  0
  192.2650  176.7590  138.9960 C   0  0  0  0  0  0  0  0  0  0  0  0
  188.8730  177.5510  142.3320 C   0  0  0  0  0  0  0  0  0  0  0  0
  187.2130  178.2130  139.1840 N   0  0  0  0  0  0  0  0  0  0  0  0
  190.5240  177.1210  140.6490 C   0  0  0  0  0  0  0  0  0  0  0  0
  188.3070  177.7900  139.9960 C   0  0  0  0  0  0  0  0  0  0  0  0
  191.3640  177.1130  137.9780 C   0  0  0  0  0  3  0  0  0  0  0  0
  186.1420  178.6290  140.0960 C   0  0  0  0  0  3  0  0  0  0  0  0
  191.8390  176.7700  140.3290 C   0  0  0  0  0  3  0  0  0  0  0  0
  189.6110  177.4500  139.6160 C   0  0  0  0  0  0  0  0  0  0  0  0
  186.4760  176.5170  137.5740 C   0  0  0  0  0  3  0  0  0  0  0  0
  186.4770  176.9760  135.1970 C   0  0  0  0  0  3  0  0  0  0  0  0
  186.9520  178.2660  135.4470 C   0  0  0  0  0  3  0  0  0  0  0  0
  187.1880  178.6820  136.7600 C   0  0  0  0  0  3  0  0  0  0  0  0
  186.9360  177.8150  137.8340 C   0  0  0  0  0  0  0  0  0  0  0  0
  186.2410  176.1000  136.2610 C   0  0  0  0  0  3  0  0  0  0  0  0
  187.9470  177.7210  146.5260 C   0  0  0  0  0  3  0  0  0  0  0  0
  188.5350  177.6100  143.7780 C   0  0  0  0  0  0  0  0  0  0  0  0
  187.2170  177.4510  144.2350 C   0  0  0  0  0  3  0  0  0  0  0  0
  186.9240  177.5070  145.6010 C   0  0  0  0  0  3  0  0  0  0  0  0
  189.2630  177.8780  146.0860 C   0  0  0  0  0  3  0  0  0  0  0  0
  189.5540  177.8230  144.7190 C   0  0  0  0  0  3  0  0  0  0  0  0
  193.9230  175.2440  137.9600 C   0  0  0  0  0  1  0  0  0  0  0  0
  193.5860  176.4010  138.7130 O   0  0  0  0  0  0  0  0  0  0  0  0
  1  6  1  0  0  0  0
  2  4  1  0  0  0  0
  2  6  2  0  0  0  0
  3 13  1  0  0  0  0
  5 12  2  0  0  0  0
  6 21  1  0  0  0  0
  7  9  1  0  0  0  0
  7 11  1  0  0  0  0
  8  1  2  0  0  0  0
  9  2  1  0  0  0  0
 10  3  2  0  0  0  0
 10  5  1  0  0  0  0
 11  4  2  0  0  0  0
 12  8  1  0  0  0  0
 13  9  2  0  0  0  0
 13  8  1  0  0  0  0
 14 18  1  0  0  0  0
 15 16  2  0  0  0  0
 15 19  1  0  0  0  0
 16 17  1  0  0  0  0
 17 18  2  0  0  0  0
 18  7  1  0  0  0  0
 19 14  2  0  0  0  0
 21 22  2  0  0  0  0
 21 25  1  0  0  0  0
 22 23  1  0  0  0  0
 23 20  2  0  0  0  0
 24 20  1  0  0  0  0
 25 24  2  0  0  0  0
 26 27  1  0  0  0  0
 27  5  1  0  0  0  0
M  END
>  <MODEL>
9

>  <REMARK>
 VINA RESULT:      -8.2      2.623      4.901
  Name = 
  3 active torsions:
  status: ('A' for Active; 'I' for Inactive)
    1  A    between atoms: C_9  and  C_15
    2  A    between atoms: C_13  and  O_22
    3  A    between atoms: C_14  and  N_17
                            x       y       z     vdW  Elec       q    Type
                         _______ _______ _______ _____ _____    ______ ____

>  <TORSDO>
F 3

$$$$
